0:0
     RDKit          3D

 57 60  0  0  0  0  0  0  0  0999 V2000
   56.7950   28.0480   54.2770 C   0  0  0  0  0  0  0  0  0  0  0  0
   55.4030   28.0420   53.7110 C   0  0  0  0  0  0  0  0  0  0  0  0
   54.7400   26.9250   53.7700 N   0  0  0  0  0  0  0  0  0  0  0  0
   53.3650   26.8230   53.4050 C   0  0  0  0  0  0  0  0  0  0  0  0
   52.5700   25.4120   53.6280 S   0  0  0  0  0  0  0  0  0  0  0  0
   52.6810   27.9690   52.9020 N   0  0  0  0  0  0  0  0  0  0  0  0
   53.4550   29.1150   52.4280 C   0  0  1  0  0  0  0  0  0  0  0  0
   52.5720   30.3490   52.4030 C   0  0  0  0  0  0  0  0  0  0  0  0
   52.1110   30.9140   53.6020 C   0  0  0  0  0  0  0  0  0  0  0  0
   51.2840   32.0400   53.5830 C   0  0  0  0  0  0  0  0  0  0  0  0
   50.9140   32.6200   52.3660 C   0  0  0  0  0  0  0  0  0  0  0  0
   50.0860   33.7360   52.3550 O   0  0  0  0  0  0  0  0  0  0  0  0
   51.3830   32.0780   51.1650 C   0  0  0  0  0  0  0  0  0  0  0  0
   51.0320   32.6600   49.9520 O   0  0  0  0  0  0  0  0  0  0  0  0
   52.2110   30.9510   51.1820 C   0  0  0  0  0  0  0  0  0  0  0  0
   54.7160   29.3450   53.3090 C   0  0  2  0  0  0  0  0  0  0  0  0
   55.6580   30.2940   52.6090 C   0  0  0  0  0  0  0  0  0  0  0  0
   55.3700   30.7650   51.4750 O   0  0  0  0  0  0  0  0  0  0  0  0
   56.8410   30.6700   53.2540 O   0  0  0  0  0  0  0  0  0  0  0  0
   57.9780   31.2130   52.5800 C   0  0  1  0  0  0  0  0  0  0  0  0
   58.1910   30.5400   51.2040 C   0  0  0  0  0  0  0  0  0  0  0  0
   59.6380   30.5060   50.7730 C   0  0  0  0  0  0  0  0  0  0  0  0
   60.6620   30.4450   51.7330 C   0  0  0  0  0  0  0  0  0  0  0  0
   62.0020   30.4620   51.3360 C   0  0  0  0  0  0  0  0  0  0  0  0
   62.3320   30.5180   49.9790 C   0  0  0  0  0  0  0  0  0  0  0  0
   61.3210   30.5670   49.0170 C   0  0  0  0  0  0  0  0  0  0  0  0
   59.9790   30.5680   49.4090 C   0  0  0  0  0  0  0  0  0  0  0  0
   57.8290   32.7140   52.4600 C   0  0  0  0  0  0  0  0  0  0  0  0
   56.6810   33.2220   52.3660 O   0  0  0  0  0  0  0  0  0  0  0  0
   58.9690   33.5890   52.4510 N   0  0  0  0  0  0  0  0  0  0  0  0
   59.8040   33.7280   51.4620 C   0  0  0  0  0  0  0  0  0  0  0  0
   59.3100   33.8390   50.1570 C   0  0  0  0  0  0  0  0  0  0  0  0
   60.2050   33.9950   49.0960 C   0  0  0  0  0  0  0  0  0  0  0  0
   61.5790   34.0220   49.3420 C   0  0  0  0  0  0  0  0  0  0  0  0
   62.0380   33.8850   50.6530 C   0  0  0  0  0  0  0  0  0  0  0  0
   61.1520   33.7420   51.6740 N   0  0  0  0  0  0  0  0  0  0  0  0
   56.7440   28.0478   55.3758 H   0  0  0  0  0  0  0  0  0  0  0  0
   57.3338   27.1522   53.9348 H   0  0  0  0  0  0  0  0  0  0  0  0
   57.3261   28.9484   53.9348 H   0  0  0  0  0  0  0  0  0  0  0  0
   51.6690   27.8900   52.6530 H   0  0  0  0  0  0  0  0  0  0  0  0
   53.8063   28.9080   51.4063 H   0  0  0  0  0  0  0  0  0  0  0  0
   52.4029   30.4671   54.5638 H   0  0  0  0  0  0  0  0  0  0  0  0
   50.9230   32.4714   54.5283 H   0  0  0  0  0  0  0  0  0  0  0  0
   52.5828   30.5319   50.2353 H   0  0  0  0  0  0  0  0  0  0  0  0
   54.3914   29.8042   54.2544 H   0  0  0  0  0  0  0  0  0  0  0  0
   58.8801   31.0022   53.1731 H   0  0  0  0  0  0  0  0  0  0  0  0
   57.8189   29.5063   51.2596 H   0  0  0  0  0  0  0  0  0  0  0  0
   57.6437   31.1382   50.4606 H   0  0  0  0  0  0  0  0  0  0  0  0
   60.4081   30.3836   52.8015 H   0  0  0  0  0  0  0  0  0  0  0  0
   62.7990   30.4312   52.0935 H   0  0  0  0  0  0  0  0  0  0  0  0
   63.3874   30.5235   49.6690 H   0  0  0  0  0  0  0  0  0  0  0  0
   61.5810   30.6049   47.9488 H   0  0  0  0  0  0  0  0  0  0  0  0
   59.1862   30.6175   48.6480 H   0  0  0  0  0  0  0  0  0  0  0  0
   58.2268   33.8037   49.9687 H   0  0  0  0  0  0  0  0  0  0  0  0
   59.8276   34.0965   48.0677 H   0  0  0  0  0  0  0  0  0  0  0  0
   62.2908   34.1496   48.5131 H   0  0  0  0  0  0  0  0  0  0  0  0
   63.1183   33.8928   50.8603 H   0  0  0  0  0  0  0  0  0  0  0  0
  1  2  1  0
  2  3  2  0
  3  4  1  0
  4  5  2  0
  4  6  1  0
  6  7  1  0
  7  8  1  0
  8  9  2  0
  9 10  1  0
 10 11  2  0
 11 12  1  0
 11 13  1  0
 13 14  1  0
 13 15  2  0
  7 16  1  0
 16 17  1  0
 17 18  2  0
 17 19  1  0
 19 20  1  0
 20 21  1  0
 21 22  1  0
 22 23  2  0
 23 24  1  0
 24 25  2  0
 25 26  1  0
 26 27  2  0
 20 28  1  0
 28 29  2  0
 28 30  1  0
 30 31  2  3
 31 32  1  0
 32 33  2  0
 33 34  1  0
 34 35  2  0
 35 36  1  0
 16  2  1  0
 27 22  1  0
 36 31  1  0
 15  8  1  0
  1 37  1  0
  1 38  1  0
  1 39  1  0
  6 40  1  0
  7 41  1  6
  9 42  1  0
 10 43  1  0
 15 44  1  0
 16 45  1  1
 20 46  1  1
 21 47  1  0
 21 48  1  0
 23 49  1  0
 24 50  1  0
 25 51  1  0
 26 52  1  0
 27 53  1  0
 32 54  1  0
 33 55  1  0
 34 56  1  0
 35 57  1  0
M  CHG  3  12  -1  14  -1  36  -1
M  END
>  <UniqueID>  (1) 
1

>  <SMILES>  (1) 
CC1=NC(=S)N[C@@H](c2ccc([O-])c([O-])c2)[C@@H]1C(=O)OC(Cc1ccccc1)C(=O)N=c1cccc[n-]1

>  <Energy>  (1) 
61.08214687543192

>  <Genealogy>  (1) 
CC1=NC(=S)NC(c2ccc([O-])c([O-])c2)C1C(=O)OC(Cc1ccccc1)C(=O)N=c1cccc[n-]1 (protonated)
CC1=NC(=S)N[C@@H](c2ccc([O-])c([O-])c2)[C@@H]1C(=O)OC(Cc1ccccc1)C(=O)N=c1cccc[n-]1 (chirality)
CC1=NC(=S)N[C@@H](c2ccc([O-])c([O-])c2)[C@@H]1C(=O)OC(Cc1ccccc1)C(=O)N=c1cccc[n-]1 (3D coordinates assigned)
CC1=NC(=S)N[C@@H](c2ccc([O-])c([O-])c2)[C@@H]1C(=O)OC(Cc1ccccc1)C(=O)N=c1cccc[n-]1 (nonaromatic ring conformer: 61.08214687543192 kcal/mol)

>  <smiles>  (1) 
CC1=NC(=S)NC(c2ccc(O)c(O)c2)C1C(=O)OC(Cc1ccccc1)C(=O)N=c1cccc[nH]1

>  <score_type>  (1) 
oracle

>  <origin>  (1) 
adg

>  <m_score__min__energy>  (1) 
-18.5

>  <m_primary>  (1) 
energy

$$$$
1:0
     RDKit          3D

 37 40  0  0  0  0  0  0  0  0999 V2000
   53.2510   25.5590   45.9630 H   0  0  0  0  0  0  0  0  0  0  0  0
   54.0690   24.9160   45.8710 N   0  0  0  0  0  0  0  0  0  0  0  0
   55.2830   25.3510   45.9720 C   0  0  0  0  0  0  0  0  0  0  0  0
   55.5820   26.6750   45.9970 N   0  0  0  0  0  0  0  0  0  0  0  0
   56.9250   26.6640   46.1090 C   0  0  0  0  0  0  0  0  0  0  0  0
   57.7820   27.7600   46.1630 C   0  0  0  0  0  0  0  0  0  0  0  0
   57.2580   29.0580   46.1190 O   0  0  0  0  0  0  0  0  0  0  0  0
   57.2380   29.8700   44.9750 C   0  0  0  0  0  0  0  0  0  0  0  0
   56.6700   29.3620   43.8020 C   0  0  0  0  0  0  0  0  0  0  0  0
   56.2558   28.3430   43.7914 H   0  0  0  0  0  0  0  0  0  0  0  0
   56.6260   30.1420   42.6440 C   0  0  0  0  0  0  0  0  0  0  0  0
   56.1627   29.7415   41.7303 H   0  0  0  0  0  0  0  0  0  0  0  0
   57.1690   31.4300   42.6430 C   0  0  0  0  0  0  0  0  0  0  0  0
   57.1188   32.0459   41.7330 H   0  0  0  0  0  0  0  0  0  0  0  0
   57.7790   31.9400   43.8020 C   0  0  0  0  0  0  0  0  0  0  0  0
   58.3340   33.2620   43.8510 N   0  0  0  0  0  0  0  0  0  0  0  0
   58.1380   34.2390   44.8850 C   0  0  0  0  0  0  0  0  0  0  0  0
   56.9740   34.5730   45.2320 O   0  0  0  0  0  0  0  0  0  0  0  0
   59.3070   34.9350   45.5280 C   0  0  0  0  0  0  0  0  0  0  0  0
   59.4106   35.6940   44.7386 H   0  0  0  0  0  0  0  0  0  0  0  0
   59.3220   34.9650   47.0500 C   0  0  0  0  0  0  0  0  0  0  0  0
   59.7261   35.8407   47.5789 H   0  0  0  0  0  0  0  0  0  0  0  0
   58.5650   34.8385   47.8380 H   0  0  0  0  0  0  0  0  0  0  0  0
   60.2590   34.0310   46.2980 C   0  0  0  0  0  0  0  0  0  0  0  0
   61.3405   34.2316   46.2835 H   0  0  0  0  0  0  0  0  0  0  0  0
   60.4598   32.9496   46.3174 H   0  0  0  0  0  0  0  0  0  0  0  0
   57.7970   31.1630   44.9670 C   0  0  0  0  0  0  0  0  0  0  0  0
   58.2517   31.5660   45.8840 H   0  0  0  0  0  0  0  0  0  0  0  0
   59.1720   27.5000   46.2960 C   0  0  0  0  0  0  0  0  0  0  0  0
   60.3300   28.8080   46.4930 Cl  0  0  0  0  0  0  0  0  0  0  0  0
   59.6420   26.1660   46.3320 C   0  0  0  0  0  0  0  0  0  0  0  0
   60.7207   25.9715   46.4243 H   0  0  0  0  0  0  0  0  0  0  0  0
   58.7450   25.0860   46.2510 C   0  0  0  0  0  0  0  0  0  0  0  0
   59.1018   24.0457   46.2707 H   0  0  0  0  0  0  0  0  0  0  0  0
   57.3890   25.3820   46.1450 C   0  0  0  0  0  0  0  0  0  0  0  0
   56.3590   24.5310   46.0600 N   0  0  0  0  0  0  0  0  0  0  0  0
   56.3820   23.4870   46.0600 H   0  0  0  0  0  0  0  0  0  0  0  0
  1  2  1  0
  2  3  2  0
  3  4  1  0
  4  5  1  0
  5  6  2  0
  6  7  1  0
  7  8  1  0
  8  9  2  0
  9 10  1  0
  9 11  1  0
 11 12  1  0
 11 13  2  0
 13 14  1  0
 13 15  1  0
 15 16  1  0
 16 17  1  0
 17 18  2  0
 17 19  1  0
 19 20  1  0
 19 21  1  0
 21 22  1  0
 21 23  1  0
 21 24  1  0
 24 25  1  0
 24 26  1  0
 15 27  2  0
 27 28  1  0
  6 29  1  0
 29 30  1  0
 29 31  2  0
 31 32  1  0
 31 33  1  0
 33 34  1  0
 33 35  2  0
 35 36  1  0
 36 37  1  0
 36  3  1  0
 35  5  1  0
 27  8  1  0
 24 19  1  0
M  CHG  2   4  -1  16  -1
M  END
>  <UniqueID>  (2) 
2

>  <SMILES>  (2) 
[H]/N=c1/[n-]c2c(Oc3cccc([N-]C(=O)C4CC4)c3)c(Cl)ccc2[nH]1

>  <Energy>  (2) 
353.14263775622527

>  <Genealogy>  (2) 
N=c1[n-]c2c(Oc3cccc([N-]C(=O)C4CC4)c3)c(Cl)ccc2[nH]1 (protonated)
[H]/N=c1/[n-]c2c(Oc3cccc([N-]C(=O)C4CC4)c3)c(Cl)ccc2[nH]1 (cis-trans isomerization)
[H]/N=c1/[n-]c2c(Oc3cccc([N-]C(=O)C4CC4)c3)c(Cl)ccc2[nH]1 (3D coordinates assigned)
[H]/N=c1/[n-]c2c(Oc3cccc([N-]C(=O)C4CC4)c3)c(Cl)ccc2[nH]1 (nonaromatic ring conformer: 353.14263775622527 kcal/mol)

>  <smiles>  (2) 
N=c1[nH]c2ccc(Cl)c(Oc3cccc(NC(=O)C4CC4)c3)c2[nH]1

>  <score_type>  (2) 
oracle

>  <origin>  (2) 
adg

>  <m_score__min__energy>  (2) 
-11.130000000000001

>  <m_primary>  (2) 
energy

$$$$
2:0
     RDKit          3D

 33 35  0  0  0  0  0  0  0  0999 V2000
   57.0702   32.1364   42.9997 H   0  0  0  0  0  0  0  0  0  0  0  0
   57.3960   31.6260   43.9180 C   0  0  0  0  0  0  0  0  0  0  0  0
   57.7720   32.3870   45.0470 C   0  0  0  0  0  0  0  0  0  0  0  0
   57.7401   33.4856   45.0008 H   0  0  0  0  0  0  0  0  0  0  0  0
   58.1870   31.7490   46.2300 C   0  0  0  0  0  0  0  0  0  0  0  0
   58.4793   32.3311   47.1164 H   0  0  0  0  0  0  0  0  0  0  0  0
   58.2160   30.3550   46.2430 C   0  0  0  0  0  0  0  0  0  0  0  0
   57.8550   29.6160   45.1450 C   0  0  0  0  0  0  0  0  0  0  0  0
   57.4350   30.2200   43.9590 C   0  0  0  0  0  0  0  0  0  0  0  0
   57.1443   29.6174   43.0859 H   0  0  0  0  0  0  0  0  0  0  0  0
   57.9770   28.2870   45.4990 C   0  0  0  0  0  0  0  0  0  0  0  0
   57.6070   27.0880   44.6800 C   0  0  0  0  0  0  0  0  0  0  0  0
   58.4833   26.7535   44.1053 H   0  0  0  0  0  0  0  0  0  0  0  0
   56.7926   27.3556   43.9907 H   0  0  0  0  0  0  0  0  0  0  0  0
   57.1510   25.9830   45.5790 C   0  0  0  0  0  0  0  0  0  0  0  0
   57.8970   24.8990   45.8750 N   0  0  0  0  0  0  0  0  0  0  0  0
   57.0610   24.1280   46.6100 C   0  0  0  0  0  0  0  0  0  0  0  0
   57.3890   22.9670   47.0920 N   0  0  0  0  0  0  0  0  0  0  0  0
   57.3870   21.7250   46.3190 C   0  0  0  0  0  0  0  0  0  0  0  0
   56.6232   21.0472   46.7279 H   0  0  0  0  0  0  0  0  0  0  0  0
   58.3840   21.2655   46.3883 H   0  0  0  0  0  0  0  0  0  0  0  0
   57.0770   22.0000   44.8510 C   0  0  0  0  0  0  0  0  0  0  0  0
   56.2558   22.7284   44.7799 H   0  0  0  0  0  0  0  0  0  0  0  0
   57.9718   22.4068   44.3572 H   0  0  0  0  0  0  0  0  0  0  0  0
   56.7798   21.0631   44.3572 H   0  0  0  0  0  0  0  0  0  0  0  0
   55.8370   24.6660   46.7820 N   0  0  0  0  0  0  0  0  0  0  0  0
   55.0210   24.2610   47.2940 H   0  0  0  0  0  0  0  0  0  0  0  0
   55.8950   25.8300   46.1200 C   0  0  0  0  0  0  0  0  0  0  0  0
   54.8320   26.7150   46.0000 O   0  0  0  0  0  0  0  0  0  0  0  0
   58.3980   28.2870   46.8260 C   0  0  0  0  0  0  0  0  0  0  0  0
   58.5804   27.3838   47.4268 H   0  0  0  0  0  0  0  0  0  0  0  0
   58.5510   29.5550   47.2720 N   0  0  0  0  0  0  0  0  0  0  0  0
   58.8490   29.8500   48.2290 H   0  0  0  0  0  0  0  0  0  0  0  0
  1  2  1  0
  2  3  2  0
  3  4  1  0
  3  5  1  0
  5  6  1  0
  5  7  2  0
  7  8  1  0
  8  9  2  0
  9 10  1  0
  8 11  1  0
 11 12  1  0
 12 13  1  0
 12 14  1  0
 12 15  1  0
 15 16  1  0
 16 17  1  0
 17 18  2  0
 18 19  1  0
 19 20  1  0
 19 21  1  0
 19 22  1  0
 22 23  1  0
 22 24  1  0
 22 25  1  0
 17 26  1  0
 26 27  1  0
 26 28  1  0
 28 29  1  0
 11 30  2  0
 30 31  1  0
 30 32  1  0
 32 33  1  0
  9  2  1  0
 28 15  2  0
 32  7  1  0
M  CHG  2  16  -1  29  -1
M  END
>  <UniqueID>  (3) 
3

>  <SMILES>  (3) 
CC/N=c1\[n-]c(Cc2c[nH]c3ccccc23)c([O-])[nH]1

>  <Energy>  (3) 
92.3118052919992

>  <Genealogy>  (3) 
CCN=c1[n-]c(Cc2c[nH]c3ccccc23)c([O-])[nH]1 (protonated)
CC/N=c1\[n-]c(Cc2c[nH]c3ccccc23)c([O-])[nH]1 (cis-trans isomerization)
CC/N=c1\[n-]c(Cc2c[nH]c3ccccc23)c([O-])[nH]1 (3D coordinates assigned)
CC/N=c1\[n-]c(Cc2c[nH]c3ccccc23)c([O-])[nH]1 (optimized conformer: 92.3118052919992 kcal/mol)

>  <smiles>  (3) 
CCN=c1[nH]c(O)c(Cc2c[nH]c3ccccc23)[nH]1

>  <score_type>  (3) 
oracle

>  <origin>  (3) 
adg

>  <m_score__min__energy>  (3) 
-11.27

>  <m_primary>  (3) 
energy

$$$$
3:0
     RDKit          3D

 33 35  0  0  0  0  0  0  0  0999 V2000
   58.8590   28.9220   44.1400 O   0  0  0  0  0  0  0  0  0  0  0  0
   58.4250   28.7950   45.3170 C   0  0  0  0  0  0  0  0  0  0  0  0
   57.6680   27.5730   45.6920 C   0  0  0  0  0  0  0  0  0  0  0  0
   58.3680   26.4190   46.0870 C   0  0  0  0  0  0  0  0  0  0  0  0
   57.6800   25.2610   46.4540 C   0  0  0  0  0  0  0  0  0  0  0  0
   56.2850   25.2350   46.4250 C   0  0  0  0  0  0  0  0  0  0  0  0
   55.6070   24.0790   46.7950 O   0  0  0  0  0  0  0  0  0  0  0  0
   55.5720   26.3690   46.0210 C   0  0  0  0  0  0  0  0  0  0  0  0
   54.1830   26.3370   45.9850 O   0  0  0  0  0  0  0  0  0  0  0  0
   56.2560   27.5340   45.6480 C   0  0  0  0  0  0  0  0  0  0  0  0
   55.5230   28.6370   45.2180 O   0  0  0  0  0  0  0  0  0  0  0  0
   58.7050   29.8230   46.2820 N   0  0  0  0  0  0  0  0  0  0  0  0
   59.3140   29.3990   47.5510 C   0  0  0  0  0  0  0  0  0  0  0  0
   59.1910   30.4870   48.6180 C   0  0  0  0  0  0  0  0  0  0  0  0
   59.7960   31.7930   48.1100 C   0  0  0  0  0  0  0  0  0  0  0  0
   59.1700   32.2030   46.8030 C   0  0  0  0  0  0  0  0  0  0  0  0
   59.1410   33.5590   46.4440 C   0  0  0  0  0  0  0  0  0  0  0  0
   58.5690   33.9580   45.2350 C   0  0  0  0  0  0  0  0  0  0  0  0
   58.5360   35.3040   44.8920 O   0  0  0  0  0  0  0  0  0  0  0  0
   58.0270   33.0040   44.3730 C   0  0  0  0  0  0  0  0  0  0  0  0
   58.0660   31.6500   44.7090 C   0  0  0  0  0  0  0  0  0  0  0  0
   58.6620   31.2250   45.9160 C   0  0  0  0  0  0  0  0  0  0  0  0
   59.4678   26.4289   46.1070 H   0  0  0  0  0  0  0  0  0  0  0  0
   58.2389   24.3667   46.7668 H   0  0  0  0  0  0  0  0  0  0  0  0
   58.8061   28.4901   47.9060 H   0  0  0  0  0  0  0  0  0  0  0  0
   60.3824   29.2048   47.3752 H   0  0  0  0  0  0  0  0  0  0  0  0
   58.1285   30.6462   48.8541 H   0  0  0  0  0  0  0  0  0  0  0  0
   59.7321   30.1676   49.5209 H   0  0  0  0  0  0  0  0  0  0  0  0
   59.6239   32.5835   48.8553 H   0  0  0  0  0  0  0  0  0  0  0  0
   60.8740   31.6425   47.9513 H   0  0  0  0  0  0  0  0  0  0  0  0
   59.5718   34.3125   47.1197 H   0  0  0  0  0  0  0  0  0  0  0  0
   57.5673   33.3203   43.4251 H   0  0  0  0  0  0  0  0  0  0  0  0
   57.6280   30.9067   44.0266 H   0  0  0  0  0  0  0  0  0  0  0  0
  1  2  2  0
  2  3  1  0
  3  4  2  0
  4  5  1  0
  5  6  2  0
  6  7  1  0
  6  8  1  0
  8  9  1  0
  8 10  2  0
 10 11  1  0
  2 12  1  0
 12 13  1  0
 13 14  1  0
 14 15  1  0
 15 16  1  0
 16 17  2  0
 17 18  1  0
 18 19  1  0
 18 20  2  0
 20 21  1  0
 21 22  2  0
 10  3  1  0
 22 12  1  0
 22 16  1  0
  4 23  1  0
  5 24  1  0
 13 25  1  0
 13 26  1  0
 14 27  1  0
 14 28  1  0
 15 29  1  0
 15 30  1  0
 17 31  1  0
 20 32  1  0
 21 33  1  0
M  CHG  4   7  -1   9  -1  11  -1  19  -1
M  END
>  <UniqueID>  (4) 
4

>  <SMILES>  (4) 
O=C(c1ccc([O-])c([O-])c1[O-])N1CCCc2cc([O-])ccc21

>  <Energy>  (4) 
45.63482356794451

>  <Genealogy>  (4) 
O=C(c1ccc([O-])c([O-])c1[O-])N1CCCc2cc([O-])ccc21 (protonated)
O=C(c1ccc([O-])c([O-])c1[O-])N1CCCc2cc([O-])ccc21 (3D coordinates assigned)
O=C(c1ccc([O-])c([O-])c1[O-])N1CCCc2cc([O-])ccc21 (nonaromatic ring conformer: 45.63482356794451 kcal/mol)

>  <smiles>  (4) 
O=C(c1ccc(O)c(O)c1O)N1CCCc2cc(O)ccc21

>  <score_type>  (4) 
oracle

>  <origin>  (4) 
adg

>  <m_score__min__energy>  (4) 
-16.870000000000001

>  <m_primary>  (4) 
energy

$$$$
4:0
     RDKit          3D

 38 40  0  0  0  0  0  0  0  0999 V2000
   58.1440   27.6790   47.3000 O   0  0  0  0  0  0  0  0  0  0  0  0
   57.3420   27.3690   46.3770 C   0  0  0  0  0  0  0  0  0  0  0  0
   57.1600   28.2550   45.2580 N   0  0  0  0  0  0  0  0  0  0  0  0
   57.6210   29.6160   45.2350 C   0  0  0  0  0  0  0  0  0  0  0  0
   58.7650   29.9700   45.9640 C   0  0  0  0  0  0  0  0  0  0  0  0
   59.2420   31.2840   45.9450 C   0  0  0  0  0  0  0  0  0  0  0  0
   58.5920   32.2620   45.1700 C   0  0  0  0  0  0  0  0  0  0  0  0
   59.0530   33.6190   45.1100 N   0  0  0  0  0  0  0  0  0  0  0  0
   59.6090   34.5480   46.4630 S   0  0  0  0  0  0  0  0  0  0  0  0
   59.9060   35.9500   46.0100 O   0  0  0  0  0  0  0  0  0  0  0  0
   58.5270   34.5910   47.5060 O   0  0  0  0  0  0  0  0  0  0  0  0
   61.0810   33.8390   47.1190 C   0  0  0  0  0  0  0  0  0  0  0  0
   62.2580   33.8100   46.3560 C   0  0  0  0  0  0  0  0  0  0  0  0
   63.4250   33.2520   46.8890 C   0  0  0  0  0  0  0  0  0  0  0  0
   63.4200   32.7220   48.1840 C   0  0  0  0  0  0  0  0  0  0  0  0
   62.2480   32.7480   48.9460 C   0  0  0  0  0  0  0  0  0  0  0  0
   61.0800   33.3030   48.4140 C   0  0  0  0  0  0  0  0  0  0  0  0
   57.4630   31.9030   44.4260 C   0  0  0  0  0  0  0  0  0  0  0  0
   56.9810   30.5920   44.4510 C   0  0  0  0  0  0  0  0  0  0  0  0
   56.6240   26.0770   46.4320 C   0  0  0  0  0  0  0  0  0  0  0  0
   57.2320   24.9320   46.9690 C   0  0  0  0  0  0  0  0  0  0  0  0
   56.5060   23.7390   46.9960 C   0  0  0  0  0  0  0  0  0  0  0  0
   57.0230   22.6930   47.4670 O   0  0  0  0  0  0  0  0  0  0  0  0
   55.2370   23.7060   46.5130 N   0  0  0  0  0  0  0  0  0  0  0  0
   54.6590   24.8220   45.9990 C   0  0  0  0  0  0  0  0  0  0  0  0
   53.4810   24.7730   45.5580 O   0  0  0  0  0  0  0  0  0  0  0  0
   55.3500   25.9910   45.9620 N   0  0  0  0  0  0  0  0  0  0  0  0
   56.7630   27.8620   44.3750 H   0  0  0  0  0  0  0  0  0  0  0  0
   59.2919   29.2072   46.5561 H   0  0  0  0  0  0  0  0  0  0  0  0
   60.1283   31.5541   46.5378 H   0  0  0  0  0  0  0  0  0  0  0  0
   62.2633   34.2263   45.3378 H   0  0  0  0  0  0  0  0  0  0  0  0
   64.3471   33.2299   46.2896 H   0  0  0  0  0  0  0  0  0  0  0  0
   64.3384   32.2848   48.6027 H   0  0  0  0  0  0  0  0  0  0  0  0
   62.2448   32.3318   49.9642 H   0  0  0  0  0  0  0  0  0  0  0  0
   60.1579   33.3190   49.0135 H   0  0  0  0  0  0  0  0  0  0  0  0
   56.9498   32.6604   43.8153 H   0  0  0  0  0  0  0  0  0  0  0  0
   56.0969   30.3221   43.8547 H   0  0  0  0  0  0  0  0  0  0  0  0
   58.2591   24.9731   47.3606 H   0  0  0  0  0  0  0  0  0  0  0  0
  1  2  2  0
  2  3  1  0
  3  4  1  0
  4  5  2  0
  5  6  1  0
  6  7  2  0
  7  8  1  0
  8  9  1  0
  9 10  2  0
  9 11  2  0
  9 12  1  0
 12 13  2  0
 13 14  1  0
 14 15  2  0
 15 16  1  0
 16 17  2  0
  7 18  1  0
 18 19  2  0
  2 20  1  0
 20 21  2  0
 21 22  1  0
 22 23  2  0
 22 24  1  0
 24 25  1  0
 25 26  2  0
 25 27  1  0
 19  4  1  0
 27 20  1  0
 17 12  1  0
  3 28  1  0
  5 29  1  0
  6 30  1  0
 13 31  1  0
 14 32  1  0
 15 33  1  0
 16 34  1  0
 17 35  1  0
 18 36  1  0
 19 37  1  0
 21 38  1  0
M  CHG  3   8  -1  24  -1  27  -1
M  END
>  <UniqueID>  (5) 
5

>  <SMILES>  (5) 
O=C(Nc1ccc([N-]S(=O)(=O)c2ccccc2)cc1)c1cc(=O)[n-]c(=O)[n-]1

>  <Energy>  (5) 
49.11516669157651

>  <Genealogy>  (5) 
O=C(Nc1ccc([N-]S(=O)(=O)c2ccccc2)cc1)c1cc(=O)[n-]c(=O)[n-]1 (protonated)
O=C(Nc1ccc([N-]S(=O)(=O)c2ccccc2)cc1)c1cc(=O)[n-]c(=O)[n-]1 (3D coordinates assigned)
O=C(Nc1ccc([N-]S(=O)(=O)c2ccccc2)cc1)c1cc(=O)[n-]c(=O)[n-]1 (optimized conformer: 49.11516669157651 kcal/mol)

>  <smiles>  (5) 
O=C(Nc1ccc(NS(=O)(=O)c2ccccc2)cc1)c1cc(=O)[nH]c(=O)[nH]1

>  <score_type>  (5) 
oracle

>  <origin>  (5) 
adg

>  <m_score__min__energy>  (5) 
-13.73

>  <m_primary>  (5) 
energy

$$$$
5:0
     RDKit          3D

 53 56  0  0  0  0  0  0  0  0999 V2000
   59.0380   25.6880   46.0780 O   0  0  0  0  0  0  0  0  0  0  0  0
   58.0500   25.6550   45.2970 C   0  0  0  0  0  0  0  0  0  0  0  0
   57.2670   26.8420   45.0880 N   0  0  0  0  0  0  0  0  0  0  0  0
   57.7540   28.1820   45.4240 C   0  0  2  0  0  0  0  0  0  0  0  0
   58.0420   28.2820   46.9340 C   0  0  0  0  0  0  0  0  0  0  0  0
   59.1910   29.2200   47.2050 C   0  0  0  0  0  0  0  0  0  0  0  0
   59.4870   29.6190   48.5200 C   0  0  0  0  0  0  0  0  0  0  0  0
   60.5810   30.4530   48.7730 C   0  0  0  0  0  0  0  0  0  0  0  0
   61.3900   30.8870   47.7190 C   0  0  0  0  0  0  0  0  0  0  0  0
   61.1100   30.4820   46.4110 C   0  0  0  0  0  0  0  0  0  0  0  0
   60.0190   29.6470   46.1550 C   0  0  0  0  0  0  0  0  0  0  0  0
   56.7390   29.1990   44.9620 C   0  0  0  0  0  0  0  0  0  0  0  0
   55.5170   28.8960   44.8790 O   0  0  0  0  0  0  0  0  0  0  0  0
   57.1840   30.5380   44.5370 C   0  0  0  0  0  0  0  0  0  0  0  0
   57.8190   30.8530   43.3580 C   0  0  0  0  0  0  0  0  0  0  0  0
   58.1120   32.1660   43.3580 N   0  0  0  0  0  0  0  0  0  0  0  0
   57.6280   32.6070   44.5380 C   0  0  0  0  0  0  0  0  0  0  0  0
   57.8010   34.0110   45.0200 C   0  0  0  0  0  0  0  0  0  0  0  0
   58.6580   34.0220   46.2580 C   0  0  0  0  0  0  0  0  0  0  0  0
   58.1980   33.4260   47.4460 C   0  0  0  0  0  0  0  0  0  0  0  0
   59.0030   33.4200   48.5880 C   0  0  0  0  0  0  0  0  0  0  0  0
   60.2820   33.9840   48.5470 C   0  0  0  0  0  0  0  0  0  0  0  0
   60.7560   34.5620   47.3650 C   0  0  0  0  0  0  0  0  0  0  0  0
   59.9480   34.5810   46.2220 C   0  0  0  0  0  0  0  0  0  0  0  0
   57.0650   31.6420   45.2940 N   0  0  0  0  0  0  0  0  0  0  0  0
   57.7050   24.3830   44.6180 C   0  0  0  0  0  0  0  0  0  0  0  0
   56.6500   24.3440   43.6880 C   0  0  0  0  0  0  0  0  0  0  0  0
   56.3130   23.1480   43.0480 C   0  0  0  0  0  0  0  0  0  0  0  0
   57.0150   21.9770   43.3370 C   0  0  0  0  0  0  0  0  0  0  0  0
   58.0530   21.9980   44.2720 C   0  0  0  0  0  0  0  0  0  0  0  0
   58.3970   23.1940   44.9130 C   0  0  0  0  0  0  0  0  0  0  0  0
   56.3250   26.7610   44.6460 H   0  0  0  0  0  0  0  0  0  0  0  0
   58.7036   28.3864   44.9077 H   0  0  0  0  0  0  0  0  0  0  0  0
   57.1439   28.6559   47.4473 H   0  0  0  0  0  0  0  0  0  0  0  0
   58.3110   27.2824   47.3060 H   0  0  0  0  0  0  0  0  0  0  0  0
   58.8563   29.2743   49.3527 H   0  0  0  0  0  0  0  0  0  0  0  0
   60.8050   30.7678   49.8029 H   0  0  0  0  0  0  0  0  0  0  0  0
   62.2469   31.5472   47.9190 H   0  0  0  0  0  0  0  0  0  0  0  0
   61.7490   30.8208   45.5822 H   0  0  0  0  0  0  0  0  0  0  0  0
   59.8080   29.3227   45.1253 H   0  0  0  0  0  0  0  0  0  0  0  0
   58.0496   30.1463   42.5472 H   0  0  0  0  0  0  0  0  0  0  0  0
   58.2856   34.6098   44.2348 H   0  0  0  0  0  0  0  0  0  0  0  0
   56.8154   34.4385   45.2561 H   0  0  0  0  0  0  0  0  0  0  0  0
   57.2007   32.9628   47.4762 H   0  0  0  0  0  0  0  0  0  0  0  0
   58.6302   32.9711   49.5205 H   0  0  0  0  0  0  0  0  0  0  0  0
   60.9162   33.9730   49.4457 H   0  0  0  0  0  0  0  0  0  0  0  0
   61.7638   35.0017   47.3335 H   0  0  0  0  0  0  0  0  0  0  0  0
   60.3233   35.0346   45.2928 H   0  0  0  0  0  0  0  0  0  0  0  0
   56.0863   25.2614   43.4629 H   0  0  0  0  0  0  0  0  0  0  0  0
   55.4929   23.1297   42.3151 H   0  0  0  0  0  0  0  0  0  0  0  0
   56.7512   21.0378   42.8288 H   0  0  0  0  0  0  0  0  0  0  0  0
   58.6009   21.0730   44.5049 H   0  0  0  0  0  0  0  0  0  0  0  0
   59.2125   23.2043   45.6511 H   0  0  0  0  0  0  0  0  0  0  0  0
  1  2  2  0
  2  3  1  0
  3  4  1  0
  4  5  1  0
  5  6  1  0
  6  7  2  0
  7  8  1  0
  8  9  2  0
  9 10  1  0
 10 11  2  0
  4 12  1  0
 12 13  2  0
 12 14  1  0
 14 15  2  0
 15 16  1  0
 16 17  1  0
 17 18  1  0
 18 19  1  0
 19 20  2  0
 20 21  1  0
 21 22  2  0
 22 23  1  0
 23 24  2  0
 17 25  2  0
  2 26  1  0
 26 27  2  0
 27 28  1  0
 28 29  2  0
 29 30  1  0
 30 31  2  0
 11  6  1  0
 25 14  1  0
 31 26  1  0
 24 19  1  0
  3 32  1  0
  4 33  1  6
  5 34  1  0
  5 35  1  0
  7 36  1  0
  8 37  1  0
  9 38  1  0
 10 39  1  0
 11 40  1  0
 15 41  1  0
 18 42  1  0
 18 43  1  0
 20 44  1  0
 21 45  1  0
 22 46  1  0
 23 47  1  0
 24 48  1  0
 27 49  1  0
 28 50  1  0
 29 51  1  0
 30 52  1  0
 31 53  1  0
M  CHG  1  16  -1
M  END
>  <UniqueID>  (6) 
6

>  <SMILES>  (6) 
O=C(N[C@H](Cc1ccccc1)C(=O)c1c[n-]c(Cc2ccccc2)n1)c1ccccc1

>  <Energy>  (6) 
77.1808303667868

>  <Genealogy>  (6) 
O=C(NC(Cc1ccccc1)C(=O)c1c[n-]c(Cc2ccccc2)n1)c1ccccc1 (protonated)
O=C(N[C@H](Cc1ccccc1)C(=O)c1c[n-]c(Cc2ccccc2)n1)c1ccccc1 (chirality)
O=C(N[C@H](Cc1ccccc1)C(=O)c1c[n-]c(Cc2ccccc2)n1)c1ccccc1 (3D coordinates assigned)
O=C(N[C@H](Cc1ccccc1)C(=O)c1c[n-]c(Cc2ccccc2)n1)c1ccccc1 (optimized conformer: 77.1808303667868 kcal/mol)

>  <smiles>  (6) 
O=C(NC(Cc1ccccc1)C(=O)c1c[nH]c(Cc2ccccc2)n1)c1ccccc1

>  <score_type>  (6) 
oracle

>  <origin>  (6) 
adg

>  <m_score__min__energy>  (6) 
-11.039999999999999

>  <m_primary>  (6) 
energy

$$$$
6:0
     RDKit          3D

 35 37  0  0  0  0  0  0  0  0999 V2000
   56.3790   20.5720   43.3200 N   0  0  0  0  0  0  0  0  0  0  0  0
   56.6610   21.7990   43.6320 C   0  0  0  0  0  0  0  0  0  0  0  0
   57.1890   22.1180   44.8900 C   0  0  0  0  0  0  0  0  0  0  0  0
   57.4720   23.4120   45.1870 N   0  0  0  0  0  0  0  0  0  0  0  0
   57.2480   24.4160   44.2950 C   0  0  0  0  0  0  0  0  0  0  0  0
   57.5900   25.8100   44.6640 C   0  0  0  0  0  0  0  0  0  0  0  0
   58.1430   26.6640   43.6950 C   0  0  0  0  0  0  0  0  0  0  0  0
   58.4710   27.9850   44.0140 C   0  0  0  0  0  0  0  0  0  0  0  0
   58.2540   28.4730   45.3090 C   0  0  0  0  0  0  0  0  0  0  0  0
   58.6120   29.8680   45.6450 C   0  0  0  0  0  0  0  0  0  0  0  0
   59.7840   30.1010   46.3830 C   0  0  0  0  0  0  0  0  0  0  0  0
   60.1500   31.4010   46.7400 C   0  0  0  0  0  0  0  0  0  0  0  0
   59.3520   32.4800   46.3590 C   0  0  0  0  0  0  0  0  0  0  0  0
   58.1930   32.2660   45.6130 C   0  0  0  0  0  0  0  0  0  0  0  0
   57.8110   30.9650   45.2420 C   0  0  0  0  0  0  0  0  0  0  0  0
   56.3690   30.7420   44.2400 S   0  0  0  0  0  6  0  0  0  0  0  0
   56.7540   30.2900   42.8590 O   0  0  0  0  0  0  0  0  0  0  0  0
   55.4780   29.7030   44.8580 O   0  0  0  0  0  0  0  0  0  0  0  0
   57.7350   27.6170   46.2900 C   0  0  0  0  0  0  0  0  0  0  0  0
   57.4030   26.2960   45.9750 C   0  0  0  0  0  0  0  0  0  0  0  0
   56.9500   25.4840   46.9640 F   0  0  0  0  0  0  0  0  0  0  0  0
   56.7330   24.0910   43.0290 C   0  0  0  0  0  0  0  0  0  0  0  0
   56.4480   22.7960   42.7290 N   0  0  0  0  0  0  0  0  0  0  0  0
   56.9940   19.7700   43.5870 H   0  0  0  0  0  0  0  0  0  0  0  0
   57.3727   21.3262   45.6311 H   0  0  0  0  0  0  0  0  0  0  0  0
   58.3195   26.2897   42.6758 H   0  0  0  0  0  0  0  0  0  0  0  0
   58.9011   28.6437   43.2452 H   0  0  0  0  0  0  0  0  0  0  0  0
   60.4184   29.2536   46.6821 H   0  0  0  0  0  0  0  0  0  0  0  0
   61.0675   31.5739   47.3216 H   0  0  0  0  0  0  0  0  0  0  0  0
   59.6376   33.5023   46.6477 H   0  0  0  0  0  0  0  0  0  0  0  0
   57.5723   33.1229   45.3123 H   0  0  0  0  0  0  0  0  0  0  0  0
   55.6970   31.9300   44.1280 H   0  0  0  0  0  0  0  0  0  0  0  0
   57.5878   27.9873   47.3153 H   0  0  0  0  0  0  0  0  0  0  0  0
   56.5610   24.8812   42.2834 H   0  0  0  0  0  0  0  0  0  0  0  0
   56.0640   22.5700   41.7830 H   0  0  0  0  0  0  0  0  0  0  0  0
  1  2  2  3
  2  3  1  0
  3  4  2  0
  4  5  1  0
  5  6  1  0
  6  7  2  0
  7  8  1  0
  8  9  2  0
  9 10  1  0
 10 11  2  0
 11 12  1  0
 12 13  2  0
 13 14  1  0
 14 15  2  0
 15 16  1  0
 16 17  2  0
 16 18  2  0
  9 19  1  0
 19 20  2  0
 20 21  1  0
  5 22  2  0
 22 23  1  0
 23  2  1  0
 20  6  1  0
 15 10  1  0
  1 24  1  0
  3 25  1  0
  7 26  1  0
  8 27  1  0
 11 28  1  0
 12 29  1  0
 13 30  1  0
 14 31  1  0
 16 32  1  0
 19 33  1  0
 22 34  1  0
 23 35  1  0
M  END
>  <UniqueID>  (7) 
7

>  <SMILES>  (7) 
N=c1cnc(-c2ccc(-c3ccccc3[SH](=O)=O)cc2F)c[nH]1

>  <Energy>  (7) 
54.15211484199006

>  <Genealogy>  (7) 
N=c1cnc(-c2ccc(-c3ccccc3[SH](=O)=O)cc2F)c[nH]1 (3D coordinates assigned)
N=c1cnc(-c2ccc(-c3ccccc3[SH](=O)=O)cc2F)c[nH]1 (optimized conformer: 54.15211484199006 kcal/mol)

>  <smiles>  (7) 
N=c1cnc(-c2ccc(-c3ccccc3[SH](=O)=O)cc2F)c[nH]1

>  <score_type>  (7) 
oracle

>  <origin>  (7) 
adg

>  <m_score__min__energy>  (7) 
-8.5999999999999996

>  <m_primary>  (7) 
energy

$$$$
7:0
     RDKit          3D

 30 31  0  0  0  0  0  0  0  0999 V2000
   63.5510   32.7770   48.0340 C   0  0  0  0  0  0  0  0  0  0  0  0
   62.9240   33.6850   47.0330 C   0  0  0  0  0  0  0  0  0  0  0  0
   63.5970   34.0740   46.0400 O   0  0  0  0  0  0  0  0  0  0  0  0
   61.6340   34.1790   47.2670 O   0  0  0  0  0  0  0  0  0  0  0  0
   60.4900   33.8480   46.5240 C   0  0  0  0  0  0  0  0  0  0  0  0
   59.8360   34.8670   45.8250 C   0  0  0  0  0  0  0  0  0  0  0  0
   58.6910   34.5890   45.0760 C   0  0  0  0  0  0  0  0  0  0  0  0
   58.1820   33.2890   45.0300 C   0  0  0  0  0  0  0  0  0  0  0  0
   58.8090   32.2510   45.7420 C   0  0  0  0  0  0  0  0  0  0  0  0
   58.2600   30.8740   45.7090 C   0  0  0  0  0  0  0  0  0  0  0  0
   57.0260   30.7000   45.5150 O   0  0  0  0  0  0  0  0  0  0  0  0
   59.1390   29.7500   45.9010 N   0  0  0  0  0  0  0  0  0  0  0  0
   58.8140   28.4960   46.0250 C   0  0  0  0  0  0  0  0  0  0  0  0
   57.5290   28.0910   46.1170 N   0  0  0  0  0  0  0  0  0  0  0  0
   57.4140   26.7390   46.2410 C   0  0  0  0  0  0  0  0  0  0  0  0
   56.1110   26.0650   46.3580 C   0  0  0  0  0  0  0  0  0  0  0  0
   55.0580   26.6500   45.9960 O   0  0  0  0  0  0  0  0  0  0  0  0
   56.0330   24.7750   46.8720 O   0  0  0  0  0  0  0  0  0  0  0  0
   58.6280   26.0510   46.2470 C   0  0  0  0  0  0  0  0  0  0  0  0
   59.8680   27.1800   46.0930 S   0  0  0  0  0  0  0  0  0  0  0  0
   59.9650   32.5430   46.4940 C   0  0  0  0  0  0  0  0  0  0  0  0
   63.3094   33.1269   49.0485 H   0  0  0  0  0  0  0  0  0  0  0  0
   63.1642   31.7565   47.8963 H   0  0  0  0  0  0  0  0  0  0  0  0
   64.6423   32.7772   47.8963 H   0  0  0  0  0  0  0  0  0  0  0  0
   60.2262   35.8947   45.8654 H   0  0  0  0  0  0  0  0  0  0  0  0
   58.1888   35.3952   44.5211 H   0  0  0  0  0  0  0  0  0  0  0  0
   57.2837   33.0755   44.4321 H   0  0  0  0  0  0  0  0  0  0  0  0
   56.7170   28.7490   46.0970 H   0  0  0  0  0  0  0  0  0  0  0  0
   58.7531   24.9618   46.3366 H   0  0  0  0  0  0  0  0  0  0  0  0
   60.4614   31.7429   47.0628 H   0  0  0  0  0  0  0  0  0  0  0  0
  1  2  1  0
  2  3  2  0
  2  4  1  0
  4  5  1  0
  5  6  2  0
  6  7  1  0
  7  8  2  0
  8  9  1  0
  9 10  1  0
 10 11  2  0
 10 12  1  0
 12 13  2  3
 13 14  1  0
 14 15  1  0
 15 16  1  0
 16 17  2  0
 16 18  1  0
 15 19  2  0
 19 20  1  0
  9 21  2  0
 21  5  1  0
 20 13  1  0
  1 22  1  0
  1 23  1  0
  1 24  1  0
  6 25  1  0
  7 26  1  0
  8 27  1  0
 14 28  1  0
 19 29  1  0
 21 30  1  0
M  CHG  1  18  -1
M  END
>  <UniqueID>  (8) 
8

>  <SMILES>  (8) 
CC(=O)Oc1cccc(C(=O)N=c2[nH]c(C(=O)[O-])cs2)c1

>  <Energy>  (8) 
66.71563390954937

>  <Genealogy>  (8) 
CC(=O)Oc1cccc(C(=O)N=c2[nH]c(C(=O)[O-])cs2)c1 (protonated)
CC(=O)Oc1cccc(C(=O)N=c2[nH]c(C(=O)[O-])cs2)c1 (3D coordinates assigned)
CC(=O)Oc1cccc(C(=O)N=c2[nH]c(C(=O)[O-])cs2)c1 (optimized conformer: 66.71563390954937 kcal/mol)

>  <smiles>  (8) 
CC(=O)Oc1cccc(C(=O)N=c2[nH]c(C(=O)O)cs2)c1

>  <score_type>  (8) 
oracle

>  <origin>  (8) 
adg

>  <m_score__min__energy>  (8) 
-10.4

>  <m_primary>  (8) 
energy

$$$$
8:0
     RDKit          3D

 56 59  0  0  0  0  0  0  0  0999 V2000
   55.3770   29.6240   44.8760 O   0  0  0  0  0  0  0  0  0  0  0  0
   56.6220   29.7150   44.7110 C   0  0  0  0  0  0  0  0  0  0  0  0
   57.2760   28.9860   43.5990 C   0  0  0  0  0  0  0  0  0  0  0  0
   58.3580   28.2050   43.7400 C   0  0  0  0  0  0  0  0  0  0  0  0
   58.7280   27.5290   44.9980 C   0  0  0  0  0  0  0  0  0  0  0  0
   59.9020   27.8990   45.6690 C   0  0  0  0  0  0  0  0  0  0  0  0
   60.2200   27.3170   46.9000 C   0  0  0  0  0  0  0  0  0  0  0  0
   59.3730   26.3570   47.4620 C   0  0  0  0  0  0  0  0  0  0  0  0
   58.2210   25.9470   46.7750 C   0  0  0  0  0  0  0  0  0  0  0  0
   57.3280   24.9870   47.3390 N   0  0  0  0  0  0  0  0  0  0  0  0
   55.8900   24.4990   46.5130 S   0  0  0  0  0  0  0  0  0  0  0  0
   55.1410   25.7070   46.0220 O   0  0  0  0  0  0  0  0  0  0  0  0
   55.0080   23.7320   47.4550 O   0  0  0  0  0  0  0  0  0  0  0  0
   56.3490   23.4510   45.1740 C   0  0  0  0  0  0  0  0  0  0  0  0
   55.7480   23.5920   43.9150 C   0  0  0  0  0  0  0  0  0  0  0  0
   56.1610   22.7900   42.8470 C   0  0  0  0  0  0  0  0  0  0  0  0
   57.1790   21.8490   43.0300 C   0  0  0  0  0  0  0  0  0  0  0  0
   57.7860   21.7090   44.2820 C   0  0  0  0  0  0  0  0  0  0  0  0
   57.3740   22.5100   45.3520 C   0  0  0  0  0  0  0  0  0  0  0  0
   57.9170   26.5150   45.5340 C   0  0  0  0  0  0  0  0  0  0  0  0
   57.3870   30.4340   45.6840 N   0  0  0  0  0  0  0  0  0  0  0  0
   57.7690   31.8180   45.6400 C   0  0  0  0  0  0  0  0  0  0  0  0
   57.0480   32.7560   44.8780 C   0  0  0  0  0  0  0  0  0  0  0  0
   57.4500   34.0940   44.8440 C   0  0  0  0  0  0  0  0  0  0  0  0
   58.5620   34.5100   45.5780 C   0  0  0  0  0  0  0  0  0  0  0  0
   59.2620   33.5950   46.3660 C   0  0  0  0  0  0  0  0  0  0  0  0
   58.8600   32.2510   46.4170 C   0  0  0  0  0  0  0  0  0  0  0  0
   59.5690   31.3200   47.2510 N   0  0  0  0  0  0  0  0  0  0  0  0
   60.9810   31.0370   46.9880 C   0  0  0  0  0  0  0  0  0  0  0  0
   61.6720   30.6460   48.2960 C   0  0  0  0  0  0  0  0  0  0  0  0
   60.9740   29.5910   48.9340 O   0  0  0  0  0  0  0  0  0  0  0  0
   59.6870   30.0310   49.3270 C   0  0  0  0  0  0  0  0  0  0  0  0
   58.8320   30.3870   48.1050 C   0  0  0  0  0  0  0  0  0  0  0  0
   56.8464   29.0920   42.5919 H   0  0  0  0  0  0  0  0  0  0  0  0
   59.0084   28.0601   42.8648 H   0  0  0  0  0  0  0  0  0  0  0  0
   60.5743   28.6486   45.2262 H   0  0  0  0  0  0  0  0  0  0  0  0
   61.1383   27.6150   47.4272 H   0  0  0  0  0  0  0  0  0  0  0  0
   59.6104   25.9227   48.4443 H   0  0  0  0  0  0  0  0  0  0  0  0
   54.9503   24.3349   43.7674 H   0  0  0  0  0  0  0  0  0  0  0  0
   55.6846   22.8993   41.8616 H   0  0  0  0  0  0  0  0  0  0  0  0
   57.5025   21.2185   42.1887 H   0  0  0  0  0  0  0  0  0  0  0  0
   58.5873   20.9691   44.4253 H   0  0  0  0  0  0  0  0  0  0  0  0
   57.8549   22.4018   46.3354 H   0  0  0  0  0  0  0  0  0  0  0  0
   57.0371   26.1656   44.9739 H   0  0  0  0  0  0  0  0  0  0  0  0
   56.1645   32.4348   44.3069 H   0  0  0  0  0  0  0  0  0  0  0  0
   56.8891   34.8206   44.2378 H   0  0  0  0  0  0  0  0  0  0  0  0
   58.8870   35.5600   45.5354 H   0  0  0  0  0  0  0  0  0  0  0  0
   60.1326   33.9286   46.9497 H   0  0  0  0  0  0  0  0  0  0  0  0
   61.0617   30.2090   46.2683 H   0  0  0  0  0  0  0  0  0  0  0  0
   61.4641   31.9326   46.5701 H   0  0  0  0  0  0  0  0  0  0  0  0
   62.6996   30.3196   48.0782 H   0  0  0  0  0  0  0  0  0  0  0  0
   61.6832   31.5189   48.9653 H   0  0  0  0  0  0  0  0  0  0  0  0
   59.1898   29.2293   49.8929 H   0  0  0  0  0  0  0  0  0  0  0  0
   59.7990   30.9301   49.9508 H   0  0  0  0  0  0  0  0  0  0  0  0
   58.6036   29.4725   47.5379 H   0  0  0  0  0  0  0  0  0  0  0  0
   57.8938   30.8555   48.4369 H   0  0  0  0  0  0  0  0  0  0  0  0
  1  2  2  0
  2  3  1  0
  3  4  2  3
  4  5  1  0
  5  6  2  0
  6  7  1  0
  7  8  2  0
  8  9  1  0
  9 10  1  0
 10 11  1  0
 11 12  2  0
 11 13  2  0
 11 14  1  0
 14 15  2  0
 15 16  1  0
 16 17  2  0
 17 18  1  0
 18 19  2  0
  9 20  2  0
  2 21  1  0
 21 22  1  0
 22 23  2  0
 23 24  1  0
 24 25  2  0
 25 26  1  0
 26 27  2  0
 27 28  1  0
 28 29  1  0
 29 30  1  0
 30 31  1  0
 31 32  1  0
 32 33  1  0
 20  5  1  0
 27 22  1  0
 33 28  1  0
 19 14  1  0
  3 34  1  0
  4 35  1  0
  6 36  1  0
  7 37  1  0
  8 38  1  0
 15 39  1  0
 16 40  1  0
 17 41  1  0
 18 42  1  0
 19 43  1  0
 20 44  1  0
 23 45  1  0
 24 46  1  0
 25 47  1  0
 26 48  1  0
 29 49  1  0
 29 50  1  0
 30 51  1  0
 30 52  1  0
 32 53  1  0
 32 54  1  0
 33 55  1  0
 33 56  1  0
M  CHG  2  10  -1  21  -1
M  END
>  <UniqueID>  (9) 
9

>  <SMILES>  (9) 
O=C(C=Cc1cccc([N-]S(=O)(=O)c2ccccc2)c1)[N-]c1ccccc1N1CCOCC1

>  <Energy>  (9) 
82.65167590522667

>  <Genealogy>  (9) 
O=C(C=Cc1cccc([N-]S(=O)(=O)c2ccccc2)c1)[N-]c1ccccc1N1CCOCC1 (protonated)
O=C(C=Cc1cccc([N-]S(=O)(=O)c2ccccc2)c1)[N-]c1ccccc1N1CCOCC1 (3D coordinates assigned)
O=C(C=Cc1cccc([N-]S(=O)(=O)c2ccccc2)c1)[N-]c1ccccc1N1CCOCC1 (nonaromatic ring conformer: 82.65167590522667 kcal/mol)

>  <smiles>  (9) 
O=C(C=Cc1cccc(NS(=O)(=O)c2ccccc2)c1)Nc1ccccc1N1CCOCC1

>  <score_type>  (9) 
oracle

>  <origin>  (9) 
adg

>  <m_score__min__energy>  (9) 
-13.140000000000001

>  <m_primary>  (9) 
energy

$$$$
9:0
     RDKit          3D

 31 32  0  0  0  0  0  0  0  0999 V2000
   59.7280   34.8670   46.7730 C   0  0  0  0  0  0  0  0  0  0  0  0
   59.9840   33.3820   46.7810 C   0  0  0  0  0  0  0  0  0  0  0  0
   61.0350   32.8820   47.5650 C   0  0  0  0  0  0  0  0  0  0  0  0
   61.3020   31.5170   47.6050 C   0  0  0  0  0  0  0  0  0  0  0  0
   60.5370   30.6310   46.8510 C   0  0  0  0  0  0  0  0  0  0  0  0
   59.4910   31.0980   46.0350 C   0  0  0  0  0  0  0  0  0  0  0  0
   58.7460   30.1660   45.2230 N   0  0  0  0  0  0  0  0  0  0  0  0
   58.2450   28.9140   45.7210 C   0  0  0  0  0  0  0  0  0  0  0  0
   59.1260   28.0720   46.4140 C   0  0  0  0  0  0  0  0  0  0  0  0
   58.7120   26.8140   46.8500 C   0  0  0  0  0  0  0  0  0  0  0  0
   57.4080   26.3870   46.6080 C   0  0  0  0  0  0  0  0  0  0  0  0
   56.5010   27.2220   45.9500 C   0  0  0  0  0  0  0  0  0  0  0  0
   55.1960   26.7770   45.7630 O   0  0  0  0  0  0  0  0  0  0  0  0
   56.9010   28.5020   45.5080 C   0  0  0  0  0  0  0  0  0  0  0  0
   55.9050   29.4080   44.8840 C   0  0  0  0  0  0  0  0  0  0  0  0
   54.7910   28.9660   44.4980 O   0  0  0  0  0  0  0  0  0  0  0  0
   56.1980   30.7540   44.6970 O   0  0  0  0  0  0  0  0  0  0  0  0
   59.2040   32.4880   46.0030 C   0  0  0  0  0  0  0  0  0  0  0  0
   58.1330   33.0130   45.1260 C   0  0  0  0  0  0  0  0  0  0  0  0
   57.3150   33.8650   45.5580 O   0  0  0  0  0  0  0  0  0  0  0  0
   58.0470   32.5930   43.8050 O   0  0  0  0  0  0  0  0  0  0  0  0
   59.6648   35.2338   47.8081 H   0  0  0  0  0  0  0  0  0  0  0  0
   60.5513   35.3782   46.2525 H   0  0  0  0  0  0  0  0  0  0  0  0
   58.7811   35.0730   46.2525 H   0  0  0  0  0  0  0  0  0  0  0  0
   61.6535   33.5756   48.1534 H   0  0  0  0  0  0  0  0  0  0  0  0
   62.1201   31.1366   48.2343 H   0  0  0  0  0  0  0  0  0  0  0  0
   60.7532   29.5533   46.8940 H   0  0  0  0  0  0  0  0  0  0  0  0
   58.3860   30.4810   44.2950 H   0  0  0  0  0  0  0  0  0  0  0  0
   60.1541   28.4071   46.6158 H   0  0  0  0  0  0  0  0  0  0  0  0
   59.4149   26.1586   47.3851 H   0  0  0  0  0  0  0  0  0  0  0  0
   57.0905   25.3865   46.9369 H   0  0  0  0  0  0  0  0  0  0  0  0
  1  2  1  0
  2  3  2  0
  3  4  1  0
  4  5  2  0
  5  6  1  0
  6  7  1  0
  7  8  1  0
  8  9  2  0
  9 10  1  0
 10 11  2  0
 11 12  1  0
 12 13  1  0
 12 14  2  0
 14 15  1  0
 15 16  2  0
 15 17  1  0
  6 18  2  0
 18 19  1  0
 19 20  2  0
 19 21  1  0
 18  2  1  0
 14  8  1  0
  1 22  1  0
  1 23  1  0
  1 24  1  0
  3 25  1  0
  4 26  1  0
  5 27  1  0
  7 28  1  0
  9 29  1  0
 10 30  1  0
 11 31  1  0
M  CHG  3  13  -1  17  -1  21  -1
M  END
>  <UniqueID>  (10) 
10

>  <SMILES>  (10) 
Cc1cccc(Nc2cccc([O-])c2C(=O)[O-])c1C(=O)[O-]

>  <Energy>  (10) 
52.98126554508911

>  <Genealogy>  (10) 
Cc1cccc(Nc2cccc([O-])c2C(=O)[O-])c1C(=O)[O-] (protonated)
Cc1cccc(Nc2cccc([O-])c2C(=O)[O-])c1C(=O)[O-] (3D coordinates assigned)
Cc1cccc(Nc2cccc([O-])c2C(=O)[O-])c1C(=O)[O-] (optimized conformer: 52.98126554508911 kcal/mol)

>  <smiles>  (10) 
Cc1cccc(Nc2cccc(O)c2C(=O)O)c1C(=O)O

>  <score_type>  (10) 
oracle

>  <origin>  (10) 
adg

>  <m_score__min__energy>  (10) 
-13.68

>  <m_primary>  (10) 
energy

$$$$
10:0
     RDKit          3D

 45 47  0  0  0  0  0  0  0  0999 V2000
   63.2370   32.9150   49.3520 C   0  0  0  0  0  0  0  0  0  0  0  0
   62.6430   33.7980   50.4100 C   0  0  0  0  0  0  0  0  0  0  0  0
   63.0240   34.9990   50.4650 O   0  0  0  0  0  0  0  0  0  0  0  0
   61.6510   33.3010   51.3410 N   0  0  0  0  0  0  0  0  0  0  0  0
   61.9930   33.1320   52.7590 C   0  0  0  0  0  0  0  0  0  0  0  0
   60.3780   32.8130   50.8670 C   0  0  0  0  0  0  0  0  0  0  0  0
   59.5140   32.1990   51.7190 N   0  0  0  0  0  0  0  0  0  0  0  0
   58.3000   31.7600   51.3000 C   0  0  0  0  0  0  0  0  0  0  0  0
   57.3710   31.1810   52.2790 C   0  0  0  0  0  0  0  0  0  0  0  0
   57.3440   31.6480   53.4480 O   0  0  0  0  0  0  0  0  0  0  0  0
   56.4480   30.1410   51.9230 N   0  0  0  0  0  0  0  0  0  0  0  0
   55.3420   29.6700   52.7570 C   0  0  0  0  0  0  0  0  0  0  0  0
   54.0730   30.4220   52.4460 C   0  0  0  0  0  0  0  0  0  0  0  0
   53.8350   30.9160   51.1510 C   0  0  0  0  0  0  0  0  0  0  0  0
   52.6820   31.6600   50.8820 C   0  0  0  0  0  0  0  0  0  0  0  0
   51.7530   31.9050   51.8970 C   0  0  0  0  0  0  0  0  0  0  0  0
   50.6100   32.6500   51.6290 O   0  0  0  0  0  0  0  0  0  0  0  0
   51.9730   31.4020   53.1820 C   0  0  0  0  0  0  0  0  0  0  0  0
   53.1280   30.6620   53.4570 C   0  0  0  0  0  0  0  0  0  0  0  0
   57.9320   31.9120   49.9600 C   0  0  0  0  0  0  0  0  0  0  0  0
   58.8310   32.5330   49.0800 C   0  0  0  0  0  0  0  0  0  0  0  0
   58.4990   32.7540   47.6500 C   0  0  0  0  0  0  0  0  0  0  0  0
   58.4920   34.0410   47.0810 C   0  0  0  0  0  0  0  0  0  0  0  0
   58.1720   34.2120   45.7330 C   0  0  0  0  0  0  0  0  0  0  0  0
   57.8530   33.0970   44.9580 C   0  0  0  0  0  0  0  0  0  0  0  0
   57.8530   31.8590   45.5180 N   0  0  0  0  0  0  0  0  0  0  0  0
   58.1600   31.6640   46.8280 C   0  0  0  0  0  0  0  0  0  0  0  0
   60.0250   32.9740   49.5620 N   0  0  0  0  0  0  0  0  0  0  0  0
   63.7903   32.0926   49.8290 H   0  0  0  0  0  0  0  0  0  0  0  0
   62.4329   32.5013   48.7257 H   0  0  0  0  0  0  0  0  0  0  0  0
   63.9233   33.5039   48.7257 H   0  0  0  0  0  0  0  0  0  0  0  0
   61.1806   33.5335   53.3825 H   0  0  0  0  0  0  0  0  0  0  0  0
   62.1294   32.0628   52.9784 H   0  0  0  0  0  0  0  0  0  0  0  0
   62.9252   33.6732   52.9784 H   0  0  0  0  0  0  0  0  0  0  0  0
   55.1805   28.5983   52.5687 H   0  0  0  0  0  0  0  0  0  0  0  0
   55.6012   29.8409   53.8123 H   0  0  0  0  0  0  0  0  0  0  0  0
   54.5585   30.7164   50.3468 H   0  0  0  0  0  0  0  0  0  0  0  0
   52.5059   32.0531   49.8698 H   0  0  0  0  0  0  0  0  0  0  0  0
   51.2372   31.5881   53.9782 H   0  0  0  0  0  0  0  0  0  0  0  0
   53.2968   30.2664   54.4694 H   0  0  0  0  0  0  0  0  0  0  0  0
   56.9562   31.5516   49.6024 H   0  0  0  0  0  0  0  0  0  0  0  0
   58.7396   34.9155   47.7007 H   0  0  0  0  0  0  0  0  0  0  0  0
   58.1714   35.2171   45.2860 H   0  0  0  0  0  0  0  0  0  0  0  0
   57.6016   33.2198   43.8942 H   0  0  0  0  0  0  0  0  0  0  0  0
   58.1432   30.6474   47.2478 H   0  0  0  0  0  0  0  0  0  0  0  0
  1  2  1  0
  2  3  2  0
  2  4  1  0
  4  5  1  0
  4  6  1  0
  6  7  2  0
  7  8  1  0
  8  9  1  0
  9 10  2  0
  9 11  1  0
 11 12  1  0
 12 13  1  0
 13 14  2  0
 14 15  1  0
 15 16  2  0
 16 17  1  0
 16 18  1  0
 18 19  2  0
  8 20  2  0
 20 21  1  0
 21 22  1  0
 22 23  2  0
 23 24  1  0
 24 25  2  0
 25 26  1  0
 26 27  2  0
 21 28  2  0
 28  6  1  0
 19 13  1  0
 27 22  1  0
  1 29  1  0
  1 30  1  0
  1 31  1  0
  5 32  1  0
  5 33  1  0
  5 34  1  0
 12 35  1  0
 12 36  1  0
 14 37  1  0
 15 38  1  0
 18 39  1  0
 19 40  1  0
 20 41  1  0
 23 42  1  0
 24 43  1  0
 25 44  1  0
 27 45  1  0
M  CHG  2  11  -1  17  -1
M  END
>  <UniqueID>  (11) 
11

>  <SMILES>  (11) 
CC(=O)N(C)c1nc(C(=O)[N-]Cc2ccc([O-])cc2)cc(-c2cccnc2)n1

>  <Energy>  (11) 
55.58993869038918

>  <Genealogy>  (11) 
CC(=O)N(C)c1nc(C(=O)[N-]Cc2ccc([O-])cc2)cc(-c2cccnc2)n1 (protonated)
CC(=O)N(C)c1nc(C(=O)[N-]Cc2ccc([O-])cc2)cc(-c2cccnc2)n1 (3D coordinates assigned)
CC(=O)N(C)c1nc(C(=O)[N-]Cc2ccc([O-])cc2)cc(-c2cccnc2)n1 (optimized conformer: 55.58993869038918 kcal/mol)

>  <smiles>  (11) 
CC(=O)N(C)c1nc(C(=O)NCc2ccc(O)cc2)cc(-c2cccnc2)n1

>  <score_type>  (11) 
oracle

>  <origin>  (11) 
adg

>  <m_score__min__energy>  (11) 
-12.57

>  <m_primary>  (11) 
energy

$$$$
11:0
     RDKit          3D

 58 61  0  0  0  0  0  0  0  0999 V2000
   58.7830   31.2210   47.8220 C   0  0  0  0  0  0  0  0  0  0  0  0
   59.9080   32.1700   47.4970 C   0  0  0  0  0  0  0  0  0  0  0  0
   61.2010   31.8800   47.9740 C   0  0  0  0  0  0  0  0  0  0  0  0
   62.2870   32.6910   47.6400 C   0  0  0  0  0  0  0  0  0  0  0  0
   62.0990   33.8000   46.8170 C   0  0  0  0  0  0  0  0  0  0  0  0
   60.8250   34.1040   46.3300 C   0  0  0  0  0  0  0  0  0  0  0  0
   59.7160   33.3000   46.6570 C   0  0  0  0  0  0  0  0  0  0  0  0
   58.3550   33.6990   46.1260 C   0  0  0  0  0  0  0  0  0  0  0  0
   57.9420   32.7980   44.9950 C   0  0  0  0  0  0  0  0  0  0  0  0
   58.1570   33.1840   43.6640 C   0  0  0  0  0  0  0  0  0  0  0  0
   57.7690   32.3280   42.6330 C   0  0  0  0  0  0  0  0  0  0  0  0
   57.1780   31.0990   42.9320 C   0  0  0  0  0  0  0  0  0  0  0  0
   56.9590   30.7460   44.2710 C   0  0  0  0  0  0  0  0  0  0  0  0
   56.3850   29.4270   44.6110 C   0  0  0  0  0  0  0  0  0  0  0  0
   55.1520   29.3350   44.8540 O   0  0  0  0  0  0  0  0  0  0  0  0
   57.1790   28.2370   44.6370 N   0  0  0  0  0  0  0  0  0  0  0  0
   57.0480   27.1830   45.6370 C   0  0  0  0  0  0  0  0  0  0  0  0
   58.3230   27.0770   46.4230 C   0  0  0  0  0  0  0  0  0  0  0  0
   59.3250   26.1850   46.0100 C   0  0  0  0  0  0  0  0  0  0  0  0
   60.5090   26.0720   46.7400 C   0  0  0  0  0  0  0  0  0  0  0  0
   60.7080   26.8470   47.8850 C   0  0  0  0  0  0  0  0  0  0  0  0
   59.7200   27.7510   48.3120 C   0  0  0  0  0  0  0  0  0  0  0  0
   59.9400   28.5930   49.5150 C   0  0  0  0  0  0  0  0  0  0  0  0
   61.2320   28.7470   50.0550 C   0  0  0  0  0  0  0  0  0  0  0  0
   61.4350   29.5510   51.1790 C   0  0  0  0  0  0  0  0  0  0  0  0
   60.3580   30.2100   51.7740 C   0  0  0  0  0  0  0  0  0  0  0  0
   59.0660   30.0640   51.2510 C   0  0  0  0  0  0  0  0  0  0  0  0
   57.7030   30.9210   51.9650 S   0  0  0  0  0  0  0  0  0  0  0  0
   57.3160   32.3010   50.9960 N   0  0  0  0  0  0  0  0  0  0  0  0
   58.0440   31.3770   53.3540 O   0  0  0  0  0  0  0  0  0  0  0  0
   56.5190   30.0010   52.0320 O   0  0  0  0  0  0  0  0  0  0  0  0
   58.8620   29.2580   50.1240 C   0  0  0  0  0  0  0  0  0  0  0  0
   58.5250   27.8550   47.5740 C   0  0  0  0  0  0  0  0  0  0  0  0
   57.3490   31.5990   45.2610 N   0  0  0  0  0  0  0  0  0  0  0  0
   58.6803   31.1343   48.9138 H   0  0  0  0  0  0  0  0  0  0  0  0
   57.8448   31.6046   47.3947 H   0  0  0  0  0  0  0  0  0  0  0  0
   59.0030   30.2315   47.3947 H   0  0  0  0  0  0  0  0  0  0  0  0
   61.3573   31.0024   48.6186 H   0  0  0  0  0  0  0  0  0  0  0  0
   63.2898   32.4551   48.0258 H   0  0  0  0  0  0  0  0  0  0  0  0
   62.9551   34.4371   46.5503 H   0  0  0  0  0  0  0  0  0  0  0  0
   60.6866   34.9827   45.6829 H   0  0  0  0  0  0  0  0  0  0  0  0
   57.6149   33.6242   46.9363 H   0  0  0  0  0  0  0  0  0  0  0  0
   58.4092   34.7327   45.7537 H   0  0  0  0  0  0  0  0  0  0  0  0
   58.6268   34.1519   43.4353 H   0  0  0  0  0  0  0  0  0  0  0  0
   57.9287   32.6213   41.5849 H   0  0  0  0  0  0  0  0  0  0  0  0
   56.8864   30.4129   42.1232 H   0  0  0  0  0  0  0  0  0  0  0  0
   56.2173   27.4237   46.3167 H   0  0  0  0  0  0  0  0  0  0  0  0
   56.8459   26.2251   45.1355 H   0  0  0  0  0  0  0  0  0  0  0  0
   59.1765   25.5731   45.1081 H   0  0  0  0  0  0  0  0  0  0  0  0
   61.2892   25.3693   46.4122 H   0  0  0  0  0  0  0  0  0  0  0  0
   61.6433   26.7493   48.4557 H   0  0  0  0  0  0  0  0  0  0  0  0
   62.0850   28.2317   49.5893 H   0  0  0  0  0  0  0  0  0  0  0  0
   62.4463   29.6651   51.5964 H   0  0  0  0  0  0  0  0  0  0  0  0
   60.5238   30.8459   52.6561 H   0  0  0  0  0  0  0  0  0  0  0  0
   56.9570   33.0420   51.6510 H   0  0  0  0  0  0  0  0  0  0  0  0
   56.5020   32.0190   50.3920 H   0  0  0  0  0  0  0  0  0  0  0  0
   57.8486   29.1444   49.7116 H   0  0  0  0  0  0  0  0  0  0  0  0
   57.7414   28.5534   47.9030 H   0  0  0  0  0  0  0  0  0  0  0  0
  1  2  1  0
  2  3  2  0
  3  4  1  0
  4  5  2  0
  5  6  1  0
  6  7  2  0
  7  8  1  0
  8  9  1  0
  9 10  2  0
 10 11  1  0
 11 12  2  0
 12 13  1  0
 13 14  1  0
 14 15  2  0
 14 16  1  0
 16 17  1  0
 17 18  1  0
 18 19  2  0
 19 20  1  0
 20 21  2  0
 21 22  1  0
 22 23  1  0
 23 24  2  0
 24 25  1  0
 25 26  2  0
 26 27  1  0
 27 28  1  0
 28 29  1  0
 28 30  2  0
 28 31  2  0
 27 32  2  0
 22 33  2  0
 13 34  2  0
  7  2  1  0
 34  9  1  0
 33 18  1  0
 32 23  1  0
  1 35  1  0
  1 36  1  0
  1 37  1  0
  3 38  1  0
  4 39  1  0
  5 40  1  0
  6 41  1  0
  8 42  1  0
  8 43  1  0
 10 44  1  0
 11 45  1  0
 12 46  1  0
 17 47  1  0
 17 48  1  0
 19 49  1  0
 20 50  1  0
 21 51  1  0
 24 52  1  0
 25 53  1  0
 26 54  1  0
 29 55  1  0
 29 56  1  0
 32 57  1  0
 33 58  1  0
M  CHG  1  16  -1
M  END
>  <UniqueID>  (12) 
12

>  <SMILES>  (12) 
Cc1ccccc1Cc1cccc(C(=O)[N-]Cc2cccc(-c3cccc(S(N)(=O)=O)c3)c2)n1

>  <Energy>  (12) 
68.82861836264803

>  <Genealogy>  (12) 
Cc1ccccc1Cc1cccc(C(=O)[N-]Cc2cccc(-c3cccc(S(N)(=O)=O)c3)c2)n1 (protonated)
Cc1ccccc1Cc1cccc(C(=O)[N-]Cc2cccc(-c3cccc(S(N)(=O)=O)c3)c2)n1 (3D coordinates assigned)
Cc1ccccc1Cc1cccc(C(=O)[N-]Cc2cccc(-c3cccc(S(N)(=O)=O)c3)c2)n1 (optimized conformer: 68.82861836264803 kcal/mol)

>  <smiles>  (12) 
Cc1ccccc1Cc1cccc(C(=O)NCc2cccc(-c3cccc(S(N)(=O)=O)c3)c2)n1

>  <score_type>  (12) 
oracle

>  <origin>  (12) 
adg

>  <m_score__min__energy>  (12) 
-12.65

>  <m_primary>  (12) 
energy

$$$$
12:0
     RDKit          3D

 55 59  0  0  0  0  0  0  0  0999 V2000
   64.0480   33.6270   47.3110 N   0  0  0  0  0  0  0  0  0  0  0  0
   63.0410   33.1100   47.5510 C   0  0  0  0  0  0  0  0  0  0  0  0
   61.7870   32.4670   47.8480 C   0  0  0  0  0  0  0  0  0  0  0  0
   60.7860   33.1690   48.5320 C   0  0  0  0  0  0  0  0  0  0  0  0
   59.5740   32.5430   48.8340 C   0  0  0  0  0  0  0  0  0  0  0  0
   59.3520   31.2170   48.4480 C   0  0  0  0  0  0  0  0  0  0  0  0
   60.3410   30.5110   47.7440 C   0  0  0  0  0  0  0  0  0  0  0  0
   60.1110   29.0780   47.3440 C   0  0  0  0  0  0  0  0  0  0  0  0
   59.5050   28.2870   48.5040 C   0  0  0  0  0  0  0  0  0  0  0  0
   59.5470   26.8560   48.2250 N   0  0  0  0  0  0  0  0  0  0  0  0
   60.4770   26.2470   47.3230 C   0  0  0  0  0  0  0  0  0  0  0  0
   61.7190   26.3950   47.4850 O   0  0  0  0  0  0  0  0  0  0  0  0
   59.9670   25.4550   46.1600 C   0  0  0  0  0  0  0  0  0  0  0  0
   58.4610   25.5390   46.0900 C   0  0  0  0  0  0  0  0  0  0  0  0
   57.6210   24.4200   46.3330 C   0  0  0  0  0  0  0  0  0  0  0  0
   58.1440   23.3170   46.6570 O   0  0  0  0  0  0  0  0  0  0  0  0
   56.2430   24.5270   46.2150 N   0  0  0  0  0  0  0  0  0  0  0  0
   55.3850   23.3610   46.4970 C   0  0  0  0  0  0  0  0  0  0  0  0
   55.8510   22.1760   45.7090 C   0  0  0  0  0  0  0  0  0  0  0  0
   56.2530   20.9650   46.2350 C   0  0  0  0  0  0  0  0  0  0  0  0
   56.5650   20.1770   45.1490 C   0  0  0  0  0  0  0  0  0  0  0  0
   56.3310   20.9520   44.0310 C   0  0  0  0  0  0  0  0  0  0  0  0
   55.9020   22.1380   44.3980 O   0  0  0  0  0  0  0  0  0  0  0  0
   55.6600   25.7270   45.8730 C   0  0  0  0  0  0  0  0  0  0  0  0
   54.2740   25.8450   45.7620 O   0  0  0  0  0  0  0  0  0  0  0  0
   56.4840   26.8230   45.6310 C   0  0  0  0  0  0  0  0  0  0  0  0
   56.1280   28.0620   45.2560 N   0  0  0  0  0  0  0  0  0  0  0  0
   57.3280   28.6890   45.1450 C   0  0  0  0  0  0  0  0  0  0  0  0
   57.4570   30.0940   44.7400 C   0  0  0  0  0  0  0  0  0  0  0  0
   57.9040   31.1370   45.5430 C   0  0  0  0  0  0  0  0  0  0  0  0
   57.9050   32.3740   44.8860 C   0  0  0  0  0  0  0  0  0  0  0  0
   57.4530   32.3100   43.5750 C   0  0  0  0  0  0  0  0  0  0  0  0
   57.0580   30.7110   43.2280 S   0  0  0  0  0  0  0  0  0  0  0  0
   58.4000   27.9050   45.4270 N   0  0  0  0  0  0  0  0  0  0  0  0
   57.8300   26.7290   45.7330 C   0  0  0  0  0  0  0  0  0  0  0  0
   61.5670   31.1380   47.4580 C   0  0  0  0  0  0  0  0  0  0  0  0
   60.9544   34.2139   48.8316 H   0  0  0  0  0  0  0  0  0  0  0  0
   58.7922   33.0944   49.3768 H   0  0  0  0  0  0  0  0  0  0  0  0
   58.3998   30.7257   48.6967 H   0  0  0  0  0  0  0  0  0  0  0  0
   59.4223   29.0478   46.4868 H   0  0  0  0  0  0  0  0  0  0  0  0
   61.0763   28.6260   47.0720 H   0  0  0  0  0  0  0  0  0  0  0  0
   60.0768   28.4938   49.4207 H   0  0  0  0  0  0  0  0  0  0  0  0
   58.4564   28.5931   48.6333 H   0  0  0  0  0  0  0  0  0  0  0  0
   60.3966   25.8571   45.2306 H   0  0  0  0  0  0  0  0  0  0  0  0
   60.2616   24.4027   46.2864 H   0  0  0  0  0  0  0  0  0  0  0  0
   55.4326   23.1255   47.5704 H   0  0  0  0  0  0  0  0  0  0  0  0
   54.3497   23.5986   46.2112 H   0  0  0  0  0  0  0  0  0  0  0  0
   56.3119   20.6874   47.2978 H   0  0  0  0  0  0  0  0  0  0  0  0
   56.9277   19.1387   45.1688 H   0  0  0  0  0  0  0  0  0  0  0  0
   56.4809   20.6261   42.9912 H   0  0  0  0  0  0  0  0  0  0  0  0
   53.7930   26.7140   45.9620 H   0  0  0  0  0  0  0  0  0  0  0  0
   58.2240   31.0045   46.5870 H   0  0  0  0  0  0  0  0  0  0  0  0
   58.2332   33.3087   45.3641 H   0  0  0  0  0  0  0  0  0  0  0  0
   57.3676   33.1594   42.8813 H   0  0  0  0  0  0  0  0  0  0  0  0
   62.3554   30.5845   46.9270 H   0  0  0  0  0  0  0  0  0  0  0  0
  1  2  3  0
  2  3  1  0
  3  4  2  0
  4  5  1  0
  5  6  2  0
  6  7  1  0
  7  8  1  0
  8  9  1  0
  9 10  1  0
 10 11  1  0
 11 12  2  0
 11 13  1  0
 13 14  1  0
 14 15  1  0
 15 16  2  0
 15 17  1  0
 17 18  1  0
 18 19  1  0
 19 20  2  0
 20 21  1  0
 21 22  2  0
 22 23  1  0
 17 24  1  0
 24 25  1  0
 24 26  2  0
 26 27  1  0
 27 28  1  0
 28 29  1  0
 29 30  2  0
 30 31  1  0
 31 32  2  0
 32 33  1  0
 28 34  2  0
 34 35  1  0
  7 36  2  0
 36  3  1  0
 35 14  2  0
 23 19  1  0
 35 26  1  0
 33 29  1  0
  4 37  1  0
  5 38  1  0
  6 39  1  0
  8 40  1  0
  8 41  1  0
  9 42  1  0
  9 43  1  0
 13 44  1  0
 13 45  1  0
 18 46  1  0
 18 47  1  0
 20 48  1  0
 21 49  1  0
 22 50  1  0
 25 51  1  0
 30 52  1  0
 31 53  1  0
 32 54  1  0
 36 55  1  0
M  CHG  2  10  -1  27  -1
M  END
>  <UniqueID>  (13) 
13

>  <SMILES>  (13) 
N#Cc1cccc(CC[N-]C(=O)Cc2c(=O)n(Cc3ccco3)c(O)c3[n-]c(-c4cccs4)nc23)c1

>  <Energy>  (13) 
142.9706685518071

>  <Genealogy>  (13) 
N#Cc1cccc(CC[N-]C(=O)Cc2c(=O)n(Cc3ccco3)c(O)c3[n-]c(-c4cccs4)nc23)c1 (protonated)
N#Cc1cccc(CC[N-]C(=O)Cc2c(=O)n(Cc3ccco3)c(O)c3[n-]c(-c4cccs4)nc23)c1 (3D coordinates assigned)
N#Cc1cccc(CC[N-]C(=O)Cc2c(=O)n(Cc3ccco3)c(O)c3[n-]c(-c4cccs4)nc23)c1 (optimized conformer: 142.9706685518071 kcal/mol)

>  <smiles>  (13) 
N#Cc1cccc(CCNC(=O)Cc2c(=O)n(Cc3ccco3)c(O)c3[nH]c(-c4cccs4)nc23)c1

>  <score_type>  (13) 
oracle

>  <origin>  (13) 
adg

>  <m_score__min__energy>  (13) 
-11.970000000000001

>  <m_primary>  (13) 
energy

$$$$
13:0
     RDKit          3D

 58 62  0  0  0  0  0  0  0  0999 V2000
   60.2712   28.3819   47.1881 H   0  0  0  0  0  0  0  0  0  0  0  0
   59.6320   27.8420   46.4740 C   0  0  0  0  0  0  0  0  0  0  0  0
   59.6924   26.7461   46.4013 H   0  0  0  0  0  0  0  0  0  0  0  0
   58.7790   28.5200   45.6920 C   0  0  0  0  0  0  0  0  0  0  0  0
   57.9000   27.9820   44.7350 C   0  0  0  0  0  0  0  0  0  0  0  0
   57.5050   26.7140   44.5050 C   0  0  0  0  0  0  0  0  0  0  0  0
   57.5249   26.3661   43.4617 H   0  0  0  0  0  0  0  0  0  0  0  0
   57.0480   25.7490   45.5250 C   0  0  0  0  0  0  0  0  0  0  0  0
   57.8190   24.7910   46.0760 N   0  0  0  0  0  0  0  0  0  0  0  0
   57.0310   24.2710   47.0420 C   0  0  0  0  0  0  0  0  0  0  0  0
   57.3990   23.3170   47.7770 O   0  0  0  0  0  0  0  0  0  0  0  0
   55.8270   24.8630   47.1700 N   0  0  0  0  0  0  0  0  0  0  0  0
   55.8610   25.8060   46.2140 C   0  0  0  0  0  0  0  0  0  0  0  0
   54.8350   26.7110   45.9840 O   0  0  0  0  0  0  0  0  0  0  0  0
   57.3970   29.0620   44.0270 C   0  0  0  0  0  0  0  0  0  0  0  0
   56.7184   29.0193   43.1623 H   0  0  0  0  0  0  0  0  0  0  0  0
   57.9100   30.2020   44.6140 C   0  0  0  0  0  0  0  0  0  0  0  0
   57.5880   31.6030   44.1890 C   0  0  0  0  0  0  0  0  0  0  0  0
   57.4434   32.2322   45.0796 H   0  0  0  0  0  0  0  0  0  0  0  0
   58.4175   32.0036   43.5878 H   0  0  0  0  0  0  0  0  0  0  0  0
   56.6668   31.6012   43.5878 H   0  0  0  0  0  0  0  0  0  0  0  0
   58.7380   29.8760   45.6300 N   0  0  0  0  0  0  0  0  0  0  0  0
   59.3970   30.8120   46.5010 C   0  0  0  0  0  0  0  0  0  0  0  0
   60.7940   30.8010   46.5990 C   0  0  0  0  0  0  0  0  0  0  0  0
   61.3764   30.0695   46.0196 H   0  0  0  0  0  0  0  0  0  0  0  0
   61.4520   31.7110   47.4260 C   0  0  0  0  0  0  0  0  0  0  0  0
   62.5498   31.6929   47.4935 H   0  0  0  0  0  0  0  0  0  0  0  0
   60.7230   32.6500   48.1730 C   0  0  0  0  0  0  0  0  0  0  0  0
   61.4520   33.6340   49.0110 C   0  0  0  0  0  0  0  0  0  0  0  0
   61.0940   34.8440   48.9540 O   0  0  0  0  0  0  0  0  0  0  0  0
   62.5490   33.2700   49.8760 N   0  0  0  0  0  0  0  0  0  0  0  0
   63.3330   32.0440   49.6660 C   0  0  0  0  0  0  0  0  0  0  0  0
   63.0722   31.3106   50.4433 H   0  0  0  0  0  0  0  0  0  0  0  0
   63.1007   31.6411   48.6692 H   0  0  0  0  0  0  0  0  0  0  0  0
   64.8340   32.3440   49.7400 C   0  0  0  0  0  0  0  0  0  0  0  0
   65.3802   31.3974   49.8652 H   0  0  0  0  0  0  0  0  0  0  0  0
   65.1269   32.8504   48.8085 H   0  0  0  0  0  0  0  0  0  0  0  0
   65.1590   33.2300   50.8600 N   0  0  0  0  0  0  0  0  0  0  0  0
   66.5150   33.6770   51.0270 C   0  0  0  0  0  0  0  0  0  0  0  0
   66.7530   34.8930   51.2600 O   0  0  0  0  0  0  0  0  0  0  0  0
   67.6530   32.7200   50.8640 C   0  0  0  0  0  0  0  0  0  0  0  0
   67.9084   33.0048   49.8327 H   0  0  0  0  0  0  0  0  0  0  0  0
   68.4630   32.4460   52.1160 C   0  0  0  0  0  0  0  0  0  0  0  0
   69.5407   32.2392   52.0394 H   0  0  0  0  0  0  0  0  0  0  0  0
   68.6321   32.9771   53.0644 H   0  0  0  0  0  0  0  0  0  0  0  0
   67.4570   31.4210   51.6250 C   0  0  0  0  0  0  0  0  0  0  0  0
   67.8054   30.4717   51.1920 H   0  0  0  0  0  0  0  0  0  0  0  0
   66.5951   30.9017   52.0692 H   0  0  0  0  0  0  0  0  0  0  0  0
   64.1070   33.6800   51.7760 C   0  0  0  0  0  0  0  0  0  0  0  0
   63.8000   32.8417   52.4186 H   0  0  0  0  0  0  0  0  0  0  0  0
   64.4944   34.5018   52.3961 H   0  0  0  0  0  0  0  0  0  0  0  0
   62.8990   34.1770   50.9790 C   0  0  0  0  0  0  0  0  0  0  0  0
   62.0368   34.2590   51.6571 H   0  0  0  0  0  0  0  0  0  0  0  0
   63.1605   35.1526   50.5434 H   0  0  0  0  0  0  0  0  0  0  0  0
   59.3220   32.6730   48.0560 C   0  0  0  0  0  0  0  0  0  0  0  0
   58.7404   33.4242   48.6104 H   0  0  0  0  0  0  0  0  0  0  0  0
   58.6620   31.7480   47.2400 C   0  0  0  0  0  0  0  0  0  0  0  0
   57.5637   31.7557   47.1785 H   0  0  0  0  0  0  0  0  0  0  0  0
  1  2  1  0
  2  3  1  0
  2  4  2  0
  4  5  1  0
  5  6  2  0
  6  7  1  0
  6  8  1  0
  8  9  1  0
  9 10  1  0
 10 11  2  0
 10 12  1  0
 12 13  1  0
 13 14  1  0
  5 15  1  0
 15 16  1  0
 15 17  2  0
 17 18  1  0
 18 19  1  0
 18 20  1  0
 18 21  1  0
 17 22  1  0
 22 23  1  0
 23 24  2  0
 24 25  1  0
 24 26  1  0
 26 27  1  0
 26 28  2  0
 28 29  1  0
 29 30  2  0
 29 31  1  0
 31 32  1  0
 32 33  1  0
 32 34  1  0
 32 35  1  0
 35 36  1  0
 35 37  1  0
 35 38  1  0
 38 39  1  0
 39 40  2  0
 39 41  1  0
 41 42  1  0
 41 43  1  0
 43 44  1  0
 43 45  1  0
 43 46  1  0
 46 47  1  0
 46 48  1  0
 38 49  1  0
 49 50  1  0
 49 51  1  0
 49 52  1  0
 52 53  1  0
 52 54  1  0
 28 55  1  0
 55 56  1  0
 55 57  2  0
 57 58  1  0
 22  4  1  0
 57 23  1  0
 13  8  2  0
 52 31  1  0
 46 41  1  0
M  CHG  3   9  -1  12  -1  14  -1
M  END
>  <UniqueID>  (14) 
14

>  <SMILES>  (14) 
C=c1/c(=C\c2[n-]c(=O)[n-]c2[O-])cc(C)n1-c1ccc(C(=O)N2CCN(C(=O)C3CC3)CC2)cc1

>  <Energy>  (14) 
408.5142400073379

>  <Genealogy>  (14) 
C=c1c(=Cc2[n-]c(=O)[n-]c2[O-])cc(C)n1-c1ccc(C(=O)N2CCN(C(=O)C3CC3)CC2)cc1 (protonated)
C=c1/c(=C\c2[n-]c(=O)[n-]c2[O-])cc(C)n1-c1ccc(C(=O)N2CCN(C(=O)C3CC3)CC2)cc1 (cis-trans isomerization)
C=c1/c(=C\c2[n-]c(=O)[n-]c2[O-])cc(C)n1-c1ccc(C(=O)N2CCN(C(=O)C3CC3)CC2)cc1 (3D coordinates assigned)
C=c1/c(=C\c2[n-]c(=O)[n-]c2[O-])cc(C)n1-c1ccc(C(=O)N2CCN(C(=O)C3CC3)CC2)cc1 (nonaromatic ring conformer: 408.5142400073379 kcal/mol)

>  <smiles>  (14) 
C=c1c(=Cc2[nH]c(=O)[nH]c2O)cc(C)n1-c1ccc(C(=O)N2CCN(C(=O)C3CC3)CC2)cc1

>  <score_type>  (14) 
oracle

>  <origin>  (14) 
adg

>  <m_score__min__energy>  (14) 
-16.239999999999998

>  <m_primary>  (14) 
energy

$$$$
14:0
     RDKit          3D

 36 37  0  0  0  0  0  0  0  0999 V2000
   64.5320   33.3480   49.3270 C   0  0  0  0  0  0  0  0  0  0  0  0
   63.5370   33.1060   48.2390 C   0  0  0  0  0  0  0  0  0  0  0  0
   63.8940   32.4760   47.2070 O   0  0  0  0  0  0  0  0  0  0  0  0
   62.2210   33.6710   48.3350 N   0  0  0  0  0  0  0  0  0  0  0  0
   61.1390   33.3530   47.4440 C   0  0  0  0  0  0  0  0  0  0  0  0
   60.4970   34.3460   46.6820 C   0  0  0  0  0  0  0  0  0  0  0  0
   59.4630   34.0050   45.8040 C   0  0  0  0  0  0  0  0  0  0  0  0
   59.0640   32.6690   45.6680 C   0  0  0  0  0  0  0  0  0  0  0  0
   57.7800   32.2250   44.5460 S   0  0  0  0  0  0  0  0  0  0  0  0
   57.7950   33.1520   43.3630 O   0  0  0  0  0  0  0  0  0  0  0  0
   56.4610   32.3800   45.2510 O   0  0  0  0  0  0  0  0  0  0  0  0
   57.9650   30.5640   44.0250 N   0  0  0  0  0  0  0  0  0  0  0  0
   56.9890   30.1970   42.9820 C   0  0  0  0  0  0  0  0  0  0  0  0
   55.5700   29.9740   43.5480 C   0  0  0  0  0  0  0  0  0  0  0  0
   55.5520   29.3410   44.8800 N   0  0  0  0  0  0  0  0  0  0  0  0
   56.8040   28.6450   45.1920 C   0  0  0  0  0  0  0  0  0  0  0  0
   57.9930   29.6240   45.1710 C   0  0  0  0  0  0  0  0  0  0  0  0
   59.7190   31.6740   46.4040 C   0  0  0  0  0  0  0  0  0  0  0  0
   60.7530   32.0130   47.2820 C   0  0  0  0  0  0  0  0  0  0  0  0
   64.0424   33.2289   50.3048 H   0  0  0  0  0  0  0  0  0  0  0  0
   65.3553   32.6239   49.2386 H   0  0  0  0  0  0  0  0  0  0  0  0
   64.9308   34.3693   49.2386 H   0  0  0  0  0  0  0  0  0  0  0  0
   62.0680   34.4200   49.0480 H   0  0  0  0  0  0  0  0  0  0  0  0
   60.8098   35.3963   46.7772 H   0  0  0  0  0  0  0  0  0  0  0  0
   58.9611   34.7890   45.2179 H   0  0  0  0  0  0  0  0  0  0  0  0
   56.9482   31.0058   42.2376 H   0  0  0  0  0  0  0  0  0  0  0  0
   57.3214   29.2491   42.5337 H   0  0  0  0  0  0  0  0  0  0  0  0
   55.0687   30.9504   43.6215 H   0  0  0  0  0  0  0  0  0  0  0  0
   55.0556   29.2867   42.8602 H   0  0  0  0  0  0  0  0  0  0  0  0
   55.3890   30.0720   45.6100 H   0  0  0  0  0  0  0  0  0  0  0  0
   56.7262   28.1933   46.1920 H   0  0  0  0  0  0  0  0  0  0  0  0
   56.9739   27.8671   44.4331 H   0  0  0  0  0  0  0  0  0  0  0  0
   57.9783   30.2096   46.1021 H   0  0  0  0  0  0  0  0  0  0  0  0
   58.9073   29.0204   45.0721 H   0  0  0  0  0  0  0  0  0  0  0  0
   59.4190   30.6218   46.2910 H   0  0  0  0  0  0  0  0  0  0  0  0
   61.2678   31.2240   47.8499 H   0  0  0  0  0  0  0  0  0  0  0  0
  1  2  1  0
  2  3  2  0
  2  4  1  0
  4  5  1  0
  5  6  2  0
  6  7  1  0
  7  8  2  0
  8  9  1  0
  9 10  2  0
  9 11  2  0
  9 12  1  0
 12 13  1  0
 13 14  1  0
 14 15  1  0
 15 16  1  0
 16 17  1  0
  8 18  1  0
 18 19  2  0
 19  5  1  0
 17 12  1  0
  1 20  1  0
  1 21  1  0
  1 22  1  0
  4 23  1  0
  6 24  1  0
  7 25  1  0
 13 26  1  0
 13 27  1  0
 14 28  1  0
 14 29  1  0
 15 30  1  0
 16 31  1  0
 16 32  1  0
 17 33  1  0
 17 34  1  0
 18 35  1  0
 19 36  1  0
M  END
>  <UniqueID>  (15) 
15

>  <SMILES>  (15) 
CC(=O)Nc1ccc(S(=O)(=O)N2CCNCC2)cc1

>  <Energy>  (15) 
46.37789070250053

>  <Genealogy>  (15) 
CC(=O)Nc1ccc(S(=O)(=O)N2CCNCC2)cc1 (3D coordinates assigned)
CC(=O)Nc1ccc(S(=O)(=O)N2CCNCC2)cc1 (nonaromatic ring conformer: 46.37789070250053 kcal/mol)

>  <smiles>  (15) 
CC(=O)Nc1ccc(S(=O)(=O)N2CCNCC2)cc1

>  <score_type>  (15) 
oracle

>  <origin>  (15) 
adg

>  <m_score__min__energy>  (15) 
-7.5899999999999999

>  <m_primary>  (15) 
energy

$$$$
15:0
     RDKit          3D

 87 92  0  0  0  0  0  0  0  0999 V2000
   59.1871   25.3576   48.0645 H   0  0  0  0  0  0  0  0  0  0  0  0
   59.1930   26.3930   47.6930 C   0  0  0  0  0  0  0  0  0  0  0  0
   58.4810   26.7190   46.5930 N   0  0  0  0  0  0  0  0  0  0  0  0
   58.4370   27.9880   46.1100 C   0  0  0  0  0  0  0  0  0  0  0  0
   57.6590   28.2410   44.9760 C   0  0  0  0  0  0  0  0  0  0  0  0
   57.1274   27.4141   44.4824 H   0  0  0  0  0  0  0  0  0  0  0  0
   57.5530   29.5320   44.4680 C   0  0  0  0  0  0  0  0  0  0  0  0
   56.5690   29.8420   43.0490 Cl  0  0  0  0  0  0  0  0  0  0  0  0
   58.2040   30.5820   45.1070 C   0  0  0  0  0  0  0  0  0  0  0  0
   58.1001   31.6057   44.7181 H   0  0  0  0  0  0  0  0  0  0  0  0
   58.9890   30.3470   46.2390 C   0  0  0  0  0  0  0  0  0  0  0  0
   59.4846   31.1929   46.7379 H   0  0  0  0  0  0  0  0  0  0  0  0
   59.1580   29.0370   46.7560 C   0  0  0  0  0  0  0  0  0  0  0  0
   59.9640   28.6880   47.8950 C   0  0  0  0  0  0  0  0  0  0  0  0
   60.7840   29.4780   48.5420 N   0  0  0  0  0  0  0  0  0  0  0  0
   60.8600   29.9010   49.9330 C   0  0  0  0  0  0  0  0  0  0  0  0
   60.0880   29.3804   50.5186 H   0  0  0  0  0  0  0  0  0  0  0  0
   60.6954   30.9866   49.9987 H   0  0  0  0  0  0  0  0  0  0  0  0
   62.2440   29.5560   50.4890 C   0  0  0  0  0  0  0  0  0  0  0  0
   63.0085   29.9420   49.7986 H   0  0  0  0  0  0  0  0  0  0  0  0
   62.3039   28.4619   50.5853 H   0  0  0  0  0  0  0  0  0  0  0  0
   62.4860   30.1690   51.8940 C   0  0  0  0  0  0  0  0  0  0  0  0
   62.1683   29.4313   52.6456 H   0  0  0  0  0  0  0  0  0  0  0  0
   61.9073   31.1041   51.9210 H   0  0  0  0  0  0  0  0  0  0  0  0
   63.8910   30.5480   52.1890 N   0  0  1  0  0  0  0  0  0  0  0  0
   63.8280   31.4050   52.7870 H   0  0  0  0  0  0  0  0  0  0  0  0
   64.5680   29.5340   52.9650 C   0  0  0  0  0  0  0  0  0  0  0  0
   64.9730   29.7860   54.1350 O   0  0  0  0  0  0  0  0  0  0  0  0
   64.7270   28.2170   52.4180 N   0  0  0  0  0  0  0  0  0  0  0  0
   65.8320   27.7560   51.6290 C   0  0  0  0  0  0  0  0  0  0  0  0
   65.9690   26.4050   51.2590 C   0  0  0  0  0  0  0  0  0  0  0  0
   65.2072   25.6734   51.5662 H   0  0  0  0  0  0  0  0  0  0  0  0
   67.0700   25.9880   50.5020 C   0  0  0  0  0  0  0  0  0  0  0  0
   67.1690   24.9322   50.2095 H   0  0  0  0  0  0  0  0  0  0  0  0
   68.0440   26.9150   50.1180 C   0  0  0  0  0  0  0  0  0  0  0  0
   68.9045   26.5900   49.5148 H   0  0  0  0  0  0  0  0  0  0  0  0
   67.9250   28.2540   50.5000 C   0  0  0  0  0  0  0  0  0  0  0  0
   68.6951   28.9809   50.2023 H   0  0  0  0  0  0  0  0  0  0  0  0
   66.8270   28.6710   51.2610 C   0  0  0  0  0  0  0  0  0  0  0  0
   66.7448   29.7229   51.5719 H   0  0  0  0  0  0  0  0  0  0  0  0
   64.6460   30.9310   50.9700 C   0  0  0  0  0  0  0  0  0  0  0  0
   65.6639   30.5196   51.0376 H   0  0  0  0  0  0  0  0  0  0  0  0
   64.1135   30.5265   50.0966 H   0  0  0  0  0  0  0  0  0  0  0  0
   64.7360   32.4630   50.8100 C   0  0  0  0  0  0  0  0  0  0  0  0
   63.9381   32.9266   51.4087 H   0  0  0  0  0  0  0  0  0  0  0  0
   65.7344   32.7741   51.1511 H   0  0  0  0  0  0  0  0  0  0  0  0
   64.5820   32.9190   49.3470 C   0  0  0  0  0  0  0  0  0  0  0  0
   64.1873   33.9457   49.3485 H   0  0  0  0  0  0  0  0  0  0  0  0
   65.5797   32.8378   48.8910 H   0  0  0  0  0  0  0  0  0  0  0  0
   63.6430   32.0460   48.4930 C   0  0  0  0  0  0  0  0  0  0  0  0
   63.9989   31.0059   48.5311 H   0  0  0  0  0  0  0  0  0  0  0  0
   62.6293   32.1461   48.9082 H   0  0  0  0  0  0  0  0  0  0  0  0
   63.5870   32.4920   47.0240 C   0  0  0  0  0  0  0  0  0  0  0  0
   64.6140   32.5990   46.6446 H   0  0  0  0  0  0  0  0  0  0  0  0
   63.0338   31.7300   46.4554 H   0  0  0  0  0  0  0  0  0  0  0  0
   62.8580   33.8280   46.8650 C   0  0  0  0  0  0  0  0  0  0  0  0
   63.5845   34.6535   46.8921 H   0  0  0  0  0  0  0  0  0  0  0  0
   62.3263   33.8570   45.9024 H   0  0  0  0  0  0  0  0  0  0  0  0
   61.9120   33.9680   47.9650 N   0  0  0  0  0  0  0  0  0  0  0  0
   60.6320   33.7230   48.0960 C   0  0  0  0  0  0  0  0  0  0  0  0
   60.2230   33.2100   49.3530 C   0  0  0  0  0  0  0  0  0  0  0  0
   58.9170   32.7390   49.5260 C   0  0  0  0  0  0  0  0  0  0  0  0
   58.0280   32.8010   48.5100 N   0  0  0  0  0  0  0  0  0  0  0  0
   58.3380   33.3500   47.3100 C   0  0  0  0  0  0  0  0  0  0  0  0
   57.3390   33.4120   46.3300 C   0  0  0  0  0  0  0  0  0  0  0  0
   56.3489   32.9765   46.5299 H   0  0  0  0  0  0  0  0  0  0  0  0
   57.5920   34.0210   45.1060 C   0  0  0  0  0  0  0  0  0  0  0  0
   56.8081   34.0563   44.3351 H   0  0  0  0  0  0  0  0  0  0  0  0
   58.8380   34.5850   44.8590 C   0  0  0  0  0  0  0  0  0  0  0  0
   59.0289   35.0880   43.8995 H   0  0  0  0  0  0  0  0  0  0  0  0
   59.8500   34.5180   45.8200 C   0  0  0  0  0  0  0  0  0  0  0  0
   60.8256   34.9801   45.6088 H   0  0  0  0  0  0  0  0  0  0  0  0
   59.6440   33.8660   47.0620 C   0  0  0  0  0  0  0  0  0  0  0  0
   58.5250   32.1080   50.8310 C   0  0  0  0  0  0  0  0  0  0  0  0
   57.4284   32.0456   50.8899 H   0  0  0  0  0  0  0  0  0  0  0  0
   58.9613   31.0999   50.8884 H   0  0  0  0  0  0  0  0  0  0  0  0
   59.0490   32.9490   52.0030 C   0  0  0  0  0  0  0  0  0  0  0  0
   58.4317   33.8561   52.0811 H   0  0  0  0  0  0  0  0  0  0  0  0
   58.9879   32.3166   52.9010 H   0  0  0  0  0  0  0  0  0  0  0  0
   60.5310   33.3790   51.8570 C   0  0  0  0  0  0  0  0  0  0  0  0
   60.5832   34.4710   51.9785 H   0  0  0  0  0  0  0  0  0  0  0  0
   61.0889   32.8271   52.6278 H   0  0  0  0  0  0  0  0  0  0  0  0
   61.1840   33.0160   50.5090 C   0  0  0  0  0  0  0  0  0  0  0  0
   62.0633   33.6585   50.3539 H   0  0  0  0  0  0  0  0  0  0  0  0
   61.4732   31.9552   50.5415 H   0  0  0  0  0  0  0  0  0  0  0  0
   59.9330   27.3640   48.3560 C   0  0  0  0  0  0  0  0  0  0  0  0
   60.5031   27.0902   49.2560 H   0  0  0  0  0  0  0  0  0  0  0  0
  1  2  1  0
  2  3  1  0
  3  4  1  0
  4  5  2  0
  5  6  1  0
  5  7  1  0
  7  8  1  0
  7  9  2  0
  9 10  1  0
  9 11  1  0
 11 12  1  0
 11 13  2  0
 13 14  1  0
 14 15  2  3
 15 16  1  0
 16 17  1  0
 16 18  1  0
 16 19  1  0
 19 20  1  0
 19 21  1  0
 19 22  1  0
 22 23  1  0
 22 24  1  0
 22 25  1  0
 25 26  1  1
 25 27  1  0
 27 28  2  0
 27 29  1  0
 29 30  1  0
 30 31  2  0
 31 32  1  0
 31 33  1  0
 33 34  1  0
 33 35  2  0
 35 36  1  0
 35 37  1  0
 37 38  1  0
 37 39  2  0
 39 40  1  0
 25 41  1  0
 41 42  1  0
 41 43  1  0
 41 44  1  0
 44 45  1  0
 44 46  1  0
 44 47  1  0
 47 48  1  0
 47 49  1  0
 47 50  1  0
 50 51  1  0
 50 52  1  0
 50 53  1  0
 53 54  1  0
 53 55  1  0
 53 56  1  0
 56 57  1  0
 56 58  1  0
 56 59  1  0
 59 60  2  0
 60 61  1  0
 61 62  2  0
 62 63  1  0
 63 64  1  0
 64 65  2  0
 65 66  1  0
 65 67  1  0
 67 68  1  0
 67 69  2  0
 69 70  1  0
 69 71  1  0
 71 72  1  0
 71 73  2  0
 62 74  1  0
 74 75  1  0
 74 76  1  0
 74 77  1  0
 77 78  1  0
 77 79  1  0
 77 80  1  0
 80 81  1  0
 80 82  1  0
 80 83  1  0
 83 84  1  0
 83 85  1  0
 14 86  1  0
 86 87  1  0
 86  2  2  0
 13  4  1  0
 39 30  1  0
 73 60  1  0
 83 61  1  0
 73 64  1  0
M  CHG  4   3  -1  25   1  29  -1  63  -1
M  END
>  <UniqueID>  (16) 
16

>  <SMILES>  (16) 
O=C([N-]c1ccccc1)[N@@H+](CCCCCC/N=c1/c2c([n-]c3ccccc13)CCCC2)CCCN=c1cc[n-]c2cc(Cl)ccc12

>  <Energy>  (16) 
136.1223412888606

>  <Genealogy>  (16) 
O=C([N-]c1ccccc1)[NH+](CCCCCCN=c1c2c([n-]c3ccccc13)CCCC2)CCCN=c1cc[n-]c2cc(Cl)ccc12 (protonated)
O=C([N-]c1ccccc1)[N@@H+](CCCCCCN=c1c2c([n-]c3ccccc13)CCCC2)CCCN=c1cc[n-]c2cc(Cl)ccc12 (chirality)
O=C([N-]c1ccccc1)[N@@H+](CCCCCC/N=c1/c2c([n-]c3ccccc13)CCCC2)CCCN=c1cc[n-]c2cc(Cl)ccc12 (cis-trans isomerization)
O=C([N-]c1ccccc1)[N@@H+](CCCCCC/N=c1/c2c([n-]c3ccccc13)CCCC2)CCCN=c1cc[n-]c2cc(Cl)ccc12 (3D coordinates assigned)
O=C([N-]c1ccccc1)[N@@H+](CCCCCC/N=c1/c2c([n-]c3ccccc13)CCCC2)CCCN=c1cc[n-]c2cc(Cl)ccc12 (nonaromatic ring conformer: 136.1223412888606 kcal/mol)

>  <smiles>  (16) 
O=C(Nc1ccccc1)N(CCCCCCN=c1c2c([nH]c3ccccc13)CCCC2)CCCN=c1cc[nH]c2cc(Cl)ccc12

>  <score_type>  (16) 
oracle

>  <origin>  (16) 
adg

>  <m_score__min__energy>  (16) 
-12.630000000000001

>  <m_primary>  (16) 
energy

$$$$
16:0
     RDKit          3D

 43 45  0  0  0  0  0  0  0  0999 V2000
   60.0047   26.3025   45.4827 H   0  0  0  0  0  0  0  0  0  0  0  0
   58.9180   26.3930   45.6270 C   0  0  0  0  0  0  0  0  0  0  0  0
   58.3200   27.6110   45.5420 N   0  0  0  0  0  0  0  0  0  0  0  0
   56.9800   27.7890   45.7160 C   0  0  0  0  0  0  0  0  0  0  0  0
   56.5150   29.0040   45.6170 N   0  0  0  0  0  0  0  0  0  0  0  0
   56.0550   29.7160   44.4590 C   0  0  0  0  0  0  0  0  0  0  0  0
   54.9420   29.4250   43.9370 O   0  0  0  0  0  0  0  0  0  0  0  0
   56.8180   30.8880   43.9760 C   0  0  0  0  0  0  0  0  0  0  0  0
   57.0170   31.0800   42.5960 C   0  0  0  0  0  0  0  0  0  0  0  0
   56.5815   30.3703   41.8772 H   0  0  0  0  0  0  0  0  0  0  0  0
   57.7640   32.1660   42.1330 C   0  0  0  0  0  0  0  0  0  0  0  0
   57.9126   32.3086   41.0525 H   0  0  0  0  0  0  0  0  0  0  0  0
   58.3220   33.0700   43.0370 C   0  0  0  0  0  0  0  0  0  0  0  0
   58.9154   33.9195   42.6680 H   0  0  0  0  0  0  0  0  0  0  0  0
   58.1280   32.8980   44.4160 C   0  0  0  0  0  0  0  0  0  0  0  0
   58.8570   34.0170   45.5630 S   0  0  0  0  0  0  0  0  0  0  0  0
   58.9900   35.3620   44.9040 O   0  0  0  0  0  0  0  0  0  0  0  0
   57.9850   34.1630   46.7810 O   0  0  0  0  0  0  0  0  0  0  0  0
   60.4240   33.4690   46.0580 N   0  0  0  0  0  0  0  0  0  0  0  0
   61.2220   34.1330   45.9430 H   0  0  0  0  0  0  0  0  0  0  0  0
   60.5750   32.3510   46.9430 C   0  0  0  0  0  0  0  0  0  0  0  0
   59.6400   31.3010   46.9210 C   0  0  0  0  0  0  0  0  0  0  0  0
   58.7822   31.3464   46.2339 H   0  0  0  0  0  0  0  0  0  0  0  0
   59.7950   30.2010   47.7670 C   0  0  0  0  0  0  0  0  0  0  0  0
   59.0627   29.3805   47.7417 H   0  0  0  0  0  0  0  0  0  0  0  0
   60.8790   30.1420   48.6450 C   0  0  0  0  0  0  0  0  0  0  0  0
   60.9960   29.2770   49.3144 H   0  0  0  0  0  0  0  0  0  0  0  0
   61.8170   31.1800   48.6760 C   0  0  0  0  0  0  0  0  0  0  0  0
   62.6694   31.1267   49.3692 H   0  0  0  0  0  0  0  0  0  0  0  0
   61.6750   32.2940   47.8230 C   0  0  0  0  0  0  0  0  0  0  0  0
   62.5910   33.3610   47.8340 O   0  0  0  0  0  0  0  0  0  0  0  0
   63.7320   33.4600   46.9820 C   0  0  0  0  0  0  0  0  0  0  0  0
   64.6418   33.5389   47.5952 H   0  0  0  0  0  0  0  0  0  0  0  0
   63.7944   32.5639   46.3471 H   0  0  0  0  0  0  0  0  0  0  0  0
   63.6391   34.3535   46.3471 H   0  0  0  0  0  0  0  0  0  0  0  0
   57.3710   31.8130   44.8830 C   0  0  0  0  0  0  0  0  0  0  0  0
   57.2085   31.6840   45.9632 H   0  0  0  0  0  0  0  0  0  0  0  0
   56.1680   26.6450   45.9580 C   0  0  0  0  0  0  0  0  0  0  0  0
   54.7830   26.7160   46.0570 O   0  0  0  0  0  0  0  0  0  0  0  0
   56.7750   25.3880   46.0540 C   0  0  0  0  0  0  0  0  0  0  0  0
   56.1611   24.4975   46.2543 H   0  0  0  0  0  0  0  0  0  0  0  0
   58.1540   25.2590   45.8970 C   0  0  0  0  0  0  0  0  0  0  0  0
   58.6339   24.2732   45.9852 H   0  0  0  0  0  0  0  0  0  0  0  0
  1  2  1  0
  2  3  1  0
  3  4  1  0
  4  5  2  0
  5  6  1  0
  6  7  2  0
  6  8  1  0
  8  9  2  0
  9 10  1  0
  9 11  1  0
 11 12  1  0
 11 13  2  0
 13 14  1  0
 13 15  1  0
 15 16  1  0
 16 17  2  0
 16 18  2  0
 16 19  1  0
 19 20  1  0
 19 21  1  0
 21 22  2  0
 22 23  1  0
 22 24  1  0
 24 25  1  0
 24 26  2  0
 26 27  1  0
 26 28  1  0
 28 29  1  0
 28 30  2  0
 30 31  1  0
 31 32  1  0
 32 33  1  0
 32 34  1  0
 32 35  1  0
 15 36  2  0
 36 37  1  0
  4 38  1  0
 38 39  1  0
 38 40  2  0
 40 41  1  0
 40 42  1  0
 42 43  1  0
 42  2  2  0
 36  8  1  0
 30 21  1  0
M  CHG  2   3  -1  39  -1
M  END
>  <UniqueID>  (17) 
17

>  <SMILES>  (17) 
COc1ccccc1NS(=O)(=O)c1cccc(C(=O)/N=c2/[n-]cccc2[O-])c1

>  <Energy>  (17) 
65.25284735009748

>  <Genealogy>  (17) 
COc1ccccc1NS(=O)(=O)c1cccc(C(=O)N=c2[n-]cccc2[O-])c1 (protonated)
COc1ccccc1NS(=O)(=O)c1cccc(C(=O)/N=c2/[n-]cccc2[O-])c1 (cis-trans isomerization)
COc1ccccc1NS(=O)(=O)c1cccc(C(=O)/N=c2/[n-]cccc2[O-])c1 (3D coordinates assigned)
COc1ccccc1NS(=O)(=O)c1cccc(C(=O)/N=c2/[n-]cccc2[O-])c1 (optimized conformer: 65.25284735009748 kcal/mol)

>  <smiles>  (17) 
COc1ccccc1NS(=O)(=O)c1cccc(C(=O)N=c2[nH]cccc2O)c1

>  <score_type>  (17) 
oracle

>  <origin>  (17) 
adg

>  <m_score__min__energy>  (17) 
-14.380000000000001

>  <m_primary>  (17) 
energy

$$$$
17:0
     RDKit          3D

 38 40  0  0  0  0  0  0  0  0999 V2000
   55.6250   26.4800   45.9790 O   0  0  0  0  0  0  0  0  0  0  0  0
   56.7950   26.9450   46.0220 C   0  0  0  0  0  0  0  0  0  0  0  0
   57.4100   27.5250   44.7730 C   0  0  0  0  0  0  0  0  0  0  0  0
   57.4490   29.0350   44.8160 C   0  0  0  0  0  0  0  0  0  0  0  0
   58.6800   29.7060   44.8380 C   0  0  0  0  0  0  0  0  0  0  0  0
   58.7220   31.0650   44.8480 N   0  0  0  0  0  0  0  0  0  0  0  0
   57.5740   31.7960   44.8280 C   0  0  0  0  0  0  0  0  0  0  0  0
   57.6310   33.4300   44.8400 S   0  0  0  0  0  0  0  0  0  0  0  0
   56.3700   31.1680   44.7960 N   0  0  0  0  0  0  0  0  0  0  0  0
   56.2810   29.8140   44.7860 C   0  0  0  0  0  0  0  0  0  0  0  0
   55.1450   29.2720   44.7500 O   0  0  0  0  0  0  0  0  0  0  0  0
   57.5830   26.7080   47.1950 N   0  0  0  0  0  0  0  0  0  0  0  0
   58.4710   27.5110   47.7020 C   0  0  0  0  0  0  0  0  0  0  0  0
   58.1930   28.8010   47.9790 N   0  0  0  0  0  0  0  0  0  0  0  0
   59.2810   29.4690   48.4500 C   0  0  0  0  0  0  0  0  0  0  0  0
   59.2240   30.8900   48.8560 C   0  0  0  0  0  0  0  0  0  0  0  0
   58.7080   31.1840   49.9690 O   0  0  0  0  0  0  0  0  0  0  0  0
   59.7260   31.9460   48.0130 N   0  0  0  0  0  0  0  0  0  0  0  0
   60.8600   31.7300   47.1070 C   0  0  0  0  0  0  0  0  0  0  0  0
   61.6740   33.0210   46.9770 C   0  0  0  0  0  0  0  0  0  0  0  0
   60.8390   34.1100   46.6330 O   0  0  0  0  0  0  0  0  0  0  0  0
   59.9360   34.3710   47.6910 C   0  0  0  0  0  0  0  0  0  0  0  0
   58.9720   33.1970   47.8850 C   0  0  0  0  0  0  0  0  0  0  0  0
   60.4410   28.6990   48.5510 C   0  0  0  0  0  0  0  0  0  0  0  0
   60.0850   27.1440   48.0160 S   0  0  0  0  0  0  0  0  0  0  0  0
   58.4374   27.1450   44.6724 H   0  0  0  0  0  0  0  0  0  0  0  0
   56.7911   27.2232   43.9151 H   0  0  0  0  0  0  0  0  0  0  0  0
   59.6169   29.1298   44.8472 H   0  0  0  0  0  0  0  0  0  0  0  0
   59.6510   31.5420   44.8690 H   0  0  0  0  0  0  0  0  0  0  0  0
   61.5020   30.9325   47.5093 H   0  0  0  0  0  0  0  0  0  0  0  0
   60.4824   31.4376   46.1161 H   0  0  0  0  0  0  0  0  0  0  0  0
   62.1674   33.2342   47.9367 H   0  0  0  0  0  0  0  0  0  0  0  0
   62.4228   32.8867   46.1825 H   0  0  0  0  0  0  0  0  0  0  0  0
   60.5042   34.5283   48.6196 H   0  0  0  0  0  0  0  0  0  0  0  0
   59.3520   35.2695   47.4427 H   0  0  0  0  0  0  0  0  0  0  0  0
   58.3784   33.3597   48.7967 H   0  0  0  0  0  0  0  0  0  0  0  0
   58.3048   33.1293   47.0131 H   0  0  0  0  0  0  0  0  0  0  0  0
   61.4179   29.0481   48.9167 H   0  0  0  0  0  0  0  0  0  0  0  0
  1  2  2  0
  2  3  1  0
  3  4  1  0
  4  5  2  0
  5  6  1  0
  6  7  1  0
  7  8  2  0
  7  9  1  0
  9 10  1  0
 10 11  2  0
  2 12  1  0
 12 13  2  3
 13 14  1  0
 14 15  1  0
 15 16  1  0
 16 17  2  0
 16 18  1  0
 18 19  1  0
 19 20  1  0
 20 21  1  0
 21 22  1  0
 22 23  1  0
 15 24  2  0
 24 25  1  0
 10  4  1  0
 25 13  1  0
 23 18  1  0
  3 26  1  0
  3 27  1  0
  5 28  1  0
  6 29  1  0
 19 30  1  0
 19 31  1  0
 20 32  1  0
 20 33  1  0
 22 34  1  0
 22 35  1  0
 23 36  1  0
 23 37  1  0
 24 38  1  0
M  CHG  2   9  -1  14  -1
M  END
>  <UniqueID>  (18) 
18

>  <SMILES>  (18) 
O=C(Cc1c[nH]c(=S)[n-]c1=O)N=c1[n-]c(C(=O)N2CCOCC2)cs1

>  <Energy>  (18) 
82.45666255354445

>  <Genealogy>  (18) 
O=C(Cc1c[nH]c(=S)[n-]c1=O)N=c1[n-]c(C(=O)N2CCOCC2)cs1 (protonated)
O=C(Cc1c[nH]c(=S)[n-]c1=O)N=c1[n-]c(C(=O)N2CCOCC2)cs1 (3D coordinates assigned)
O=C(Cc1c[nH]c(=S)[n-]c1=O)N=c1[n-]c(C(=O)N2CCOCC2)cs1 (nonaromatic ring conformer: 82.45666255354445 kcal/mol)

>  <smiles>  (18) 
O=C(Cc1c[nH]c(=S)[nH]c1=O)N=c1[nH]c(C(=O)N2CCOCC2)cs1

>  <score_type>  (18) 
oracle

>  <origin>  (18) 
adg

>  <m_score__min__energy>  (18) 
-11.08

>  <m_primary>  (18) 
energy

$$$$
18:0
     RDKit          3D

 30 32  0  0  0  0  0  0  0  0999 V2000
   55.2060   27.1210   53.8260 O   0  0  0  0  0  0  0  0  0  0  0  0
   55.0680   28.3180   54.1910 C   0  0  0  0  0  0  0  0  0  0  0  0
   54.8660   29.3970   53.2030 C   0  0  0  0  0  0  0  0  0  0  0  0
   55.8320   29.9920   52.3740 C   0  0  0  0  0  0  0  0  0  0  0  0
   57.2830   29.7170   52.3400 C   0  0  0  0  0  0  0  0  0  0  0  0
   57.8590   29.2160   53.3410 O   0  0  0  0  0  0  0  0  0  0  0  0
   58.0430   30.1310   51.1920 N   0  0  0  0  0  0  0  0  0  0  0  0
   58.5190   31.3110   50.9000 C   0  0  0  0  0  0  0  0  0  0  0  0
   58.8980   31.5600   49.5750 C   0  0  0  0  0  0  0  0  0  0  0  0
   59.4170   32.8080   49.2190 C   0  0  0  0  0  0  0  0  0  0  0  0
   59.5660   33.7770   50.1600 N   0  0  0  0  0  0  0  0  0  0  0  0
   59.2250   33.5650   51.4570 C   0  0  0  0  0  0  0  0  0  0  0  0
   58.7020   32.3320   51.8570 C   0  0  0  0  0  0  0  0  0  0  0  0
   55.2540   30.9160   51.5680 N   0  0  0  0  0  0  0  0  0  0  0  0
   53.9470   30.9200   51.8760 C   0  0  0  0  0  0  0  0  0  0  0  0
   52.9560   31.7130   51.2990 C   0  0  0  0  0  0  0  0  0  0  0  0
   51.6370   31.5580   51.7580 C   0  0  0  0  0  0  0  0  0  0  0  0
   50.6210   32.3320   51.2070 O   0  0  0  0  0  0  0  0  0  0  0  0
   51.3400   30.6200   52.7730 C   0  0  0  0  0  0  0  0  0  0  0  0
   50.0320   30.4710   53.2190 O   0  0  0  0  0  0  0  0  0  0  0  0
   52.3620   29.8340   53.3360 C   0  0  0  0  0  0  0  0  0  0  0  0
   53.6670   30.0130   52.8660 C   0  0  0  0  0  0  0  0  0  0  0  0
   55.0984   28.5641   55.2627 H   0  0  0  0  0  0  0  0  0  0  0  0
   58.7872   30.7732   48.8143 H   0  0  0  0  0  0  0  0  0  0  0  0
   59.7051   33.0060   48.1760 H   0  0  0  0  0  0  0  0  0  0  0  0
   59.3610   34.3676   52.1968 H   0  0  0  0  0  0  0  0  0  0  0  0
   58.4350   32.1587   52.9099 H   0  0  0  0  0  0  0  0  0  0  0  0
   55.7250   31.5140   50.8540 H   0  0  0  0  0  0  0  0  0  0  0  0
   53.1993   32.4381   50.5084 H   0  0  0  0  0  0  0  0  0  0  0  0
   52.1408   29.0991   54.1240 H   0  0  0  0  0  0  0  0  0  0  0  0
  1  2  2  0
  2  3  1  0
  3  4  2  0
  4  5  1  0
  5  6  2  0
  5  7  1  0
  7  8  2  3
  8  9  1  0
  9 10  2  0
 10 11  1  0
 11 12  1  0
 12 13  2  0
  4 14  1  0
 14 15  1  0
 15 16  2  0
 16 17  1  0
 17 18  1  0
 17 19  2  0
 19 20  1  0
 19 21  1  0
 21 22  2  0
 22  3  1  0
 13  8  1  0
 22 15  1  0
  2 23  1  0
  9 24  1  0
 10 25  1  0
 12 26  1  0
 13 27  1  0
 14 28  1  0
 16 29  1  0
 21 30  1  0
M  CHG  3  11  -1  18  -1  20  -1
M  END
>  <UniqueID>  (19) 
19

>  <SMILES>  (19) 
O=Cc1c(C(=O)N=c2cc[n-]cc2)[nH]c2cc([O-])c([O-])cc12

>  <Energy>  (19) 
76.95616575437506

>  <Genealogy>  (19) 
O=Cc1c(C(=O)N=c2cc[n-]cc2)[nH]c2cc([O-])c([O-])cc12 (protonated)
O=Cc1c(C(=O)N=c2cc[n-]cc2)[nH]c2cc([O-])c([O-])cc12 (3D coordinates assigned)
O=Cc1c(C(=O)N=c2cc[n-]cc2)[nH]c2cc([O-])c([O-])cc12 (optimized conformer: 76.95616575437506 kcal/mol)

>  <smiles>  (19) 
O=Cc1c(C(=O)N=c2cc[nH]cc2)[nH]c2cc(O)c(O)cc12

>  <score_type>  (19) 
oracle

>  <origin>  (19) 
adg

>  <m_score__min__energy>  (19) 
-13.34

>  <m_primary>  (19) 
energy

$$$$
19:0
     RDKit          3D

 54 57  0  0  0  0  0  0  0  0999 V2000
   59.2640   34.6140   44.7630 C   0  0  0  0  0  0  0  0  0  0  0  0
   58.7630   34.1710   46.1420 C   0  0  0  0  0  0  0  0  0  0  0  0
   57.2780   33.7930   46.1320 C   0  0  0  0  0  0  0  0  0  0  0  0
   59.5900   33.0920   46.6990 N   0  0  0  0  0  0  0  0  0  0  0  0
   60.5810   33.3340   47.5540 N   0  0  0  0  0  0  0  0  0  0  0  0
   61.1600   32.1580   47.8910 C   0  0  0  0  0  0  0  0  0  0  0  0
   62.2570   32.0060   48.9120 C   0  0  2  0  0  0  0  0  0  0  0  0
   61.7390   32.3700   50.3200 C   0  0  0  0  0  0  0  0  0  0  0  0
   62.8670   32.6910   51.3320 C   0  0  0  0  0  0  0  0  0  0  0  0
   64.1830   32.1640   50.9090 N   0  0  2  0  0  0  0  0  0  0  0  0
   65.1960   32.4670   51.9390 C   0  0  0  0  0  0  0  0  0  0  0  0
   64.5360   32.7280   49.6150 C   0  0  0  0  0  0  0  0  0  0  0  0
   65.6830   33.0770   49.3640 O   0  0  0  0  0  0  0  0  0  0  0  0
   63.4940   32.8350   48.5340 C   0  0  0  0  0  0  0  0  0  0  0  0
   60.4870   31.1440   47.2430 C   0  0  0  0  0  0  0  0  0  0  0  0
   60.6150   29.7620   47.2720 C   0  0  0  0  0  0  0  0  0  0  0  0
   59.7540   29.0240   46.5140 N   0  0  0  0  0  0  0  0  0  0  0  0
   58.7790   29.5900   45.7320 C   0  0  0  0  0  0  0  0  0  0  0  0
   58.0030   28.7930   45.0530 N   0  0  0  0  0  0  0  0  0  0  0  0
   56.6440   28.4040   45.3230 C   0  0  0  0  0  0  0  0  0  0  0  0
   55.6850   29.0410   44.8140 O   0  0  0  0  0  0  0  0  0  0  0  0
   56.3510   27.2250   46.0880 N   0  0  0  0  0  0  0  0  0  0  0  0
   56.0780   26.0350   45.6310 C   0  0  0  0  0  0  0  0  0  0  0  0
   57.0720   25.3170   44.9570 C   0  0  0  0  0  0  0  0  0  0  0  0
   56.7850   24.0440   44.4590 C   0  0  0  0  0  0  0  0  0  0  0  0
   55.5120   23.5000   44.6360 C   0  0  0  0  0  0  0  0  0  0  0  0
   54.5400   24.2430   45.3100 C   0  0  0  0  0  0  0  0  0  0  0  0
   52.9320   23.5910   45.5460 Cl  0  0  0  0  0  0  0  0  0  0  0  0
   54.8420   25.4810   45.7860 N   0  0  0  0  0  0  0  0  0  0  0  0
   58.6290   31.0030   45.7250 C   0  0  0  0  0  0  0  0  0  0  0  0
   59.5190   31.7530   46.5000 C   0  0  0  0  0  0  0  0  0  0  0  0
   60.0829   35.3381   44.8856 H   0  0  0  0  0  0  0  0  0  0  0  0
   59.6293   33.7381   44.2068 H   0  0  0  0  0  0  0  0  0  0  0  0
   58.4394   35.0838   44.2068 H   0  0  0  0  0  0  0  0  0  0  0  0
   58.8628   35.0424   46.8058 H   0  0  0  0  0  0  0  0  0  0  0  0
   56.9161   33.7009   47.1667 H   0  0  0  0  0  0  0  0  0  0  0  0
   56.7044   34.5738   45.6111 H   0  0  0  0  0  0  0  0  0  0  0  0
   57.1475   32.8330   45.6111 H   0  0  0  0  0  0  0  0  0  0  0  0
   62.5684   30.9511   48.9262 H   0  0  0  0  0  0  0  0  0  0  0  0
   61.0878   33.2523   50.2336 H   0  0  0  0  0  0  0  0  0  0  0  0
   61.2022   31.4899   50.7037 H   0  0  0  0  0  0  0  0  0  0  0  0
   62.9434   33.7832   51.4385 H   0  0  0  0  0  0  0  0  0  0  0  0
   62.6061   32.2057   52.2841 H   0  0  0  0  0  0  0  0  0  0  0  0
   64.1230   31.1230   50.8130 H   0  0  0  0  0  0  0  0  0  0  0  0
   64.7543   32.3349   52.9377 H   0  0  0  0  0  0  0  0  0  0  0  0
   66.0517   31.7855   51.8234 H   0  0  0  0  0  0  0  0  0  0  0  0
   65.5369   33.5064   51.8234 H   0  0  0  0  0  0  0  0  0  0  0  0
   63.2028   33.8887   48.4119 H   0  0  0  0  0  0  0  0  0  0  0  0
   63.9113   32.4513   47.5913 H   0  0  0  0  0  0  0  0  0  0  0  0
   61.3871   29.2770   47.8874 H   0  0  0  0  0  0  0  0  0  0  0  0
   58.0729   25.7522   44.8202 H   0  0  0  0  0  0  0  0  0  0  0  0
   57.5603   23.4717   43.9286 H   0  0  0  0  0  0  0  0  0  0  0  0
   55.2768   22.4975   44.2491 H   0  0  0  0  0  0  0  0  0  0  0  0
   57.8410   31.4894   45.1312 H   0  0  0  0  0  0  0  0  0  0  0  0
  1  2  1  0
  2  3  1  0
  2  4  1  0
  4  5  1  0
  5  6  2  0
  6  7  1  0
  7  8  1  0
  8  9  1  0
  9 10  1  0
 10 11  1  0
 10 12  1  0
 12 13  2  0
 12 14  1  0
  6 15  1  0
 15 16  2  0
 16 17  1  0
 17 18  1  0
 18 19  2  3
 19 20  1  0
 20 21  2  0
 20 22  1  0
 22 23  2  3
 23 24  1  0
 24 25  2  0
 25 26  1  0
 26 27  2  0
 27 28  1  0
 27 29  1  0
 18 30  1  0
 30 31  2  0
 31  4  1  0
 14  7  1  0
 31 15  1  0
 29 23  1  0
  1 32  1  0
  1 33  1  0
  1 34  1  0
  2 35  1  0
  3 36  1  0
  3 37  1  0
  3 38  1  0
  7 39  1  1
  8 40  1  0
  8 41  1  0
  9 42  1  0
  9 43  1  0
 10 44  1  6
 11 45  1  0
 11 46  1  0
 11 47  1  0
 14 48  1  0
 14 49  1  0
 16 50  1  0
 24 51  1  0
 25 52  1  0
 26 53  1  0
 30 54  1  0
M  CHG  3  10   1  17  -1  29  -1
M  END
>  <UniqueID>  (20) 
20

>  <SMILES>  (20) 
CC(C)n1nc([C@@H]2CC[N@H+](C)C(=O)C2)c2c[n-]c(=NC(=O)N=c3cccc(Cl)[n-]3)cc21

>  <Energy>  (20) 
110.45643080535102

>  <Genealogy>  (20) 
CC(C)n1nc(C2CC[NH+](C)C(=O)C2)c2c[n-]c(=NC(=O)N=c3cccc(Cl)[n-]3)cc21 (protonated)
CC(C)n1nc([C@@H]2CC[N@H+](C)C(=O)C2)c2c[n-]c(=NC(=O)N=c3cccc(Cl)[n-]3)cc21 (chirality)
CC(C)n1nc([C@@H]2CC[N@H+](C)C(=O)C2)c2c[n-]c(=NC(=O)N=c3cccc(Cl)[n-]3)cc21 (3D coordinates assigned)
CC(C)n1nc([C@@H]2CC[N@H+](C)C(=O)C2)c2c[n-]c(=NC(=O)N=c3cccc(Cl)[n-]3)cc21 (nonaromatic ring conformer: 110.45643080535102 kcal/mol)

>  <smiles>  (20) 
CC(C)n1nc(C2CCN(C)C(=O)C2)c2c[nH]c(=NC(=O)N=c3cccc(Cl)[nH]3)cc21

>  <score_type>  (20) 
oracle

>  <origin>  (20) 
adg

>  <m_score__min__energy>  (20) 
-10.92

>  <m_primary>  (20) 
energy

$$$$
20:0
     RDKit          3D

 45 47  0  0  0  0  0  0  0  0999 V2000
   57.6590   32.3340   41.3000 C   0  0  0  0  0  0  0  0  0  0  0  0
   57.8070   32.2700   42.8120 C   0  0  0  0  0  0  0  0  0  0  0  0
   58.0740   30.9300   43.2090 O   0  0  0  0  0  0  0  0  0  0  0  0
   57.0630   30.0360   43.5780 C   0  0  0  0  0  0  0  0  0  0  0  0
   56.2950   29.5430   42.7070 O   0  0  0  0  0  0  0  0  0  0  0  0
   56.8970   29.6710   44.9870 C   0  0  0  0  0  0  0  0  0  0  0  0
   57.4210   30.3880   45.8830 O   0  0  0  0  0  0  0  0  0  0  0  0
   56.1020   28.5330   45.3400 N   0  0  0  0  0  0  0  0  0  0  0  0
   56.6100   27.2200   45.6160 C   0  0  0  0  0  0  0  0  0  0  0  0
   57.9950   27.0420   45.6870 C   0  0  0  0  0  0  0  0  0  0  0  0
   58.5320   25.7860   45.9680 C   0  0  0  0  0  0  0  0  0  0  0  0
   57.6900   24.6960   46.1880 C   0  0  0  0  0  0  0  0  0  0  0  0
   56.2930   24.8500   46.1320 C   0  0  0  0  0  0  0  0  0  0  0  0
   55.3960   23.6630   46.3990 C   0  0  0  0  0  0  0  0  0  0  0  0
   55.7050   23.0070   47.7260 C   0  0  0  0  0  0  0  0  0  0  0  0
   57.0110   22.8880   48.0840 N   0  0  0  0  0  0  0  0  0  0  0  0
   57.3850   22.3170   49.2260 N   0  0  0  0  0  0  0  0  0  0  0  0
   56.4800   21.8070   50.0950 C   0  0  0  0  0  0  0  0  0  0  0  0
   56.8840   21.2830   51.1680 O   0  0  0  0  0  0  0  0  0  0  0  0
   55.1110   21.8680   49.7920 C   0  0  0  0  0  0  0  0  0  0  0  0
   54.7040   22.5150   48.5990 C   0  0  0  0  0  0  0  0  0  0  0  0
   53.2380   22.5700   48.2090 C   0  0  0  0  0  0  0  0  0  0  0  0
   52.2860   22.3080   49.3790 C   0  0  0  0  0  0  0  0  0  0  0  0
   52.7310   21.0790   50.1610 C   0  0  0  0  0  0  0  0  0  0  0  0
   54.1030   21.3280   50.7880 C   0  0  0  0  0  0  0  0  0  0  0  0
   55.7540   26.1310   45.8830 C   0  0  0  0  0  0  0  0  0  0  0  0
   54.3780   26.3280   45.9490 O   0  0  0  0  0  0  0  0  0  0  0  0
   56.6768   32.7587   41.0454 H   0  0  0  0  0  0  0  0  0  0  0  0
   58.4531   32.9691   40.8804 H   0  0  0  0  0  0  0  0  0  0  0  0
   57.7401   31.3204   40.8804 H   0  0  0  0  0  0  0  0  0  0  0  0
   58.6388   32.9176   43.1262 H   0  0  0  0  0  0  0  0  0  0  0  0
   56.8749   32.6124   43.2852 H   0  0  0  0  0  0  0  0  0  0  0  0
   58.6653   27.8981   45.5202 H   0  0  0  0  0  0  0  0  0  0  0  0
   59.6230   25.6545   46.0163 H   0  0  0  0  0  0  0  0  0  0  0  0
   58.1218   23.7083   46.4070 H   0  0  0  0  0  0  0  0  0  0  0  0
   54.3498   24.0028   46.4058 H   0  0  0  0  0  0  0  0  0  0  0  0
   55.5682   22.9214   45.6050 H   0  0  0  0  0  0  0  0  0  0  0  0
   53.0230   23.5690   47.8018 H   0  0  0  0  0  0  0  0  0  0  0  0
   53.0693   21.7736   47.4692 H   0  0  0  0  0  0  0  0  0  0  0  0
   52.2841   23.1817   50.0473 H   0  0  0  0  0  0  0  0  0  0  0  0
   51.2747   22.1323   48.9835 H   0  0  0  0  0  0  0  0  0  0  0  0
   52.0000   20.8682   50.9555 H   0  0  0  0  0  0  0  0  0  0  0  0
   52.7965   20.2197   49.4774 H   0  0  0  0  0  0  0  0  0  0  0  0
   53.9900   22.0562   51.6046 H   0  0  0  0  0  0  0  0  0  0  0  0
   54.4817   20.3624   51.1543 H   0  0  0  0  0  0  0  0  0  0  0  0
  1  2  1  0
  2  3  1  0
  3  4  1  0
  4  5  2  0
  4  6  1  0
  6  7  2  0
  6  8  1  0
  8  9  1  0
  9 10  2  0
 10 11  1  0
 11 12  2  0
 12 13  1  0
 13 14  1  0
 14 15  1  0
 15 16  2  0
 16 17  1  0
 17 18  1  0
 18 19  2  0
 18 20  1  0
 20 21  2  0
 21 22  1  0
 22 23  1  0
 23 24  1  0
 24 25  1  0
 13 26  2  0
 26 27  1  0
 26  9  1  0
 21 15  1  0
 25 20  1  0
  1 28  1  0
  1 29  1  0
  1 30  1  0
  2 31  1  0
  2 32  1  0
 10 33  1  0
 11 34  1  0
 12 35  1  0
 14 36  1  0
 14 37  1  0
 22 38  1  0
 22 39  1  0
 23 40  1  0
 23 41  1  0
 24 42  1  0
 24 43  1  0
 25 44  1  0
 25 45  1  0
M  CHG  3   8  -1  17  -1  27  -1
M  END
>  <UniqueID>  (21) 
21

>  <SMILES>  (21) 
CCOC(=O)C(=O)[N-]c1cccc(Cc2n[n-]c(=O)c3c2CCCC3)c1[O-]

>  <Energy>  (21) 
48.745951565269976

>  <Genealogy>  (21) 
CCOC(=O)C(=O)[N-]c1cccc(Cc2n[n-]c(=O)c3c2CCCC3)c1[O-] (protonated)
CCOC(=O)C(=O)[N-]c1cccc(Cc2n[n-]c(=O)c3c2CCCC3)c1[O-] (3D coordinates assigned)
CCOC(=O)C(=O)[N-]c1cccc(Cc2n[n-]c(=O)c3c2CCCC3)c1[O-] (nonaromatic ring conformer: 48.745951565269976 kcal/mol)

>  <smiles>  (21) 
CCOC(=O)C(=O)Nc1cccc(Cc2n[nH]c(=O)c3c2CCCC3)c1O

>  <score_type>  (21) 
oracle

>  <origin>  (21) 
adg

>  <m_score__min__energy>  (21) 
-14.859999999999999

>  <m_primary>  (21) 
energy

$$$$
21:0
     RDKit          3D

 45 47  0  0  0  0  0  0  0  0999 V2000
   56.5050   30.2920   42.5090 C   0  0  0  0  0  0  0  0  0  0  0  0
   57.0850   30.4850   44.1810 S   0  0  0  0  0  0  0  0  0  0  0  0
   58.5180   30.0360   44.2490 O   0  0  0  0  0  0  0  0  0  0  0  0
   56.2700   29.6430   45.1220 O   0  0  0  0  0  0  0  0  0  0  0  0
   57.0020   32.1520   44.6470 N   0  0  0  0  0  0  0  0  0  0  0  0
   57.7470   32.7680   45.7090 C   0  0  0  0  0  0  0  0  0  0  0  0
   58.0830   34.1330   45.6780 C   0  0  0  0  0  0  0  0  0  0  0  0
   58.8200   34.7020   46.7170 C   0  0  0  0  0  0  0  0  0  0  0  0
   59.2400   33.9190   47.7920 C   0  0  0  0  0  0  0  0  0  0  0  0
   58.9150   32.5550   47.8450 C   0  0  0  0  0  0  0  0  0  0  0  0
   59.4690   31.7050   48.9670 C   0  0  0  0  0  0  0  0  0  0  0  0
   60.7360   30.9470   48.5450 C   0  0  0  0  0  0  0  0  0  0  0  0
   60.4580   29.5070   48.2340 C   0  0  0  0  0  0  0  0  0  0  0  0
   60.1180   29.0560   47.0070 N   0  0  0  0  0  0  0  0  0  0  0  0
   60.0120   27.6980   46.9810 C   0  0  0  0  0  0  0  0  0  0  0  0
   59.6990   26.9550   45.7190 C   0  0  0  0  0  0  0  0  0  0  0  0
   58.4370   26.1530   45.8860 C   0  0  0  0  0  0  0  0  0  0  0  0
   58.4980   24.7630   46.0800 C   0  0  0  0  0  0  0  0  0  0  0  0
   57.3230   24.0240   46.2570 C   0  0  0  0  0  0  0  0  0  0  0  0
   56.0830   24.6670   46.2520 C   0  0  0  0  0  0  0  0  0  0  0  0
   56.0130   26.0510   46.0640 C   0  0  0  0  0  0  0  0  0  0  0  0
   54.7790   26.6880   46.0500 O   0  0  0  0  0  0  0  0  0  0  0  0
   57.1860   26.7930   45.8860 C   0  0  0  0  0  0  0  0  0  0  0  0
   60.2960   27.0580   48.1850 C   0  0  0  0  0  0  0  0  0  0  0  0
   60.6770   28.2390   49.3170 S   0  0  0  0  0  0  0  0  0  0  0  0
   58.1560   31.9810   46.8040 C   0  0  0  0  0  0  0  0  0  0  0  0
   57.8240   30.6250   46.8630 O   0  0  0  0  0  0  0  0  0  0  0  0
   55.4613   29.9447   42.5207 H   0  0  0  0  0  0  0  0  0  0  0  0
   56.5641   31.2582   41.9866 H   0  0  0  0  0  0  0  0  0  0  0  0
   57.1312   29.5538   41.9866 H   0  0  0  0  0  0  0  0  0  0  0  0
   57.7629   34.7558   44.8297 H   0  0  0  0  0  0  0  0  0  0  0  0
   59.0709   35.7726   46.6882 H   0  0  0  0  0  0  0  0  0  0  0  0
   59.8291   34.3730   48.6025 H   0  0  0  0  0  0  0  0  0  0  0  0
   59.7127   32.3569   49.8189 H   0  0  0  0  0  0  0  0  0  0  0  0
   58.7044   30.9624   49.2390 H   0  0  0  0  0  0  0  0  0  0  0  0
   61.1547   31.4284   47.6489 H   0  0  0  0  0  0  0  0  0  0  0  0
   61.4446   30.9799   49.3857 H   0  0  0  0  0  0  0  0  0  0  0  0
   59.5660   27.6744   44.8976 H   0  0  0  0  0  0  0  0  0  0  0  0
   60.5301   26.2718   45.4899 H   0  0  0  0  0  0  0  0  0  0  0  0
   59.4729   24.2537   46.0928 H   0  0  0  0  0  0  0  0  0  0  0  0
   57.3759   22.9347   46.4003 H   0  0  0  0  0  0  0  0  0  0  0  0
   55.1611   24.0845   46.3960 H   0  0  0  0  0  0  0  0  0  0  0  0
   57.1285   27.8825   45.7454 H   0  0  0  0  0  0  0  0  0  0  0  0
   60.2746   25.9727   48.3628 H   0  0  0  0  0  0  0  0  0  0  0  0
   58.1900   29.9470   46.2080 H   0  0  0  0  0  0  0  0  0  0  0  0
  1  2  1  0
  2  3  2  0
  2  4  2  0
  2  5  1  0
  5  6  1  0
  6  7  2  0
  7  8  1  0
  8  9  2  0
  9 10  1  0
 10 11  1  0
 11 12  1  0
 12 13  1  0
 13 14  2  0
 14 15  1  0
 15 16  1  0
 16 17  1  0
 17 18  2  0
 18 19  1  0
 19 20  2  0
 20 21  1  0
 21 22  1  0
 21 23  2  0
 15 24  2  0
 24 25  1  0
 10 26  2  0
 26 27  1  0
 26  6  1  0
 25 13  1  0
 23 17  1  0
  1 28  1  0
  1 29  1  0
  1 30  1  0
  7 31  1  0
  8 32  1  0
  9 33  1  0
 11 34  1  0
 11 35  1  0
 12 36  1  0
 12 37  1  0
 16 38  1  0
 16 39  1  0
 18 40  1  0
 19 41  1  0
 20 42  1  0
 23 43  1  0
 24 44  1  0
 27 45  1  0
M  CHG  2   5  -1  22  -1
M  END
>  <UniqueID>  (22) 
22

>  <SMILES>  (22) 
CS(=O)(=O)[N-]c1cccc(CCc2nc(Cc3cccc([O-])c3)cs2)c1O

>  <Energy>  (22) 
67.00051645027456

>  <Genealogy>  (22) 
CS(=O)(=O)[N-]c1cccc(CCc2nc(Cc3cccc([O-])c3)cs2)c1O (protonated)
CS(=O)(=O)[N-]c1cccc(CCc2nc(Cc3cccc([O-])c3)cs2)c1O (3D coordinates assigned)
CS(=O)(=O)[N-]c1cccc(CCc2nc(Cc3cccc([O-])c3)cs2)c1O (optimized conformer: 67.00051645027456 kcal/mol)

>  <smiles>  (22) 
CS(=O)(=O)Nc1cccc(CCc2nc(Cc3cccc(O)c3)cs2)c1O

>  <score_type>  (22) 
oracle

>  <origin>  (22) 
adg

>  <m_score__min__energy>  (22) 
-14.050000000000001

>  <m_primary>  (22) 
energy

$$$$
22:0
     RDKit          3D

 32 33  0  0  0  0  0  0  0  0999 V2000
   59.2470   34.1100   48.1390 H   0  0  0  0  0  0  0  0  0  0  0  0
   58.9850   34.3490   47.1900 O   0  0  0  0  0  0  0  0  0  0  0  0
   58.5130   33.3960   46.2870 C   0  0  0  0  0  0  0  0  0  0  0  0
   58.1550   33.8070   44.9990 C   0  0  0  0  0  0  0  0  0  0  0  0
   58.2548   34.8651   44.7152 H   0  0  0  0  0  0  0  0  0  0  0  0
   57.6720   32.8830   44.0720 C   0  0  0  0  0  0  0  0  0  0  0  0
   57.3937   33.2168   43.0615 H   0  0  0  0  0  0  0  0  0  0  0  0
   57.5390   31.5300   44.4210 C   0  0  0  0  0  0  0  0  0  0  0  0
   57.0110   30.5370   43.4170 C   0  0  0  0  0  0  0  0  0  0  0  0
   56.6425   31.0815   42.5351 H   0  0  0  0  0  0  0  0  0  0  0  0
   57.8292   29.8553   43.1415 H   0  0  0  0  0  0  0  0  0  0  0  0
   55.8830   29.7160   43.9940 C   0  0  0  0  0  0  0  0  0  0  0  0
   54.7760   29.7150   43.3950 O   0  0  0  0  0  0  0  0  0  0  0  0
   55.9840   29.0100   45.2450 N   0  0  0  0  0  0  0  0  0  0  0  0
   56.7470   27.9970   45.5410 C   0  0  0  0  0  0  0  0  0  0  0  0
   58.1020   28.0690   45.4170 N   0  0  0  0  0  0  0  0  0  0  0  0
   58.9140   27.0190   45.7130 C   0  0  0  0  0  0  0  0  0  0  0  0
   60.0043   27.1195   45.6073 H   0  0  0  0  0  0  0  0  0  0  0  0
   58.3630   25.8140   46.1510 C   0  0  0  0  0  0  0  0  0  0  0  0
   59.0137   24.9620   46.3973 H   0  0  0  0  0  0  0  0  0  0  0  0
   56.9780   25.7020   46.2730 C   0  0  0  0  0  0  0  0  0  0  0  0
   56.5294   24.7562   46.6109 H   0  0  0  0  0  0  0  0  0  0  0  0
   56.1610   26.7940   45.9650 C   0  0  0  0  0  0  0  0  0  0  0  0
   54.7800   26.6790   46.0850 O   0  0  0  0  0  0  0  0  0  0  0  0
   57.9200   31.1140   45.7070 C   0  0  0  0  0  0  0  0  0  0  0  0
   57.8449   30.0508   45.9790 H   0  0  0  0  0  0  0  0  0  0  0  0
   58.3970   32.0420   46.6520 C   0  0  0  0  0  0  0  0  0  0  0  0
   58.7580   31.6590   47.9540 O   0  0  0  0  0  0  0  0  0  0  0  0
   59.2890   30.3840   48.3020 C   0  0  0  0  0  0  0  0  0  0  0  0
   59.3283   30.2897   49.3972 H   0  0  0  0  0  0  0  0  0  0  0  0
   58.6453   29.5935   47.8888 H   0  0  0  0  0  0  0  0  0  0  0  0
   60.3035   30.2841   47.8888 H   0  0  0  0  0  0  0  0  0  0  0  0
  1  2  1  0
  2  3  1  0
  3  4  2  0
  4  5  1  0
  4  6  1  0
  6  7  1  0
  6  8  2  0
  8  9  1  0
  9 10  1  0
  9 11  1  0
  9 12  1  0
 12 13  2  0
 12 14  1  0
 14 15  2  0
 15 16  1  0
 16 17  1  0
 17 18  1  0
 17 19  2  0
 19 20  1  0
 19 21  1  0
 21 22  1  0
 21 23  2  0
 23 24  1  0
  8 25  1  0
 25 26  1  0
 25 27  2  0
 27 28  1  0
 28 29  1  0
 29 30  1  0
 29 31  1  0
 29 32  1  0
 27  3  1  0
 23 15  1  0
M  CHG  2  16  -1  24  -1
M  END
>  <UniqueID>  (23) 
23

>  <SMILES>  (23) 
COc1cc(CC(=O)/N=c2\[n-]cccc2[O-])ccc1O

>  <Energy>  (23) 
36.64647880962897

>  <Genealogy>  (23) 
COc1cc(CC(=O)N=c2[n-]cccc2[O-])ccc1O (protonated)
COc1cc(CC(=O)/N=c2\[n-]cccc2[O-])ccc1O (cis-trans isomerization)
COc1cc(CC(=O)/N=c2\[n-]cccc2[O-])ccc1O (3D coordinates assigned)
COc1cc(CC(=O)/N=c2\[n-]cccc2[O-])ccc1O (optimized conformer: 36.64647880962897 kcal/mol)

>  <smiles>  (23) 
COc1cc(CC(=O)N=c2[nH]cccc2O)ccc1O

>  <score_type>  (23) 
oracle

>  <origin>  (23) 
adg

>  <m_score__min__energy>  (23) 
-11.98

>  <m_primary>  (23) 
energy

$$$$
23:0
     RDKit          3D

 47 49  0  0  0  0  0  0  0  0999 V2000
   58.5760   34.9960   47.2230 O   0  0  0  0  0  0  0  0  0  0  0  0
   59.6000   34.3410   46.8920 C   0  0  0  0  0  0  0  0  0  0  0  0
   60.7600   34.2480   47.8260 C   0  0  0  0  0  0  0  0  0  0  0  0
   60.4430   33.3020   48.8870 N   0  0  0  0  0  0  0  0  0  0  0  0
   59.4050   32.3200   48.7810 C   0  0  0  0  0  0  0  0  0  0  0  0
   58.1960   32.6760   48.8510 O   0  0  0  0  0  0  0  0  0  0  0  0
   59.7470   30.8950   48.5770 C   0  0  0  0  0  0  0  0  0  0  0  0
   60.1770   30.1040   49.6540 C   0  0  0  0  0  0  0  0  0  0  0  0
   60.4800   28.7540   49.4620 C   0  0  0  0  0  0  0  0  0  0  0  0
   60.3570   28.1800   48.1950 C   0  0  0  0  0  0  0  0  0  0  0  0
   59.9350   28.9510   47.1020 C   0  0  0  0  0  0  0  0  0  0  0  0
   59.7360   28.2800   45.7620 C   0  0  0  0  0  0  0  0  0  0  0  0
   58.8900   27.0930   45.8670 N   0  0  0  0  0  0  0  0  0  0  0  0
   59.2630   25.8290   45.5860 C   0  0  0  0  0  0  0  0  0  0  0  0
   58.1630   25.0110   45.7330 C   0  0  0  0  0  0  0  0  0  0  0  0
   58.1170   23.1240   45.4340 Br  0  0  0  0  0  0  0  0  0  0  0  0
   57.1400   25.8700   46.1060 C   0  0  0  0  0  0  0  0  0  0  0  0
   55.7760   25.5180   46.3600 N   0  0  0  0  0  0  0  0  0  0  0  0
   55.5090   24.4550   46.9560 O   0  0  0  0  0  0  0  0  0  0  0  0
   54.7470   26.3360   45.9540 O   0  0  0  0  0  0  0  0  0  0  0  0
   57.6030   27.1320   46.1780 N   0  0  0  0  0  0  0  0  0  0  0  0
   59.6130   30.3070   47.3070 C   0  0  0  0  0  0  0  0  0  0  0  0
   59.6290   33.6060   45.6660 N   0  0  0  0  0  0  0  0  0  0  0  0
   58.8250   33.9630   44.5040 C   0  0  0  0  0  0  0  0  0  0  0  0
   58.0430   32.7560   44.0510 C   0  0  0  0  0  0  0  0  0  0  0  0
   58.0140   32.4290   42.6840 C   0  0  0  0  0  0  0  0  0  0  0  0
   57.3380   31.2880   42.2430 C   0  0  0  0  0  0  0  0  0  0  0  0
   56.7030   30.4520   43.1620 C   0  0  0  0  0  0  0  0  0  0  0  0
   56.7440   30.7530   44.5250 C   0  0  0  0  0  0  0  0  0  0  0  0
   57.4110   31.9000   44.9770 C   0  0  0  0  0  0  0  0  0  0  0  0
   57.4490   32.1900   46.3410 O   0  0  0  0  0  0  0  0  0  0  0  0
   61.6481   33.9017   47.2770 H   0  0  0  0  0  0  0  0  0  0  0  0
   60.9658   35.2372   48.2609 H   0  0  0  0  0  0  0  0  0  0  0  0
   60.2759   30.5498   50.6548 H   0  0  0  0  0  0  0  0  0  0  0  0
   60.8165   28.1413   50.3113 H   0  0  0  0  0  0  0  0  0  0  0  0
   60.5929   27.1150   48.0531 H   0  0  0  0  0  0  0  0  0  0  0  0
   59.2619   28.9948   45.0733 H   0  0  0  0  0  0  0  0  0  0  0  0
   60.7216   27.9642   45.3893 H   0  0  0  0  0  0  0  0  0  0  0  0
   60.2718   25.5054   45.2901 H   0  0  0  0  0  0  0  0  0  0  0  0
   59.2523   30.9133   46.4630 H   0  0  0  0  0  0  0  0  0  0  0  0
   58.1297   34.7721   44.7724 H   0  0  0  0  0  0  0  0  0  0  0  0
   59.4827   34.3033   43.6906 H   0  0  0  0  0  0  0  0  0  0  0  0
   58.5268   33.0755   41.9566 H   0  0  0  0  0  0  0  0  0  0  0  0
   57.3065   31.0487   41.1698 H   0  0  0  0  0  0  0  0  0  0  0  0
   56.1699   29.5555   42.8127 H   0  0  0  0  0  0  0  0  0  0  0  0
   56.2503   30.0866   45.2476 H   0  0  0  0  0  0  0  0  0  0  0  0
   58.0180   32.9430   46.7080 H   0  0  0  0  0  0  0  0  0  0  0  0
  1  2  2  0
  2  3  1  0
  3  4  1  0
  4  5  1  0
  5  6  2  0
  5  7  1  0
  7  8  2  0
  8  9  1  0
  9 10  2  0
 10 11  1  0
 11 12  1  0
 12 13  1  0
 13 14  1  0
 14 15  2  0
 15 16  1  0
 15 17  1  0
 17 18  1  0
 18 19  2  0
 18 20  1  0
 17 21  2  0
 11 22  2  0
  2 23  1  0
 23 24  1  0
 24 25  1  0
 25 26  2  0
 26 27  1  0
 27 28  2  0
 28 29  1  0
 29 30  2  0
 30 31  1  0
 22  7  1  0
 30 25  1  0
 21 13  1  0
  3 32  1  0
  3 33  1  0
  8 34  1  0
  9 35  1  0
 10 36  1  0
 12 37  1  0
 12 38  1  0
 14 39  1  0
 22 40  1  0
 24 41  1  0
 24 42  1  0
 26 43  1  0
 27 44  1  0
 28 45  1  0
 29 46  1  0
 31 47  1  0
M  CHG  4   4  -1  18   1  20  -1  23  -1
M  END
>  <UniqueID>  (24) 
24

>  <SMILES>  (24) 
O=C(C[N-]C(=O)c1cccc(Cn2cc(Br)c([N+](=O)[O-])n2)c1)[N-]Cc1ccccc1O

>  <Energy>  (24) 
72.33270565299658

>  <Genealogy>  (24) 
O=C(C[N-]C(=O)c1cccc(Cn2cc(Br)c([N+](=O)[O-])n2)c1)[N-]Cc1ccccc1O (protonated)
O=C(C[N-]C(=O)c1cccc(Cn2cc(Br)c([N+](=O)[O-])n2)c1)[N-]Cc1ccccc1O (3D coordinates assigned)
O=C(C[N-]C(=O)c1cccc(Cn2cc(Br)c([N+](=O)[O-])n2)c1)[N-]Cc1ccccc1O (optimized conformer: 72.33270565299658 kcal/mol)

>  <smiles>  (24) 
O=C(CNC(=O)c1cccc(Cn2cc(Br)c([N+](=O)[O-])n2)c1)NCc1ccccc1O

>  <score_type>  (24) 
oracle

>  <origin>  (24) 
adg

>  <m_score__min__energy>  (24) 
-12.85

>  <m_primary>  (24) 
energy

$$$$
24:0
     RDKit          3D

 47 49  0  0  0  0  0  0  0  0999 V2000
   57.0650   24.4710   43.4590 C   0  0  0  0  0  0  0  0  0  0  0  0
   56.1700   23.7810   44.4430 C   0  0  0  0  0  0  0  0  0  0  0  0
   55.3750   22.9400   44.0560 O   0  0  0  0  0  0  0  0  0  0  0  0
   56.2840   24.1590   46.1920 S   0  0  0  0  0  0  0  0  0  0  0  0
   56.2580   25.9340   45.9110 C   0  0  0  0  0  0  0  0  0  0  0  0
   55.1730   26.5530   46.0560 O   0  0  0  0  0  0  0  0  0  0  0  0
   57.4150   26.6520   45.4650 N   0  0  0  0  0  0  0  0  0  0  0  0
   57.8980   27.8970   45.9860 C   0  0  0  0  0  0  0  0  0  0  0  0
   58.8790   28.0020   46.9870 C   0  0  0  0  0  0  0  0  0  0  0  0
   59.1810   29.3180   47.3360 C   0  0  0  0  0  0  0  0  0  0  0  0
   60.2080   29.7590   48.3130 C   0  0  0  0  0  0  0  0  0  0  0  0
   60.2650   29.1950   49.6000 C   0  0  0  0  0  0  0  0  0  0  0  0
   61.2490   29.5960   50.5060 C   0  0  0  0  0  0  0  0  0  0  0  0
   62.1900   30.5580   50.1410 C   0  0  0  0  0  0  0  0  0  0  0  0
   62.1570   31.1300   48.8580 C   0  0  0  0  0  0  0  0  0  0  0  0
   63.1120   32.1130   48.4370 N   0  0  0  0  0  0  0  0  0  0  0  0
   62.7270   33.7440   47.9820 S   0  0  0  0  0  0  0  0  0  0  0  0
   63.7050   34.1860   46.9290 O   0  0  0  0  0  0  0  0  0  0  0  0
   62.8730   34.6300   49.1870 O   0  0  0  0  0  0  0  0  0  0  0  0
   61.0590   33.8460   47.3900 C   0  0  0  0  0  0  0  0  0  0  0  0
   60.8410   33.9250   46.0040 C   0  0  0  0  0  0  0  0  0  0  0  0
   59.5480   34.0250   45.4910 C   0  0  0  0  0  0  0  0  0  0  0  0
   58.4530   34.0440   46.3520 C   0  0  0  0  0  0  0  0  0  0  0  0
   58.6480   33.9500   47.7320 C   0  0  0  0  0  0  0  0  0  0  0  0
   59.9440   33.8320   48.2670 C   0  0  0  0  0  0  0  0  0  0  0  0
   60.1040   33.7340   49.7610 C   0  0  0  0  0  0  0  0  0  0  0  0
   61.1650   30.7260   47.9530 C   0  0  0  0  0  0  0  0  0  0  0  0
   58.1910   30.3370   46.4270 S   0  0  0  0  0  0  0  0  0  0  0  0
   57.3870   29.1290   45.5770 C   0  0  0  0  0  0  0  0  0  0  0  0
   56.3430   29.3700   44.5670 C   0  0  0  0  0  0  0  0  0  0  0  0
   55.1240   29.3370   44.8800 O   0  0  0  0  0  0  0  0  0  0  0  0
   56.7010   29.6360   43.2520 O   0  0  0  0  0  0  0  0  0  0  0  0
   57.8234   25.0557   44.0004 H   0  0  0  0  0  0  0  0  0  0  0  0
   57.5627   23.7206   42.8271 H   0  0  0  0  0  0  0  0  0  0  0  0
   56.4659   25.1432   42.8271 H   0  0  0  0  0  0  0  0  0  0  0  0
   59.3624   27.1295   47.4508 H   0  0  0  0  0  0  0  0  0  0  0  0
   59.5291   28.4325   49.8951 H   0  0  0  0  0  0  0  0  0  0  0  0
   61.2819   29.1512   51.5115 H   0  0  0  0  0  0  0  0  0  0  0  0
   62.9613   30.8704   50.8604 H   0  0  0  0  0  0  0  0  0  0  0  0
   61.6994   33.9078   45.3163 H   0  0  0  0  0  0  0  0  0  0  0  0
   59.3924   34.0890   44.4039 H   0  0  0  0  0  0  0  0  0  0  0  0
   57.4349   34.1330   45.9452 H   0  0  0  0  0  0  0  0  0  0  0  0
   57.7798   33.9684   48.4071 H   0  0  0  0  0  0  0  0  0  0  0  0
   59.2655   34.2476   50.2540 H   0  0  0  0  0  0  0  0  0  0  0  0
   60.1126   32.6755   50.0602 H   0  0  0  0  0  0  0  0  0  0  0  0
   61.0508   34.2073   50.0602 H   0  0  0  0  0  0  0  0  0  0  0  0
   61.1344   31.1712   46.9476 H   0  0  0  0  0  0  0  0  0  0  0  0
  1  2  1  0
  2  3  2  0
  2  4  1  0
  4  5  1  0
  5  6  2  0
  5  7  1  0
  7  8  1  0
  8  9  1  0
  9 10  2  0
 10 11  1  0
 11 12  2  0
 12 13  1  0
 13 14  2  0
 14 15  1  0
 15 16  1  0
 16 17  1  0
 17 18  2  0
 17 19  2  0
 17 20  1  0
 20 21  2  0
 21 22  1  0
 22 23  2  0
 23 24  1  0
 24 25  2  0
 25 26  1  0
 15 27  2  0
 10 28  1  0
 28 29  1  0
 29 30  1  0
 30 31  2  0
 30 32  1  0
 29  8  2  0
 27 11  1  0
 25 20  1  0
  1 33  1  0
  1 34  1  0
  1 35  1  0
  9 36  1  0
 12 37  1  0
 13 38  1  0
 14 39  1  0
 21 40  1  0
 22 41  1  0
 23 42  1  0
 24 43  1  0
 26 44  1  0
 26 45  1  0
 26 46  1  0
 27 47  1  0
M  CHG  3   7  -1  16  -1  32  -1
M  END
>  <UniqueID>  (25) 
25

>  <SMILES>  (25) 
CC(=O)SC(=O)[N-]c1cc(-c2cccc([N-]S(=O)(=O)c3ccccc3C)c2)sc1C(=O)[O-]

>  <Energy>  (25) 
79.00791982091819

>  <Genealogy>  (25) 
CC(=O)SC(=O)[N-]c1cc(-c2cccc([N-]S(=O)(=O)c3ccccc3C)c2)sc1C(=O)[O-] (protonated)
CC(=O)SC(=O)[N-]c1cc(-c2cccc([N-]S(=O)(=O)c3ccccc3C)c2)sc1C(=O)[O-] (3D coordinates assigned)
CC(=O)SC(=O)[N-]c1cc(-c2cccc([N-]S(=O)(=O)c3ccccc3C)c2)sc1C(=O)[O-] (optimized conformer: 79.00791982091819 kcal/mol)

>  <smiles>  (25) 
CC(=O)SC(=O)Nc1cc(-c2cccc(NS(=O)(=O)c3ccccc3C)c2)sc1C(=O)O

>  <score_type>  (25) 
oracle

>  <origin>  (25) 
adg

>  <m_score__min__energy>  (25) 
-15.029999999999999

>  <m_primary>  (25) 
energy

$$$$
25:0
     RDKit          3D

 50 52  0  0  0  0  0  0  0  0999 V2000
   63.7324   33.1579   46.2068 H   0  0  0  0  0  0  0  0  0  0  0  0
   63.0380   33.4820   46.9960 C   0  0  0  0  0  0  0  0  0  0  0  0
   61.7450   33.8930   46.6570 C   0  0  0  0  0  0  0  0  0  0  0  0
   61.4297   33.8936   45.6032 H   0  0  0  0  0  0  0  0  0  0  0  0
   60.8470   34.3050   47.6550 C   0  0  0  0  0  0  0  0  0  0  0  0
   59.4470   34.7340   47.2960 C   0  0  0  0  0  0  0  0  0  0  0  0
   58.8098   34.6703   48.1904 H   0  0  0  0  0  0  0  0  0  0  0  0
   59.4799   35.7680   46.9223 H   0  0  0  0  0  0  0  0  0  0  0  0
   58.8890   33.8690   46.2430 N   0  0  0  0  0  0  0  0  0  0  0  0
   58.3810   32.6050   46.4360 C   0  0  0  0  0  0  0  0  0  0  0  0
   58.2870   31.9420   47.7870 C   0  0  0  0  0  0  0  0  0  0  0  0
   58.3946   32.7008   48.5761 H   0  0  0  0  0  0  0  0  0  0  0  0
   57.3097   31.4469   47.8852 H   0  0  0  0  0  0  0  0  0  0  0  0
   59.0882   31.1947   47.8852 H   0  0  0  0  0  0  0  0  0  0  0  0
   57.9620   31.9710   45.2520 C   0  0  0  0  0  0  0  0  0  0  0  0
   57.3960   30.6180   45.0960 C   0  0  0  0  0  0  0  0  0  0  0  0
   56.2720   30.4780   44.5420 O   0  0  0  0  0  0  0  0  0  0  0  0
   58.0990   29.4960   45.5500 O   0  0  0  0  0  0  0  0  0  0  0  0
   58.9730   28.7310   44.7230 C   0  0  0  0  0  0  0  0  0  0  0  0
   58.8202   27.6608   44.9264 H   0  0  0  0  0  0  0  0  0  0  0  0
   58.7500   28.9507   43.6685 H   0  0  0  0  0  0  0  0  0  0  0  0
   60.3980   29.0870   45.0020 C   0  0  0  0  0  0  0  0  0  0  0  0
   61.3120   28.6030   44.2800 O   0  0  0  0  0  0  0  0  0  0  0  0
   60.6930   30.0760   46.0010 N   0  0  0  0  0  0  0  0  0  0  0  0
   60.6250   29.9510   47.2970 C   0  0  0  0  0  0  0  0  0  0  0  0
   61.5270   30.6790   48.0830 C   0  0  0  0  0  0  0  0  0  0  0  0
   62.2737   31.3303   47.6053 H   0  0  0  0  0  0  0  0  0  0  0  0
   61.4760   30.5760   49.4740 C   0  0  0  0  0  0  0  0  0  0  0  0
   62.1895   31.1370   50.0954 H   0  0  0  0  0  0  0  0  0  0  0  0
   60.5180   29.7600   50.0730 C   0  0  0  0  0  0  0  0  0  0  0  0
   60.4360   29.6240   51.8210 Cl  0  0  0  0  0  0  0  0  0  0  0  0
   59.6160   29.0630   49.2680 C   0  0  0  0  0  0  0  0  0  0  0  0
   58.8512   28.4226   49.7317 H   0  0  0  0  0  0  0  0  0  0  0  0
   59.6770   29.1710   47.9110 N   0  0  0  0  0  0  0  0  0  0  0  0
   58.9480   28.6660   47.3650 H   0  0  0  0  0  0  0  0  0  0  0  0
   58.2170   33.0240   43.9620 S   0  0  0  0  0  0  0  0  0  0  0  0
   58.8570   34.2250   44.9340 C   0  0  0  0  0  0  0  0  0  0  0  0
   59.2700   35.3330   44.4960 O   0  0  0  0  0  0  0  0  0  0  0  0
   61.2540   34.2710   48.9980 C   0  0  0  0  0  0  0  0  0  0  0  0
   60.5500   34.5677   49.7895 H   0  0  0  0  0  0  0  0  0  0  0  0
   62.5470   33.8630   49.3370 C   0  0  0  0  0  0  0  0  0  0  0  0
   62.8560   33.8411   50.3925 H   0  0  0  0  0  0  0  0  0  0  0  0
   63.4550   33.4800   48.3320 C   0  0  0  0  0  0  0  0  0  0  0  0
   64.7580   33.0490   48.6240 O   0  0  0  0  0  0  0  0  0  0  0  0
   65.1390   32.3440   49.7730 C   0  0  0  0  0  0  0  0  0  0  0  0
   64.3570   31.5180   50.3190 O   0  0  0  0  0  0  0  0  0  0  0  0
   66.4410   32.6620   50.4260 C   0  0  0  0  0  0  0  0  0  0  0  0
   66.3199   32.6324   51.5189 H   0  0  0  0  0  0  0  0  0  0  0  0
   67.1949   31.9216   50.1204 H   0  0  0  0  0  0  0  0  0  0  0  0
   66.7688   33.6666   50.1204 H   0  0  0  0  0  0  0  0  0  0  0  0
  1  2  1  0
  2  3  2  0
  3  4  1  0
  3  5  1  0
  5  6  1  0
  6  7  1  0
  6  8  1  0
  6  9  1  0
  9 10  1  0
 10 11  1  0
 11 12  1  0
 11 13  1  0
 11 14  1  0
 10 15  2  0
 15 16  1  0
 16 17  2  0
 16 18  1  0
 18 19  1  0
 19 20  1  0
 19 21  1  0
 19 22  1  0
 22 23  2  0
 22 24  1  0
 24 25  2  0
 25 26  1  0
 26 27  1  0
 26 28  2  0
 28 29  1  0
 28 30  1  0
 30 31  1  0
 30 32  2  0
 32 33  1  0
 32 34  1  0
 34 35  1  0
 15 36  1  0
 36 37  1  0
 37 38  2  0
  5 39  2  0
 39 40  1  0
 39 41  1  0
 41 42  1  0
 41 43  2  0
 43 44  1  0
 44 45  1  0
 45 46  2  0
 45 47  1  0
 47 48  1  0
 47 49  1  0
 47 50  1  0
 43  2  1  0
 37  9  1  0
 34 25  1  0
M  END
>  <UniqueID>  (26) 
26

>  <SMILES>  (26) 
CC(=O)Oc1ccc(Cn2c(C)c(C(=O)OCC(=O)/N=c3/ccc(Cl)c[nH]3)sc2=O)cc1

>  <Energy>  (26) 
90.923296046291

>  <Genealogy>  (26) 
CC(=O)Oc1ccc(Cn2c(C)c(C(=O)OCC(=O)/N=c3/ccc(Cl)c[nH]3)sc2=O)cc1 (cis-trans isomerization)
CC(=O)Oc1ccc(Cn2c(C)c(C(=O)OCC(=O)/N=c3/ccc(Cl)c[nH]3)sc2=O)cc1 (3D coordinates assigned)
CC(=O)Oc1ccc(Cn2c(C)c(C(=O)OCC(=O)/N=c3/ccc(Cl)c[nH]3)sc2=O)cc1 (optimized conformer: 90.923296046291 kcal/mol)

>  <smiles>  (26) 
CC(=O)Oc1ccc(Cn2c(C)c(C(=O)OCC(=O)N=c3ccc(Cl)c[nH]3)sc2=O)cc1

>  <score_type>  (26) 
oracle

>  <origin>  (26) 
adg

>  <m_score__min__energy>  (26) 
-8.9900000000000002

>  <m_primary>  (26) 
energy

$$$$
26:0
     RDKit          3D

 54 57  0  0  0  0  0  0  0  0999 V2000
   56.3960   28.6620   44.3400 H   0  0  0  0  0  0  0  0  0  0  0  0
   56.0920   28.3860   45.2650 O   0  0  0  0  0  0  0  0  0  0  0  0
   56.2220   27.0680   45.6890 C   0  0  0  0  0  0  0  0  0  0  0  0
   55.1840   26.2730   46.0010 N   0  0  0  0  0  0  0  0  0  0  0  0
   55.7910   25.1350   46.3970 C   0  0  0  0  0  0  0  0  0  0  0  0
   55.1490   24.1240   46.7850 O   0  0  0  0  0  0  0  0  0  0  0  0
   57.1410   25.1670   46.3570 N   0  0  0  0  0  0  0  0  0  0  0  0
   57.4080   26.3930   45.8760 C   0  0  0  0  0  0  0  0  0  0  0  0
   58.7650   26.9460   45.7680 C   0  0  0  0  0  0  0  0  0  0  0  0
   59.4430   26.4708   45.0438 H   0  0  0  0  0  0  0  0  0  0  0  0
   59.2540   27.9840   46.4770 C   0  0  0  0  0  0  0  0  0  0  0  0
   59.0620   28.1120   47.8430 C   0  0  0  0  0  0  0  0  0  0  0  0
   58.5504   27.3958   48.5028 H   0  0  0  0  0  0  0  0  0  0  0  0
   59.6350   29.3090   48.2170 C   0  0  0  0  0  0  0  0  0  0  0  0
   59.6440   29.8520   49.6130 C   0  0  0  0  0  0  0  0  0  0  0  0
   59.6302   29.0185   50.3307 H   0  0  0  0  0  0  0  0  0  0  0  0
   60.5522   30.4532   49.7667 H   0  0  0  0  0  0  0  0  0  0  0  0
   58.7562   30.4830   49.7667 H   0  0  0  0  0  0  0  0  0  0  0  0
   60.1880   29.9210   47.1480 N   0  0  0  0  0  0  0  0  0  0  0  0
   60.9380   31.1470   47.1920 C   0  0  0  0  0  0  0  0  0  0  0  0
   62.3010   31.1260   47.5140 C   0  0  0  0  0  0  0  0  0  0  0  0
   62.7907   30.1747   47.7695 H   0  0  0  0  0  0  0  0  0  0  0  0
   63.0390   32.3120   47.5110 C   0  0  0  0  0  0  0  0  0  0  0  0
   64.1059   32.2956   47.7783 H   0  0  0  0  0  0  0  0  0  0  0  0
   62.4240   33.5190   47.1690 C   0  0  0  0  0  0  0  0  0  0  0  0
   63.0117   34.4488   47.1675 H   0  0  0  0  0  0  0  0  0  0  0  0
   61.0660   33.5560   46.8280 C   0  0  0  0  0  0  0  0  0  0  0  0
   60.5130   34.7930   46.4550 O   0  0  0  0  0  0  0  0  0  0  0  0
   59.2260   34.9930   45.8650 C   0  0  0  0  0  0  0  0  0  0  0  0
   58.4606   34.5651   46.5291 H   0  0  0  0  0  0  0  0  0  0  0  0
   59.0779   36.0748   45.7319 H   0  0  0  0  0  0  0  0  0  0  0  0
   59.1150   34.3270   44.4880 C   0  0  0  0  0  0  0  0  0  0  0  0
   59.0906   35.1069   43.7127 H   0  0  0  0  0  0  0  0  0  0  0  0
   59.9851   33.6688   44.3473 H   0  0  0  0  0  0  0  0  0  0  0  0
   57.8850   33.5080   44.3890 N   0  0  0  0  0  0  0  0  0  0  0  0
   58.0150   32.4430   43.3720 C   0  0  0  0  0  0  0  0  0  0  0  0
   57.8854   32.8810   42.3713 H   0  0  0  0  0  0  0  0  0  0  0  0
   59.0120   31.9869   43.4615 H   0  0  0  0  0  0  0  0  0  0  0  0
   56.9510   31.3550   43.5890 C   0  0  0  0  0  0  0  0  0  0  0  0
   55.9578   31.8213   43.5115 H   0  0  0  0  0  0  0  0  0  0  0  0
   57.1176   30.5869   42.8194 H   0  0  0  0  0  0  0  0  0  0  0  0
   57.0430   30.7030   44.8510 O   0  0  0  0  0  0  0  0  0  0  0  0
   57.6810   31.4850   45.8540 C   0  0  0  0  0  0  0  0  0  0  0  0
   57.3084   31.1632   46.8377 H   0  0  0  0  0  0  0  0  0  0  0  0
   58.7648   31.3277   45.7506 H   0  0  0  0  0  0  0  0  0  0  0  0
   57.4220   32.9940   45.7030 C   0  0  0  0  0  0  0  0  0  0  0  0
   56.3420   33.1803   45.7969 H   0  0  0  0  0  0  0  0  0  0  0  0
   57.9852   33.5164   46.4903 H   0  0  0  0  0  0  0  0  0  0  0  0
   60.3210   32.3600   46.8580 C   0  0  0  0  0  0  0  0  0  0  0  0
   59.2478   32.3789   46.6176 H   0  0  0  0  0  0  0  0  0  0  0  0
   59.9970   29.1080   46.0770 C   0  0  0  0  0  0  0  0  0  0  0  0
   60.5410   29.3400   44.8710 C   0  0  0  0  0  0  0  0  0  0  0  0
   61.1026   30.2684   44.6904 H   0  0  0  0  0  0  0  0  0  0  0  0
   60.4249   28.6016   44.0640 H   0  0  0  0  0  0  0  0  0  0  0  0
  1  2  1  0
  2  3  1  0
  3  4  1  0
  4  5  1  0
  5  6  2  0
  5  7  1  0
  7  8  1  0
  8  9  1  0
  9 10  1  0
  9 11  2  0
 11 12  1  0
 12 13  1  0
 12 14  2  0
 14 15  1  0
 15 16  1  0
 15 17  1  0
 15 18  1  0
 14 19  1  0
 19 20  1  0
 20 21  2  0
 21 22  1  0
 21 23  1  0
 23 24  1  0
 23 25  2  0
 25 26  1  0
 25 27  1  0
 27 28  1  0
 28 29  1  0
 29 30  1  0
 29 31  1  0
 29 32  1  0
 32 33  1  0
 32 34  1  0
 32 35  1  0
 35 36  1  0
 36 37  1  0
 36 38  1  0
 36 39  1  0
 39 40  1  0
 39 41  1  0
 39 42  1  0
 42 43  1  0
 43 44  1  0
 43 45  1  0
 43 46  1  0
 46 47  1  0
 46 48  1  0
 27 49  2  0
 49 50  1  0
 19 51  1  0
 51 52  2  0
 52 53  1  0
 52 54  1  0
  8  3  2  0
 51 11  1  0
 49 20  1  0
 46 35  1  0
M  CHG  2   4  -1   7  -1
M  END
>  <UniqueID>  (27) 
27

>  <SMILES>  (27) 
C=c1/c(=C\c2[n-]c(=O)[n-]c2O)cc(C)n1-c1cccc(OCCN2CCOCC2)c1

>  <Energy>  (27) 
145.37667488861197

>  <Genealogy>  (27) 
C=c1c(=Cc2[n-]c(=O)[n-]c2O)cc(C)n1-c1cccc(OCCN2CCOCC2)c1 (protonated)
C=c1/c(=C\c2[n-]c(=O)[n-]c2O)cc(C)n1-c1cccc(OCCN2CCOCC2)c1 (cis-trans isomerization)
C=c1/c(=C\c2[n-]c(=O)[n-]c2O)cc(C)n1-c1cccc(OCCN2CCOCC2)c1 (3D coordinates assigned)
C=c1/c(=C\c2[n-]c(=O)[n-]c2O)cc(C)n1-c1cccc(OCCN2CCOCC2)c1 (nonaromatic ring conformer: 145.37667488861197 kcal/mol)

>  <smiles>  (27) 
C=c1c(=Cc2[nH]c(=O)[nH]c2O)cc(C)n1-c1cccc(OCCN2CCOCC2)c1

>  <score_type>  (27) 
oracle

>  <origin>  (27) 
adg

>  <m_score__min__energy>  (27) 
-13.56

>  <m_primary>  (27) 
energy

$$$$
27:0
     RDKit          3D

 50 53  0  0  0  0  0  0  0  0999 V2000
   59.4180   30.5800   46.4660 C   0  0  0  0  0  0  0  0  0  0  0  0
   59.4520   29.4990   47.2630 C   0  0  0  0  0  0  0  0  0  0  0  0
   58.9960   28.2080   46.9500 C   0  0  0  0  0  0  0  0  0  0  0  0
   58.2580   27.7560   45.9170 C   0  0  0  0  0  0  0  0  0  0  0  0
   57.1920   26.7400   46.0040 C   0  0  0  0  0  0  0  0  0  0  0  0
   55.8760   27.0630   45.6420 C   0  0  0  0  0  0  0  0  0  0  0  0
   55.5490   28.3550   45.2430 O   0  0  0  0  0  0  0  0  0  0  0  0
   54.9070   26.1130   45.6880 N   0  0  0  0  0  0  0  0  0  0  0  0
   55.1890   24.8400   46.0650 C   0  0  0  0  0  0  0  0  0  0  0  0
   54.2730   23.9780   46.1040 O   0  0  0  0  0  0  0  0  0  0  0  0
   56.4600   24.4940   46.3930 N   0  0  0  0  0  0  0  0  0  0  0  0
   57.4660   25.4060   46.3620 C   0  0  0  0  0  0  0  0  0  0  0  0
   58.6390   25.0450   46.6490 O   0  0  0  0  0  0  0  0  0  0  0  0
   59.4600   27.3800   47.9560 C   0  0  0  0  0  0  0  0  0  0  0  0
   60.1100   28.1820   48.8700 C   0  0  0  0  0  0  0  0  0  0  0  0
   60.8580   27.6590   50.0600 C   0  0  0  0  0  0  0  0  0  0  0  0
   60.0790   29.4770   48.4710 N   0  0  0  0  0  0  0  0  0  0  0  0
   60.7320   30.6010   49.1600 C   0  0  0  0  0  0  0  0  0  0  0  0
   59.7480   31.4700   49.9050 C   0  0  0  0  0  0  0  0  0  0  0  0
   58.8310   31.0420   50.8490 C   0  0  0  0  0  0  0  0  0  0  0  0
   58.6910   29.6570   51.3920 C   0  0  0  0  0  0  0  0  0  0  0  0
   58.0530   32.0730   51.2270 N   0  0  0  0  0  0  0  0  0  0  0  0
   58.4420   33.1120   50.5460 O   0  0  0  0  0  0  0  0  0  0  0  0
   59.4370   32.8150   49.7400 C   0  0  0  0  0  0  0  0  0  0  0  0
   60.0690   33.8230   48.8220 C   0  0  0  0  0  0  0  0  0  0  0  0
   59.3310   34.0010   47.5180 C   0  0  0  0  0  0  0  0  0  0  0  0
   59.9280   34.6390   46.4130 C   0  0  0  0  0  0  0  0  0  0  0  0
   59.2390   34.7380   45.1990 C   0  0  0  0  0  0  0  0  0  0  0  0
   57.9660   34.1800   45.0680 C   0  0  0  0  0  0  0  0  0  0  0  0
   57.3800   33.5140   46.1460 C   0  0  0  0  0  0  0  0  0  0  0  0
   58.0630   33.4160   47.3630 C   0  0  0  0  0  0  0  0  0  0  0  0
   59.8084   31.5426   46.8278 H   0  0  0  0  0  0  0  0  0  0  0  0
   58.9997   30.5025   45.4516 H   0  0  0  0  0  0  0  0  0  0  0  0
   58.4684   28.1808   44.9244 H   0  0  0  0  0  0  0  0  0  0  0  0
   59.3343   26.2888   48.0156 H   0  0  0  0  0  0  0  0  0  0  0  0
   60.3665   28.0027   50.9821 H   0  0  0  0  0  0  0  0  0  0  0  0
   60.8634   26.5593   50.0354 H   0  0  0  0  0  0  0  0  0  0  0  0
   61.8927   28.0314   50.0354 H   0  0  0  0  0  0  0  0  0  0  0  0
   61.4622   30.1990   49.8778 H   0  0  0  0  0  0  0  0  0  0  0  0
   61.2188   31.2251   48.3961 H   0  0  0  0  0  0  0  0  0  0  0  0
   58.6946   29.6921   52.4914 H   0  0  0  0  0  0  0  0  0  0  0  0
   57.7441   29.2200   51.0422 H   0  0  0  0  0  0  0  0  0  0  0  0
   59.5313   29.0393   51.0422 H   0  0  0  0  0  0  0  0  0  0  0  0
   60.0992   34.7933   49.3394 H   0  0  0  0  0  0  0  0  0  0  0  0
   61.0732   33.4482   48.5749 H   0  0  0  0  0  0  0  0  0  0  0  0
   60.9397   35.0610   46.5048 H   0  0  0  0  0  0  0  0  0  0  0  0
   59.7014   35.2566   44.3462 H   0  0  0  0  0  0  0  0  0  0  0  0
   57.4242   34.2652   44.1145 H   0  0  0  0  0  0  0  0  0  0  0  0
   56.3810   33.0662   46.0385 H   0  0  0  0  0  0  0  0  0  0  0  0
   57.6039   32.8769   48.2048 H   0  0  0  0  0  0  0  0  0  0  0  0
  1  2  2  0
  2  3  1  0
  3  4  2  3
  4  5  1  0
  5  6  2  0
  6  7  1  0
  6  8  1  0
  8  9  1  0
  9 10  2  0
  9 11  1  0
 11 12  1  0
 12 13  2  0
  3 14  1  0
 14 15  2  0
 15 16  1  0
 15 17  1  0
 17 18  1  0
 18 19  1  0
 19 20  1  0
 20 21  1  0
 20 22  2  0
 22 23  1  0
 23 24  1  0
 24 25  1  0
 25 26  1  0
 26 27  2  0
 27 28  1  0
 28 29  2  0
 29 30  1  0
 30 31  2  0
 17  2  1  0
 24 19  2  0
 31 26  1  0
 12  5  1  0
  1 32  1  0
  1 33  1  0
  4 34  1  0
 14 35  1  0
 16 36  1  0
 16 37  1  0
 16 38  1  0
 18 39  1  0
 18 40  1  0
 21 41  1  0
 21 42  1  0
 21 43  1  0
 25 44  1  0
 25 45  1  0
 27 46  1  0
 28 47  1  0
 29 48  1  0
 30 49  1  0
 31 50  1  0
M  CHG  3   7  -1   8  -1  11  -1
M  END
>  <UniqueID>  (28) 
28

>  <SMILES>  (28) 
C=c1c(=Cc2c([O-])[n-]c(=O)[n-]c2=O)cc(C)n1Cc1c(C)noc1Cc1ccccc1

>  <Energy>  (28) 
123.9380675088918

>  <Genealogy>  (28) 
C=c1c(=Cc2c([O-])[n-]c(=O)[n-]c2=O)cc(C)n1Cc1c(C)noc1Cc1ccccc1 (protonated)
C=c1c(=Cc2c([O-])[n-]c(=O)[n-]c2=O)cc(C)n1Cc1c(C)noc1Cc1ccccc1 (3D coordinates assigned)
C=c1c(=Cc2c([O-])[n-]c(=O)[n-]c2=O)cc(C)n1Cc1c(C)noc1Cc1ccccc1 (optimized conformer: 123.9380675088918 kcal/mol)

>  <smiles>  (28) 
C=c1c(=Cc2c(O)[nH]c(=O)[nH]c2=O)cc(C)n1Cc1c(C)noc1Cc1ccccc1

>  <score_type>  (28) 
oracle

>  <origin>  (28) 
adg

>  <m_score__min__energy>  (28) 
-17.210000000000001

>  <m_primary>  (28) 
energy

$$$$
28:0
     RDKit          3D

 26 27  0  0  0  0  0  0  0  0999 V2000
   58.9810   24.3310   45.8390 H   0  0  0  0  0  0  0  0  0  0  0  0
   58.3720   24.7190   46.5490 O   0  0  0  0  0  0  0  0  0  0  0  0
   57.4550   25.7160   46.2350 C   0  0  0  0  0  0  0  0  0  0  0  0
   56.0930   25.6590   46.4180 C   0  0  0  0  0  0  0  0  0  0  0  0
   55.5494   24.8035   46.8453 H   0  0  0  0  0  0  0  0  0  0  0  0
   55.5220   26.8050   45.9970 N   0  0  0  0  0  0  0  0  0  0  0  0
   56.5370   27.5830   45.5570 C   0  0  0  0  0  0  0  0  0  0  0  0
   56.3260   28.9340   45.0010 C   0  0  0  0  0  0  0  0  0  0  0  0
   55.1490   29.3690   44.8910 O   0  0  0  0  0  0  0  0  0  0  0  0
   57.4350   29.7790   44.5170 C   0  0  0  0  0  0  0  0  0  0  0  0
   58.4329   29.3194   44.4619 H   0  0  0  0  0  0  0  0  0  0  0  0
   57.3260   31.0640   44.1380 C   0  0  0  0  0  0  0  0  0  0  0  0
   56.7805   31.2711   43.2055 H   0  0  0  0  0  0  0  0  0  0  0  0
   57.8800   32.2230   44.8730 C   0  0  0  0  0  0  0  0  0  0  0  0
   57.9970   33.4560   44.2150 C   0  0  0  0  0  0  0  0  0  0  0  0
   57.6768   33.5486   43.1667 H   0  0  0  0  0  0  0  0  0  0  0  0
   58.5180   34.5680   44.8830 C   0  0  0  0  0  0  0  0  0  0  0  0
   58.6221   35.5273   44.3549 H   0  0  0  0  0  0  0  0  0  0  0  0
   58.9070   34.4620   46.2220 C   0  0  0  0  0  0  0  0  0  0  0  0
   59.3254   35.3351   46.7441 H   0  0  0  0  0  0  0  0  0  0  0  0
   58.7640   33.2460   46.8970 C   0  0  0  0  0  0  0  0  0  0  0  0
   59.2380   33.1170   48.5810 Cl  0  0  0  0  0  0  0  0  0  0  0  0
   58.2400   32.1330   46.2310 C   0  0  0  0  0  0  0  0  0  0  0  0
   58.1087   31.1835   46.7707 H   0  0  0  0  0  0  0  0  0  0  0  0
   57.7550   26.9340   45.6790 C   0  0  0  0  0  0  0  0  0  0  0  0
   58.7471   27.3129   45.3924 H   0  0  0  0  0  0  0  0  0  0  0  0
  1  2  1  0
  2  3  1  0
  3  4  2  0
  4  5  1  0
  4  6  1  0
  6  7  1  0
  7  8  1  0
  8  9  2  0
  8 10  1  0
 10 11  1  0
 10 12  2  0
 12 13  1  0
 12 14  1  0
 14 15  2  0
 15 16  1  0
 15 17  1  0
 17 18  1  0
 17 19  2  0
 19 20  1  0
 19 21  1  0
 21 22  1  0
 21 23  2  0
 23 24  1  0
  7 25  2  0
 25 26  1  0
 25  3  1  0
 23 14  1  0
M  CHG  1   6  -1
M  END
>  <UniqueID>  (29) 
29

>  <SMILES>  (29) 
O=C(/C=C\c1cccc(Cl)c1)c1cc(O)c[n-]1

>  <Energy>  (29) 
60.105298163570104

>  <Genealogy>  (29) 
O=C(C=Cc1cccc(Cl)c1)c1cc(O)c[n-]1 (protonated)
O=C(/C=C\c1cccc(Cl)c1)c1cc(O)c[n-]1 (cis-trans isomerization)
O=C(/C=C\c1cccc(Cl)c1)c1cc(O)c[n-]1 (3D coordinates assigned)
O=C(/C=C\c1cccc(Cl)c1)c1cc(O)c[n-]1 (optimized conformer: 60.105298163570104 kcal/mol)

>  <smiles>  (29) 
O=C(C=Cc1cccc(Cl)c1)c1cc(O)c[nH]1

>  <score_type>  (29) 
oracle

>  <origin>  (29) 
adg

>  <m_score__min__energy>  (29) 
-8.9199999999999999

>  <m_primary>  (29) 
energy

$$$$
29:0
     RDKit          3D

 48 51  0  0  0  0  0  0  0  0999 V2000
   56.4940   20.3480   43.3690 N   0  0  0  0  0  0  0  0  0  0  0  0
   56.7420   21.5890   43.6010 C   0  0  0  0  0  0  0  0  0  0  0  0
   55.8390   22.4890   43.1430 N   0  0  0  0  0  0  0  0  0  0  0  0
   56.0890   23.7760   43.3780 C   0  0  0  0  0  0  0  0  0  0  0  0
   57.2110   24.2170   44.0590 C   0  0  0  0  0  0  0  0  0  0  0  0
   57.4160   25.6440   44.2790 C   0  0  0  0  0  0  0  0  0  0  0  0
   57.1770   26.2010   45.5200 C   0  0  0  0  0  0  0  0  0  0  0  0
   56.7500   25.3810   46.5110 F   0  0  0  0  0  0  0  0  0  0  0  0
   57.3660   27.5500   45.7440 C   0  0  0  0  0  0  0  0  0  0  0  0
   57.8070   28.4080   44.7280 C   0  0  0  0  0  0  0  0  0  0  0  0
   57.9470   29.8180   45.0280 C   0  0  0  0  0  0  0  0  0  0  0  0
   57.0150   30.6660   44.4110 C   0  0  0  0  0  0  0  0  0  0  0  0
   57.0360   32.0250   44.5800 C   0  0  0  0  0  0  0  0  0  0  0  0
   58.0190   32.5470   45.3920 C   0  0  0  0  0  0  0  0  0  0  0  0
   58.9310   31.7180   45.9970 C   0  0  0  0  0  0  0  0  0  0  0  0
   58.9310   30.3370   45.8410 C   0  0  0  0  0  0  0  0  0  0  0  0
   60.1090   29.3770   46.6710 S   0  0  0  0  0  0  0  0  0  0  0  0
   61.2400   30.2520   47.2140 O   0  0  0  0  0  0  0  0  0  0  0  0
   60.7850   28.4850   45.6630 O   0  0  0  0  0  0  0  0  0  0  0  0
   59.5150   28.4920   48.0100 N   0  0  0  0  0  0  0  0  0  0  0  0
   60.5090   27.5860   48.4780 C   0  0  0  0  0  0  0  0  0  0  0  0
   60.7590   27.6380   49.9580 C   0  0  0  0  0  0  0  0  0  0  0  0
   60.7500   28.8770   50.5280 O   0  0  0  0  0  0  0  0  0  0  0  0
   60.1200   29.8790   49.8430 C   0  0  0  0  0  0  0  0  0  0  0  0
   58.9900   29.4030   48.9770 C   0  0  0  0  0  0  0  0  0  0  0  0
   58.0340   27.8260   43.5100 C   0  0  0  0  0  0  0  0  0  0  0  0
   57.8500   26.4710   43.2640 C   0  0  0  0  0  0  0  0  0  0  0  0
   58.0930   25.9520   42.0330 F   0  0  0  0  0  0  0  0  0  0  0  0
   58.0880   23.2490   44.4980 C   0  0  0  0  0  0  0  0  0  0  0  0
   57.8390   21.9450   44.2610 N   0  0  0  0  0  0  0  0  0  0  0  0
   57.0120   19.5440   43.7490 H   0  0  0  0  0  0  0  0  0  0  0  0
   55.3697   24.5243   43.0136 H   0  0  0  0  0  0  0  0  0  0  0  0
   57.1655   27.9612   46.7444 H   0  0  0  0  0  0  0  0  0  0  0  0
   56.2396   30.2235   43.7684 H   0  0  0  0  0  0  0  0  0  0  0  0
   56.2973   32.6740   44.0869 H   0  0  0  0  0  0  0  0  0  0  0  0
   58.0734   33.6333   45.5564 H   0  0  0  0  0  0  0  0  0  0  0  0
   59.7017   32.1703   46.6385 H   0  0  0  0  0  0  0  0  0  0  0  0
   60.1908   26.5651   48.2200 H   0  0  0  0  0  0  0  0  0  0  0  0
   61.4513   27.8813   47.9933 H   0  0  0  0  0  0  0  0  0  0  0  0
   59.9811   27.0364   50.4509 H   0  0  0  0  0  0  0  0  0  0  0  0
   61.7819   27.2581   50.0968 H   0  0  0  0  0  0  0  0  0  0  0  0
   59.7190   30.5986   50.5719 H   0  0  0  0  0  0  0  0  0  0  0  0
   60.8682   30.3298   49.1745 H   0  0  0  0  0  0  0  0  0  0  0  0
   58.2366   28.8940   49.5961 H   0  0  0  0  0  0  0  0  0  0  0  0
   58.5152   30.2573   48.4723 H   0  0  0  0  0  0  0  0  0  0  0  0
   58.3799   28.4640   42.6834 H   0  0  0  0  0  0  0  0  0  0  0  0
   58.9964   23.5416   45.0449 H   0  0  0  0  0  0  0  0  0  0  0  0
   58.5110   21.2250   44.5990 H   0  0  0  0  0  0  0  0  0  0  0  0
  1  2  2  3
  2  3  1  0
  3  4  2  0
  4  5  1  0
  5  6  1  0
  6  7  2  0
  7  8  1  0
  7  9  1  0
  9 10  2  0
 10 11  1  0
 11 12  2  0
 12 13  1  0
 13 14  2  0
 14 15  1  0
 15 16  2  0
 16 17  1  0
 17 18  2  0
 17 19  2  0
 17 20  1  0
 20 21  1  0
 21 22  1  0
 22 23  1  0
 23 24  1  0
 24 25  1  0
 10 26  1  0
 26 27  2  0
 27 28  1  0
  5 29  2  0
 29 30  1  0
 30  2  1  0
 27  6  1  0
 16 11  1  0
 25 20  1  0
  1 31  1  0
  4 32  1  0
  9 33  1  0
 12 34  1  0
 13 35  1  0
 14 36  1  0
 15 37  1  0
 21 38  1  0
 21 39  1  0
 22 40  1  0
 22 41  1  0
 24 42  1  0
 24 43  1  0
 25 44  1  0
 25 45  1  0
 26 46  1  0
 29 47  1  0
 30 48  1  0
M  END
>  <smiles>  (30) 
N=c1ncc(-c2c(F)cc(-c3ccccc3S(=O)(=O)N3CCOCC3)cc2F)c[nH]1

>  <score_type>  (30) 
oracle

>  <origin>  (30) 
adg

>  <m_score__min__energy>  (30) 
-9.6500000000000004

>  <m_primary>  (30) 
energy

$$$$
30:0
     RDKit          3D

 66 69  0  0  0  0  0  0  0  0999 V2000
   54.7760   26.3280   45.9910 N   0  0  0  0  0  0  0  0  0  0  0  0
   55.6120   24.8270   45.8120 S   0  0  0  0  0  0  0  0  0  0  0  0
   55.2600   24.2300   44.4810 O   0  0  0  0  0  0  0  0  0  0  0  0
   55.1800   23.8750   46.8900 O   0  0  0  0  0  0  0  0  0  0  0  0
   57.3560   25.1080   45.9230 C   0  0  0  0  0  0  0  0  0  0  0  0
   58.2380   24.0170   45.8480 C   0  0  0  0  0  0  0  0  0  0  0  0
   59.6180   24.2210   45.9110 C   0  0  0  0  0  0  0  0  0  0  0  0
   60.1290   25.5120   46.0390 C   0  0  0  0  0  0  0  0  0  0  0  0
   59.2650   26.6070   46.1050 C   0  0  0  0  0  0  0  0  0  0  0  0
   57.8680   26.4170   46.0590 C   0  0  0  0  0  0  0  0  0  0  0  0
   56.9440   27.5210   46.0980 N   0  0  0  0  0  0  0  0  0  0  0  0
   57.1960   28.9230   45.9370 C   0  0  0  0  0  0  0  0  0  0  0  0
   56.3350   29.6900   45.4320 O   0  0  0  0  0  0  0  0  0  0  0  0
   58.5360   29.4680   46.3150 C   0  0  0  0  0  0  0  0  0  0  0  0
   58.5170   29.9800   47.6850 N   0  0  0  0  0  0  0  0  0  0  0  0
   59.0730   29.2300   48.7710 C   0  0  0  0  0  0  0  0  0  0  0  0
   59.7930   28.2180   48.5440 O   0  0  0  0  0  0  0  0  0  0  0  0
   58.7320   29.5840   50.1860 C   0  0  0  0  0  0  0  0  0  0  0  0
   59.0370   31.0360   50.4300 C   0  0  0  0  0  0  0  0  0  0  0  0
   58.1260   31.8410   51.1340 C   0  0  0  0  0  0  0  0  0  0  0  0
   58.4480   33.1650   51.4430 C   0  0  0  0  0  0  0  0  0  0  0  0
   59.6780   33.6980   51.0460 C   0  0  0  0  0  0  0  0  0  0  0  0
   60.5800   32.9170   50.3160 C   0  0  0  0  0  0  0  0  0  0  0  0
   61.8350   33.4760   49.9160 N   0  0  0  0  0  0  0  0  0  0  0  0
   62.9810   32.7000   49.5380 C   0  0  0  0  0  0  0  0  0  0  0  0
   63.8940   32.5270   50.3890 O   0  0  0  0  0  0  0  0  0  0  0  0
   63.1230   32.1450   48.1260 C   0  0  0  0  0  0  0  0  0  0  0  0
   62.0340   31.0630   47.8440 C   0  0  0  0  0  0  0  0  0  0  0  0
   61.0780   31.4350   46.7060 C   0  0  0  0  0  0  0  0  0  0  0  0
   60.7060   32.8510   46.8030 N   0  0  0  0  0  0  0  0  0  0  0  0
   59.3240   33.2230   46.9540 C   0  0  0  0  0  0  0  0  0  0  0  0
   58.5600   32.5090   47.6570 O   0  0  0  0  0  0  0  0  0  0  0  0
   58.7540   34.3880   46.1890 C   0  0  0  0  0  0  0  0  0  0  0  0
   58.6310   34.1790   44.6830 C   0  0  0  0  0  0  0  0  0  0  0  0
   57.3880   34.1670   45.5540 C   0  0  0  0  0  0  0  0  0  0  0  0
   61.7600   33.8730   46.8170 C   0  0  0  0  0  0  0  0  0  0  0  0
   63.1470   33.2510   47.0400 C   0  0  0  0  0  0  0  0  0  0  0  0
   60.2670   31.5800   50.0260 C   0  0  0  0  0  0  0  0  0  0  0  0
   55.1520   26.9820   45.2690 H   0  0  0  0  0  0  0  0  0  0  0  0
   57.8397   22.9974   45.7392 H   0  0  0  0  0  0  0  0  0  0  0  0
   60.3030   23.3619   45.8596 H   0  0  0  0  0  0  0  0  0  0  0  0
   61.2167   25.6685   46.0882 H   0  0  0  0  0  0  0  0  0  0  0  0
   59.6761   27.6235   46.1934 H   0  0  0  0  0  0  0  0  0  0  0  0
   59.2863   28.6672   46.2390 H   0  0  0  0  0  0  0  0  0  0  0  0
   58.7883   30.2927   45.6322 H   0  0  0  0  0  0  0  0  0  0  0  0
   58.0140   30.8720   47.8970 H   0  0  0  0  0  0  0  0  0  0  0  0
   57.6618   29.4001   50.3617 H   0  0  0  0  0  0  0  0  0  0  0  0
   59.3293   28.9650   50.8716 H   0  0  0  0  0  0  0  0  0  0  0  0
   57.1549   31.4271   51.4433 H   0  0  0  0  0  0  0  0  0  0  0  0
   57.7329   33.7888   51.9993 H   0  0  0  0  0  0  0  0  0  0  0  0
   59.9371   34.7343   51.3084 H   0  0  0  0  0  0  0  0  0  0  0  0
   64.1072   31.6571   48.0683 H   0  0  0  0  0  0  0  0  0  0  0  0
   62.5391   30.1222   47.5800 H   0  0  0  0  0  0  0  0  0  0  0  0
   61.4274   30.9711   48.7570 H   0  0  0  0  0  0  0  0  0  0  0  0
   61.5735   31.2543   45.7407 H   0  0  0  0  0  0  0  0  0  0  0  0
   60.1704   30.8182   46.7819 H   0  0  0  0  0  0  0  0  0  0  0  0
   59.1908   35.1576   46.8423 H   0  0  0  0  0  0  0  0  0  0  0  0
   58.8122   35.0178   43.9948 H   0  0  0  0  0  0  0  0  0  0  0  0
   59.0772   33.4853   43.9552 H   0  0  0  0  0  0  0  0  0  0  0  0
   56.6684   34.9970   45.4959 H   0  0  0  0  0  0  0  0  0  0  0  0
   56.5610   33.4603   45.7172 H   0  0  0  0  0  0  0  0  0  0  0  0
   61.7569   34.4024   45.8528 H   0  0  0  0  0  0  0  0  0  0  0  0
   61.5562   34.5665   47.6462 H   0  0  0  0  0  0  0  0  0  0  0  0
   63.4947   32.8112   46.0936 H   0  0  0  0  0  0  0  0  0  0  0  0
   63.8239   34.0474   47.3828 H   0  0  0  0  0  0  0  0  0  0  0  0
   60.9887   30.9551   49.4795 H   0  0  0  0  0  0  0  0  0  0  0  0
  1  2  1  0
  2  3  2  0
  2  4  2  0
  2  5  1  0
  5  6  2  0
  6  7  1  0
  7  8  2  0
  8  9  1  0
  9 10  2  0
 10 11  1  0
 11 12  1  0
 12 13  2  0
 12 14  1  0
 14 15  1  0
 15 16  1  0
 16 17  2  0
 16 18  1  0
 18 19  1  0
 19 20  2  0
 20 21  1  0
 21 22  2  0
 22 23  1  0
 23 24  1  0
 24 25  1  0
 25 26  2  0
 25 27  1  0
 27 28  1  0
 28 29  1  0
 29 30  1  0
 30 31  1  0
 31 32  2  0
 31 33  1  0
 33 34  1  0
 34 35  1  0
 30 36  1  0
 36 37  1  0
 23 38  2  0
 10  5  1  0
 38 19  1  0
 37 27  1  0
 35 33  1  0
  1 39  1  0
  6 40  1  0
  7 41  1  0
  8 42  1  0
  9 43  1  0
 14 44  1  0
 14 45  1  0
 15 46  1  0
 18 47  1  0
 18 48  1  0
 20 49  1  0
 21 50  1  0
 22 51  1  0
 27 52  1  0
 28 53  1  0
 28 54  1  0
 29 55  1  0
 29 56  1  0
 33 57  1  0
 34 58  1  0
 34 59  1  0
 35 60  1  0
 35 61  1  0
 36 62  1  0
 36 63  1  0
 37 64  1  0
 37 65  1  0
 38 66  1  0
M  CHG  3   1  -1  11  -1  24  -1
M  END
>  <UniqueID>  (31) 
30

>  <SMILES>  (31) 
[NH-]S(=O)(=O)c1ccccc1[N-]C(=O)CNC(=O)Cc1cccc([N-]C(=O)C2CCN(C(=O)C3CC3)CC2)c1

>  <Energy>  (31) 
345.4215347006815

>  <Genealogy>  (31) 
[NH-]S(=O)(=O)c1ccccc1[N-]C(=O)CNC(=O)Cc1cccc([N-]C(=O)C2CCN(C(=O)C3CC3)CC2)c1 (protonated)
[NH-]S(=O)(=O)c1ccccc1[N-]C(=O)CNC(=O)Cc1cccc([N-]C(=O)C2CCN(C(=O)C3CC3)CC2)c1 (3D coordinates assigned)
[NH-]S(=O)(=O)c1ccccc1[N-]C(=O)CNC(=O)Cc1cccc([N-]C(=O)C2CCN(C(=O)C3CC3)CC2)c1 (nonaromatic ring conformer: 345.4215347006815 kcal/mol)

>  <smiles>  (31) 
NS(=O)(=O)c1ccccc1NC(=O)CNC(=O)Cc1cccc(NC(=O)C2CCN(C(=O)C3CC3)CC2)c1

>  <score_type>  (31) 
oracle

>  <origin>  (31) 
adg

>  <m_score__min__energy>  (31) 
-16.989999999999998

>  <m_primary>  (31) 
energy

$$$$
31:0
     RDKit          3D

 40 42  0  0  0  0  0  0  0  0999 V2000
   58.0642   31.7654   48.4249 H   0  0  0  0  0  0  0  0  0  0  0  0
   58.6620   32.3630   47.7210 C   0  0  0  0  0  0  0  0  0  0  0  0
   59.6460   33.1190   48.2340 C   0  0  0  0  0  0  0  0  0  0  0  0
   59.3675   33.8650   48.9929 H   0  0  0  0  0  0  0  0  0  0  0  0
   61.0760   33.0290   47.8600 C   0  0  0  0  0  0  0  0  0  0  0  0
   61.9110   32.0370   48.4070 C   0  0  0  0  0  0  0  0  0  0  0  0
   61.5067   31.3252   49.1417 H   0  0  0  0  0  0  0  0  0  0  0  0
   63.2520   31.9520   48.0210 C   0  0  0  0  0  0  0  0  0  0  0  0
   63.9038   31.1848   48.4645 H   0  0  0  0  0  0  0  0  0  0  0  0
   63.7650   32.8400   47.0730 C   0  0  0  0  0  0  0  0  0  0  0  0
   64.8221   32.7758   46.7755 H   0  0  0  0  0  0  0  0  0  0  0  0
   62.9370   33.8100   46.5020 C   0  0  0  0  0  0  0  0  0  0  0  0
   63.3417   34.5035   45.7501 H   0  0  0  0  0  0  0  0  0  0  0  0
   61.5930   33.9010   46.8850 C   0  0  0  0  0  0  0  0  0  0  0  0
   60.8050   34.8500   46.3190 F   0  0  0  0  0  0  0  0  0  0  0  0
   58.3170   32.2690   46.2850 C   0  0  0  0  0  0  0  0  0  0  0  0
   58.5870   33.3190   45.3960 C   0  0  0  0  0  0  0  0  0  0  0  0
   59.0432   34.2481   45.7685 H   0  0  0  0  0  0  0  0  0  0  0  0
   58.2800   33.1910   44.0420 C   0  0  0  0  0  0  0  0  0  0  0  0
   58.4812   34.0285   43.3578 H   0  0  0  0  0  0  0  0  0  0  0  0
   57.7180   32.0080   43.5420 C   0  0  0  0  0  0  0  0  0  0  0  0
   57.5030   31.8940   42.1280 N   0  0  0  0  0  0  0  0  0  0  0  0
   57.3330   32.7480   41.5500 H   0  0  0  0  0  0  0  0  0  0  0  0
   57.6370   30.9950   41.6180 H   0  0  0  0  0  0  0  0  0  0  0  0
   57.4370   30.9400   44.4320 C   0  0  0  0  0  0  0  0  0  0  0  0
   56.7720   29.6930   43.9920 C   0  0  0  0  0  0  0  0  0  0  0  0
   56.6140   29.4660   42.7610 O   0  0  0  0  0  0  0  0  0  0  0  0
   56.2620   28.7800   44.9800 N   0  0  0  0  0  0  0  0  0  0  0  0
   56.8970   27.7890   45.5380 C   0  0  0  0  0  0  0  0  0  0  0  0
   58.2580   27.7790   45.6220 N   0  0  0  0  0  0  0  0  0  0  0  0
   58.9370   26.7530   46.2020 C   0  0  0  0  0  0  0  0  0  0  0  0
   60.0356   26.7794   46.2517 H   0  0  0  0  0  0  0  0  0  0  0  0
   58.2410   25.6670   46.7340 C   0  0  0  0  0  0  0  0  0  0  0  0
   58.7847   24.8343   47.2042 H   0  0  0  0  0  0  0  0  0  0  0  0
   56.8480   25.6490   46.6630 C   0  0  0  0  0  0  0  0  0  0  0  0
   56.2863   24.7991   47.0780 H   0  0  0  0  0  0  0  0  0  0  0  0
   56.1670   26.7120   46.0640 C   0  0  0  0  0  0  0  0  0  0  0  0
   54.7780   26.6920   45.9930 O   0  0  0  0  0  0  0  0  0  0  0  0
   57.7690   31.0780   45.7920 C   0  0  0  0  0  0  0  0  0  0  0  0
   57.5954   30.2370   46.4794 H   0  0  0  0  0  0  0  0  0  0  0  0
  1  2  1  0
  2  3  2  0
  3  4  1  0
  3  5  1  0
  5  6  2  0
  6  7  1  0
  6  8  1  0
  8  9  1  0
  8 10  2  0
 10 11  1  0
 10 12  1  0
 12 13  1  0
 12 14  2  0
 14 15  1  0
  2 16  1  0
 16 17  2  0
 17 18  1  0
 17 19  1  0
 19 20  1  0
 19 21  2  0
 21 22  1  0
 22 23  1  0
 22 24  1  0
 21 25  1  0
 25 26  1  0
 26 27  2  0
 26 28  1  0
 28 29  2  0
 29 30  1  0
 30 31  1  0
 31 32  1  0
 31 33  2  0
 33 34  1  0
 33 35  1  0
 35 36  1  0
 35 37  2  0
 37 38  1  0
 25 39  2  0
 39 40  1  0
 14  5  1  0
 39 16  1  0
 37 29  1  0
M  CHG  2  30  -1  38  -1
M  END
>  <UniqueID>  (32) 
31

>  <SMILES>  (32) 
Nc1ccc(/C=C\c2ccccc2F)cc1C(=O)/N=c1\[n-]cccc1[O-]

>  <Energy>  (32) 
61.90877130116814

>  <Genealogy>  (32) 
Nc1ccc(C=Cc2ccccc2F)cc1C(=O)N=c1[n-]cccc1[O-] (protonated)
Nc1ccc(/C=C\c2ccccc2F)cc1C(=O)/N=c1\[n-]cccc1[O-] (cis-trans isomerization)
Nc1ccc(/C=C\c2ccccc2F)cc1C(=O)/N=c1\[n-]cccc1[O-] (3D coordinates assigned)
Nc1ccc(/C=C\c2ccccc2F)cc1C(=O)/N=c1\[n-]cccc1[O-] (optimized conformer: 61.90877130116814 kcal/mol)

>  <smiles>  (32) 
Nc1ccc(C=Cc2ccccc2F)cc1C(=O)N=c1[nH]cccc1O

>  <score_type>  (32) 
oracle

>  <origin>  (32) 
adg

>  <m_score__min__energy>  (32) 
-14.09

>  <m_primary>  (32) 
energy

$$$$
32:0
     RDKit          3D

 49 52  0  0  1  0  0  0  0  0999 V2000
   63.4600   33.8800   49.4810 C   0  0  0  0  0  0  0  0  0  0  0  0
   62.0790   33.9520   48.9400 C   0  0  0  0  0  0  0  0  0  0  0  0
   60.9660   34.1580   49.7030 C   0  0  0  0  0  0  0  0  0  0  0  0
   59.6930   34.2200   49.1560 C   0  0  0  0  0  0  0  0  0  0  0  0
   59.5130   34.0720   47.7960 C   0  0  0  0  0  0  0  0  0  0  0  0
   58.4540   34.0760   46.9580 N   0  0  0  0  0  0  0  0  0  0  0  0
   58.8980   33.8760   45.6960 C   0  0  0  0  0  0  0  0  0  0  0  0
   58.0820   33.8080   44.4670 C   0  0  0  0  0  0  0  0  0  0  0  0
   58.1090   32.7240   43.7180 C   0  0  0  0  0  0  0  0  0  0  0  0
   57.5160   31.4510   44.1030 C   0  0  0  0  0  0  0  0  0  0  0  0
   56.4360   30.9290   43.4250 C   0  0  0  0  0  0  0  0  0  0  0  0
   55.9100   29.7190   43.8270 C   0  0  0  0  0  0  0  0  0  0  0  0
   56.4770   29.0440   44.9120 C   0  0  0  0  0  0  0  0  0  0  0  0
   55.8960   27.8470   45.2560 O   0  0  0  0  0  0  0  0  0  0  0  0
   57.5510   29.5370   45.6050 C   0  0  0  0  0  0  0  0  0  0  0  0
   58.2180   28.8870   46.7350 C   0  0  0  0  0  0  0  0  0  0  0  0
   59.1960   29.6230   47.4320 N   0  0  0  0  0  0  0  0  0  0  0  0
   59.1910   29.4570   48.8710 C   0  0  0  0  0  0  0  0  0  0  0  0
   59.8230   30.6400   49.5030 C   0  0  0  0  0  0  0  0  0  0  0  0
   60.7020   31.2710   48.6900 O   0  0  0  0  0  0  0  0  0  0  0  0
   61.4130   30.5500   47.7820 C   0  0  0  0  0  0  0  0  0  0  0  0
   60.5250   29.6740   46.9030 C   0  0  0  0  0  0  0  0  0  0  0  0
   58.0540   30.7640   45.1670 C   0  0  0  0  0  0  0  0  0  0  0  0
   60.2380   33.7490   45.7630 N   0  0  0  0  0  0  0  0  0  0  0  0
   60.6480   33.8640   47.0390 C   0  0  0  0  0  0  0  0  0  0  0  0
   61.9110   33.8020   47.5820 C   0  0  0  0  0  0  0  0  0  0  0  0
   63.4237   33.8819   50.5804 H   0  0  0  0  0  0  0  0  0  0  0  0
   63.9429   32.9555   49.1317 H   0  0  0  0  0  0  0  0  0  0  0  0
   64.0364   34.7493   49.1317 H   0  0  0  0  0  0  0  0  0  0  0  0
   61.0829   34.2791   50.7900 H   0  0  0  0  0  0  0  0  0  0  0  0
   58.8237   34.3878   49.8088 H   0  0  0  0  0  0  0  0  0  0  0  0
   57.4600   34.2120   47.2460 H   0  0  0  0  0  0  0  0  0  0  0  0
   57.4520   34.6617   44.1769 H   0  0  0  0  0  0  0  0  0  0  0  0
   58.6108   32.7846   42.7410 H   0  0  0  0  0  0  0  0  0  0  0  0
   55.9986   31.4707   42.5734 H   0  0  0  0  0  0  0  0  0  0  0  0
   55.0486   29.2872   43.2965 H   0  0  0  0  0  0  0  0  0  0  0  0
   56.1450   26.9670   44.8220 H   0  0  0  0  0  0  0  0  0  0  0  0
   57.4388   28.6081   47.4597 H   0  0  0  0  0  0  0  0  0  0  0  0
   58.7702   28.0484   46.2857 H   0  0  0  0  0  0  0  0  0  0  0  0
   58.1544   29.3605   49.2261 H   0  0  0  0  0  0  0  0  0  0  0  0
   59.7542   28.5510   49.1393 H   0  0  0  0  0  0  0  0  0  0  0  0
   59.0322   31.3516   49.7828 H   0  0  0  0  0  0  0  0  0  0  0  0
   60.3848   30.2827   50.3786 H   0  0  0  0  0  0  0  0  0  0  0  0
   61.9696   31.2462   47.1374 H   0  0  0  0  0  0  0  0  0  0  0  0
   62.0887   29.8852   48.3401 H   0  0  0  0  0  0  0  0  0  0  0  0
   60.4948   30.0930   45.8864 H   0  0  0  0  0  0  0  0  0  0  0  0
   60.9394   28.6553   46.8793 H   0  0  0  0  0  0  0  0  0  0  0  0
   58.9157   31.1992   45.6943 H   0  0  0  0  0  0  0  0  0  0  0  0
   62.7831   33.6332   46.9332 H   0  0  0  0  0  0  0  0  0  0  0  0
  1  2  1  0
  2  3  2  0
  3  4  1  0
  4  5  2  0
  5  6  1  0
  6  7  1  0
  7  8  1  0
  8  9  2  0
  9 10  1  0
 10 11  2  0
 11 12  1  0
 12 13  2  0
 13 14  1  0
 13 15  1  0
 15 16  1  0
 16 17  1  0
 17 18  1  0
 18 19  1  0
 19 20  1  0
 20 21  1  0
 21 22  1  0
 15 23  2  0
  7 24  2  0
 24 25  1  0
 25 26  2  0
 26  2  1  0
 25  5  1  0
 23 10  1  0
 22 17  1  0
  1 27  1  0
  1 28  1  0
  1 29  1  0
  3 30  1  0
  4 31  1  0
  6 32  1  0
  8 33  1  0
  9 34  1  0
 11 35  1  0
 12 36  1  0
 14 37  1  0
 16 38  1  0
 16 39  1  0
 18 40  1  0
 18 41  1  0
 19 42  1  0
 19 43  1  0
 21 44  1  0
 21 45  1  0
 22 46  1  0
 22 47  1  0
 23 48  1  0
 26 49  1  0
M  END
>  <smiles>  (33) 
Cc1ccc2[nH]c(C=Cc3ccc(O)c(CN4CCOCC4)c3)nc2c1

>  <score_type>  (33) 
oracle

>  <origin>  (33) 
adg

>  <m_score__min__energy>  (33) 
-8.8200000000000003

>  <m_primary>  (33) 
energy

$$$$
33:0
     RDKit          3D

 31 32  0  0  0  0  0  0  0  0999 V2000
   57.7650   22.3100   47.5180 H   0  0  0  0  0  0  0  0  0  0  0  0
   57.5330   23.1980   47.9470 O   0  0  0  0  0  0  0  0  0  0  0  0
   57.3060   24.3400   47.1800 C   0  0  0  0  0  0  0  0  0  0  0  0
   55.9940   24.7610   46.9450 C   0  0  0  0  0  0  0  0  0  0  0  0
   55.1509   24.1874   47.3576 H   0  0  0  0  0  0  0  0  0  0  0  0
   55.7520   25.9090   46.1870 C   0  0  0  0  0  0  0  0  0  0  0  0
   54.4470   26.3320   45.9680 O   0  0  0  0  0  0  0  0  0  0  0  0
   56.8200   26.6350   45.6510 C   0  0  0  0  0  0  0  0  0  0  0  0
   56.6229   27.5404   45.0583 H   0  0  0  0  0  0  0  0  0  0  0  0
   58.1490   26.2130   45.8660 C   0  0  0  0  0  0  0  0  0  0  0  0
   59.3190   26.9530   45.3310 C   0  0  0  0  0  0  0  0  0  0  0  0
   60.3155   26.7018   45.7233 H   0  0  0  0  0  0  0  0  0  0  0  0
   59.2300   27.9110   44.3960 C   0  0  0  0  0  0  0  0  0  0  0  0
   59.6316   27.6976   43.3944 H   0  0  0  0  0  0  0  0  0  0  0  0
   58.6200   29.2430   44.6370 C   0  0  0  0  0  0  0  0  0  0  0  0
   59.2160   30.2110   45.4690 C   0  0  0  0  0  0  0  0  0  0  0  0
   60.1659   29.9855   45.9758 H   0  0  0  0  0  0  0  0  0  0  0  0
   58.6080   31.4570   45.6550 C   0  0  0  0  0  0  0  0  0  0  0  0
   59.0786   32.2021   46.3133 H   0  0  0  0  0  0  0  0  0  0  0  0
   57.3980   31.7630   45.0050 C   0  0  0  0  0  0  0  0  0  0  0  0
   56.7500   32.9970   45.1620 O   0  0  0  0  0  0  0  0  0  0  0  0
   57.3880   34.1900   45.6070 C   0  0  0  0  0  0  0  0  0  0  0  0
   57.3994   34.2114   46.7067 H   0  0  0  0  0  0  0  0  0  0  0  0
   58.4207   34.2165   45.2290 H   0  0  0  0  0  0  0  0  0  0  0  0
   56.8367   35.0636   45.2290 H   0  0  0  0  0  0  0  0  0  0  0  0
   56.8160   30.8080   44.1670 C   0  0  0  0  0  0  0  0  0  0  0  0
   55.8722   31.0386   43.6512 H   0  0  0  0  0  0  0  0  0  0  0  0
   57.4220   29.5620   43.9780 C   0  0  0  0  0  0  0  0  0  0  0  0
   56.9560   28.8253   43.3071 H   0  0  0  0  0  0  0  0  0  0  0  0
   58.3790   25.0670   46.6460 C   0  0  0  0  0  0  0  0  0  0  0  0
   59.4105   24.7374   46.8393 H   0  0  0  0  0  0  0  0  0  0  0  0
  1  2  1  0
  2  3  1  0
  3  4  2  0
  4  5  1  0
  4  6  1  0
  6  7  1  0
  6  8  2  0
  8  9  1  0
  8 10  1  0
 10 11  1  0
 11 12  1  0
 11 13  2  0
 13 14  1  0
 13 15  1  0
 15 16  2  0
 16 17  1  0
 16 18  1  0
 18 19  1  0
 18 20  2  0
 20 21  1  0
 21 22  1  0
 22 23  1  0
 22 24  1  0
 22 25  1  0
 20 26  1  0
 26 27  1  0
 26 28  2  0
 28 29  1  0
 10 30  2  0
 30 31  1  0
 30  3  1  0
 28 15  1  0
M  CHG  1   7  -1
M  END
>  <UniqueID>  (34) 
32

>  <SMILES>  (34) 
COc1ccc(/C=C/c2cc([O-])cc(O)c2)cc1

>  <Energy>  (34) 
35.815004146057404

>  <Genealogy>  (34) 
COc1ccc(C=Cc2cc([O-])cc(O)c2)cc1 (protonated)
COc1ccc(/C=C/c2cc([O-])cc(O)c2)cc1 (cis-trans isomerization)
COc1ccc(/C=C/c2cc([O-])cc(O)c2)cc1 (3D coordinates assigned)
COc1ccc(/C=C/c2cc([O-])cc(O)c2)cc1 (optimized conformer: 35.815004146057404 kcal/mol)

>  <smiles>  (34) 
COc1ccc(C=Cc2cc(O)cc(O)c2)cc1

>  <score_type>  (34) 
oracle

>  <origin>  (34) 
adg

>  <m_score__min__energy>  (34) 
-10.09

>  <m_primary>  (34) 
energy

$$$$
34:0
     RDKit          3D

 57 59  0  0  0  0  0  0  0  0999 V2000
   60.3660   26.3990   46.5730 C   0  0  0  0  0  0  0  0  0  0  0  0
   59.5990   26.5420   47.8850 C   0  0  0  0  0  0  0  0  0  0  0  0
   60.0910   27.6880   48.6510 N   0  0  0  0  0  0  0  0  0  0  0  0
   59.9370   29.0650   48.2540 C   0  0  0  0  0  0  0  0  0  0  0  0
   60.8070   29.5990   47.2910 C   0  0  0  0  0  0  0  0  0  0  0  0
   60.7000   30.9360   46.8980 C   0  0  0  0  0  0  0  0  0  0  0  0
   59.7190   31.7640   47.4600 C   0  0  0  0  0  0  0  0  0  0  0  0
   59.6540   33.2000   47.1230 C   0  0  0  0  0  0  0  0  0  0  0  0
   59.4420   33.9380   45.9670 C   0  0  0  0  0  0  0  0  0  0  0  0
   59.1830   33.6210   44.5970 N   0  0  0  0  0  0  0  0  0  0  0  0
   57.8140   33.4700   44.1020 C   0  0  2  0  0  0  0  0  0  0  0  0
   56.8300   33.4300   45.2770 C   0  0  0  0  0  0  0  0  0  0  0  0
   57.6920   32.2170   43.2000 C   0  0  0  0  0  0  0  0  0  0  0  0
   57.5010   30.9390   43.9840 C   0  0  0  0  0  0  0  0  0  0  0  0
   56.2120   30.4160   44.1810 C   0  0  0  0  0  0  0  0  0  0  0  0
   56.0350   29.1890   44.8250 C   0  0  0  0  0  0  0  0  0  0  0  0
   57.1440   28.4750   45.3020 C   0  0  0  0  0  0  0  0  0  0  0  0
   56.9440   27.1610   46.0010 C   0  0  0  0  0  0  0  0  0  0  0  0
   55.5300   26.8000   45.9510 N   0  0  0  0  0  0  0  0  0  0  0  0
   55.3530   25.0730   45.8680 S   0  0  0  0  0  0  0  0  0  0  0  0
   56.2850   24.3930   44.5090 C   0  0  0  0  0  0  0  0  0  0  0  0
   53.9010   24.7460   45.6690 O   0  0  0  0  0  0  0  0  0  0  0  0
   55.8210   24.4550   47.1550 O   0  0  0  0  0  0  0  0  0  0  0  0
   58.4310   29.0140   45.1430 C   0  0  0  0  0  0  0  0  0  0  0  0
   58.6080   30.2340   44.4820 C   0  0  0  0  0  0  0  0  0  0  0  0
   59.6820   35.1030   46.6700 C   0  0  0  0  0  0  0  0  0  0  0  0
   59.7080   36.3280   46.3810 O   0  0  0  0  0  0  0  0  0  0  0  0
   59.8980   34.3710   47.8180 C   0  0  0  0  0  0  0  0  0  0  0  0
   60.2030   34.6550   49.0060 O   0  0  0  0  0  0  0  0  0  0  0  0
   58.8260   31.2270   48.3960 C   0  0  0  0  0  0  0  0  0  0  0  0
   58.9320   29.8910   48.7930 C   0  0  0  0  0  0  0  0  0  0  0  0
   61.4265   26.2013   46.7879 H   0  0  0  0  0  0  0  0  0  0  0  0
   59.9475   25.5634   45.9928 H   0  0  0  0  0  0  0  0  0  0  0  0
   60.2767   27.3293   45.9928 H   0  0  0  0  0  0  0  0  0  0  0  0
   58.5311   26.6868   47.6647 H   0  0  0  0  0  0  0  0  0  0  0  0
   59.7460   25.6294   48.4812 H   0  0  0  0  0  0  0  0  0  0  0  0
   60.5700   27.4840   49.5570 H   0  0  0  0  0  0  0  0  0  0  0  0
   61.5805   28.9592   46.8412 H   0  0  0  0  0  0  0  0  0  0  0  0
   61.3900   31.3408   46.1430 H   0  0  0  0  0  0  0  0  0  0  0  0
   59.9390   33.7930   43.9000 H   0  0  0  0  0  0  0  0  0  0  0  0
   57.5584   34.3410   43.4806 H   0  0  0  0  0  0  0  0  0  0  0  0
   57.3888   33.4527   46.2242 H   0  0  0  0  0  0  0  0  0  0  0  0
   56.1611   34.3017   45.2249 H   0  0  0  0  0  0  0  0  0  0  0  0
   56.2341   32.5069   45.2249 H   0  0  0  0  0  0  0  0  0  0  0  0
   56.8289   32.3498   42.5311 H   0  0  0  0  0  0  0  0  0  0  0  0
   58.6348   32.1216   42.6415 H   0  0  0  0  0  0  0  0  0  0  0  0
   55.3352   30.9771   43.8254 H   0  0  0  0  0  0  0  0  0  0  0  0
   55.0221   28.7813   44.9585 H   0  0  0  0  0  0  0  0  0  0  0  0
   57.5399   26.3837   45.5004 H   0  0  0  0  0  0  0  0  0  0  0  0
   57.2661   27.2476   47.0492 H   0  0  0  0  0  0  0  0  0  0  0  0
   57.1154   23.7871   44.9007 H   0  0  0  0  0  0  0  0  0  0  0  0
   55.6280   23.7606   43.8939 H   0  0  0  0  0  0  0  0  0  0  0  0
   56.6867   25.2117   43.8939 H   0  0  0  0  0  0  0  0  0  0  0  0
   59.3036   28.4745   45.5399 H   0  0  0  0  0  0  0  0  0  0  0  0
   59.6206   30.6434   44.3517 H   0  0  0  0  0  0  0  0  0  0  0  0
   58.0350   31.8617   48.8220 H   0  0  0  0  0  0  0  0  0  0  0  0
   58.2260   29.4824   49.5310 H   0  0  0  0  0  0  0  0  0  0  0  0
  1  2  1  0
  2  3  1  0
  3  4  1  0
  4  5  2  0
  5  6  1  0
  6  7  2  0
  7  8  1  0
  8  9  2  0
  9 10  1  0
 10 11  1  0
 11 12  1  0
 11 13  1  0
 13 14  1  0
 14 15  2  0
 15 16  1  0
 16 17  2  0
 17 18  1  0
 18 19  1  0
 19 20  1  0
 20 21  1  0
 20 22  2  0
 20 23  2  0
 17 24  1  0
 24 25  2  0
  9 26  1  0
 26 27  2  0
 26 28  1  0
 28 29  2  0
  7 30  1  0
 30 31  2  0
 31  4  1  0
 28  8  1  0
 25 14  1  0
  1 32  1  0
  1 33  1  0
  1 34  1  0
  2 35  1  0
  2 36  1  0
  3 37  1  0
  5 38  1  0
  6 39  1  0
 10 40  1  0
 11 41  1  6
 12 42  1  0
 12 43  1  0
 12 44  1  0
 13 45  1  0
 13 46  1  0
 15 47  1  0
 16 48  1  0
 18 49  1  0
 18 50  1  0
 21 51  1  0
 21 52  1  0
 21 53  1  0
 24 54  1  0
 25 55  1  0
 30 56  1  0
 31 57  1  0
M  CHG  1  19  -1
M  END
>  <UniqueID>  (35) 
33

>  <SMILES>  (35) 
CCNc1ccc(-c2c(N[C@H](C)Cc3ccc(C[N-]S(C)(=O)=O)cc3)c(=O)c2=O)cc1

>  <Energy>  (35) 
34.53607371905985

>  <Genealogy>  (35) 
CCNc1ccc(-c2c(NC(C)Cc3ccc(C[N-]S(C)(=O)=O)cc3)c(=O)c2=O)cc1 (protonated)
CCNc1ccc(-c2c(N[C@H](C)Cc3ccc(C[N-]S(C)(=O)=O)cc3)c(=O)c2=O)cc1 (chirality)
CCNc1ccc(-c2c(N[C@H](C)Cc3ccc(C[N-]S(C)(=O)=O)cc3)c(=O)c2=O)cc1 (3D coordinates assigned)
CCNc1ccc(-c2c(N[C@H](C)Cc3ccc(C[N-]S(C)(=O)=O)cc3)c(=O)c2=O)cc1 (optimized conformer: 34.53607371905985 kcal/mol)

>  <smiles>  (35) 
CCNc1ccc(-c2c(NC(C)Cc3ccc(CNS(C)(=O)=O)cc3)c(=O)c2=O)cc1

>  <score_type>  (35) 
oracle

>  <origin>  (35) 
adg

>  <m_score__min__energy>  (35) 
-11.24

>  <m_primary>  (35) 
energy

$$$$
35:0
     RDKit          3D

 48 50  0  0  0  0  0  0  0  0999 V2000
   55.2490   26.6780   45.9800 N   0  0  0  0  0  0  0  0  0  0  0  0
   56.9330   27.0700   46.0210 S   0  0  0  0  0  0  0  0  0  0  0  0
   57.3860   27.2010   47.4500 O   0  0  0  0  0  0  0  0  0  0  0  0
   57.7220   25.9710   45.3630 O   0  0  0  0  0  0  0  0  0  0  0  0
   57.1950   28.5880   45.1690 C   0  0  0  0  0  0  0  0  0  0  0  0
   56.1140   29.2690   44.5960 C   0  0  0  0  0  0  0  0  0  0  0  0
   56.3230   30.4690   43.9090 C   0  0  0  0  0  0  0  0  0  0  0  0
   57.6180   30.9980   43.7810 C   0  0  0  0  0  0  0  0  0  0  0  0
   57.8340   32.3310   43.1090 C   0  0  0  0  0  0  0  0  0  0  0  0
   57.7750   33.4870   44.1180 C   0  0  0  0  0  0  0  0  0  0  0  0
   58.7230   33.2790   45.2110 N   0  0  0  0  0  0  0  0  0  0  0  0
   58.3080   32.8580   46.5170 C   0  0  0  0  0  0  0  0  0  0  0  0
   57.1600   33.1640   46.9400 O   0  0  0  0  0  0  0  0  0  0  0  0
   59.2110   32.0380   47.3460 C   0  0  0  0  0  0  0  0  0  0  0  0
   58.7240   31.0570   48.2140 C   0  0  0  0  0  0  0  0  0  0  0  0
   59.6280   30.2950   48.9510 C   0  0  0  0  0  0  0  0  0  0  0  0
   60.9980   30.5140   48.7960 C   0  0  0  0  0  0  0  0  0  0  0  0
   61.8160   29.8270   49.4680 O   0  0  0  0  0  0  0  0  0  0  0  0
   61.4350   31.4700   47.9170 N   0  0  0  0  0  0  0  0  0  0  0  0
   62.8620   31.7460   47.7200 C   0  0  0  0  0  0  0  0  0  0  0  0
   63.4150   32.4840   48.9090 C   0  0  0  0  0  0  0  0  0  0  0  0
   64.6070   32.0410   49.5080 C   0  0  0  0  0  0  0  0  0  0  0  0
   65.1510   32.7320   50.5940 C   0  0  0  0  0  0  0  0  0  0  0  0
   64.5150   33.8740   51.0870 C   0  0  0  0  0  0  0  0  0  0  0  0
   63.3320   34.3270   50.4950 C   0  0  0  0  0  0  0  0  0  0  0  0
   62.7820   33.6390   49.4070 C   0  0  0  0  0  0  0  0  0  0  0  0
   61.6350   34.0990   48.8460 F   0  0  0  0  0  0  0  0  0  0  0  0
   60.5560   32.2070   47.2320 N   0  0  0  0  0  0  0  0  0  0  0  0
   58.7000   30.3090   44.3510 C   0  0  0  0  0  0  0  0  0  0  0  0
   58.4900   29.1090   45.0360 C   0  0  0  0  0  0  0  0  0  0  0  0
   54.8210   27.0780   46.8460 H   0  0  0  0  0  0  0  0  0  0  0  0
   55.0973   28.8589   44.6865 H   0  0  0  0  0  0  0  0  0  0  0  0
   55.4684   31.0017   43.4663 H   0  0  0  0  0  0  0  0  0  0  0  0
   58.8211   32.3306   42.6235 H   0  0  0  0  0  0  0  0  0  0  0  0
   57.0333   32.4779   42.3692 H   0  0  0  0  0  0  0  0  0  0  0  0
   58.0213   34.4270   43.6025 H   0  0  0  0  0  0  0  0  0  0  0  0
   56.7599   33.5322   44.5392 H   0  0  0  0  0  0  0  0  0  0  0  0
   59.7450   33.3360   44.9950 H   0  0  0  0  0  0  0  0  0  0  0  0
   57.6416   30.8887   48.3140 H   0  0  0  0  0  0  0  0  0  0  0  0
   59.2651   29.5268   49.6496 H   0  0  0  0  0  0  0  0  0  0  0  0
   63.4028   30.7960   47.5978 H   0  0  0  0  0  0  0  0  0  0  0  0
   62.9878   32.3668   46.8206 H   0  0  0  0  0  0  0  0  0  0  0  0
   65.1143   31.1455   49.1198 H   0  0  0  0  0  0  0  0  0  0  0  0
   66.0811   32.3763   51.0613 H   0  0  0  0  0  0  0  0  0  0  0  0
   64.9451   34.4171   51.9414 H   0  0  0  0  0  0  0  0  0  0  0  0
   62.8324   35.2260   50.8851 H   0  0  0  0  0  0  0  0  0  0  0  0
   59.7179   30.7154   44.2581 H   0  0  0  0  0  0  0  0  0  0  0  0
   59.3443   28.5709   45.4727 H   0  0  0  0  0  0  0  0  0  0  0  0
  1  2  1  0
  2  3  2  0
  2  4  2  0
  2  5  1  0
  5  6  2  0
  6  7  1  0
  7  8  2  0
  8  9  1  0
  9 10  1  0
 10 11  1  0
 11 12  1  0
 12 13  2  0
 12 14  1  0
 14 15  1  0
 15 16  2  0
 16 17  1  0
 17 18  2  0
 17 19  1  0
 19 20  1  0
 20 21  1  0
 21 22  2  0
 22 23  1  0
 23 24  2  0
 24 25  1  0
 25 26  2  0
 26 27  1  0
 19 28  1  0
  8 29  1  0
 29 30  2  0
 30  5  1  0
 28 14  2  0
 26 21  1  0
  1 31  1  0
  6 32  1  0
  7 33  1  0
  9 34  1  0
  9 35  1  0
 10 36  1  0
 10 37  1  0
 11 38  1  0
 15 39  1  0
 16 40  1  0
 20 41  1  0
 20 42  1  0
 22 43  1  0
 23 44  1  0
 24 45  1  0
 25 46  1  0
 29 47  1  0
 30 48  1  0
M  CHG  1   1  -1
M  END
>  <UniqueID>  (36) 
34

>  <SMILES>  (36) 
[NH-]S(=O)(=O)c1ccc(CCNC(=O)c2ccc(=O)n(Cc3ccccc3F)n2)cc1

>  <Energy>  (36) 
45.34602305771647

>  <Genealogy>  (36) 
[NH-]S(=O)(=O)c1ccc(CCNC(=O)c2ccc(=O)n(Cc3ccccc3F)n2)cc1 (protonated)
[NH-]S(=O)(=O)c1ccc(CCNC(=O)c2ccc(=O)n(Cc3ccccc3F)n2)cc1 (3D coordinates assigned)
[NH-]S(=O)(=O)c1ccc(CCNC(=O)c2ccc(=O)n(Cc3ccccc3F)n2)cc1 (optimized conformer: 45.34602305771647 kcal/mol)

>  <smiles>  (36) 
NS(=O)(=O)c1ccc(CCNC(=O)c2ccc(=O)n(Cc3ccccc3F)n2)cc1

>  <score_type>  (36) 
oracle

>  <origin>  (36) 
adg

>  <m_score__min__energy>  (36) 
-11.44

>  <m_primary>  (36) 
energy

$$$$
36:0
     RDKit          3D

 48 51  0  0  0  0  0  0  0  0999 V2000
   66.6000   29.4940   52.1590 C   0  0  0  0  0  0  0  0  0  0  0  0
   66.5370   30.8480   51.5950 N   0  0  0  0  0  0  0  0  0  0  0  0
   65.4350   31.2250   50.8750 C   0  0  0  0  0  0  0  0  0  0  0  0
   65.3470   32.5090   50.3160 C   0  0  0  0  0  0  0  0  0  0  0  0
   64.1600   32.9110   49.5290 C   0  0  0  0  0  0  0  0  0  0  0  0
   63.8370   32.1840   48.3720 C   0  0  0  0  0  0  0  0  0  0  0  0
   62.6980   32.4990   47.6280 C   0  0  0  0  0  0  0  0  0  0  0  0
   61.8570   33.5500   48.0260 C   0  0  0  0  0  0  0  0  0  0  0  0
   60.6460   33.8770   47.2420 C   0  0  0  0  0  0  0  0  0  0  0  0
   59.9990   32.9770   46.4700 N   0  0  0  0  0  0  0  0  0  0  0  0
   58.9700   33.6680   45.9500 C   0  0  0  0  0  0  0  0  0  0  0  0
   57.9590   33.1270   45.0090 C   0  0  0  0  0  0  0  0  0  0  0  0
   57.1430   33.9440   44.5000 O   0  0  0  0  0  0  0  0  0  0  0  0
   57.8710   31.7210   44.6590 N   0  0  0  0  0  0  0  0  0  0  0  0
   58.5400   30.6870   45.4760 C   0  0  0  0  0  0  0  0  0  0  0  0
   58.1110   29.2570   45.1010 C   0  0  0  0  0  0  0  0  0  0  0  0
   56.6330   29.2020   44.8330 C   0  0  0  0  0  0  0  0  0  0  0  0
   55.9680   28.2690   45.2540 O   0  0  0  0  0  0  0  0  0  0  0  0
   55.9780   30.2820   44.0190 C   0  0  0  0  0  0  0  0  0  0  0  0
   57.0170   31.2970   43.5340 C   0  0  0  0  0  0  0  0  0  0  0  0
   59.0230   34.9650   46.4070 C   0  0  0  0  0  0  0  0  0  0  0  0
   60.0780   35.1030   47.2280 N   0  0  0  0  0  0  0  0  0  0  0  0
   62.1850   34.2880   49.1750 C   0  0  0  0  0  0  0  0  0  0  0  0
   63.3320   33.9880   49.9190 C   0  0  0  0  0  0  0  0  0  0  0  0
   63.6310   34.7920   51.0220 O   0  0  0  0  0  0  0  0  0  0  0  0
   66.4210   33.3900   50.4780 C   0  0  0  0  0  0  0  0  0  0  0  0
   67.5460   32.9920   51.1950 C   0  0  0  0  0  0  0  0  0  0  0  0
   67.5940   31.7080   51.7480 C   0  0  0  0  0  0  0  0  0  0  0  0
   68.6240   31.3540   52.3860 O   0  0  0  0  0  0  0  0  0  0  0  0
   66.5972   29.5538   53.2574 H   0  0  0  0  0  0  0  0  0  0  0  0
   65.7278   28.9151   51.8211 H   0  0  0  0  0  0  0  0  0  0  0  0
   67.5222   28.9986   51.8211 H   0  0  0  0  0  0  0  0  0  0  0  0
   64.6088   30.5128   50.7331 H   0  0  0  0  0  0  0  0  0  0  0  0
   64.4876   31.3581   48.0484 H   0  0  0  0  0  0  0  0  0  0  0  0
   62.4583   31.9197   46.7241 H   0  0  0  0  0  0  0  0  0  0  0  0
   59.6271   30.7761   45.3335 H   0  0  0  0  0  0  0  0  0  0  0  0
   58.2494   30.8548   46.5236 H   0  0  0  0  0  0  0  0  0  0  0  0
   58.6543   28.9415   44.1980 H   0  0  0  0  0  0  0  0  0  0  0  0
   58.3449   28.5848   45.9397 H   0  0  0  0  0  0  0  0  0  0  0  0
   55.4823   29.8280   43.1483 H   0  0  0  0  0  0  0  0  0  0  0  0
   55.2409   30.8024   44.6482 H   0  0  0  0  0  0  0  0  0  0  0  0
   57.6423   30.8348   42.7560 H   0  0  0  0  0  0  0  0  0  0  0  0
   56.4988   32.1758   43.1227 H   0  0  0  0  0  0  0  0  0  0  0  0
   58.3137   35.7629   46.1421 H   0  0  0  0  0  0  0  0  0  0  0  0
   61.5315   35.1131   49.4946 H   0  0  0  0  0  0  0  0  0  0  0  0
   63.5640   35.8010   51.0030 H   0  0  0  0  0  0  0  0  0  0  0  0
   66.3768   34.3976   50.0388 H   0  0  0  0  0  0  0  0  0  0  0  0
   68.3919   33.6829   51.3259 H   0  0  0  0  0  0  0  0  0  0  0  0
  1  2  1  0
  2  3  1  0
  3  4  2  0
  4  5  1  0
  5  6  2  0
  6  7  1  0
  7  8  2  0
  8  9  1  0
  9 10  2  0
 10 11  1  0
 11 12  1  0
 12 13  2  0
 12 14  1  0
 14 15  1  0
 15 16  1  0
 16 17  1  0
 17 18  2  0
 17 19  1  0
 19 20  1  0
 11 21  2  0
 21 22  1  0
  8 23  1  0
 23 24  2  0
 24 25  1  0
  4 26  1  0
 26 27  2  0
 27 28  1  0
 28 29  2  0
 28  2  1  0
 24  5  1  0
 22  9  1  0
 20 14  1  0
  1 30  1  0
  1 31  1  0
  1 32  1  0
  3 33  1  0
  6 34  1  0
  7 35  1  0
 15 36  1  0
 15 37  1  0
 16 38  1  0
 16 39  1  0
 19 40  1  0
 19 41  1  0
 20 42  1  0
 20 43  1  0
 21 44  1  0
 23 45  1  0
 25 46  1  0
 26 47  1  0
 27 48  1  0
M  CHG  1  22  -1
M  END
>  <UniqueID>  (37) 
35

>  <SMILES>  (37) 
Cn1cc(-c2ccc(-c3nc(C(=O)N4CCC(=O)CC4)c[n-]3)cc2O)ccc1=O

>  <Energy>  (37) 
91.11539428092742

>  <Genealogy>  (37) 
Cn1cc(-c2ccc(-c3nc(C(=O)N4CCC(=O)CC4)c[n-]3)cc2O)ccc1=O (protonated)
Cn1cc(-c2ccc(-c3nc(C(=O)N4CCC(=O)CC4)c[n-]3)cc2O)ccc1=O (3D coordinates assigned)
Cn1cc(-c2ccc(-c3nc(C(=O)N4CCC(=O)CC4)c[n-]3)cc2O)ccc1=O (nonaromatic ring conformer: 91.11539428092742 kcal/mol)

>  <smiles>  (37) 
Cn1cc(-c2ccc(-c3nc(C(=O)N4CCC(=O)CC4)c[nH]3)cc2O)ccc1=O

>  <score_type>  (37) 
oracle

>  <origin>  (37) 
adg

>  <m_score__min__energy>  (37) 
-10.25

>  <m_primary>  (37) 
energy

$$$$
37:0
     RDKit          3D

 36 38  0  0  0  0  0  0  0  0999 V2000
   59.4470   35.7170   49.3610 H   0  0  0  0  0  0  0  0  0  0  0  0
   59.4100   34.9010   48.7630 O   0  0  0  0  0  0  0  0  0  0  0  0
   60.5590   34.2070   48.3910 C   0  0  0  0  0  0  0  0  0  0  0  0
   61.7020   34.2980   49.1210 N   0  0  0  0  0  0  0  0  0  0  0  0
   62.7040   33.5890   48.5610 C   0  0  0  0  0  0  0  0  0  0  0  0
   64.2090   33.5110   49.1890 S   0  0  0  0  0  0  0  0  0  0  0  0
   62.2310   32.8320   47.1370 S   0  0  0  0  0  0  0  0  0  0  0  0
   60.6500   33.3970   47.2540 C   0  0  0  0  0  0  0  0  0  0  0  0
   59.6190   33.1820   46.2300 C   0  0  0  0  0  0  0  0  0  0  0  0
   59.2217   34.0737   45.7231 H   0  0  0  0  0  0  0  0  0  0  0  0
   59.1170   31.9880   45.8570 C   0  0  0  0  0  0  0  0  0  0  0  0
   58.1390   31.8590   44.8850 C   0  0  0  0  0  0  0  0  0  0  0  0
   57.7038   32.6697   44.2822 H   0  0  0  0  0  0  0  0  0  0  0  0
   57.8150   30.5210   44.8170 C   0  0  0  0  0  0  0  0  0  0  0  0
   56.7800   29.9430   43.9000 C   0  0  0  0  0  0  0  0  0  0  0  0
   55.9728   29.4922   44.4960 H   0  0  0  0  0  0  0  0  0  0  0  0
   56.3659   30.7404   43.2655 H   0  0  0  0  0  0  0  0  0  0  0  0
   57.2417   29.1721   43.2655 H   0  0  0  0  0  0  0  0  0  0  0  0
   58.5770   29.8080   45.6750 N   0  0  0  0  0  0  0  0  0  0  0  0
   58.5230   28.3820   45.8610 C   0  0  0  0  0  0  0  0  0  0  0  0
   59.7010   27.6250   45.8640 C   0  0  0  0  0  0  0  0  0  0  0  0
   60.6728   28.1224   45.7286 H   0  0  0  0  0  0  0  0  0  0  0  0
   59.6460   26.2430   46.0380 C   0  0  0  0  0  0  0  0  0  0  0  0
   60.5760   25.6556   46.0408 H   0  0  0  0  0  0  0  0  0  0  0  0
   58.4170   25.5980   46.2090 C   0  0  0  0  0  0  0  0  0  0  0  0
   58.4080   24.2180   46.3800 O   0  0  0  0  0  0  0  0  0  0  0  0
   57.2170   26.3450   46.2070 C   0  0  0  0  0  0  0  0  0  0  0  0
   55.8930   25.6940   46.3870 C   0  0  0  0  0  0  0  0  0  0  0  0
   55.8120   24.5530   46.9140 O   0  0  0  0  0  0  0  0  0  0  0  0
   54.7230   26.3240   45.9810 O   0  0  0  0  0  0  0  0  0  0  0  0
   57.2880   27.7400   46.0300 C   0  0  0  0  0  0  0  0  0  0  0  0
   56.3623   28.3341   46.0242 H   0  0  0  0  0  0  0  0  0  0  0  0
   59.3990   30.6870   46.3060 C   0  0  0  0  0  0  0  0  0  0  0  0
   60.3960   30.3050   47.1210 C   0  0  0  0  0  0  0  0  0  0  0  0
   60.5056   29.2458   47.3969 H   0  0  0  0  0  0  0  0  0  0  0  0
   61.1029   31.0513   47.5125 H   0  0  0  0  0  0  0  0  0  0  0  0
  1  2  1  0
  2  3  1  0
  3  4  1  0
  4  5  1  0
  5  6  2  0
  5  7  1  0
  7  8  1  0
  8  9  1  0
  9 10  1  0
  9 11  2  0
 11 12  1  0
 12 13  1  0
 12 14  2  0
 14 15  1  0
 15 16  1  0
 15 17  1  0
 15 18  1  0
 14 19  1  0
 19 20  1  0
 20 21  2  0
 21 22  1  0
 21 23  1  0
 23 24  1  0
 23 25  2  0
 25 26  1  0
 25 27  1  0
 27 28  1  0
 28 29  2  0
 28 30  1  0
 27 31  2  0
 31 32  1  0
 19 33  1  0
 33 34  2  0
 34 35  1  0
 34 36  1  0
  8  3  2  0
 33 11  1  0
 31 20  1  0
M  CHG  3   4  -1  26  -1  30  -1
M  END
>  <UniqueID>  (38) 
36

>  <SMILES>  (38) 
C=c1/c(=C\c2sc(=S)[n-]c2O)cc(C)n1-c1ccc([O-])c(C(=O)[O-])c1

>  <Energy>  (38) 
116.99901640100938

>  <Genealogy>  (38) 
C=c1c(=Cc2sc(=S)[n-]c2O)cc(C)n1-c1ccc([O-])c(C(=O)[O-])c1 (protonated)
C=c1/c(=C\c2sc(=S)[n-]c2O)cc(C)n1-c1ccc([O-])c(C(=O)[O-])c1 (cis-trans isomerization)
C=c1/c(=C\c2sc(=S)[n-]c2O)cc(C)n1-c1ccc([O-])c(C(=O)[O-])c1 (3D coordinates assigned)
C=c1/c(=C\c2sc(=S)[n-]c2O)cc(C)n1-c1ccc([O-])c(C(=O)[O-])c1 (optimized conformer: 116.99901640100938 kcal/mol)

>  <smiles>  (38) 
C=c1c(=Cc2sc(=S)[nH]c2O)cc(C)n1-c1ccc(O)c(C(=O)O)c1

>  <score_type>  (38) 
oracle

>  <origin>  (38) 
adg

>  <m_score__min__energy>  (38) 
-14.210000000000001

>  <m_primary>  (38) 
energy

$$$$
38:0
     RDKit          3D

 56 59  0  0  0  0  0  0  0  0999 V2000
   56.2230   29.8560   42.3880 O   0  0  0  0  0  0  0  0  0  0  0  0
   56.6200   29.7950   43.5830 C   0  0  0  0  0  0  0  0  0  0  0  0
   56.3320   30.8570   44.4990 N   0  0  0  0  0  0  0  0  0  0  0  0
   57.2730   31.8220   44.9920 C   0  0  0  0  0  0  0  0  0  0  0  0
   57.7920   31.7540   46.2970 C   0  0  0  0  0  0  0  0  0  0  0  0
   58.7320   32.6920   46.7310 C   0  0  0  0  0  0  0  0  0  0  0  0
   59.1780   33.7030   45.8650 C   0  0  0  0  0  0  0  0  0  0  0  0
   60.1610   34.7370   46.3470 C   0  0  0  0  0  0  0  0  0  0  0  0
   60.3860   34.6120   47.8620 C   0  0  0  0  0  0  0  0  0  0  0  0
   61.5580   33.7660   48.1750 N   0  0  0  0  0  0  0  0  0  0  0  0
   62.2750   34.2580   49.3800 C   0  0  0  0  0  0  0  0  0  0  0  0
   63.6860   33.6630   49.5290 C   0  0  0  0  0  0  0  0  0  0  0  0
   63.7560   31.9760   48.8470 S   0  0  0  0  0  0  0  0  0  0  0  0
   63.4020   32.4830   47.1200 C   0  0  0  0  0  0  0  0  0  0  0  0
   62.4650   33.6980   47.0100 C   0  0  0  0  0  0  0  0  0  0  0  0
   58.6650   33.7650   44.5610 C   0  0  0  0  0  0  0  0  0  0  0  0
   57.7300   32.8210   44.1250 C   0  0  0  0  0  0  0  0  0  0  0  0
   57.4400   28.7070   44.0230 N   0  0  0  0  0  0  0  0  0  0  0  0
   58.2820   28.6840   45.1850 C   0  0  0  0  0  0  0  0  0  0  0  0
   57.8510   28.1480   46.4130 C   0  0  0  0  0  0  0  0  0  0  0  0
   58.6990   28.1590   47.5240 C   0  0  0  0  0  0  0  0  0  0  0  0
   59.9740   28.7290   47.4380 C   0  0  0  0  0  0  0  0  0  0  0  0
   60.8000   28.7070   48.5710 O   0  0  0  0  0  0  0  0  0  0  0  0
   60.9010   29.7290   49.5260 C   0  0  0  0  0  0  0  0  0  0  0  0
   61.8210   29.5850   50.5710 C   0  0  0  0  0  0  0  0  0  0  0  0
   61.9350   30.5720   51.5550 C   0  0  0  0  0  0  0  0  0  0  0  0
   61.1250   31.7100   51.5030 C   0  0  0  0  0  0  0  0  0  0  0  0
   60.1940   31.8560   50.4730 C   0  0  0  0  0  0  0  0  0  0  0  0
   60.0740   30.8690   49.4890 C   0  0  0  0  0  0  0  0  0  0  0  0
   60.4030   29.2720   46.2150 C   0  0  0  0  0  0  0  0  0  0  0  0
   59.5560   29.2580   45.1030 C   0  0  0  0  0  0  0  0  0  0  0  0
   57.4565   30.9589   46.9791 H   0  0  0  0  0  0  0  0  0  0  0  0
   59.1249   32.6381   47.7570 H   0  0  0  0  0  0  0  0  0  0  0  0
   61.1196   34.5932   45.8270 H   0  0  0  0  0  0  0  0  0  0  0  0
   59.7549   35.7365   46.1323 H   0  0  0  0  0  0  0  0  0  0  0  0
   60.5490   35.6156   48.2818 H   0  0  0  0  0  0  0  0  0  0  0  0
   59.4956   34.1393   48.3021 H   0  0  0  0  0  0  0  0  0  0  0  0
   62.3621   35.3525   49.3128 H   0  0  0  0  0  0  0  0  0  0  0  0
   61.6926   33.9438   50.2587 H   0  0  0  0  0  0  0  0  0  0  0  0
   64.4037   34.2992   48.9903 H   0  0  0  0  0  0  0  0  0  0  0  0
   63.9378   33.6200   50.5989 H   0  0  0  0  0  0  0  0  0  0  0  0
   64.3543   32.7338   46.6299 H   0  0  0  0  0  0  0  0  0  0  0  0
   62.8897   31.6382   46.6364 H   0  0  0  0  0  0  0  0  0  0  0  0
   63.0685   34.6167   46.9682 H   0  0  0  0  0  0  0  0  0  0  0  0
   61.8603   33.5965   46.0967 H   0  0  0  0  0  0  0  0  0  0  0  0
   58.9997   34.5598   43.8782 H   0  0  0  0  0  0  0  0  0  0  0  0
   57.3510   32.8639   43.0932 H   0  0  0  0  0  0  0  0  0  0  0  0
   56.8420   27.7184   46.4988 H   0  0  0  0  0  0  0  0  0  0  0  0
   58.3616   27.7164   48.4728 H   0  0  0  0  0  0  0  0  0  0  0  0
   62.4584   28.6897   50.6185 H   0  0  0  0  0  0  0  0  0  0  0  0
   62.6630   30.4527   52.3710 H   0  0  0  0  0  0  0  0  0  0  0  0
   61.2210   32.4898   52.2729 H   0  0  0  0  0  0  0  0  0  0  0  0
   59.5533   32.7493   50.4351 H   0  0  0  0  0  0  0  0  0  0  0  0
   59.3324   30.9832   48.6847 H   0  0  0  0  0  0  0  0  0  0  0  0
   61.4088   29.7096   46.1324 H   0  0  0  0  0  0  0  0  0  0  0  0
   59.8937   29.7021   44.1550 H   0  0  0  0  0  0  0  0  0  0  0  0
  1  2  2  0
  2  3  1  0
  3  4  1  0
  4  5  2  0
  5  6  1  0
  6  7  2  0
  7  8  1  0
  8  9  1  0
  9 10  1  0
 10 11  1  0
 11 12  1  0
 12 13  1  0
 13 14  1  0
 14 15  1  0
  7 16  1  0
 16 17  2  0
  2 18  1  0
 18 19  1  0
 19 20  2  0
 20 21  1  0
 21 22  2  0
 22 23  1  0
 23 24  1  0
 24 25  2  0
 25 26  1  0
 26 27  2  0
 27 28  1  0
 28 29  2  0
 22 30  1  0
 30 31  2  0
 17  4  1  0
 31 19  1  0
 15 10  1  0
 29 24  1  0
  5 32  1  0
  6 33  1  0
  8 34  1  0
  8 35  1  0
  9 36  1  0
  9 37  1  0
 11 38  1  0
 11 39  1  0
 12 40  1  0
 12 41  1  0
 14 42  1  0
 14 43  1  0
 15 44  1  0
 15 45  1  0
 16 46  1  0
 17 47  1  0
 20 48  1  0
 21 49  1  0
 25 50  1  0
 26 51  1  0
 27 52  1  0
 28 53  1  0
 29 54  1  0
 30 55  1  0
 31 56  1  0
M  CHG  2   3  -1  18  -1
M  END
>  <UniqueID>  (39) 
37

>  <SMILES>  (39) 
O=C([N-]c1ccc(CCN2CCSCC2)cc1)[N-]c1ccc(Oc2ccccc2)cc1

>  <Energy>  (39) 
76.4845907587503

>  <Genealogy>  (39) 
O=C([N-]c1ccc(CCN2CCSCC2)cc1)[N-]c1ccc(Oc2ccccc2)cc1 (protonated)
O=C([N-]c1ccc(CCN2CCSCC2)cc1)[N-]c1ccc(Oc2ccccc2)cc1 (3D coordinates assigned)
O=C([N-]c1ccc(CCN2CCSCC2)cc1)[N-]c1ccc(Oc2ccccc2)cc1 (nonaromatic ring conformer: 76.4845907587503 kcal/mol)

>  <smiles>  (39) 
O=C(Nc1ccc(CCN2CCSCC2)cc1)Nc1ccc(Oc2ccccc2)cc1

>  <score_type>  (39) 
oracle

>  <origin>  (39) 
adg

>  <m_score__min__energy>  (39) 
-11.77

>  <m_primary>  (39) 
energy

$$$$
39:0
     RDKit          3D

 45 46  0  0  0  0  0  0  0  0999 V2000
   59.6030   28.7200   44.4720 C   0  0  0  0  0  0  0  0  0  0  0  0
   59.1780   29.6060   45.5690 N   0  0  0  0  0  0  0  0  0  0  0  0
   60.3270   30.0680   46.3610 C   0  0  0  0  0  0  0  0  0  0  0  0
   58.0850   29.0390   46.3910 C   0  0  0  0  0  0  0  0  0  0  0  0
   57.0510   28.1910   45.6140 C   0  0  0  0  0  0  0  0  0  0  0  0
   55.8700   28.9720   45.2500 N   0  0  0  0  0  0  0  0  0  0  0  0
   55.6520   29.7320   44.0500 C   0  0  0  0  0  0  0  0  0  0  0  0
   54.5830   29.5360   43.4140 O   0  0  0  0  0  0  0  0  0  0  0  0
   56.6220   30.7200   43.5250 C   0  0  0  0  0  0  0  0  0  0  0  0
   56.6710   30.9750   42.2920 O   0  0  0  0  0  0  0  0  0  0  0  0
   57.5030   31.4100   44.4270 N   0  0  0  0  0  0  0  0  0  0  0  0
   58.4480   32.4290   43.9750 C   0  0  0  0  0  0  0  0  0  0  0  0
   58.1380   33.7750   44.6340 C   0  0  0  0  0  0  0  0  0  0  0  0
   58.5860   33.7740   46.0640 C   0  0  0  0  0  0  0  0  0  0  0  0
   59.3770   34.7800   46.6110 C   0  0  0  0  0  0  0  0  0  0  0  0
   59.6970   34.3620   48.2070 S   0  0  0  0  0  0  0  0  0  0  0  0
   58.8280   32.9180   48.1350 C   0  0  0  0  0  0  0  0  0  0  0  0
   58.6620   31.9490   49.2420 C   0  0  0  0  0  0  0  0  0  0  0  0
   58.1090   32.3440   50.4750 C   0  0  0  0  0  0  0  0  0  0  0  0
   57.9570   31.4190   51.5120 C   0  0  0  0  0  0  0  0  0  0  0  0
   58.3540   30.0920   51.3320 C   0  0  0  0  0  0  0  0  0  0  0  0
   58.2070   29.1970   52.3400 F   0  0  0  0  0  0  0  0  0  0  0  0
   58.9040   29.6870   50.1130 C   0  0  0  0  0  0  0  0  0  0  0  0
   59.0580   30.6090   49.0740 C   0  0  0  0  0  0  0  0  0  0  0  0
   58.2940   32.7440   46.9040 N   0  0  0  0  0  0  0  0  0  0  0  0
   60.0429   27.8029   44.8909 H   0  0  0  0  0  0  0  0  0  0  0  0
   58.7320   28.4592   43.8529 H   0  0  0  0  0  0  0  0  0  0  0  0
   60.3516   29.2361   43.8529 H   0  0  0  0  0  0  0  0  0  0  0  0
   60.0952   29.9748   47.4322 H   0  0  0  0  0  0  0  0  0  0  0  0
   61.2079   29.4542   46.1217 H   0  0  0  0  0  0  0  0  0  0  0  0
   60.5377   31.1208   46.1217 H   0  0  0  0  0  0  0  0  0  0  0  0
   58.5366   28.4007   47.1647 H   0  0  0  0  0  0  0  0  0  0  0  0
   57.5318   29.8978   46.7990 H   0  0  0  0  0  0  0  0  0  0  0  0
   57.5218   27.8091   44.6961 H   0  0  0  0  0  0  0  0  0  0  0  0
   56.7272   27.3662   46.2658 H   0  0  0  0  0  0  0  0  0  0  0  0
   57.5260   31.1340   45.4340 H   0  0  0  0  0  0  0  0  0  0  0  0
   59.4692   32.1207   44.2436 H   0  0  0  0  0  0  0  0  0  0  0  0
   58.3603   32.5377   42.8839 H   0  0  0  0  0  0  0  0  0  0  0  0
   58.6636   34.5739   44.0904 H   0  0  0  0  0  0  0  0  0  0  0  0
   57.0518   33.9457   44.6013 H   0  0  0  0  0  0  0  0  0  0  0  0
   59.7288   35.6843   46.0929 H   0  0  0  0  0  0  0  0  0  0  0  0
   57.7944   33.3876   50.6234 H   0  0  0  0  0  0  0  0  0  0  0  0
   57.5238   31.7369   52.4718 H   0  0  0  0  0  0  0  0  0  0  0  0
   59.2160   28.6418   49.9710 H   0  0  0  0  0  0  0  0  0  0  0  0
   59.4924   30.2846   48.1169 H   0  0  0  0  0  0  0  0  0  0  0  0
  1  2  1  0
  2  3  1  0
  2  4  1  0
  4  5  1  0
  5  6  1  0
  6  7  1  0
  7  8  2  0
  7  9  1  0
  9 10  2  0
  9 11  1  0
 11 12  1  0
 12 13  1  0
 13 14  1  0
 14 15  2  0
 15 16  1  0
 16 17  1  0
 17 18  1  0
 18 19  2  0
 19 20  1  0
 20 21  2  0
 21 22  1  0
 21 23  1  0
 23 24  2  0
 17 25  2  0
 25 14  1  0
 24 18  1  0
  1 26  1  0
  1 27  1  0
  1 28  1  0
  3 29  1  0
  3 30  1  0
  3 31  1  0
  4 32  1  0
  4 33  1  0
  5 34  1  0
  5 35  1  0
 11 36  1  0
 12 37  1  0
 12 38  1  0
 13 39  1  0
 13 40  1  0
 15 41  1  0
 19 42  1  0
 20 43  1  0
 23 44  1  0
 24 45  1  0
M  CHG  1   6  -1
M  END
>  <UniqueID>  (40) 
38

>  <SMILES>  (40) 
CN(C)CC[N-]C(=O)C(=O)NCCc1csc(-c2ccc(F)cc2)n1

>  <Energy>  (40) 
73.14318000495139

>  <Genealogy>  (40) 
CN(C)CC[N-]C(=O)C(=O)NCCc1csc(-c2ccc(F)cc2)n1 (protonated)
CN(C)CC[N-]C(=O)C(=O)NCCc1csc(-c2ccc(F)cc2)n1 (3D coordinates assigned)
CN(C)CC[N-]C(=O)C(=O)NCCc1csc(-c2ccc(F)cc2)n1 (optimized conformer: 73.14318000495139 kcal/mol)

>  <smiles>  (40) 
CN(C)CCNC(=O)C(=O)NCCc1csc(-c2ccc(F)cc2)n1

>  <score_type>  (40) 
oracle

>  <origin>  (40) 
adg

>  <m_score__min__energy>  (40) 
-9.2100000000000009

>  <m_primary>  (40) 
energy

$$$$
40:0
     RDKit          3D

 34 36  0  0  0  0  0  0  0  0999 V2000
   57.1690   32.9180   44.6240 H   0  0  0  0  0  0  0  0  0  0  0  0
   57.6960   33.5700   45.1920 O   0  0  0  0  0  0  0  0  0  0  0  0
   58.3270   33.1710   46.3690 C   0  0  0  0  0  0  0  0  0  0  0  0
   58.8960   34.1330   47.2180 C   0  0  0  0  0  0  0  0  0  0  0  0
   58.8777   35.1949   46.9316 H   0  0  0  0  0  0  0  0  0  0  0  0
   59.4850   33.7490   48.4240 C   0  0  0  0  0  0  0  0  0  0  0  0
   59.9324   34.5078   49.0829 H   0  0  0  0  0  0  0  0  0  0  0  0
   59.5070   32.4030   48.7950 C   0  0  0  0  0  0  0  0  0  0  0  0
   59.9638   32.1032   49.7497 H   0  0  0  0  0  0  0  0  0  0  0  0
   58.9490   31.4370   47.9540 C   0  0  0  0  0  0  0  0  0  0  0  0
   58.9607   30.3789   48.2546 H   0  0  0  0  0  0  0  0  0  0  0  0
   58.3730   31.8070   46.7270 C   0  0  0  0  0  0  0  0  0  0  0  0
   57.8080   30.7940   45.8790 N   0  0  0  0  0  0  0  0  0  0  0  0
   56.7440   30.9910   45.1170 N   0  0  0  0  0  0  0  0  0  0  0  0
   56.4510   29.8310   44.4890 C   0  0  0  0  0  0  0  0  0  0  0  0
   55.3710   29.7090   43.7130 C   0  0  0  0  0  0  0  0  0  0  0  0
   55.1575   28.7522   43.2141 H   0  0  0  0  0  0  0  0  0  0  0  0
   54.6949   30.5653   43.5728 H   0  0  0  0  0  0  0  0  0  0  0  0
   57.3790   28.8460   44.8680 C   0  0  0  0  0  0  0  0  0  0  0  0
   57.5160   27.5540   44.5070 C   0  0  0  0  0  0  0  0  0  0  0  0
   57.6683   27.3404   43.4387 H   0  0  0  0  0  0  0  0  0  0  0  0
   57.4780   26.4070   45.4280 C   0  0  0  0  0  0  0  0  0  0  0  0
   58.6110   25.5890   45.5520 C   0  0  0  0  0  0  0  0  0  0  0  0
   59.5231   25.8264   44.9848 H   0  0  0  0  0  0  0  0  0  0  0  0
   58.5850   24.4730   46.3940 C   0  0  0  0  0  0  0  0  0  0  0  0
   59.4809   23.8436   46.4998 H   0  0  0  0  0  0  0  0  0  0  0  0
   57.4210   24.1560   47.1020 C   0  0  0  0  0  0  0  0  0  0  0  0
   57.3970   23.0470   47.9390 O   0  0  0  0  0  0  0  0  0  0  0  0
   56.2790   24.9510   46.9620 C   0  0  0  0  0  0  0  0  0  0  0  0
   55.3626   24.6971   47.5150 H   0  0  0  0  0  0  0  0  0  0  0  0
   56.2990   26.0690   46.1200 C   0  0  0  0  0  0  0  0  0  0  0  0
   55.1480   26.8360   45.9750 O   0  0  0  0  0  0  0  0  0  0  0  0
   58.1950   29.5070   45.7680 C   0  0  0  0  0  0  0  0  0  0  0  0
   59.1450   28.9920   46.4170 O   0  0  0  0  0  0  0  0  0  0  0  0
  1  2  1  0
  2  3  1  0
  3  4  2  0
  4  5  1  0
  4  6  1  0
  6  7  1  0
  6  8  2  0
  8  9  1  0
  8 10  1  0
 10 11  1  0
 10 12  2  0
 12 13  1  0
 13 14  1  0
 14 15  1  0
 15 16  2  0
 16 17  1  0
 16 18  1  0
 15 19  1  0
 19 20  2  0
 20 21  1  0
 20 22  1  0
 22 23  2  0
 23 24  1  0
 23 25  1  0
 25 26  1  0
 25 27  2  0
 27 28  1  0
 27 29  1  0
 29 30  1  0
 29 31  2  0
 31 32  1  0
 19 33  1  0
 33 34  2  0
 12  3  1  0
 33 13  1  0
 31 22  1  0
M  CHG  3  14  -1  28  -1  32  -1
M  END
>  <UniqueID>  (41) 
39

>  <SMILES>  (41) 
C=c1[n-]n(-c2ccccc2O)c(=O)/c1=C/c1ccc([O-])cc1[O-]

>  <Energy>  (41) 
88.48389791624558

>  <Genealogy>  (41) 
C=c1[n-]n(-c2ccccc2O)c(=O)c1=Cc1ccc([O-])cc1[O-] (protonated)
C=c1[n-]n(-c2ccccc2O)c(=O)/c1=C/c1ccc([O-])cc1[O-] (cis-trans isomerization)
C=c1[n-]n(-c2ccccc2O)c(=O)/c1=C/c1ccc([O-])cc1[O-] (3D coordinates assigned)
C=c1[n-]n(-c2ccccc2O)c(=O)/c1=C/c1ccc([O-])cc1[O-] (optimized conformer: 88.48389791624558 kcal/mol)

>  <smiles>  (41) 
C=c1[nH]n(-c2ccccc2O)c(=O)c1=Cc1ccc(O)cc1O

>  <score_type>  (41) 
oracle

>  <origin>  (41) 
adg

>  <m_score__min__energy>  (41) 
-14

>  <m_primary>  (41) 
energy

$$$$
41:0
     RDKit          3D

 71 74  0  0  0  0  0  0  0  0999 V2000
   62.3700   33.0610   47.1430 C   0  0  0  0  0  0  0  0  0  0  0  0
   61.0140   33.4110   47.4030 O   0  0  0  0  0  0  0  0  0  0  0  0
   59.9090   32.8890   46.7070 C   0  0  0  0  0  0  0  0  0  0  0  0
   59.3630   33.5400   45.5830 C   0  0  0  0  0  0  0  0  0  0  0  0
   58.2390   33.0200   44.9380 C   0  0  0  0  0  0  0  0  0  0  0  0
   57.6520   31.8280   45.3880 C   0  0  0  0  0  0  0  0  0  0  0  0
   56.4830   31.2760   44.7700 N   0  0  0  0  0  0  0  0  0  0  0  0
   56.2360   29.9030   44.4390 C   0  0  0  0  0  0  0  0  0  0  0  0
   57.1810   29.0940   43.6010 C   0  0  0  0  0  0  0  0  0  0  0  0
   55.2130   29.3410   44.9130 O   0  0  0  0  0  0  0  0  0  0  0  0
   58.1760   31.1930   46.5170 C   0  0  0  0  0  0  0  0  0  0  0  0
   59.3140   31.6940   47.1640 C   0  0  0  0  0  0  0  0  0  0  0  0
   59.8160   31.0040   48.3180 N   0  0  0  0  0  0  0  0  0  0  0  0
   59.2810   29.7570   48.7830 C   0  0  0  0  0  0  0  0  0  0  0  0
   58.1470   29.3750   48.3850 O   0  0  0  0  0  0  0  0  0  0  0  0
   60.0130   28.9520   49.7880 C   0  0  0  0  0  0  0  0  0  0  0  0
   60.2470   29.4950   51.0630 C   0  0  0  0  0  0  0  0  0  0  0  0
   60.9650   28.7760   52.0190 C   0  0  0  0  0  0  0  0  0  0  0  0
   61.4520   27.5050   51.7170 C   0  0  0  0  0  0  0  0  0  0  0  0
   61.2120   26.9410   50.4630 C   0  0  0  0  0  0  0  0  0  0  0  0
   60.4760   27.6490   49.4910 C   0  0  0  0  0  0  0  0  0  0  0  0
   60.1660   27.0830   48.2400 O   0  0  0  0  0  0  0  0  0  0  0  0
   60.6850   27.5130   46.9800 C   0  0  0  0  0  0  0  0  0  0  0  0
   59.5850   27.8910   46.0350 C   0  0  0  0  0  0  0  0  0  0  0  0
   59.8760   28.4710   44.9550 O   0  0  0  0  0  0  0  0  0  0  0  0
   58.2240   27.5700   46.3490 N   0  0  0  0  0  0  0  0  0  0  0  0
   57.4880   26.4500   45.8360 C   0  0  0  0  0  0  0  0  0  0  0  0
   57.8680   25.8940   44.6080 C   0  0  0  0  0  0  0  0  0  0  0  0
   57.1520   24.8250   44.0620 C   0  0  0  0  0  0  0  0  0  0  0  0
   56.0580   24.2850   44.7480 C   0  0  0  0  0  0  0  0  0  0  0  0
   55.1370   22.9700   44.0220 S   0  0  0  0  0  0  0  0  0  0  0  0
   53.7550   22.9840   44.6120 O   0  0  0  0  0  0  0  0  0  0  0  0
   55.0290   23.1900   42.5390 O   0  0  0  0  0  0  0  0  0  0  0  0
   55.9100   21.4350   44.3650 N   0  0  0  0  0  0  0  0  0  0  0  0
   56.1160   21.1920   45.8080 C   0  0  0  0  0  0  0  0  0  0  0  0
   57.3180   21.9550   46.3790 C   0  0  0  0  0  0  0  0  0  0  0  0
   58.5820   21.6490   45.5760 C   0  0  0  0  0  0  0  0  0  0  0  0
   58.3620   21.9490   44.0930 C   0  0  0  0  0  0  0  0  0  0  0  0
   57.1250   21.2060   43.5560 C   0  0  0  0  0  0  0  0  0  0  0  0
   55.7050   24.8070   46.0010 C   0  0  0  0  0  0  0  0  0  0  0  0
   56.4160   25.8820   46.5430 C   0  0  0  0  0  0  0  0  0  0  0  0
   62.9024   32.9236   48.0957 H   0  0  0  0  0  0  0  0  0  0  0  0
   62.4030   32.1249   46.5662 H   0  0  0  0  0  0  0  0  0  0  0  0
   62.8519   33.8642   46.5662 H   0  0  0  0  0  0  0  0  0  0  0  0
   59.8261   34.4656   45.2105 H   0  0  0  0  0  0  0  0  0  0  0  0
   57.8117   33.5477   44.0726 H   0  0  0  0  0  0  0  0  0  0  0  0
   57.8522   28.5194   44.2563 H   0  0  0  0  0  0  0  0  0  0  0  0
   56.6078   28.4024   42.9661 H   0  0  0  0  0  0  0  0  0  0  0  0
   57.7760   29.7669   42.9661 H   0  0  0  0  0  0  0  0  0  0  0  0
   57.6881   30.2862   46.9039 H   0  0  0  0  0  0  0  0  0  0  0  0
   60.4950   31.5090   48.9340 H   0  0  0  0  0  0  0  0  0  0  0  0
   59.8609   30.4951   51.3092 H   0  0  0  0  0  0  0  0  0  0  0  0
   61.1471   29.2124   53.0122 H   0  0  0  0  0  0  0  0  0  0  0  0
   62.0270   26.9451   52.4692 H   0  0  0  0  0  0  0  0  0  0  0  0
   61.5995   25.9379   50.2317 H   0  0  0  0  0  0  0  0  0  0  0  0
   61.3350   28.3859   47.1399 H   0  0  0  0  0  0  0  0  0  0  0  0
   61.2509   26.6804   46.5367 H   0  0  0  0  0  0  0  0  0  0  0  0
   58.7362   26.3016   44.0694 H   0  0  0  0  0  0  0  0  0  0  0  0
   57.4495   24.4064   43.0892 H   0  0  0  0  0  0  0  0  0  0  0  0
   55.2116   21.5072   46.3491 H   0  0  0  0  0  0  0  0  0  0  0  0
   56.3175   20.1181   45.9352 H   0  0  0  0  0  0  0  0  0  0  0  0
   57.1145   23.0351   46.3347 H   0  0  0  0  0  0  0  0  0  0  0  0
   57.4753   21.6392   47.4209 H   0  0  0  0  0  0  0  0  0  0  0  0
   59.4085   22.2700   45.9519 H   0  0  0  0  0  0  0  0  0  0  0  0
   58.8256   20.5824   45.6902 H   0  0  0  0  0  0  0  0  0  0  0  0
   58.2157   23.0315   43.9631 H   0  0  0  0  0  0  0  0  0  0  0  0
   59.2452   21.6088   43.5324 H   0  0  0  0  0  0  0  0  0  0  0  0
   56.9304   21.5484   42.5289 H   0  0  0  0  0  0  0  0  0  0  0  0
   57.3471   20.1295   43.5985 H   0  0  0  0  0  0  0  0  0  0  0  0
   54.8650   24.3687   46.5598 H   0  0  0  0  0  0  0  0  0  0  0  0
   56.1344   26.2844   47.5273 H   0  0  0  0  0  0  0  0  0  0  0  0
  1  2  1  0
  2  3  1  0
  3  4  2  0
  4  5  1  0
  5  6  2  0
  6  7  1  0
  7  8  1  0
  8  9  1  0
  8 10  2  0
  6 11  1  0
 11 12  2  0
 12 13  1  0
 13 14  1  0
 14 15  2  0
 14 16  1  0
 16 17  2  0
 17 18  1  0
 18 19  2  0
 19 20  1  0
 20 21  2  0
 21 22  1  0
 22 23  1  0
 23 24  1  0
 24 25  2  0
 24 26  1  0
 26 27  1  0
 27 28  2  0
 28 29  1  0
 29 30  2  0
 30 31  1  0
 31 32  2  0
 31 33  2  0
 31 34  1  0
 34 35  1  0
 35 36  1  0
 36 37  1  0
 37 38  1  0
 38 39  1  0
 30 40  1  0
 40 41  2  0
 12  3  1  0
 21 16  1  0
 41 27  1  0
 39 34  1  0
  1 42  1  0
  1 43  1  0
  1 44  1  0
  4 45  1  0
  5 46  1  0
  9 47  1  0
  9 48  1  0
  9 49  1  0
 11 50  1  0
 13 51  1  0
 17 52  1  0
 18 53  1  0
 19 54  1  0
 20 55  1  0
 23 56  1  0
 23 57  1  0
 28 58  1  0
 29 59  1  0
 35 60  1  0
 35 61  1  0
 36 62  1  0
 36 63  1  0
 37 64  1  0
 37 65  1  0
 38 66  1  0
 38 67  1  0
 39 68  1  0
 39 69  1  0
 40 70  1  0
 41 71  1  0
M  CHG  2   7  -1  26  -1
M  END
>  <UniqueID>  (42) 
40

>  <SMILES>  (42) 
COc1ccc([N-]C(C)=O)cc1NC(=O)c1ccccc1OCC(=O)[N-]c1ccc(S(=O)(=O)N2CCCCC2)cc1

>  <Energy>  (42) 
87.59749525093166

>  <Genealogy>  (42) 
COc1ccc([N-]C(C)=O)cc1NC(=O)c1ccccc1OCC(=O)[N-]c1ccc(S(=O)(=O)N2CCCCC2)cc1 (protonated)
COc1ccc([N-]C(C)=O)cc1NC(=O)c1ccccc1OCC(=O)[N-]c1ccc(S(=O)(=O)N2CCCCC2)cc1 (3D coordinates assigned)
COc1ccc([N-]C(C)=O)cc1NC(=O)c1ccccc1OCC(=O)[N-]c1ccc(S(=O)(=O)N2CCCCC2)cc1 (nonaromatic ring conformer: 87.59749525093166 kcal/mol)

>  <smiles>  (42) 
COc1ccc(NC(C)=O)cc1NC(=O)c1ccccc1OCC(=O)Nc1ccc(S(=O)(=O)N2CCCCC2)cc1

>  <score_type>  (42) 
oracle

>  <origin>  (42) 
adg

>  <m_score__min__energy>  (42) 
-13.85

>  <m_primary>  (42) 
energy

$$$$
42:0
     RDKit          3D

 40 42  0  0  0  0  0  0  0  0999 V2000
   60.4070   33.4910   52.3000 C   0  0  0  0  0  0  0  0  0  0  0  0
   59.9900   33.4230   50.8660 C   0  0  0  0  0  0  0  0  0  0  0  0
   58.9430   32.5860   50.4660 C   0  0  0  0  0  0  0  0  0  0  0  0
   58.5760   32.5460   49.1570 N   0  0  0  0  0  0  0  0  0  0  0  0
   59.2080   33.3110   48.2180 C   0  0  0  0  0  0  0  0  0  0  0  0
   58.7970   33.2470   46.7920 C   0  0  0  0  0  0  0  0  0  0  0  0
   59.4050   34.0670   45.8310 C   0  0  0  0  0  0  0  0  0  0  0  0
   58.9830   34.0030   44.5030 C   0  0  0  0  0  0  0  0  0  0  0  0
   57.9830   33.1570   44.1450 N   0  0  0  0  0  0  0  0  0  0  0  0
   57.3660   32.3410   45.0420 C   0  0  0  0  0  0  0  0  0  0  0  0
   56.4030   31.5730   44.6200 N   0  0  0  0  0  0  0  0  0  0  0  0
   56.5140   29.8720   44.2710 S   0  0  0  0  0  0  0  0  0  0  0  0
   56.4980   29.6930   42.7780 O   0  0  0  0  0  0  0  0  0  0  0  0
   55.3180   29.1820   44.8620 O   0  0  0  0  0  0  0  0  0  0  0  0
   57.9830   29.1740   44.9820 C   0  0  0  0  0  0  0  0  0  0  0  0
   59.1890   29.8860   44.8620 C   0  0  0  0  0  0  0  0  0  0  0  0
   60.3790   29.3580   45.3590 C   0  0  0  0  0  0  0  0  0  0  0  0
   60.3830   28.1170   45.9900 C   0  0  0  0  0  0  0  0  0  0  0  0
   59.1940   27.4030   46.1440 C   0  0  0  0  0  0  0  0  0  0  0  0
   59.2340   26.1950   46.7640 F   0  0  0  0  0  0  0  0  0  0  0  0
   57.9760   27.9300   45.6650 C   0  0  0  0  0  0  0  0  0  0  0  0
   56.7070   27.1400   45.8530 C   0  0  0  0  0  0  0  0  0  0  0  0
   57.7770   32.3700   46.3900 C   0  0  0  0  0  0  0  0  0  0  0  0
   60.2570   34.1520   48.6270 C   0  0  0  0  0  0  0  0  0  0  0  0
   60.6200   34.1860   49.9340 N   0  0  0  0  0  0  0  0  0  0  0  0
   59.5274   33.3476   52.9448 H   0  0  0  0  0  0  0  0  0  0  0  0
   61.1448   32.7013   52.5052 H   0  0  0  0  0  0  0  0  0  0  0  0
   60.8556   34.4742   52.5052 H   0  0  0  0  0  0  0  0  0  0  0  0
   58.4192   31.9634   51.2063 H   0  0  0  0  0  0  0  0  0  0  0  0
   57.7770   31.9300   48.8880 H   0  0  0  0  0  0  0  0  0  0  0  0
   60.2104   34.7571   46.1227 H   0  0  0  0  0  0  0  0  0  0  0  0
   59.4614   34.6394   43.7440 H   0  0  0  0  0  0  0  0  0  0  0  0
   59.1935   30.8702   44.3707 H   0  0  0  0  0  0  0  0  0  0  0  0
   61.3169   29.9228   45.2526 H   0  0  0  0  0  0  0  0  0  0  0  0
   61.3269   27.6978   46.3686 H   0  0  0  0  0  0  0  0  0  0  0  0
   56.5080   27.0161   46.9277 H   0  0  0  0  0  0  0  0  0  0  0  0
   55.8686   27.6760   45.3843 H   0  0  0  0  0  0  0  0  0  0  0  0
   56.8179   26.1511   45.3843 H   0  0  0  0  0  0  0  0  0  0  0  0
   57.2993   31.7065   47.1259 H   0  0  0  0  0  0  0  0  0  0  0  0
   60.7812   34.7796   47.8912 H   0  0  0  0  0  0  0  0  0  0  0  0
  1  2  1  0
  2  3  2  0
  3  4  1  0
  4  5  2  0
  5  6  1  0
  6  7  1  0
  7  8  2  0
  8  9  1  0
  9 10  1  0
 10 11  2  3
 11 12  1  0
 12 13  2  0
 12 14  2  0
 12 15  1  0
 15 16  2  0
 16 17  1  0
 17 18  2  0
 18 19  1  0
 19 20  1  0
 19 21  2  0
 21 22  1  0
 10 23  1  0
  5 24  1  0
 24 25  2  0
 25  2  1  0
 23  6  2  0
 21 15  1  0
  1 26  1  0
  1 27  1  0
  1 28  1  0
  3 29  1  0
  4 30  1  0
  7 31  1  0
  8 32  1  0
 16 33  1  0
 17 34  1  0
 18 35  1  0
 22 36  1  0
 22 37  1  0
 22 38  1  0
 23 39  1  0
 24 40  1  0
M  CHG  2   4   1   9  -1
M  END
>  <UniqueID>  (43) 
41

>  <SMILES>  (43) 
Cc1c[nH+]c(-c2cc[n-]c(=NS(=O)(=O)c3cccc(F)c3C)c2)cn1

>  <Energy>  (43) 
55.20795273108965

>  <Genealogy>  (43) 
Cc1c[nH+]c(-c2cc[n-]c(=NS(=O)(=O)c3cccc(F)c3C)c2)cn1 (protonated)
Cc1c[nH+]c(-c2cc[n-]c(=NS(=O)(=O)c3cccc(F)c3C)c2)cn1 (3D coordinates assigned)
Cc1c[nH+]c(-c2cc[n-]c(=NS(=O)(=O)c3cccc(F)c3C)c2)cn1 (optimized conformer: 55.20795273108965 kcal/mol)

>  <smiles>  (43) 
Cc1cnc(-c2cc[nH]c(=NS(=O)(=O)c3cccc(F)c3C)c2)cn1

>  <score_type>  (43) 
oracle

>  <origin>  (43) 
adg

>  <m_score__min__energy>  (43) 
-8.4000000000000004

>  <m_primary>  (43) 
energy

$$$$
43:0
     RDKit          3D

 25 27  0  0  0  0  0  0  0  0999 V2000
   59.9720   34.2140   48.3550 C   0  0  0  0  0  0  0  0  0  0  0  0
   59.3690   33.8480   47.0320 C   0  0  0  0  0  0  0  0  0  0  0  0
   58.9790   34.8640   46.1230 C   0  0  0  0  0  0  0  0  0  0  0  0
   58.4370   34.5290   44.8690 C   0  0  0  0  0  0  0  0  0  0  0  0
   58.3200   33.1800   44.5480 C   0  0  0  0  0  0  0  0  0  0  0  0
   58.7170   32.1980   45.4040 C   0  0  0  0  0  0  0  0  0  0  0  0
   59.2400   32.4910   46.6630 C   0  0  0  0  0  0  0  0  0  0  0  0
   58.4520   30.9120   44.8510 N   0  0  0  0  0  0  0  0  0  0  0  0
   57.6450   29.9200   45.5610 C   0  0  0  0  0  0  0  0  0  0  0  0
   56.5000   29.7290   44.6400 C   0  0  0  0  0  0  0  0  0  0  0  0
   55.5200   28.9730   44.8680 O   0  0  0  0  0  0  0  0  0  0  0  0
   56.6300   30.4910   43.4540 N   0  0  0  0  0  0  0  0  0  0  0  0
   57.9180   31.1610   43.4990 C   0  0  1  0  0  0  0  0  0  0  0  0
   57.7720   32.6140   43.3730 N   0  0  0  0  0  0  0  0  0  0  0  0
   59.3372   33.8287   49.1665 H   0  0  0  0  0  0  0  0  0  0  0  0
   60.9766   33.7731   48.4346 H   0  0  0  0  0  0  0  0  0  0  0  0
   60.0446   35.3087   48.4346 H   0  0  0  0  0  0  0  0  0  0  0  0
   59.1012   35.9214   46.4004 H   0  0  0  0  0  0  0  0  0  0  0  0
   58.1155   35.3095   44.1637 H   0  0  0  0  0  0  0  0  0  0  0  0
   59.5437   31.6872   47.3498 H   0  0  0  0  0  0  0  0  0  0  0  0
   58.2017   28.9822   45.7047 H   0  0  0  0  0  0  0  0  0  0  0  0
   57.3495   30.2343   46.5729 H   0  0  0  0  0  0  0  0  0  0  0  0
   55.9780   30.4710   42.6390 H   0  0  0  0  0  0  0  0  0  0  0  0
   58.5556   30.7921   42.6821 H   0  0  0  0  0  0  0  0  0  0  0  0
   57.4180   33.1340   42.5400 H   0  0  0  0  0  0  0  0  0  0  0  0
  1  2  1  0
  2  3  2  0
  3  4  1  0
  4  5  2  0
  5  6  1  0
  6  7  2  0
  6  8  1  0
  8  9  1  0
  9 10  1  0
 10 11  2  0
 10 12  1  0
 12 13  1  0
 13 14  1  0
  7  2  1  0
 13  8  1  0
 14  5  1  0
  1 15  1  0
  1 16  1  0
  1 17  1  0
  3 18  1  0
  4 19  1  0
  7 20  1  0
  9 21  1  0
  9 22  1  0
 12 23  1  0
 13 24  1  6
 14 25  1  0
M  END
>  <UniqueID>  (44) 
42

>  <SMILES>  (44) 
Cc1ccc2c(c1)N1CC(=O)N[C@H]1N2

>  <Energy>  (44) 
65.25595946606042

>  <Genealogy>  (44) 
Cc1ccc2c(c1)N1CC(=O)N[C@H]1N2 (chirality)
Cc1ccc2c(c1)N1CC(=O)N[C@H]1N2 (3D coordinates assigned)
Cc1ccc2c(c1)N1CC(=O)N[C@H]1N2 (nonaromatic ring conformer: 65.25595946606042 kcal/mol)

>  <smiles>  (44) 
Cc1ccc2c(c1)N1CC(=O)NC1N2

>  <score_type>  (44) 
oracle

>  <origin>  (44) 
adg

>  <m_score__min__energy>  (44) 
-5.8099999999999996

>  <m_primary>  (44) 
energy

$$$$
44:0
     RDKit          3D

 35 37  0  0  0  0  0  0  0  0999 V2000
   58.1916   29.7419   52.2804 H   0  0  0  0  0  0  0  0  0  0  0  0
   57.2300   30.1160   51.8990 C   0  0  0  0  0  0  0  0  0  0  0  0
   57.1973   30.6985   50.9665 H   0  0  0  0  0  0  0  0  0  0  0  0
   56.0890   29.8600   52.5760 C   0  0  0  0  0  0  0  0  0  0  0  0
   54.8570   30.3470   52.0750 C   0  0  0  0  0  0  0  0  0  0  0  0
   54.8360   31.0560   51.0290 O   0  0  0  0  0  0  0  0  0  0  0  0
   53.6670   30.0600   52.7810 C   0  0  0  0  0  0  0  0  0  0  0  0
   52.4320   30.4470   52.3940 C   0  0  0  0  0  0  0  0  0  0  0  0
   51.7009   30.6502   53.1904 H   0  0  0  0  0  0  0  0  0  0  0  0
   51.9710   30.6230   51.0010 C   0  0  0  0  0  0  0  0  0  0  0  0
   52.1340   29.5880   50.0650 C   0  0  0  0  0  0  0  0  0  0  0  0
   52.6443   28.6591   50.3594 H   0  0  0  0  0  0  0  0  0  0  0  0
   51.6510   29.7330   48.7620 C   0  0  0  0  0  0  0  0  0  0  0  0
   51.7959   28.9256   48.0292 H   0  0  0  0  0  0  0  0  0  0  0  0
   50.9840   30.9030   48.3890 C   0  0  0  0  0  0  0  0  0  0  0  0
   50.6103   31.0184   47.3609 H   0  0  0  0  0  0  0  0  0  0  0  0
   50.7910   31.9280   49.3220 C   0  0  0  0  0  0  0  0  0  0  0  0
   50.1160   33.0830   48.9470 O   0  0  0  0  0  0  0  0  0  0  0  0
   51.2760   31.7870   50.6290 C   0  0  0  0  0  0  0  0  0  0  0  0
   51.0700   32.8080   51.5530 O   0  0  0  0  0  0  0  0  0  0  0  0
   53.7590   29.3720   53.9470 N   0  0  0  0  0  0  0  0  0  0  0  0
   54.9360   28.9180   54.4350 C   0  0  0  0  0  0  0  0  0  0  0  0
   54.9380   28.2800   55.5230 O   0  0  0  0  0  0  0  0  0  0  0  0
   56.1030   29.1430   53.7560 N   0  0  0  0  0  0  0  0  0  0  0  0
   57.3260   28.6180   54.3100 C   0  0  0  0  0  0  0  0  0  0  0  0
   57.9340   27.4930   53.7320 C   0  0  0  0  0  0  0  0  0  0  0  0
   57.4766   27.0127   52.8545 H   0  0  0  0  0  0  0  0  0  0  0  0
   59.1190   26.9810   54.2680 C   0  0  0  0  0  0  0  0  0  0  0  0
   59.5906   26.0968   53.8144 H   0  0  0  0  0  0  0  0  0  0  0  0
   59.7060   27.5930   55.3820 C   0  0  0  0  0  0  0  0  0  0  0  0
   61.3250   26.8930   56.1120 Br  0  0  0  0  0  0  0  0  0  0  0  0
   59.1050   28.7170   55.9590 C   0  0  0  0  0  0  0  0  0  0  0  0
   59.5660   29.1972   56.8347 H   0  0  0  0  0  0  0  0  0  0  0  0
   57.9200   29.2310   55.4250 C   0  0  0  0  0  0  0  0  0  0  0  0
   57.3440   30.3210   55.9920 F   0  0  0  0  0  0  0  0  0  0  0  0
  1  2  1  0
  2  3  1  0
  2  4  2  0
  4  5  1  0
  5  6  2  0
  5  7  1  0
  7  8  2  0
  8  9  1  0
  8 10  1  0
 10 11  2  0
 11 12  1  0
 11 13  1  0
 13 14  1  0
 13 15  2  0
 15 16  1  0
 15 17  1  0
 17 18  1  0
 17 19  2  0
 19 20  1  0
  7 21  1  0
 21 22  1  0
 22 23  2  0
 22 24  1  0
 24 25  1  0
 25 26  2  0
 26 27  1  0
 26 28  1  0
 28 29  1  0
 28 30  2  0
 30 31  1  0
 30 32  1  0
 32 33  1  0
 32 34  2  0
 34 35  1  0
 24  4  1  0
 34 25  1  0
 19 10  1  0
M  CHG  3  18  -1  20  -1  21  -1
M  END
>  <UniqueID>  (45) 
43

>  <SMILES>  (45) 
C=c1c(=O)/c(=C\c2cccc([O-])c2[O-])[n-]c(=O)n1-c1ccc(Br)cc1F

>  <Energy>  (45) 
67.51690383474157

>  <Genealogy>  (45) 
C=c1c(=O)c(=Cc2cccc([O-])c2[O-])[n-]c(=O)n1-c1ccc(Br)cc1F (protonated)
C=c1c(=O)/c(=C\c2cccc([O-])c2[O-])[n-]c(=O)n1-c1ccc(Br)cc1F (cis-trans isomerization)
C=c1c(=O)/c(=C\c2cccc([O-])c2[O-])[n-]c(=O)n1-c1ccc(Br)cc1F (3D coordinates assigned)
C=c1c(=O)/c(=C\c2cccc([O-])c2[O-])[n-]c(=O)n1-c1ccc(Br)cc1F (optimized conformer: 67.51690383474157 kcal/mol)

>  <smiles>  (45) 
C=c1c(=O)c(=Cc2cccc(O)c2O)[nH]c(=O)n1-c1ccc(Br)cc1F

>  <score_type>  (45) 
oracle

>  <origin>  (45) 
adg

>  <m_score__min__energy>  (45) 
-15.69

>  <m_primary>  (45) 
energy

$$$$
45:0
     RDKit          3D

 37 39  0  0  0  0  0  0  0  0999 V2000
   55.1530   27.4790   45.3970 H   0  0  0  0  0  0  0  0  0  0  0  0
   54.9570   26.6940   46.0050 O   0  0  0  0  0  0  0  0  0  0  0  0
   55.9620   25.7960   46.3500 C   0  0  0  0  0  0  0  0  0  0  0  0
   55.7940   24.7790   47.2100 N   0  0  0  0  0  0  0  0  0  0  0  0
   57.0000   24.1690   47.1860 C   0  0  0  0  0  0  0  0  0  0  0  0
   57.2540   23.1430   47.8710 O   0  0  0  0  0  0  0  0  0  0  0  0
   57.9070   24.7380   46.3640 N   0  0  0  0  0  0  0  0  0  0  0  0
   57.2480   25.7940   45.8560 C   0  0  0  0  0  0  0  0  0  0  0  0
   57.7960   26.6660   44.8050 C   0  0  0  0  0  0  0  0  0  0  0  0
   58.2609   26.1752   43.9372 H   0  0  0  0  0  0  0  0  0  0  0  0
   57.7780   28.0120   44.8130 C   0  0  0  0  0  0  0  0  0  0  0  0
   57.3590   28.7620   43.7270 C   0  0  0  0  0  0  0  0  0  0  0  0
   57.0526   28.3758   42.7436 H   0  0  0  0  0  0  0  0  0  0  0  0
   57.3990   30.0850   44.1130 C   0  0  0  0  0  0  0  0  0  0  0  0
   56.9810   31.2330   43.2430 C   0  0  0  0  0  0  0  0  0  0  0  0
   56.6730   32.0789   43.8751 H   0  0  0  0  0  0  0  0  0  0  0  0
   57.8257   31.5383   42.6079 H   0  0  0  0  0  0  0  0  0  0  0  0
   56.1378   30.9237   42.6079 H   0  0  0  0  0  0  0  0  0  0  0  0
   57.8580   30.1950   45.3820 N   0  0  0  0  0  0  0  0  0  0  0  0
   58.0210   31.4250   46.1110 C   0  0  0  0  0  0  0  0  0  0  0  0
   57.3470   32.4420   45.7920 O   0  0  0  0  0  0  0  0  0  0  0  0
   58.8970   31.4750   47.2440 N   0  0  0  0  0  0  0  0  0  0  0  0
   60.2350   31.9870   47.2120 C   0  0  0  0  0  0  0  0  0  0  0  0
   61.3010   31.0830   47.3090 C   0  0  0  0  0  0  0  0  0  0  0  0
   61.0973   30.0067   47.4094 H   0  0  0  0  0  0  0  0  0  0  0  0
   62.6220   31.5400   47.2790 C   0  0  0  0  0  0  0  0  0  0  0  0
   63.4530   30.8252   47.3706 H   0  0  0  0  0  0  0  0  0  0  0  0
   62.8870   32.9020   47.1330 C   0  0  0  0  0  0  0  0  0  0  0  0
   63.9264   33.2619   47.1218 H   0  0  0  0  0  0  0  0  0  0  0  0
   61.8320   33.8090   47.0010 C   0  0  0  0  0  0  0  0  0  0  0  0
   62.0447   34.8808   46.8744 H   0  0  0  0  0  0  0  0  0  0  0  0
   60.5060   33.3610   47.0290 C   0  0  0  0  0  0  0  0  0  0  0  0
   59.2240   34.5320   46.7380 Cl  0  0  0  0  0  0  0  0  0  0  0  0
   58.1330   28.9350   45.8130 C   0  0  0  0  0  0  0  0  0  0  0  0
   58.8090   28.6680   46.9420 C   0  0  0  0  0  0  0  0  0  0  0  0
   59.0304   29.4761   47.6547 H   0  0  0  0  0  0  0  0  0  0  0  0
   59.1414   27.6411   47.1542 H   0  0  0  0  0  0  0  0  0  0  0  0
  1  2  1  0
  2  3  1  0
  3  4  1  0
  4  5  1  0
  5  6  2  0
  5  7  1  0
  7  8  1  0
  8  9  1  0
  9 10  1  0
  9 11  2  0
 11 12  1  0
 12 13  1  0
 12 14  2  0
 14 15  1  0
 15 16  1  0
 15 17  1  0
 15 18  1  0
 14 19  1  0
 19 20  1  0
 20 21  2  0
 20 22  1  0
 22 23  1  0
 23 24  2  0
 24 25  1  0
 24 26  1  0
 26 27  1  0
 26 28  2  0
 28 29  1  0
 28 30  1  0
 30 31  1  0
 30 32  2  0
 32 33  1  0
 19 34  1  0
 34 35  2  0
 35 36  1  0
 35 37  1  0
  8  3  2  0
 34 11  1  0
 32 23  1  0
M  CHG  3   4  -1   7  -1  22  -1
M  END
>  <UniqueID>  (46) 
44

>  <SMILES>  (46) 
C=c1/c(=C\c2[n-]c(=O)[n-]c2O)cc(C)n1C(=O)[N-]c1ccccc1Cl

>  <Energy>  (46) 
119.20183516894014

>  <Genealogy>  (46) 
C=c1c(=Cc2[n-]c(=O)[n-]c2O)cc(C)n1C(=O)[N-]c1ccccc1Cl (protonated)
C=c1/c(=C\c2[n-]c(=O)[n-]c2O)cc(C)n1C(=O)[N-]c1ccccc1Cl (cis-trans isomerization)
C=c1/c(=C\c2[n-]c(=O)[n-]c2O)cc(C)n1C(=O)[N-]c1ccccc1Cl (3D coordinates assigned)
C=c1/c(=C\c2[n-]c(=O)[n-]c2O)cc(C)n1C(=O)[N-]c1ccccc1Cl (optimized conformer: 119.20183516894014 kcal/mol)

>  <smiles>  (46) 
C=c1c(=Cc2[nH]c(=O)[nH]c2O)cc(C)n1C(=O)Nc1ccccc1Cl

>  <score_type>  (46) 
oracle

>  <origin>  (46) 
adg

>  <m_score__min__energy>  (46) 
-14

>  <m_primary>  (46) 
energy

$$$$
46:0
     RDKit          3D

 31 32  0  0  0  0  0  0  0  0999 V2000
   60.9662   27.4479   47.0022 H   0  0  0  0  0  0  0  0  0  0  0  0
   60.2150   27.7560   46.2600 C   0  0  0  0  0  0  0  0  0  0  0  0
   60.5810   28.2030   45.1420 O   0  0  0  0  0  0  0  0  0  0  0  0
   58.7860   27.6460   46.5730 C   0  0  0  0  0  0  0  0  0  0  0  0
   58.3464   26.6547   46.7578 H   0  0  0  0  0  0  0  0  0  0  0  0
   58.0100   28.7330   46.6370 C   0  0  0  0  0  0  0  0  0  0  0  0
   57.6739   29.0851   47.6235 H   0  0  0  0  0  0  0  0  0  0  0  0
   57.5850   29.4820   45.4310 C   0  0  0  0  0  0  0  0  0  0  0  0
   56.3700   29.1820   44.7740 C   0  0  0  0  0  0  0  0  0  0  0  0
   55.5280   28.1800   45.2440 O   0  0  0  0  0  0  0  0  0  0  0  0
   55.9780   29.9140   43.6480 C   0  0  0  0  0  0  0  0  0  0  0  0
   55.0385   29.6657   43.1326 H   0  0  0  0  0  0  0  0  0  0  0  0
   56.7740   30.9570   43.1770 C   0  0  0  0  0  0  0  0  0  0  0  0
   56.4643   31.5245   42.2870 H   0  0  0  0  0  0  0  0  0  0  0  0
   57.9620   31.2830   43.8310 C   0  0  0  0  0  0  0  0  0  0  0  0
   58.5849   32.1070   43.4528 H   0  0  0  0  0  0  0  0  0  0  0  0
   58.3690   30.5670   44.9690 C   0  0  0  0  0  0  0  0  0  0  0  0
   59.6210   30.8820   45.6060 N   0  0  0  0  0  0  0  0  0  0  0  0
   60.4100   30.2120   45.4690 H   0  0  0  0  0  0  0  0  0  0  0  0
   59.8130   32.0400   46.4380 C   0  0  0  0  0  0  0  0  0  0  0  0
   58.8600   32.8470   46.6210 O   0  0  0  0  0  0  0  0  0  0  0  0
   61.1140   32.3040   47.0960 C   0  0  0  0  0  0  0  0  0  0  0  0
   61.6040   31.4210   48.0730 C   0  0  0  0  0  0  0  0  0  0  0  0
   61.0155   30.5346   48.3521 H   0  0  0  0  0  0  0  0  0  0  0  0
   62.8000   31.6540   48.6760 N   0  0  0  0  0  0  0  0  0  0  0  0
   63.5650   32.7310   48.3560 C   0  0  0  0  0  0  0  0  0  0  0  0
   64.6670   32.9120   48.9370 O   0  0  0  0  0  0  0  0  0  0  0  0
   63.1300   33.6300   47.3810 C   0  0  0  0  0  0  0  0  0  0  0  0
   63.7475   34.5002   47.1136 H   0  0  0  0  0  0  0  0  0  0  0  0
   61.9040   33.4150   46.7480 C   0  0  0  0  0  0  0  0  0  0  0  0
   61.5550   34.1160   45.9754 H   0  0  0  0  0  0  0  0  0  0  0  0
  1  2  1  0
  2  3  2  0
  2  4  1  0
  4  5  1  0
  4  6  2  0
  6  7  1  0
  6  8  1  0
  8  9  2  0
  9 10  1  0
  9 11  1  0
 11 12  1  0
 11 13  2  0
 13 14  1  0
 13 15  1  0
 15 16  1  0
 15 17  2  0
 17 18  1  0
 18 19  1  0
 18 20  1  0
 20 21  2  0
 20 22  1  0
 22 23  2  0
 23 24  1  0
 23 25  1  0
 25 26  1  0
 26 27  2  0
 26 28  1  0
 28 29  1  0
 28 30  2  0
 30 31  1  0
 17  8  1  0
 30 22  1  0
M  CHG  2  10  -1  25  -1
M  END
>  <UniqueID>  (47) 
45

>  <SMILES>  (47) 
O=C/C=C/c1c([O-])cccc1NC(=O)c1ccc(=O)[n-]c1

>  <Energy>  (47) 
43.57336278099018

>  <Genealogy>  (47) 
O=CC=Cc1c([O-])cccc1NC(=O)c1ccc(=O)[n-]c1 (protonated)
O=C/C=C/c1c([O-])cccc1NC(=O)c1ccc(=O)[n-]c1 (cis-trans isomerization)
O=C/C=C/c1c([O-])cccc1NC(=O)c1ccc(=O)[n-]c1 (3D coordinates assigned)
O=C/C=C/c1c([O-])cccc1NC(=O)c1ccc(=O)[n-]c1 (optimized conformer: 43.57336278099018 kcal/mol)

>  <smiles>  (47) 
O=CC=Cc1c(O)cccc1NC(=O)c1ccc(=O)[nH]c1

>  <score_type>  (47) 
oracle

>  <origin>  (47) 
adg

>  <m_score__min__energy>  (47) 
-10.09

>  <m_primary>  (47) 
energy

$$$$
47:0
     RDKit          3D

 60 63  0  0  0  0  0  0  0  0999 V2000
   59.0440   34.9600   44.9070 C   0  0  0  0  0  0  0  0  0  0  0  0
   59.0080   33.7920   45.9000 C   0  0  1  0  0  0  0  0  0  0  0  0
   59.2910   34.2340   47.3520 C   0  0  0  0  0  0  0  0  0  0  0  0
   60.6790   33.8890   47.8450 C   0  0  0  0  0  0  0  0  0  0  0  0
   61.1740   34.4620   49.0320 C   0  0  0  0  0  0  0  0  0  0  0  0
   62.4510   34.1300   49.4980 C   0  0  0  0  0  0  0  0  0  0  0  0
   63.2450   33.2250   48.7860 C   0  0  0  0  0  0  0  0  0  0  0  0
   64.8380   32.7950   49.3840 Cl  0  0  0  0  0  0  0  0  0  0  0  0
   62.7610   32.6530   47.6040 C   0  0  0  0  0  0  0  0  0  0  0  0
   61.4830   32.9810   47.1350 C   0  0  0  0  0  0  0  0  0  0  0  0
   57.7120   33.0080   45.7830 C   0  0  0  0  0  0  0  0  0  0  0  0
   56.6440   33.5770   45.9720 O   0  0  0  0  0  0  0  0  0  0  0  0
   57.7330   31.6050   45.4150 N   0  0  0  0  0  0  0  0  0  0  0  0
   57.3340   31.4210   44.0070 C   0  0  0  0  0  0  0  0  0  0  0  0
   57.1090   29.9330   43.7210 C   0  0  0  0  0  0  0  0  0  0  0  0
   58.1020   29.1100   44.4220 N   0  0  0  0  0  0  0  0  0  0  0  0
   57.9370   27.6800   44.4210 C   0  0  0  0  0  0  0  0  0  0  0  0
   57.8320   27.0010   43.1970 C   0  0  0  0  0  0  0  0  0  0  0  0
   57.7050   25.6080   43.1670 C   0  0  0  0  0  0  0  0  0  0  0  0
   57.6820   24.8820   44.3570 C   0  0  0  0  0  0  0  0  0  0  0  0
   57.7930   25.5450   45.5830 C   0  0  0  0  0  0  0  0  0  0  0  0
   57.9290   26.9460   45.6260 C   0  0  0  0  0  0  0  0  0  0  0  0
   58.0350   27.6370   46.8800 N   0  0  0  0  0  0  0  0  0  0  0  0
   59.2240   27.7470   47.6750 C   0  0  0  0  0  0  0  0  0  0  0  0
   60.0320   26.7810   47.6880 O   0  0  0  0  0  0  0  0  0  0  0  0
   59.4810   28.9260   48.5370 C   0  0  0  0  0  0  0  0  0  0  0  0
   60.6700   29.0400   49.2790 C   0  0  0  0  0  0  0  0  0  0  0  0
   60.9160   30.1810   50.0440 C   0  0  0  0  0  0  0  0  0  0  0  0
   59.9750   31.2090   50.0550 C   0  0  0  0  0  0  0  0  0  0  0  0
   60.1860   32.2500   50.7290 O   0  0  0  0  0  0  0  0  0  0  0  0
   58.8290   31.0900   49.3310 N   0  0  0  0  0  0  0  0  0  0  0  0
   58.5640   29.9890   48.5820 C   0  0  0  0  0  0  0  0  0  0  0  0
   59.3410   29.7120   44.9280 C   0  0  0  0  0  0  0  0  0  0  0  0
   59.0750   31.0380   45.6790 C   0  0  0  0  0  0  0  0  0  0  0  0
   59.0733   35.9105   45.4599 H   0  0  0  0  0  0  0  0  0  0  0  0
   59.9400   34.8760   44.2744 H   0  0  0  0  0  0  0  0  0  0  0  0
   58.1445   34.9313   44.2744 H   0  0  0  0  0  0  0  0  0  0  0  0
   59.8304   33.1152   45.6253 H   0  0  0  0  0  0  0  0  0  0  0  0
   59.1650   35.3251   47.4114 H   0  0  0  0  0  0  0  0  0  0  0  0
   58.5828   33.6881   47.9927 H   0  0  0  0  0  0  0  0  0  0  0  0
   60.5538   35.1743   49.5959 H   0  0  0  0  0  0  0  0  0  0  0  0
   62.8312   34.5817   50.4262 H   0  0  0  0  0  0  0  0  0  0  0  0
   63.3862   31.9438   47.0418 H   0  0  0  0  0  0  0  0  0  0  0  0
   61.1068   32.5260   46.2069 H   0  0  0  0  0  0  0  0  0  0  0  0
   57.0380   31.0990   46.0150 H   0  0  0  0  0  0  0  0  0  0  0  0
   56.4026   31.9743   43.8162 H   0  0  0  0  0  0  0  0  0  0  0  0
   58.1317   31.8001   43.3512 H   0  0  0  0  0  0  0  0  0  0  0  0
   56.1018   29.6492   44.0600 H   0  0  0  0  0  0  0  0  0  0  0  0
   57.2117   29.7631   42.6391 H   0  0  0  0  0  0  0  0  0  0  0  0
   57.8497   27.5681   42.2546 H   0  0  0  0  0  0  0  0  0  0  0  0
   57.6232   25.0847   42.2029 H   0  0  0  0  0  0  0  0  0  0  0  0
   57.5765   23.7874   44.3314 H   0  0  0  0  0  0  0  0  0  0  0  0
   57.7740   24.9687   46.5197 H   0  0  0  0  0  0  0  0  0  0  0  0
   61.4096   28.2261   49.2564 H   0  0  0  0  0  0  0  0  0  0  0  0
   61.8419   30.2680   50.6315 H   0  0  0  0  0  0  0  0  0  0  0  0
   57.6275   29.9292   48.0081 H   0  0  0  0  0  0  0  0  0  0  0  0
   59.8244   29.0040   45.6173 H   0  0  0  0  0  0  0  0  0  0  0  0
   59.9885   29.9328   44.0666 H   0  0  0  0  0  0  0  0  0  0  0  0
   59.1684   30.8516   46.7591 H   0  0  0  0  0  0  0  0  0  0  0  0
   59.8130   31.7692   45.3176 H   0  0  0  0  0  0  0  0  0  0  0  0
  1  2  1  0
  2  3  1  0
  3  4  1  0
  4  5  2  0
  5  6  1  0
  6  7  2  0
  7  8  1  0
  7  9  1  0
  9 10  2  0
  2 11  1  0
 11 12  2  0
 11 13  1  0
 13 14  1  0
 14 15  1  0
 15 16  1  0
 16 17  1  0
 17 18  2  0
 18 19  1  0
 19 20  2  0
 20 21  1  0
 21 22  2  0
 22 23  1  0
 23 24  1  0
 24 25  2  0
 24 26  1  0
 26 27  1  0
 27 28  2  0
 28 29  1  0
 29 30  2  0
 29 31  1  0
 31 32  1  0
 16 33  1  0
 33 34  1  0
 10  4  1  0
 34 13  1  0
 22 17  1  0
 32 26  2  0
  1 35  1  0
  1 36  1  0
  1 37  1  0
  2 38  1  6
  3 39  1  0
  3 40  1  0
  5 41  1  0
  6 42  1  0
  9 43  1  0
 10 44  1  0
 13 45  1  0
 14 46  1  0
 14 47  1  0
 15 48  1  0
 15 49  1  0
 18 50  1  0
 19 51  1  0
 20 52  1  0
 21 53  1  0
 27 54  1  0
 28 55  1  0
 32 56  1  0
 33 57  1  0
 33 58  1  0
 34 59  1  0
 34 60  1  0
M  CHG  3  13   1  23  -1  31  -1
M  END
>  <UniqueID>  (48) 
46

>  <SMILES>  (48) 
C[C@@H](Cc1ccc(Cl)cc1)C(=O)[NH+]1CCN(c2ccccc2[N-]C(=O)c2ccc(=O)[n-]c2)CC1

>  <Energy>  (48) 
79.5433193417653

>  <Genealogy>  (48) 
CC(Cc1ccc(Cl)cc1)C(=O)[NH+]1CCN(c2ccccc2[N-]C(=O)c2ccc(=O)[n-]c2)CC1 (protonated)
C[C@@H](Cc1ccc(Cl)cc1)C(=O)[NH+]1CCN(c2ccccc2[N-]C(=O)c2ccc(=O)[n-]c2)CC1 (chirality)
C[C@@H](Cc1ccc(Cl)cc1)C(=O)[NH+]1CCN(c2ccccc2[N-]C(=O)c2ccc(=O)[n-]c2)CC1 (3D coordinates assigned)
C[C@@H](Cc1ccc(Cl)cc1)C(=O)[NH+]1CCN(c2ccccc2[N-]C(=O)c2ccc(=O)[n-]c2)CC1 (nonaromatic ring conformer: 79.5433193417653 kcal/mol)

>  <smiles>  (48) 
CC(Cc1ccc(Cl)cc1)C(=O)N1CCN(c2ccccc2NC(=O)c2ccc(=O)[nH]c2)CC1

>  <score_type>  (48) 
oracle

>  <origin>  (48) 
adg

>  <m_score__min__energy>  (48) 
-11.619999999999999

>  <m_primary>  (48) 
energy

$$$$
48:0
     RDKit          3D

 52 54  0  0  0  0  0  0  0  0999 V2000
   60.4560   33.4350   51.1370 C   0  0  0  0  0  0  0  0  0  0  0  0
   61.6230   32.7180   50.7460 O   0  0  0  0  0  0  0  0  0  0  0  0
   62.2370   32.8230   49.4880 C   0  0  0  0  0  0  0  0  0  0  0  0
   62.7490   34.0440   49.0030 C   0  0  0  0  0  0  0  0  0  0  0  0
   63.3520   34.1050   47.7440 C   0  0  0  0  0  0  0  0  0  0  0  0
   63.4480   32.9560   46.9580 C   0  0  0  0  0  0  0  0  0  0  0  0
   62.9470   31.7390   47.4280 C   0  0  0  0  0  0  0  0  0  0  0  0
   62.3410   31.6670   48.6970 C   0  0  0  0  0  0  0  0  0  0  0  0
   61.8180   30.4380   49.2150 N   0  0  0  0  0  0  0  0  0  0  0  0
   60.1590   29.9340   49.1680 S   0  0  0  0  0  0  0  0  0  0  0  0
   59.2890   31.0360   49.7080 O   0  0  0  0  0  0  0  0  0  0  0  0
   59.9750   28.6830   49.9810 O   0  0  0  0  0  0  0  0  0  0  0  0
   59.7180   29.6220   47.4930 C   0  0  0  0  0  0  0  0  0  0  0  0
   60.6900   29.6560   46.4850 C   0  0  0  0  0  0  0  0  0  0  0  0
   60.3410   29.3570   45.1660 C   0  0  0  0  0  0  0  0  0  0  0  0
   59.0290   28.9930   44.8520 C   0  0  0  0  0  0  0  0  0  0  0  0
   58.0530   28.9290   45.8580 C   0  0  0  0  0  0  0  0  0  0  0  0
   56.6830   28.4880   45.5270 C   0  0  0  0  0  0  0  0  0  0  0  0
   56.3080   27.3430   45.8950 O   0  0  0  0  0  0  0  0  0  0  0  0
   55.7410   29.3340   44.8480 N   0  0  0  0  0  0  0  0  0  0  0  0
   55.7580   29.7060   43.4330 C   0  0  0  0  0  0  0  0  0  0  0  0
   56.6550   30.8860   43.1980 C   0  0  0  0  0  0  0  0  0  0  0  0
   56.9490   31.2160   42.0190 O   0  0  0  0  0  0  0  0  0  0  0  0
   57.1640   31.6370   44.3060 N   0  0  0  0  0  0  0  0  0  0  0  0
   58.1370   32.7110   44.1400 C   0  0  0  0  0  0  0  0  0  0  0  0
   58.5610   33.2340   45.4790 C   0  0  0  0  0  0  0  0  0  0  0  0
   59.4880   34.2830   45.5860 C   0  0  0  0  0  0  0  0  0  0  0  0
   59.8780   34.7280   46.8510 C   0  0  0  0  0  0  0  0  0  0  0  0
   59.3550   34.1190   47.9920 C   0  0  0  0  0  0  0  0  0  0  0  0
   58.4410   33.0710   47.8490 C   0  0  0  0  0  0  0  0  0  0  0  0
   58.0710   32.6540   46.6080 N   0  0  0  0  0  0  0  0  0  0  0  0
   58.3950   29.2950   47.1680 C   0  0  0  0  0  0  0  0  0  0  0  0
   60.3982   33.4705   52.2349 H   0  0  0  0  0  0  0  0  0  0  0  0
   60.5045   34.4593   50.7390 H   0  0  0  0  0  0  0  0  0  0  0  0
   59.5641   32.9288   50.7390 H   0  0  0  0  0  0  0  0  0  0  0  0
   62.6734   34.9525   49.6185 H   0  0  0  0  0  0  0  0  0  0  0  0
   63.7515   35.0600   47.3720 H   0  0  0  0  0  0  0  0  0  0  0  0
   63.9194   33.0083   45.9655 H   0  0  0  0  0  0  0  0  0  0  0  0
   63.0262   30.8356   46.8054 H   0  0  0  0  0  0  0  0  0  0  0  0
   61.7292   29.9184   46.7324 H   0  0  0  0  0  0  0  0  0  0  0  0
   61.1010   29.4082   44.3724 H   0  0  0  0  0  0  0  0  0  0  0  0
   58.7603   28.7557   43.8121 H   0  0  0  0  0  0  0  0  0  0  0  0
   56.1226   28.8534   42.8413 H   0  0  0  0  0  0  0  0  0  0  0  0
   54.7360   29.9767   43.1294 H   0  0  0  0  0  0  0  0  0  0  0  0
   56.8780   31.3670   45.2750 H   0  0  0  0  0  0  0  0  0  0  0  0
   59.0172   32.3249   43.6050 H   0  0  0  0  0  0  0  0  0  0  0  0
   57.6769   33.5275   43.5640 H   0  0  0  0  0  0  0  0  0  0  0  0
   59.9036   34.7504   44.6811 H   0  0  0  0  0  0  0  0  0  0  0  0
   60.5954   35.5562   46.9475 H   0  0  0  0  0  0  0  0  0  0  0  0
   59.6584   34.4597   48.9929 H   0  0  0  0  0  0  0  0  0  0  0  0
   58.0206   32.5831   48.7407 H   0  0  0  0  0  0  0  0  0  0  0  0
   57.6184   29.3256   47.9464 H   0  0  0  0  0  0  0  0  0  0  0  0
  1  2  1  0
  2  3  1  0
  3  4  2  0
  4  5  1  0
  5  6  2  0
  6  7  1  0
  7  8  2  0
  8  9  1  0
  9 10  1  0
 10 11  2  0
 10 12  2  0
 10 13  1  0
 13 14  2  0
 14 15  1  0
 15 16  2  0
 16 17  1  0
 17 18  1  0
 18 19  2  0
 18 20  1  0
 20 21  1  0
 21 22  1  0
 22 23  2  0
 22 24  1  0
 24 25  1  0
 25 26  1  0
 26 27  2  0
 27 28  1  0
 28 29  2  0
 29 30  1  0
 30 31  2  0
 17 32  2  0
  8  3  1  0
 32 13  1  0
 31 26  1  0
  1 33  1  0
  1 34  1  0
  1 35  1  0
  4 36  1  0
  5 37  1  0
  6 38  1  0
  7 39  1  0
 14 40  1  0
 15 41  1  0
 16 42  1  0
 21 43  1  0
 21 44  1  0
 24 45  1  0
 25 46  1  0
 25 47  1  0
 27 48  1  0
 28 49  1  0
 29 50  1  0
 30 51  1  0
 32 52  1  0
M  CHG  2   9  -1  20  -1
M  END
>  <UniqueID>  (49) 
47

>  <SMILES>  (49) 
COc1ccccc1[N-]S(=O)(=O)c1cccc(C(=O)[N-]CC(=O)NCc2ccccn2)c1

>  <Energy>  (49) 
55.3786395566442

>  <Genealogy>  (49) 
COc1ccccc1[N-]S(=O)(=O)c1cccc(C(=O)[N-]CC(=O)NCc2ccccn2)c1 (protonated)
COc1ccccc1[N-]S(=O)(=O)c1cccc(C(=O)[N-]CC(=O)NCc2ccccn2)c1 (3D coordinates assigned)
COc1ccccc1[N-]S(=O)(=O)c1cccc(C(=O)[N-]CC(=O)NCc2ccccn2)c1 (optimized conformer: 55.3786395566442 kcal/mol)

>  <smiles>  (49) 
COc1ccccc1NS(=O)(=O)c1cccc(C(=O)NCC(=O)NCc2ccccn2)c1

>  <score_type>  (49) 
oracle

>  <origin>  (49) 
adg

>  <m_score__min__energy>  (49) 
-11.76

>  <m_primary>  (49) 
energy

$$$$
49:0
     RDKit          3D

 49 51  0  0  0  0  0  0  0  0999 V2000
   57.0090   21.3450   42.9380 C   0  0  0  0  0  0  0  0  0  0  0  0
   57.8220   22.0780   44.3930 S   0  0  0  0  0  0  0  0  0  0  0  0
   56.3240   22.8730   44.9770 C   0  0  0  0  0  0  0  0  0  0  0  0
   55.1830   22.1090   45.2450 C   0  0  0  0  0  0  0  0  0  0  0  0
   54.0220   22.7280   45.7160 C   0  0  0  0  0  0  0  0  0  0  0  0
   53.9970   24.1120   45.9150 C   0  0  0  0  0  0  0  0  0  0  0  0
   55.1370   24.8930   45.6370 C   0  0  0  0  0  0  0  0  0  0  0  0
   55.1890   26.3070   45.9080 N   0  0  0  0  0  0  0  0  0  0  0  0
   56.2410   27.0690   45.9920 C   0  0  0  0  0  0  0  0  0  0  0  0
   56.3280   28.2370   45.2990 N   0  0  0  0  0  0  0  0  0  0  0  0
   57.4140   29.0440   45.4090 C   0  0  0  0  0  0  0  0  0  0  0  0
   57.4310   30.3310   44.7020 C   0  0  0  0  0  0  0  0  0  0  0  0
   58.1170   30.4430   43.6530 O   0  0  0  0  0  0  0  0  0  0  0  0
   56.6540   31.4480   45.1530 N   0  0  0  0  0  0  0  0  0  0  0  0
   57.0260   32.8520   44.9760 C   0  0  0  0  0  0  0  0  0  0  0  0
   58.1920   33.2070   45.8600 C   0  0  0  0  0  0  0  0  0  0  0  0
   59.0160   34.3000   45.5540 C   0  0  0  0  0  0  0  0  0  0  0  0
   60.1380   34.5810   46.3360 C   0  0  0  0  0  0  0  0  0  0  0  0
   60.4560   33.7760   47.4460 C   0  0  0  0  0  0  0  0  0  0  0  0
   61.6300   34.0170   48.2430 N   0  0  0  0  0  0  0  0  0  0  0  0
   63.2230   33.4790   47.8110 S   0  0  0  0  0  0  0  0  0  0  0  0
   63.1850   31.7220   47.5220 C   0  0  0  0  0  0  0  0  0  0  0  0
   63.6740   34.1670   46.5530 O   0  0  0  0  0  0  0  0  0  0  0  0
   64.1790   33.7760   48.9310 O   0  0  0  0  0  0  0  0  0  0  0  0
   59.6090   32.7000   47.7670 C   0  0  0  0  0  0  0  0  0  0  0  0
   59.8840   31.9010   48.8300 F   0  0  0  0  0  0  0  0  0  0  0  0
   58.4900   32.4180   46.9800 C   0  0  0  0  0  0  0  0  0  0  0  0
   58.4820   28.6610   46.2250 C   0  0  0  0  0  0  0  0  0  0  0  0
   58.3930   27.4460   46.9060 C   0  0  0  0  0  0  0  0  0  0  0  0
   59.3390   27.0620   47.6420 O   0  0  0  0  0  0  0  0  0  0  0  0
   57.2800   26.6790   46.7770 N   0  0  0  0  0  0  0  0  0  0  0  0
   56.3030   24.2570   45.1870 C   0  0  0  0  0  0  0  0  0  0  0  0
   56.2298   20.6424   43.2685 H   0  0  0  0  0  0  0  0  0  0  0  0
   56.5516   22.1419   42.3332 H   0  0  0  0  0  0  0  0  0  0  0  0
   57.7544   20.8078   42.3332 H   0  0  0  0  0  0  0  0  0  0  0  0
   55.1998   21.0208   45.0849 H   0  0  0  0  0  0  0  0  0  0  0  0
   53.1267   22.1259   45.9305 H   0  0  0  0  0  0  0  0  0  0  0  0
   53.0824   24.5940   46.2907 H   0  0  0  0  0  0  0  0  0  0  0  0
   57.3038   33.0227   43.9254 H   0  0  0  0  0  0  0  0  0  0  0  0
   56.1680   33.4834   45.2503 H   0  0  0  0  0  0  0  0  0  0  0  0
   58.7766   34.9401   44.6921 H   0  0  0  0  0  0  0  0  0  0  0  0
   60.7787   35.4385   46.0826 H   0  0  0  0  0  0  0  0  0  0  0  0
   61.5330   34.4910   49.1680 H   0  0  0  0  0  0  0  0  0  0  0  0
   63.1735   31.1920   48.4858 H   0  0  0  0  0  0  0  0  0  0  0  0
   62.2811   31.4638   46.9508 H   0  0  0  0  0  0  0  0  0  0  0  0
   64.0769   31.4250   46.9508 H   0  0  0  0  0  0  0  0  0  0  0  0
   57.8382   31.5712   47.2407 H   0  0  0  0  0  0  0  0  0  0  0  0
   59.3706   29.3012   46.3280 H   0  0  0  0  0  0  0  0  0  0  0  0
   57.2093   24.8509   44.9973 H   0  0  0  0  0  0  0  0  0  0  0  0
  1  2  1  0
  2  3  1  0
  3  4  2  0
  4  5  1  0
  5  6  2  0
  6  7  1  0
  7  8  1  0
  8  9  2  3
  9 10  1  0
 10 11  1  0
 11 12  1  0
 12 13  2  0
 12 14  1  0
 14 15  1  0
 15 16  1  0
 16 17  2  0
 17 18  1  0
 18 19  2  0
 19 20  1  0
 20 21  1  0
 21 22  1  0
 21 23  2  0
 21 24  2  0
 19 25  1  0
 25 26  1  0
 25 27  2  0
 11 28  2  0
 28 29  1  0
 29 30  2  0
 29 31  1  0
  7 32  2  0
 32  3  1  0
 31  9  1  0
 27 16  1  0
  1 33  1  0
  1 34  1  0
  1 35  1  0
  4 36  1  0
  5 37  1  0
  6 38  1  0
 15 39  1  0
 15 40  1  0
 17 41  1  0
 18 42  1  0
 20 43  1  0
 22 44  1  0
 22 45  1  0
 22 46  1  0
 27 47  1  0
 28 48  1  0
 32 49  1  0
M  CHG  3  10  -1  14  -1  31  -1
M  END
>  <UniqueID>  (50) 
48

>  <SMILES>  (50) 
CSc1cccc(N=c2[n-]c(C(=O)[N-]Cc3ccc(NS(C)(=O)=O)c(F)c3)cc(=O)[n-]2)c1

>  <Energy>  (50) 
51.90415710004046

>  <Genealogy>  (50) 
CSc1cccc(N=c2[n-]c(C(=O)[N-]Cc3ccc(NS(C)(=O)=O)c(F)c3)cc(=O)[n-]2)c1 (protonated)
CSc1cccc(N=c2[n-]c(C(=O)[N-]Cc3ccc(NS(C)(=O)=O)c(F)c3)cc(=O)[n-]2)c1 (3D coordinates assigned)
CSc1cccc(N=c2[n-]c(C(=O)[N-]Cc3ccc(NS(C)(=O)=O)c(F)c3)cc(=O)[n-]2)c1 (optimized conformer: 51.90415710004046 kcal/mol)

>  <smiles>  (50) 
CSc1cccc(N=c2[nH]c(C(=O)NCc3ccc(NS(C)(=O)=O)c(F)c3)cc(=O)[nH]2)c1

>  <score_type>  (50) 
oracle

>  <origin>  (50) 
adg

>  <m_score__min__energy>  (50) 
-14.039999999999999

>  <m_primary>  (50) 
energy

$$$$
50:0
     RDKit          3D

 54 56  0  0  0  0  0  0  0  0999 V2000
   55.1580   26.4560   46.0090 N   0  0  0  0  0  0  0  0  0  0  0  0
   56.8310   26.8800   45.9880 S   0  0  0  0  0  0  0  0  0  0  0  0
   57.3020   27.1170   47.3960 O   0  0  0  0  0  0  0  0  0  0  0  0
   57.6290   25.7470   45.3980 O   0  0  0  0  0  0  0  0  0  0  0  0
   57.0550   28.3400   45.0310 C   0  0  0  0  0  0  0  0  0  0  0  0
   58.3420   28.7500   44.6680 C   0  0  0  0  0  0  0  0  0  0  0  0
   58.5260   29.9340   43.9480 C   0  0  0  0  0  0  0  0  0  0  0  0
   57.4240   30.7320   43.5960 C   0  0  0  0  0  0  0  0  0  0  0  0
   57.6390   31.9910   42.8510 C   0  0  0  0  0  0  0  0  0  0  0  0
   57.0930   32.1280   41.7270 O   0  0  0  0  0  0  0  0  0  0  0  0
   58.4490   33.0640   43.3520 N   0  0  0  0  0  0  0  0  0  0  0  0
   58.7940   33.3380   44.7460 C   0  0  0  0  0  0  0  0  0  0  0  0
   57.5460   33.5940   45.6030 C   0  0  0  0  0  0  0  0  0  0  0  0
   57.8730   33.7160   47.0650 C   0  0  0  0  0  0  0  0  0  0  0  0
   57.1410   33.1140   47.8930 O   0  0  0  0  0  0  0  0  0  0  0  0
   59.0210   34.4270   47.5640 N   0  0  0  0  0  0  0  0  0  0  0  0
   60.3780   33.9780   47.7190 C   0  0  0  0  0  0  0  0  0  0  0  0
   61.3230   34.1520   46.6930 C   0  0  0  0  0  0  0  0  0  0  0  0
   62.6530   33.7730   46.8780 C   0  0  0  0  0  0  0  0  0  0  0  0
   63.0670   33.2450   48.1010 C   0  0  0  0  0  0  0  0  0  0  0  0
   62.1550   33.1050   49.1430 C   0  0  0  0  0  0  0  0  0  0  0  0
   60.8080   33.4750   48.9740 C   0  0  0  0  0  0  0  0  0  0  0  0
   59.8800   33.3580   50.1210 C   0  0  0  0  0  0  0  0  0  0  0  0
   59.3810   34.4000   50.6300 O   0  0  0  0  0  0  0  0  0  0  0  0
   59.5510   32.0800   50.6670 N   0  0  0  0  0  0  0  0  0  0  0  0
   58.5700   31.1760   50.0780 C   0  0  0  0  0  0  0  0  0  0  0  0
   59.2520   30.2820   49.0790 C   0  0  0  0  0  0  0  0  0  0  0  0
   59.4880   28.9310   49.3740 C   0  0  0  0  0  0  0  0  0  0  0  0
   60.0670   28.0910   48.4150 C   0  0  0  0  0  0  0  0  0  0  0  0
   60.4050   28.5910   47.1540 C   0  0  0  0  0  0  0  0  0  0  0  0
   60.1640   29.9330   46.8510 C   0  0  0  0  0  0  0  0  0  0  0  0
   59.5780   30.7750   47.8030 C   0  0  0  0  0  0  0  0  0  0  0  0
   56.1310   30.2890   43.9150 C   0  0  0  0  0  0  0  0  0  0  0  0
   55.9490   29.1110   44.6520 C   0  0  0  0  0  0  0  0  0  0  0  0
   54.6890   27.0870   46.6980 H   0  0  0  0  0  0  0  0  0  0  0  0
   59.2121   28.1389   44.9499 H   0  0  0  0  0  0  0  0  0  0  0  0
   59.5402   30.2432   43.6550 H   0  0  0  0  0  0  0  0  0  0  0  0
   59.3356   32.4725   45.1554 H   0  0  0  0  0  0  0  0  0  0  0  0
   59.4180   34.2435   44.7720 H   0  0  0  0  0  0  0  0  0  0  0  0
   57.0720   34.5282   45.2674 H   0  0  0  0  0  0  0  0  0  0  0  0
   56.8711   32.7342   45.4798 H   0  0  0  0  0  0  0  0  0  0  0  0
   61.0107   34.5916   45.7342 H   0  0  0  0  0  0  0  0  0  0  0  0
   63.3765   33.8908   46.0578 H   0  0  0  0  0  0  0  0  0  0  0  0
   64.1142   32.9393   48.2419 H   0  0  0  0  0  0  0  0  0  0  0  0
   62.4909   32.7007   50.1093 H   0  0  0  0  0  0  0  0  0  0  0  0
   58.1148   30.5622   50.8693 H   0  0  0  0  0  0  0  0  0  0  0  0
   57.7871   31.7612   49.5735 H   0  0  0  0  0  0  0  0  0  0  0  0
   59.2173   28.5302   50.3620 H   0  0  0  0  0  0  0  0  0  0  0  0
   60.2565   27.0343   48.6546 H   0  0  0  0  0  0  0  0  0  0  0  0
   60.8597   27.9291   46.4022 H   0  0  0  0  0  0  0  0  0  0  0  0
   60.4355   30.3292   45.8614 H   0  0  0  0  0  0  0  0  0  0  0  0
   59.3717   31.8260   47.5523 H   0  0  0  0  0  0  0  0  0  0  0  0
   55.2565   30.8690   43.5850 H   0  0  0  0  0  0  0  0  0  0  0  0
   54.9349   28.7911   44.9335 H   0  0  0  0  0  0  0  0  0  0  0  0
  1  2  1  0
  2  3  2  0
  2  4  2  0
  2  5  1  0
  5  6  2  0
  6  7  1  0
  7  8  2  0
  8  9  1  0
  9 10  2  0
  9 11  1  0
 11 12  1  0
 12 13  1  0
 13 14  1  0
 14 15  2  0
 14 16  1  0
 16 17  1  0
 17 18  2  0
 18 19  1  0
 19 20  2  0
 20 21  1  0
 21 22  2  0
 22 23  1  0
 23 24  2  0
 23 25  1  0
 25 26  1  0
 26 27  1  0
 27 28  2  0
 28 29  1  0
 29 30  2  0
 30 31  1  0
 31 32  2  0
  8 33  1  0
 33 34  2  0
 34  5  1  0
 22 17  1  0
 32 27  1  0
  1 35  1  0
  6 36  1  0
  7 37  1  0
 12 38  1  0
 12 39  1  0
 13 40  1  0
 13 41  1  0
 18 42  1  0
 19 43  1  0
 20 44  1  0
 21 45  1  0
 26 46  1  0
 26 47  1  0
 28 48  1  0
 29 49  1  0
 30 50  1  0
 31 51  1  0
 32 52  1  0
 33 53  1  0
 34 54  1  0
M  CHG  4   1  -1  11  -1  16  -1  25  -1
M  END
>  <UniqueID>  (51) 
49

>  <SMILES>  (51) 
[NH-]S(=O)(=O)c1ccc(C(=O)[N-]CCC(=O)[N-]c2ccccc2C(=O)[N-]Cc2ccccc2)cc1

>  <Energy>  (51) 
64.69197034362567

>  <Genealogy>  (51) 
[NH-]S(=O)(=O)c1ccc(C(=O)[N-]CCC(=O)[N-]c2ccccc2C(=O)[N-]Cc2ccccc2)cc1 (protonated)
[NH-]S(=O)(=O)c1ccc(C(=O)[N-]CCC(=O)[N-]c2ccccc2C(=O)[N-]Cc2ccccc2)cc1 (3D coordinates assigned)
[NH-]S(=O)(=O)c1ccc(C(=O)[N-]CCC(=O)[N-]c2ccccc2C(=O)[N-]Cc2ccccc2)cc1 (optimized conformer: 64.69197034362567 kcal/mol)

>  <smiles>  (51) 
NS(=O)(=O)c1ccc(C(=O)NCCC(=O)Nc2ccccc2C(=O)NCc2ccccc2)cc1

>  <score_type>  (51) 
oracle

>  <origin>  (51) 
adg

>  <m_score__min__energy>  (51) 
-16.280000000000001

>  <m_primary>  (51) 
energy

$$$$
51:0
     RDKit          3D

 31 32  0  0  0  0  0  0  0  0999 V2000
   55.2320   29.4490   44.8750 O   0  0  0  0  0  0  0  0  0  0  0  0
   56.3180   30.0890   44.8530 C   0  0  0  0  0  0  0  0  0  0  0  0
   57.6120   29.3640   45.0370 C   0  0  0  0  0  0  0  0  0  0  0  0
   57.4140   27.9320   44.8580 N   0  0  0  0  0  0  0  0  0  0  0  0
   57.2470   27.0100   45.9410 C   0  0  0  0  0  0  0  0  0  0  0  0
   57.5570   27.3660   47.1120 O   0  0  0  0  0  0  0  0  0  0  0  0
   56.7290   25.6380   45.7000 C   0  0  0  0  0  0  0  0  0  0  0  0
   57.6360   24.5900   45.4460 C   0  0  0  0  0  0  0  0  0  0  0  0
   57.1800   23.2900   45.2110 C   0  0  0  0  0  0  0  0  0  0  0  0
   55.8130   23.0150   45.2290 C   0  0  0  0  0  0  0  0  0  0  0  0
   54.8990   24.0380   45.4840 C   0  0  0  0  0  0  0  0  0  0  0  0
   55.3440   25.3430   45.7210 C   0  0  0  0  0  0  0  0  0  0  0  0
   54.3990   26.3290   45.9890 O   0  0  0  0  0  0  0  0  0  0  0  0
   56.3350   31.4910   44.5570 N   0  0  0  0  0  0  0  0  0  0  0  0
   57.3490   32.4200   44.9620 C   0  0  0  0  0  0  0  0  0  0  0  0
   57.4240   32.7840   46.3140 C   0  0  0  0  0  0  0  0  0  0  0  0
   58.3890   33.6960   46.7490 C   0  0  0  0  0  0  0  0  0  0  0  0
   59.2760   34.2670   45.8330 C   0  0  0  0  0  0  0  0  0  0  0  0
   60.2100   35.1560   46.2560 F   0  0  0  0  0  0  0  0  0  0  0  0
   59.1890   33.9360   44.4790 C   0  0  0  0  0  0  0  0  0  0  0  0
   58.2260   33.0220   44.0370 C   0  0  0  0  0  0  0  0  0  0  0  0
   58.1180   32.7760   42.7080 F   0  0  0  0  0  0  0  0  0  0  0  0
   58.3402   29.7259   44.2962 H   0  0  0  0  0  0  0  0  0  0  0  0
   57.9877   29.5509   46.0538 H   0  0  0  0  0  0  0  0  0  0  0  0
   58.7161   24.7976   45.4325 H   0  0  0  0  0  0  0  0  0  0  0  0
   57.9002   22.4828   45.0116 H   0  0  0  0  0  0  0  0  0  0  0  0
   55.4553   21.9917   45.0422 H   0  0  0  0  0  0  0  0  0  0  0  0
   53.8215   23.8169   45.4988 H   0  0  0  0  0  0  0  0  0  0  0  0
   56.7184   32.3487   47.0370 H   0  0  0  0  0  0  0  0  0  0  0  0
   58.4504   33.9647   47.8139 H   0  0  0  0  0  0  0  0  0  0  0  0
   59.8802   34.3956   43.7572 H   0  0  0  0  0  0  0  0  0  0  0  0
  1  2  2  0
  2  3  1  0
  3  4  1  0
  4  5  1  0
  5  6  2  0
  5  7  1  0
  7  8  2  0
  8  9  1  0
  9 10  2  0
 10 11  1  0
 11 12  2  0
 12 13  1  0
  2 14  1  0
 14 15  1  0
 15 16  2  0
 16 17  1  0
 17 18  2  0
 18 19  1  0
 18 20  1  0
 20 21  2  0
 21 22  1  0
 12  7  1  0
 21 15  1  0
  3 23  1  0
  3 24  1  0
  8 25  1  0
  9 26  1  0
 10 27  1  0
 11 28  1  0
 16 29  1  0
 17 30  1  0
 20 31  1  0
M  CHG  3   4  -1  13  -1  14  -1
M  END
>  <UniqueID>  (52) 
50

>  <SMILES>  (52) 
O=C(C[N-]C(=O)c1ccccc1[O-])[N-]c1ccc(F)cc1F

>  <Energy>  (52) 
36.71277273673466

>  <Genealogy>  (52) 
O=C(C[N-]C(=O)c1ccccc1[O-])[N-]c1ccc(F)cc1F (protonated)
O=C(C[N-]C(=O)c1ccccc1[O-])[N-]c1ccc(F)cc1F (3D coordinates assigned)
O=C(C[N-]C(=O)c1ccccc1[O-])[N-]c1ccc(F)cc1F (optimized conformer: 36.71277273673466 kcal/mol)

>  <smiles>  (52) 
O=C(CNC(=O)c1ccccc1O)Nc1ccc(F)cc1F

>  <score_type>  (52) 
oracle

>  <origin>  (52) 
adg

>  <m_score__min__energy>  (52) 
-13.880000000000001

>  <m_primary>  (52) 
energy

$$$$
52:0
     RDKit          3D

 61 64  0  0  1  0  0  0  0  0999 V2000
   59.6640   33.7880   50.3790 C   0  0  0  0  0  0  0  0  0  0  0  0
   59.9630   33.6050   48.9180 C   0  0  0  0  0  0  0  0  0  0  0  0
   61.2260   33.7830   48.4130 C   0  0  0  0  0  0  0  0  0  0  0  0
   61.5200   33.6200   47.0790 C   0  0  0  0  0  0  0  0  0  0  0  0
   62.9180   33.8290   46.5950 C   0  0  0  0  0  0  0  0  0  0  0  0
   60.4870   33.2650   46.2310 C   0  0  0  0  0  0  0  0  0  0  0  0
   59.2000   33.0750   46.6910 C   0  0  0  0  0  0  0  0  0  0  0  0
   58.0720   32.6940   45.8010 C   0  0  0  0  0  0  0  0  0  0  0  0
   58.4620   31.7600   44.8100 O   0  0  0  0  0  0  0  0  0  0  0  0
   58.6000   30.4230   45.2220 C   0  0  0  0  0  0  0  0  0  0  0  0
   57.5020   29.5690   45.1060 C   0  0  0  0  0  0  0  0  0  0  0  0
   57.6450   28.2580   45.5130 C   0  0  0  0  0  0  0  0  0  0  0  0
   58.8180   27.7480   46.0280 C   0  0  0  0  0  0  0  0  0  0  0  0
   59.0000   26.0870   46.5380 S   0  0  0  0  0  0  0  0  0  0  0  0
   59.0710   25.9790   48.0290 O   0  0  0  0  0  0  0  0  0  0  0  0
   60.3170   25.6180   45.9530 O   0  0  0  0  0  0  0  0  0  0  0  0
   57.7610   25.1520   45.8670 N   0  0  0  0  0  0  0  0  0  0  0  0
   56.5660   25.0270   46.5990 C   0  0  0  0  0  0  0  0  0  0  0  0
   55.5270   24.2470   45.9010 C   0  0  1  0  0  0  0  0  0  0  0  0
   54.2410   24.7710   45.9960 O   0  0  0  0  0  0  0  0  0  0  0  0
   53.5510   23.9390   45.1100 C   0  0  0  0  0  0  0  0  0  0  0  0
   54.4950   23.6900   43.9250 C   0  0  0  0  0  0  0  0  0  0  0  0
   55.7250   24.3990   44.4060 C   0  0  2  0  0  0  0  0  0  0  0  0
   57.0050   23.6840   44.0570 C   0  0  2  0  0  0  0  0  0  0  0  0
   56.8820   22.3120   44.1000 O   0  0  0  0  0  0  0  0  0  0  0  0
   58.1370   24.1320   44.9620 C   0  0  2  0  0  0  0  0  0  0  0  0
   58.7820   22.9390   45.6190 C   0  0  0  0  0  0  0  0  0  0  0  0
   60.1480   22.7750   45.3760 O   0  0  0  0  0  0  0  0  0  0  0  0
   58.1170   22.1200   46.3590 N   0  0  0  0  0  0  0  0  0  0  0  0
   58.2190   20.7500   46.2820 O   0  0  0  0  0  0  0  0  0  0  0  0
   59.8860   28.6330   46.1250 C   0  0  0  0  0  0  0  0  0  0  0  0
   59.7950   29.9520   45.7330 C   0  0  0  0  0  0  0  0  0  0  0  0
   58.9620   33.2520   48.0480 C   0  0  0  0  0  0  0  0  0  0  0  0
   60.4512   33.3062   50.9775 H   0  0  0  0  0  0  0  0  0  0  0  0
   59.6298   34.8619   50.6146 H   0  0  0  0  0  0  0  0  0  0  0  0
   58.6921   33.3298   50.6146 H   0  0  0  0  0  0  0  0  0  0  0  0
   62.0353   34.0672   49.1016 H   0  0  0  0  0  0  0  0  0  0  0  0
   63.5933   33.9300   47.4574 H   0  0  0  0  0  0  0  0  0  0  0  0
   63.2277   32.9672   45.9856 H   0  0  0  0  0  0  0  0  0  0  0  0
   62.9622   34.7437   45.9856 H   0  0  0  0  0  0  0  0  0  0  0  0
   60.6971   33.1303   45.1597 H   0  0  0  0  0  0  0  0  0  0  0  0
   57.2736   32.2485   46.4126 H   0  0  0  0  0  0  0  0  0  0  0  0
   57.7250   33.6035   45.2888 H   0  0  0  0  0  0  0  0  0  0  0  0
   56.5462   29.9320   44.7002 H   0  0  0  0  0  0  0  0  0  0  0  0
   56.7791   27.5857   45.4219 H   0  0  0  0  0  0  0  0  0  0  0  0
   56.7928   24.5291   47.5533 H   0  0  0  0  0  0  0  0  0  0  0  0
   56.1668   26.0420   46.7423 H   0  0  0  0  0  0  0  0  0  0  0  0
   55.6155   23.2443   46.3445 H   0  0  0  0  0  0  0  0  0  0  0  0
   53.2973   22.9878   45.6007 H   0  0  0  0  0  0  0  0  0  0  0  0
   52.6095   24.4019   44.7794 H   0  0  0  0  0  0  0  0  0  0  0  0
   54.6788   22.6166   43.7701 H   0  0  0  0  0  0  0  0  0  0  0  0
   54.1144   24.0378   42.9533 H   0  0  0  0  0  0  0  0  0  0  0  0
   55.8234   25.4112   43.9868 H   0  0  0  0  0  0  0  0  0  0  0  0
   57.2377   23.9572   43.0172 H   0  0  0  0  0  0  0  0  0  0  0  0
   56.9180   21.9200   45.0180 H   0  0  0  0  0  0  0  0  0  0  0  0
   58.9024   24.6115   44.3340 H   0  0  0  0  0  0  0  0  0  0  0  0
   60.6850   23.6260   45.2300 H   0  0  0  0  0  0  0  0  0  0  0  0
   58.8540   20.3710   45.5890 H   0  0  0  0  0  0  0  0  0  0  0  0
   60.8408   28.2667   46.5302 H   0  0  0  0  0  0  0  0  0  0  0  0
   60.6630   30.6214   45.8258 H   0  0  0  0  0  0  0  0  0  0  0  0
   57.9432   33.1052   48.4360 H   0  0  0  0  0  0  0  0  0  0  0  0
  1  2  1  0
  2  3  2  0
  3  4  1  0
  4  5  1  0
  4  6  2  0
  6  7  1  0
  7  8  1  0
  8  9  1  0
  9 10  1  0
 10 11  2  0
 11 12  1  0
 12 13  2  0
 13 14  1  0
 14 15  2  0
 14 16  2  0
 14 17  1  0
 17 18  1  0
 18 19  1  0
 19 20  1  0
 20 21  1  0
 21 22  1  0
 22 23  1  0
 23 24  1  0
 24 25  1  0
 24 26  1  0
 26 27  1  0
 27 28  1  0
 27 29  2  0
 29 30  1  0
 13 31  1  0
 31 32  2  0
  7 33  2  0
 33  2  1  0
 32 10  1  0
 26 17  1  0
 23 19  1  0
  1 34  1  0
  1 35  1  0
  1 36  1  0
  3 37  1  0
  5 38  1  0
  5 39  1  0
  5 40  1  0
  6 41  1  0
  8 42  1  0
  8 43  1  0
 11 44  1  0
 12 45  1  0
 18 46  1  0
 18 47  1  0
 19 48  1  6
 21 49  1  0
 21 50  1  0
 22 51  1  0
 22 52  1  0
 23 53  1  1
 24 54  1  6
 25 55  1  0
 26 56  1  6
 28 57  1  0
 30 58  1  0
 31 59  1  0
 32 60  1  0
 33 61  1  0
M  END
>  <smiles>  (53) 
Cc1cc(C)cc(COc2ccc(S(=O)(=O)N3CC4OCCC4C(O)C3C(O)=NO)cc2)c1

>  <score_type>  (53) 
oracle

>  <origin>  (53) 
adg

>  <m_score__min__energy>  (53) 
-10.31

>  <m_primary>  (53) 
energy

$$$$
53:0
     RDKit          3D

 50 53  0  0  0  0  0  0  0  0999 V2000
   64.5960   33.4020   49.3170 C   0  0  0  0  0  0  0  0  0  0  0  0
   63.4490   32.5510   48.8410 C   0  0  0  0  0  0  0  0  0  0  0  0
   62.9390   31.5490   49.6830 C   0  0  0  0  0  0  0  0  0  0  0  0
   61.8740   30.7460   49.2700 C   0  0  0  0  0  0  0  0  0  0  0  0
   61.3040   30.9210   48.0000 C   0  0  0  0  0  0  0  0  0  0  0  0
   60.1920   30.1220   47.5630 N   0  0  0  0  0  0  0  0  0  0  0  0
   60.1360   28.6890   47.6860 C   0  0  0  0  0  0  0  0  0  0  0  0
   61.1110   28.0550   48.1750 O   0  0  0  0  0  0  0  0  0  0  0  0
   58.9410   27.9360   47.2480 C   0  0  0  0  0  0  0  0  0  0  0  0
   57.9780   28.5740   46.4490 C   0  0  0  0  0  0  0  0  0  0  0  0
   56.8290   27.8990   46.0170 C   0  0  0  0  0  0  0  0  0  0  0  0
   55.9010   28.6340   45.2010 N   0  0  0  0  0  0  0  0  0  0  0  0
   56.2040   29.4190   43.6840 S   0  0  0  0  0  0  0  0  0  0  0  0
   57.0430   28.5370   42.8010 O   0  0  0  0  0  0  0  0  0  0  0  0
   54.8940   29.7280   43.0140 O   0  0  0  0  0  0  0  0  0  0  0  0
   57.0730   30.9200   43.9820 C   0  0  0  0  0  0  0  0  0  0  0  0
   57.4590   31.7410   42.9120 C   0  0  0  0  0  0  0  0  0  0  0  0
   58.1560   32.9280   43.1490 C   0  0  0  0  0  0  0  0  0  0  0  0
   58.4780   33.3050   44.4570 C   0  0  0  0  0  0  0  0  0  0  0  0
   59.1580   34.4580   44.6850 N   0  0  0  0  0  0  0  0  0  0  0  0
   59.4850   34.8380   45.9470 C   0  0  0  0  0  0  0  0  0  0  0  0
   59.1330   34.0640   47.0060 N   0  0  0  0  0  0  0  0  0  0  0  0
   58.4510   32.9010   46.8350 C   0  0  0  0  0  0  0  0  0  0  0  0
   58.1450   32.2120   47.8450 O   0  0  0  0  0  0  0  0  0  0  0  0
   58.1010   32.4840   45.5400 C   0  0  0  0  0  0  0  0  0  0  0  0
   57.3990   31.2900   45.2960 C   0  0  0  0  0  0  0  0  0  0  0  0
   56.6470   26.5490   46.3900 C   0  0  0  0  0  0  0  0  0  0  0  0
   55.5510   25.8110   45.9630 O   0  0  0  0  0  0  0  0  0  0  0  0
   57.5930   25.9170   47.2030 C   0  0  0  0  0  0  0  0  0  0  0  0
   58.7290   26.6020   47.6390 C   0  0  0  0  0  0  0  0  0  0  0  0
   59.5890   25.9730   48.4800 F   0  0  0  0  0  0  0  0  0  0  0  0
   61.7870   31.9400   47.1680 C   0  0  0  0  0  0  0  0  0  0  0  0
   62.8570   32.7570   47.5710 C   0  0  0  0  0  0  0  0  0  0  0  0
   63.3630   33.8260   46.6390 C   0  0  0  0  0  0  0  0  0  0  0  0
   64.6120   33.4139   50.4168 H   0  0  0  0  0  0  0  0  0  0  0  0
   65.5422   32.9857   48.9410 H   0  0  0  0  0  0  0  0  0  0  0  0
   64.4719   34.4283   48.9410 H   0  0  0  0  0  0  0  0  0  0  0  0
   63.3830   31.3954   50.6776 H   0  0  0  0  0  0  0  0  0  0  0  0
   61.4796   29.9716   49.9443 H   0  0  0  0  0  0  0  0  0  0  0  0
   59.4080   30.6190   47.0860 H   0  0  0  0  0  0  0  0  0  0  0  0
   58.1289   29.6237   46.1569 H   0  0  0  0  0  0  0  0  0  0  0  0
   57.2115   31.4484   41.8809 H   0  0  0  0  0  0  0  0  0  0  0  0
   58.4525   33.5680   42.3049 H   0  0  0  0  0  0  0  0  0  0  0  0
   60.0365   35.7753   46.1120 H   0  0  0  0  0  0  0  0  0  0  0  0
   57.1048   30.6447   46.1369 H   0  0  0  0  0  0  0  0  0  0  0  0
   57.4407   24.8695   47.5022 H   0  0  0  0  0  0  0  0  0  0  0  0
   61.3216   32.1028   46.1847 H   0  0  0  0  0  0  0  0  0  0  0  0
   63.7608   34.6665   47.2266 H   0  0  0  0  0  0  0  0  0  0  0  0
   64.1607   33.4120   46.0048 H   0  0  0  0  0  0  0  0  0  0  0  0
   62.5371   34.1805   46.0048 H   0  0  0  0  0  0  0  0  0  0  0  0
  1  2  1  0
  2  3  2  0
  3  4  1  0
  4  5  2  0
  5  6  1  0
  6  7  1  0
  7  8  2  0
  7  9  1  0
  9 10  2  0
 10 11  1  0
 11 12  1  0
 12 13  1  0
 13 14  2  0
 13 15  2  0
 13 16  1  0
 16 17  2  0
 17 18  1  0
 18 19  2  0
 19 20  1  0
 20 21  1  0
 21 22  2  0
 22 23  1  0
 23 24  2  0
 23 25  1  0
 25 26  2  0
 11 27  2  0
 27 28  1  0
 27 29  1  0
 29 30  2  0
 30 31  1  0
  5 32  1  0
 32 33  2  0
 33 34  1  0
 33  2  1  0
 30  9  1  0
 26 16  1  0
 25 19  1  0
  1 35  1  0
  1 36  1  0
  1 37  1  0
  3 38  1  0
  4 39  1  0
  6 40  1  0
 10 41  1  0
 17 42  1  0
 18 43  1  0
 21 44  1  0
 26 45  1  0
 29 46  1  0
 32 47  1  0
 34 48  1  0
 34 49  1  0
 34 50  1  0
M  CHG  3  12  -1  20  -1  28  -1
M  END
>  <UniqueID>  (54) 
51

>  <SMILES>  (54) 
Cc1ccc(NC(=O)c2cc([N-]S(=O)(=O)c3ccc4[n-]cnc(=O)c4c3)c([O-])cc2F)cc1C

>  <Energy>  (54) 
76.17595641703853

>  <Genealogy>  (54) 
Cc1ccc(NC(=O)c2cc([N-]S(=O)(=O)c3ccc4[n-]cnc(=O)c4c3)c([O-])cc2F)cc1C (protonated)
Cc1ccc(NC(=O)c2cc([N-]S(=O)(=O)c3ccc4[n-]cnc(=O)c4c3)c([O-])cc2F)cc1C (3D coordinates assigned)
Cc1ccc(NC(=O)c2cc([N-]S(=O)(=O)c3ccc4[n-]cnc(=O)c4c3)c([O-])cc2F)cc1C (optimized conformer: 76.17595641703853 kcal/mol)

>  <smiles>  (54) 
Cc1ccc(NC(=O)c2cc(NS(=O)(=O)c3ccc4[nH]cnc(=O)c4c3)c(O)cc2F)cc1C

>  <score_type>  (54) 
oracle

>  <origin>  (54) 
adg

>  <m_score__min__energy>  (54) 
-14.57

>  <m_primary>  (54) 
energy

$$$$
54:0
     RDKit          3D

 53 55  0  0  0  0  0  0  0  0999 V2000
   66.4710   31.2480   50.9510 C   0  0  0  0  0  0  0  0  0  0  0  0
   65.2060   31.8470   50.3930 C   0  0  0  0  0  0  0  0  0  0  0  0
   65.2910   32.9280   49.5010 C   0  0  0  0  0  0  0  0  0  0  0  0
   64.1370   33.5010   48.9650 C   0  0  0  0  0  0  0  0  0  0  0  0
   62.8720   33.0040   49.3100 C   0  0  0  0  0  0  0  0  0  0  0  0
   61.6820   33.5980   48.7570 N   0  0  0  0  0  0  0  0  0  0  0  0
   60.5830   34.0150   49.4220 C   0  0  0  0  0  0  0  0  0  0  0  0
   60.4070   33.9260   50.7970 O   0  0  0  0  0  0  0  0  0  0  0  0
   59.6500   34.4980   48.5290 C   0  0  0  0  0  0  0  0  0  0  0  0
   60.1740   34.3930   47.2910 N   0  0  0  0  0  0  0  0  0  0  0  0
   59.4990   34.6930   46.0300 C   0  0  0  0  0  0  0  0  0  0  0  0
   58.8650   33.4450   45.4820 C   0  0  0  0  0  0  0  0  0  0  0  0
   58.4060   33.4110   44.1570 C   0  0  0  0  0  0  0  0  0  0  0  0
   57.7520   32.2780   43.6650 C   0  0  0  0  0  0  0  0  0  0  0  0
   57.5440   31.1690   44.4960 C   0  0  0  0  0  0  0  0  0  0  0  0
   56.6730   29.7540   43.9070 S   0  0  0  0  0  0  0  0  0  0  0  0
   56.0550   30.0840   42.5770 O   0  0  0  0  0  0  0  0  0  0  0  0
   55.5730   29.3850   44.8630 O   0  0  0  0  0  0  0  0  0  0  0  0
   57.7690   28.4150   43.7110 N   0  0  0  0  0  0  0  0  0  0  0  0
   58.5060   28.1350   44.9600 C   0  0  0  0  0  0  0  0  0  0  0  0
   59.9750   28.5640   44.8300 C   0  0  0  0  0  0  0  0  0  0  0  0
   58.4370   26.6360   45.2720 C   0  0  0  0  0  0  0  0  0  0  0  0
   57.9940   31.2030   45.8220 C   0  0  0  0  0  0  0  0  0  0  0  0
   58.6470   32.3350   46.3140 C   0  0  0  0  0  0  0  0  0  0  0  0
   61.3940   33.8380   47.4590 C   0  0  0  0  0  0  0  0  0  0  0  0
   62.1810   33.5860   46.5060 O   0  0  0  0  0  0  0  0  0  0  0  0
   62.7790   31.9250   50.2020 C   0  0  0  0  0  0  0  0  0  0  0  0
   63.9340   31.3370   50.7460 C   0  0  0  0  0  0  0  0  0  0  0  0
   63.7940   30.1830   51.7050 C   0  0  0  0  0  0  0  0  0  0  0  0
   66.4317   31.2666   52.0501 H   0  0  0  0  0  0  0  0  0  0  0  0
   66.5680   30.2083   50.6051 H   0  0  0  0  0  0  0  0  0  0  0  0
   67.3368   31.8318   50.6051 H   0  0  0  0  0  0  0  0  0  0  0  0
   66.2772   33.3273   49.2219 H   0  0  0  0  0  0  0  0  0  0  0  0
   64.2202   34.3476   48.2677 H   0  0  0  0  0  0  0  0  0  0  0  0
   58.6566   34.8973   48.7812 H   0  0  0  0  0  0  0  0  0  0  0  0
   58.7215   35.4516   46.2035 H   0  0  0  0  0  0  0  0  0  0  0  0
   60.2344   35.0745   45.3063 H   0  0  0  0  0  0  0  0  0  0  0  0
   58.5616   34.2807   43.5016 H   0  0  0  0  0  0  0  0  0  0  0  0
   57.3998   32.2568   42.6231 H   0  0  0  0  0  0  0  0  0  0  0  0
   58.4340   28.7050   42.9580 H   0  0  0  0  0  0  0  0  0  0  0  0
   58.0423   28.7074   45.7769 H   0  0  0  0  0  0  0  0  0  0  0  0
   60.4100   28.6910   45.8323 H   0  0  0  0  0  0  0  0  0  0  0  0
   60.5353   27.7920   44.2823 H   0  0  0  0  0  0  0  0  0  0  0  0
   60.0318   29.5162   44.2823 H   0  0  0  0  0  0  0  0  0  0  0  0
   58.4302   26.4883   46.3620 H   0  0  0  0  0  0  0  0  0  0  0  0
   57.5184   26.2132   44.8390 H   0  0  0  0  0  0  0  0  0  0  0  0
   59.3128   26.1306   44.8390 H   0  0  0  0  0  0  0  0  0  0  0  0
   57.8324   30.3350   46.4780 H   0  0  0  0  0  0  0  0  0  0  0  0
   58.9922   32.3573   47.3582 H   0  0  0  0  0  0  0  0  0  0  0  0
   61.7889   31.5340   50.4793 H   0  0  0  0  0  0  0  0  0  0  0  0
   63.8394   30.5574   52.7383 H   0  0  0  0  0  0  0  0  0  0  0  0
   62.8286   29.6828   51.5383 H   0  0  0  0  0  0  0  0  0  0  0  0
   64.6118   29.4665   51.5383 H   0  0  0  0  0  0  0  0  0  0  0  0
  1  2  1  0
  2  3  2  0
  3  4  1  0
  4  5  2  0
  5  6  1  0
  6  7  1  0
  7  8  1  0
  7  9  2  0
  9 10  1  0
 10 11  1  0
 11 12  1  0
 12 13  2  0
 13 14  1  0
 14 15  2  0
 15 16  1  0
 16 17  2  0
 16 18  2  0
 16 19  1  0
 19 20  1  0
 20 21  1  0
 20 22  1  0
 15 23  1  0
 23 24  2  0
 10 25  1  0
 25 26  2  0
  5 27  1  0
 27 28  2  0
 28 29  1  0
 28  2  1  0
 25  6  1  0
 24 12  1  0
  1 30  1  0
  1 31  1  0
  1 32  1  0
  3 33  1  0
  4 34  1  0
  9 35  1  0
 11 36  1  0
 11 37  1  0
 13 38  1  0
 14 39  1  0
 19 40  1  0
 20 41  1  0
 21 42  1  0
 21 43  1  0
 21 44  1  0
 22 45  1  0
 22 46  1  0
 22 47  1  0
 23 48  1  0
 24 49  1  0
 27 50  1  0
 29 51  1  0
 29 52  1  0
 29 53  1  0
M  CHG  1   8  -1
M  END
>  <UniqueID>  (55) 
52

>  <SMILES>  (55) 
Cc1ccc(-n2c([O-])cn(Cc3ccc(S(=O)(=O)NC(C)C)cc3)c2=O)cc1C

>  <Energy>  (55) 
88.42654142809565

>  <Genealogy>  (55) 
Cc1ccc(-n2c([O-])cn(Cc3ccc(S(=O)(=O)NC(C)C)cc3)c2=O)cc1C (protonated)
Cc1ccc(-n2c([O-])cn(Cc3ccc(S(=O)(=O)NC(C)C)cc3)c2=O)cc1C (3D coordinates assigned)
Cc1ccc(-n2c([O-])cn(Cc3ccc(S(=O)(=O)NC(C)C)cc3)c2=O)cc1C (optimized conformer: 88.42654142809565 kcal/mol)

>  <smiles>  (55) 
Cc1ccc(-n2c(O)cn(Cc3ccc(S(=O)(=O)NC(C)C)cc3)c2=O)cc1C

>  <score_type>  (55) 
oracle

>  <origin>  (55) 
adg

>  <m_score__min__energy>  (55) 
-11.4

>  <m_primary>  (55) 
energy

$$$$
55:0
     RDKit          3D

 39 41  0  0  0  0  0  0  0  0999 V2000
   55.4180   29.6700   44.0460 C   0  0  0  0  0  0  0  0  0  0  0  0
   56.3810   30.8000   43.8670 C   0  0  0  0  0  0  0  0  0  0  0  0
   57.0060   31.0090   42.6340 C   0  0  0  0  0  0  0  0  0  0  0  0
   57.9140   32.0570   42.4980 C   0  0  0  0  0  0  0  0  0  0  0  0
   58.1870   32.8930   43.5830 C   0  0  0  0  0  0  0  0  0  0  0  0
   57.5280   32.6700   44.8130 C   0  0  0  0  0  0  0  0  0  0  0  0
   57.7360   33.3990   45.8750 N   0  0  0  0  0  0  0  0  0  0  0  0
   58.9430   33.5580   46.6430 C   0  0  0  0  0  0  0  0  0  0  0  0
   59.4130   34.7080   46.8530 O   0  0  0  0  0  0  0  0  0  0  0  0
   59.5580   32.3720   47.2890 C   0  0  0  0  0  0  0  0  0  0  0  0
   59.7210   31.1920   46.5370 C   0  0  0  0  0  0  0  0  0  0  0  0
   60.2870   30.0420   47.1070 C   0  0  0  0  0  0  0  0  0  0  0  0
   60.4110   28.7760   46.3030 C   0  0  0  0  0  0  0  0  0  0  0  0
   59.1030   28.0260   46.3000 C   0  0  0  0  0  0  0  0  0  0  0  0
   58.7200   27.2730   47.4170 C   0  0  0  0  0  0  0  0  0  0  0  0
   57.5280   26.6260   47.4290 N   0  0  0  0  0  0  0  0  0  0  0  0
   56.6810   26.6970   46.3700 C   0  0  0  0  0  0  0  0  0  0  0  0
   55.5810   26.0860   46.4070 O   0  0  0  0  0  0  0  0  0  0  0  0
   57.0200   27.4290   45.2750 N   0  0  0  0  0  0  0  0  0  0  0  0
   58.2060   28.0950   45.2180 C   0  0  0  0  0  0  0  0  0  0  0  0
   58.4910   28.7720   44.1930 O   0  0  0  0  0  0  0  0  0  0  0  0
   60.6880   30.0650   48.4490 C   0  0  0  0  0  0  0  0  0  0  0  0
   60.5460   31.2290   49.2050 C   0  0  0  0  0  0  0  0  0  0  0  0
   59.9900   32.3830   48.6400 C   0  0  0  0  0  0  0  0  0  0  0  0
   59.9130   33.8220   49.6530 Cl  0  0  0  0  0  0  0  0  0  0  0  0
   56.6610   31.6260   44.9130 N   0  0  0  0  0  0  0  0  0  0  0  0
   55.2624   29.4874   45.1195 H   0  0  0  0  0  0  0  0  0  0  0  0
   54.4580   29.9283   43.5751 H   0  0  0  0  0  0  0  0  0  0  0  0
   55.8252   28.7631   43.5751 H   0  0  0  0  0  0  0  0  0  0  0  0
   56.7831   30.3527   41.7799 H   0  0  0  0  0  0  0  0  0  0  0  0
   58.4168   32.2263   41.5344 H   0  0  0  0  0  0  0  0  0  0  0  0
   58.9082   33.7173   43.4810 H   0  0  0  0  0  0  0  0  0  0  0  0
   59.3991   31.1720   45.4853 H   0  0  0  0  0  0  0  0  0  0  0  0
   60.6863   29.0289   45.2685 H   0  0  0  0  0  0  0  0  0  0  0  0
   61.1863   28.1401   46.7553 H   0  0  0  0  0  0  0  0  0  0  0  0
   59.3885   27.2060   48.2880 H   0  0  0  0  0  0  0  0  0  0  0  0
   56.3600   27.4820   44.4660 H   0  0  0  0  0  0  0  0  0  0  0  0
   61.1164   29.1620   48.9085 H   0  0  0  0  0  0  0  0  0  0  0  0
   60.8740   31.2401   50.2549 H   0  0  0  0  0  0  0  0  0  0  0  0
  1  2  1  0
  2  3  2  0
  3  4  1  0
  4  5  2  0
  5  6  1  0
  6  7  2  3
  7  8  1  0
  8  9  2  0
  8 10  1  0
 10 11  2  0
 11 12  1  0
 12 13  1  0
 13 14  1  0
 14 15  2  0
 15 16  1  0
 16 17  1  0
 17 18  2  0
 17 19  1  0
 19 20  1  0
 20 21  2  0
 12 22  2  0
 22 23  1  0
 23 24  2  0
 24 25  1  0
  6 26  1  0
 26  2  1  0
 24 10  1  0
 20 14  1  0
  1 27  1  0
  1 28  1  0
  1 29  1  0
  3 30  1  0
  4 31  1  0
  5 32  1  0
 11 33  1  0
 13 34  1  0
 13 35  1  0
 15 36  1  0
 19 37  1  0
 22 38  1  0
 23 39  1  0
M  CHG  2  16  -1  26  -1
M  END
>  <UniqueID>  (56) 
53

>  <SMILES>  (56) 
Cc1cccc(=NC(=O)c2cc(Cc3c[n-]c(=O)[nH]c3=O)ccc2Cl)[n-]1

>  <Energy>  (56) 
53.73871130118833

>  <Genealogy>  (56) 
Cc1cccc(=NC(=O)c2cc(Cc3c[n-]c(=O)[nH]c3=O)ccc2Cl)[n-]1 (protonated)
Cc1cccc(=NC(=O)c2cc(Cc3c[n-]c(=O)[nH]c3=O)ccc2Cl)[n-]1 (3D coordinates assigned)
Cc1cccc(=NC(=O)c2cc(Cc3c[n-]c(=O)[nH]c3=O)ccc2Cl)[n-]1 (optimized conformer: 53.73871130118833 kcal/mol)

>  <smiles>  (56) 
Cc1cccc(=NC(=O)c2cc(Cc3c[nH]c(=O)[nH]c3=O)ccc2Cl)[nH]1

>  <score_type>  (56) 
oracle

>  <origin>  (56) 
adg

>  <m_score__min__energy>  (56) 
-11.720000000000001

>  <m_primary>  (56) 
energy

$$$$
56:0
     RDKit          3D

 39 40  0  0  0  0  0  0  0  0999 V2000
   59.2622   22.0229   44.4438 H   0  0  0  0  0  0  0  0  0  0  0  0
   58.3030   22.5580   44.5050 C   0  0  0  0  0  0  0  0  0  0  0  0
   58.1557   23.3376   45.2669 H   0  0  0  0  0  0  0  0  0  0  0  0
   57.3170   22.2610   43.6540 C   0  0  0  0  0  0  0  0  0  0  0  0
   57.4782   21.4792   42.8972 H   0  0  0  0  0  0  0  0  0  0  0  0
   55.9940   22.9690   43.7060 C   0  0  0  0  0  0  0  0  0  0  0  0
   56.1657   24.0438   43.8655 H   0  0  0  0  0  0  0  0  0  0  0  0
   55.4669   22.8037   42.7548 H   0  0  0  0  0  0  0  0  0  0  0  0
   55.1720   22.4480   44.7950 N   0  0  0  0  0  0  0  0  0  0  0  0
   54.1760   23.2200   45.4700 C   0  0  0  0  0  0  0  0  0  0  0  0
   52.9520   23.0130   45.2390 O   0  0  0  0  0  0  0  0  0  0  0  0
   54.5930   24.2240   46.4070 N   0  0  0  0  0  0  0  0  0  0  0  0
   55.5220   25.1140   46.2160 C   0  0  0  0  0  0  0  0  0  0  0  0
   55.2420   26.3480   45.7550 N   0  0  0  0  0  0  0  0  0  0  0  0
   56.4430   26.9560   45.6990 C   0  0  0  0  0  0  0  0  0  0  0  0
   56.6400   28.3460   45.2310 C   0  0  0  0  0  0  0  0  0  0  0  0
   57.8030   28.8140   45.1220 O   0  0  0  0  0  0  0  0  0  0  0  0
   55.5310   29.1860   44.8860 N   0  0  0  0  0  0  0  0  0  0  0  0
   55.6740   30.4910   44.5350 O   0  0  0  0  0  0  0  0  0  0  0  0
   56.2760   30.4930   43.2660 C   0  0  0  0  0  0  0  0  0  0  0  0
   57.3702   30.4966   43.3792 H   0  0  0  0  0  0  0  0  0  0  0  0
   55.9676   29.5938   42.7125 H   0  0  0  0  0  0  0  0  0  0  0  0
   55.9617   31.3901   42.7125 H   0  0  0  0  0  0  0  0  0  0  0  0
   57.4160   26.0660   46.1290 C   0  0  0  0  0  0  0  0  0  0  0  0
   58.8970   26.3220   46.2220 C   0  0  0  0  0  0  0  0  0  0  0  0
   59.4231   25.3567   46.2584 H   0  0  0  0  0  0  0  0  0  0  0  0
   59.1981   26.9049   45.3391 H   0  0  0  0  0  0  0  0  0  0  0  0
   59.2540   27.1180   47.4510 C   0  0  0  0  0  0  0  0  0  0  0  0
   60.3310   26.7240   48.2610 C   0  0  0  0  0  0  0  0  0  0  0  0
   60.8946   25.8113   48.0173 H   0  0  0  0  0  0  0  0  0  0  0  0
   60.6900   27.4870   49.3760 C   0  0  0  0  0  0  0  0  0  0  0  0
   61.5297   27.1697   50.0118 H   0  0  0  0  0  0  0  0  0  0  0  0
   59.9820   28.6540   49.6840 C   0  0  0  0  0  0  0  0  0  0  0  0
   60.3410   29.4110   50.7920 O   0  0  0  0  0  0  0  0  0  0  0  0
   58.9180   29.0590   48.8730 C   0  0  0  0  0  0  0  0  0  0  0  0
   58.3643   29.9787   49.1129 H   0  0  0  0  0  0  0  0  0  0  0  0
   58.5560   28.2980   47.7580 C   0  0  0  0  0  0  0  0  0  0  0  0
   57.7221   28.6239   47.1189 H   0  0  0  0  0  0  0  0  0  0  0  0
   56.8320   24.8970   46.4540 N   0  0  0  0  0  0  0  0  0  0  0  0
  1  2  1  0
  2  3  1  0
  2  4  2  0
  4  5  1  0
  4  6  1  0
  6  7  1  0
  6  8  1  0
  6  9  1  0
  9 10  1  0
 10 11  2  0
 10 12  1  0
 12 13  2  0
 13 14  1  0
 14 15  1  0
 15 16  1  0
 16 17  2  0
 16 18  1  0
 18 19  1  0
 19 20  1  0
 20 21  1  0
 20 22  1  0
 20 23  1  0
 15 24  2  0
 24 25  1  0
 25 26  1  0
 25 27  1  0
 25 28  1  0
 28 29  2  0
 29 30  1  0
 29 31  1  0
 31 32  1  0
 31 33  2  0
 33 34  1  0
 33 35  1  0
 35 36  1  0
 35 37  2  0
 37 38  1  0
 24 39  1  0
 39 13  1  0
 37 28  1  0
M  CHG  5   9  -1  14  -1  18  -1  34  -1  39  -1
M  END
>  <UniqueID>  (57) 
54

>  <SMILES>  (57) 
C=CC[N-]C(=O)/N=c1\[n-]c(Cc2ccc([O-])cc2)c(C(=O)[N-]OC)[n-]1

>  <Energy>  (57) 
62.29846725603113

>  <Genealogy>  (57) 
C=CC[N-]C(=O)N=c1[n-]c(Cc2ccc([O-])cc2)c(C(=O)[N-]OC)[n-]1 (protonated)
C=CC[N-]C(=O)/N=c1\[n-]c(Cc2ccc([O-])cc2)c(C(=O)[N-]OC)[n-]1 (cis-trans isomerization)
C=CC[N-]C(=O)/N=c1\[n-]c(Cc2ccc([O-])cc2)c(C(=O)[N-]OC)[n-]1 (3D coordinates assigned)
C=CC[N-]C(=O)/N=c1\[n-]c(Cc2ccc([O-])cc2)c(C(=O)[N-]OC)[n-]1 (optimized conformer: 62.29846725603113 kcal/mol)

>  <smiles>  (57) 
C=CCNC(=O)N=c1[nH]c(Cc2ccc(O)cc2)c(C(=O)NOC)[nH]1

>  <score_type>  (57) 
oracle

>  <origin>  (57) 
adg

>  <m_score__min__energy>  (57) 
-14.369999999999999

>  <m_primary>  (57) 
energy

$$$$
57:0
     RDKit          3D

 29 30  0  0  0  0  0  0  0  0999 V2000
   55.7551   28.3512   44.2769 H   0  0  0  0  0  0  0  0  0  0  0  0
   56.6210   28.7370   44.8350 C   0  0  0  0  0  0  0  0  0  0  0  0
   57.0020   30.0690   44.6770 C   0  0  0  0  0  0  0  0  0  0  0  0
   56.4282   30.7265   44.0073 H   0  0  0  0  0  0  0  0  0  0  0  0
   58.1090   30.5730   45.3650 C   0  0  0  0  0  0  0  0  0  0  0  0
   58.5000   32.0150   45.2170 C   0  0  0  0  0  0  0  0  0  0  0  0
   58.6222   32.4658   46.2129 H   0  0  0  0  0  0  0  0  0  0  0  0
   59.4490   32.0828   44.6648 H   0  0  0  0  0  0  0  0  0  0  0  0
   57.7153   32.5529   44.6648 H   0  0  0  0  0  0  0  0  0  0  0  0
   58.8070   29.7420   46.2500 C   0  0  0  0  0  0  0  0  0  0  0  0
   59.6644   30.1443   46.8094 H   0  0  0  0  0  0  0  0  0  0  0  0
   58.4270   28.3990   46.4340 C   0  0  0  0  0  0  0  0  0  0  0  0
   59.2000   27.5630   47.4200 C   0  0  0  0  0  0  0  0  0  0  0  0
   58.9273   27.8580   48.4440 H   0  0  0  0  0  0  0  0  0  0  0  0
   58.9592   26.5005   47.2680 H   0  0  0  0  0  0  0  0  0  0  0  0
   60.2781   27.7200   47.2680 H   0  0  0  0  0  0  0  0  0  0  0  0
   57.3280   27.8790   45.6980 C   0  0  0  0  0  0  0  0  0  0  0  0
   56.8960   26.4610   45.8030 C   0  0  0  0  0  0  0  0  0  0  0  0
   55.7270   26.0590   46.3540 N   0  0  0  0  0  0  0  0  0  0  0  0
   55.5640   24.7370   46.3700 N   0  0  0  0  0  0  0  0  0  0  0  0
   56.5990   24.0640   45.8280 C   0  0  0  0  0  0  0  0  0  0  0  0
   56.6300   22.7630   45.7900 N   0  0  0  0  0  0  0  0  0  0  0  0
   57.0320   21.9130   44.7030 C   0  0  0  0  0  0  0  0  0  0  0  0
   56.7020   22.4050   43.1760 S   0  0  0  0  0  0  0  0  0  0  0  0
   57.7770   20.7050   44.9150 N   0  0  0  0  0  0  0  0  0  0  0  0
   57.5810   20.3180   45.8660 H   0  0  0  0  0  0  0  0  0  0  0  0
   57.4920   19.9860   44.2120 H   0  0  0  0  0  0  0  0  0  0  0  0
   58.7990   20.9120   44.8410 H   0  0  0  0  0  0  0  0  0  0  0  0
   57.8060   25.1240   45.3120 S   0  0  0  0  0  0  0  0  0  0  0  0
  1  2  1  0
  2  3  2  0
  3  4  1  0
  3  5  1  0
  5  6  1  0
  6  7  1  0
  6  8  1  0
  6  9  1  0
  5 10  2  0
 10 11  1  0
 10 12  1  0
 12 13  1  0
 13 14  1  0
 13 15  1  0
 13 16  1  0
 12 17  2  0
 17 18  1  0
 18 19  2  0
 19 20  1  0
 20 21  1  0
 21 22  2  0
 22 23  1  0
 23 24  2  0
 23 25  1  0
 25 26  1  0
 25 27  1  0
 25 28  1  0
 21 29  1  0
 17  2  1  0
 29 18  1  0
M  CHG  2  20  -1  25   1
M  END
>  <UniqueID>  (58) 
55

>  <SMILES>  (58) 
Cc1ccc(-c2n[n-]/c(=N/C([NH3+])=S)s2)c(C)c1

>  <Energy>  (58) 
72.54888090353623

>  <Genealogy>  (58) 
Cc1ccc(-c2n[n-]c(=NC([NH3+])=S)s2)c(C)c1 (protonated)
Cc1ccc(-c2n[n-]/c(=N/C([NH3+])=S)s2)c(C)c1 (cis-trans isomerization)
Cc1ccc(-c2n[n-]/c(=N/C([NH3+])=S)s2)c(C)c1 (3D coordinates assigned)
Cc1ccc(-c2n[n-]/c(=N/C([NH3+])=S)s2)c(C)c1 (optimized conformer: 72.54888090353623 kcal/mol)

>  <smiles>  (58) 
Cc1ccc(-c2n[nH]c(=NC(N)=S)s2)c(C)c1

>  <score_type>  (58) 
oracle

>  <origin>  (58) 
adg

>  <m_score__min__energy>  (58) 
-7.5800000000000001

>  <m_primary>  (58) 
energy

$$$$
58:0
     RDKit          3D

 59 62  0  0  1  0  0  0  0  0999 V2000
   58.1020   34.2430   44.8540 C   0  0  0  0  0  0  0  0  0  0  0  0
   59.5330   33.9970   45.1910 C   0  0  0  0  0  0  0  0  0  0  0  0
   59.7500   33.6770   46.5800 N   0  0  0  0  0  0  0  0  0  0  0  0
   60.8740   32.8310   46.7600 C   0  0  0  0  0  0  0  0  0  0  0  0
   60.5610   31.3690   46.9580 C   0  0  0  0  0  0  0  0  0  0  0  0
   59.1950   31.1740   46.5130 N   0  0  0  0  0  0  0  0  0  0  0  0
   58.9650   30.2820   45.4330 C   0  0  0  0  0  0  0  0  0  0  0  0
   59.8550   29.6530   44.8330 O   0  0  0  0  0  0  0  0  0  0  0  0
   57.5490   30.1250   45.0330 C   0  0  0  0  0  0  0  0  0  0  0  0
   56.7310   31.0260   44.3990 C   0  0  0  0  0  0  0  0  0  0  0  0
   55.5470   30.4390   44.2640 N   0  0  0  0  0  0  0  0  0  0  0  0
   55.5180   29.2270   44.7570 N   0  0  0  0  0  0  0  0  0  0  0  0
   56.7590   29.0060   45.2450 C   0  0  0  0  0  0  0  0  0  0  0  0
   57.2160   27.9440   45.8280 N   0  0  0  0  0  0  0  0  0  0  0  0
   56.4190   26.7340   45.8010 C   0  0  0  0  0  0  0  0  0  0  0  0
   55.2020   26.7130   45.9900 O   0  0  0  0  0  0  0  0  0  0  0  0
   57.2190   25.5160   45.5270 C   0  0  0  0  0  0  0  0  0  0  0  0
   56.7590   24.6740   44.5670 C   0  0  0  0  0  0  0  0  0  0  0  0
   57.4640   23.5220   44.2550 C   0  0  0  0  0  0  0  0  0  0  0  0
   58.6330   23.2570   44.9330 C   0  0  0  0  0  0  0  0  0  0  0  0
   59.0770   24.1490   45.9150 C   0  0  0  0  0  0  0  0  0  0  0  0
   58.4100   25.2910   46.2540 C   0  0  0  0  0  0  0  0  0  0  0  0
   58.7210   26.2230   47.1670 O   0  0  0  0  0  0  0  0  0  0  0  0
   59.9820   26.6710   47.5630 C   0  0  0  0  0  0  0  0  0  0  0  0
   59.9190   27.7120   48.6100 C   0  0  0  0  0  0  0  0  0  0  0  0
   59.1870   28.8530   48.5970 C   0  0  0  0  0  0  0  0  0  0  0  0
   59.1340   29.7880   49.5970 C   0  0  0  0  0  0  0  0  0  0  0  0
   59.9140   29.5490   50.7580 C   0  0  0  0  0  0  0  0  0  0  0  0
   60.6380   28.4010   50.7500 C   0  0  0  0  0  0  0  0  0  0  0  0
   60.6910   27.4670   49.7520 C   0  0  0  0  0  0  0  0  0  0  0  0
   61.4630   26.3570   49.8710 F   0  0  0  0  0  0  0  0  0  0  0  0
   58.1560   31.9140   47.1940 C   0  0  0  0  0  0  0  0  0  0  0  0
   58.5740   33.3660   47.3290 C   0  0  0  0  0  0  0  0  0  0  0  0
   57.5189   34.3432   45.7813 H   0  0  0  0  0  0  0  0  0  0  0  0
   58.0177   35.1688   44.2660 H   0  0  0  0  0  0  0  0  0  0  0  0
   57.7134   33.3985   44.2660 H   0  0  0  0  0  0  0  0  0  0  0  0
   59.8953   33.1574   44.5796 H   0  0  0  0  0  0  0  0  0  0  0  0
   60.0789   34.9295   44.9847 H   0  0  0  0  0  0  0  0  0  0  0  0
   61.5136   32.9231   45.8698 H   0  0  0  0  0  0  0  0  0  0  0  0
   61.3576   33.1650   47.6898 H   0  0  0  0  0  0  0  0  0  0  0  0
   61.2467   30.7498   46.3610 H   0  0  0  0  0  0  0  0  0  0  0  0
   60.6805   31.0768   48.0117 H   0  0  0  0  0  0  0  0  0  0  0  0
   57.0031   32.0387   44.0667 H   0  0  0  0  0  0  0  0  0  0  0  0
   54.6910   30.8740   43.8140 H   0  0  0  0  0  0  0  0  0  0  0  0
   54.7740   28.5060   44.8130 H   0  0  0  0  0  0  0  0  0  0  0  0
   55.8245   24.9063   44.0353 H   0  0  0  0  0  0  0  0  0  0  0  0
   57.0967   22.8326   43.4805 H   0  0  0  0  0  0  0  0  0  0  0  0
   59.2132   22.3509   44.7042 H   0  0  0  0  0  0  0  0  0  0  0  0
   60.0142   23.9178   46.4425 H   0  0  0  0  0  0  0  0  0  0  0  0
   60.5523   25.8150   47.9528 H   0  0  0  0  0  0  0  0  0  0  0  0
   60.4658   27.1175   46.6818 H   0  0  0  0  0  0  0  0  0  0  0  0
   58.5794   29.0460   47.7006 H   0  0  0  0  0  0  0  0  0  0  0  0
   58.5106   30.6895   49.5034 H   0  0  0  0  0  0  0  0  0  0  0  0
   59.9308   30.2474   51.6077 H   0  0  0  0  0  0  0  0  0  0  0  0
   61.2483   28.1999   51.6428 H   0  0  0  0  0  0  0  0  0  0  0  0
   57.2230   31.8535   46.6145 H   0  0  0  0  0  0  0  0  0  0  0  0
   57.9955   31.4844   48.1939 H   0  0  0  0  0  0  0  0  0  0  0  0
   57.7514   34.0029   46.9716 H   0  0  0  0  0  0  0  0  0  0  0  0
   58.8003   33.5475   48.3901 H   0  0  0  0  0  0  0  0  0  0  0  0
  1  2  1  0
  2  3  1  0
  3  4  1  0
  4  5  1  0
  5  6  1  0
  6  7  1  0
  7  8  2  0
  7  9  1  0
  9 10  2  0
 10 11  1  0
 11 12  1  0
 12 13  1  0
 13 14  2  0
 14 15  1  0
 15 16  2  0
 15 17  1  0
 17 18  2  0
 18 19  1  0
 19 20  2  0
 20 21  1  0
 21 22  2  0
 22 23  1  0
 23 24  1  0
 24 25  1  0
 25 26  2  0
 26 27  1  0
 27 28  2  0
 28 29  1  0
 29 30  2  0
 30 31  1  0
  6 32  1  0
 32 33  1  0
 33  3  1  0
 13  9  1  0
 22 17  1  0
 30 25  1  0
  1 34  1  0
  1 35  1  0
  1 36  1  0
  2 37  1  0
  2 38  1  0
  4 39  1  0
  4 40  1  0
  5 41  1  0
  5 42  1  0
 10 43  1  0
 11 44  1  0
 12 45  1  0
 18 46  1  0
 19 47  1  0
 20 48  1  0
 21 49  1  0
 24 50  1  0
 24 51  1  0
 26 52  1  0
 27 53  1  0
 28 54  1  0
 29 55  1  0
 32 56  1  0
 32 57  1  0
 33 58  1  0
 33 59  1  0
M  END
>  <smiles>  (59) 
CCN1CCN(C(=O)c2c[nH][nH]c2=NC(=O)c2ccccc2OCc2ccccc2F)CC1

>  <score_type>  (59) 
oracle

>  <origin>  (59) 
adg

>  <m_score__min__energy>  (59) 
-9.25

>  <m_primary>  (59) 
energy

$$$$
59:0
     RDKit          3D

 40 43  0  0  0  0  0  0  0  0999 V2000
   54.7680   27.4660   46.2920 H   0  0  0  0  0  0  0  0  0  0  0  0
   55.5450   27.3590   45.6530 O   0  0  0  0  0  0  0  0  0  0  0  0
   56.2180   28.4740   45.1640 C   0  0  0  0  0  0  0  0  0  0  0  0
   55.7090   29.7160   45.1550 N   0  0  0  0  0  0  0  0  0  0  0  0
   56.7140   30.4500   44.6230 C   0  0  0  0  0  0  0  0  0  0  0  0
   56.6370   31.7310   44.4170 N   0  0  0  0  0  0  0  0  0  0  0  0
   57.7640   32.6110   44.3030 C   0  0  0  0  0  0  0  0  0  0  0  0
   58.4470   32.5860   43.2450 O   0  0  0  0  0  0  0  0  0  0  0  0
   58.1660   33.4650   45.3910 N   0  0  0  0  0  0  0  0  0  0  0  0
   57.9870   33.0550   46.7870 C   0  0  0  0  0  0  0  0  0  0  0  0
   57.1024   33.5564   47.2066 H   0  0  0  0  0  0  0  0  0  0  0  0
   57.8459   31.9652   46.8356 H   0  0  0  0  0  0  0  0  0  0  0  0
   59.2290   33.4480   47.5940 C   0  0  0  0  0  0  0  0  0  0  0  0
   59.0432   33.2529   48.6605 H   0  0  0  0  0  0  0  0  0  0  0  0
   60.0835   32.8525   47.2400 H   0  0  0  0  0  0  0  0  0  0  0  0
   59.5270   34.8200   47.4180 O   0  0  0  0  0  0  0  0  0  0  0  0
   59.8860   35.0680   46.0710 C   0  0  0  0  0  0  0  0  0  0  0  0
   60.1986   36.1177   45.9688 H   0  0  0  0  0  0  0  0  0  0  0  0
   60.7107   34.3937   45.7967 H   0  0  0  0  0  0  0  0  0  0  0  0
   58.7040   34.8030   45.1340 C   0  0  0  0  0  0  0  0  0  0  0  0
   57.9199   35.5536   45.3120 H   0  0  0  0  0  0  0  0  0  0  0  0
   59.0433   34.8668   44.0896 H   0  0  0  0  0  0  0  0  0  0  0  0
   57.8120   29.7370   44.2910 N   0  0  0  0  0  0  0  0  0  0  0  0
   57.4850   28.4780   44.6330 C   0  0  0  0  0  0  0  0  0  0  0  0
   58.4210   27.3140   44.5440 C   0  0  0  0  0  0  0  0  0  0  0  0
   57.8401   26.3885   44.4175 H   0  0  0  0  0  0  0  0  0  0  0  0
   59.0911   27.4550   43.6832 H   0  0  0  0  0  0  0  0  0  0  0  0
   59.2400   27.2180   45.7930 C   0  0  0  0  0  0  0  0  0  0  0  0
   59.1190   26.2520   46.8060 C   0  0  0  0  0  0  0  0  0  0  0  0
   58.5805   25.2990   46.6977 H   0  0  0  0  0  0  0  0  0  0  0  0
   59.7570   26.6530   47.9390 N   0  0  0  0  0  0  0  0  0  0  0  0
   59.7200   26.2070   48.8820 H   0  0  0  0  0  0  0  0  0  0  0  0
   60.2880   27.8380   47.6100 C   0  0  0  0  0  0  0  0  0  0  0  0
   59.9870   28.2130   46.3760 C   0  0  0  0  0  0  0  0  0  0  0  0
   60.1650   29.5710   46.2730 C   0  0  0  0  0  0  0  0  0  0  0  0
   60.0071   30.2152   45.3955 H   0  0  0  0  0  0  0  0  0  0  0  0
   60.5970   29.9390   47.5570 C   0  0  0  0  0  0  0  0  0  0  0  0
   60.8642   30.9647   47.8512 H   0  0  0  0  0  0  0  0  0  0  0  0
   60.6430   28.8640   48.3920 N   0  0  0  0  0  0  0  0  0  0  0  0
   60.7960   28.8640   49.4240 H   0  0  0  0  0  0  0  0  0  0  0  0
  1  2  1  0
  2  3  1  0
  3  4  1  0
  4  5  1  0
  5  6  2  0
  6  7  1  0
  7  8  2  0
  7  9  1  0
  9 10  1  0
 10 11  1  0
 10 12  1  0
 10 13  1  0
 13 14  1  0
 13 15  1  0
 13 16  1  0
 16 17  1  0
 17 18  1  0
 17 19  1  0
 17 20  1  0
 20 21  1  0
 20 22  1  0
  5 23  1  0
 23 24  1  0
 24 25  1  0
 25 26  1  0
 25 27  1  0
 25 28  1  0
 28 29  2  0
 29 30  1  0
 29 31  1  0
 31 32  1  0
 31 33  1  0
 33 34  2  0
 34 35  1  0
 35 36  1  0
 35 37  2  0
 37 38  1  0
 37 39  1  0
 39 40  1  0
 24  3  2  0
 34 28  1  0
 20  9  1  0
 39 33  1  0
M  CHG  2   4  -1  23  -1
M  END
>  <UniqueID>  (60) 
56

>  <SMILES>  (60) 
O=C(/N=c1\[n-]c(O)c(Cc2c[nH]c3[nH]ccc23)[n-]1)N1CCOCC1

>  <Energy>  (60) 
157.76716490658936

>  <Genealogy>  (60) 
O=C(N=c1[n-]c(O)c(Cc2c[nH]c3[nH]ccc23)[n-]1)N1CCOCC1 (protonated)
O=C(/N=c1\[n-]c(O)c(Cc2c[nH]c3[nH]ccc23)[n-]1)N1CCOCC1 (cis-trans isomerization)
O=C(/N=c1\[n-]c(O)c(Cc2c[nH]c3[nH]ccc23)[n-]1)N1CCOCC1 (3D coordinates assigned)
O=C(/N=c1\[n-]c(O)c(Cc2c[nH]c3[nH]ccc23)[n-]1)N1CCOCC1 (nonaromatic ring conformer: 157.76716490658936 kcal/mol)

>  <smiles>  (60) 
O=C(N=c1[nH]c(O)c(Cc2c[nH]c3[nH]ccc23)[nH]1)N1CCOCC1

>  <score_type>  (60) 
oracle

>  <origin>  (60) 
adg

>  <m_score__min__energy>  (60) 
-11.6

>  <m_primary>  (60) 
energy

$$$$
60:0
     RDKit          3D

 34 36  0  0  0  0  0  0  0  0999 V2000
   54.8850   26.0670   46.7340 H   0  0  0  0  0  0  0  0  0  0  0  0
   55.1280   25.1650   46.3430 O   0  0  0  0  0  0  0  0  0  0  0  0
   55.7540   24.1870   47.1100 C   0  0  0  0  0  0  0  0  0  0  0  0
   55.0880   23.3030   47.8700 N   0  0  0  0  0  0  0  0  0  0  0  0
   56.0790   22.5560   48.3990 C   0  0  0  0  0  0  0  0  0  0  0  0
   55.8610   21.5950   49.1810 O   0  0  0  0  0  0  0  0  0  0  0  0
   57.3250   22.9140   48.0170 N   0  0  0  0  0  0  0  0  0  0  0  0
   57.1110   23.9740   47.2140 C   0  0  0  0  0  0  0  0  0  0  0  0
   58.1590   24.6480   46.4320 C   0  0  0  0  0  0  0  0  0  0  0  0
   59.1815   24.2507   46.5140 H   0  0  0  0  0  0  0  0  0  0  0  0
   57.9740   25.7100   45.6240 C   0  0  0  0  0  0  0  0  0  0  0  0
   57.9350   25.6000   44.2430 C   0  0  0  0  0  0  0  0  0  0  0  0
   57.9900   24.6700   43.6581 H   0  0  0  0  0  0  0  0  0  0  0  0
   57.8140   26.8800   43.7420 C   0  0  0  0  0  0  0  0  0  0  0  0
   57.7690   27.2330   42.2860 C   0  0  0  0  0  0  0  0  0  0  0  0
   57.6306   28.3187   42.1760 H   0  0  0  0  0  0  0  0  0  0  0  0
   58.7126   26.9332   41.8067 H   0  0  0  0  0  0  0  0  0  0  0  0
   56.9308   26.7061   41.8067 H   0  0  0  0  0  0  0  0  0  0  0  0
   57.7490   27.7740   44.7520 N   0  0  0  0  0  0  0  0  0  0  0  0
   57.5710   29.1910   44.5940 C   0  0  0  0  0  0  0  0  0  0  0  0
   58.6830   30.0110   44.3520 C   0  0  0  0  0  0  0  0  0  0  0  0
   59.6879   29.5677   44.2919 H   0  0  0  0  0  0  0  0  0  0  0  0
   58.5190   31.3890   44.1870 C   0  0  0  0  0  0  0  0  0  0  0  0
   59.3944   32.0286   44.0012 H   0  0  0  0  0  0  0  0  0  0  0  0
   57.2420   31.9550   44.2580 C   0  0  0  0  0  0  0  0  0  0  0  0
   57.1140   33.0401   44.1304 H   0  0  0  0  0  0  0  0  0  0  0  0
   56.1280   31.1430   44.4910 C   0  0  0  0  0  0  0  0  0  0  0  0
   55.1244   31.5900   44.5463 H   0  0  0  0  0  0  0  0  0  0  0  0
   56.2880   29.7620   44.6540 C   0  0  0  0  0  0  0  0  0  0  0  0
   55.1720   28.9610   44.8710 O   0  0  0  0  0  0  0  0  0  0  0  0
   57.8130   27.0760   45.9140 C   0  0  0  0  0  0  0  0  0  0  0  0
   57.6270   27.6380   47.1190 C   0  0  0  0  0  0  0  0  0  0  0  0
   57.5144   28.7288   47.2057 H   0  0  0  0  0  0  0  0  0  0  0  0
   57.5872   27.0077   48.0196 H   0  0  0  0  0  0  0  0  0  0  0  0
  1  2  1  0
  2  3  1  0
  3  4  1  0
  4  5  1  0
  5  6  2  0
  5  7  1  0
  7  8  1  0
  8  9  1  0
  9 10  1  0
  9 11  2  0
 11 12  1  0
 12 13  1  0
 12 14  2  0
 14 15  1  0
 15 16  1  0
 15 17  1  0
 15 18  1  0
 14 19  1  0
 19 20  1  0
 20 21  2  0
 21 22  1  0
 21 23  1  0
 23 24  1  0
 23 25  2  0
 25 26  1  0
 25 27  1  0
 27 28  1  0
 27 29  2  0
 29 30  1  0
 19 31  1  0
 31 32  2  0
 32 33  1  0
 32 34  1  0
  8  3  2  0
 31 11  1  0
 29 20  1  0
M  CHG  3   4  -1   7  -1  30  -1
M  END
>  <UniqueID>  (61) 
57

>  <SMILES>  (61) 
C=c1/c(=C\c2[n-]c(=O)[n-]c2O)cc(C)n1-c1ccccc1[O-]

>  <Energy>  (61) 
111.37904545386479

>  <Genealogy>  (61) 
C=c1c(=Cc2[n-]c(=O)[n-]c2O)cc(C)n1-c1ccccc1[O-] (protonated)
C=c1/c(=C\c2[n-]c(=O)[n-]c2O)cc(C)n1-c1ccccc1[O-] (cis-trans isomerization)
C=c1/c(=C\c2[n-]c(=O)[n-]c2O)cc(C)n1-c1ccccc1[O-] (3D coordinates assigned)
C=c1/c(=C\c2[n-]c(=O)[n-]c2O)cc(C)n1-c1ccccc1[O-] (optimized conformer: 111.37904545386479 kcal/mol)

>  <smiles>  (61) 
C=c1c(=Cc2[nH]c(=O)[nH]c2O)cc(C)n1-c1ccccc1O

>  <score_type>  (61) 
oracle

>  <origin>  (61) 
adg

>  <m_score__min__energy>  (61) 
-13.59

>  <m_primary>  (61) 
energy

$$$$
61:0
     RDKit          3D

 36 38  0  0  0  0  0  0  0  0999 V2000
   54.7660   26.3360   45.8380 O   0  0  0  0  0  0  0  0  0  0  0  0
   55.9590   26.0120   46.0790 C   0  0  0  0  0  0  0  0  0  0  0  0
   57.0710   26.6000   45.2740 C   0  0  0  0  0  0  0  0  0  0  0  0
   56.8800   28.0760   45.1540 C   0  0  0  0  0  0  0  0  0  0  0  0
   57.8570   28.9790   45.3640 N   0  0  0  0  0  0  0  0  0  0  0  0
   57.1920   30.1400   45.1790 C   0  0  0  0  0  0  0  0  0  0  0  0
   57.8110   31.4730   45.3300 C   0  0  0  0  0  0  0  0  0  0  0  0
   57.7330   32.4180   44.2920 C   0  0  0  0  0  0  0  0  0  0  0  0
   58.2970   33.6880   44.4480 C   0  0  0  0  0  0  0  0  0  0  0  0
   58.9420   34.0270   45.6400 C   0  0  0  0  0  0  0  0  0  0  0  0
   59.0250   33.0960   46.6790 C   0  0  0  0  0  0  0  0  0  0  0  0
   58.4630   31.8240   46.5260 C   0  0  0  0  0  0  0  0  0  0  0  0
   55.8920   29.9430   44.8800 N   0  0  0  0  0  0  0  0  0  0  0  0
   55.7390   28.6540   44.8750 O   0  0  0  0  0  0  0  0  0  0  0  0
   56.2650   25.1000   47.1400 N   0  0  0  0  0  0  0  0  0  0  0  0
   56.6700   23.7140   46.9340 C   0  0  0  0  0  0  0  0  0  0  0  0
   55.7280   22.9930   45.9620 C   0  0  0  0  0  0  0  0  0  0  0  0
   56.4740   22.3310   44.8400 C   0  0  0  0  0  0  0  0  0  0  0  0
   57.8380   22.1240   44.7830 C   0  0  0  0  0  0  0  0  0  0  0  0
   58.0650   21.4940   43.5780 C   0  0  0  0  0  0  0  0  0  0  0  0
   56.8310   21.3610   42.9770 C   0  0  0  0  0  0  0  0  0  0  0  0
   55.9020   21.8670   43.7550 O   0  0  0  0  0  0  0  0  0  0  0  0
   58.0305   26.3948   45.7713 H   0  0  0  0  0  0  0  0  0  0  0  0
   57.0713   26.1501   44.2702 H   0  0  0  0  0  0  0  0  0  0  0  0
   57.2254   32.1568   43.3517 H   0  0  0  0  0  0  0  0  0  0  0  0
   58.2327   34.4214   43.6307 H   0  0  0  0  0  0  0  0  0  0  0  0
   59.3846   35.0268   45.7608 H   0  0  0  0  0  0  0  0  0  0  0  0
   59.5325   33.3635   47.6176 H   0  0  0  0  0  0  0  0  0  0  0  0
   58.5314   31.0939   47.3459 H   0  0  0  0  0  0  0  0  0  0  0  0
   57.6900   23.6968   46.5225 H   0  0  0  0  0  0  0  0  0  0  0  0
   56.6305   23.1947   47.9029 H   0  0  0  0  0  0  0  0  0  0  0  0
   55.1661   22.2263   46.5155 H   0  0  0  0  0  0  0  0  0  0  0  0
   55.0534   23.7435   45.5242 H   0  0  0  0  0  0  0  0  0  0  0  0
   58.5860   22.4030   45.5397 H   0  0  0  0  0  0  0  0  0  0  0  0
   59.0347   21.1640   43.1769 H   0  0  0  0  0  0  0  0  0  0  0  0
   56.6519   20.9005   41.9942 H   0  0  0  0  0  0  0  0  0  0  0  0
  1  2  2  0
  2  3  1  0
  3  4  1  0
  4  5  2  0
  5  6  1  0
  6  7  1  0
  7  8  2  0
  8  9  1  0
  9 10  2  0
 10 11  1  0
 11 12  2  0
  6 13  2  0
 13 14  1  0
  2 15  1  0
 15 16  1  0
 16 17  1  0
 17 18  1  0
 18 19  2  0
 19 20  1  0
 20 21  2  0
 21 22  1  0
 14  4  1  0
 22 18  1  0
 12  7  1  0
  3 23  1  0
  3 24  1  0
  8 25  1  0
  9 26  1  0
 10 27  1  0
 11 28  1  0
 12 29  1  0
 16 30  1  0
 16 31  1  0
 17 32  1  0
 17 33  1  0
 19 34  1  0
 20 35  1  0
 21 36  1  0
M  CHG  1  15  -1
M  END
>  <UniqueID>  (62) 
58

>  <SMILES>  (62) 
O=C(Cc1nc(-c2ccccc2)no1)[N-]CCc1ccco1

>  <Energy>  (62) 
86.72376660093973

>  <Genealogy>  (62) 
O=C(Cc1nc(-c2ccccc2)no1)[N-]CCc1ccco1 (protonated)
O=C(Cc1nc(-c2ccccc2)no1)[N-]CCc1ccco1 (3D coordinates assigned)
O=C(Cc1nc(-c2ccccc2)no1)[N-]CCc1ccco1 (optimized conformer: 86.72376660093973 kcal/mol)

>  <smiles>  (62) 
O=C(Cc1nc(-c2ccccc2)no1)NCCc1ccco1

>  <score_type>  (62) 
oracle

>  <origin>  (62) 
adg

>  <m_score__min__energy>  (62) 
-10.42

>  <m_primary>  (62) 
energy

$$$$
62:0
     RDKit          3D

 43 46  0  0  0  0  0  0  0  0999 V2000
   60.1909   27.0059   48.7113 H   0  0  0  0  0  0  0  0  0  0  0  0
   59.7360   27.0260   47.7100 C   0  0  0  0  0  0  0  0  0  0  0  0
   60.4010   27.6530   46.6540 C   0  0  0  0  0  0  0  0  0  0  0  0
   61.3837   28.1179   46.8219 H   0  0  0  0  0  0  0  0  0  0  0  0
   59.8190   27.6900   45.3850 C   0  0  0  0  0  0  0  0  0  0  0  0
   60.3513   28.1766   44.5544 H   0  0  0  0  0  0  0  0  0  0  0  0
   58.5580   27.1100   45.1610 C   0  0  0  0  0  0  0  0  0  0  0  0
   57.9670   27.1910   43.8070 C   0  0  0  0  0  0  0  0  0  0  0  0
   57.9620   26.1600   43.0860 O   0  0  0  0  0  0  0  0  0  0  0  0
   57.3660   28.3910   43.2950 N   0  0  0  0  0  0  0  0  0  0  0  0
   57.2780   29.5410   43.8980 C   0  0  0  0  0  0  0  0  0  0  0  0
   56.0930   30.0490   44.3010 N   0  0  0  0  0  0  0  0  0  0  0  0
   56.2020   31.2490   44.8680 N   0  0  0  0  0  0  0  0  0  0  0  0
   57.4720   31.7030   44.9110 C   0  0  0  0  0  0  0  0  0  0  0  0
   57.9310   33.2520   45.5900 S   0  0  0  0  0  0  0  0  0  0  0  0
   57.9210   34.3000   44.5130 O   0  0  0  0  0  0  0  0  0  0  0  0
   56.9030   33.6170   46.6230 O   0  0  0  0  0  0  0  0  0  0  0  0
   59.5210   33.1610   46.3300 N   0  0  2  0  0  0  0  0  0  0  0  0
   60.2090   32.7540   45.6540 H   0  0  0  0  0  0  0  0  0  0  0  0
   59.4220   32.3330   47.4930 C   0  0  0  0  0  0  0  0  0  0  0  0
   59.3230   30.9350   47.4980 C   0  0  0  0  0  0  0  0  0  0  0  0
   59.3252   30.3701   46.5542 H   0  0  0  0  0  0  0  0  0  0  0  0
   59.2210   30.2690   48.7290 C   0  0  0  0  0  0  0  0  0  0  0  0
   59.1337   29.1727   48.7536 H   0  0  0  0  0  0  0  0  0  0  0  0
   59.2300   30.9990   49.9320 C   0  0  0  0  0  0  0  0  0  0  0  0
   59.1418   30.4718   50.8934 H   0  0  0  0  0  0  0  0  0  0  0  0
   59.3510   32.3970   49.9100 C   0  0  0  0  0  0  0  0  0  0  0  0
   59.3659   32.9759   50.8452 H   0  0  0  0  0  0  0  0  0  0  0  0
   59.4520   33.0350   48.6730 C   0  0  0  0  0  0  0  0  0  0  0  0
   59.6390   34.4720   48.4000 C   0  0  0  0  0  0  0  0  0  0  0  0
   60.4403   34.8999   49.0204 H   0  0  0  0  0  0  0  0  0  0  0  0
   58.7594   35.0936   48.6233 H   0  0  0  0  0  0  0  0  0  0  0  0
   60.0330   34.4410   46.9080 C   0  0  2  0  0  0  0  0  0  0  0  0
   61.1262   34.4378   46.7862 H   0  0  0  0  0  0  0  0  0  0  0  0
   59.6550   35.7300   46.1610 C   0  0  0  0  0  0  0  0  0  0  0  0
   59.4230   36.5212   46.8892 H   0  0  0  0  0  0  0  0  0  0  0  0
   60.4976   36.0484   45.5296 H   0  0  0  0  0  0  0  0  0  0  0  0
   58.7739   35.5429   45.5296 H   0  0  0  0  0  0  0  0  0  0  0  0
   58.5500   30.6080   44.2250 S   0  0  0  0  0  0  0  0  0  0  0  0
   57.9020   26.4550   46.2270 C   0  0  0  0  0  0  0  0  0  0  0  0
   56.2370   25.5290   45.9950 Br  0  0  0  0  0  0  0  0  0  0  0  0
   58.4950   26.4250   47.4960 C   0  0  0  0  0  0  0  0  0  0  0  0
   57.9791   25.9246   48.3287 H   0  0  0  0  0  0  0  0  0  0  0  0
  1  2  1  0
  2  3  2  0
  3  4  1  0
  3  5  1  0
  5  6  1  0
  5  7  2  0
  7  8  1  0
  8  9  2  0
  8 10  1  0
 10 11  2  0
 11 12  1  0
 12 13  1  0
 13 14  2  0
 14 15  1  0
 15 16  2  0
 15 17  2  0
 15 18  1  0
 18 19  1  6
 18 20  1  0
 20 21  2  0
 21 22  1  0
 21 23  1  0
 23 24  1  0
 23 25  2  0
 25 26  1  0
 25 27  1  0
 27 28  1  0
 27 29  2  0
 29 30  1  0
 30 31  1  0
 30 32  1  0
 30 33  1  0
 33 34  1  1
 33 35  1  0
 35 36  1  0
 35 37  1  0
 35 38  1  0
 14 39  1  0
  7 40  1  0
 40 41  1  0
 40 42  2  0
 42 43  1  0
 42  2  1  0
 39 11  1  0
 33 18  1  0
 29 20  1  0
M  CHG  2  12  -1  18   1
M  END
>  <UniqueID>  (63) 
59

>  <SMILES>  (63) 
C[C@H]1Cc2ccccc2[N@H+]1S(=O)(=O)c1n[n-]/c(=N/C(=O)c2ccccc2Br)s1

>  <Energy>  (63) 
107.5850602046838

>  <Genealogy>  (63) 
CC1Cc2ccccc2[NH+]1S(=O)(=O)c1n[n-]c(=NC(=O)c2ccccc2Br)s1 (protonated)
C[C@H]1Cc2ccccc2[N@H+]1S(=O)(=O)c1n[n-]c(=NC(=O)c2ccccc2Br)s1 (chirality)
C[C@H]1Cc2ccccc2[N@H+]1S(=O)(=O)c1n[n-]/c(=N/C(=O)c2ccccc2Br)s1 (cis-trans isomerization)
C[C@H]1Cc2ccccc2[N@H+]1S(=O)(=O)c1n[n-]/c(=N/C(=O)c2ccccc2Br)s1 (3D coordinates assigned)
C[C@H]1Cc2ccccc2[N@H+]1S(=O)(=O)c1n[n-]/c(=N/C(=O)c2ccccc2Br)s1 (nonaromatic ring conformer: 107.5850602046838 kcal/mol)

>  <smiles>  (63) 
CC1Cc2ccccc2N1S(=O)(=O)c1n[nH]c(=NC(=O)c2ccccc2Br)s1

>  <score_type>  (63) 
oracle

>  <origin>  (63) 
adg

>  <m_score__min__energy>  (63) 
-9.6400000000000006

>  <m_primary>  (63) 
energy

$$$$
63:0
     RDKit          3D

 28 29  0  0  0  0  0  0  0  0999 V2000
   55.1430   27.2990   46.0650 H   0  0  0  0  0  0  0  0  0  0  0  0
   54.7970   26.3170   45.9860 N   0  0  0  0  0  0  0  0  0  0  0  0
   56.1870   25.2940   45.9070 S   0  0  0  0  0  0  0  0  0  0  0  0
   56.0220   24.1580   46.8770 O   0  0  0  0  0  0  0  0  0  0  0  0
   56.3220   24.7310   44.5190 O   0  0  0  0  0  0  0  0  0  0  0  0
   57.6250   26.2280   46.3050 C   0  0  0  0  0  0  0  0  0  0  0  0
   58.8510   25.5960   46.5400 C   0  0  0  0  0  0  0  0  0  0  0  0
   58.9291   24.5015   46.4632 H   0  0  0  0  0  0  0  0  0  0  0  0
   59.9450   26.3340   46.8630 N   0  0  0  0  0  0  0  0  0  0  0  0
   59.8920   27.6880   46.9760 C   0  0  0  0  0  0  0  0  0  0  0  0
   60.8001   28.2521   47.2351 H   0  0  0  0  0  0  0  0  0  0  0  0
   58.6810   28.3700   46.7630 C   0  0  0  0  0  0  0  0  0  0  0  0
   58.6110   29.8460   46.9080 C   0  0  0  0  0  0  0  0  0  0  0  0
   59.5150   30.4590   47.5370 O   0  0  0  0  0  0  0  0  0  0  0  0
   57.5750   30.6110   46.2750 N   0  0  0  0  0  0  0  0  0  0  0  0
   57.2760   30.6720   45.0060 C   0  0  0  0  0  0  0  0  0  0  0  0
   58.0490   31.4640   44.2120 N   0  0  0  0  0  0  0  0  0  0  0  0
   57.8420   31.5890   42.8750 C   0  0  0  0  0  0  0  0  0  0  0  0
   58.4944   32.2417   42.2764 H   0  0  0  0  0  0  0  0  0  0  0  0
   56.8040   30.8910   42.2620 C   0  0  0  0  0  0  0  0  0  0  0  0
   56.6413   30.9750   41.1773 H   0  0  0  0  0  0  0  0  0  0  0  0
   55.9740   30.0850   43.0390 C   0  0  0  0  0  0  0  0  0  0  0  0
   55.1493   29.5317   42.5659 H   0  0  0  0  0  0  0  0  0  0  0  0
   56.1850   29.9760   44.4200 C   0  0  0  0  0  0  0  0  0  0  0  0
   55.3020   29.2130   45.1840 O   0  0  0  0  0  0  0  0  0  0  0  0
   55.1510   28.2280   44.9990 H   0  0  0  0  0  0  0  0  0  0  0  0
   57.5460   27.6200   46.4170 C   0  0  0  0  0  0  0  0  0  0  0  0
   56.5889   28.1299   46.2329 H   0  0  0  0  0  0  0  0  0  0  0  0
  1  2  1  0
  2  3  1  0
  3  4  2  0
  3  5  2  0
  3  6  1  0
  6  7  2  0
  7  8  1  0
  7  9  1  0
  9 10  2  0
 10 11  1  0
 10 12  1  0
 12 13  1  0
 13 14  2  0
 13 15  1  0
 15 16  2  0
 16 17  1  0
 17 18  1  0
 18 19  1  0
 18 20  2  0
 20 21  1  0
 20 22  1  0
 22 23  1  0
 22 24  2  0
 24 25  1  0
 25 26  1  0
 12 27  2  0
 27 28  1  0
 27  6  1  0
 24 16  1  0
M  CHG  2   2  -1  17  -1
M  END
>  <UniqueID>  (64) 
60

>  <SMILES>  (64) 
[NH-]S(=O)(=O)c1cncc(C(=O)/N=c2/[n-]cccc2O)c1

>  <Energy>  (64) 
43.06663351328331

>  <Genealogy>  (64) 
[NH-]S(=O)(=O)c1cncc(C(=O)N=c2[n-]cccc2O)c1 (protonated)
[NH-]S(=O)(=O)c1cncc(C(=O)/N=c2/[n-]cccc2O)c1 (cis-trans isomerization)
[NH-]S(=O)(=O)c1cncc(C(=O)/N=c2/[n-]cccc2O)c1 (3D coordinates assigned)
[NH-]S(=O)(=O)c1cncc(C(=O)/N=c2/[n-]cccc2O)c1 (optimized conformer: 43.06663351328331 kcal/mol)

>  <smiles>  (64) 
NS(=O)(=O)c1cncc(C(=O)N=c2[nH]cccc2O)c1

>  <score_type>  (64) 
oracle

>  <origin>  (64) 
adg

>  <m_score__min__energy>  (64) 
-11.789999999999999

>  <m_primary>  (64) 
energy

$$$$
64:0
     RDKit          3D

 65 68  0  0  0  0  0  0  0  0999 V2000
   60.0030   26.6060   46.2230 C   0  0  0  0  0  0  0  0  0  0  0  0
   59.6770   27.9820   46.4080 O   0  0  0  0  0  0  0  0  0  0  0  0
   60.2730   28.8150   47.3690 C   0  0  0  0  0  0  0  0  0  0  0  0
   60.7130   30.1160   47.0690 C   0  0  0  0  0  0  0  0  0  0  0  0
   61.2730   30.9160   48.0670 C   0  0  0  0  0  0  0  0  0  0  0  0
   61.4050   30.4330   49.3830 C   0  0  0  0  0  0  0  0  0  0  0  0
   61.9420   31.2250   50.4120 O   0  0  0  0  0  0  0  0  0  0  0  0
   63.2310   31.8260   50.3790 C   0  0  0  0  0  0  0  0  0  0  0  0
   60.9810   29.1240   49.6800 C   0  0  0  0  0  0  0  0  0  0  0  0
   61.0700   28.5170   51.3350 S   0  0  0  0  0  0  0  0  0  0  0  0
   61.6150   27.1150   51.3600 O   0  0  0  0  0  0  0  0  0  0  0  0
   61.9810   29.3950   52.1490 O   0  0  0  0  0  0  0  0  0  0  0  0
   59.4770   28.5550   52.0110 N   0  0  0  0  0  0  0  0  0  0  0  0
   58.7450   29.7740   52.1360 C   0  0  0  0  0  0  0  0  0  0  0  0
   57.3580   29.7320   52.3200 C   0  0  0  0  0  0  0  0  0  0  0  0
   56.6360   30.9190   52.4740 C   0  0  0  0  0  0  0  0  0  0  0  0
   57.2940   32.1520   52.4240 C   0  0  0  0  0  0  0  0  0  0  0  0
   58.6780   32.2040   52.2040 C   0  0  0  0  0  0  0  0  0  0  0  0
   59.5080   33.7480   52.0280 S   0  0  0  0  0  0  0  0  0  0  0  0
   58.5250   34.8860   51.9940 O   0  0  0  0  0  0  0  0  0  0  0  0
   60.4230   33.9400   53.2040 O   0  0  0  0  0  0  0  0  0  0  0  0
   60.4470   33.7350   50.5680 N   0  0  0  0  0  0  0  0  0  0  0  0
   59.8560   33.5430   49.2730 C   0  0  0  0  0  0  0  0  0  0  0  0
   58.7290   32.7170   49.1400 C   0  0  0  0  0  0  0  0  0  0  0  0
   58.1110   32.5570   47.8950 C   0  0  0  0  0  0  0  0  0  0  0  0
   58.6180   33.2170   46.7650 C   0  0  0  0  0  0  0  0  0  0  0  0
   57.8140   33.0610   45.2020 S   0  0  0  0  0  0  0  0  0  0  0  0
   58.8320   33.2140   44.1060 O   0  0  0  0  0  0  0  0  0  0  0  0
   56.8080   34.1700   45.0560 O   0  0  0  0  0  0  0  0  0  0  0  0
   57.0120   31.5210   45.0260 N   0  0  0  0  0  0  0  0  0  0  0  0
   57.8000   30.4550   45.6600 C   0  0  0  0  0  0  0  0  0  0  0  0
   57.0980   29.0930   45.4720 C   0  0  0  0  0  0  0  0  0  0  0  0
   55.9140   29.2080   44.7010 O   0  0  0  0  0  0  0  0  0  0  0  0
   56.2090   29.7930   43.4450 C   0  0  0  0  0  0  0  0  0  0  0  0
   56.7950   31.2100   43.6050 C   0  0  0  0  0  0  0  0  0  0  0  0
   59.7620   34.0150   46.8900 C   0  0  0  0  0  0  0  0  0  0  0  0
   60.3830   34.1690   48.1310 C   0  0  0  0  0  0  0  0  0  0  0  0
   59.4010   31.0120   52.0630 C   0  0  0  0  0  0  0  0  0  0  0  0
   60.4170   28.3270   48.6730 C   0  0  0  0  0  0  0  0  0  0  0  0
   60.1178   26.1213   47.2038 H   0  0  0  0  0  0  0  0  0  0  0  0
   59.1974   26.1106   45.6613 H   0  0  0  0  0  0  0  0  0  0  0  0
   60.9453   26.5247   45.6613 H   0  0  0  0  0  0  0  0  0  0  0  0
   60.6158   30.5050   46.0447 H   0  0  0  0  0  0  0  0  0  0  0  0
   61.6142   31.9329   47.8229 H   0  0  0  0  0  0  0  0  0  0  0  0
   63.5850   31.9911   51.4073 H   0  0  0  0  0  0  0  0  0  0  0  0
   63.9319   31.1618   49.8521 H   0  0  0  0  0  0  0  0  0  0  0  0
   63.1728   32.7898   49.8521 H   0  0  0  0  0  0  0  0  0  0  0  0
   56.8358   28.7641   52.3434 H   0  0  0  0  0  0  0  0  0  0  0  0
   55.5484   30.8832   52.6348 H   0  0  0  0  0  0  0  0  0  0  0  0
   56.7244   33.0835   52.5576 H   0  0  0  0  0  0  0  0  0  0  0  0
   61.4820   33.6480   50.6700 H   0  0  0  0  0  0  0  0  0  0  0  0
   58.3291   32.1922   50.0201 H   0  0  0  0  0  0  0  0  0  0  0  0
   57.2250   31.9119   47.8016 H   0  0  0  0  0  0  0  0  0  0  0  0
   58.7979   30.4167   45.1987 H   0  0  0  0  0  0  0  0  0  0  0  0
   57.8927   30.6668   46.7354 H   0  0  0  0  0  0  0  0  0  0  0  0
   57.7884   28.4050   44.9622 H   0  0  0  0  0  0  0  0  0  0  0  0
   56.8205   28.7136   46.4665 H   0  0  0  0  0  0  0  0  0  0  0  0
   56.9401   29.1612   42.9194 H   0  0  0  0  0  0  0  0  0  0  0  0
   55.2733   29.8693   42.8717 H   0  0  0  0  0  0  0  0  0  0  0  0
   57.7552   31.2669   43.0714 H   0  0  0  0  0  0  0  0  0  0  0  0
   56.0844   31.9379   43.1863 H   0  0  0  0  0  0  0  0  0  0  0  0
   60.1736   34.5233   46.0056 H   0  0  0  0  0  0  0  0  0  0  0  0
   61.2908   34.7845   48.2151 H   0  0  0  0  0  0  0  0  0  0  0  0
   60.4874   31.0471   51.8944 H   0  0  0  0  0  0  0  0  0  0  0  0
   60.0838   27.3060   48.9109 H   0  0  0  0  0  0  0  0  0  0  0  0
  1  2  1  0
  2  3  1  0
  3  4  2  0
  4  5  1  0
  5  6  2  0
  6  7  1  0
  7  8  1  0
  6  9  1  0
  9 10  1  0
 10 11  2  0
 10 12  2  0
 10 13  1  0
 13 14  1  0
 14 15  2  0
 15 16  1  0
 16 17  2  0
 17 18  1  0
 18 19  1  0
 19 20  2  0
 19 21  2  0
 19 22  1  0
 22 23  1  0
 23 24  2  0
 24 25  1  0
 25 26  2  0
 26 27  1  0
 27 28  2  0
 27 29  2  0
 27 30  1  0
 30 31  1  0
 31 32  1  0
 32 33  1  0
 33 34  1  0
 34 35  1  0
 26 36  1  0
 36 37  2  0
 18 38  2  0
  9 39  2  0
 39  3  1  0
 38 14  1  0
 37 23  1  0
 35 30  1  0
  1 40  1  0
  1 41  1  0
  1 42  1  0
  4 43  1  0
  5 44  1  0
  8 45  1  0
  8 46  1  0
  8 47  1  0
 15 48  1  0
 16 49  1  0
 17 50  1  0
 22 51  1  0
 24 52  1  0
 25 53  1  0
 31 54  1  0
 31 55  1  0
 32 56  1  0
 32 57  1  0
 34 58  1  0
 34 59  1  0
 35 60  1  0
 35 61  1  0
 36 62  1  0
 37 63  1  0
 38 64  1  0
 39 65  1  0
M  CHG  1  13  -1
M  END
>  <UniqueID>  (65) 
61

>  <SMILES>  (65) 
COc1ccc(OC)c(S(=O)(=O)[N-]c2cccc(S(=O)(=O)Nc3ccc(S(=O)(=O)N4CCOCC4)cc3)c2)c1

>  <Energy>  (65) 
86.66920306811787

>  <Genealogy>  (65) 
COc1ccc(OC)c(S(=O)(=O)[N-]c2cccc(S(=O)(=O)Nc3ccc(S(=O)(=O)N4CCOCC4)cc3)c2)c1 (protonated)
COc1ccc(OC)c(S(=O)(=O)[N-]c2cccc(S(=O)(=O)Nc3ccc(S(=O)(=O)N4CCOCC4)cc3)c2)c1 (3D coordinates assigned)
COc1ccc(OC)c(S(=O)(=O)[N-]c2cccc(S(=O)(=O)Nc3ccc(S(=O)(=O)N4CCOCC4)cc3)c2)c1 (nonaromatic ring conformer: 86.66920306811787 kcal/mol)

>  <smiles>  (65) 
COc1ccc(OC)c(S(=O)(=O)Nc2cccc(S(=O)(=O)Nc3ccc(S(=O)(=O)N4CCOCC4)cc3)c2)c1

>  <score_type>  (65) 
oracle

>  <origin>  (65) 
adg

>  <m_score__min__energy>  (65) 
-12

>  <m_primary>  (65) 
energy

$$$$
65:0
     RDKit          3D

 42 44  0  0  0  0  0  0  0  0999 V2000
   55.3070   30.3470   44.5130 O   0  0  0  0  0  0  0  0  0  0  0  0
   56.2450   29.5130   44.6230 C   0  0  0  0  0  0  0  0  0  0  0  0
   57.6380   29.9250   44.2250 C   0  0  0  0  0  0  0  0  0  0  0  0
   57.9590   31.2490   44.7880 N   0  0  0  0  0  0  0  0  0  0  0  0
   57.8090   32.3450   43.9930 C   0  0  0  0  0  0  0  0  0  0  0  0
   58.0650   33.6140   44.4890 C   0  0  0  0  0  0  0  0  0  0  0  0
   58.4580   33.7550   45.8140 C   0  0  0  0  0  0  0  0  0  0  0  0
   58.6820   34.9150   46.2610 O   0  0  0  0  0  0  0  0  0  0  0  0
   58.5960   32.6510   46.6120 N   0  0  0  0  0  0  0  0  0  0  0  0
   59.0090   32.7900   48.0250 C   0  0  0  0  0  0  0  0  0  0  0  0
   60.4860   33.0770   48.1210 C   0  0  0  0  0  0  0  0  0  0  0  0
   60.9580   34.1150   48.9410 C   0  0  0  0  0  0  0  0  0  0  0  0
   62.3290   34.3680   49.0370 C   0  0  0  0  0  0  0  0  0  0  0  0
   63.2380   33.5860   48.3200 C   0  0  0  0  0  0  0  0  0  0  0  0
   62.7760   32.5450   47.5010 C   0  0  0  0  0  0  0  0  0  0  0  0
   63.6720   31.7550   46.7850 O   0  0  0  0  0  0  0  0  0  0  0  0
   61.4040   32.2940   47.4030 C   0  0  0  0  0  0  0  0  0  0  0  0
   58.3630   31.3990   46.0920 C   0  0  0  0  0  0  0  0  0  0  0  0
   58.5310   30.3800   46.8180 O   0  0  0  0  0  0  0  0  0  0  0  0
   55.9770   28.2490   45.2470 N   0  0  0  0  0  0  0  0  0  0  0  0
   56.9680   27.3080   45.6720 C   0  0  0  0  0  0  0  0  0  0  0  0
   56.9640   26.0160   45.1290 C   0  0  0  0  0  0  0  0  0  0  0  0
   57.9090   25.0740   45.5490 C   0  0  0  0  0  0  0  0  0  0  0  0
   57.8710   23.4460   44.8980 Cl  0  0  0  0  0  0  0  0  0  0  0  0
   58.8790   25.4290   46.4920 C   0  0  0  0  0  0  0  0  0  0  0  0
   58.9130   26.7300   47.0080 C   0  0  0  0  0  0  0  0  0  0  0  0
   60.1420   27.1820   48.1740 Cl  0  0  0  0  0  0  0  0  0  0  0  0
   57.9640   27.6710   46.5930 C   0  0  0  0  0  0  0  0  0  0  0  0
   58.3579   29.1849   44.6043 H   0  0  0  0  0  0  0  0  0  0  0  0
   57.6963   29.9784   43.1278 H   0  0  0  0  0  0  0  0  0  0  0  0
   57.4823   32.2222   42.9498 H   0  0  0  0  0  0  0  0  0  0  0  0
   57.9584   34.4973   43.8422 H   0  0  0  0  0  0  0  0  0  0  0  0
   58.4494   33.6176   48.4854 H   0  0  0  0  0  0  0  0  0  0  0  0
   58.7962   31.8475   48.5507 H   0  0  0  0  0  0  0  0  0  0  0  0
   60.2459   34.7310   49.5097 H   0  0  0  0  0  0  0  0  0  0  0  0
   62.6931   35.1843   49.6782 H   0  0  0  0  0  0  0  0  0  0  0  0
   64.3167   33.7867   48.3977 H   0  0  0  0  0  0  0  0  0  0  0  0
   64.6650   31.9580   46.7760 H   0  0  0  0  0  0  0  0  0  0  0  0
   61.0418   31.4785   46.7598 H   0  0  0  0  0  0  0  0  0  0  0  0
   56.2158   25.7420   44.3706 H   0  0  0  0  0  0  0  0  0  0  0  0
   59.6161   24.6851   46.8286 H   0  0  0  0  0  0  0  0  0  0  0  0
   57.9983   28.6967   46.9889 H   0  0  0  0  0  0  0  0  0  0  0  0
  1  2  2  0
  2  3  1  0
  3  4  1  0
  4  5  1  0
  5  6  2  0
  6  7  1  0
  7  8  2  0
  7  9  1  0
  9 10  1  0
 10 11  1  0
 11 12  2  0
 12 13  1  0
 13 14  2  0
 14 15  1  0
 15 16  1  0
 15 17  2  0
  9 18  1  0
 18 19  2  0
  2 20  1  0
 20 21  1  0
 21 22  2  0
 22 23  1  0
 23 24  1  0
 23 25  2  0
 25 26  1  0
 26 27  1  0
 26 28  2  0
 18  4  1  0
 28 21  1  0
 17 11  1  0
  3 29  1  0
  3 30  1  0
  5 31  1  0
  6 32  1  0
 10 33  1  0
 10 34  1  0
 12 35  1  0
 13 36  1  0
 14 37  1  0
 16 38  1  0
 17 39  1  0
 22 40  1  0
 25 41  1  0
 28 42  1  0
M  CHG  1  20  -1
M  END
>  <UniqueID>  (66) 
62

>  <SMILES>  (66) 
O=C(Cn1ccc(=O)n(Cc2cccc(O)c2)c1=O)[N-]c1cc(Cl)cc(Cl)c1

>  <Energy>  (66) 
53.283424266157745

>  <Genealogy>  (66) 
O=C(Cn1ccc(=O)n(Cc2cccc(O)c2)c1=O)[N-]c1cc(Cl)cc(Cl)c1 (protonated)
O=C(Cn1ccc(=O)n(Cc2cccc(O)c2)c1=O)[N-]c1cc(Cl)cc(Cl)c1 (3D coordinates assigned)
O=C(Cn1ccc(=O)n(Cc2cccc(O)c2)c1=O)[N-]c1cc(Cl)cc(Cl)c1 (optimized conformer: 53.283424266157745 kcal/mol)

>  <smiles>  (66) 
O=C(Cn1ccc(=O)n(Cc2cccc(O)c2)c1=O)Nc1cc(Cl)cc(Cl)c1

>  <score_type>  (66) 
oracle

>  <origin>  (66) 
adg

>  <m_score__min__energy>  (66) 
-10.789999999999999

>  <m_primary>  (66) 
energy

$$$$
66:0
     RDKit          3D

 36 38  0  0  0  0  0  0  0  0999 V2000
   59.7723   34.8976   44.0898 H   0  0  0  0  0  0  0  0  0  0  0  0
   58.9890   34.2680   44.5370 C   0  0  0  0  0  0  0  0  0  0  0  0
   58.5080   34.5600   45.7740 N   0  0  0  0  0  0  0  0  0  0  0  0
   57.5410   33.8050   46.3590 C   0  0  0  0  0  0  0  0  0  0  0  0
   57.1711   34.0671   47.3613 H   0  0  0  0  0  0  0  0  0  0  0  0
   57.0160   32.6970   45.6900 C   0  0  0  0  0  0  0  0  0  0  0  0
   56.2329   32.0849   46.1612 H   0  0  0  0  0  0  0  0  0  0  0  0
   57.4950   32.3710   44.4130 C   0  0  0  0  0  0  0  0  0  0  0  0
   56.9330   31.1950   43.6570 C   0  0  0  0  0  0  0  0  0  0  0  0
   57.7614   30.6070   43.2351 H   0  0  0  0  0  0  0  0  0  0  0  0
   56.2831   31.5685   42.8519 H   0  0  0  0  0  0  0  0  0  0  0  0
   56.1420   30.3430   44.5450 N   0  0  0  0  0  0  0  0  0  0  0  0
   56.6040   29.3160   45.1940 C   0  0  0  0  0  0  0  0  0  0  0  0
   57.8130   29.4050   45.8070 N   0  0  0  0  0  0  0  0  0  0  0  0
   58.3390   28.3510   46.4910 C   0  0  0  0  0  0  0  0  0  0  0  0
   59.6590   28.5040   47.1870 C   0  0  0  0  0  0  0  0  0  0  0  0
   59.6480   27.9213   48.1199 H   0  0  0  0  0  0  0  0  0  0  0  0
   60.4587   28.1381   46.5262 H   0  0  0  0  0  0  0  0  0  0  0  0
   59.9100   29.9520   47.5080 C   0  0  0  0  0  0  0  0  0  0  0  0
   59.1250   30.6120   48.4690 C   0  0  0  0  0  0  0  0  0  0  0  0
   58.3415   30.0607   49.0095 H   0  0  0  0  0  0  0  0  0  0  0  0
   59.3370   31.9670   48.7400 C   0  0  0  0  0  0  0  0  0  0  0  0
   58.7251   32.4773   49.4983 H   0  0  0  0  0  0  0  0  0  0  0  0
   60.3240   32.6740   48.0500 C   0  0  0  0  0  0  0  0  0  0  0  0
   60.4909   33.7393   48.2673 H   0  0  0  0  0  0  0  0  0  0  0  0
   61.1000   32.0280   47.0830 C   0  0  0  0  0  0  0  0  0  0  0  0
   61.8748   32.5868   46.5376 H   0  0  0  0  0  0  0  0  0  0  0  0
   60.8930   30.6730   46.8080 C   0  0  0  0  0  0  0  0  0  0  0  0
   61.5010   30.1697   46.0418 H   0  0  0  0  0  0  0  0  0  0  0  0
   57.6130   27.1580   46.5840 C   0  0  0  0  0  0  0  0  0  0  0  0
   58.0113   26.2992   47.1443 H   0  0  0  0  0  0  0  0  0  0  0  0
   56.3730   27.0830   45.9500 C   0  0  0  0  0  0  0  0  0  0  0  0
   55.6950   26.0240   46.0070 O   0  0  0  0  0  0  0  0  0  0  0  0
   55.8930   28.1560   45.2710 N   0  0  0  0  0  0  0  0  0  0  0  0
   58.4900   33.1690   43.8320 C   0  0  0  0  0  0  0  0  0  0  0  0
   58.8752   32.9323   42.8292 H   0  0  0  0  0  0  0  0  0  0  0  0
  1  2  1  0
  2  3  2  0
  3  4  1  0
  4  5  1  0
  4  6  2  0
  6  7  1  0
  6  8  1  0
  8  9  1  0
  9 10  1  0
  9 11  1  0
  9 12  1  0
 12 13  2  0
 13 14  1  0
 14 15  1  0
 15 16  1  0
 16 17  1  0
 16 18  1  0
 16 19  1  0
 19 20  2  0
 20 21  1  0
 20 22  1  0
 22 23  1  0
 22 24  2  0
 24 25  1  0
 24 26  1  0
 26 27  1  0
 26 28  2  0
 28 29  1  0
 15 30  2  0
 30 31  1  0
 30 32  1  0
 32 33  2  0
 32 34  1  0
  8 35  2  0
 35 36  1  0
 35  2  1  0
 34 13  1  0
 28 19  1  0
M  CHG  2  14  -1  34  -1
M  END
>  <UniqueID>  (67) 
63

>  <SMILES>  (67) 
O=c1cc(Cc2ccccc2)[n-]/c(=N/Cc2ccncc2)[n-]1

>  <Energy>  (67) 
38.00255241273282

>  <Genealogy>  (67) 
O=c1cc(Cc2ccccc2)[n-]c(=NCc2ccncc2)[n-]1 (protonated)
O=c1cc(Cc2ccccc2)[n-]/c(=N/Cc2ccncc2)[n-]1 (cis-trans isomerization)
O=c1cc(Cc2ccccc2)[n-]/c(=N/Cc2ccncc2)[n-]1 (3D coordinates assigned)
O=c1cc(Cc2ccccc2)[n-]/c(=N/Cc2ccncc2)[n-]1 (optimized conformer: 38.00255241273282 kcal/mol)

>  <smiles>  (67) 
O=c1cc(Cc2ccccc2)[nH]c(=NCc2ccncc2)[nH]1

>  <score_type>  (67) 
oracle

>  <origin>  (67) 
adg

>  <m_score__min__energy>  (67) 
-10.710000000000001

>  <m_primary>  (67) 
energy

$$$$
67:0
     RDKit          3D

 56 59  0  0  0  0  0  0  0  0999 V2000
   55.6408   30.6457   51.3907 H   0  0  0  0  0  0  0  0  0  0  0  0
   56.7010   30.8580   51.5930 C   0  0  0  0  0  0  0  0  0  0  0  0
   57.6860   29.9470   51.3600 N   0  0  0  0  0  0  0  0  0  0  0  0
   58.9030   30.4450   51.6840 C   0  0  0  0  0  0  0  0  0  0  0  0
   60.0160   29.7800   51.5870 N   0  0  0  0  0  0  0  0  0  0  0  0
   60.5450   29.2090   50.3810 C   0  0  0  0  0  0  0  0  0  0  0  0
   60.6950   27.9580   50.3290 O   0  0  0  0  0  0  0  0  0  0  0  0
   61.0170   30.0510   49.2480 C   0  0  0  0  0  0  0  0  0  0  0  0
   61.7630   31.2170   49.5100 C   0  0  0  0  0  0  0  0  0  0  0  0
   61.9606   31.5148   50.5503 H   0  0  0  0  0  0  0  0  0  0  0  0
   62.2550   32.0000   48.4600 C   0  0  0  0  0  0  0  0  0  0  0  0
   62.8132   32.9222   48.6789 H   0  0  0  0  0  0  0  0  0  0  0  0
   62.0400   31.6150   47.1360 C   0  0  0  0  0  0  0  0  0  0  0  0
   62.4459   32.2215   46.3130 H   0  0  0  0  0  0  0  0  0  0  0  0
   61.3090   30.4590   46.8580 C   0  0  0  0  0  0  0  0  0  0  0  0
   61.1376   30.1586   45.8138 H   0  0  0  0  0  0  0  0  0  0  0  0
   60.7910   29.6770   47.9030 C   0  0  0  0  0  0  0  0  0  0  0  0
   59.9760   28.5470   47.5770 N   0  0  0  0  0  0  0  0  0  0  0  0
   60.1660   27.6460   48.0700 H   0  0  0  0  0  0  0  0  0  0  0  0
   58.7600   28.7000   46.8370 C   0  0  0  0  0  0  0  0  0  0  0  0
   58.5860   29.7090   46.1030 O   0  0  0  0  0  0  0  0  0  0  0  0
   57.6760   27.6750   46.9540 C   0  0  0  0  0  0  0  0  0  0  0  0
   58.1273   26.6758   47.0434 H   0  0  0  0  0  0  0  0  0  0  0  0
   57.0691   27.8908   47.8457 H   0  0  0  0  0  0  0  0  0  0  0  0
   56.6290   27.7250   45.5040 S   0  0  0  0  0  0  0  0  0  0  0  0
   57.4430   27.3920   44.2850 O   0  0  0  0  0  0  0  0  0  0  0  0
   55.5360   26.7030   45.6550 O   0  0  0  0  0  0  0  0  0  0  0  0
   55.9040   29.2940   45.3230 N   0  0  0  0  0  0  0  0  0  0  0  0
   55.8370   29.6550   43.9070 C   0  0  0  0  0  0  0  0  0  0  0  0
   56.2089   28.8175   43.2985 H   0  0  0  0  0  0  0  0  0  0  0  0
   54.7935   29.8743   43.6367 H   0  0  0  0  0  0  0  0  0  0  0  0
   56.6820   30.8710   43.6520 C   0  0  0  0  0  0  0  0  0  0  0  0
   57.3380   31.0390   42.4200 C   0  0  0  0  0  0  0  0  0  0  0  0
   57.2078   30.2918   41.6233 H   0  0  0  0  0  0  0  0  0  0  0  0
   58.1550   32.1520   42.2040 C   0  0  0  0  0  0  0  0  0  0  0  0
   58.6477   32.2911   41.2304 H   0  0  0  0  0  0  0  0  0  0  0  0
   58.3470   33.0890   43.2240 C   0  0  0  0  0  0  0  0  0  0  0  0
   58.9995   33.9576   43.0516 H   0  0  0  0  0  0  0  0  0  0  0  0
   57.7150   32.9300   44.4630 C   0  0  0  0  0  0  0  0  0  0  0  0
   57.9120   33.9130   45.4430 O   0  0  0  0  0  0  0  0  0  0  0  0
   58.4080   33.7080   46.7400 C   0  0  0  0  0  0  0  0  0  0  0  0
   58.1130   32.5540   47.4940 C   0  0  0  0  0  0  0  0  0  0  0  0
   57.4644   31.7731   47.0704 H   0  0  0  0  0  0  0  0  0  0  0  0
   58.6430   32.3990   48.7800 C   0  0  0  0  0  0  0  0  0  0  0  0
   58.3875   31.5098   49.3750 H   0  0  0  0  0  0  0  0  0  0  0  0
   59.4970   33.3720   49.3110 C   0  0  0  0  0  0  0  0  0  0  0  0
   59.9142   33.2468   50.3211 H   0  0  0  0  0  0  0  0  0  0  0  0
   59.8190   34.5030   48.5560 C   0  0  0  0  0  0  0  0  0  0  0  0
   60.5014   35.2618   48.9665 H   0  0  0  0  0  0  0  0  0  0  0  0
   59.2740   34.6710   47.2780 C   0  0  0  0  0  0  0  0  0  0  0  0
   59.5270   35.5659   46.6905 H   0  0  0  0  0  0  0  0  0  0  0  0
   56.8640   31.8280   44.6660 C   0  0  0  0  0  0  0  0  0  0  0  0
   56.3372   31.7143   45.6250 H   0  0  0  0  0  0  0  0  0  0  0  0
   58.8110   32.0130   52.2760 S   0  0  0  0  0  0  0  0  0  0  0  0
   57.1340   32.0780   52.1060 C   0  0  0  0  0  0  0  0  0  0  0  0
   56.4931   32.9360   52.3571 H   0  0  0  0  0  0  0  0  0  0  0  0
  1  2  1  0
  2  3  1  0
  3  4  1  0
  4  5  2  0
  5  6  1  0
  6  7  2  0
  6  8  1  0
  8  9  2  0
  9 10  1  0
  9 11  1  0
 11 12  1  0
 11 13  2  0
 13 14  1  0
 13 15  1  0
 15 16  1  0
 15 17  2  0
 17 18  1  0
 18 19  1  0
 18 20  1  0
 20 21  2  0
 20 22  1  0
 22 23  1  0
 22 24  1  0
 22 25  1  0
 25 26  2  0
 25 27  2  0
 25 28  1  0
 28 29  1  0
 29 30  1  0
 29 31  1  0
 29 32  1  0
 32 33  2  0
 33 34  1  0
 33 35  1  0
 35 36  1  0
 35 37  2  0
 37 38  1  0
 37 39  1  0
 39 40  1  0
 40 41  1  0
 41 42  2  0
 42 43  1  0
 42 44  1  0
 44 45  1  0
 44 46  2  0
 46 47  1  0
 46 48  1  0
 48 49  1  0
 48 50  2  0
 50 51  1  0
 39 52  2  0
 52 53  1  0
  4 54  1  0
 54 55  1  0
 55 56  1  0
 55  2  2  0
 17  8  1  0
 52 32  1  0
 50 41  1  0
M  CHG  2   3  -1  28  -1
M  END
>  <UniqueID>  (68) 
64

>  <SMILES>  (68) 
O=C(CS(=O)(=O)[N-]Cc1cccc(Oc2ccccc2)c1)Nc1ccccc1C(=O)/N=c1\[n-]ccs1

>  <Energy>  (68) 
98.82185223688334

>  <Genealogy>  (68) 
O=C(CS(=O)(=O)[N-]Cc1cccc(Oc2ccccc2)c1)Nc1ccccc1C(=O)N=c1[n-]ccs1 (protonated)
O=C(CS(=O)(=O)[N-]Cc1cccc(Oc2ccccc2)c1)Nc1ccccc1C(=O)/N=c1\[n-]ccs1 (cis-trans isomerization)
O=C(CS(=O)(=O)[N-]Cc1cccc(Oc2ccccc2)c1)Nc1ccccc1C(=O)/N=c1\[n-]ccs1 (3D coordinates assigned)
O=C(CS(=O)(=O)[N-]Cc1cccc(Oc2ccccc2)c1)Nc1ccccc1C(=O)/N=c1\[n-]ccs1 (optimized conformer: 98.82185223688334 kcal/mol)

>  <smiles>  (68) 
O=C(CS(=O)(=O)NCc1cccc(Oc2ccccc2)c1)Nc1ccccc1C(=O)N=c1[nH]ccs1

>  <score_type>  (68) 
oracle

>  <origin>  (68) 
adg

>  <m_score__min__energy>  (68) 
-13.390000000000001

>  <m_primary>  (68) 
energy

$$$$
68:0
     RDKit          3D

 42 44  0  0  0  0  0  0  0  0999 V2000
   56.9550   31.1150   42.9170 C   0  0  0  0  0  0  0  0  0  0  0  0
   57.6750   31.7580   44.0710 C   0  0  0  0  0  0  0  0  0  0  0  0
   58.3040   32.9980   43.8760 C   0  0  0  0  0  0  0  0  0  0  0  0
   58.9460   33.6430   44.9330 C   0  0  0  0  0  0  0  0  0  0  0  0
   58.9820   33.0580   46.2080 C   0  0  0  0  0  0  0  0  0  0  0  0
   59.6410   33.7620   47.3340 C   0  0  0  0  0  0  0  0  0  0  0  0
   58.9560   34.5060   48.0870 O   0  0  0  0  0  0  0  0  0  0  0  0
   61.0440   33.5930   47.5970 N   0  0  0  0  0  0  0  0  0  0  0  0
   61.5250   33.5820   48.9790 C   0  0  0  0  0  0  0  0  0  0  0  0
   62.8430   32.8040   49.0570 C   0  0  0  0  0  0  0  0  0  0  0  0
   63.7770   33.2970   48.1130 O   0  0  0  0  0  0  0  0  0  0  0  0
   63.2970   33.0730   46.8000 C   0  0  0  0  0  0  0  0  0  0  0  0
   62.0230   33.8820   46.5440 C   0  0  0  0  0  0  0  0  0  0  0  0
   58.3600   31.8150   46.4060 C   0  0  0  0  0  0  0  0  0  0  0  0
   57.7390   31.1460   45.3440 C   0  0  0  0  0  0  0  0  0  0  0  0
   57.1290   29.8740   45.6010 N   0  0  0  0  0  0  0  0  0  0  0  0
   57.8380   28.6700   45.9190 C   0  0  0  0  0  0  0  0  0  0  0  0
   58.6690   28.6850   46.8640 O   0  0  0  0  0  0  0  0  0  0  0  0
   57.6700   27.4100   45.1140 C   0  0  0  0  0  0  0  0  0  0  0  0
   57.2270   26.2850   45.9950 C   0  0  0  0  0  0  0  0  0  0  0  0
   58.0540   25.3640   46.5210 N   0  0  0  0  0  0  0  0  0  0  0  0
   57.2180   24.5510   47.2020 C   0  0  0  0  0  0  0  0  0  0  0  0
   57.6240   23.5500   47.8470 O   0  0  0  0  0  0  0  0  0  0  0  0
   55.9130   24.8930   47.1370 N   0  0  0  0  0  0  0  0  0  0  0  0
   55.9370   25.9920   46.3660 C   0  0  0  0  0  0  0  0  0  0  0  0
   54.8040   26.7060   46.0020 O   0  0  0  0  0  0  0  0  0  0  0  0
   56.1862   30.4284   43.3012 H   0  0  0  0  0  0  0  0  0  0  0  0
   56.4779   31.8931   42.3030 H   0  0  0  0  0  0  0  0  0  0  0  0
   57.6744   30.5533   42.3030 H   0  0  0  0  0  0  0  0  0  0  0  0
   58.2904   33.4652   42.8802 H   0  0  0  0  0  0  0  0  0  0  0  0
   59.4278   34.6177   44.7659 H   0  0  0  0  0  0  0  0  0  0  0  0
   61.6891   34.6155   49.3180 H   0  0  0  0  0  0  0  0  0  0  0  0
   60.7760   33.0984   49.6233 H   0  0  0  0  0  0  0  0  0  0  0  0
   63.2635   32.9082   50.0681 H   0  0  0  0  0  0  0  0  0  0  0  0
   62.6409   31.7463   48.8324 H   0  0  0  0  0  0  0  0  0  0  0  0
   64.0686   33.3761   46.0769 H   0  0  0  0  0  0  0  0  0  0  0  0
   63.0657   32.0037   46.6858 H   0  0  0  0  0  0  0  0  0  0  0  0
   62.2624   34.9556   46.5498 H   0  0  0  0  0  0  0  0  0  0  0  0
   61.6028   33.6068   45.5654 H   0  0  0  0  0  0  0  0  0  0  0  0
   58.3605   31.3609   47.4079 H   0  0  0  0  0  0  0  0  0  0  0  0
   56.9147   27.5773   44.3319 H   0  0  0  0  0  0  0  0  0  0  0  0
   58.6351   27.1469   44.6564 H   0  0  0  0  0  0  0  0  0  0  0  0
  1  2  1  0
  2  3  2  0
  3  4  1  0
  4  5  2  0
  5  6  1  0
  6  7  2  0
  6  8  1  0
  8  9  1  0
  9 10  1  0
 10 11  1  0
 11 12  1  0
 12 13  1  0
  5 14  1  0
 14 15  2  0
 15 16  1  0
 16 17  1  0
 17 18  2  0
 17 19  1  0
 19 20  1  0
 20 21  1  0
 21 22  1  0
 22 23  2  0
 22 24  1  0
 24 25  1  0
 25 26  1  0
 15  2  1  0
 25 20  2  0
 13  8  1  0
  1 27  1  0
  1 28  1  0
  1 29  1  0
  3 30  1  0
  4 31  1  0
  9 32  1  0
  9 33  1  0
 10 34  1  0
 10 35  1  0
 12 36  1  0
 12 37  1  0
 13 38  1  0
 13 39  1  0
 14 40  1  0
 19 41  1  0
 19 42  1  0
M  CHG  4  16  -1  21  -1  24  -1  26  -1
M  END
>  <UniqueID>  (69) 
65

>  <SMILES>  (69) 
Cc1ccc(C(=O)N2CCOCC2)cc1[N-]C(=O)Cc1[n-]c(=O)[n-]c1[O-]

>  <Energy>  (69) 
82.66678657258353

>  <Genealogy>  (69) 
Cc1ccc(C(=O)N2CCOCC2)cc1[N-]C(=O)Cc1[n-]c(=O)[n-]c1[O-] (protonated)
Cc1ccc(C(=O)N2CCOCC2)cc1[N-]C(=O)Cc1[n-]c(=O)[n-]c1[O-] (3D coordinates assigned)
Cc1ccc(C(=O)N2CCOCC2)cc1[N-]C(=O)Cc1[n-]c(=O)[n-]c1[O-] (nonaromatic ring conformer: 82.66678657258353 kcal/mol)

>  <smiles>  (69) 
Cc1ccc(C(=O)N2CCOCC2)cc1NC(=O)Cc1[nH]c(=O)[nH]c1O

>  <score_type>  (69) 
oracle

>  <origin>  (69) 
adg

>  <m_score__min__energy>  (69) 
-17.27

>  <m_primary>  (69) 
energy

$$$$
69:0
     RDKit          3D

 34 35  0  0  1  0  0  0  0  0999 V2000
   58.8260   24.4380   46.3570 C   0  0  0  0  0  0  0  0  0  0  0  0
   57.9810   23.8010   45.3210 C   0  0  0  0  0  0  0  0  0  0  0  0
   58.3090   22.5630   44.8200 C   0  0  0  0  0  0  0  0  0  0  0  0
   59.4420   21.8960   45.2840 O   0  0  0  0  0  0  0  0  0  0  0  0
   57.4920   22.0050   43.8540 C   0  0  0  0  0  0  0  0  0  0  0  0
   56.3880   22.7120   43.4340 C   0  0  0  0  0  0  0  0  0  0  0  0
   56.0430   23.9580   43.9260 C   0  0  0  0  0  0  0  0  0  0  0  0
   56.8750   24.4880   44.8900 C   0  0  0  0  0  0  0  0  0  0  0  0
   56.5830   25.8170   45.4740 C   0  0  0  0  0  0  0  0  0  0  0  0
   55.4790   26.0350   46.0280 O   0  0  0  0  0  0  0  0  0  0  0  0
   57.6200   26.7770   45.3540 N   0  0  0  0  0  0  0  0  0  0  0  0
   57.2030   28.0290   45.1110 C   0  0  0  0  0  0  0  0  0  0  0  0
   56.0360   28.6080   45.1770 N   0  0  0  0  0  0  0  0  0  0  0  0
   56.0000   29.8700   44.8560 N   0  0  0  0  0  0  0  0  0  0  0  0
   56.8930   30.5720   44.5070 C   0  0  0  0  0  0  0  0  0  0  0  0
   57.1850   31.9770   44.1210 C   0  0  0  0  0  0  0  0  0  0  0  0
   57.7640   31.8990   42.6860 C   0  0  0  0  0  0  0  0  0  0  0  0
   58.1980   32.6580   44.9720 C   0  0  0  0  0  0  0  0  0  0  0  0
   58.3800   29.3410   44.5490 S   0  0  0  0  0  0  0  0  0  0  0  0
   58.4559   24.1590   47.3546 H   0  0  0  0  0  0  0  0  0  0  0  0
   59.8655   24.0969   46.2430 H   0  0  0  0  0  0  0  0  0  0  0  0
   58.7842   25.5313   46.2430 H   0  0  0  0  0  0  0  0  0  0  0  0
   59.5780   20.8980   45.1130 H   0  0  0  0  0  0  0  0  0  0  0  0
   57.7197   21.0160   43.4297 H   0  0  0  0  0  0  0  0  0  0  0  0
   55.7444   22.2611   42.6643 H   0  0  0  0  0  0  0  0  0  0  0  0
   55.1534   24.4969   43.5679 H   0  0  0  0  0  0  0  0  0  0  0  0
   55.1460   28.0880   45.4740 H   0  0  0  0  0  0  0  0  0  0  0  0
   56.2572   32.5590   44.2232 H   0  0  0  0  0  0  0  0  0  0  0  0
   58.8530   31.7523   42.7375 H   0  0  0  0  0  0  0  0  0  0  0  0
   57.3051   31.0546   42.1509 H   0  0  0  0  0  0  0  0  0  0  0  0
   57.5450   32.8348   42.1509 H   0  0  0  0  0  0  0  0  0  0  0  0
   57.9554   32.4949   46.0324 H   0  0  0  0  0  0  0  0  0  0  0  0
   59.1948   32.2459   44.7563 H   0  0  0  0  0  0  0  0  0  0  0  0
   58.1927   33.7366   44.7563 H   0  0  0  0  0  0  0  0  0  0  0  0
  1  2  1  0
  2  3  2  0
  3  4  1  0
  3  5  1  0
  5  6  2  0
  6  7  1  0
  7  8  2  0
  8  9  1  0
  9 10  2  0
  9 11  1  0
 11 12  2  0
 12 13  1  0
 13 14  1  0
 14 15  2  0
 15 16  1  0
 16 17  1  0
 16 18  1  0
 15 19  1  0
  8  2  1  0
 19 12  1  0
  1 20  1  0
  1 21  1  0
  1 22  1  0
  4 23  1  0
  5 24  1  0
  6 25  1  0
  7 26  1  0
 13 27  1  0
 16 28  1  0
 17 29  1  0
 17 30  1  0
 17 31  1  0
 18 32  1  0
 18 33  1  0
 18 34  1  0
M  END
>  <smiles>  (70) 
Cc1c(O)cccc1C(=O)N=c1[nH]nc(C(C)C)s1

>  <score_type>  (70) 
oracle

>  <origin>  (70) 
adg

>  <m_score__min__energy>  (70) 
-8.3800000000000008

>  <m_primary>  (70) 
energy

$$$$
70:0
     RDKit          3D

 39 41  0  0  0  0  0  0  0  0999 V2000
   55.4800   29.1170   44.8770 N   0  0  0  0  0  0  0  0  0  0  0  0
   56.1680   29.6860   43.7620 C   0  0  0  0  0  0  0  0  0  0  0  0
   55.5270   29.9600   42.7130 O   0  0  0  0  0  0  0  0  0  0  0  0
   57.5850   29.8890   43.7860 N   0  0  0  0  0  0  0  0  0  0  0  0
   58.3730   30.1950   44.9450 C   0  0  0  0  0  0  0  0  0  0  0  0
   58.5410   31.5350   45.3150 C   0  0  0  0  0  0  0  0  0  0  0  0
   59.2790   31.8650   46.4550 C   0  0  0  0  0  0  0  0  0  0  0  0
   59.8370   30.8570   47.2450 C   0  0  0  0  0  0  0  0  0  0  0  0
   59.6460   29.5140   46.9050 C   0  0  0  0  0  0  0  0  0  0  0  0
   60.3350   28.2190   47.9370 S   0  0  0  0  0  0  0  0  0  0  0  0
   59.4960   26.9090   47.0290 C   0  0  0  0  0  0  0  0  0  0  0  0
   60.2320   25.9400   46.3420 C   0  0  0  0  0  0  0  0  0  0  0  0
   61.6210   25.9660   46.3630 O   0  0  0  0  0  0  0  0  0  0  0  0
   59.6120   24.9880   45.6570 O   0  0  0  0  0  0  0  0  0  0  0  0
   58.2880   24.8820   45.5830 C   0  0  0  0  0  0  0  0  0  0  0  0
   57.7440   23.8100   44.7220 C   0  0  0  0  0  0  0  0  0  0  0  0
   58.2970   22.5220   44.7820 C   0  0  0  0  0  0  0  0  0  0  0  0
   57.8180   21.5080   43.9450 C   0  0  0  0  0  0  0  0  0  0  0  0
   56.7940   21.7790   43.0330 C   0  0  0  0  0  0  0  0  0  0  0  0
   56.2540   23.0650   42.9510 C   0  0  0  0  0  0  0  0  0  0  0  0
   56.7310   24.0810   43.7840 C   0  0  0  0  0  0  0  0  0  0  0  0
   57.4650   25.7920   46.2970 C   0  0  0  0  0  0  0  0  0  0  0  0
   55.9870   25.6470   46.3540 C   0  0  0  0  0  0  0  0  0  0  0  0
   55.4630   24.5690   46.7400 O   0  0  0  0  0  0  0  0  0  0  0  0
   55.1610   26.7120   46.0120 O   0  0  0  0  0  0  0  0  0  0  0  0
   58.0990   26.8230   47.0180 C   0  0  0  0  0  0  0  0  0  0  0  0
   57.4200   27.6580   47.6760 O   0  0  0  0  0  0  0  0  0  0  0  0
   58.9140   29.1830   45.7580 C   0  0  0  0  0  0  0  0  0  0  0  0
   56.0020   28.7280   45.6920 H   0  0  0  0  0  0  0  0  0  0  0  0
   54.4410   29.0110   44.8530 H   0  0  0  0  0  0  0  0  0  0  0  0
   58.0899   32.3318   44.7054 H   0  0  0  0  0  0  0  0  0  0  0  0
   59.4208   32.9204   46.7307 H   0  0  0  0  0  0  0  0  0  0  0  0
   60.4271   31.1199   48.1353 H   0  0  0  0  0  0  0  0  0  0  0  0
   59.1110   22.3082   45.4903 H   0  0  0  0  0  0  0  0  0  0  0  0
   58.2476   20.4971   44.0048 H   0  0  0  0  0  0  0  0  0  0  0  0
   56.4133   20.9799   42.3799 H   0  0  0  0  0  0  0  0  0  0  0  0
   55.4517   23.2784   42.2293 H   0  0  0  0  0  0  0  0  0  0  0  0
   56.3131   25.0955   43.7060 H   0  0  0  0  0  0  0  0  0  0  0  0
   58.7615   28.1267   45.4917 H   0  0  0  0  0  0  0  0  0  0  0  0
  1  2  1  0
  2  3  2  0
  2  4  1  0
  4  5  1  0
  5  6  2  0
  6  7  1  0
  7  8  2  0
  8  9  1  0
  9 10  1  0
 10 11  1  0
 11 12  2  0
 12 13  1  0
 12 14  1  0
 14 15  1  0
 15 16  1  0
 16 17  2  0
 17 18  1  0
 18 19  2  0
 19 20  1  0
 20 21  2  0
 15 22  2  0
 22 23  1  0
 23 24  2  0
 23 25  1  0
 22 26  1  0
 26 27  2  0
  9 28  2  0
 28  5  1  0
 26 11  1  0
 21 16  1  0
  1 29  1  0
  1 30  1  0
  6 31  1  0
  7 32  1  0
  8 33  1  0
 17 34  1  0
 18 35  1  0
 19 36  1  0
 20 37  1  0
 21 38  1  0
 28 39  1  0
M  CHG  3   4  -1  13  -1  25  -1
M  END
>  <UniqueID>  (71) 
66

>  <SMILES>  (71) 
NC(=O)[N-]c1cccc(Sc2c([O-])oc(-c3ccccc3)c(C(=O)[O-])c2=O)c1

>  <Energy>  (71) 
54.78190711107073

>  <Genealogy>  (71) 
NC(=O)[N-]c1cccc(Sc2c([O-])oc(-c3ccccc3)c(C(=O)[O-])c2=O)c1 (protonated)
NC(=O)[N-]c1cccc(Sc2c([O-])oc(-c3ccccc3)c(C(=O)[O-])c2=O)c1 (3D coordinates assigned)
NC(=O)[N-]c1cccc(Sc2c([O-])oc(-c3ccccc3)c(C(=O)[O-])c2=O)c1 (optimized conformer: 54.78190711107073 kcal/mol)

>  <smiles>  (71) 
NC(=O)Nc1cccc(Sc2c(O)oc(-c3ccccc3)c(C(=O)O)c2=O)c1

>  <score_type>  (71) 
oracle

>  <origin>  (71) 
adg

>  <m_score__min__energy>  (71) 
-14.300000000000001

>  <m_primary>  (71) 
energy

$$$$
71:0
     RDKit          3D

 62 64  0  0  0  0  0  0  0  0999 V2000
   58.1490   22.2250   44.0160 C   0  0  0  0  0  0  0  0  0  0  0  0
   59.1940   22.2130   45.1350 C   0  0  0  0  0  0  0  0  0  0  0  0
   59.5580   23.6270   45.6060 C   0  0  0  0  0  0  0  0  0  0  0  0
   58.3530   24.5320   45.7210 C   0  0  0  0  0  0  0  0  0  0  0  0
   57.1660   23.9330   46.0070 N   0  0  0  0  0  0  0  0  0  0  0  0
   55.9990   24.6160   46.1320 C   0  0  0  0  0  0  0  0  0  0  0  0
   54.7410   23.8700   46.4540 C   0  0  0  0  0  0  0  0  0  0  0  0
   55.9810   25.9960   45.9160 C   0  0  0  0  0  0  0  0  0  0  0  0
   54.7780   26.6960   46.0060 O   0  0  0  0  0  0  0  0  0  0  0  0
   57.1730   26.6640   45.5920 C   0  0  0  0  0  0  0  0  0  0  0  0
   57.1080   28.1100   45.3010 C   0  0  0  0  0  0  0  0  0  0  0  0
   56.9390   28.5000   44.1130 O   0  0  0  0  0  0  0  0  0  0  0  0
   57.1310   29.0250   46.3580 O   0  0  0  0  0  0  0  0  0  0  0  0
   58.2900   29.4860   47.0050 C   0  0  0  0  0  0  0  0  0  0  0  0
   59.1060   28.6200   47.7600 C   0  0  0  0  0  0  0  0  0  0  0  0
   60.2420   29.1060   48.4080 C   0  0  0  0  0  0  0  0  0  0  0  0
   60.5750   30.4580   48.3190 C   0  0  0  0  0  0  0  0  0  0  0  0
   59.7660   31.3300   47.5900 C   0  0  0  0  0  0  0  0  0  0  0  0
   58.6130   30.8560   46.9400 C   0  0  0  0  0  0  0  0  0  0  0  0
   57.7850   31.7870   46.1470 C   0  0  0  0  0  0  0  0  0  0  0  0
   57.0610   31.3300   45.2230 O   0  0  0  0  0  0  0  0  0  0  0  0
   57.8030   33.2010   46.3690 N   0  0  0  0  0  0  0  0  0  0  0  0
   58.6990   34.1540   45.7190 C   0  0  0  0  0  0  0  0  0  0  0  0
   59.4060   35.0190   46.7650 C   0  0  0  0  0  0  0  0  0  0  0  0
   60.6770   34.3670   47.2470 C   0  0  0  0  0  0  0  0  0  0  0  0
   61.6310   33.9030   46.3260 C   0  0  0  0  0  0  0  0  0  0  0  0
   62.8360   33.3520   46.7740 C   0  0  0  0  0  0  0  0  0  0  0  0
   63.1030   33.2700   48.1470 C   0  0  0  0  0  0  0  0  0  0  0  0
   64.3080   32.7430   48.6030 O   0  0  0  0  0  0  0  0  0  0  0  0
   62.1530   33.7240   49.0690 C   0  0  0  0  0  0  0  0  0  0  0  0
   60.9480   34.2750   48.6240 C   0  0  0  0  0  0  0  0  0  0  0  0
   58.3980   25.9460   45.5440 C   0  0  0  0  0  0  0  0  0  0  0  0
   59.7140   26.6930   45.3620 C   0  0  0  0  0  0  0  0  0  0  0  0
   60.7150   26.3520   46.4680 C   0  0  0  0  0  0  0  0  0  0  0  0
   57.1409   22.2366   44.4559 H   0  0  0  0  0  0  0  0  0  0  0  0
   58.2880   23.1216   43.3941 H   0  0  0  0  0  0  0  0  0  0  0  0
   58.2674   21.3254   43.3941 H   0  0  0  0  0  0  0  0  0  0  0  0
   58.7916   21.6482   45.9889 H   0  0  0  0  0  0  0  0  0  0  0  0
   60.1069   21.7447   44.7383 H   0  0  0  0  0  0  0  0  0  0  0  0
   60.0402   23.5562   46.5921 H   0  0  0  0  0  0  0  0  0  0  0  0
   60.2314   24.0644   44.8542 H   0  0  0  0  0  0  0  0  0  0  0  0
   54.6248   23.8011   47.5457 H   0  0  0  0  0  0  0  0  0  0  0  0
   53.8790   24.4030   46.0264 H   0  0  0  0  0  0  0  0  0  0  0  0
   54.7952   22.8580   46.0264 H   0  0  0  0  0  0  0  0  0  0  0  0
   58.8457   27.5542   47.8389 H   0  0  0  0  0  0  0  0  0  0  0  0
   60.8765   28.4217   48.9904 H   0  0  0  0  0  0  0  0  0  0  0  0
   61.4760   30.8366   48.8239 H   0  0  0  0  0  0  0  0  0  0  0  0
   60.0320   32.3953   47.5233 H   0  0  0  0  0  0  0  0  0  0  0  0
   59.4514   33.6039   45.1348 H   0  0  0  0  0  0  0  0  0  0  0  0
   58.1089   34.8048   45.0570 H   0  0  0  0  0  0  0  0  0  0  0  0
   59.6507   35.9937   46.3177 H   0  0  0  0  0  0  0  0  0  0  0  0
   58.7320   35.1436   47.6253 H   0  0  0  0  0  0  0  0  0  0  0  0
   61.4293   33.9734   45.2470 H   0  0  0  0  0  0  0  0  0  0  0  0
   63.5749   32.9826   46.0476 H   0  0  0  0  0  0  0  0  0  0  0  0
   65.0900   32.5880   47.9800 H   0  0  0  0  0  0  0  0  0  0  0  0
   62.3553   33.6469   50.1475 H   0  0  0  0  0  0  0  0  0  0  0  0
   60.2090   34.6380   49.3534 H   0  0  0  0  0  0  0  0  0  0  0  0
   60.1490   26.4175   44.3899 H   0  0  0  0  0  0  0  0  0  0  0  0
   59.5055   27.7721   45.4085 H   0  0  0  0  0  0  0  0  0  0  0  0
   60.2453   26.5120   47.4497 H   0  0  0  0  0  0  0  0  0  0  0  0
   61.0200   25.2993   46.3747 H   0  0  0  0  0  0  0  0  0  0  0  0
   61.5993   26.9996   46.3747 H   0  0  0  0  0  0  0  0  0  0  0  0
  1  2  1  0
  2  3  1  0
  3  4  1  0
  4  5  2  0
  5  6  1  0
  6  7  1  0
  6  8  2  0
  8  9  1  0
  8 10  1  0
 10 11  1  0
 11 12  2  0
 11 13  1  0
 13 14  1  0
 14 15  2  0
 15 16  1  0
 16 17  2  0
 17 18  1  0
 18 19  2  0
 19 20  1  0
 20 21  2  0
 20 22  1  0
 22 23  1  0
 23 24  1  0
 24 25  1  0
 25 26  2  0
 26 27  1  0
 27 28  2  0
 28 29  1  0
 28 30  1  0
 30 31  2  0
 10 32  2  0
 32 33  1  0
 33 34  1  0
 32  4  1  0
 19 14  1  0
 31 25  1  0
  1 35  1  0
  1 36  1  0
  1 37  1  0
  2 38  1  0
  2 39  1  0
  3 40  1  0
  3 41  1  0
  7 42  1  0
  7 43  1  0
  7 44  1  0
 15 45  1  0
 16 46  1  0
 17 47  1  0
 18 48  1  0
 23 49  1  0
 23 50  1  0
 24 51  1  0
 24 52  1  0
 26 53  1  0
 27 54  1  0
 29 55  1  0
 30 56  1  0
 31 57  1  0
 33 58  1  0
 33 59  1  0
 34 60  1  0
 34 61  1  0
 34 62  1  0
M  CHG  2   9  -1  22  -1
M  END
>  <UniqueID>  (72) 
67

>  <SMILES>  (72) 
CCCc1nc(C)c([O-])c(C(=O)Oc2ccccc2C(=O)[N-]CCc2ccc(O)cc2)c1CC

>  <Energy>  (72) 
75.93693956593575

>  <Genealogy>  (72) 
CCCc1nc(C)c([O-])c(C(=O)Oc2ccccc2C(=O)[N-]CCc2ccc(O)cc2)c1CC (protonated)
CCCc1nc(C)c([O-])c(C(=O)Oc2ccccc2C(=O)[N-]CCc2ccc(O)cc2)c1CC (3D coordinates assigned)
CCCc1nc(C)c([O-])c(C(=O)Oc2ccccc2C(=O)[N-]CCc2ccc(O)cc2)c1CC (optimized conformer: 75.93693956593575 kcal/mol)

>  <smiles>  (72) 
CCCc1nc(C)c(O)c(C(=O)Oc2ccccc2C(=O)NCCc2ccc(O)cc2)c1CC

>  <score_type>  (72) 
oracle

>  <origin>  (72) 
adg

>  <m_score__min__energy>  (72) 
-14.609999999999999

>  <m_primary>  (72) 
energy

$$$$
72:0
     RDKit          3D

 55 59  0  0  0  0  0  0  0  0999 V2000
   58.5940   30.1790   47.3930 O   0  0  0  0  0  0  0  0  0  0  0  0
   58.4110   29.6070   46.3120 C   0  0  0  0  0  0  0  0  0  0  0  0
   58.2370   30.4140   45.1490 N   0  0  0  0  0  0  0  0  0  0  0  0
   58.2800   31.8330   45.2760 C   0  0  0  0  0  0  0  0  0  0  0  0
   57.1580   32.5250   44.8760 C   0  0  0  0  0  0  0  0  0  0  0  0
   57.1580   33.9000   44.9790 C   0  0  0  0  0  0  0  0  0  0  0  0
   58.2650   34.5550   45.4750 C   0  0  0  0  0  0  0  0  0  0  0  0
   59.4030   33.8580   45.8820 C   0  0  0  0  0  0  0  0  0  0  0  0
   60.5200   34.6700   46.4040 C   0  0  0  0  0  0  0  0  0  0  0  0
   61.4210   33.8500   47.2360 C   0  0  0  0  0  0  0  0  0  0  0  0
   62.6660   33.6270   46.7350 N   0  0  0  0  0  0  0  0  0  0  0  0
   63.5570   32.8880   47.3690 N   0  0  0  0  0  0  0  0  0  0  0  0
   63.2910   32.3060   48.5540 C   0  0  0  0  0  0  0  0  0  0  0  0
   64.1110   31.6030   49.1780 O   0  0  0  0  0  0  0  0  0  0  0  0
   62.0350   32.5210   49.0790 C   0  0  0  0  0  0  0  0  0  0  0  0
   61.0850   33.2880   48.4420 C   0  0  0  0  0  0  0  0  0  0  0  0
   59.7690   33.5070   49.0530 C   0  0  0  0  0  0  0  0  0  0  0  0
   60.0280   33.7810   50.5440 C   0  0  0  0  0  0  0  0  0  0  0  0
   60.7910   32.7030   51.2240 C   0  0  0  0  0  0  0  0  0  0  0  0
   61.7060   31.8990   50.3660 C   0  0  0  0  0  0  0  0  0  0  0  0
   59.3830   32.4970   45.7720 C   0  0  0  0  0  0  0  0  0  0  0  0
   58.3770   28.1440   46.2540 C   0  0  0  0  0  0  0  0  0  0  0  0
   59.5770   27.4980   46.5030 C   0  0  0  0  0  0  0  0  0  0  0  0
   59.6270   26.1140   46.4680 C   0  0  0  0  0  0  0  0  0  0  0  0
   58.4800   25.4000   46.1840 C   0  0  0  0  0  0  0  0  0  0  0  0
   57.2900   26.0520   45.9370 C   0  0  0  0  0  0  0  0  0  0  0  0
   56.1070   25.2490   45.6440 C   0  0  0  0  0  0  0  0  0  0  0  0
   56.0080   24.0360   44.9980 C   0  0  0  0  0  0  0  0  0  0  0  0
   54.6560   23.6890   44.9750 C   0  0  0  0  0  0  0  0  0  0  0  0
   53.9970   24.6890   45.5980 N   0  0  0  0  0  0  0  0  0  0  0  0
   54.8600   25.6130   45.9940 N   0  0  0  0  0  0  0  0  0  0  0  0
   57.2600   27.4190   45.9760 C   0  0  0  0  0  0  0  0  0  0  0  0
   58.0800   29.9730   44.2120 H   0  0  0  0  0  0  0  0  0  0  0  0
   56.2801   31.9916   44.4825 H   0  0  0  0  0  0  0  0  0  0  0  0
   56.2741   34.4747   44.6652 H   0  0  0  0  0  0  0  0  0  0  0  0
   58.2507   35.6522   45.5516 H   0  0  0  0  0  0  0  0  0  0  0  0
   61.0886   35.0862   45.5593 H   0  0  0  0  0  0  0  0  0  0  0  0
   60.1073   35.4793   47.0242 H   0  0  0  0  0  0  0  0  0  0  0  0
   64.5230   32.7200   46.9700 H   0  0  0  0  0  0  0  0  0  0  0  0
   59.2715   34.3706   48.5875 H   0  0  0  0  0  0  0  0  0  0  0  0
   59.1126   32.6353   48.9139 H   0  0  0  0  0  0  0  0  0  0  0  0
   60.5974   34.7181   50.6314 H   0  0  0  0  0  0  0  0  0  0  0  0
   59.0459   33.8401   51.0360 H   0  0  0  0  0  0  0  0  0  0  0  0
   61.3968   33.1691   52.0150 H   0  0  0  0  0  0  0  0  0  0  0  0
   60.0337   31.9939   51.5897 H   0  0  0  0  0  0  0  0  0  0  0  0
   62.6429   31.7378   50.9193 H   0  0  0  0  0  0  0  0  0  0  0  0
   61.1768   30.9627   50.1351 H   0  0  0  0  0  0  0  0  0  0  0  0
   60.2644   31.9182   46.0853 H   0  0  0  0  0  0  0  0  0  0  0  0
   60.4834   28.0797   46.7268 H   0  0  0  0  0  0  0  0  0  0  0  0
   60.5729   25.5882   46.6649 H   0  0  0  0  0  0  0  0  0  0  0  0
   58.5155   24.3010   46.1544 H   0  0  0  0  0  0  0  0  0  0  0  0
   56.8393   23.4503   44.5786 H   0  0  0  0  0  0  0  0  0  0  0  0
   54.2154   22.7815   44.5365 H   0  0  0  0  0  0  0  0  0  0  0  0
   52.9610   24.7650   45.7670 H   0  0  0  0  0  0  0  0  0  0  0  0
   56.3131   27.9429   45.7785 H   0  0  0  0  0  0  0  0  0  0  0  0
  1  2  2  0
  2  3  1  0
  3  4  1  0
  4  5  2  0
  5  6  1  0
  6  7  2  0
  7  8  1  0
  8  9  1  0
  9 10  1  0
 10 11  2  0
 11 12  1  0
 12 13  1  0
 13 14  2  0
 13 15  1  0
 15 16  2  0
 16 17  1  0
 17 18  1  0
 18 19  1  0
 19 20  1  0
  8 21  2  0
  2 22  1  0
 22 23  2  0
 23 24  1  0
 24 25  2  0
 25 26  1  0
 26 27  1  0
 27 28  1  0
 28 29  2  0
 29 30  1  0
 30 31  1  0
 26 32  2  0
 21  4  1  0
 32 22  1  0
 16 10  1  0
 31 27  2  0
 20 15  1  0
  3 33  1  0
  5 34  1  0
  6 35  1  0
  7 36  1  0
  9 37  1  0
  9 38  1  0
 12 39  1  0
 17 40  1  0
 17 41  1  0
 18 42  1  0
 18 43  1  0
 19 44  1  0
 19 45  1  0
 20 46  1  0
 20 47  1  0
 21 48  1  0
 23 49  1  0
 24 50  1  0
 25 51  1  0
 28 52  1  0
 29 53  1  0
 30 54  1  0
 32 55  1  0
M  END
>  <smiles>  (73) 
O=C(Nc1cccc(Cc2n[nH]c(=O)c3c2CCCC3)c1)c1cccc(-c2cc[nH]n2)c1

>  <score_type>  (73) 
oracle

>  <origin>  (73) 
adg

>  <m_score__min__energy>  (73) 
-10.4

>  <m_primary>  (73) 
energy

$$$$
73:0
     RDKit          3D

 58 60  0  0  0  0  0  0  0  0999 V2000
   61.6180   31.7550   48.8940 N   0  0  0  0  0  0  0  0  0  0  0  0
   62.0330   33.0080   48.2550 C   0  0  2  0  0  0  0  0  0  0  0  0
   61.2730   34.2110   48.8720 C   0  0  0  0  0  0  0  0  0  0  0  0
   60.1500   33.7960   49.7980 C   0  0  0  0  0  0  0  0  0  0  0  0
   59.0090   33.5420   49.3300 O   0  0  0  0  0  0  0  0  0  0  0  0
   60.3590   33.6240   51.2040 N   0  0  0  0  0  0  0  0  0  0  0  0
   60.4360   32.3420   51.8910 C   0  0  0  0  0  0  0  0  0  0  0  0
   59.0670   31.7030   51.9010 C   0  0  0  0  0  0  0  0  0  0  0  0
   58.7940   30.4850   51.2310 C   0  0  0  0  0  0  0  0  0  0  0  0
   59.8570   29.6920   50.5110 C   0  0  0  0  0  0  0  0  0  0  0  0
   59.8090   29.9090   49.1120 O   0  0  0  0  0  0  0  0  0  0  0  0
   60.3780   28.8260   48.4020 C   0  0  0  0  0  0  0  0  0  0  0  0
   60.0740   28.9460   46.9040 C   0  0  0  0  0  0  0  0  0  0  0  0
   58.7610   28.2870   46.5770 C   0  0  0  0  0  0  0  0  0  0  0  0
   58.4670   27.0090   47.0800 C   0  0  0  0  0  0  0  0  0  0  0  0
   57.2290   26.4150   46.8170 C   0  0  0  0  0  0  0  0  0  0  0  0
   56.2720   27.0940   46.0570 C   0  0  0  0  0  0  0  0  0  0  0  0
   55.0430   26.4970   45.8010 O   0  0  0  0  0  0  0  0  0  0  0  0
   56.5510   28.3730   45.5590 C   0  0  0  0  0  0  0  0  0  0  0  0
   55.5910   29.0440   44.8020 O   0  0  0  0  0  0  0  0  0  0  0  0
   57.7910   28.9710   45.8260 C   0  0  0  0  0  0  0  0  0  0  0  0
   57.5300   29.9850   51.2450 N   0  0  0  0  0  0  0  0  0  0  0  0
   56.5150   30.6310   51.8680 C   0  0  0  0  0  0  0  0  0  0  0  0
   55.3580   30.1390   51.8630 O   0  0  0  0  0  0  0  0  0  0  0  0
   56.7460   31.8110   52.4950 N   0  0  0  0  0  0  0  0  0  0  0  0
   57.9850   32.3620   52.5200 C   0  0  0  0  0  0  0  0  0  0  0  0
   58.1530   33.4660   53.1030 O   0  0  0  0  0  0  0  0  0  0  0  0
   61.7980   32.9060   46.7320 C   0  0  0  0  0  0  0  0  0  0  0  0
   60.3450   33.1150   46.3920 C   0  0  0  0  0  0  0  0  0  0  0  0
   59.9030   34.3430   45.8690 C   0  0  0  0  0  0  0  0  0  0  0  0
   58.5480   34.5390   45.5800 C   0  0  0  0  0  0  0  0  0  0  0  0
   57.6240   33.5180   45.8210 C   0  0  0  0  0  0  0  0  0  0  0  0
   58.0540   32.2980   46.3530 C   0  0  0  0  0  0  0  0  0  0  0  0
   59.4080   32.0970   46.6410 C   0  0  0  0  0  0  0  0  0  0  0  0
   61.4510   31.0290   48.1580 H   0  0  0  0  0  0  0  0  0  0  0  0
   60.7120   31.9130   49.3930 H   0  0  0  0  0  0  0  0  0  0  0  0
   63.1056   33.1759   48.4319 H   0  0  0  0  0  0  0  0  0  0  0  0
   61.9888   34.8213   49.4423 H   0  0  0  0  0  0  0  0  0  0  0  0
   60.8207   34.7725   48.0412 H   0  0  0  0  0  0  0  0  0  0  0  0
   61.1452   31.6850   51.3663 H   0  0  0  0  0  0  0  0  0  0  0  0
   60.7806   32.4956   52.9243 H   0  0  0  0  0  0  0  0  0  0  0  0
   60.8453   29.9962   50.8861 H   0  0  0  0  0  0  0  0  0  0  0  0
   59.6778   28.6234   50.7006 H   0  0  0  0  0  0  0  0  0  0  0  0
   61.4678   28.8281   48.5514 H   0  0  0  0  0  0  0  0  0  0  0  0
   59.9450   27.8875   48.7785 H   0  0  0  0  0  0  0  0  0  0  0  0
   60.0231   30.0099   46.6293 H   0  0  0  0  0  0  0  0  0  0  0  0
   60.8734   28.4454   46.3380 H   0  0  0  0  0  0  0  0  0  0  0  0
   59.2142   26.4730   47.6836 H   0  0  0  0  0  0  0  0  0  0  0  0
   57.0075   25.4113   47.2089 H   0  0  0  0  0  0  0  0  0  0  0  0
   54.7430   28.5840   44.4940 H   0  0  0  0  0  0  0  0  0  0  0  0
   58.0050   29.9806   45.4454 H   0  0  0  0  0  0  0  0  0  0  0  0
   62.3999   33.6735   46.2234 H   0  0  0  0  0  0  0  0  0  0  0  0
   62.0933   31.8999   46.3996 H   0  0  0  0  0  0  0  0  0  0  0  0
   60.6250   35.1526   45.6864 H   0  0  0  0  0  0  0  0  0  0  0  0
   58.2091   35.4985   45.1623 H   0  0  0  0  0  0  0  0  0  0  0  0
   56.5594   33.6740   45.5924 H   0  0  0  0  0  0  0  0  0  0  0  0
   57.3265   31.4956   46.5452 H   0  0  0  0  0  0  0  0  0  0  0  0
   59.7411   31.1379   47.0643 H   0  0  0  0  0  0  0  0  0  0  0  0
  1  2  1  0
  2  3  1  0
  3  4  1  0
  4  5  2  0
  4  6  1  0
  6  7  1  0
  7  8  1  0
  8  9  2  0
  9 10  1  0
 10 11  1  0
 11 12  1  0
 12 13  1  0
 13 14  1  0
 14 15  2  0
 15 16  1  0
 16 17  2  0
 17 18  1  0
 17 19  1  0
 19 20  1  0
 19 21  2  0
  9 22  1  0
 22 23  1  0
 23 24  2  0
 23 25  1  0
 25 26  1  0
 26 27  2  0
  2 28  1  0
 28 29  1  0
 29 30  2  0
 30 31  1  0
 31 32  2  0
 32 33  1  0
 33 34  2  0
 26  8  1  0
 34 29  1  0
 21 14  1  0
  1 35  1  0
  1 36  1  0
  2 37  1  6
  3 38  1  0
  3 39  1  0
  7 40  1  0
  7 41  1  0
 10 42  1  0
 10 43  1  0
 12 44  1  0
 12 45  1  0
 13 46  1  0
 13 47  1  0
 15 48  1  0
 16 49  1  0
 20 50  1  0
 21 51  1  0
 28 52  1  0
 28 53  1  0
 30 54  1  0
 31 55  1  0
 32 56  1  0
 33 57  1  0
 34 58  1  0
M  CHG  4   6  -1  18  -1  22  -1  25  -1
M  END
>  <UniqueID>  (74) 
68

>  <SMILES>  (74) 
N[C@H](CC(=O)[N-]Cc1c(COCCc2ccc([O-])c(O)c2)[n-]c(=O)[n-]c1=O)Cc1ccccc1

>  <Energy>  (74) 
59.596628421972994

>  <Genealogy>  (74) 
NC(CC(=O)[N-]Cc1c(COCCc2ccc([O-])c(O)c2)[n-]c(=O)[n-]c1=O)Cc1ccccc1 (protonated)
N[C@H](CC(=O)[N-]Cc1c(COCCc2ccc([O-])c(O)c2)[n-]c(=O)[n-]c1=O)Cc1ccccc1 (chirality)
N[C@H](CC(=O)[N-]Cc1c(COCCc2ccc([O-])c(O)c2)[n-]c(=O)[n-]c1=O)Cc1ccccc1 (3D coordinates assigned)
N[C@H](CC(=O)[N-]Cc1c(COCCc2ccc([O-])c(O)c2)[n-]c(=O)[n-]c1=O)Cc1ccccc1 (optimized conformer: 59.596628421972994 kcal/mol)

>  <smiles>  (74) 
NC(CC(=O)NCc1c(COCCc2ccc(O)c(O)c2)[nH]c(=O)[nH]c1=O)Cc1ccccc1

>  <score_type>  (74) 
oracle

>  <origin>  (74) 
adg

>  <m_score__min__energy>  (74) 
-15.109999999999999

>  <m_primary>  (74) 
energy

$$$$
74:0
     RDKit          3D

 48 50  0  0  0  0  0  0  0  0999 V2000
   56.9830   26.6360   47.0640 O   0  0  0  0  0  0  0  0  0  0  0  0
   56.5280   26.1880   45.9780 C   0  0  0  0  0  0  0  0  0  0  0  0
   57.4930   25.7880   44.8990 C   0  0  0  0  0  0  0  0  0  0  0  0
   57.9280   27.2230   43.8560 S   0  0  0  0  0  0  0  0  0  0  0  0
   58.5120   28.2420   45.2210 C   0  0  0  0  0  0  0  0  0  0  0  0
   59.6810   27.8540   45.8850 C   0  0  0  0  0  0  0  0  0  0  0  0
   60.1410   28.5720   46.9900 C   0  0  0  0  0  0  0  0  0  0  0  0
   59.4370   29.6970   47.4510 C   0  0  0  0  0  0  0  0  0  0  0  0
   59.9320   30.4720   48.6120 C   0  0  0  0  0  0  0  0  0  0  0  0
   60.7840   29.9610   49.3900 O   0  0  0  0  0  0  0  0  0  0  0  0
   59.4810   31.8150   48.8290 N   0  0  0  0  0  0  0  0  0  0  0  0
   59.3990   32.8410   47.8290 C   0  0  0  0  0  0  0  0  0  0  0  0
   58.1710   33.2180   47.2540 C   0  0  0  0  0  0  0  0  0  0  0  0
   58.1300   34.2030   46.2630 C   0  0  0  0  0  0  0  0  0  0  0  0
   59.3100   34.8160   45.8300 C   0  0  0  0  0  0  0  0  0  0  0  0
   59.2540   35.8010   44.8470 O   0  0  0  0  0  0  0  0  0  0  0  0
   60.5360   34.4280   46.3870 C   0  0  0  0  0  0  0  0  0  0  0  0
   60.5800   33.4390   47.3730 C   0  0  0  0  0  0  0  0  0  0  0  0
   58.2650   30.0880   46.7800 C   0  0  0  0  0  0  0  0  0  0  0  0
   57.8040   29.3820   45.6580 C   0  0  0  0  0  0  0  0  0  0  0  0
   56.6130   29.8280   44.9930 N   0  0  0  0  0  0  0  0  0  0  0  0
   56.5150   31.0000   44.5760 O   0  0  0  0  0  0  0  0  0  0  0  0
   55.5210   28.9950   44.9110 O   0  0  0  0  0  0  0  0  0  0  0  0
   55.1080   26.0490   45.8340 N   0  0  0  0  0  0  0  0  0  0  0  0
   54.3810   24.8030   45.6090 C   0  0  0  0  0  0  0  0  0  0  0  0
   55.2750   23.7580   44.9910 C   0  0  0  0  0  0  0  0  0  0  0  0
   55.3840   23.6540   43.5930 C   0  0  0  0  0  0  0  0  0  0  0  0
   56.2170   22.6860   43.0230 C   0  0  0  0  0  0  0  0  0  0  0  0
   56.9310   21.8020   43.8390 C   0  0  0  0  0  0  0  0  0  0  0  0
   56.8060   21.8820   45.2290 C   0  0  0  0  0  0  0  0  0  0  0  0
   55.9770   22.8510   45.8040 C   0  0  0  0  0  0  0  0  0  0  0  0
   58.4071   25.3883   45.3623 H   0  0  0  0  0  0  0  0  0  0  0  0
   57.0189   25.0227   44.2670 H   0  0  0  0  0  0  0  0  0  0  0  0
   60.2422   26.9758   45.5332 H   0  0  0  0  0  0  0  0  0  0  0  0
   61.0608   28.2549   47.5033 H   0  0  0  0  0  0  0  0  0  0  0  0
   57.2397   32.7356   47.5858 H   0  0  0  0  0  0  0  0  0  0  0  0
   57.1661   34.4970   45.8221 H   0  0  0  0  0  0  0  0  0  0  0  0
   58.4430   35.9000   44.2470 H   0  0  0  0  0  0  0  0  0  0  0  0
   61.4674   34.9040   46.0466 H   0  0  0  0  0  0  0  0  0  0  0  0
   61.5479   33.1285   47.7933 H   0  0  0  0  0  0  0  0  0  0  0  0
   57.7006   30.9608   47.1400 H   0  0  0  0  0  0  0  0  0  0  0  0
   54.0028   24.4287   46.5717 H   0  0  0  0  0  0  0  0  0  0  0  0
   53.5484   25.0036   44.9187 H   0  0  0  0  0  0  0  0  0  0  0  0
   54.8126   24.3358   42.9460 H   0  0  0  0  0  0  0  0  0  0  0  0
   56.3111   22.6195   41.9291 H   0  0  0  0  0  0  0  0  0  0  0  0
   57.5896   21.0453   43.3876 H   0  0  0  0  0  0  0  0  0  0  0  0
   57.3603   21.1820   45.8715 H   0  0  0  0  0  0  0  0  0  0  0  0
   55.8739   22.9036   46.8979 H   0  0  0  0  0  0  0  0  0  0  0  0
  1  2  2  0
  2  3  1  0
  3  4  1  0
  4  5  1  0
  5  6  2  0
  6  7  1  0
  7  8  2  0
  8  9  1  0
  9 10  2  0
  9 11  1  0
 11 12  1  0
 12 13  2  0
 13 14  1  0
 14 15  2  0
 15 16  1  0
 15 17  1  0
 17 18  2  0
  8 19  1  0
 19 20  2  0
 20 21  1  0
 21 22  2  0
 21 23  1  0
  2 24  1  0
 24 25  1  0
 25 26  1  0
 26 27  2  0
 27 28  1  0
 28 29  2  0
 29 30  1  0
 30 31  2  0
 20  5  1  0
 31 26  1  0
 18 12  1  0
  3 32  1  0
  3 33  1  0
  6 34  1  0
  7 35  1  0
 13 36  1  0
 14 37  1  0
 16 38  1  0
 17 39  1  0
 18 40  1  0
 19 41  1  0
 25 42  1  0
 25 43  1  0
 27 44  1  0
 28 45  1  0
 29 46  1  0
 30 47  1  0
 31 48  1  0
M  CHG  4  11  -1  21   1  23  -1  24  -1
M  END
>  <UniqueID>  (75) 
69

>  <SMILES>  (75) 
O=C(CSc1ccc(C(=O)[N-]c2ccc(O)cc2)cc1[N+](=O)[O-])[N-]Cc1ccccc1

>  <Energy>  (75) 
52.20730715243556

>  <Genealogy>  (75) 
O=C(CSc1ccc(C(=O)[N-]c2ccc(O)cc2)cc1[N+](=O)[O-])[N-]Cc1ccccc1 (protonated)
O=C(CSc1ccc(C(=O)[N-]c2ccc(O)cc2)cc1[N+](=O)[O-])[N-]Cc1ccccc1 (3D coordinates assigned)
O=C(CSc1ccc(C(=O)[N-]c2ccc(O)cc2)cc1[N+](=O)[O-])[N-]Cc1ccccc1 (optimized conformer: 52.20730715243556 kcal/mol)

>  <smiles>  (75) 
O=C(CSc1ccc(C(=O)Nc2ccc(O)cc2)cc1[N+](=O)[O-])NCc1ccccc1

>  <score_type>  (75) 
oracle

>  <origin>  (75) 
adg

>  <m_score__min__energy>  (75) 
-12.390000000000001

>  <m_primary>  (75) 
energy

$$$$
75:0
     RDKit          3D

 65 69  0  0  0  0  0  0  0  0999 V2000
   62.5870   34.5890   49.2590 N   0  0  0  0  0  0  0  0  0  0  0  0
   63.3970   33.6350   48.5760 C   0  0  0  0  0  0  0  0  0  0  0  0
   63.4250   33.6220   47.3150 O   0  0  0  0  0  0  0  0  0  0  0  0
   64.2520   32.6850   49.3540 C   0  0  0  0  0  0  0  0  0  0  0  0
   63.7880   32.5760   50.7000 O   0  0  0  0  0  0  0  0  0  0  0  0
   63.2740   31.4070   51.2830 C   0  0  0  0  0  0  0  0  0  0  0  0
   63.5940   30.9910   52.5970 C   0  0  0  0  0  0  0  0  0  0  0  0
   63.0490   29.8030   53.1260 C   0  0  0  0  0  0  0  0  0  0  0  0
   62.1820   29.0150   52.3560 C   0  0  0  0  0  0  0  0  0  0  0  0
   61.8780   29.4450   51.0660 C   0  0  0  0  0  0  0  0  0  0  0  0
   62.4010   30.6050   50.5400 C   0  0  0  0  0  0  0  0  0  0  0  0
   61.9170   30.8220   49.1340 C   0  0  0  0  0  0  0  0  0  0  0  0
   61.0160   29.6840   48.8960 N   0  0  0  0  0  0  0  0  0  0  0  0
   60.1970   29.5160   47.7210 C   0  0  0  0  0  0  0  0  0  0  0  0
   60.6610   29.9050   46.4510 C   0  0  0  0  0  0  0  0  0  0  0  0
   59.8740   29.6950   45.3130 C   0  0  0  0  0  0  0  0  0  0  0  0
   58.6190   29.0780   45.4220 C   0  0  0  0  0  0  0  0  0  0  0  0
   57.7910   28.8160   44.1960 C   0  0  0  0  0  0  0  0  0  0  0  0
   56.7450   30.2090   43.8210 S   0  0  0  0  0  0  0  0  0  0  0  0
   56.2630   30.0790   42.4040 O   0  0  0  0  0  0  0  0  0  0  0  0
   55.5660   30.1980   44.7520 O   0  0  0  0  0  0  0  0  0  0  0  0
   57.6320   31.6890   44.0030 N   0  0  0  0  0  0  0  0  0  0  0  0
   57.4200   32.6150   45.0750 C   0  0  0  0  0  0  0  0  0  0  0  0
   56.2670   33.0980   45.2520 O   0  0  0  0  0  0  0  0  0  0  0  0
   58.5160   33.0310   45.9740 C   0  0  0  0  0  0  0  0  0  0  0  0
   59.6330   33.6970   45.4610 C   0  0  0  0  0  0  0  0  0  0  0  0
   60.6600   34.0790   46.3240 C   0  0  0  0  0  0  0  0  0  0  0  0
   60.5860   33.7920   47.6530 N   0  0  0  0  0  0  0  0  0  0  0  0
   59.5220   33.1200   48.1880 C   0  0  0  0  0  0  0  0  0  0  0  0
   59.4820   32.8130   49.6020 N   0  0  0  0  0  0  0  0  0  0  0  0
   60.1460   33.6060   50.6270 C   0  0  0  0  0  0  0  0  0  0  0  0
   59.9780   32.8300   51.9250 C   0  0  0  0  0  0  0  0  0  0  0  0
   58.8330   31.8570   51.6770 C   0  0  0  0  0  0  0  0  0  0  0  0
   58.7640   31.6820   50.1650 C   0  0  0  0  0  0  0  0  0  0  0  0
   58.4680   32.7250   47.3400 C   0  0  0  0  0  0  0  0  0  0  0  0
   58.1450   28.7040   46.6880 C   0  0  0  0  0  0  0  0  0  0  0  0
   58.9290   28.9130   47.8250 C   0  0  0  0  0  0  0  0  0  0  0  0
   61.0290   28.8570   50.0620 C   0  0  0  0  0  0  0  0  0  0  0  0
   60.4310   27.7540   50.1700 O   0  0  0  0  0  0  0  0  0  0  0  0
   62.4080   34.5050   50.2830 H   0  0  0  0  0  0  0  0  0  0  0  0
   64.2160   31.6939   48.8781 H   0  0  0  0  0  0  0  0  0  0  0  0
   65.2841   33.0654   49.3650 H   0  0  0  0  0  0  0  0  0  0  0  0
   64.2739   31.5997   53.2112 H   0  0  0  0  0  0  0  0  0  0  0  0
   63.3058   29.4925   54.1495 H   0  0  0  0  0  0  0  0  0  0  0  0
   61.7544   28.0848   52.7583 H   0  0  0  0  0  0  0  0  0  0  0  0
   61.3755   31.7757   49.0483 H   0  0  0  0  0  0  0  0  0  0  0  0
   62.7381   30.8756   48.4040 H   0  0  0  0  0  0  0  0  0  0  0  0
   61.6494   30.3775   46.3519 H   0  0  0  0  0  0  0  0  0  0  0  0
   60.2418   30.0157   44.3272 H   0  0  0  0  0  0  0  0  0  0  0  0
   58.4603   28.6291   43.3433 H   0  0  0  0  0  0  0  0  0  0  0  0
   57.1531   27.9400   44.3850 H   0  0  0  0  0  0  0  0  0  0  0  0
   59.7014   33.9179   44.3856 H   0  0  0  0  0  0  0  0  0  0  0  0
   61.5351   34.6154   45.9285 H   0  0  0  0  0  0  0  0  0  0  0  0
   61.3760   34.1070   48.2590 H   0  0  0  0  0  0  0  0  0  0  0  0
   61.2129   33.7255   50.3875 H   0  0  0  0  0  0  0  0  0  0  0  0
   59.7153   34.6155   50.7002 H   0  0  0  0  0  0  0  0  0  0  0  0
   60.9010   32.2827   52.1671 H   0  0  0  0  0  0  0  0  0  0  0  0
   59.7673   33.4978   52.7734 H   0  0  0  0  0  0  0  0  0  0  0  0
   59.0357   30.8929   52.1662 H   0  0  0  0  0  0  0  0  0  0  0  0
   57.8838   32.2325   52.0869 H   0  0  0  0  0  0  0  0  0  0  0  0
   59.2425   30.7376   49.8665 H   0  0  0  0  0  0  0  0  0  0  0  0
   57.7239   31.6451   49.8089 H   0  0  0  0  0  0  0  0  0  0  0  0
   57.6076   32.1764   47.7509 H   0  0  0  0  0  0  0  0  0  0  0  0
   57.1507   28.2437   46.7860 H   0  0  0  0  0  0  0  0  0  0  0  0
   58.5521   28.6035   48.8110 H   0  0  0  0  0  0  0  0  0  0  0  0
  1  2  1  0
  2  3  2  0
  2  4  1  0
  4  5  1  0
  5  6  1  0
  6  7  2  0
  7  8  1  0
  8  9  2  0
  9 10  1  0
 10 11  2  0
 11 12  1  0
 12 13  1  0
 13 14  1  0
 14 15  2  0
 15 16  1  0
 16 17  2  0
 17 18  1  0
 18 19  1  0
 19 20  2  0
 19 21  2  0
 19 22  1  0
 22 23  1  0
 23 24  2  0
 23 25  1  0
 25 26  2  0
 26 27  1  0
 27 28  2  0
 28 29  1  0
 29 30  1  0
 30 31  1  0
 31 32  1  0
 32 33  1  0
 33 34  1  0
 29 35  2  0
 17 36  1  0
 36 37  2  0
 13 38  1  0
 38 39  2  0
 11  6  1  0
 37 14  1  0
 38 10  1  0
 35 25  1  0
 34 30  1  0
  1 40  1  0
  4 41  1  0
  4 42  1  0
  7 43  1  0
  8 44  1  0
  9 45  1  0
 12 46  1  0
 12 47  1  0
 15 48  1  0
 16 49  1  0
 18 50  1  0
 18 51  1  0
 26 52  1  0
 27 53  1  0
 28 54  1  0
 31 55  1  0
 31 56  1  0
 32 57  1  0
 32 58  1  0
 33 59  1  0
 33 60  1  0
 34 61  1  0
 34 62  1  0
 35 63  1  0
 36 64  1  0
 37 65  1  0
M  CHG  3   1  -1  22  -1  28   1
M  END
>  <UniqueID>  (76) 
70

>  <SMILES>  (76) 
[NH-]C(=O)COc1cccc2c1CN(c1ccc(CS(=O)(=O)[N-]C(=O)c3cc[nH+]c(N4CCCC4)c3)cc1)C2=O

>  <Energy>  (76) 
97.80270808567123

>  <Genealogy>  (76) 
[NH-]C(=O)COc1cccc2c1CN(c1ccc(CS(=O)(=O)[N-]C(=O)c3cc[nH+]c(N4CCCC4)c3)cc1)C2=O (protonated)
[NH-]C(=O)COc1cccc2c1CN(c1ccc(CS(=O)(=O)[N-]C(=O)c3cc[nH+]c(N4CCCC4)c3)cc1)C2=O (3D coordinates assigned)
[NH-]C(=O)COc1cccc2c1CN(c1ccc(CS(=O)(=O)[N-]C(=O)c3cc[nH+]c(N4CCCC4)c3)cc1)C2=O (nonaromatic ring conformer: 97.80270808567123 kcal/mol)

>  <smiles>  (76) 
NC(=O)COc1cccc2c1CN(c1ccc(CS(=O)(=O)NC(=O)c3ccnc(N4CCCC4)c3)cc1)C2=O

>  <score_type>  (76) 
oracle

>  <origin>  (76) 
adg

>  <m_score__min__energy>  (76) 
-12.720000000000001

>  <m_primary>  (76) 
energy

$$$$
76:0
     RDKit          3D

 25 26  0  0  0  0  0  0  0  0999 V2000
   63.0330   31.8830   47.5630 C   0  0  0  0  0  0  0  0  0  0  0  0
   62.6710   33.5930   47.3790 S   0  0  0  0  0  0  0  0  0  0  0  0
   63.0430   34.2620   48.6950 O   0  0  0  0  0  0  0  0  0  0  0  0
   63.5490   34.2220   46.3230 O   0  0  0  0  0  0  0  0  0  0  0  0
   60.9970   33.8850   47.0940 N   0  0  0  0  0  0  0  0  0  0  0  0
   60.1210   34.5380   47.9180 C   0  0  0  0  0  0  0  0  0  0  0  0
   58.8860   34.5050   47.2710 C   0  0  0  0  0  0  0  0  0  0  0  0
   59.0260   33.8420   46.0800 C   0  0  0  0  0  0  0  0  0  0  0  0
   58.0690   33.4910   45.0550 C   0  0  0  0  0  0  0  0  0  0  0  0
   57.0230   34.2380   45.0070 O   0  0  0  0  0  0  0  0  0  0  0  0
   58.1400   32.4580   44.1250 N   0  0  0  0  0  0  0  0  0  0  0  0
   57.3980   31.4100   44.0980 C   0  0  0  0  0  0  0  0  0  0  0  0
   56.2820   31.2780   44.8690 N   0  0  0  0  0  0  0  0  0  0  0  0
   55.7620   30.0920   44.5920 N   0  0  0  0  0  0  0  0  0  0  0  0
   56.4910   29.4700   43.6840 N   0  0  0  0  0  0  0  0  0  0  0  0
   57.4770   30.2830   43.3940 N   0  0  0  0  0  0  0  0  0  0  0  0
   60.3600   33.4660   45.9960 C   0  0  0  0  0  0  0  0  0  0  0  0
   63.0860   31.6325   48.6328 H   0  0  0  0  0  0  0  0  0  0  0  0
   62.2411   31.2871   47.0857 H   0  0  0  0  0  0  0  0  0  0  0  0
   63.9984   31.6592   47.0857 H   0  0  0  0  0  0  0  0  0  0  0  0
   60.3454   34.9959   48.8927 H   0  0  0  0  0  0  0  0  0  0  0  0
   57.9514   34.9404   47.6544 H   0  0  0  0  0  0  0  0  0  0  0  0
   56.3130   28.5130   43.2740 H   0  0  0  0  0  0  0  0  0  0  0  0
   58.2100   30.0090   42.6750 H   0  0  0  0  0  0  0  0  0  0  0  0
   60.8178   32.9136   45.1622 H   0  0  0  0  0  0  0  0  0  0  0  0
  1  2  1  0
  2  3  2  0
  2  4  2  0
  2  5  1  0
  5  6  1  0
  6  7  2  0
  7  8  1  0
  8  9  1  0
  9 10  2  0
  9 11  1  0
 11 12  2  3
 12 13  1  0
 13 14  2  0
 14 15  1  0
 15 16  1  0
  8 17  2  0
 17  5  1  0
 16 12  1  0
  1 18  1  0
  1 19  1  0
  1 20  1  0
  6 21  1  0
  7 22  1  0
 15 23  1  0
 16 24  1  0
 17 25  1  0
M  END
>  <smiles>  (77) 
CS(=O)(=O)n1ccc(C(=O)N=c2nn[nH][nH]2)c1

>  <score_type>  (77) 
oracle

>  <origin>  (77) 
adg

>  <m_score__min__energy>  (77) 
-7.7800000000000002

>  <m_primary>  (77) 
energy

$$$$
77:0
     RDKit          3D

 41 43  0  0  0  0  0  0  0  0999 V2000
   58.7950   33.9425   51.5583 H   0  0  0  0  0  0  0  0  0  0  0  0
   58.6720   32.8510   51.5000 C   0  0  0  0  0  0  0  0  0  0  0  0
   59.0490   32.2210   50.3770 C   0  0  0  0  0  0  0  0  0  0  0  0
   59.3617   31.1691   50.4522 H   0  0  0  0  0  0  0  0  0  0  0  0
   59.0680   32.8630   49.0390 C   0  0  0  0  0  0  0  0  0  0  0  0
   59.6770   34.1130   48.8030 C   0  0  0  0  0  0  0  0  0  0  0  0
   60.1543   34.6538   49.6335 H   0  0  0  0  0  0  0  0  0  0  0  0
   59.6780   34.6690   47.5210 C   0  0  0  0  0  0  0  0  0  0  0  0
   60.1488   35.6479   47.3478 H   0  0  0  0  0  0  0  0  0  0  0  0
   59.0820   33.9840   46.4580 C   0  0  0  0  0  0  0  0  0  0  0  0
   59.0860   34.6850   44.8490 Cl  0  0  0  0  0  0  0  0  0  0  0  0
   58.4900   32.7370   46.6770 C   0  0  0  0  0  0  0  0  0  0  0  0
   58.0249   32.1953   45.8402 H   0  0  0  0  0  0  0  0  0  0  0  0
   58.4880   32.1770   47.9580 C   0  0  0  0  0  0  0  0  0  0  0  0
   58.0285   31.1910   48.1213 H   0  0  0  0  0  0  0  0  0  0  0  0
   58.0950   32.1360   52.6690 C   0  0  0  0  0  0  0  0  0  0  0  0
   58.2350   32.6550   53.9750 C   0  0  0  0  0  0  0  0  0  0  0  0
   58.9920   33.9210   54.2520 C   0  0  0  0  0  0  0  0  0  0  0  0
   59.0787   34.0660   55.3389 H   0  0  0  0  0  0  0  0  0  0  0  0
   59.9969   33.8515   53.8100 H   0  0  0  0  0  0  0  0  0  0  0  0
   58.4552   34.7734   53.8100 H   0  0  0  0  0  0  0  0  0  0  0  0
   57.6740   31.9950   55.0230 N   0  0  0  0  0  0  0  0  0  0  0  0
   56.9720   30.8420   54.8790 C   0  0  0  0  0  0  0  0  0  0  0  0
   56.4870   30.2970   55.9060 O   0  0  0  0  0  0  0  0  0  0  0  0
   56.7920   30.2800   53.5970 C   0  0  0  0  0  0  0  0  0  0  0  0
   56.0210   29.0240   53.3760 C   0  0  0  0  0  0  0  0  0  0  0  0
   56.6360   27.9510   53.1270 O   0  0  0  0  0  0  0  0  0  0  0  0
   54.5920   29.0110   53.4980 N   0  0  0  0  0  0  0  0  0  0  0  0
   53.6770   29.9740   52.9530 C   0  0  0  0  0  0  0  0  0  0  0  0
   52.5930   30.4780   53.6960 C   0  0  0  0  0  0  0  0  0  0  0  0
   52.4385   30.1484   54.7340 H   0  0  0  0  0  0  0  0  0  0  0  0
   51.7120   31.3970   53.1170 C   0  0  0  0  0  0  0  0  0  0  0  0
   50.8725   31.7968   53.7046 H   0  0  0  0  0  0  0  0  0  0  0  0
   51.8950   31.8090   51.7940 C   0  0  0  0  0  0  0  0  0  0  0  0
   51.0190   32.7240   51.2220 O   0  0  0  0  0  0  0  0  0  0  0  0
   52.9570   31.2950   51.0450 C   0  0  0  0  0  0  0  0  0  0  0  0
   53.0987   31.6143   50.0019 H   0  0  0  0  0  0  0  0  0  0  0  0
   53.8400   30.3750   51.6200 C   0  0  0  0  0  0  0  0  0  0  0  0
   54.6670   29.9639   51.0225 H   0  0  0  0  0  0  0  0  0  0  0  0
   57.3580   30.9510   52.4980 C   0  0  0  0  0  0  0  0  0  0  0  0
   57.2215   30.5412   51.4864 H   0  0  0  0  0  0  0  0  0  0  0  0
  1  2  1  0
  2  3  2  0
  3  4  1  0
  3  5  1  0
  5  6  2  0
  6  7  1  0
  6  8  1  0
  8  9  1  0
  8 10  2  0
 10 11  1  0
 10 12  1  0
 12 13  1  0
 12 14  2  0
 14 15  1  0
  2 16  1  0
 16 17  2  0
 17 18  1  0
 18 19  1  0
 18 20  1  0
 18 21  1  0
 17 22  1  0
 22 23  1  0
 23 24  2  0
 23 25  1  0
 25 26  1  0
 26 27  2  0
 26 28  1  0
 28 29  1  0
 29 30  2  0
 30 31  1  0
 30 32  1  0
 32 33  1  0
 32 34  2  0
 34 35  1  0
 34 36  1  0
 36 37  1  0
 36 38  2  0
 38 39  1  0
 25 40  2  0
 40 41  1  0
 14  5  1  0
 40 16  1  0
 38 29  1  0
M  CHG  3  22  -1  28  -1  35  -1
M  END
>  <UniqueID>  (78) 
71

>  <SMILES>  (78) 
Cc1[n-]c(=O)c(C(=O)[N-]c2ccc([O-])cc2)cc1/C=C/c1ccc(Cl)cc1

>  <Energy>  (78) 
56.963648717447505

>  <Genealogy>  (78) 
Cc1[n-]c(=O)c(C(=O)[N-]c2ccc([O-])cc2)cc1C=Cc1ccc(Cl)cc1 (protonated)
Cc1[n-]c(=O)c(C(=O)[N-]c2ccc([O-])cc2)cc1/C=C/c1ccc(Cl)cc1 (cis-trans isomerization)
Cc1[n-]c(=O)c(C(=O)[N-]c2ccc([O-])cc2)cc1/C=C/c1ccc(Cl)cc1 (3D coordinates assigned)
Cc1[n-]c(=O)c(C(=O)[N-]c2ccc([O-])cc2)cc1/C=C/c1ccc(Cl)cc1 (optimized conformer: 56.963648717447505 kcal/mol)

>  <smiles>  (78) 
Cc1[nH]c(=O)c(C(=O)Nc2ccc(O)cc2)cc1C=Cc1ccc(Cl)cc1

>  <score_type>  (78) 
oracle

>  <origin>  (78) 
adg

>  <m_score__min__energy>  (78) 
-13.960000000000001

>  <m_primary>  (78) 
energy

$$$$
78:0
     RDKit          3D

 65 67  0  0  0  0  0  0  0  0999 V2000
   58.6855   30.6851   43.0778 H   0  0  0  0  0  0  0  0  0  0  0  0
   57.7630   30.8840   43.6430 C   0  0  0  0  0  0  0  0  0  0  0  0
   57.0210   29.7130   44.1630 C   0  0  0  0  0  0  0  0  0  0  0  0
   55.7630   29.6870   44.1030 O   0  0  0  0  0  0  0  0  0  0  0  0
   57.7170   28.6450   44.8340 N   0  0  0  0  0  0  0  0  0  0  0  0
   59.0720   28.2370   44.4330 C   0  0  0  0  0  0  0  0  0  0  0  0
   59.4622   28.9455   43.6875 H   0  0  0  0  0  0  0  0  0  0  0  0
   59.0359   27.2274   43.9977 H   0  0  0  0  0  0  0  0  0  0  0  0
   59.9900   28.2300   45.6590 C   0  0  0  0  0  0  0  0  0  0  0  0
   60.2571   29.2665   45.9125 H   0  0  0  0  0  0  0  0  0  0  0  0
   60.8890   27.6446   45.4161 H   0  0  0  0  0  0  0  0  0  0  0  0
   59.3300   27.6080   46.8180 N   0  0  0  0  0  0  0  0  0  0  0  0
   59.8840   27.8120   48.1310 C   0  0  0  0  0  0  0  0  0  0  0  0
   60.4200   26.7200   48.8320 C   0  0  0  0  0  0  0  0  0  0  0  0
   60.4508   25.7282   48.3572 H   0  0  0  0  0  0  0  0  0  0  0  0
   60.9140   26.8840   50.1270 C   0  0  0  0  0  0  0  0  0  0  0  0
   61.3446   26.0259   50.6639 H   0  0  0  0  0  0  0  0  0  0  0  0
   60.8620   28.1360   50.7410 C   0  0  0  0  0  0  0  0  0  0  0  0
   61.2388   28.2612   51.7669 H   0  0  0  0  0  0  0  0  0  0  0  0
   60.3320   29.2300   50.0540 C   0  0  0  0  0  0  0  0  0  0  0  0
   60.2790   30.2113   50.5483 H   0  0  0  0  0  0  0  0  0  0  0  0
   59.8650   29.0870   48.7340 C   0  0  0  0  0  0  0  0  0  0  0  0
   59.3470   30.2050   47.9950 N   0  0  0  0  0  0  0  0  0  0  0  0
   60.0780   31.1310   47.1770 C   0  0  0  0  0  0  0  0  0  0  0  0
   59.8000   31.1840   45.9480 O   0  0  0  0  0  0  0  0  0  0  0  0
   61.1630   32.0030   47.7040 C   0  0  0  0  0  0  0  0  0  0  0  0
   60.9240   33.0360   48.4570 N   0  0  0  0  0  0  0  0  0  0  0  0
   60.6990   32.9480   49.8120 O   0  0  0  0  0  0  0  0  0  0  0  0
   59.4760   33.4070   50.3640 C   0  0  0  0  0  0  0  0  0  0  0  0
   59.0670   34.2084   49.7311 H   0  0  0  0  0  0  0  0  0  0  0  0
   59.6559   33.7931   51.3782 H   0  0  0  0  0  0  0  0  0  0  0  0
   58.4830   32.2600   50.4310 C   0  0  0  0  0  0  0  0  0  0  0  0
   58.2732   32.0177   51.4833 H   0  0  0  0  0  0  0  0  0  0  0  0
   57.5492   32.5536   49.9291 H   0  0  0  0  0  0  0  0  0  0  0  0
   58.9073   31.3779   49.9291 H   0  0  0  0  0  0  0  0  0  0  0  0
   62.5970   31.6710   47.3840 C   0  0  0  0  0  0  0  0  0  0  0  0
   63.0240   31.0831   48.2098 H   0  0  0  0  0  0  0  0  0  0  0  0
   62.6249   31.0932   46.4484 H   0  0  0  0  0  0  0  0  0  0  0  0
   63.4240   32.9510   47.1970 C   0  0  0  0  0  0  0  0  0  0  0  0
   64.1729   32.7787   46.4099 H   0  0  0  0  0  0  0  0  0  0  0  0
   62.7364   33.7635   46.9192 H   0  0  0  0  0  0  0  0  0  0  0  0
   64.1450   33.3590   48.4860 C   0  0  0  0  0  0  0  0  0  0  0  0
   64.9630   32.6497   48.6805 H   0  0  0  0  0  0  0  0  0  0  0  0
   64.5401   34.3777   48.3590 H   0  0  0  0  0  0  0  0  0  0  0  0
   63.2280   33.3540   49.6230 N   0  0  0  0  0  0  0  0  0  0  0  0
   62.5150   34.1010   49.4590 H   0  0  0  0  0  0  0  0  0  0  0  0
   62.7100   32.4460   49.6210 H   0  0  0  0  0  0  0  0  0  0  0  0
   58.0070   26.9870   46.6630 C   0  0  0  0  0  0  0  0  0  0  0  0
   57.6024   26.7382   47.6552 H   0  0  0  0  0  0  0  0  0  0  0  0
   58.1050   26.0716   46.0610 H   0  0  0  0  0  0  0  0  0  0  0  0
   57.0540   27.9580   45.9540 C   0  0  0  0  0  0  0  0  0  0  0  0
   56.7058   28.7093   46.6781 H   0  0  0  0  0  0  0  0  0  0  0  0
   56.2091   27.3796   45.5519 H   0  0  0  0  0  0  0  0  0  0  0  0
   57.4050   32.1680   43.8030 C   0  0  0  0  0  0  0  0  0  0  0  0
   56.6723   32.5789   43.0928 H   0  0  0  0  0  0  0  0  0  0  0  0
   57.9120   33.0750   44.8520 C   0  0  0  0  0  0  0  0  0  0  0  0
   57.4360   32.9440   46.1210 N   0  0  0  0  0  0  0  0  0  0  0  0
   57.8920   33.7150   47.1450 C   0  0  0  0  0  0  0  0  0  0  0  0
   57.4686   33.5967   48.1533 H   0  0  0  0  0  0  0  0  0  0  0  0
   58.8980   34.6570   46.9160 C   0  0  0  0  0  0  0  0  0  0  0  0
   59.2704   35.2844   47.7392 H   0  0  0  0  0  0  0  0  0  0  0  0
   59.4250   34.7930   45.6310 C   0  0  0  0  0  0  0  0  0  0  0  0
   60.2211   35.5269   45.4373 H   0  0  0  0  0  0  0  0  0  0  0  0
   58.9410   33.9970   44.5920 C   0  0  0  0  0  0  0  0  0  0  0  0
   59.3605   34.0900   43.5794 H   0  0  0  0  0  0  0  0  0  0  0  0
  1  2  1  0
  2  3  1  0
  3  4  2  0
  3  5  1  0
  5  6  1  0
  6  7  1  0
  6  8  1  0
  6  9  1  0
  9 10  1  0
  9 11  1  0
  9 12  1  0
 12 13  1  0
 13 14  2  0
 14 15  1  0
 14 16  1  0
 16 17  1  0
 16 18  2  0
 18 19  1  0
 18 20  1  0
 20 21  1  0
 20 22  2  0
 22 23  1  0
 23 24  1  0
 24 25  2  0
 24 26  1  0
 26 27  2  3
 27 28  1  0
 28 29  1  0
 29 30  1  0
 29 31  1  0
 29 32  1  0
 32 33  1  0
 32 34  1  0
 32 35  1  0
 26 36  1  0
 36 37  1  0
 36 38  1  0
 36 39  1  0
 39 40  1  0
 39 41  1  0
 39 42  1  0
 42 43  1  0
 42 44  1  0
 42 45  1  0
 45 46  1  0
 45 47  1  0
 12 48  1  0
 48 49  1  0
 48 50  1  0
 48 51  1  0
 51 52  1  0
 51 53  1  0
  2 54  2  0
 54 55  1  0
 54 56  1  0
 56 57  2  0
 57 58  1  0
 58 59  1  0
 58 60  2  0
 60 61  1  0
 60 62  1  0
 62 63  1  0
 62 64  2  0
 64 65  1  0
 51  5  1  0
 64 56  1  0
 22 13  1  0
M  CHG  1  23  -1
M  END
>  <UniqueID>  (79) 
72

>  <SMILES>  (79) 
CCON=C(CCCN)C(=O)[N-]c1ccccc1N1CCN(C(=O)/C=C\c2ccccn2)CC1

>  <Energy>  (79) 
74.78648320035923

>  <Genealogy>  (79) 
CCON=C(CCCN)C(=O)[N-]c1ccccc1N1CCN(C(=O)C=Cc2ccccn2)CC1 (protonated)
CCON=C(CCCN)C(=O)[N-]c1ccccc1N1CCN(C(=O)/C=C\c2ccccn2)CC1 (cis-trans isomerization)
CCON=C(CCCN)C(=O)[N-]c1ccccc1N1CCN(C(=O)/C=C\c2ccccn2)CC1 (3D coordinates assigned)
CCON=C(CCCN)C(=O)[N-]c1ccccc1N1CCN(C(=O)/C=C\c2ccccn2)CC1 (nonaromatic ring conformer: 74.78648320035923 kcal/mol)

>  <smiles>  (79) 
CCON=C(CCCN)C(=O)Nc1ccccc1N1CCN(C(=O)C=Cc2ccccn2)CC1

>  <score_type>  (79) 
oracle

>  <origin>  (79) 
adg

>  <m_score__min__energy>  (79) 
-10.390000000000001

>  <m_primary>  (79) 
energy

$$$$
79:0
     RDKit          3D

 45 47  0  0  0  0  0  0  0  0999 V2000
   58.1830   30.2870   48.8420 H   0  0  0  0  0  0  0  0  0  0  0  0
   58.1570   30.1590   49.8450 O   0  0  0  0  0  0  0  0  0  0  0  0
   58.1260   31.2270   50.7430 C   0  0  0  0  0  0  0  0  0  0  0  0
   57.1720   31.2140   51.7680 C   0  0  0  0  0  0  0  0  0  0  0  0
   56.4813   30.3630   51.8611 H   0  0  0  0  0  0  0  0  0  0  0  0
   57.0920   32.2750   52.6730 C   0  0  0  0  0  0  0  0  0  0  0  0
   56.3420   32.2553   53.4774 H   0  0  0  0  0  0  0  0  0  0  0  0
   57.9630   33.3610   52.5580 C   0  0  0  0  0  0  0  0  0  0  0  0
   57.8939   34.1986   53.2677 H   0  0  0  0  0  0  0  0  0  0  0  0
   58.9220   33.3840   51.5420 C   0  0  0  0  0  0  0  0  0  0  0  0
   59.5999   34.2453   51.4491 H   0  0  0  0  0  0  0  0  0  0  0  0
   59.0250   32.3150   50.6400 C   0  0  0  0  0  0  0  0  0  0  0  0
   60.0380   32.3850   49.5680 C   0  0  0  0  0  0  0  0  0  0  0  0
   60.9722   31.8257   49.7241 H   0  0  0  0  0  0  0  0  0  0  0  0
   59.9180   33.0830   48.3990 C   0  0  0  0  0  0  0  0  0  0  0  0
   60.9550   33.9570   47.9370 C   0  0  0  0  0  0  0  0  0  0  0  0
   62.1090   34.1860   48.5850 C   0  0  0  0  0  0  0  0  0  0  0  0
   62.3212   33.6661   49.5309 H   0  0  0  0  0  0  0  0  0  0  0  0
   62.8419   34.8935   48.1698 H   0  0  0  0  0  0  0  0  0  0  0  0
   60.7770   34.6410   46.7790 N   0  0  0  0  0  0  0  0  0  0  0  0
   59.6650   34.5240   46.0220 C   0  0  0  0  0  0  0  0  0  0  0  0
   59.5550   35.2330   44.9860 O   0  0  0  0  0  0  0  0  0  0  0  0
   58.6690   33.6680   46.3940 N   0  0  0  0  0  0  0  0  0  0  0  0
   57.4950   33.5260   45.6230 N   0  0  0  0  0  0  0  0  0  0  0  0
   57.3970   32.7280   44.6030 C   0  0  0  0  0  0  0  0  0  0  0  0
   57.3104   33.1506   43.5911 H   0  0  0  0  0  0  0  0  0  0  0  0
   57.4000   31.2620   44.7810 C   0  0  0  0  0  0  0  0  0  0  0  0
   58.5070   30.5910   45.3310 C   0  0  0  0  0  0  0  0  0  0  0  0
   59.3955   31.1624   45.6378 H   0  0  0  0  0  0  0  0  0  0  0  0
   58.4850   29.2030   45.4900 C   0  0  0  0  0  0  0  0  0  0  0  0
   59.3614   28.6859   45.9077 H   0  0  0  0  0  0  0  0  0  0  0  0
   57.3490   28.4650   45.1190 C   0  0  0  0  0  0  0  0  0  0  0  0
   57.3050   27.0370   45.2400 N   0  0  0  0  0  0  0  0  0  0  0  0
   56.3400   26.2680   45.9720 C   0  0  0  0  0  0  0  0  0  0  0  0
   55.1420   26.6540   45.9920 O   0  0  0  0  0  0  0  0  0  0  0  0
   56.7190   25.0440   46.7490 C   0  0  0  0  0  0  0  0  0  0  0  0
   56.6527   25.2582   47.8259 H   0  0  0  0  0  0  0  0  0  0  0  0
   56.0333   24.2220   46.4957 H   0  0  0  0  0  0  0  0  0  0  0  0
   57.7492   24.7533   46.4957 H   0  0  0  0  0  0  0  0  0  0  0  0
   56.2600   29.1280   44.5440 C   0  0  0  0  0  0  0  0  0  0  0  0
   55.3821   28.5525   44.2152 H   0  0  0  0  0  0  0  0  0  0  0  0
   56.2790   30.5170   44.3840 C   0  0  0  0  0  0  0  0  0  0  0  0
   55.4102   31.0287   43.9444 H   0  0  0  0  0  0  0  0  0  0  0  0
   58.7640   32.9680   47.5640 C   0  0  0  0  0  0  0  0  0  0  0  0
   57.8190   32.1910   47.8720 O   0  0  0  0  0  0  0  0  0  0  0  0
  1  2  1  0
  2  3  1  0
  3  4  2  0
  4  5  1  0
  4  6  1  0
  6  7  1  0
  6  8  2  0
  8  9  1  0
  8 10  1  0
 10 11  1  0
 10 12  2  0
 12 13  1  0
 13 14  1  0
 13 15  2  3
 15 16  1  0
 16 17  2  0
 17 18  1  0
 17 19  1  0
 16 20  1  0
 20 21  1  0
 21 22  2  0
 21 23  1  0
 23 24  1  0
 24 25  2  0
 25 26  1  0
 25 27  1  0
 27 28  2  0
 28 29  1  0
 28 30  1  0
 30 31  1  0
 30 32  2  0
 32 33  1  0
 33 34  1  0
 34 35  2  0
 34 36  1  0
 36 37  1  0
 36 38  1  0
 36 39  1  0
 32 40  1  0
 40 41  1  0
 40 42  2  0
 42 43  1  0
 23 44  1  0
 44 45  2  0
 12  3  1  0
 44 15  1  0
 42 27  1  0
M  CHG  2  20  -1  33  -1
M  END
>  <UniqueID>  (80) 
73

>  <SMILES>  (80) 
C=c1[n-]c(=O)n(/N=C/c2ccc([N-]C(C)=O)cc2)c(=O)c1=Cc1ccccc1O

>  <Energy>  (80) 
80.91407046825849

>  <Genealogy>  (80) 
C=c1[n-]c(=O)n(N=Cc2ccc([N-]C(C)=O)cc2)c(=O)c1=Cc1ccccc1O (protonated)
C=c1[n-]c(=O)n(/N=C/c2ccc([N-]C(C)=O)cc2)c(=O)c1=Cc1ccccc1O (cis-trans isomerization)
C=c1[n-]c(=O)n(/N=C/c2ccc([N-]C(C)=O)cc2)c(=O)c1=Cc1ccccc1O (3D coordinates assigned)
C=c1[n-]c(=O)n(/N=C/c2ccc([N-]C(C)=O)cc2)c(=O)c1=Cc1ccccc1O (optimized conformer: 80.91407046825849 kcal/mol)

>  <smiles>  (80) 
C=c1[nH]c(=O)n(N=Cc2ccc(NC(C)=O)cc2)c(=O)c1=Cc1ccccc1O

>  <score_type>  (80) 
oracle

>  <origin>  (80) 
adg

>  <m_score__min__energy>  (80) 
-10.880000000000001

>  <m_primary>  (80) 
energy

$$$$
80:0
     RDKit          3D

 30 32  0  0  0  0  0  0  0  0999 V2000
   58.8525   31.9596   53.3648 H   0  0  0  0  0  0  0  0  0  0  0  0
   57.9860   31.3590   53.0510 C   0  0  0  0  0  0  0  0  0  0  0  0
   56.8130   30.7130   54.0710 S   0  0  0  0  0  0  0  0  0  0  0  0
   55.9600   30.0090   52.8130 C   0  0  0  0  0  0  0  0  0  0  0  0
   54.8670   29.3250   52.9830 N   0  0  0  0  0  0  0  0  0  0  0  0
   53.5160   29.7140   52.6750 C   0  0  0  0  0  0  0  0  0  0  0  0
   52.6220   28.8260   52.7170 O   0  0  0  0  0  0  0  0  0  0  0  0
   53.1430   31.1340   52.3130 C   0  0  0  0  0  0  0  0  0  0  0  0
   52.5771   31.5741   53.1473 H   0  0  0  0  0  0  0  0  0  0  0  0
   54.0746   31.6867   52.1214 H   0  0  0  0  0  0  0  0  0  0  0  0
   52.3040   31.2070   51.0700 C   0  0  0  0  0  0  0  0  0  0  0  0
   52.3200   30.0770   49.8200 S   0  0  0  0  0  0  0  0  0  0  0  0
   51.1010   30.8710   48.9780 C   0  0  0  0  0  0  0  0  0  0  0  0
   50.6370   30.4880   47.8730 O   0  0  0  0  0  0  0  0  0  0  0  0
   50.6600   31.9760   49.6170 N   0  0  0  0  0  0  0  0  0  0  0  0
   51.3270   32.1580   50.7870 C   0  0  0  0  0  0  0  0  0  0  0  0
   51.0380   33.2220   51.6330 O   0  0  0  0  0  0  0  0  0  0  0  0
   56.5390   30.2490   51.6180 N   0  0  0  0  0  0  0  0  0  0  0  0
   57.6700   31.0010   51.7350 C   0  0  0  0  0  0  0  0  0  0  0  0
   58.4730   31.3770   50.5410 C   0  0  0  0  0  0  0  0  0  0  0  0
   58.8350   32.7230   50.3400 C   0  0  0  0  0  0  0  0  0  0  0  0
   58.5203   33.4866   51.0665 H   0  0  0  0  0  0  0  0  0  0  0  0
   59.5910   33.0970   49.2250 C   0  0  0  0  0  0  0  0  0  0  0  0
   59.8657   34.1519   49.0774 H   0  0  0  0  0  0  0  0  0  0  0  0
   59.9980   32.1360   48.2990 C   0  0  0  0  0  0  0  0  0  0  0  0
   60.5907   32.4331   47.4213 H   0  0  0  0  0  0  0  0  0  0  0  0
   59.6520   30.7970   48.4880 C   0  0  0  0  0  0  0  0  0  0  0  0
   59.9751   30.0394   47.7589 H   0  0  0  0  0  0  0  0  0  0  0  0
   58.8960   30.4150   49.6010 C   0  0  0  0  0  0  0  0  0  0  0  0
   58.6297   29.3573   49.7439 H   0  0  0  0  0  0  0  0  0  0  0  0
  1  2  1  0
  2  3  1  0
  3  4  1  0
  4  5  2  0
  5  6  1  0
  6  7  2  0
  6  8  1  0
  8  9  1  0
  8 10  1  0
  8 11  1  0
 11 12  1  0
 12 13  1  0
 13 14  2  0
 13 15  1  0
 15 16  1  0
 16 17  1  0
  4 18  1  0
 18 19  1  0
 19 20  1  0
 20 21  2  0
 21 22  1  0
 21 23  1  0
 23 24  1  0
 23 25  2  0
 25 26  1  0
 25 27  1  0
 27 28  1  0
 27 29  2  0
 29 30  1  0
 19  2  2  0
 29 20  1  0
 16 11  2  0
M  CHG  3  15  -1  17  -1  18  -1
M  END
>  <UniqueID>  (81) 
74

>  <SMILES>  (81) 
O=C(Cc1sc(=O)[n-]c1[O-])/N=c1\[n-]c(-c2ccccc2)cs1

>  <Energy>  (81) 
98.68510084448707

>  <Genealogy>  (81) 
O=C(Cc1sc(=O)[n-]c1[O-])N=c1[n-]c(-c2ccccc2)cs1 (protonated)
O=C(Cc1sc(=O)[n-]c1[O-])/N=c1\[n-]c(-c2ccccc2)cs1 (cis-trans isomerization)
O=C(Cc1sc(=O)[n-]c1[O-])/N=c1\[n-]c(-c2ccccc2)cs1 (3D coordinates assigned)
O=C(Cc1sc(=O)[n-]c1[O-])/N=c1\[n-]c(-c2ccccc2)cs1 (optimized conformer: 98.68510084448707 kcal/mol)

>  <smiles>  (81) 
O=C(Cc1sc(=O)[nH]c1O)N=c1[nH]c(-c2ccccc2)cs1

>  <score_type>  (81) 
oracle

>  <origin>  (81) 
adg

>  <m_score__min__energy>  (81) 
-15.699999999999999

>  <m_primary>  (81) 
energy

$$$$
81:0
     RDKit          3D

 42 44  0  0  0  0  0  0  0  0999 V2000
   60.5040   30.3340   46.3620 C   0  0  0  0  0  0  0  0  0  0  0  0
   59.3760   30.9600   45.9870 C   0  0  0  0  0  0  0  0  0  0  0  0
   58.4260   30.4930   45.0610 C   0  0  0  0  0  0  0  0  0  0  0  0
   58.2880   29.2930   44.4610 C   0  0  0  0  0  0  0  0  0  0  0  0
   57.5870   28.1220   45.0260 C   0  0  0  0  0  0  0  0  0  0  0  0
   56.2080   28.1760   45.2700 C   0  0  0  0  0  0  0  0  0  0  0  0
   55.4760   29.3130   44.9370 O   0  0  0  0  0  0  0  0  0  0  0  0
   55.5770   27.1080   45.8280 N   0  0  0  0  0  0  0  0  0  0  0  0
   56.2640   25.9880   46.1700 C   0  0  0  0  0  0  0  0  0  0  0  0
   55.6570   25.0110   46.6800 O   0  0  0  0  0  0  0  0  0  0  0  0
   57.6040   25.9230   45.9690 N   0  0  0  0  0  0  0  0  0  0  0  0
   58.2820   26.9620   45.4160 C   0  0  0  0  0  0  0  0  0  0  0  0
   59.5300   26.8760   45.2640 O   0  0  0  0  0  0  0  0  0  0  0  0
   57.5330   31.5290   44.8630 C   0  0  0  0  0  0  0  0  0  0  0  0
   57.9200   32.5560   45.6950 C   0  0  0  0  0  0  0  0  0  0  0  0
   57.1670   33.8440   45.8490 C   0  0  0  0  0  0  0  0  0  0  0  0
   59.0350   32.2180   46.3860 N   0  0  0  0  0  0  0  0  0  0  0  0
   59.6760   33.0530   47.4160 C   0  0  0  0  0  0  0  0  0  0  0  0
   59.8080   32.2870   48.7070 C   0  0  0  0  0  0  0  0  0  0  0  0
   61.0730   32.0580   49.2720 C   0  0  0  0  0  0  0  0  0  0  0  0
   61.1910   31.3630   50.4750 C   0  0  0  0  0  0  0  0  0  0  0  0
   60.0520   30.8890   51.1300 C   0  0  0  0  0  0  0  0  0  0  0  0
   58.7740   31.1040   50.5810 C   0  0  0  0  0  0  0  0  0  0  0  0
   57.5640   30.6070   51.2770 C   0  0  0  0  0  0  0  0  0  0  0  0
   56.4820   31.4880   51.5700 N   0  0  0  0  0  0  0  0  0  0  0  0
   57.4810   29.3960   51.6210 O   0  0  0  0  0  0  0  0  0  0  0  0
   58.6650   31.8020   49.3650 C   0  0  0  0  0  0  0  0  0  0  0  0
   61.1733   30.8014   47.0993 H   0  0  0  0  0  0  0  0  0  0  0  0
   60.7583   29.3541   45.9317 H   0  0  0  0  0  0  0  0  0  0  0  0
   58.7368   29.1761   43.4635 H   0  0  0  0  0  0  0  0  0  0  0  0
   55.3350   30.0560   45.6100 H   0  0  0  0  0  0  0  0  0  0  0  0
   56.6766   31.5326   44.1727 H   0  0  0  0  0  0  0  0  0  0  0  0
   57.0367   34.0669   46.9183 H   0  0  0  0  0  0  0  0  0  0  0  0
   57.7314   34.6581   45.3708 H   0  0  0  0  0  0  0  0  0  0  0  0
   56.1807   33.7515   45.3708 H   0  0  0  0  0  0  0  0  0  0  0  0
   60.6758   33.3529   47.0688 H   0  0  0  0  0  0  0  0  0  0  0  0
   59.0538   33.9429   47.5915 H   0  0  0  0  0  0  0  0  0  0  0  0
   61.9751   32.4286   48.7631 H   0  0  0  0  0  0  0  0  0  0  0  0
   62.1858   31.1872   50.9103 H   0  0  0  0  0  0  0  0  0  0  0  0
   60.1544   30.3446   52.0803 H   0  0  0  0  0  0  0  0  0  0  0  0
   55.9130   31.9130   50.8060 H   0  0  0  0  0  0  0  0  0  0  0  0
   57.6719   31.9705   48.9231 H   0  0  0  0  0  0  0  0  0  0  0  0
  1  2  2  0
  2  3  1  0
  3  4  2  3
  4  5  1  0
  5  6  2  0
  6  7  1  0
  6  8  1  0
  8  9  1  0
  9 10  2  0
  9 11  1  0
 11 12  1  0
 12 13  2  0
  3 14  1  0
 14 15  2  0
 15 16  1  0
 15 17  1  0
 17 18  1  0
 18 19  1  0
 19 20  2  0
 20 21  1  0
 21 22  2  0
 22 23  1  0
 23 24  1  0
 24 25  1  0
 24 26  2  0
 23 27  2  0
 17  2  1  0
 27 19  1  0
 12  5  1  0
  1 28  1  0
  1 29  1  0
  4 30  1  0
  7 31  1  0
 14 32  1  0
 16 33  1  0
 16 34  1  0
 16 35  1  0
 18 36  1  0
 18 37  1  0
 20 38  1  0
 21 39  1  0
 22 40  1  0
 25 41  1  0
 27 42  1  0
M  CHG  3   8  -1  11  -1  25  -1
M  END
>  <UniqueID>  (82) 
75

>  <SMILES>  (82) 
C=c1c(=Cc2c(O)[n-]c(=O)[n-]c2=O)cc(C)n1Cc1cccc(C([NH-])=O)c1

>  <Energy>  (82) 
86.45177897443368

>  <Genealogy>  (82) 
C=c1c(=Cc2c(O)[n-]c(=O)[n-]c2=O)cc(C)n1Cc1cccc(C([NH-])=O)c1 (protonated)
C=c1c(=Cc2c(O)[n-]c(=O)[n-]c2=O)cc(C)n1Cc1cccc(C([NH-])=O)c1 (3D coordinates assigned)
C=c1c(=Cc2c(O)[n-]c(=O)[n-]c2=O)cc(C)n1Cc1cccc(C([NH-])=O)c1 (optimized conformer: 86.45177897443368 kcal/mol)

>  <smiles>  (82) 
C=c1c(=Cc2c(O)[nH]c(=O)[nH]c2=O)cc(C)n1Cc1cccc(C(N)=O)c1

>  <score_type>  (82) 
oracle

>  <origin>  (82) 
adg

>  <m_score__min__energy>  (82) 
-14.27

>  <m_primary>  (82) 
energy

$$$$
82:0
     RDKit          3D

 45 47  0  0  0  0  0  0  0  0999 V2000
   54.7610   27.0930   45.1230 H   0  0  0  0  0  0  0  0  0  0  0  0
   54.8260   26.4250   45.8830 O   0  0  0  0  0  0  0  0  0  0  0  0
   56.0620   25.9920   46.3500 C   0  0  0  0  0  0  0  0  0  0  0  0
   56.2000   25.1590   47.4000 N   0  0  0  0  0  0  0  0  0  0  0  0
   57.5280   24.9790   47.5370 C   0  0  0  0  0  0  0  0  0  0  0  0
   57.9978   24.3494   48.3070 H   0  0  0  0  0  0  0  0  0  0  0  0
   58.2200   25.6950   46.5760 C   0  0  0  0  0  0  0  0  0  0  0  0
   59.6780   25.7510   46.4050 C   0  0  0  0  0  0  0  0  0  0  0  0
   60.2750   24.7970   45.8340 O   0  0  0  0  0  0  0  0  0  0  0  0
   60.4050   26.8900   46.8930 N   0  0  0  0  0  0  0  0  0  0  0  0
   59.9420   28.1000   47.0050 C   0  0  0  0  0  0  0  0  0  0  0  0
   60.0460   28.8650   48.1100 N   0  0  0  0  0  0  0  0  0  0  0  0
   59.4490   30.0140   47.8390 N   0  0  0  0  0  0  0  0  0  0  0  0
   59.4140   31.1080   48.7620 C   0  0  0  0  0  0  0  0  0  0  0  0
   58.5340   31.0730   49.8530 C   0  0  0  0  0  0  0  0  0  0  0  0
   57.8624   30.2123   49.9880 H   0  0  0  0  0  0  0  0  0  0  0  0
   58.5070   32.1270   50.7690 C   0  0  0  0  0  0  0  0  0  0  0  0
   57.8097   32.0987   51.6192 H   0  0  0  0  0  0  0  0  0  0  0  0
   59.3650   33.2170   50.6060 C   0  0  0  0  0  0  0  0  0  0  0  0
   59.3406   34.0476   51.3267 H   0  0  0  0  0  0  0  0  0  0  0  0
   60.2550   33.2540   49.5280 C   0  0  0  0  0  0  0  0  0  0  0  0
   60.9319   34.1124   49.4056 H   0  0  0  0  0  0  0  0  0  0  0  0
   60.2880   32.1960   48.5980 C   0  0  0  0  0  0  0  0  0  0  0  0
   61.1660   32.1940   47.5020 O   0  0  0  0  0  0  0  0  0  0  0  0
   62.4480   31.5730   47.4970 C   0  0  0  0  0  0  0  0  0  0  0  0
   62.7813   31.4116   48.5328 H   0  0  0  0  0  0  0  0  0  0  0  0
   62.3848   30.6056   46.9772 H   0  0  0  0  0  0  0  0  0  0  0  0
   63.1679   32.2223   46.9772 H   0  0  0  0  0  0  0  0  0  0  0  0
   58.9880   30.0040   46.5660 C   0  0  0  0  0  0  0  0  0  0  0  0
   58.3030   31.1280   45.8940 C   0  0  0  0  0  0  0  0  0  0  0  0
   58.8680   32.2510   45.8440 O   0  0  0  0  0  0  0  0  0  0  0  0
   57.0210   30.9800   45.2720 N   0  0  0  0  0  0  0  0  0  0  0  0
   56.7990   30.8270   43.8380 C   0  0  0  0  0  0  0  0  0  0  0  0
   56.3286   31.7385   43.4406 H   0  0  0  0  0  0  0  0  0  0  0  0
   57.7625   30.6615   43.3337 H   0  0  0  0  0  0  0  0  0  0  0  0
   55.8830   29.6320   43.5890 C   0  0  0  0  0  0  0  0  0  0  0  0
   54.9756   29.9722   43.0685 H   0  0  0  0  0  0  0  0  0  0  0  0
   56.4162   28.8940   42.9717 H   0  0  0  0  0  0  0  0  0  0  0  0
   55.5080   29.0110   44.8550 N   0  0  0  0  0  0  0  0  0  0  0  0
   55.8990   28.0410   44.8710 H   0  0  0  0  0  0  0  0  0  0  0  0
   55.9860   29.5370   45.6210 H   0  0  0  0  0  0  0  0  0  0  0  0
   59.2780   28.7740   46.0020 C   0  0  0  0  0  0  0  0  0  0  0  0
   59.0355   28.4174   44.9901 H   0  0  0  0  0  0  0  0  0  0  0  0
   57.2790   26.3500   45.8100 C   0  0  0  0  0  0  0  0  0  0  0  0
   57.4603   27.0150   44.9527 H   0  0  0  0  0  0  0  0  0  0  0  0
  1  2  1  0
  2  3  1  0
  3  4  1  0
  4  5  1  0
  5  6  1  0
  5  7  2  0
  7  8  1  0
  8  9  2  0
  8 10  1  0
 10 11  2  0
 11 12  1  0
 12 13  1  0
 13 14  1  0
 14 15  2  0
 15 16  1  0
 15 17  1  0
 17 18  1  0
 17 19  2  0
 19 20  1  0
 19 21  1  0
 21 22  1  0
 21 23  2  0
 23 24  1  0
 24 25  1  0
 25 26  1  0
 25 27  1  0
 25 28  1  0
 13 29  1  0
 29 30  1  0
 30 31  2  0
 30 32  1  0
 32 33  1  0
 33 34  1  0
 33 35  1  0
 33 36  1  0
 36 37  1  0
 36 38  1  0
 36 39  1  0
 39 40  1  0
 39 41  1  0
 29 42  2  0
 42 43  1  0
  7 44  1  0
 44 45  1  0
 44  3  2  0
 42 11  1  0
 23 14  1  0
M  CHG  3   4  -1  12  -1  32  -1
M  END
>  <UniqueID>  (83) 
76

>  <SMILES>  (83) 
COc1ccccc1-n1[n-]/c(=N\C(=O)c2c[n-]c(O)c2)cc1C(=O)[N-]CCN

>  <Energy>  (83) 
109.51997842476761

>  <Genealogy>  (83) 
COc1ccccc1-n1[n-]c(=NC(=O)c2c[n-]c(O)c2)cc1C(=O)[N-]CCN (protonated)
COc1ccccc1-n1[n-]/c(=N\C(=O)c2c[n-]c(O)c2)cc1C(=O)[N-]CCN (cis-trans isomerization)
COc1ccccc1-n1[n-]/c(=N\C(=O)c2c[n-]c(O)c2)cc1C(=O)[N-]CCN (3D coordinates assigned)
COc1ccccc1-n1[n-]/c(=N\C(=O)c2c[n-]c(O)c2)cc1C(=O)[N-]CCN (optimized conformer: 109.51997842476761 kcal/mol)

>  <smiles>  (83) 
COc1ccccc1-n1[nH]c(=NC(=O)c2c[nH]c(O)c2)cc1C(=O)NCCN

>  <score_type>  (83) 
oracle

>  <origin>  (83) 
adg

>  <m_score__min__energy>  (83) 
-12.470000000000001

>  <m_primary>  (83) 
energy

$$$$
83:0
     RDKit          3D

 49 53  0  0  0  0  0  0  0  0999 V2000
   55.5760   22.1010   44.8490 O   0  0  0  0  0  0  0  0  0  0  0  0
   55.6020   23.3220   45.1470 C   0  0  0  0  0  0  0  0  0  0  0  0
   54.4820   24.0410   45.3680 N   0  0  0  0  0  0  0  0  0  0  0  0
   54.9640   25.2630   45.6490 C   0  0  0  0  0  0  0  0  0  0  0  0
   54.1540   26.3390   45.9870 O   0  0  0  0  0  0  0  0  0  0  0  0
   56.3440   25.2610   45.5880 C   0  0  0  0  0  0  0  0  0  0  0  0
   57.2750   26.3860   45.8380 C   0  0  0  0  0  0  0  0  0  0  0  0
   57.7000   27.1870   44.7640 C   0  0  0  0  0  0  0  0  0  0  0  0
   58.5680   28.2610   44.9770 C   0  0  0  0  0  0  0  0  0  0  0  0
   59.0110   28.5640   46.2700 C   0  0  0  0  0  0  0  0  0  0  0  0
   60.0810   29.9310   46.5590 S   0  0  0  0  0  0  0  0  0  0  0  0
   61.4130   29.6160   45.9380 O   0  0  0  0  0  0  0  0  0  0  0  0
   60.2860   30.1400   48.0310 O   0  0  0  0  0  0  0  0  0  0  0  0
   59.4460   31.3790   45.8310 N   0  0  0  0  0  0  0  0  0  0  0  0
   58.5140   31.3560   44.8480 C   0  0  0  0  0  0  0  0  0  0  0  0
   58.0100   32.6220   44.6110 C   0  0  0  0  0  0  0  0  0  0  0  0
   58.6620   33.4410   45.5020 C   0  0  0  0  0  0  0  0  0  0  0  0
   58.4890   34.8040   45.7270 C   0  0  0  0  0  0  0  0  0  0  0  0
   59.2570   35.4060   46.7320 C   0  0  0  0  0  0  0  0  0  0  0  0
   60.1830   34.6460   47.4710 C   0  0  0  0  0  0  0  0  0  0  0  0
   60.3510   33.2660   47.2270 C   0  0  0  0  0  0  0  0  0  0  0  0
   61.4110   32.5700   47.8930 N   0  0  0  0  0  0  0  0  0  0  0  0
   61.4230   32.5010   49.3580 C   0  0  0  0  0  0  0  0  0  0  0  0
   62.6630   33.2260   49.8930 C   0  0  0  0  0  0  0  0  0  0  0  0
   63.9300   32.7420   49.2990 N   0  0  0  0  0  0  0  0  0  0  0  0
   63.7750   31.8870   48.1070 C   0  0  0  0  0  0  0  0  0  0  0  0
   62.6780   32.4050   47.1690 C   0  0  0  0  0  0  0  0  0  0  0  0
   59.5440   32.6730   46.2300 C   0  0  0  0  0  0  0  0  0  0  0  0
   58.5970   27.7690   47.3450 C   0  0  0  0  0  0  0  0  0  0  0  0
   57.7300   26.6930   47.1340 C   0  0  0  0  0  0  0  0  0  0  0  0
   56.7530   24.0160   45.2740 N   0  0  0  0  0  0  0  0  0  0  0  0
   57.3459   26.9662   43.7462 H   0  0  0  0  0  0  0  0  0  0  0  0
   58.9045   28.8707   44.1255 H   0  0  0  0  0  0  0  0  0  0  0  0
   58.1996   30.4499   44.3094 H   0  0  0  0  0  0  0  0  0  0  0  0
   57.2509   32.9112   43.8693 H   0  0  0  0  0  0  0  0  0  0  0  0
   57.7715   35.3900   45.1340 H   0  0  0  0  0  0  0  0  0  0  0  0
   59.1358   36.4784   46.9448 H   0  0  0  0  0  0  0  0  0  0  0  0
   60.7851   35.1352   48.2508 H   0  0  0  0  0  0  0  0  0  0  0  0
   60.5170   32.9820   49.7553 H   0  0  0  0  0  0  0  0  0  0  0  0
   61.4481   31.4481   49.6755 H   0  0  0  0  0  0  0  0  0  0  0  0
   62.5619   34.2988   49.6720 H   0  0  0  0  0  0  0  0  0  0  0  0
   62.7143   33.0267   50.9736 H   0  0  0  0  0  0  0  0  0  0  0  0
   64.5100   33.5730   49.0330 H   0  0  0  0  0  0  0  0  0  0  0  0
   64.7289   31.8639   47.5597 H   0  0  0  0  0  0  0  0  0  0  0  0
   63.4866   30.8807   48.4450 H   0  0  0  0  0  0  0  0  0  0  0  0
   62.9862   33.3762   46.7546 H   0  0  0  0  0  0  0  0  0  0  0  0
   62.5304   31.6744   46.3601 H   0  0  0  0  0  0  0  0  0  0  0  0
   58.9556   27.9920   48.3607 H   0  0  0  0  0  0  0  0  0  0  0  0
   57.4009   26.0817   47.9872 H   0  0  0  0  0  0  0  0  0  0  0  0
  1  2  2  0
  2  3  1  0
  3  4  1  0
  4  5  1  0
  4  6  2  0
  6  7  1  0
  7  8  2  0
  8  9  1  0
  9 10  2  0
 10 11  1  0
 11 12  2  0
 11 13  2  0
 11 14  1  0
 14 15  1  0
 15 16  2  0
 16 17  1  0
 17 18  2  0
 18 19  1  0
 19 20  2  0
 20 21  1  0
 21 22  1  0
 22 23  1  0
 23 24  1  0
 24 25  1  0
 25 26  1  0
 26 27  1  0
 21 28  2  0
 10 29  1  0
 29 30  2  0
  6 31  1  0
 31  2  1  0
 30  7  1  0
 28 14  1  0
 28 17  1  0
 27 22  1  0
  8 32  1  0
  9 33  1  0
 15 34  1  0
 16 35  1  0
 18 36  1  0
 19 37  1  0
 20 38  1  0
 23 39  1  0
 23 40  1  0
 24 41  1  0
 24 42  1  0
 25 43  1  0
 26 44  1  0
 26 45  1  0
 27 46  1  0
 27 47  1  0
 29 48  1  0
 30 49  1  0
M  CHG  3   3  -1   5  -1  31  -1
M  END
>  <UniqueID>  (84) 
77

>  <SMILES>  (84) 
O=c1[n-]c([O-])c(-c2ccc(S(=O)(=O)n3ccc4cccc(N5CCNCC5)c43)cc2)[n-]1

>  <Energy>  (84) 
135.74999990170926

>  <Genealogy>  (84) 
O=c1[n-]c([O-])c(-c2ccc(S(=O)(=O)n3ccc4cccc(N5CCNCC5)c43)cc2)[n-]1 (protonated)
O=c1[n-]c([O-])c(-c2ccc(S(=O)(=O)n3ccc4cccc(N5CCNCC5)c43)cc2)[n-]1 (3D coordinates assigned)
O=c1[n-]c([O-])c(-c2ccc(S(=O)(=O)n3ccc4cccc(N5CCNCC5)c43)cc2)[n-]1 (nonaromatic ring conformer: 135.74999990170926 kcal/mol)

>  <smiles>  (84) 
O=c1[nH]c(O)c(-c2ccc(S(=O)(=O)n3ccc4cccc(N5CCNCC5)c43)cc2)[nH]1

>  <score_type>  (84) 
oracle

>  <origin>  (84) 
adg

>  <m_score__min__energy>  (84) 
-15.25

>  <m_primary>  (84) 
energy

$$$$
84:0
     RDKit          3D

 42 44  0  0  0  0  0  0  0  0999 V2000
   57.8030   27.6390   45.2720 C   0  0  0  0  0  0  0  0  0  0  0  0
   57.5560   29.0510   45.0000 N   0  0  0  0  0  0  0  0  0  0  0  0
   56.3570   29.6390   44.7970 C   0  0  0  0  0  0  0  0  0  0  0  0
   55.1410   28.9710   44.8770 O   0  0  0  0  0  0  0  0  0  0  0  0
   56.5010   30.9810   44.4990 C   0  0  0  0  0  0  0  0  0  0  0  0
   57.8650   31.2050   44.4870 C   0  0  0  0  0  0  0  0  0  0  0  0
   58.4960   32.4610   44.2130 N   0  0  0  0  0  0  0  0  0  0  0  0
   58.8950   33.3900   45.2350 C   0  0  0  0  0  0  0  0  0  0  0  0
   59.2220   34.7050   44.8790 C   0  0  0  0  0  0  0  0  0  0  0  0
   59.6630   35.6100   45.8470 C   0  0  0  0  0  0  0  0  0  0  0  0
   59.8040   35.2040   47.1750 C   0  0  0  0  0  0  0  0  0  0  0  0
   59.4900   33.8900   47.5470 C   0  0  0  0  0  0  0  0  0  0  0  0
   59.7440   33.3560   49.2110 S   0  0  0  0  0  0  0  0  0  0  0  0
   58.6780   32.3570   49.5720 O   0  0  0  0  0  0  0  0  0  0  0  0
   59.5900   34.5370   50.1290 O   0  0  0  0  0  0  0  0  0  0  0  0
   61.3170   32.6320   49.4610 N   0  0  0  0  0  0  0  0  0  0  0  0
   61.2510   31.1600   49.5550 C   0  0  0  0  0  0  0  0  0  0  0  0
   61.2590   30.4610   48.1740 C   0  0  0  0  0  0  0  0  0  0  0  0
   61.6220   31.3160   47.1070 O   0  0  0  0  0  0  0  0  0  0  0  0
   62.7470   32.0800   47.4750 C   0  0  0  0  0  0  0  0  0  0  0  0
   62.3380   33.1320   48.5120 C   0  0  0  0  0  0  0  0  0  0  0  0
   59.0350   32.9860   46.5760 C   0  0  0  0  0  0  0  0  0  0  0  0
   58.4830   30.0100   44.8110 C   0  0  0  0  0  0  0  0  0  0  0  0
   59.8510   29.8030   44.9720 O   0  0  0  0  0  0  0  0  0  0  0  0
   57.8318   27.4746   46.3593 H   0  0  0  0  0  0  0  0  0  0  0  0
   56.9970   27.0342   44.8309 H   0  0  0  0  0  0  0  0  0  0  0  0
   58.7664   27.3437   44.8309 H   0  0  0  0  0  0  0  0  0  0  0  0
   55.7019   31.7134   44.3117 H   0  0  0  0  0  0  0  0  0  0  0  0
   58.7600   32.6670   43.2230 H   0  0  0  0  0  0  0  0  0  0  0  0
   59.1309   35.0265   43.8310 H   0  0  0  0  0  0  0  0  0  0  0  0
   59.8999   36.6457   45.5620 H   0  0  0  0  0  0  0  0  0  0  0  0
   60.1626   35.9175   47.9316 H   0  0  0  0  0  0  0  0  0  0  0  0
   62.1192   30.8070   50.1308 H   0  0  0  0  0  0  0  0  0  0  0  0
   60.2997   30.9056   50.0452 H   0  0  0  0  0  0  0  0  0  0  0  0
   61.9758   29.6274   48.2106 H   0  0  0  0  0  0  0  0  0  0  0  0
   60.2310   30.1216   47.9791 H   0  0  0  0  0  0  0  0  0  0  0  0
   63.5130   31.4190   47.9067 H   0  0  0  0  0  0  0  0  0  0  0  0
   63.1535   32.5832   46.5853 H   0  0  0  0  0  0  0  0  0  0  0  0
   63.2307   33.4311   49.0808 H   0  0  0  0  0  0  0  0  0  0  0  0
   61.8987   33.9814   47.9683 H   0  0  0  0  0  0  0  0  0  0  0  0
   58.7858   31.9542   46.8645 H   0  0  0  0  0  0  0  0  0  0  0  0
   60.4080   30.3890   45.5810 H   0  0  0  0  0  0  0  0  0  0  0  0
  1  2  1  0
  2  3  1  0
  3  4  1  0
  3  5  2  0
  5  6  1  0
  6  7  1  0
  7  8  1  0
  8  9  2  0
  9 10  1  0
 10 11  2  0
 11 12  1  0
 12 13  1  0
 13 14  2  0
 13 15  2  0
 13 16  1  0
 16 17  1  0
 17 18  1  0
 18 19  1  0
 19 20  1  0
 20 21  1  0
 12 22  2  0
  6 23  2  0
 23 24  1  0
 23  2  1  0
 22  8  1  0
 21 16  1  0
  1 25  1  0
  1 26  1  0
  1 27  1  0
  5 28  1  0
  7 29  1  0
  9 30  1  0
 10 31  1  0
 11 32  1  0
 17 33  1  0
 17 34  1  0
 18 35  1  0
 18 36  1  0
 20 37  1  0
 20 38  1  0
 21 39  1  0
 21 40  1  0
 22 41  1  0
 24 42  1  0
M  CHG  1   4  -1
M  END
>  <UniqueID>  (85) 
78

>  <SMILES>  (85) 
Cn1c([O-])cc(Nc2cccc(S(=O)(=O)N3CCOCC3)c2)c1O

>  <Energy>  (85) 
86.67786527853977

>  <Genealogy>  (85) 
Cn1c([O-])cc(Nc2cccc(S(=O)(=O)N3CCOCC3)c2)c1O (protonated)
Cn1c([O-])cc(Nc2cccc(S(=O)(=O)N3CCOCC3)c2)c1O (3D coordinates assigned)
Cn1c([O-])cc(Nc2cccc(S(=O)(=O)N3CCOCC3)c2)c1O (nonaromatic ring conformer: 86.67786527853977 kcal/mol)

>  <smiles>  (85) 
Cn1c(O)cc(Nc2cccc(S(=O)(=O)N3CCOCC3)c2)c1O

>  <score_type>  (85) 
oracle

>  <origin>  (85) 
adg

>  <m_score__min__energy>  (85) 
-10.539999999999999

>  <m_primary>  (85) 
energy

$$$$
85:0
     RDKit          3D

 42 44  0  0  0  0  0  0  0  0999 V2000
   59.8370   27.2970   47.1490 O   0  0  0  0  0  0  0  0  0  0  0  0
   59.2780   27.0820   46.0410 C   0  0  0  0  0  0  0  0  0  0  0  0
   58.1970   27.9660   45.5630 C   0  0  0  0  0  0  0  0  0  0  0  0
   58.4670   29.2450   45.0410 C   0  0  0  0  0  0  0  0  0  0  0  0
   57.3320   29.9390   44.6400 C   0  0  0  0  0  0  0  0  0  0  0  0
   57.2860   31.2970   44.0640 C   0  0  0  0  0  0  0  0  0  0  0  0
   57.4470   31.4400   42.8240 O   0  0  0  0  0  0  0  0  0  0  0  0
   57.0160   32.4570   44.8630 N   0  0  0  0  0  0  0  0  0  0  0  0
   57.9940   33.2990   45.4900 C   0  0  0  0  0  0  0  0  0  0  0  0
   58.3770   34.4840   44.8510 C   0  0  0  0  0  0  0  0  0  0  0  0
   59.3350   35.3200   45.4310 C   0  0  0  0  0  0  0  0  0  0  0  0
   59.9220   34.9740   46.6510 C   0  0  0  0  0  0  0  0  0  0  0  0
   59.5600   33.7830   47.2930 C   0  0  0  0  0  0  0  0  0  0  0  0
   60.3100   33.3430   48.8250 S   0  0  0  0  0  0  0  0  0  0  0  0
   59.2690   32.7650   49.7430 O   0  0  0  0  0  0  0  0  0  0  0  0
   60.8560   34.5910   49.4610 O   0  0  0  0  0  0  0  0  0  0  0  0
   61.6150   32.2070   48.5510 N   0  0  0  0  0  0  0  0  0  0  0  0
   62.7500   32.4100   49.4730 C   0  0  0  0  0  0  0  0  0  0  0  0
   63.6840   33.5370   49.0070 C   0  0  0  0  0  0  0  0  0  0  0  0
   64.1300   33.3050   47.6870 O   0  0  0  0  0  0  0  0  0  0  0  0
   63.0250   33.3170   46.8080 C   0  0  0  0  0  0  0  0  0  0  0  0
   62.0450   32.1810   47.1400 C   0  0  0  0  0  0  0  0  0  0  0  0
   58.6110   32.9380   46.7020 C   0  0  0  0  0  0  0  0  0  0  0  0
   55.9890   28.9850   44.9560 S   0  0  0  0  0  0  0  0  0  0  0  0
   56.8240   27.6630   45.5820 C   0  0  0  0  0  0  0  0  0  0  0  0
   56.1460   26.4340   46.0390 C   0  0  0  0  0  0  0  0  0  0  0  0
   56.7920   25.4610   46.5060 O   0  0  0  0  0  0  0  0  0  0  0  0
   54.7630   26.3390   45.9440 O   0  0  0  0  0  0  0  0  0  0  0  0
   59.5979   26.2288   45.4248 H   0  0  0  0  0  0  0  0  0  0  0  0
   59.4834   29.6573   44.9581 H   0  0  0  0  0  0  0  0  0  0  0  0
   57.9219   34.7585   43.8879 H   0  0  0  0  0  0  0  0  0  0  0  0
   59.6276   36.2524   44.9261 H   0  0  0  0  0  0  0  0  0  0  0  0
   60.6700   35.6385   47.1081 H   0  0  0  0  0  0  0  0  0  0  0  0
   62.3564   32.6652   50.4680 H   0  0  0  0  0  0  0  0  0  0  0  0
   63.3336   31.4780   49.4993 H   0  0  0  0  0  0  0  0  0  0  0  0
   63.1409   34.4929   49.0414 H   0  0  0  0  0  0  0  0  0  0  0  0
   64.5581   33.5691   49.6741 H   0  0  0  0  0  0  0  0  0  0  0  0
   62.5029   34.2808   46.8997 H   0  0  0  0  0  0  0  0  0  0  0  0
   63.3925   33.1740   45.7811 H   0  0  0  0  0  0  0  0  0  0  0  0
   61.1575   32.2805   46.4978 H   0  0  0  0  0  0  0  0  0  0  0  0
   62.5635   31.2270   46.9637 H   0  0  0  0  0  0  0  0  0  0  0  0
   58.3470   31.9873   47.1883 H   0  0  0  0  0  0  0  0  0  0  0  0
  1  2  2  0
  2  3  1  0
  3  4  1  0
  4  5  2  0
  5  6  1  0
  6  7  2  0
  6  8  1  0
  8  9  1  0
  9 10  2  0
 10 11  1  0
 11 12  2  0
 12 13  1  0
 13 14  1  0
 14 15  2  0
 14 16  2  0
 14 17  1  0
 17 18  1  0
 18 19  1  0
 19 20  1  0
 20 21  1  0
 21 22  1  0
 13 23  2  0
  5 24  1  0
 24 25  1  0
 25 26  1  0
 26 27  2  0
 26 28  1  0
 25  3  2  0
 23  9  1  0
 22 17  1  0
  2 29  1  0
  4 30  1  0
 10 31  1  0
 11 32  1  0
 12 33  1  0
 18 34  1  0
 18 35  1  0
 19 36  1  0
 19 37  1  0
 21 38  1  0
 21 39  1  0
 22 40  1  0
 22 41  1  0
 23 42  1  0
M  CHG  2   8  -1  28  -1
M  END
>  <UniqueID>  (86) 
79

>  <SMILES>  (86) 
O=Cc1cc(C(=O)[N-]c2cccc(S(=O)(=O)N3CCOCC3)c2)sc1C(=O)[O-]

>  <Energy>  (86) 
80.06941517900866

>  <Genealogy>  (86) 
O=Cc1cc(C(=O)[N-]c2cccc(S(=O)(=O)N3CCOCC3)c2)sc1C(=O)[O-] (protonated)
O=Cc1cc(C(=O)[N-]c2cccc(S(=O)(=O)N3CCOCC3)c2)sc1C(=O)[O-] (3D coordinates assigned)
O=Cc1cc(C(=O)[N-]c2cccc(S(=O)(=O)N3CCOCC3)c2)sc1C(=O)[O-] (nonaromatic ring conformer: 80.06941517900866 kcal/mol)

>  <smiles>  (86) 
O=Cc1cc(C(=O)Nc2cccc(S(=O)(=O)N3CCOCC3)c2)sc1C(=O)O

>  <score_type>  (86) 
oracle

>  <origin>  (86) 
adg

>  <m_score__min__energy>  (86) 
-12.93

>  <m_primary>  (86) 
energy

$$$$
86:0
     RDKit          3D

 58 61  0  0  1  0  0  0  0  0999 V2000
   56.3280   20.4050   44.4350 C   0  0  0  0  0  0  0  0  0  0  0  0
   55.8900   21.6780   45.1000 C   0  0  0  0  0  0  0  0  0  0  0  0
   56.7370   22.3760   45.9200 C   0  0  0  0  0  0  0  0  0  0  0  0
   56.3350   23.5470   46.5310 C   0  0  0  0  0  0  0  0  0  0  0  0
   57.0670   24.2450   47.3030 N   0  0  0  0  0  0  0  0  0  0  0  0
   57.6450   25.4440   46.7970 C   0  0  0  0  0  0  0  0  0  0  0  0
   59.0170   25.6990   46.7680 C   0  0  0  0  0  0  0  0  0  0  0  0
   59.1660   26.9510   46.2120 C   0  0  0  0  0  0  0  0  0  0  0  0
   60.3960   27.5630   46.0110 O   0  0  0  0  0  0  0  0  0  0  0  0
   57.9300   27.4440   45.9120 N   0  0  0  0  0  0  0  0  0  0  0  0
   57.7850   28.7350   45.3210 C   0  0  0  0  0  0  0  0  0  0  0  0
   58.9340   29.3660   44.8840 C   0  0  0  0  0  0  0  0  0  0  0  0
   58.8780   30.6310   44.2950 C   0  0  0  0  0  0  0  0  0  0  0  0
   57.6640   31.2470   44.1520 C   0  0  0  0  0  0  0  0  0  0  0  0
   57.5440   32.6020   43.5280 C   0  0  0  0  0  0  0  0  0  0  0  0
   57.7010   33.8870   44.7250 S   0  0  0  0  0  0  0  0  0  0  0  0
   56.5880   34.8640   44.5140 O   0  0  0  0  0  0  0  0  0  0  0  0
   59.0000   34.6240   44.5260 O   0  0  0  0  0  0  0  0  0  0  0  0
   57.7410   33.2820   46.3430 N   0  0  0  0  0  0  0  0  0  0  0  0
   58.8800   32.6910   46.9280 C   0  0  0  0  0  0  0  0  0  0  0  0
   59.9400   32.5860   46.2550 O   0  0  0  0  0  0  0  0  0  0  0  0
   58.9150   32.1800   48.2940 C   0  0  0  0  0  0  0  0  0  0  0  0
   58.9100   30.8130   48.4760 C   0  0  0  0  0  0  0  0  0  0  0  0
   58.9430   30.3050   49.7800 C   0  0  0  0  0  0  0  0  0  0  0  0
   58.9810   31.1440   50.8730 C   0  0  0  0  0  0  0  0  0  0  0  0
   58.9860   32.5120   50.6970 C   0  0  0  0  0  0  0  0  0  0  0  0
   58.9530   32.9940   49.4040 C   0  0  0  0  0  0  0  0  0  0  0  0
   56.5140   30.6210   44.5870 C   0  0  0  0  0  0  0  0  0  0  0  0
   56.5760   29.3630   45.1720 C   0  0  0  0  0  0  0  0  0  0  0  0
   56.9890   26.5520   46.2570 C   0  0  0  0  0  0  0  0  0  0  0  0
   55.6370   26.7080   46.1030 O   0  0  0  0  0  0  0  0  0  0  0  0
   55.0700   23.9890   46.2950 N   0  0  0  0  0  0  0  0  0  0  0  0
   54.2260   23.3090   45.4890 C   0  0  0  0  0  0  0  0  0  0  0  0
   52.8540   23.8640   45.2840 C   0  0  0  0  0  0  0  0  0  0  0  0
   54.6470   22.1770   44.9120 N   0  0  0  0  0  0  0  0  0  0  0  0
   56.5844   19.6598   45.2025 H   0  0  0  0  0  0  0  0  0  0  0  0
   55.5110   20.0191   43.8077 H   0  0  0  0  0  0  0  0  0  0  0  0
   57.2095   20.6035   43.8077 H   0  0  0  0  0  0  0  0  0  0  0  0
   57.7548   21.9970   46.0946 H   0  0  0  0  0  0  0  0  0  0  0  0
   59.8193   25.0333   47.1190 H   0  0  0  0  0  0  0  0  0  0  0  0
   60.7770   27.5570   45.0720 H   0  0  0  0  0  0  0  0  0  0  0  0
   59.9062   28.8650   45.0017 H   0  0  0  0  0  0  0  0  0  0  0  0
   59.7978   31.1261   43.9503 H   0  0  0  0  0  0  0  0  0  0  0  0
   58.3362   32.7186   42.7737 H   0  0  0  0  0  0  0  0  0  0  0  0
   56.5477   32.6811   43.0685 H   0  0  0  0  0  0  0  0  0  0  0  0
   56.8820   33.3620   46.8990 H   0  0  0  0  0  0  0  0  0  0  0  0
   58.8806   30.1336   47.6114 H   0  0  0  0  0  0  0  0  0  0  0  0
   58.9385   29.2160   49.9353 H   0  0  0  0  0  0  0  0  0  0  0  0
   59.0074   30.7214   51.8883 H   0  0  0  0  0  0  0  0  0  0  0  0
   59.0153   33.1959   51.5581 H   0  0  0  0  0  0  0  0  0  0  0  0
   58.9573   34.0835   49.2526 H   0  0  0  0  0  0  0  0  0  0  0  0
   55.5416   31.1217   44.4697 H   0  0  0  0  0  0  0  0  0  0  0  0
   55.6545   28.8705   45.5159 H   0  0  0  0  0  0  0  0  0  0  0  0
   55.0030   26.3330   46.7890 H   0  0  0  0  0  0  0  0  0  0  0  0
   54.7350   24.8650   46.7380 H   0  0  0  0  0  0  0  0  0  0  0  0
   52.3854   24.0536   46.2610 H   0  0  0  0  0  0  0  0  0  0  0  0
   52.9201   24.8061   44.7201 H   0  0  0  0  0  0  0  0  0  0  0  0
   52.2465   23.1409   44.7201 H   0  0  0  0  0  0  0  0  0  0  0  0
  1  2  1  0
  2  3  2  0
  3  4  1  0
  4  5  2  0
  5  6  1  0
  6  7  1  0
  7  8  2  0
  8  9  1  0
  8 10  1  0
 10 11  1  0
 11 12  2  0
 12 13  1  0
 13 14  2  0
 14 15  1  0
 15 16  1  0
 16 17  2  0
 16 18  2  0
 16 19  1  0
 19 20  1  0
 20 21  2  0
 20 22  1  0
 22 23  2  0
 23 24  1  0
 24 25  2  0
 25 26  1  0
 26 27  2  0
 14 28  1  0
 28 29  2  0
 10 30  1  0
 30 31  1  0
  4 32  1  0
 32 33  1  0
 33 34  1  0
 33 35  2  0
 35  2  1  0
 30  6  2  0
 29 11  1  0
 27 22  1  0
  1 36  1  0
  1 37  1  0
  1 38  1  0
  3 39  1  0
  7 40  1  0
  9 41  1  0
 12 42  1  0
 13 43  1  0
 15 44  1  0
 15 45  1  0
 19 46  1  0
 23 47  1  0
 24 48  1  0
 25 49  1  0
 26 50  1  0
 27 51  1  0
 28 52  1  0
 29 53  1  0
 31 54  1  0
 32 55  1  0
 34 56  1  0
 34 57  1  0
 34 58  1  0
M  END
>  <smiles>  (87) 
Cc1cc(=Nc2cc(O)n(-c3ccc(CS(=O)(=O)NC(=O)c4ccccc4)cc3)c2O)[nH]c(C)n1

>  <score_type>  (87) 
oracle

>  <origin>  (87) 
adg

>  <m_score__min__energy>  (87) 
-10.69

>  <m_primary>  (87) 
energy

$$$$
87:0
     RDKit          3D

 42 44  0  0  1  0  0  0  0  0999 V2000
   61.1320   31.7660   48.0260 O   0  0  0  0  0  0  0  0  0  0  0  0
   60.2170   30.8800   47.9770 C   0  0  0  0  0  0  0  0  0  0  0  0
   60.3280   29.6160   48.7180 C   0  0  0  0  0  0  0  0  0  0  0  0
   59.5390   28.5920   48.1240 C   0  0  0  0  0  0  0  0  0  0  0  0
   58.3420   28.3380   47.8090 N   0  0  0  0  0  0  0  0  0  0  0  0
   57.8680   27.3030   47.2590 N   0  0  0  0  0  0  0  0  0  0  0  0
   58.7260   26.3090   46.9510 C   0  0  0  0  0  0  0  0  0  0  0  0
   58.6000   25.1460   46.4010 N   0  0  0  0  0  0  0  0  0  0  0  0
   57.1410   24.2390   46.6070 S   0  0  0  0  0  0  0  0  0  0  0  0
   57.2550   23.3520   47.7900 O   0  0  0  0  0  0  0  0  0  0  0  0
   56.0020   25.2170   46.6950 O   0  0  0  0  0  0  0  0  0  0  0  0
   56.9270   23.3300   45.1080 C   0  0  0  0  0  0  0  0  0  0  0  0
   56.0040   23.7110   44.1540 C   0  0  0  0  0  0  0  0  0  0  0  0
   55.8670   22.9640   42.9840 C   0  0  0  0  0  0  0  0  0  0  0  0
   56.6490   21.8420   42.7720 C   0  0  0  0  0  0  0  0  0  0  0  0
   57.5570   21.4680   43.7140 C   0  0  0  0  0  0  0  0  0  0  0  0
   57.7110   22.1950   44.8820 C   0  0  0  0  0  0  0  0  0  0  0  0
   60.3610   26.9870   47.5310 S   0  0  0  0  0  0  0  0  0  0  0  0
   59.0540   31.1070   47.1850 N   0  0  0  0  0  0  0  0  0  0  0  0
   58.8760   32.3090   46.4370 C   0  0  0  0  0  0  0  0  0  0  0  0
   59.4650   33.5060   46.7880 C   0  0  0  0  0  0  0  0  0  0  0  0
   59.2200   34.6140   45.9850 C   0  0  0  0  0  0  0  0  0  0  0  0
   58.4030   34.5170   44.8570 C   0  0  0  0  0  0  0  0  0  0  0  0
   57.8100   33.3030   44.5080 C   0  0  0  0  0  0  0  0  0  0  0  0
   58.0620   32.2100   45.3150 C   0  0  0  0  0  0  0  0  0  0  0  0
   57.4420   30.9520   44.9470 C   0  0  0  0  0  0  0  0  0  0  0  0
   56.2590   30.8600   44.5190 O   0  0  0  0  0  0  0  0  0  0  0  0
   58.1490   29.7560   45.0510 O   0  0  0  0  0  0  0  0  0  0  0  0
   61.3808   29.2972   48.7251 H   0  0  0  0  0  0  0  0  0  0  0  0
   59.9623   29.7831   49.7419 H   0  0  0  0  0  0  0  0  0  0  0  0
   56.8290   27.1740   47.0280 H   0  0  0  0  0  0  0  0  0  0  0  0
   55.3785   24.6012   44.3164 H   0  0  0  0  0  0  0  0  0  0  0  0
   55.1321   23.2689   42.2244 H   0  0  0  0  0  0  0  0  0  0  0  0
   56.5372   21.2562   41.8477 H   0  0  0  0  0  0  0  0  0  0  0  0
   58.1773   20.5755   43.5450 H   0  0  0  0  0  0  0  0  0  0  0  0
   58.4506   21.8794   45.6325 H   0  0  0  0  0  0  0  0  0  0  0  0
   58.2850   30.4030   47.1210 H   0  0  0  0  0  0  0  0  0  0  0  0
   60.1091   33.5815   47.6765 H   0  0  0  0  0  0  0  0  0  0  0  0
   59.6765   35.5812   46.2421 H   0  0  0  0  0  0  0  0  0  0  0  0
   58.2248   35.4076   44.2364 H   0  0  0  0  0  0  0  0  0  0  0  0
   57.1644   33.2190   43.6213 H   0  0  0  0  0  0  0  0  0  0  0  0
   58.2270   29.2240   45.9010 H   0  0  0  0  0  0  0  0  0  0  0  0
  1  2  2  0
  2  3  1  0
  3  4  1  0
  4  5  2  0
  5  6  1  0
  6  7  1  0
  7  8  2  0
  8  9  1  0
  9 10  2  0
  9 11  2  0
  9 12  1  0
 12 13  2  0
 13 14  1  0
 14 15  2  0
 15 16  1  0
 16 17  2  0
  7 18  1  0
  2 19  1  0
 19 20  1  0
 20 21  2  0
 21 22  1  0
 22 23  2  0
 23 24  1  0
 24 25  2  0
 25 26  1  0
 26 27  2  0
 26 28  1  0
 18  4  1  0
 25 20  1  0
 17 12  1  0
  3 29  1  0
  3 30  1  0
  6 31  1  0
 13 32  1  0
 14 33  1  0
 15 34  1  0
 16 35  1  0
 17 36  1  0
 19 37  1  0
 21 38  1  0
 22 39  1  0
 23 40  1  0
 24 41  1  0
 28 42  1  0
M  END
>  <smiles>  (88) 
O=C(Cc1n[nH]c(=NS(=O)(=O)c2ccccc2)s1)Nc1ccccc1C(=O)O

>  <score_type>  (88) 
oracle

>  <origin>  (88) 
adg

>  <m_score__min__energy>  (88) 
-9.8499999999999996

>  <m_primary>  (88) 
energy

$$$$
88:0
     RDKit          3D

 45 48  0  0  1  0  0  0  0  0999 V2000
   59.9860   35.4150   46.0790 O   0  0  0  0  0  0  0  0  0  0  0  0
   59.7730   34.2600   46.5200 C   0  0  0  0  0  0  0  0  0  0  0  0
   58.4600   33.7440   46.7340 N   0  0  0  0  0  0  0  0  0  0  0  0
   58.0200   32.8170   45.9900 C   0  0  0  0  0  0  0  0  0  0  0  0
   57.8620   31.4530   46.2420 N   0  0  0  0  0  0  0  0  0  0  0  0
   57.3810   30.8240   45.2460 N   0  0  0  0  0  0  0  0  0  0  0  0
   57.0420   31.1370   44.1610 C   0  0  0  0  0  0  0  0  0  0  0  0
   57.4300   33.0210   44.2740 S   0  0  0  0  0  0  0  0  0  0  0  0
   60.8720   33.3300   46.8620 C   0  0  0  0  0  0  0  0  0  0  0  0
   62.1360   33.8870   46.8760 C   0  0  0  0  0  0  0  0  0  0  0  0
   63.1820   33.0160   47.1850 C   0  0  0  0  0  0  0  0  0  0  0  0
   62.9600   31.6870   47.4570 C   0  0  0  0  0  0  0  0  0  0  0  0
   61.7040   31.1400   47.4410 C   0  0  0  0  0  0  0  0  0  0  0  0
   61.3910   29.8330   47.6940 O   0  0  0  0  0  0  0  0  0  0  0  0
   60.4110   29.0650   47.1610 C   0  0  0  0  0  0  0  0  0  0  0  0
   60.5370   28.1750   46.1210 C   0  0  0  0  0  0  0  0  0  0  0  0
   59.4650   27.4250   45.6360 C   0  0  0  0  0  0  0  0  0  0  0  0
   58.2370   27.5700   46.2110 C   0  0  0  0  0  0  0  0  0  0  0  0
   57.0280   26.8790   45.8130 C   0  0  0  0  0  0  0  0  0  0  0  0
   56.0060   27.6000   45.6110 O   0  0  0  0  0  0  0  0  0  0  0  0
   56.9120   25.4870   45.6380 N   0  0  0  0  0  0  0  0  0  0  0  0
   57.9080   24.4260   45.7950 C   0  0  0  0  0  0  0  0  0  0  0  0
   57.6650   23.5960   44.5450 C   0  0  0  0  0  0  0  0  0  0  0  0
   56.1790   23.6650   44.3280 C   0  0  0  0  0  0  0  0  0  0  0  0
   55.7120   24.7720   45.2350 C   0  0  0  0  0  0  0  0  0  0  0  0
   58.1320   28.4730   47.2600 C   0  0  0  0  0  0  0  0  0  0  0  0
   59.1670   29.1860   47.7130 N   0  0  0  0  0  0  0  0  0  0  0  0
   60.6440   31.9980   47.1350 C   0  0  0  0  0  0  0  0  0  0  0  0
   58.1440   31.1110   47.1930 H   0  0  0  0  0  0  0  0  0  0  0  0
   56.6301   30.5369   43.3363 H   0  0  0  0  0  0  0  0  0  0  0  0
   62.3076   34.9513   46.6571 H   0  0  0  0  0  0  0  0  0  0  0  0
   64.2112   33.4033   47.2116 H   0  0  0  0  0  0  0  0  0  0  0  0
   63.8185   31.0418   47.6952 H   0  0  0  0  0  0  0  0  0  0  0  0
   61.5238   28.0488   45.6517 H   0  0  0  0  0  0  0  0  0  0  0  0
   59.6087   26.7250   44.7997 H   0  0  0  0  0  0  0  0  0  0  0  0
   58.9296   24.8334   45.8147 H   0  0  0  0  0  0  0  0  0  0  0  0
   57.8170   23.8604   46.7340 H   0  0  0  0  0  0  0  0  0  0  0  0
   58.2033   24.0217   43.6853 H   0  0  0  0  0  0  0  0  0  0  0  0
   58.0234   22.5618   44.6544 H   0  0  0  0  0  0  0  0  0  0  0  0
   55.9507   23.9012   43.2782 H   0  0  0  0  0  0  0  0  0  0  0  0
   55.6813   22.7089   44.5474 H   0  0  0  0  0  0  0  0  0  0  0  0
   55.0277   25.4448   44.6973 H   0  0  0  0  0  0  0  0  0  0  0  0
   55.1638   24.3792   46.1040 H   0  0  0  0  0  0  0  0  0  0  0  0
   57.1516   28.6077   47.7403 H   0  0  0  0  0  0  0  0  0  0  0  0
   59.6164   31.6062   47.1117 H   0  0  0  0  0  0  0  0  0  0  0  0
  1  2  2  0
  2  3  1  0
  3  4  2  0
  4  5  1  0
  5  6  1  0
  6  7  2  0
  7  8  1  0
  2  9  1  0
  9 10  2  0
 10 11  1  0
 11 12  2  0
 12 13  1  0
 13 14  1  0
 14 15  1  0
 15 16  2  0
 16 17  1  0
 17 18  2  0
 18 19  1  0
 19 20  2  0
 19 21  1  0
 21 22  1  0
 22 23  1  0
 23 24  1  0
 24 25  1  0
 18 26  1  0
 26 27  2  0
 13 28  2  0
  8  4  1  0
 28  9  1  0
 27 15  1  0
 25 21  1  0
  5 29  1  0
  7 30  1  0
 10 31  1  0
 11 32  1  0
 12 33  1  0
 16 34  1  0
 17 35  1  0
 22 36  1  0
 22 37  1  0
 23 38  1  0
 23 39  1  0
 24 40  1  0
 24 41  1  0
 25 42  1  0
 25 43  1  0
 26 44  1  0
 28 45  1  0
M  END
>  <smiles>  (89) 
O=C(N=c1[nH]ncs1)c1cccc(Oc2ccc(C(=O)N3CCCC3)cn2)c1

>  <score_type>  (89) 
oracle

>  <origin>  (89) 
adg

>  <m_score__min__energy>  (89) 
-9.5600000000000005

>  <m_primary>  (89) 
energy

$$$$
89:0
     RDKit          3D

 51 54  0  0  0  0  0  0  0  0999 V2000
   59.0930   30.3090   47.4440 O   0  0  0  0  0  0  0  0  0  0  0  0
   58.2600   30.1590   46.5100 C   0  0  0  0  0  0  0  0  0  0  0  0
   57.8980   31.2570   45.6560 N   0  0  0  0  0  0  0  0  0  0  0  0
   58.2800   32.5040   45.7070 C   0  0  0  0  0  0  0  0  0  0  0  0
   57.9060   33.4670   44.7490 C   0  0  0  0  0  0  0  0  0  0  0  0
   58.3590   34.7810   44.8810 C   0  0  0  0  0  0  0  0  0  0  0  0
   59.1710   35.1280   45.9150 N   0  0  0  0  0  0  0  0  0  0  0  0
   59.5870   34.2160   46.8350 C   0  0  0  0  0  0  0  0  0  0  0  0
   60.4260   34.6380   47.8780 O   0  0  0  0  0  0  0  0  0  0  0  0
   61.6900   34.1040   48.1700 C   0  0  0  0  0  0  0  0  0  0  0  0
   62.1740   34.0100   49.4890 C   0  0  0  0  0  0  0  0  0  0  0  0
   63.4340   33.4570   49.7380 C   0  0  0  0  0  0  0  0  0  0  0  0
   64.2120   32.9820   48.6790 C   0  0  0  0  0  0  0  0  0  0  0  0
   63.7280   33.0520   47.3700 C   0  0  0  0  0  0  0  0  0  0  0  0
   62.4690   33.6050   47.1170 C   0  0  0  0  0  0  0  0  0  0  0  0
   59.1320   32.8890   46.7480 C   0  0  0  0  0  0  0  0  0  0  0  0
   57.7090   28.7810   46.2300 C   0  0  1  0  0  0  0  0  0  0  0  0
   56.6520   28.8340   45.1310 C   0  0  0  0  0  0  0  0  0  0  0  0
   57.3900   28.5810   43.8270 C   0  0  0  0  0  0  0  0  0  0  0  0
   58.6110   27.7400   44.1800 C   0  0  0  0  0  0  0  0  0  0  0  0
   58.8040   27.8290   45.7040 C   0  0  2  0  0  0  0  0  0  0  0  0
   58.7190   26.4570   46.3360 C   0  0  0  0  0  0  0  0  0  0  0  0
   59.7720   25.8440   46.6600 O   0  0  0  0  0  0  0  0  0  0  0  0
   57.4530   25.9300   46.7550 N   0  0  0  0  0  0  0  0  0  0  0  0
   56.6610   25.1210   46.1060 C   0  0  0  0  0  0  0  0  0  0  0  0
   57.1600   23.9090   45.7350 N   0  0  0  0  0  0  0  0  0  0  0  0
   56.4200   22.9850   45.0700 C   0  0  0  0  0  0  0  0  0  0  0  0
   55.0960   23.2590   44.7360 C   0  0  0  0  0  0  0  0  0  0  0  0
   54.5520   24.4970   45.0750 C   0  0  0  0  0  0  0  0  0  0  0  0
   55.3270   25.4460   45.7470 C   0  0  0  0  0  0  0  0  0  0  0  0
   54.7730   26.6950   46.0000 O   0  0  0  0  0  0  0  0  0  0  0  0
   57.2617   33.1856   43.9030 H   0  0  0  0  0  0  0  0  0  0  0  0
   58.0573   35.5400   44.1442 H   0  0  0  0  0  0  0  0  0  0  0  0
   59.4980   36.1170   45.9910 H   0  0  0  0  0  0  0  0  0  0  0  0
   61.5591   34.3726   50.3259 H   0  0  0  0  0  0  0  0  0  0  0  0
   63.8131   33.3959   50.7688 H   0  0  0  0  0  0  0  0  0  0  0  0
   65.2056   32.5529   48.8758 H   0  0  0  0  0  0  0  0  0  0  0  0
   64.3382   32.6716   46.5376 H   0  0  0  0  0  0  0  0  0  0  0  0
   62.0878   33.6487   46.0861 H   0  0  0  0  0  0  0  0  0  0  0  0
   59.4466   32.1510   47.5005 H   0  0  0  0  0  0  0  0  0  0  0  0
   57.2938   28.4215   47.1831 H   0  0  0  0  0  0  0  0  0  0  0  0
   55.8902   28.0578   45.2958 H   0  0  0  0  0  0  0  0  0  0  0  0
   56.1325   29.8035   45.1182 H   0  0  0  0  0  0  0  0  0  0  0  0
   56.7433   28.0363   43.1233 H   0  0  0  0  0  0  0  0  0  0  0  0
   57.6821   29.5253   43.3443 H   0  0  0  0  0  0  0  0  0  0  0  0
   58.4463   26.6940   43.8820 H   0  0  0  0  0  0  0  0  0  0  0  0
   59.5031   28.1088   43.6527 H   0  0  0  0  0  0  0  0  0  0  0  0
   59.7999   28.2177   45.9631 H   0  0  0  0  0  0  0  0  0  0  0  0
   56.8670   22.0184   44.7946 H   0  0  0  0  0  0  0  0  0  0  0  0
   54.4871   22.5080   44.2113 H   0  0  0  0  0  0  0  0  0  0  0  0
   53.5090   24.7276   44.8126 H   0  0  0  0  0  0  0  0  0  0  0  0
  1  2  2  0
  2  3  1  0
  3  4  2  3
  4  5  1  0
  5  6  2  0
  6  7  1  0
  7  8  1  0
  8  9  1  0
  9 10  1  0
 10 11  2  0
 11 12  1  0
 12 13  2  0
 13 14  1  0
 14 15  2  0
  8 16  2  0
  2 17  1  0
 17 18  1  0
 18 19  1  0
 19 20  1  0
 20 21  1  0
 21 22  1  0
 22 23  2  0
 22 24  1  0
 24 25  2  3
 25 26  1  0
 26 27  1  0
 27 28  2  0
 28 29  1  0
 29 30  2  0
 30 31  1  0
 16  4  1  0
 21 17  1  0
 30 25  1  0
 15 10  1  0
  5 32  1  0
  6 33  1  0
  7 34  1  0
 11 35  1  0
 12 36  1  0
 13 37  1  0
 14 38  1  0
 15 39  1  0
 16 40  1  0
 17 41  1  1
 18 42  1  0
 18 43  1  0
 19 44  1  0
 19 45  1  0
 20 46  1  0
 20 47  1  0
 21 48  1  6
 27 49  1  0
 28 50  1  0
 29 51  1  0
M  CHG  2  26  -1  31  -1
M  END
>  <UniqueID>  (90) 
80

>  <SMILES>  (90) 
O=C(N=c1cc[nH]c(Oc2ccccc2)c1)[C@H]1CCC[C@@H]1C(=O)N=c1[n-]cccc1[O-]

>  <Energy>  (90) 
83.82984426041087

>  <Genealogy>  (90) 
O=C(N=c1cc[nH]c(Oc2ccccc2)c1)C1CCCC1C(=O)N=c1[n-]cccc1[O-] (protonated)
O=C(N=c1cc[nH]c(Oc2ccccc2)c1)[C@H]1CCC[C@@H]1C(=O)N=c1[n-]cccc1[O-] (chirality)
O=C(N=c1cc[nH]c(Oc2ccccc2)c1)[C@H]1CCC[C@@H]1C(=O)N=c1[n-]cccc1[O-] (3D coordinates assigned)
O=C(N=c1cc[nH]c(Oc2ccccc2)c1)[C@H]1CCC[C@@H]1C(=O)N=c1[n-]cccc1[O-] (nonaromatic ring conformer: 83.82984426041087 kcal/mol)

>  <smiles>  (90) 
O=C(N=c1cc[nH]c(Oc2ccccc2)c1)C1CCCC1C(=O)N=c1[nH]cccc1O

>  <score_type>  (90) 
oracle

>  <origin>  (90) 
adg

>  <m_score__min__energy>  (90) 
-14.949999999999999

>  <m_primary>  (90) 
energy

$$$$
90:0
     RDKit          3D

 58 61  0  0  0  0  0  0  0  0999 V2000
   57.1540   33.9020   45.5060 C   0  0  0  0  0  0  0  0  0  0  0  0
   58.2630   34.7450   45.7990 O   0  0  0  0  0  0  0  0  0  0  0  0
   59.3770   34.3530   46.5570 C   0  0  0  0  0  0  0  0  0  0  0  0
   60.6540   34.1950   45.9930 C   0  0  0  0  0  0  0  0  0  0  0  0
   61.7360   33.8210   46.7910 C   0  0  0  0  0  0  0  0  0  0  0  0
   61.5640   33.5890   48.1700 C   0  0  0  0  0  0  0  0  0  0  0  0
   62.6400   33.2300   48.9990 O   0  0  0  0  0  0  0  0  0  0  0  0
   63.2690   31.9520   49.0020 C   0  0  0  0  0  0  0  0  0  0  0  0
   60.2770   33.7200   48.7350 C   0  0  0  0  0  0  0  0  0  0  0  0
   60.0530   33.4910   50.2080 C   0  0  0  0  0  0  0  0  0  0  0  0
   59.1640   32.3920   50.3920 O   0  0  0  0  0  0  0  0  0  0  0  0
   59.5220   31.0430   50.2640 C   0  0  0  0  0  0  0  0  0  0  0  0
   60.0760   30.3110   51.3290 C   0  0  0  0  0  0  0  0  0  0  0  0
   60.4320   28.9740   51.1530 C   0  0  0  0  0  0  0  0  0  0  0  0
   60.2190   28.3470   49.9260 C   0  0  0  0  0  0  0  0  0  0  0  0
   59.6440   29.0490   48.8580 C   0  0  0  0  0  0  0  0  0  0  0  0
   59.3900   28.3510   47.6280 N   0  0  0  0  0  0  0  0  0  0  0  0
   60.0990   27.1650   47.2360 C   0  0  0  0  0  0  0  0  0  0  0  0
   61.1340   26.8030   47.8610 O   0  0  0  0  0  0  0  0  0  0  0  0
   59.6270   26.3560   46.0670 C   0  0  0  0  0  0  0  0  0  0  0  0
   58.2010   25.9520   46.2610 C   0  0  0  0  0  0  0  0  0  0  0  0
   57.0880   26.6250   45.7740 C   0  0  0  0  0  0  0  0  0  0  0  0
   55.8830   25.9680   46.0510 C   0  0  0  0  0  0  0  0  0  0  0  0
   56.0450   24.7740   46.7440 C   0  0  0  0  0  0  0  0  0  0  0  0
   57.6890   24.5350   47.0100 S   0  0  0  0  0  0  0  0  0  0  0  0
   59.3350   30.4220   49.0190 C   0  0  0  0  0  0  0  0  0  0  0  0
   58.8720   31.2240   47.9240 N   0  0  0  0  0  0  0  0  0  0  0  0
   59.1790   30.9640   46.5500 C   0  0  0  0  0  0  0  0  0  0  0  0
   60.3570   31.0970   46.1240 O   0  0  0  0  0  0  0  0  0  0  0  0
   58.1120   30.5670   45.6260 C   0  0  0  0  0  0  0  0  0  0  0  0
   58.0400   30.9190   44.2900 C   0  0  0  0  0  0  0  0  0  0  0  0
   56.8830   30.3520   43.8050 C   0  0  0  0  0  0  0  0  0  0  0  0
   56.3200   29.6880   44.8730 C   0  0  0  0  0  0  0  0  0  0  0  0
   55.1350   28.9670   44.8170 O   0  0  0  0  0  0  0  0  0  0  0  0
   57.0570   29.8100   45.9920 N   0  0  0  0  0  0  0  0  0  0  0  0
   59.1990   34.1150   47.9230 C   0  0  0  0  0  0  0  0  0  0  0  0
   56.6984   33.5557   46.4454 H   0  0  0  0  0  0  0  0  0  0  0  0
   56.4098   34.4645   44.9231 H   0  0  0  0  0  0  0  0  0  0  0  0
   57.4968   33.0344   44.9231 H   0  0  0  0  0  0  0  0  0  0  0  0
   60.8017   34.3670   44.9166 H   0  0  0  0  0  0  0  0  0  0  0  0
   62.7324   33.7063   46.3392 H   0  0  0  0  0  0  0  0  0  0  0  0
   63.4300   31.6250   50.0399 H   0  0  0  0  0  0  0  0  0  0  0  0
   62.6256   31.2254   48.4842 H   0  0  0  0  0  0  0  0  0  0  0  0
   64.2372   32.0187   48.4842 H   0  0  0  0  0  0  0  0  0  0  0  0
   61.0145   33.2693   50.6943 H   0  0  0  0  0  0  0  0  0  0  0  0
   59.6135   34.3948   50.6552 H   0  0  0  0  0  0  0  0  0  0  0  0
   60.2293   30.7948   52.3050 H   0  0  0  0  0  0  0  0  0  0  0  0
   60.8822   28.4124   51.9848 H   0  0  0  0  0  0  0  0  0  0  0  0
   60.5046   27.2928   49.7952 H   0  0  0  0  0  0  0  0  0  0  0  0
   58.7570   28.7990   46.9280 H   0  0  0  0  0  0  0  0  0  0  0  0
   59.7126   26.9579   45.1503 H   0  0  0  0  0  0  0  0  0  0  0  0
   60.2478   25.4519   45.9820 H   0  0  0  0  0  0  0  0  0  0  0  0
   57.1471   27.5772   45.2264 H   0  0  0  0  0  0  0  0  0  0  0  0
   54.9006   26.3598   45.7487 H   0  0  0  0  0  0  0  0  0  0  0  0
   55.2364   24.1004   47.0639 H   0  0  0  0  0  0  0  0  0  0  0  0
   58.7622   31.5294   43.7280 H   0  0  0  0  0  0  0  0  0  0  0  0
   56.4902   30.4157   42.7795 H   0  0  0  0  0  0  0  0  0  0  0  0
   58.2012   34.2385   48.3692 H   0  0  0  0  0  0  0  0  0  0  0  0
  1  2  1  0
  2  3  1  0
  3  4  2  0
  4  5  1  0
  5  6  2  0
  6  7  1  0
  7  8  1  0
  6  9  1  0
  9 10  1  0
 10 11  1  0
 11 12  1  0
 12 13  2  0
 13 14  1  0
 14 15  2  0
 15 16  1  0
 16 17  1  0
 17 18  1  0
 18 19  2  0
 18 20  1  0
 20 21  1  0
 21 22  2  0
 22 23  1  0
 23 24  2  0
 24 25  1  0
 16 26  2  0
 26 27  1  0
 27 28  1  0
 28 29  2  0
 28 30  1  0
 30 31  2  0
 31 32  1  0
 32 33  2  0
 33 34  1  0
 33 35  1  0
  9 36  2  0
 36  3  1  0
 26 12  1  0
 35 30  1  0
 25 21  1  0
  1 37  1  0
  1 38  1  0
  1 39  1  0
  4 40  1  0
  5 41  1  0
  8 42  1  0
  8 43  1  0
  8 44  1  0
 10 45  1  0
 10 46  1  0
 13 47  1  0
 14 48  1  0
 15 49  1  0
 17 50  1  0
 20 51  1  0
 20 52  1  0
 22 53  1  0
 23 54  1  0
 24 55  1  0
 31 56  1  0
 32 57  1  0
 36 58  1  0
M  CHG  3  27  -1  34  -1  35  -1
M  END
>  <UniqueID>  (91) 
81

>  <SMILES>  (91) 
COc1ccc(OC)c(COc2cccc(NC(=O)Cc3cccs3)c2[N-]C(=O)c2ccc([O-])[n-]2)c1

>  <Energy>  (91) 
117.3499990868889

>  <Genealogy>  (91) 
COc1ccc(OC)c(COc2cccc(NC(=O)Cc3cccs3)c2[N-]C(=O)c2ccc([O-])[n-]2)c1 (protonated)
COc1ccc(OC)c(COc2cccc(NC(=O)Cc3cccs3)c2[N-]C(=O)c2ccc([O-])[n-]2)c1 (3D coordinates assigned)
COc1ccc(OC)c(COc2cccc(NC(=O)Cc3cccs3)c2[N-]C(=O)c2ccc([O-])[n-]2)c1 (optimized conformer: 117.3499990868889 kcal/mol)

>  <smiles>  (91) 
COc1ccc(OC)c(COc2cccc(NC(=O)Cc3cccs3)c2NC(=O)c2ccc(O)[nH]2)c1

>  <score_type>  (91) 
oracle

>  <origin>  (91) 
adg

>  <m_score__min__energy>  (91) 
-14.220000000000001

>  <m_primary>  (91) 
energy

$$$$
91:0
     RDKit          3D

 28 29  0  0  0  0  0  0  0  0999 V2000
   58.1960   34.6540   52.7230 N   0  0  0  0  0  0  0  0  0  0  0  0
   58.3840   33.6410   52.1950 C   0  0  0  0  0  0  0  0  0  0  0  0
   58.6210   32.3780   51.5400 C   0  0  0  0  0  0  0  0  0  0  0  0
   59.8560   32.1770   50.9060 C   0  0  0  0  0  0  0  0  0  0  0  0
   60.1290   30.9700   50.2580 C   0  0  0  0  0  0  0  0  0  0  0  0
   59.1730   29.9540   50.2380 C   0  0  0  0  0  0  0  0  0  0  0  0
   57.9400   30.1420   50.8650 C   0  0  0  0  0  0  0  0  0  0  0  0
   57.6470   31.3490   51.5250 C   0  0  0  0  0  0  0  0  0  0  0  0
   56.2900   31.5000   52.1740 C   0  0  0  0  0  0  0  0  0  0  0  0
   55.3670   30.5640   51.6210 O   0  0  0  0  0  0  0  0  0  0  0  0
   54.1760   30.1930   52.2560 C   0  0  0  0  0  0  0  0  0  0  0  0
   53.9960   29.0090   52.6500 O   0  0  0  0  0  0  0  0  0  0  0  0
   53.0870   31.2030   52.4210 C   0  0  0  0  0  0  0  0  0  0  0  0
   52.2720   31.2810   51.1700 C   0  0  0  0  0  0  0  0  0  0  0  0
   52.2850   30.3480   50.2010 N   0  0  0  0  0  0  0  0  0  0  0  0
   51.3630   30.8030   49.3230 C   0  0  0  0  0  0  0  0  0  0  0  0
   51.0860   30.1940   48.2560 O   0  0  0  0  0  0  0  0  0  0  0  0
   50.7590   31.9570   49.6800 N   0  0  0  0  0  0  0  0  0  0  0  0
   51.3420   32.2420   50.8550 C   0  0  0  0  0  0  0  0  0  0  0  0
   51.0270   33.3540   51.6260 O   0  0  0  0  0  0  0  0  0  0  0  0
   60.6137   32.9743   50.9192 H   0  0  0  0  0  0  0  0  0  0  0  0
   61.0996   30.8203   49.7625 H   0  0  0  0  0  0  0  0  0  0  0  0
   59.3910   29.0042   49.7278 H   0  0  0  0  0  0  0  0  0  0  0  0
   57.1898   29.3378   50.8427 H   0  0  0  0  0  0  0  0  0  0  0  0
   56.3835   31.3210   53.2553 H   0  0  0  0  0  0  0  0  0  0  0  0
   55.9181   32.5187   51.9900 H   0  0  0  0  0  0  0  0  0  0  0  0
   52.4399   30.9079   53.2602 H   0  0  0  0  0  0  0  0  0  0  0  0
   53.5337   32.1874   52.6244 H   0  0  0  0  0  0  0  0  0  0  0  0
  1  2  3  0
  2  3  1  0
  3  4  2  0
  4  5  1  0
  5  6  2  0
  6  7  1  0
  7  8  2  0
  8  9  1  0
  9 10  1  0
 10 11  1  0
 11 12  2  0
 11 13  1  0
 13 14  1  0
 14 15  1  0
 15 16  1  0
 16 17  2  0
 16 18  1  0
 18 19  1  0
 19 20  1  0
  8  3  1  0
 19 14  2  0
  4 21  1  0
  5 22  1  0
  6 23  1  0
  7 24  1  0
  9 25  1  0
  9 26  1  0
 13 27  1  0
 13 28  1  0
M  CHG  3  15  -1  18  -1  20  -1
M  END
>  <UniqueID>  (92) 
82

>  <SMILES>  (92) 
N#Cc1ccccc1COC(=O)Cc1[n-]c(=O)[n-]c1[O-]

>  <Energy>  (92) 
54.8884711251382

>  <Genealogy>  (92) 
N#Cc1ccccc1COC(=O)Cc1[n-]c(=O)[n-]c1[O-] (protonated)
N#Cc1ccccc1COC(=O)Cc1[n-]c(=O)[n-]c1[O-] (3D coordinates assigned)
N#Cc1ccccc1COC(=O)Cc1[n-]c(=O)[n-]c1[O-] (optimized conformer: 54.8884711251382 kcal/mol)

>  <smiles>  (92) 
N#Cc1ccccc1COC(=O)Cc1[nH]c(=O)[nH]c1O

>  <score_type>  (92) 
oracle

>  <origin>  (92) 
adg

>  <m_score__min__energy>  (92) 
-15.02

>  <m_primary>  (92) 
energy

$$$$
92:0
     RDKit          3D

 60 63  0  0  0  0  0  0  0  0999 V2000
   57.4527   20.4532   42.3072 H   0  0  0  0  0  0  0  0  0  0  0  0
   56.8790   21.0940   42.9930 C   0  0  0  0  0  0  0  0  0  0  0  0
   56.2370   22.2280   42.6430 N   0  0  0  0  0  0  0  0  0  0  0  0
   55.6810   22.6660   43.7920 C   0  0  0  0  0  0  0  0  0  0  0  0
   55.0737   23.5799   43.8687 H   0  0  0  0  0  0  0  0  0  0  0  0
   55.9540   21.8570   44.8350 N   0  0  0  0  0  0  0  0  0  0  0  0
   55.5040   22.0180   46.2160 C   0  0  0  0  0  0  0  0  0  0  0  0
   55.1315   21.0511   46.5852 H   0  0  0  0  0  0  0  0  0  0  0  0
   54.7084   22.7774   46.2326 H   0  0  0  0  0  0  0  0  0  0  0  0
   56.6430   22.4950   47.1290 C   0  0  0  0  0  0  0  0  0  0  0  0
   57.5909   22.0813   46.7544 H   0  0  0  0  0  0  0  0  0  0  0  0
   56.4205   22.1451   48.1478 H   0  0  0  0  0  0  0  0  0  0  0  0
   56.7610   24.0230   47.1800 C   0  0  0  0  0  0  0  0  0  0  0  0
   57.8229   24.3029   47.2429 H   0  0  0  0  0  0  0  0  0  0  0  0
   56.2201   24.3941   48.0630 H   0  0  0  0  0  0  0  0  0  0  0  0
   56.1780   24.6160   45.9840 N   0  0  0  0  0  0  0  0  0  0  0  0
   55.5240   25.8840   45.9920 C   0  0  0  0  0  0  0  0  0  0  0  0
   54.3190   25.9570   45.6320 O   0  0  0  0  0  0  0  0  0  0  0  0
   56.2600   27.0750   46.3020 N   0  0  0  0  0  0  0  0  0  0  0  0
   56.6790   28.0160   45.5020 C   0  0  0  0  0  0  0  0  0  0  0  0
   55.7980   29.0060   45.1910 N   0  0  0  0  0  0  0  0  0  0  0  0
   56.1070   30.0370   44.3640 C   0  0  0  0  0  0  0  0  0  0  0  0
   55.3617   30.8193   44.1578 H   0  0  0  0  0  0  0  0  0  0  0  0
   57.3650   30.1040   43.7780 C   0  0  0  0  0  0  0  0  0  0  0  0
   57.6237   30.9400   43.1115 H   0  0  0  0  0  0  0  0  0  0  0  0
   58.2950   29.1020   44.0430 C   0  0  0  0  0  0  0  0  0  0  0  0
   59.2875   29.1407   43.5702 H   0  0  0  0  0  0  0  0  0  0  0  0
   57.9760   28.0380   44.9120 C   0  0  0  0  0  0  0  0  0  0  0  0
   58.8990   27.0080   45.1680 O   0  0  0  0  0  0  0  0  0  0  0  0
   60.0510   27.1050   46.0090 C   0  0  0  0  0  0  0  0  0  0  0  0
   60.1447   26.1819   46.5999 H   0  0  0  0  0  0  0  0  0  0  0  0
   60.9389   27.2462   45.3752 H   0  0  0  0  0  0  0  0  0  0  0  0
   59.9340   28.2810   46.9450 C   0  0  0  0  0  0  0  0  0  0  0  0
   59.1570   28.1790   48.1110 C   0  0  0  0  0  0  0  0  0  0  0  0
   58.6827   27.2211   48.3709 H   0  0  0  0  0  0  0  0  0  0  0  0
   58.9840   29.2890   48.9420 C   0  0  0  0  0  0  0  0  0  0  0  0
   58.3763   29.2024   49.8548 H   0  0  0  0  0  0  0  0  0  0  0  0
   59.5820   30.5090   48.6150 C   0  0  0  0  0  0  0  0  0  0  0  0
   59.4223   31.3885   49.2561 H   0  0  0  0  0  0  0  0  0  0  0  0
   60.3850   30.6130   47.4710 C   0  0  0  0  0  0  0  0  0  0  0  0
   60.9750   31.9070   47.0990 C   0  0  0  0  0  0  0  0  0  0  0  0
   62.2120   32.0840   47.2790 O   0  0  0  0  0  0  0  0  0  0  0  0
   60.1630   32.9560   46.5340 N   0  0  0  0  0  0  0  0  0  0  0  0
   58.9990   32.6050   45.7070 C   0  0  0  0  0  0  0  0  0  0  0  0
   59.3427   32.3215   44.7013 H   0  0  0  0  0  0  0  0  0  0  0  0
   58.4692   31.7649   46.1798 H   0  0  0  0  0  0  0  0  0  0  0  0
   58.0380   33.7930   45.5940 C   0  0  0  0  0  0  0  0  0  0  0  0
   57.2696   33.5633   44.8411 H   0  0  0  0  0  0  0  0  0  0  0  0
   57.5763   33.9639   46.5777 H   0  0  0  0  0  0  0  0  0  0  0  0
   58.7240   34.9670   45.2100 O   0  0  0  0  0  0  0  0  0  0  0  0
   59.6200   35.3440   46.2370 C   0  0  0  0  0  0  0  0  0  0  0  0
   60.0703   36.3152   45.9839 H   0  0  0  0  0  0  0  0  0  0  0  0
   59.0623   35.4148   47.1825 H   0  0  0  0  0  0  0  0  0  0  0  0
   60.7320   34.3020   46.4000 C   0  0  0  0  0  0  0  0  0  0  0  0
   61.3871   34.3313   45.5168 H   0  0  0  0  0  0  0  0  0  0  0  0
   61.3069   34.5360   47.3082 H   0  0  0  0  0  0  0  0  0  0  0  0
   60.5750   29.4950   46.6490 C   0  0  0  0  0  0  0  0  0  0  0  0
   61.2292   29.5682   45.7677 H   0  0  0  0  0  0  0  0  0  0  0  0
   56.7070   20.8610   44.3380 C   0  0  0  0  0  0  0  0  0  0  0  0
   57.1135   20.0109   44.9055 H   0  0  0  0  0  0  0  0  0  0  0  0
  1  2  1  0
  2  3  1  0
  3  4  2  0
  4  5  1  0
  4  6  1  0
  6  7  1  0
  7  8  1  0
  7  9  1  0
  7 10  1  0
 10 11  1  0
 10 12  1  0
 10 13  1  0
 13 14  1  0
 13 15  1  0
 13 16  1  0
 16 17  1  0
 17 18  2  0
 17 19  1  0
 19 20  2  0
 20 21  1  0
 21 22  1  0
 22 23  1  0
 22 24  2  0
 24 25  1  0
 24 26  1  0
 26 27  1  0
 26 28  2  0
 28 29  1  0
 29 30  1  0
 30 31  1  0
 30 32  1  0
 30 33  1  0
 33 34  2  0
 34 35  1  0
 34 36  1  0
 36 37  1  0
 36 38  2  0
 38 39  1  0
 38 40  1  0
 40 41  1  0
 41 42  2  0
 41 43  1  0
 43 44  1  0
 44 45  1  0
 44 46  1  0
 44 47  1  0
 47 48  1  0
 47 49  1  0
 47 50  1  0
 50 51  1  0
 51 52  1  0
 51 53  1  0
 51 54  1  0
 54 55  1  0
 54 56  1  0
 40 57  2  0
 57 58  1  0
  6 59  1  0
 59 60  1  0
 59  2  2  0
 28 20  1  0
 57 33  1  0
 54 43  1  0
M  CHG  2  16  -1  21  -1
M  END
>  <UniqueID>  (93) 
83

>  <SMILES>  (93) 
O=C(/N=c1/[n-]cccc1OCc1cccc(C(=O)N2CCOCC2)c1)[N-]CCCn1ccnc1

>  <Energy>  (93) 
104.34310575001874

>  <Genealogy>  (93) 
O=C(N=c1[n-]cccc1OCc1cccc(C(=O)N2CCOCC2)c1)[N-]CCCn1ccnc1 (protonated)
O=C(/N=c1/[n-]cccc1OCc1cccc(C(=O)N2CCOCC2)c1)[N-]CCCn1ccnc1 (cis-trans isomerization)
O=C(/N=c1/[n-]cccc1OCc1cccc(C(=O)N2CCOCC2)c1)[N-]CCCn1ccnc1 (3D coordinates assigned)
O=C(/N=c1/[n-]cccc1OCc1cccc(C(=O)N2CCOCC2)c1)[N-]CCCn1ccnc1 (nonaromatic ring conformer: 104.34310575001874 kcal/mol)

>  <smiles>  (93) 
O=C(N=c1[nH]cccc1OCc1cccc(C(=O)N2CCOCC2)c1)NCCCn1ccnc1

>  <score_type>  (93) 
oracle

>  <origin>  (93) 
adg

>  <m_score__min__energy>  (93) 
-12.42

>  <m_primary>  (93) 
energy

$$$$
