0:0
     RDKit          3D

 44 47  0  0  0  0  0  0  0  0999 V2000
   60.7990   26.7050   48.3620 N   0  0  0  0  0  0  0  0  0  0  0  0
   60.6690   26.7140   46.9420 C   0  0  0  0  0  0  0  0  0  0  0  0
   61.4620   26.0170   46.2540 O   0  0  0  0  0  0  0  0  0  0  0  0
   59.6190   27.5250   46.2730 C   0  0  0  0  0  0  0  0  0  0  0  0
   59.9880   28.4970   45.3230 C   0  0  0  0  0  0  0  0  0  0  0  0
   59.0190   29.2670   44.6760 C   0  0  0  0  0  0  0  0  0  0  0  0
   57.6630   29.0800   44.9650 C   0  0  0  0  0  0  0  0  0  0  0  0
   56.4300   30.0210   44.1290 S   0  0  0  0  0  0  0  0  0  0  0  0
   56.8260   30.1680   42.6870 O   0  0  0  0  0  0  0  0  0  0  0  0
   55.0910   29.3430   44.2090 O   0  0  0  0  0  0  0  0  0  0  0  0
   56.3200   31.5900   44.8540 N   0  0  0  0  0  0  0  0  0  0  0  0
   57.4480   32.3980   45.2180 C   0  0  0  0  0  0  0  0  0  0  0  0
   57.7970   33.5510   44.4960 C   0  0  0  0  0  0  0  0  0  0  0  0
   58.8880   34.3260   44.8930 C   0  0  0  0  0  0  0  0  0  0  0  0
   59.6290   33.9740   46.0220 C   0  0  0  0  0  0  0  0  0  0  0  0
   60.6630   34.7650   46.4080 F   0  0  0  0  0  0  0  0  0  0  0  0
   59.2830   32.8310   46.7650 C   0  0  0  0  0  0  0  0  0  0  0  0
   60.0390   32.4850   47.9870 C   0  0  0  0  0  0  0  0  0  0  0  0
   60.9980   33.2180   48.3450 O   0  0  0  0  0  0  0  0  0  0  0  0
   59.7090   31.2950   48.7970 C   0  0  0  0  0  0  0  0  0  0  0  0
   60.2340   30.0160   48.6160 C   0  0  0  0  0  0  0  0  0  0  0  0
   59.7120   29.1530   49.5180 N   0  0  0  0  0  0  0  0  0  0  0  0
   58.8740   29.8820   50.2720 C   0  0  0  0  0  0  0  0  0  0  0  0
   58.1480   29.4250   51.3210 N   0  0  0  0  0  0  0  0  0  0  0  0
   57.3580   30.2990   52.0130 C   0  0  0  0  0  0  0  0  0  0  0  0
   57.3120   31.6640   51.6540 C   0  0  0  0  0  0  0  0  0  0  0  0
   58.0770   32.1280   50.5690 C   0  0  0  0  0  0  0  0  0  0  0  0
   58.8460   31.1930   49.8770 C   0  0  0  0  0  0  0  0  0  0  0  0
   58.2080   32.0290   46.3350 C   0  0  0  0  0  0  0  0  0  0  0  0
   57.8860   30.8940   47.0090 F   0  0  0  0  0  0  0  0  0  0  0  0
   57.2840   28.1240   45.9120 C   0  0  0  0  0  0  0  0  0  0  0  0
   58.2480   27.3490   46.5630 C   0  0  0  0  0  0  0  0  0  0  0  0
   57.8300   26.4360   47.4760 F   0  0  0  0  0  0  0  0  0  0  0  0
   60.3210   25.9790   48.9400 H   0  0  0  0  0  0  0  0  0  0  0  0
   61.0514   28.6515   45.0879 H   0  0  0  0  0  0  0  0  0  0  0  0
   59.3229   30.0229   43.9369 H   0  0  0  0  0  0  0  0  0  0  0  0
   57.2084   33.8445   43.6143 H   0  0  0  0  0  0  0  0  0  0  0  0
   59.1651   35.2187   44.3130 H   0  0  0  0  0  0  0  0  0  0  0  0
   60.9713   29.7457   47.8457 H   0  0  0  0  0  0  0  0  0  0  0  0
   59.9220   28.1360   49.6100 H   0  0  0  0  0  0  0  0  0  0  0  0
   56.7527   29.9363   52.8569 H   0  0  0  0  0  0  0  0  0  0  0  0
   56.6795   32.3625   52.2215 H   0  0  0  0  0  0  0  0  0  0  0  0
   58.0690   33.1886   50.2772 H   0  0  0  0  0  0  0  0  0  0  0  0
   56.2189   27.9806   46.1466 H   0  0  0  0  0  0  0  0  0  0  0  0
  1  2  1  0
  2  3  2  0
  2  4  1  0
  4  5  2  0
  5  6  1  0
  6  7  2  0
  7  8  1  0
  8  9  2  0
  8 10  2  0
  8 11  1  0
 11 12  1  0
 12 13  2  0
 13 14  1  0
 14 15  2  0
 15 16  1  0
 15 17  1  0
 17 18  1  0
 18 19  2  0
 18 20  1  0
 20 21  2  0
 21 22  1  0
 22 23  1  0
 23 24  2  0
 24 25  1  0
 25 26  2  0
 26 27  1  0
 27 28  2  0
 17 29  2  0
 29 30  1  0
  7 31  1  0
 31 32  2  0
 32 33  1  0
 32  4  1  0
 29 12  1  0
 28 20  1  0
 28 23  1  0
  1 34  1  0
  5 35  1  0
  6 36  1  0
 13 37  1  0
 14 38  1  0
 21 39  1  0
 22 40  1  0
 25 41  1  0
 26 42  1  0
 27 43  1  0
 31 44  1  0
M  CHG  2   1  -1  11  -1
M  END
>  <UniqueID>  (1) 
1

>  <SMILES>  (1) 
[NH-]C(=O)c1ccc(S(=O)(=O)[N-]c2ccc(F)c(C(=O)c3c[nH]c4ncccc34)c2F)cc1F

>  <Energy>  (1) 
95.25751145864427

>  <Genealogy>  (1) 
[NH-]C(=O)c1ccc(S(=O)(=O)[N-]c2ccc(F)c(C(=O)c3c[nH]c4ncccc34)c2F)cc1F (protonated)
[NH-]C(=O)c1ccc(S(=O)(=O)[N-]c2ccc(F)c(C(=O)c3c[nH]c4ncccc34)c2F)cc1F (3D coordinates assigned)
[NH-]C(=O)c1ccc(S(=O)(=O)[N-]c2ccc(F)c(C(=O)c3c[nH]c4ncccc34)c2F)cc1F (optimized conformer: 95.25751145864427 kcal/mol)

>  <smiles>  (1) 
NC(=O)c1ccc(S(=O)(=O)Nc2ccc(F)c(C(=O)c3c[nH]c4ncccc34)c2F)cc1F

>  <score_type>  (1) 
oracle

>  <origin>  (1) 
adg

>  <m_score__min__energy>  (1) 
-13.390000000000001

>  <m_primary>  (1) 
energy

$$$$
1:0
     RDKit          3D

 51 54  0  0  1  0  0  0  0  0999 V2000
   56.9070   28.2130   45.3930 C   0  0  0  0  0  0  0  0  0  0  0  0
   56.0860   29.3380   45.2400 O   0  0  0  0  0  0  0  0  0  0  0  0
   56.0640   30.0860   44.0690 C   0  0  0  0  0  0  0  0  0  0  0  0
   55.5110   29.6780   43.0300 O   0  0  0  0  0  0  0  0  0  0  0  0
   56.7530   31.4220   44.1290 C   0  0  2  0  0  0  0  0  0  0  0  0
   58.0940   31.2030   43.4210 C   0  0  0  0  0  0  0  0  0  0  0  0
   58.8770   30.4910   44.5010 C   0  0  0  0  0  0  0  0  0  0  0  0
   58.3950   31.2290   45.7570 C   0  0  0  0  0  0  0  0  0  0  0  0
   57.1210   31.7800   45.4540 N   0  0  0  0  0  0  0  0  0  0  0  0
   57.0300   33.1750   45.7130 C   0  0  0  0  0  0  0  0  0  0  0  0
   58.3450   33.6190   46.2390 C   0  0  0  0  0  0  0  0  0  0  0  0
   59.3800   34.3010   45.6760 C   0  0  0  0  0  0  0  0  0  0  0  0
   60.3880   34.4690   46.5900 N   0  0  0  0  0  0  0  0  0  0  0  0
   59.9470   33.8850   47.7050 C   0  0  0  0  0  0  0  0  0  0  0  0
   60.5660   33.7450   49.0010 N   0  0  0  0  0  0  0  0  0  0  0  0
   61.9590   33.3630   49.1290 C   0  0  0  0  0  0  0  0  0  0  0  0
   59.7050   34.0300   50.1290 C   0  0  0  0  0  0  0  0  0  0  0  0
   58.9900   32.8390   50.6430 C   0  0  0  0  0  0  0  0  0  0  0  0
   59.2740   31.6370   49.9770 C   0  0  0  0  0  0  0  0  0  0  0  0
   58.6890   30.4500   50.3350 C   0  0  0  0  0  0  0  0  0  0  0  0
   57.7990   30.4850   51.3920 C   0  0  0  0  0  0  0  0  0  0  0  0
   57.4850   31.6370   52.0780 C   0  0  0  0  0  0  0  0  0  0  0  0
   58.1080   32.8230   51.6740 C   0  0  0  0  0  0  0  0  0  0  0  0
   56.5770   31.3270   53.0630 O   0  0  0  0  0  0  0  0  0  0  0  0
   56.2700   29.9440   52.9820 C   0  0  0  0  0  0  0  0  0  0  0  0
   57.0790   29.4390   51.9480 O   0  0  0  0  0  0  0  0  0  0  0  0
   58.7090   33.3620   47.5130 N   0  0  0  0  0  0  0  0  0  0  0  0
   57.0551   28.0101   46.4639 H   0  0  0  0  0  0  0  0  0  0  0  0
   56.4297   27.3434   44.9176 H   0  0  0  0  0  0  0  0  0  0  0  0
   57.8807   28.4023   44.9176 H   0  0  0  0  0  0  0  0  0  0  0  0
   56.0876   32.1886   43.7054 H   0  0  0  0  0  0  0  0  0  0  0  0
   57.9799   30.5758   42.5245 H   0  0  0  0  0  0  0  0  0  0  0  0
   58.5670   32.1243   43.0503 H   0  0  0  0  0  0  0  0  0  0  0  0
   58.6260   29.4208   44.5414 H   0  0  0  0  0  0  0  0  0  0  0  0
   59.9672   30.5127   44.3560 H   0  0  0  0  0  0  0  0  0  0  0  0
   58.3117   30.5262   46.5991 H   0  0  0  0  0  0  0  0  0  0  0  0
   59.1050   32.0185   46.0442 H   0  0  0  0  0  0  0  0  0  0  0  0
   56.7958   33.7148   44.7836 H   0  0  0  0  0  0  0  0  0  0  0  0
   56.2320   33.3821   46.4413 H   0  0  0  0  0  0  0  0  0  0  0  0
   59.4041   34.6646   44.6381 H   0  0  0  0  0  0  0  0  0  0  0  0
   61.2930   34.9460   46.4560 H   0  0  0  0  0  0  0  0  0  0  0  0
   62.2229   33.2906   50.1944 H   0  0  0  0  0  0  0  0  0  0  0  0
   62.1178   32.3881   48.6448 H   0  0  0  0  0  0  0  0  0  0  0  0
   62.5929   34.1205   48.6448 H   0  0  0  0  0  0  0  0  0  0  0  0
   60.3208   34.4437   50.9412 H   0  0  0  0  0  0  0  0  0  0  0  0
   58.9409   34.7406   49.7810 H   0  0  0  0  0  0  0  0  0  0  0  0
   59.9888   31.6475   49.1410 H   0  0  0  0  0  0  0  0  0  0  0  0
   58.9173   29.5132   49.8056 H   0  0  0  0  0  0  0  0  0  0  0  0
   57.8784   33.7602   52.2022 H   0  0  0  0  0  0  0  0  0  0  0  0
   56.5034   29.4421   53.9326 H   0  0  0  0  0  0  0  0  0  0  0  0
   55.2014   29.7743   52.7838 H   0  0  0  0  0  0  0  0  0  0  0  0
  1  2  1  0
  2  3  1  0
  3  4  2  0
  3  5  1  0
  5  6  1  0
  6  7  1  0
  7  8  1  0
  8  9  1  0
  9 10  1  0
 10 11  1  0
 11 12  2  0
 12 13  1  0
 13 14  1  0
 14 15  1  0
 15 16  1  0
 15 17  1  0
 17 18  1  0
 18 19  2  0
 19 20  1  0
 20 21  2  0
 21 22  1  0
 22 23  2  0
 22 24  1  0
 24 25  1  0
 25 26  1  0
 14 27  2  0
  9  5  1  0
 27 11  1  0
 23 18  1  0
 26 21  1  0
  1 28  1  0
  1 29  1  0
  1 30  1  0
  5 31  1  6
  6 32  1  0
  6 33  1  0
  7 34  1  0
  7 35  1  0
  8 36  1  0
  8 37  1  0
 10 38  1  0
 10 39  1  0
 12 40  1  0
 13 41  1  0
 16 42  1  0
 16 43  1  0
 16 44  1  0
 17 45  1  0
 17 46  1  0
 19 47  1  0
 20 48  1  0
 23 49  1  0
 25 50  1  0
 25 51  1  0
M  END
>  <smiles>  (2) 
COC(=O)C1CCCN1Cc1c[nH]c(N(C)Cc2ccc3c(c2)OCO3)n1

>  <score_type>  (2) 
oracle

>  <origin>  (2) 
adg

>  <m_score__min__energy>  (2) 
-7.75

>  <m_primary>  (2) 
energy

$$$$
2:0
     RDKit          3D

 39 40  0  0  0  0  0  0  0  0999 V2000
   54.7710   24.4980   47.3210 H   0  0  0  0  0  0  0  0  0  0  0  0
   54.6890   24.7330   46.3390 O   0  0  0  0  0  0  0  0  0  0  0  0
   55.7860   25.1680   45.5990 C   0  0  0  0  0  0  0  0  0  0  0  0
   56.3270   24.3650   44.5870 C   0  0  0  0  0  0  0  0  0  0  0  0
   55.8863   23.3802   44.3726 H   0  0  0  0  0  0  0  0  0  0  0  0
   57.4250   24.8130   43.8500 C   0  0  0  0  0  0  0  0  0  0  0  0
   57.8466   24.1816   43.0540 H   0  0  0  0  0  0  0  0  0  0  0  0
   57.9890   26.0620   44.1220 C   0  0  0  0  0  0  0  0  0  0  0  0
   58.8543   26.4096   43.5386 H   0  0  0  0  0  0  0  0  0  0  0  0
   57.4580   26.8770   45.1360 C   0  0  0  0  0  0  0  0  0  0  0  0
   58.0010   28.1920   45.3750 N   0  0  0  0  0  0  0  0  0  0  0  0
   57.7820   29.2770   44.4110 C   0  0  0  0  0  0  0  0  0  0  0  0
   57.8633   28.8777   43.3892 H   0  0  0  0  0  0  0  0  0  0  0  0
   58.5406   30.0577   44.5693 H   0  0  0  0  0  0  0  0  0  0  0  0
   56.4210   29.8700   44.6040 C   0  0  0  0  0  0  0  0  0  0  0  0
   55.4400   29.1240   44.8710 O   0  0  0  0  0  0  0  0  0  0  0  0
   56.2510   31.2900   44.5070 N   0  0  0  0  0  0  0  0  0  0  0  0
   57.1070   32.2000   44.8770 C   0  0  0  0  0  0  0  0  0  0  0  0
   57.1360   32.5690   46.1860 N   0  0  0  0  0  0  0  0  0  0  0  0
   58.0170   33.4850   46.6660 C   0  0  0  0  0  0  0  0  0  0  0  0
   58.0021   33.7538   47.7326 H   0  0  0  0  0  0  0  0  0  0  0  0
   58.9440   34.0880   45.8070 C   0  0  0  0  0  0  0  0  0  0  0  0
   59.9540   35.0600   46.3390 C   0  0  0  0  0  0  0  0  0  0  0  0
   59.9358   35.0425   47.4387 H   0  0  0  0  0  0  0  0  0  0  0  0
   60.9564   34.7782   45.9843 H   0  0  0  0  0  0  0  0  0  0  0  0
   59.7108   36.0724   45.9843 H   0  0  0  0  0  0  0  0  0  0  0  0
   58.9590   33.7070   44.4600 C   0  0  0  0  0  0  0  0  0  0  0  0
   59.6973   34.1474   43.7738 H   0  0  0  0  0  0  0  0  0  0  0  0
   58.0400   32.7700   43.9850 C   0  0  0  0  0  0  0  0  0  0  0  0
   58.0430   32.4784   42.9244 H   0  0  0  0  0  0  0  0  0  0  0  0
   59.0290   28.4840   46.7470 S   0  0  0  0  0  0  0  0  0  0  0  0
   60.3210   27.7330   46.5920 O   0  0  0  0  0  0  0  0  0  0  0  0
   58.3430   28.0050   47.9950 O   0  0  0  0  0  0  0  0  0  0  0  0
   59.3660   30.2250   46.8830 C   0  0  0  0  0  0  0  0  0  0  0  0
   59.4204   30.5061   47.9451 H   0  0  0  0  0  0  0  0  0  0  0  0
   60.3248   30.4522   46.3940 H   0  0  0  0  0  0  0  0  0  0  0  0
   58.5612   30.7935   46.3940 H   0  0  0  0  0  0  0  0  0  0  0  0
   56.3490   26.4200   45.8700 C   0  0  0  0  0  0  0  0  0  0  0  0
   55.9211   27.0512   46.6628 H   0  0  0  0  0  0  0  0  0  0  0  0
  1  2  1  0
  2  3  1  0
  3  4  2  0
  4  5  1  0
  4  6  1  0
  6  7  1  0
  6  8  2  0
  8  9  1  0
  8 10  1  0
 10 11  1  0
 11 12  1  0
 12 13  1  0
 12 14  1  0
 12 15  1  0
 15 16  2  0
 15 17  1  0
 17 18  2  0
 18 19  1  0
 19 20  1  0
 20 21  1  0
 20 22  2  0
 22 23  1  0
 23 24  1  0
 23 25  1  0
 23 26  1  0
 22 27  1  0
 27 28  1  0
 27 29  2  0
 29 30  1  0
 11 31  1  0
 31 32  2  0
 31 33  2  0
 31 34  1  0
 34 35  1  0
 34 36  1  0
 34 37  1  0
 10 38  2  0
 38 39  1  0
 38  3  1  0
 29 18  1  0
M  CHG  1  19  -1
M  END
>  <UniqueID>  (3) 
2

>  <SMILES>  (3) 
Cc1cc/c(=N\C(=O)CN(c2cccc(O)c2)S(C)(=O)=O)[n-]c1

>  <Energy>  (3) 
43.578370461524756

>  <Genealogy>  (3) 
Cc1ccc(=NC(=O)CN(c2cccc(O)c2)S(C)(=O)=O)[n-]c1 (protonated)
Cc1cc/c(=N\C(=O)CN(c2cccc(O)c2)S(C)(=O)=O)[n-]c1 (cis-trans isomerization)
Cc1cc/c(=N\C(=O)CN(c2cccc(O)c2)S(C)(=O)=O)[n-]c1 (3D coordinates assigned)
Cc1cc/c(=N\C(=O)CN(c2cccc(O)c2)S(C)(=O)=O)[n-]c1 (optimized conformer: 43.578370461524756 kcal/mol)

>  <smiles>  (3) 
Cc1ccc(=NC(=O)CN(c2cccc(O)c2)S(C)(=O)=O)[nH]c1

>  <score_type>  (3) 
oracle

>  <origin>  (3) 
adg

>  <m_score__min__energy>  (3) 
-9.7300000000000004

>  <m_primary>  (3) 
energy

$$$$
3:0
     RDKit          3D

 31 33  0  0  0  0  0  0  0  0999 V2000
   55.1470   27.7130   45.2530 H   0  0  0  0  0  0  0  0  0  0  0  0
   55.7090   28.5420   45.1080 O   0  0  0  0  0  0  0  0  0  0  0  0
   57.0850   28.5740   45.3380 C   0  0  0  0  0  0  0  0  0  0  0  0
   57.6470   29.7370   45.8770 C   0  0  0  0  0  0  0  0  0  0  0  0
   57.0001   30.5918   46.1239 H   0  0  0  0  0  0  0  0  0  0  0  0
   59.0230   29.8210   46.1040 C   0  0  0  0  0  0  0  0  0  0  0  0
   59.4550   30.7369   46.5336 H   0  0  0  0  0  0  0  0  0  0  0  0
   59.8500   28.7410   45.7850 C   0  0  0  0  0  0  0  0  0  0  0  0
   60.9343   28.8100   45.9570 H   0  0  0  0  0  0  0  0  0  0  0  0
   59.3020   27.5740   45.2480 C   0  0  0  0  0  0  0  0  0  0  0  0
   59.9587   26.7311   44.9868 H   0  0  0  0  0  0  0  0  0  0  0  0
   57.9190   27.4710   45.0400 C   0  0  0  0  0  0  0  0  0  0  0  0
   57.3820   26.2290   44.4630 C   0  0  0  0  0  0  0  0  0  0  0  0
   57.4203   26.1076   43.3704 H   0  0  0  0  0  0  0  0  0  0  0  0
   56.8480   25.2350   45.1900 C   0  0  0  0  0  0  0  0  0  0  0  0
   55.6070   25.3170   45.9600 C   0  0  0  0  0  0  0  0  0  0  0  0
   54.8550   26.3270   46.0140 O   0  0  0  0  0  0  0  0  0  0  0  0
   55.3370   24.1120   46.6710 N   0  0  0  0  0  0  0  0  0  0  0  0
   56.4280   23.2690   46.3120 C   0  0  0  0  0  0  0  0  0  0  0  0
   56.5940   21.9490   46.7290 C   0  0  0  0  0  0  0  0  0  0  0  0
   55.8717   21.4838   47.4159 H   0  0  0  0  0  0  0  0  0  0  0  0
   57.7030   21.2220   46.2550 C   0  0  0  0  0  0  0  0  0  0  0  0
   57.8890   19.7890   46.6530 C   0  0  0  0  0  0  0  0  0  0  0  0
   57.8991   19.7115   47.7502 H   0  0  0  0  0  0  0  0  0  0  0  0
   57.0616   19.1863   46.2504 H   0  0  0  0  0  0  0  0  0  0  0  0
   58.8429   19.4175   46.2504 H   0  0  0  0  0  0  0  0  0  0  0  0
   58.5950   21.8240   45.3400 C   0  0  0  0  0  0  0  0  0  0  0  0
   59.4444   21.2456   44.9475 H   0  0  0  0  0  0  0  0  0  0  0  0
   58.4090   23.1530   44.9260 C   0  0  0  0  0  0  0  0  0  0  0  0
   59.0991   23.6195   44.2076 H   0  0  0  0  0  0  0  0  0  0  0  0
   57.3270   23.8710   45.4470 C   0  0  0  0  0  0  0  0  0  0  0  0
  1  2  1  0
  2  3  1  0
  3  4  2  0
  4  5  1  0
  4  6  1  0
  6  7  1  0
  6  8  2  0
  8  9  1  0
  8 10  1  0
 10 11  1  0
 10 12  2  0
 12 13  1  0
 13 14  1  0
 13 15  2  0
 15 16  1  0
 16 17  2  0
 16 18  1  0
 18 19  1  0
 19 20  2  0
 20 21  1  0
 20 22  1  0
 22 23  1  0
 23 24  1  0
 23 25  1  0
 23 26  1  0
 22 27  2  0
 27 28  1  0
 27 29  1  0
 29 30  1  0
 29 31  2  0
 12  3  1  0
 31 15  1  0
 31 19  1  0
M  CHG  1  18  -1
M  END
>  <UniqueID>  (4) 
3

>  <SMILES>  (4) 
Cc1ccc2c(c1)[N-]C(=O)/C2=C/c1ccccc1O

>  <Energy>  (4) 
70.66752258289829

>  <Genealogy>  (4) 
Cc1ccc2c(c1)[N-]C(=O)C2=Cc1ccccc1O (protonated)
Cc1ccc2c(c1)[N-]C(=O)/C2=C/c1ccccc1O (cis-trans isomerization)
Cc1ccc2c(c1)[N-]C(=O)/C2=C/c1ccccc1O (3D coordinates assigned)
Cc1ccc2c(c1)[N-]C(=O)/C2=C/c1ccccc1O (nonaromatic ring conformer: 70.66752258289829 kcal/mol)

>  <smiles>  (4) 
Cc1ccc2c(c1)NC(=O)C2=Cc1ccccc1O

>  <score_type>  (4) 
oracle

>  <origin>  (4) 
adg

>  <m_score__min__energy>  (4) 
-9.9000000000000004

>  <m_primary>  (4) 
energy

$$$$
4:0
     RDKit          3D

 36 38  0  0  0  0  0  0  0  0999 V2000
   57.4330   32.7390   43.2610 O   0  0  0  0  0  0  0  0  0  0  0  0
   57.5710   32.4240   44.4740 C   0  0  0  0  0  0  0  0  0  0  0  0
   56.9900   31.1970   44.9330 N   0  0  0  0  0  0  0  0  0  0  0  0
   57.7080   30.0120   45.3070 C   0  0  0  0  0  0  0  0  0  0  0  0
   58.7970   30.0590   46.1950 C   0  0  0  0  0  0  0  0  0  0  0  0
   59.4790   28.8880   46.5330 C   0  0  0  0  0  0  0  0  0  0  0  0
   59.0920   27.6660   45.9790 C   0  0  0  0  0  0  0  0  0  0  0  0
   58.0230   27.6070   45.0700 C   0  0  0  0  0  0  0  0  0  0  0  0
   57.5830   26.2860   44.4970 C   0  0  0  0  0  0  0  0  0  0  0  0
   57.1210   25.3580   45.5990 C   0  0  0  0  0  0  0  0  0  0  0  0
   55.9320   25.6090   46.3080 C   0  0  0  0  0  0  0  0  0  0  0  0
   55.1270   26.6970   45.9880 O   0  0  0  0  0  0  0  0  0  0  0  0
   55.5550   24.7820   47.3170 N   0  0  0  0  0  0  0  0  0  0  0  0
   56.3090   23.7100   47.6650 C   0  0  0  0  0  0  0  0  0  0  0  0
   55.9390   22.9590   48.6040 O   0  0  0  0  0  0  0  0  0  0  0  0
   57.4640   23.4480   47.0030 N   0  0  0  0  0  0  0  0  0  0  0  0
   57.8870   24.2420   45.9860 C   0  0  0  0  0  0  0  0  0  0  0  0
   58.9660   23.9650   45.3970 O   0  0  0  0  0  0  0  0  0  0  0  0
   57.3390   28.7880   44.7350 C   0  0  0  0  0  0  0  0  0  0  0  0
   58.2780   33.3510   45.3890 C   0  0  0  0  0  0  0  0  0  0  0  0
   58.2290   33.1660   46.7830 C   0  0  0  0  0  0  0  0  0  0  0  0
   58.8960   34.0490   47.6380 C   0  0  0  0  0  0  0  0  0  0  0  0
   59.6090   35.1300   47.1110 C   0  0  0  0  0  0  0  0  0  0  0  0
   59.6510   35.3320   45.7300 C   0  0  0  0  0  0  0  0  0  0  0  0
   58.9850   34.4520   44.8720 C   0  0  0  0  0  0  0  0  0  0  0  0
   59.1128   31.0210   46.6249 H   0  0  0  0  0  0  0  0  0  0  0  0
   60.3230   28.9284   47.2373 H   0  0  0  0  0  0  0  0  0  0  0  0
   59.6268   26.7455   46.2558 H   0  0  0  0  0  0  0  0  0  0  0  0
   56.7537   26.4545   43.7942 H   0  0  0  0  0  0  0  0  0  0  0  0
   58.4339   25.8233   43.9756 H   0  0  0  0  0  0  0  0  0  0  0  0
   56.5064   28.7508   44.0171 H   0  0  0  0  0  0  0  0  0  0  0  0
   57.6626   32.3217   47.2028 H   0  0  0  0  0  0  0  0  0  0  0  0
   58.8596   33.8929   48.7263 H   0  0  0  0  0  0  0  0  0  0  0  0
   60.1369   35.8214   47.7843 H   0  0  0  0  0  0  0  0  0  0  0  0
   60.2091   36.1850   45.3165 H   0  0  0  0  0  0  0  0  0  0  0  0
   59.0139   34.6215   43.7855 H   0  0  0  0  0  0  0  0  0  0  0  0
  1  2  2  0
  2  3  1  0
  3  4  1  0
  4  5  2  0
  5  6  1  0
  6  7  2  0
  7  8  1  0
  8  9  1  0
  9 10  1  0
 10 11  2  0
 11 12  1  0
 11 13  1  0
 13 14  1  0
 14 15  2  0
 14 16  1  0
 16 17  1  0
 17 18  2  0
  8 19  2  0
  2 20  1  0
 20 21  2  0
 21 22  1  0
 22 23  2  0
 23 24  1  0
 24 25  2  0
 19  4  1  0
 25 20  1  0
 17 10  1  0
  5 26  1  0
  6 27  1  0
  7 28  1  0
  9 29  1  0
  9 30  1  0
 19 31  1  0
 21 32  1  0
 22 33  1  0
 23 34  1  0
 24 35  1  0
 25 36  1  0
M  CHG  4   3  -1  12  -1  13  -1  16  -1
M  END
>  <UniqueID>  (5) 
4

>  <SMILES>  (5) 
O=C([N-]c1cccc(Cc2c([O-])[n-]c(=O)[n-]c2=O)c1)c1ccccc1

>  <Energy>  (5) 
47.503957691406846

>  <Genealogy>  (5) 
O=C([N-]c1cccc(Cc2c([O-])[n-]c(=O)[n-]c2=O)c1)c1ccccc1 (protonated)
O=C([N-]c1cccc(Cc2c([O-])[n-]c(=O)[n-]c2=O)c1)c1ccccc1 (3D coordinates assigned)
O=C([N-]c1cccc(Cc2c([O-])[n-]c(=O)[n-]c2=O)c1)c1ccccc1 (optimized conformer: 47.503957691406846 kcal/mol)

>  <smiles>  (5) 
O=C(Nc1cccc(Cc2c(O)[nH]c(=O)[nH]c2=O)c1)c1ccccc1

>  <score_type>  (5) 
oracle

>  <origin>  (5) 
adg

>  <m_score__min__energy>  (5) 
-17.239999999999998

>  <m_primary>  (5) 
energy

$$$$
5:0
     RDKit          3D

 32 33  0  0  0  0  0  0  0  0999 V2000
   56.9000   29.1340   42.9220 N   0  0  0  0  0  0  0  0  0  0  0  0
   56.3450   29.5630   44.5050 S   0  0  0  0  0  0  0  0  0  0  0  0
   55.9230   28.3250   45.2430 O   0  0  0  0  0  0  0  0  0  0  0  0
   55.1680   30.4890   44.3830 O   0  0  0  0  0  0  0  0  0  0  0  0
   57.6050   30.3620   45.3910 N   0  0  0  0  0  0  0  0  0  0  0  0
   58.1480   29.4950   46.4360 C   0  0  0  0  0  0  0  0  0  0  0  0
   59.6750   29.6190   46.4720 C   0  0  0  0  0  0  0  0  0  0  0  0
   60.3650   28.5900   45.5660 C   0  0  0  0  0  0  0  0  0  0  0  0
   59.3740   27.7090   44.8720 C   0  0  0  0  0  0  0  0  0  0  0  0
   58.7160   26.6950   45.4670 N   0  0  0  0  0  0  0  0  0  0  0  0
   57.9600   26.2320   44.4490 C   0  0  0  0  0  0  0  0  0  0  0  0
   57.0100   25.1070   44.5710 C   0  0  0  0  0  0  0  0  0  0  0  0
   57.1320   23.9770   43.7400 C   0  0  0  0  0  0  0  0  0  0  0  0
   56.2490   22.9010   43.8770 C   0  0  0  0  0  0  0  0  0  0  0  0
   55.2340   22.9460   44.8370 C   0  0  0  0  0  0  0  0  0  0  0  0
   55.0980   24.0680   45.6600 C   0  0  0  0  0  0  0  0  0  0  0  0
   55.9820   25.1450   45.5320 C   0  0  0  0  0  0  0  0  0  0  0  0
   58.1530   26.9300   43.3110 N   0  0  0  0  0  0  0  0  0  0  0  0
   59.0320   27.8350   43.6150 O   0  0  0  0  0  0  0  0  0  0  0  0
   56.9290   28.0890   42.8780 H   0  0  0  0  0  0  0  0  0  0  0  0
   57.8870   29.4620   42.8450 H   0  0  0  0  0  0  0  0  0  0  0  0
   57.7343   29.7943   47.4103 H   0  0  0  0  0  0  0  0  0  0  0  0
   57.8733   28.4517   46.2213 H   0  0  0  0  0  0  0  0  0  0  0  0
   59.9558   30.6288   46.1381 H   0  0  0  0  0  0  0  0  0  0  0  0
   60.0034   29.4314   47.5049 H   0  0  0  0  0  0  0  0  0  0  0  0
   60.9589   29.1233   44.8091 H   0  0  0  0  0  0  0  0  0  0  0  0
   61.0059   27.9550   46.1953 H   0  0  0  0  0  0  0  0  0  0  0  0
   57.9257   23.9402   42.9793 H   0  0  0  0  0  0  0  0  0  0  0  0
   56.3534   22.0185   43.2287 H   0  0  0  0  0  0  0  0  0  0  0  0
   54.5417   22.0980   44.9450 H   0  0  0  0  0  0  0  0  0  0  0  0
   54.2941   24.1042   46.4100 H   0  0  0  0  0  0  0  0  0  0  0  0
   55.8734   26.0241   46.1843 H   0  0  0  0  0  0  0  0  0  0  0  0
  1  2  1  0
  2  3  2  0
  2  4  2  0
  2  5  1  0
  5  6  1  0
  6  7  1  0
  7  8  1  0
  8  9  1  0
  9 10  2  0
 10 11  1  0
 11 12  1  0
 12 13  2  0
 13 14  1  0
 14 15  2  0
 15 16  1  0
 16 17  2  0
 11 18  2  0
 18 19  1  0
 19  9  1  0
 17 12  1  0
  1 20  1  0
  1 21  1  0
  6 22  1  0
  6 23  1  0
  7 24  1  0
  7 25  1  0
  8 26  1  0
  8 27  1  0
 13 28  1  0
 14 29  1  0
 15 30  1  0
 16 31  1  0
 17 32  1  0
M  CHG  1   5  -1
M  END
>  <UniqueID>  (6) 
5

>  <SMILES>  (6) 
NS(=O)(=O)[N-]CCCc1nc(-c2ccccc2)no1

>  <Energy>  (6) 
57.27371915175666

>  <Genealogy>  (6) 
NS(=O)(=O)[N-]CCCc1nc(-c2ccccc2)no1 (protonated)
NS(=O)(=O)[N-]CCCc1nc(-c2ccccc2)no1 (3D coordinates assigned)
NS(=O)(=O)[N-]CCCc1nc(-c2ccccc2)no1 (optimized conformer: 57.27371915175666 kcal/mol)

>  <smiles>  (6) 
NS(=O)(=O)NCCCc1nc(-c2ccccc2)no1

>  <score_type>  (6) 
oracle

>  <origin>  (6) 
adg

>  <m_score__min__energy>  (6) 
-9.8800000000000008

>  <m_primary>  (6) 
energy

$$$$
6:0
     RDKit          3D

 28 29  0  0  0  0  0  0  0  0999 V2000
   57.0320   29.8070   42.8850 N   0  0  0  0  0  0  0  0  0  0  0  0
   56.4770   30.1150   44.4940 S   0  0  0  0  0  0  0  0  0  0  0  0
   56.2680   31.5910   44.6860 O   0  0  0  0  0  0  0  0  0  0  0  0
   55.1590   29.4200   44.6950 O   0  0  0  0  0  0  0  0  0  0  0  0
   57.6620   29.5160   45.6650 C   0  0  0  0  0  0  0  0  0  0  0  0
   57.5620   28.1930   46.1240 C   0  0  0  0  0  0  0  0  0  0  0  0
   58.4930   27.6750   47.0330 C   0  0  0  0  0  0  0  0  0  0  0  0
   58.3300   26.3240   47.4880 N   0  0  0  0  0  0  0  0  0  0  0  0
   57.9430   25.1940   46.6940 C   0  0  0  0  0  0  0  0  0  0  0  0
   58.8130   24.3800   46.2790 O   0  0  0  0  0  0  0  0  0  0  0  0
   56.5330   25.0020   46.3100 C   0  0  0  0  0  0  0  0  0  0  0  0
   56.0400   23.7460   45.9310 C   0  0  0  0  0  0  0  0  0  0  0  0
   54.6990   23.6180   45.5750 C   0  0  0  0  0  0  0  0  0  0  0  0
   53.8790   24.7450   45.6040 C   0  0  0  0  0  0  0  0  0  0  0  0
   52.6630   24.6570   45.2870 O   0  0  0  0  0  0  0  0  0  0  0  0
   54.3990   25.9420   45.9760 N   0  0  0  0  0  0  0  0  0  0  0  0
   55.6830   26.0660   46.3180 N   0  0  0  0  0  0  0  0  0  0  0  0
   59.5160   28.5050   47.5180 C   0  0  0  0  0  0  0  0  0  0  0  0
   59.6270   29.8210   47.0630 C   0  0  0  0  0  0  0  0  0  0  0  0
   58.7140   30.3310   46.1330 C   0  0  0  0  0  0  0  0  0  0  0  0
   58.9270   31.9930   45.5940 Cl  0  0  0  0  0  0  0  0  0  0  0  0
   57.2550   30.7300   42.4500 H   0  0  0  0  0  0  0  0  0  0  0  0
   57.9340   29.2880   42.9680 H   0  0  0  0  0  0  0  0  0  0  0  0
   56.7413   27.5547   45.7648 H   0  0  0  0  0  0  0  0  0  0  0  0
   56.7051   22.8700   45.9147 H   0  0  0  0  0  0  0  0  0  0  0  0
   54.2928   22.6407   45.2751 H   0  0  0  0  0  0  0  0  0  0  0  0
   60.2319   28.1181   48.2581 H   0  0  0  0  0  0  0  0  0  0  0  0
   60.4385   30.4616   47.4387 H   0  0  0  0  0  0  0  0  0  0  0  0
  1  2  1  0
  2  3  2  0
  2  4  2  0
  2  5  1  0
  5  6  2  0
  6  7  1  0
  7  8  1  0
  8  9  1  0
  9 10  2  0
  9 11  1  0
 11 12  1  0
 12 13  2  0
 13 14  1  0
 14 15  2  0
 14 16  1  0
 16 17  1  0
  7 18  2  0
 18 19  1  0
 19 20  2  0
 20 21  1  0
 20  5  1  0
 17 11  2  0
  1 22  1  0
  1 23  1  0
  6 24  1  0
 12 25  1  0
 13 26  1  0
 18 27  1  0
 19 28  1  0
M  CHG  2   8  -1  16  -1
M  END
>  <UniqueID>  (7) 
6

>  <SMILES>  (7) 
NS(=O)(=O)c1cc([N-]C(=O)c2ccc(=O)[n-]n2)ccc1Cl

>  <Energy>  (7) 
34.06507484479274

>  <Genealogy>  (7) 
NS(=O)(=O)c1cc([N-]C(=O)c2ccc(=O)[n-]n2)ccc1Cl (protonated)
NS(=O)(=O)c1cc([N-]C(=O)c2ccc(=O)[n-]n2)ccc1Cl (3D coordinates assigned)
NS(=O)(=O)c1cc([N-]C(=O)c2ccc(=O)[n-]n2)ccc1Cl (optimized conformer: 34.06507484479274 kcal/mol)

>  <smiles>  (7) 
NS(=O)(=O)c1cc(NC(=O)c2ccc(=O)[nH]n2)ccc1Cl

>  <score_type>  (7) 
oracle

>  <origin>  (7) 
adg

>  <m_score__min__energy>  (7) 
-11.949999999999999

>  <m_primary>  (7) 
energy

$$$$
7:0
     RDKit          3D

 50 52  0  0  0  0  0  0  0  0999 V2000
   54.6210   26.2970   45.9790 N   0  0  0  0  0  0  0  0  0  0  0  0
   55.2260   25.0190   45.7940 C   0  0  0  0  0  0  0  0  0  0  0  0
   54.4910   24.0190   45.5720 O   0  0  0  0  0  0  0  0  0  0  0  0
   56.6980   24.8640   45.8610 C   0  0  0  0  0  0  0  0  0  0  0  0
   57.2880   23.5930   45.7430 C   0  0  0  0  0  0  0  0  0  0  0  0
   58.6760   23.4490   45.7930 C   0  0  0  0  0  0  0  0  0  0  0  0
   59.4920   24.5670   45.9700 C   0  0  0  0  0  0  0  0  0  0  0  0
   58.9210   25.8420   46.1170 C   0  0  0  0  0  0  0  0  0  0  0  0
   59.7340   27.0140   46.2670 N   0  0  0  0  0  0  0  0  0  0  0  0
   59.7270   28.1650   45.4130 C   0  0  0  0  0  0  0  0  0  0  0  0
   60.6950   28.9690   45.4730 O   0  0  0  0  0  0  0  0  0  0  0  0
   58.6240   28.4050   44.4120 C   0  0  0  0  0  0  0  0  0  0  0  0
   58.4070   29.9020   44.1430 C   0  0  0  0  0  0  0  0  0  0  0  0
   57.1540   30.4240   44.8030 C   0  0  0  0  0  0  0  0  0  0  0  0
   56.2710   29.6080   45.1760 O   0  0  0  0  0  0  0  0  0  0  0  0
   56.9670   31.8170   45.0760 N   0  0  0  0  0  0  0  0  0  0  0  0
   57.9820   32.7480   45.4770 C   0  0  0  0  0  0  0  0  0  0  0  0
   57.9330   34.0990   45.0930 C   0  0  0  0  0  0  0  0  0  0  0  0
   58.9230   34.9890   45.5230 C   0  0  0  0  0  0  0  0  0  0  0  0
   59.9520   34.5420   46.3550 C   0  0  0  0  0  0  0  0  0  0  0  0
   59.9870   33.2060   46.7710 C   0  0  0  0  0  0  0  0  0  0  0  0
   61.2970   32.6410   47.8600 S   0  0  0  0  0  0  0  0  0  0  0  0
   60.1520   31.7970   48.9620 C   0  0  0  0  0  0  0  0  0  0  0  0
   59.5450   32.5350   49.9870 C   0  0  0  0  0  0  0  0  0  0  0  0
   58.6330   31.9270   50.8520 C   0  0  0  0  0  0  0  0  0  0  0  0
   58.3240   30.5750   50.7020 C   0  0  0  0  0  0  0  0  0  0  0  0
   58.9300   29.8250   49.6910 C   0  0  0  0  0  0  0  0  0  0  0  0
   59.8530   30.4230   48.8170 C   0  0  0  0  0  0  0  0  0  0  0  0
   60.4760   29.6220   47.8050 N   0  0  0  0  0  0  0  0  0  0  0  0
   59.0010   32.3140   46.3330 C   0  0  0  0  0  0  0  0  0  0  0  0
   57.5300   25.9860   46.0390 C   0  0  0  0  0  0  0  0  0  0  0  0
   53.6320   26.3810   46.3070 H   0  0  0  0  0  0  0  0  0  0  0  0
   56.6515   22.7058   45.6103 H   0  0  0  0  0  0  0  0  0  0  0  0
   59.1276   22.4510   45.6925 H   0  0  0  0  0  0  0  0  0  0  0  0
   60.5854   24.4496   45.9945 H   0  0  0  0  0  0  0  0  0  0  0  0
   58.8883   27.9089   43.4665 H   0  0  0  0  0  0  0  0  0  0  0  0
   57.6918   27.9959   44.8288 H   0  0  0  0  0  0  0  0  0  0  0  0
   59.2712   30.4607   44.5316 H   0  0  0  0  0  0  0  0  0  0  0  0
   58.2982   30.0377   43.0568 H   0  0  0  0  0  0  0  0  0  0  0  0
   57.1138   34.4577   44.4525 H   0  0  0  0  0  0  0  0  0  0  0  0
   58.8910   36.0417   45.2056 H   0  0  0  0  0  0  0  0  0  0  0  0
   60.7356   35.2405   46.6836 H   0  0  0  0  0  0  0  0  0  0  0  0
   59.7886   33.6005   50.1110 H   0  0  0  0  0  0  0  0  0  0  0  0
   58.1581   32.5142   51.6518 H   0  0  0  0  0  0  0  0  0  0  0  0
   57.6017   30.0984   51.3811 H   0  0  0  0  0  0  0  0  0  0  0  0
   58.6827   28.7591   49.5786 H   0  0  0  0  0  0  0  0  0  0  0  0
   60.0790   28.6910   47.5490 H   0  0  0  0  0  0  0  0  0  0  0  0
   61.3500   29.9220   47.3210 H   0  0  0  0  0  0  0  0  0  0  0  0
   59.0272   31.2652   46.6637 H   0  0  0  0  0  0  0  0  0  0  0  0
   57.0821   26.9876   46.1177 H   0  0  0  0  0  0  0  0  0  0  0  0
  1  2  1  0
  2  3  2  0
  2  4  1  0
  4  5  2  0
  5  6  1  0
  6  7  2  0
  7  8  1  0
  8  9  1  0
  9 10  1  0
 10 11  2  0
 10 12  1  0
 12 13  1  0
 13 14  1  0
 14 15  2  0
 14 16  1  0
 16 17  1  0
 17 18  2  0
 18 19  1  0
 19 20  2  0
 20 21  1  0
 21 22  1  0
 22 23  1  0
 23 24  2  0
 24 25  1  0
 25 26  2  0
 26 27  1  0
 27 28  2  0
 28 29  1  0
 21 30  2  0
  8 31  2  0
 31  4  1  0
 30 17  1  0
 28 23  1  0
  1 32  1  0
  5 33  1  0
  6 34  1  0
  7 35  1  0
 12 36  1  0
 12 37  1  0
 13 38  1  0
 13 39  1  0
 18 40  1  0
 19 41  1  0
 20 42  1  0
 24 43  1  0
 25 44  1  0
 26 45  1  0
 27 46  1  0
 29 47  1  0
 29 48  1  0
 30 49  1  0
 31 50  1  0
M  CHG  3   1  -1   9  -1  16  -1
M  END
>  <UniqueID>  (8) 
7

>  <SMILES>  (8) 
[NH-]C(=O)c1cccc([N-]C(=O)CCC(=O)[N-]c2cccc(Sc3ccccc3N)c2)c1

>  <Energy>  (8) 
56.53523366957987

>  <Genealogy>  (8) 
[NH-]C(=O)c1cccc([N-]C(=O)CCC(=O)[N-]c2cccc(Sc3ccccc3N)c2)c1 (protonated)
[NH-]C(=O)c1cccc([N-]C(=O)CCC(=O)[N-]c2cccc(Sc3ccccc3N)c2)c1 (3D coordinates assigned)
[NH-]C(=O)c1cccc([N-]C(=O)CCC(=O)[N-]c2cccc(Sc3ccccc3N)c2)c1 (optimized conformer: 56.53523366957987 kcal/mol)

>  <smiles>  (8) 
NC(=O)c1cccc(NC(=O)CCC(=O)Nc2cccc(Sc3ccccc3N)c2)c1

>  <score_type>  (8) 
oracle

>  <origin>  (8) 
adg

>  <m_score__min__energy>  (8) 
-15.890000000000001

>  <m_primary>  (8) 
energy

$$$$
8:0
     RDKit          3D

 71 74  0  0  0  0  0  0  0  0999 V2000
   61.9530   31.0150   48.5440 C   0  0  0  0  0  0  0  0  0  0  0  0
   62.4600   31.8090   47.4810 O   0  0  0  0  0  0  0  0  0  0  0  0
   62.5510   33.2030   47.5540 C   0  0  0  0  0  0  0  0  0  0  0  0
   63.2930   33.8380   46.7550 O   0  0  0  0  0  0  0  0  0  0  0  0
   61.7190   33.9590   48.5470 C   0  0  0  0  0  0  0  0  0  0  0  0
   60.2950   33.6180   48.4240 N   0  0  0  0  0  0  0  0  0  0  0  0
   59.6100   33.8010   47.1330 C   0  0  0  0  0  0  0  0  0  0  0  0
   59.6410   32.5150   46.3030 C   0  0  0  0  0  0  0  0  0  0  0  0
   58.7440   31.5630   46.8690 O   0  0  0  0  0  0  0  0  0  0  0  0
   58.5280   30.2760   46.3520 C   0  0  0  0  0  0  0  0  0  0  0  0
   59.2120   29.1480   46.8440 C   0  0  0  0  0  0  0  0  0  0  0  0
   58.9750   27.8860   46.2970 C   0  0  0  0  0  0  0  0  0  0  0  0
   58.0480   27.7230   45.2600 C   0  0  0  0  0  0  0  0  0  0  0  0
   57.8300   26.3640   44.6470 C   0  0  0  0  0  0  0  0  0  0  0  0
   57.2570   25.4260   45.6650 C   0  0  0  0  0  0  0  0  0  0  0  0
   57.9100   24.3580   46.1620 N   0  0  0  0  0  0  0  0  0  0  0  0
   57.0570   23.8760   47.0890 C   0  0  0  0  0  0  0  0  0  0  0  0
   57.3140   22.8560   47.7800 O   0  0  0  0  0  0  0  0  0  0  0  0
   55.9070   24.5730   47.2200 N   0  0  0  0  0  0  0  0  0  0  0  0
   56.0520   25.5550   46.3150 C   0  0  0  0  0  0  0  0  0  0  0  0
   55.1100   26.5550   46.0910 O   0  0  0  0  0  0  0  0  0  0  0  0
   57.3730   28.8470   44.7600 C   0  0  0  0  0  0  0  0  0  0  0  0
   57.6010   30.1240   45.3100 C   0  0  0  0  0  0  0  0  0  0  0  0
   56.9300   31.2700   44.8480 O   0  0  0  0  0  0  0  0  0  0  0  0
   57.4280   32.1500   43.8430 C   0  0  0  0  0  0  0  0  0  0  0  0
   59.5760   33.1360   49.5770 C   0  0  0  0  0  0  0  0  0  0  0  0
   60.0130   33.4570   50.8710 C   0  0  0  0  0  0  0  0  0  0  0  0
   59.3290   32.9710   51.9920 C   0  0  0  0  0  0  0  0  0  0  0  0
   58.1910   32.1680   51.8340 C   0  0  0  0  0  0  0  0  0  0  0  0
   57.5190   31.7250   52.9800 O   0  0  0  0  0  0  0  0  0  0  0  0
   56.7090   30.2190   53.0780 S   0  0  0  0  0  0  0  0  0  0  0  0
   57.0640   29.5600   54.3830 O   0  0  0  0  0  0  0  0  0  0  0  0
   57.1770   29.3390   51.9540 O   0  0  0  0  0  0  0  0  0  0  0  0
   54.9620   30.4160   52.9510 C   0  0  0  0  0  0  0  0  0  0  0  0
   54.1360   30.1900   54.0640 C   0  0  0  0  0  0  0  0  0  0  0  0
   52.7590   30.4140   53.9720 C   0  0  0  0  0  0  0  0  0  0  0  0
   52.1890   30.8480   52.7640 C   0  0  0  0  0  0  0  0  0  0  0  0
   50.7220   31.1480   52.6800 C   0  0  0  0  0  0  0  0  0  0  0  0
   53.0190   31.0740   51.6530 C   0  0  0  0  0  0  0  0  0  0  0  0
   54.3980   30.8570   51.7460 C   0  0  0  0  0  0  0  0  0  0  0  0
   57.7670   31.8240   50.5400 C   0  0  0  0  0  0  0  0  0  0  0  0
   58.4580   32.2980   49.4210 C   0  0  0  0  0  0  0  0  0  0  0  0
   62.2398   31.4642   49.5063 H   0  0  0  0  0  0  0  0  0  0  0  0
   60.8563   30.9663   48.4745 H   0  0  0  0  0  0  0  0  0  0  0  0
   62.3702   29.9996   48.4745 H   0  0  0  0  0  0  0  0  0  0  0  0
   62.0601   33.7101   49.5627 H   0  0  0  0  0  0  0  0  0  0  0  0
   61.8356   35.0346   48.3484 H   0  0  0  0  0  0  0  0  0  0  0  0
   58.5631   34.0829   47.3190 H   0  0  0  0  0  0  0  0  0  0  0  0
   60.1303   34.5908   46.5714 H   0  0  0  0  0  0  0  0  0  0  0  0
   59.3355   32.7377   45.2700 H   0  0  0  0  0  0  0  0  0  0  0  0
   60.6609   32.1030   46.3028 H   0  0  0  0  0  0  0  0  0  0  0  0
   59.9368   29.2619   47.6636 H   0  0  0  0  0  0  0  0  0  0  0  0
   59.5206   27.0125   46.6835 H   0  0  0  0  0  0  0  0  0  0  0  0
   57.1320   26.4539   43.8016 H   0  0  0  0  0  0  0  0  0  0  0  0
   58.7945   25.9686   44.2957 H   0  0  0  0  0  0  0  0  0  0  0  0
   54.3510   26.7080   46.7460 H   0  0  0  0  0  0  0  0  0  0  0  0
   56.6594   28.7301   43.9311 H   0  0  0  0  0  0  0  0  0  0  0  0
   57.9162   33.0126   44.3201 H   0  0  0  0  0  0  0  0  0  0  0  0
   58.1577   31.6158   43.2167 H   0  0  0  0  0  0  0  0  0  0  0  0
   56.5944   32.5005   43.2167 H   0  0  0  0  0  0  0  0  0  0  0  0
   60.8990   34.0948   51.0058 H   0  0  0  0  0  0  0  0  0  0  0  0
   59.6866   33.2207   53.0019 H   0  0  0  0  0  0  0  0  0  0  0  0
   54.5730   29.8363   55.0095 H   0  0  0  0  0  0  0  0  0  0  0  0
   52.1183   30.2494   54.8509 H   0  0  0  0  0  0  0  0  0  0  0  0
   50.3064   31.2330   53.6949 H   0  0  0  0  0  0  0  0  0  0  0  0
   50.5717   32.0955   52.1417 H   0  0  0  0  0  0  0  0  0  0  0  0
   50.2118   30.3356   52.1417 H   0  0  0  0  0  0  0  0  0  0  0  0
   52.5825   31.4232   50.7056 H   0  0  0  0  0  0  0  0  0  0  0  0
   55.0412   31.0329   50.8712 H   0  0  0  0  0  0  0  0  0  0  0  0
   56.8866   31.1782   50.4063 H   0  0  0  0  0  0  0  0  0  0  0  0
   58.1248   32.0135   48.4120 H   0  0  0  0  0  0  0  0  0  0  0  0
  1  2  1  0
  2  3  1  0
  3  4  2  0
  3  5  1  0
  5  6  1  0
  6  7  1  0
  7  8  1  0
  8  9  1  0
  9 10  1  0
 10 11  2  0
 11 12  1  0
 12 13  2  0
 13 14  1  0
 14 15  1  0
 15 16  1  0
 16 17  1  0
 17 18  2  0
 17 19  1  0
 19 20  1  0
 20 21  1  0
 13 22  1  0
 22 23  2  0
 23 24  1  0
 24 25  1  0
  6 26  1  0
 26 27  2  0
 27 28  1  0
 28 29  2  0
 29 30  1  0
 30 31  1  0
 31 32  2  0
 31 33  2  0
 31 34  1  0
 34 35  2  0
 35 36  1  0
 36 37  2  0
 37 38  1  0
 37 39  1  0
 39 40  2  0
 29 41  1  0
 41 42  2  0
 23 10  1  0
 42 26  1  0
 20 15  2  0
 40 34  1  0
  1 43  1  0
  1 44  1  0
  1 45  1  0
  5 46  1  0
  5 47  1  0
  7 48  1  0
  7 49  1  0
  8 50  1  0
  8 51  1  0
 11 52  1  0
 12 53  1  0
 14 54  1  0
 14 55  1  0
 21 56  1  0
 22 57  1  0
 25 58  1  0
 25 59  1  0
 25 60  1  0
 27 61  1  0
 28 62  1  0
 35 63  1  0
 36 64  1  0
 38 65  1  0
 38 66  1  0
 38 67  1  0
 39 68  1  0
 40 69  1  0
 41 70  1  0
 42 71  1  0
M  CHG  2  16  -1  19  -1
M  END
>  <UniqueID>  (9) 
8

>  <SMILES>  (9) 
COC(=O)CN(CCOc1ccc(Cc2[n-]c(=O)[n-]c2O)cc1OC)c1ccc(OS(=O)(=O)c2ccc(C)cc2)cc1

>  <Energy>  (9) 
101.63061920331513

>  <Genealogy>  (9) 
COC(=O)CN(CCOc1ccc(Cc2[n-]c(=O)[n-]c2O)cc1OC)c1ccc(OS(=O)(=O)c2ccc(C)cc2)cc1 (protonated)
COC(=O)CN(CCOc1ccc(Cc2[n-]c(=O)[n-]c2O)cc1OC)c1ccc(OS(=O)(=O)c2ccc(C)cc2)cc1 (3D coordinates assigned)
COC(=O)CN(CCOc1ccc(Cc2[n-]c(=O)[n-]c2O)cc1OC)c1ccc(OS(=O)(=O)c2ccc(C)cc2)cc1 (optimized conformer: 101.63061920331513 kcal/mol)

>  <smiles>  (9) 
COC(=O)CN(CCOc1ccc(Cc2[nH]c(=O)[nH]c2O)cc1OC)c1ccc(OS(=O)(=O)c2ccc(C)cc2)cc1

>  <score_type>  (9) 
oracle

>  <origin>  (9) 
adg

>  <m_score__min__energy>  (9) 
-14.199999999999999

>  <m_primary>  (9) 
energy

$$$$
9:0
     RDKit          3D

 36 38  0  0  0  0  0  0  0  0999 V2000
   56.2580   30.8130   44.4990 O   0  0  0  0  0  0  0  0  0  0  0  0
   56.6740   29.6800   44.8680 C   0  0  0  0  0  0  0  0  0  0  0  0
   55.7710   28.7400   45.2510 N   0  0  0  0  0  0  0  0  0  0  0  0
   56.1630   27.5030   45.6470 C   0  0  0  0  0  0  0  0  0  0  0  0
   55.2050   26.5690   46.0290 O   0  0  0  0  0  0  0  0  0  0  0  0
   57.5190   27.1710   45.6590 C   0  0  0  0  0  0  0  0  0  0  0  0
   57.9420   25.8250   46.1070 C   0  0  0  0  0  0  0  0  0  0  0  0
   58.5160   24.8990   45.3250 C   0  0  0  0  0  0  0  0  0  0  0  0
   57.7970   23.9010   44.5090 C   0  0  0  0  0  0  0  0  0  0  0  0
   56.6780   24.1040   43.7040 C   0  0  0  0  0  0  0  0  0  0  0  0
   56.1940   22.9270   43.1200 C   0  0  0  0  0  0  0  0  0  0  0  0
   56.9100   21.7930   43.4760 C   0  0  0  0  0  0  0  0  0  0  0  0
   58.1420   22.2560   44.5210 S   0  0  0  0  0  0  0  0  0  0  0  0
   58.4490   28.1640   45.3000 C   0  0  0  0  0  0  0  0  0  0  0  0
   59.6840   27.9110   45.3690 O   0  0  0  0  0  0  0  0  0  0  0  0
   58.0190   29.4020   44.8880 N   0  0  0  0  0  0  0  0  0  0  0  0
   59.0050   30.4370   44.5120 C   0  0  0  0  0  0  0  0  0  0  0  0
   58.7460   31.7130   45.2690 C   0  0  0  0  0  0  0  0  0  0  0  0
   58.7680   31.7240   46.6750 C   0  0  0  0  0  0  0  0  0  0  0  0
   58.5000   32.9040   47.3750 C   0  0  0  0  0  0  0  0  0  0  0  0
   58.2050   34.0800   46.6800 C   0  0  0  0  0  0  0  0  0  0  0  0
   58.1780   34.0770   45.2840 C   0  0  0  0  0  0  0  0  0  0  0  0
   58.4460   32.9000   44.5780 C   0  0  0  0  0  0  0  0  0  0  0  0
   54.7510   28.9690   45.2380 H   0  0  0  0  0  0  0  0  0  0  0  0
   57.7725   25.5644   47.1622 H   0  0  0  0  0  0  0  0  0  0  0  0
   59.6153   24.8817   45.2886 H   0  0  0  0  0  0  0  0  0  0  0  0
   56.2201   25.0912   43.5432 H   0  0  0  0  0  0  0  0  0  0  0  0
   55.3276   22.9036   42.4427 H   0  0  0  0  0  0  0  0  0  0  0  0
   56.7063   20.7678   43.1333 H   0  0  0  0  0  0  0  0  0  0  0  0
   60.0168   30.0755   44.7476 H   0  0  0  0  0  0  0  0  0  0  0  0
   58.9153   30.6386   43.4343 H   0  0  0  0  0  0  0  0  0  0  0  0
   58.9971   30.8001   47.2264 H   0  0  0  0  0  0  0  0  0  0  0  0
   58.5214   32.9069   48.4748 H   0  0  0  0  0  0  0  0  0  0  0  0
   57.9942   35.0075   47.2325 H   0  0  0  0  0  0  0  0  0  0  0  0
   57.9453   35.0031   44.7380 H   0  0  0  0  0  0  0  0  0  0  0  0
   58.4220   32.9029   43.4783 H   0  0  0  0  0  0  0  0  0  0  0  0
  1  2  2  0
  2  3  1  0
  3  4  1  0
  4  5  1  0
  4  6  2  0
  6  7  1  0
  7  8  2  3
  8  9  1  0
  9 10  2  0
 10 11  1  0
 11 12  2  0
 12 13  1  0
  6 14  1  0
 14 15  2  0
 14 16  1  0
 16 17  1  0
 17 18  1  0
 18 19  2  0
 19 20  1  0
 20 21  2  0
 21 22  1  0
 22 23  2  0
 16  2  1  0
 23 18  1  0
 13  9  1  0
  3 24  1  0
  7 25  1  0
  8 26  1  0
 10 27  1  0
 11 28  1  0
 12 29  1  0
 17 30  1  0
 17 31  1  0
 19 32  1  0
 20 33  1  0
 21 34  1  0
 22 35  1  0
 23 36  1  0
M  CHG  1   5  -1
M  END
>  <UniqueID>  (10) 
9

>  <SMILES>  (10) 
O=c1[nH]c([O-])c(C=Cc2cccs2)c(=O)n1Cc1ccccc1

>  <Energy>  (10) 
78.0701894235195

>  <Genealogy>  (10) 
O=c1[nH]c([O-])c(C=Cc2cccs2)c(=O)n1Cc1ccccc1 (protonated)
O=c1[nH]c([O-])c(C=Cc2cccs2)c(=O)n1Cc1ccccc1 (3D coordinates assigned)
O=c1[nH]c([O-])c(C=Cc2cccs2)c(=O)n1Cc1ccccc1 (optimized conformer: 78.0701894235195 kcal/mol)

>  <smiles>  (10) 
O=c1[nH]c(O)c(C=Cc2cccs2)c(=O)n1Cc1ccccc1

>  <score_type>  (10) 
oracle

>  <origin>  (10) 
adg

>  <m_score__min__energy>  (10) 
-11.49

>  <m_primary>  (10) 
energy

$$$$
10:0
     RDKit          3D

 42 45  0  0  0  0  0  0  0  0999 V2000
   56.0840   29.5690   43.4890 O   0  0  0  0  0  0  0  0  0  0  0  0
   56.3470   30.1290   44.5870 C   0  0  0  0  0  0  0  0  0  0  0  0
   56.3340   31.5580   44.6560 N   0  0  0  0  0  0  0  0  0  0  0  0
   57.3370   32.3820   45.2670 C   0  0  0  0  0  0  0  0  0  0  0  0
   57.6230   33.6300   44.6980 C   0  0  0  0  0  0  0  0  0  0  0  0
   58.6070   34.4530   45.2540 C   0  0  0  0  0  0  0  0  0  0  0  0
   59.3250   34.0260   46.3750 C   0  0  0  0  0  0  0  0  0  0  0  0
   59.0660   32.7720   46.9340 C   0  0  0  0  0  0  0  0  0  0  0  0
   58.0810   31.9470   46.3810 C   0  0  0  0  0  0  0  0  0  0  0  0
   56.6440   29.3660   45.7240 O   0  0  0  0  0  0  0  0  0  0  0  0
   57.2630   28.1090   45.6970 C   0  0  0  0  0  0  0  0  0  0  0  0
   58.6610   28.0520   45.6340 C   0  0  0  0  0  0  0  0  0  0  0  0
   59.4040   29.2270   45.5870 O   0  0  0  0  0  0  0  0  0  0  0  0
   59.3170   26.8200   45.6140 C   0  0  0  0  0  0  0  0  0  0  0  0
   58.5830   25.6340   45.6540 C   0  0  0  0  0  0  0  0  0  0  0  0
   57.1820   25.6670   45.7170 C   0  0  0  0  0  0  0  0  0  0  0  0
   56.4390   24.3900   45.7830 C   0  0  0  0  0  0  0  0  0  0  0  0
   55.6750   24.1560   46.8460 O   0  0  0  0  0  0  0  0  0  0  0  0
   54.9660   23.0430   47.0000 C   0  0  0  0  0  0  0  0  0  0  0  0
   54.1840   22.8850   48.1480 C   0  0  0  0  0  0  0  0  0  0  0  0
   53.4260   21.7260   48.3320 C   0  0  0  0  0  0  0  0  0  0  0  0
   52.6530   21.5870   49.4820 O   0  0  0  0  0  0  0  0  0  0  0  0
   53.4500   20.7160   47.3620 C   0  0  0  0  0  0  0  0  0  0  0  0
   54.2270   20.8570   46.2080 C   0  0  0  0  0  0  0  0  0  0  0  0
   54.2210   19.8290   45.2700 O   0  0  0  0  0  0  0  0  0  0  0  0
   54.9980   22.0270   46.0140 C   0  0  0  0  0  0  0  0  0  0  0  0
   55.8110   22.2370   44.8820 C   0  0  0  0  0  0  0  0  0  0  0  0
   55.8970   21.3700   43.9690 O   0  0  0  0  0  0  0  0  0  0  0  0
   56.5440   23.4220   44.7700 C   0  0  0  0  0  0  0  0  0  0  0  0
   57.3850   23.6170   43.6770 O   0  0  0  0  0  0  0  0  0  0  0  0
   56.5220   26.9120   45.7790 C   0  0  0  0  0  0  0  0  0  0  0  0
   55.1450   26.9600   45.9810 O   0  0  0  0  0  0  0  0  0  0  0  0
   57.0697   33.9645   43.8080 H   0  0  0  0  0  0  0  0  0  0  0  0
   58.8164   35.4370   44.8092 H   0  0  0  0  0  0  0  0  0  0  0  0
   60.0936   34.6771   46.8168 H   0  0  0  0  0  0  0  0  0  0  0  0
   59.6377   32.4329   47.8105 H   0  0  0  0  0  0  0  0  0  0  0  0
   57.8870   30.9560   46.8173 H   0  0  0  0  0  0  0  0  0  0  0  0
   60.4154   26.7840   45.5666 H   0  0  0  0  0  0  0  0  0  0  0  0
   59.1064   24.6667   45.6360 H   0  0  0  0  0  0  0  0  0  0  0  0
   54.1654   23.6776   48.9106 H   0  0  0  0  0  0  0  0  0  0  0  0
   52.5500   20.6920   49.9470 H   0  0  0  0  0  0  0  0  0  0  0  0
   52.8526   19.8042   47.5092 H   0  0  0  0  0  0  0  0  0  0  0  0
  1  2  2  0
  2  3  1  0
  3  4  1  0
  4  5  2  0
  5  6  1  0
  6  7  2  0
  7  8  1  0
  8  9  2  0
  2 10  1  0
 10 11  1  0
 11 12  2  0
 12 13  1  0
 12 14  1  0
 14 15  2  0
 15 16  1  0
 16 17  1  0
 17 18  1  0
 18 19  1  0
 19 20  2  0
 20 21  1  0
 21 22  1  0
 21 23  2  0
 23 24  1  0
 24 25  1  0
 24 26  2  0
 26 27  1  0
 27 28  2  0
 27 29  1  0
 29 30  1  0
 16 31  2  0
 31 32  1  0
  9  4  1  0
 31 11  1  0
 29 17  2  0
 26 19  1  0
  5 33  1  0
  6 34  1  0
  7 35  1  0
  8 36  1  0
  9 37  1  0
 14 38  1  0
 15 39  1  0
 20 40  1  0
 22 41  1  0
 23 42  1  0
M  CHG  5   3  -1  13  -1  25  -1  30  -1  32  -1
M  END
>  <UniqueID>  (11) 
10

>  <SMILES>  (11) 
O=C([N-]c1ccccc1)Oc1c([O-])ccc(-c2oc3cc(O)cc([O-])c3c(=O)c2[O-])c1[O-]

>  <Energy>  (11) 
70.6519362622123

>  <Genealogy>  (11) 
O=C([N-]c1ccccc1)Oc1c([O-])ccc(-c2oc3cc(O)cc([O-])c3c(=O)c2[O-])c1[O-] (protonated)
O=C([N-]c1ccccc1)Oc1c([O-])ccc(-c2oc3cc(O)cc([O-])c3c(=O)c2[O-])c1[O-] (3D coordinates assigned)
O=C([N-]c1ccccc1)Oc1c([O-])ccc(-c2oc3cc(O)cc([O-])c3c(=O)c2[O-])c1[O-] (optimized conformer: 70.6519362622123 kcal/mol)

>  <smiles>  (11) 
O=C(Nc1ccccc1)Oc1c(O)ccc(-c2oc3cc(O)cc(O)c3c(=O)c2O)c1O

>  <score_type>  (11) 
oracle

>  <origin>  (11) 
adg

>  <m_score__min__energy>  (11) 
-16.140000000000001

>  <m_primary>  (11) 
energy

$$$$
11:0
     RDKit          3D

 43 45  0  0  1  0  0  0  0  0999 V2000
   59.3280   27.0080   44.6080 O   0  0  0  0  0  0  0  0  0  0  0  0
   58.5410   26.5500   45.5030 C   0  0  0  0  0  0  0  0  0  0  0  0
   58.7540   25.1540   46.0300 C   0  0  0  0  0  0  0  0  0  0  0  0
   58.0620   24.1620   45.1940 C   0  0  0  0  0  0  0  0  0  0  0  0
   56.8500   24.4420   44.5750 C   0  0  0  0  0  0  0  0  0  0  0  0
   56.2800   23.4780   43.8230 N   0  0  0  0  0  0  0  0  0  0  0  0
   56.8680   22.2610   43.6700 C   0  0  0  0  0  0  0  0  0  0  0  0
   56.2730   21.3950   42.9460 O   0  0  0  0  0  0  0  0  0  0  0  0
   58.0480   21.9790   44.2700 N   0  0  0  0  0  0  0  0  0  0  0  0
   58.6570   22.9090   45.0300 C   0  0  0  0  0  0  0  0  0  0  0  0
   59.7690   22.6670   45.6040 O   0  0  0  0  0  0  0  0  0  0  0  0
   57.4660   27.3210   46.0230 N   0  0  0  0  0  0  0  0  0  0  0  0
   57.1270   28.3870   45.4660 C   0  0  0  0  0  0  0  0  0  0  0  0
   56.0020   28.8350   44.9130 N   0  0  0  0  0  0  0  0  0  0  0  0
   55.9960   30.0040   44.4230 N   0  0  0  0  0  0  0  0  0  0  0  0
   56.9190   30.8200   44.3840 C   0  0  0  0  0  0  0  0  0  0  0  0
   57.2520   32.1940   43.9180 C   0  0  0  0  0  0  0  0  0  0  0  0
   58.5450   32.6130   44.5150 C   0  0  0  0  0  0  0  0  0  0  0  0
   58.2070   34.0400   45.5260 S   0  0  0  0  0  0  0  0  0  0  0  0
   59.0180   35.2040   44.9750 O   0  0  0  0  0  0  0  0  0  0  0  0
   56.7760   34.4010   45.5350 O   0  0  0  0  0  0  0  0  0  0  0  0
   58.7540   33.7690   47.1510 C   0  0  0  0  0  0  0  0  0  0  0  0
   59.6850   34.5740   47.7900 C   0  0  0  0  0  0  0  0  0  0  0  0
   60.0680   34.2920   49.0860 C   0  0  0  0  0  0  0  0  0  0  0  0
   59.5210   33.2070   49.7400 C   0  0  0  0  0  0  0  0  0  0  0  0
   58.5860   32.3770   49.1350 C   0  0  0  0  0  0  0  0  0  0  0  0
   58.2320   32.6950   47.8420 C   0  0  0  0  0  0  0  0  0  0  0  0
   58.2510   29.7910   45.2470 S   0  0  0  0  0  0  0  0  0  0  0  0
   59.8313   24.9318   46.0339 H   0  0  0  0  0  0  0  0  0  0  0  0
   58.3445   25.0988   47.0494 H   0  0  0  0  0  0  0  0  0  0  0  0
   56.3681   25.4235   44.6950 H   0  0  0  0  0  0  0  0  0  0  0  0
   55.3630   23.6760   43.3490 H   0  0  0  0  0  0  0  0  0  0  0  0
   58.4950   21.0420   44.1480 H   0  0  0  0  0  0  0  0  0  0  0  0
   55.1340   28.1920   44.8980 H   0  0  0  0  0  0  0  0  0  0  0  0
   57.3342   32.2005   42.8211 H   0  0  0  0  0  0  0  0  0  0  0  0
   56.4594   32.8910   44.2276 H   0  0  0  0  0  0  0  0  0  0  0  0
   58.9580   31.8012   45.1318 H   0  0  0  0  0  0  0  0  0  0  0  0
   59.2824   32.8488   43.7336 H   0  0  0  0  0  0  0  0  0  0  0  0
   60.1184   35.4375   47.2641 H   0  0  0  0  0  0  0  0  0  0  0  0
   60.8060   34.9294   49.5951 H   0  0  0  0  0  0  0  0  0  0  0  0
   59.8351   32.9928   50.7722 H   0  0  0  0  0  0  0  0  0  0  0  0
   58.1519   31.5130   49.6595 H   0  0  0  0  0  0  0  0  0  0  0  0
   57.4933   32.0582   47.3332 H   0  0  0  0  0  0  0  0  0  0  0  0
  1  2  2  0
  2  3  1  0
  3  4  1  0
  4  5  2  0
  5  6  1  0
  6  7  1  0
  7  8  2  0
  7  9  1  0
  9 10  1  0
 10 11  2  0
  2 12  1  0
 12 13  2  0
 13 14  1  0
 14 15  1  0
 15 16  2  0
 16 17  1  0
 17 18  1  0
 18 19  1  0
 19 20  2  0
 19 21  2  0
 19 22  1  0
 22 23  2  0
 23 24  1  0
 24 25  2  0
 25 26  1  0
 26 27  2  0
 16 28  1  0
 10  4  1  0
 28 13  1  0
 27 22  1  0
  3 29  1  0
  3 30  1  0
  5 31  1  0
  6 32  1  0
  9 33  1  0
 14 34  1  0
 17 35  1  0
 17 36  1  0
 18 37  1  0
 18 38  1  0
 23 39  1  0
 24 40  1  0
 25 41  1  0
 26 42  1  0
 27 43  1  0
M  END
>  <smiles>  (12) 
O=C(Cc1c[nH]c(=O)[nH]c1=O)N=c1[nH]nc(CCS(=O)(=O)c2ccccc2)s1

>  <score_type>  (12) 
oracle

>  <origin>  (12) 
adg

>  <m_score__min__energy>  (12) 
-10.91

>  <m_primary>  (12) 
energy

$$$$
12:0
     RDKit          3D

 34 36  0  0  0  0  0  0  0  0999 V2000
   53.6696   22.6095   46.6816 H   0  0  0  0  0  0  0  0  0  0  0  0
   54.6470   23.0580   46.4500 C   0  0  0  0  0  0  0  0  0  0  0  0
   55.0610   24.0810   47.1360 N   0  0  0  0  0  0  0  0  0  0  0  0
   56.1970   24.8940   46.7990 C   0  0  0  0  0  0  0  0  0  0  0  0
   57.4790   24.3450   46.9570 C   0  0  0  0  0  0  0  0  0  0  0  0
   57.6260   23.0510   47.4460 O   0  0  0  0  0  0  0  0  0  0  0  0
   58.6150   25.0890   46.6390 C   0  0  0  0  0  0  0  0  0  0  0  0
   59.6136   24.6495   46.7789 H   0  0  0  0  0  0  0  0  0  0  0  0
   58.4910   26.3940   46.1420 C   0  0  0  0  0  0  0  0  0  0  0  0
   59.6360   27.1430   45.8280 C   0  0  0  0  0  0  0  0  0  0  0  0
   60.6341   26.7101   45.9907 H   0  0  0  0  0  0  0  0  0  0  0  0
   59.5150   28.4400   45.3080 C   0  0  0  0  0  0  0  0  0  0  0  0
   60.7420   29.2510   45.0110 C   0  0  0  0  0  0  0  0  0  0  0  0
   61.2131   29.5624   45.9550 H   0  0  0  0  0  0  0  0  0  0  0  0
   61.4515   28.6433   44.4301 H   0  0  0  0  0  0  0  0  0  0  0  0
   60.4610   30.1419   44.4301 H   0  0  0  0  0  0  0  0  0  0  0  0
   58.2410   28.9970   45.1300 C   0  0  0  0  0  0  0  0  0  0  0  0
   58.1423   30.0224   44.7443 H   0  0  0  0  0  0  0  0  0  0  0  0
   57.0960   28.2590   45.4390 C   0  0  0  0  0  0  0  0  0  0  0  0
   56.1016   28.7026   45.2831 H   0  0  0  0  0  0  0  0  0  0  0  0
   57.2060   26.9530   45.9480 C   0  0  0  0  0  0  0  0  0  0  0  0
   56.0590   26.1930   46.2610 C   0  0  0  0  0  0  0  0  0  0  0  0
   54.7940   26.7140   46.0060 O   0  0  0  0  0  0  0  0  0  0  0  0
   55.4700   22.4890   45.3640 C   0  0  0  0  0  0  0  0  0  0  0  0
   55.5800   23.1800   44.1470 C   0  0  0  0  0  0  0  0  0  0  0  0
   55.0530   24.1360   44.0116 H   0  0  0  0  0  0  0  0  0  0  0  0
   56.3560   22.6600   43.1050 C   0  0  0  0  0  0  0  0  0  0  0  0
   56.4368   23.2072   42.1542 H   0  0  0  0  0  0  0  0  0  0  0  0
   57.0280   21.4470   43.2710 C   0  0  0  0  0  0  0  0  0  0  0  0
   57.7790   20.9440   42.2590 F   0  0  0  0  0  0  0  0  0  0  0  0
   56.9250   20.7510   44.4780 C   0  0  0  0  0  0  0  0  0  0  0  0
   57.4538   19.7951   44.6069 H   0  0  0  0  0  0  0  0  0  0  0  0
   56.1520   21.2660   45.5220 C   0  0  0  0  0  0  0  0  0  0  0  0
   56.0756   20.7146   46.4708 H   0  0  0  0  0  0  0  0  0  0  0  0
  1  2  1  0
  2  3  2  0
  3  4  1  0
  4  5  2  0
  5  6  1  0
  5  7  1  0
  7  8  1  0
  7  9  2  0
  9 10  1  0
 10 11  1  0
 10 12  2  0
 12 13  1  0
 13 14  1  0
 13 15  1  0
 13 16  1  0
 12 17  1  0
 17 18  1  0
 17 19  2  0
 19 20  1  0
 19 21  1  0
 21 22  2  0
 22 23  1  0
  2 24  1  0
 24 25  2  0
 25 26  1  0
 25 27  1  0
 27 28  1  0
 27 29  2  0
 29 30  1  0
 29 31  1  0
 31 32  1  0
 31 33  2  0
 33 34  1  0
 22  4  1  0
 33 24  1  0
 21  9  1  0
M  CHG  2   6  -1  23  -1
M  END
>  <UniqueID>  (13) 
11

>  <SMILES>  (13) 
Cc1ccc2c([O-])c(/N=C/c3ccc(F)cc3)c([O-])cc2c1

>  <Energy>  (13) 
45.87802177505155

>  <Genealogy>  (13) 
Cc1ccc2c([O-])c(N=Cc3ccc(F)cc3)c([O-])cc2c1 (protonated)
Cc1ccc2c([O-])c(/N=C/c3ccc(F)cc3)c([O-])cc2c1 (cis-trans isomerization)
Cc1ccc2c([O-])c(/N=C/c3ccc(F)cc3)c([O-])cc2c1 (3D coordinates assigned)
Cc1ccc2c([O-])c(/N=C/c3ccc(F)cc3)c([O-])cc2c1 (optimized conformer: 45.87802177505155 kcal/mol)

>  <smiles>  (13) 
Cc1ccc2c(O)c(N=Cc3ccc(F)cc3)c(O)cc2c1

>  <score_type>  (13) 
oracle

>  <origin>  (13) 
adg

>  <m_score__min__energy>  (13) 
-12.26

>  <m_primary>  (13) 
energy

$$$$
13:0
     RDKit          3D

 28 29  0  0  0  0  0  0  0  0999 V2000
   58.8200   31.1500   47.2640 C   0  0  0  0  0  0  0  0  0  0  0  0
   58.8230   32.4260   46.4700 C   0  0  0  0  0  0  0  0  0  0  0  0
   59.7940   33.4100   46.7240 C   0  0  0  0  0  0  0  0  0  0  0  0
   59.8080   34.5950   45.9860 C   0  0  0  0  0  0  0  0  0  0  0  0
   58.8560   34.8080   44.9890 C   0  0  0  0  0  0  0  0  0  0  0  0
   57.8860   33.8380   44.7260 C   0  0  0  0  0  0  0  0  0  0  0  0
   57.8620   32.6350   45.4610 C   0  0  0  0  0  0  0  0  0  0  0  0
   56.9040   31.6330   45.2230 O   0  0  0  0  0  0  0  0  0  0  0  0
   56.9550   30.6730   44.1680 C   0  0  0  0  0  0  0  0  0  0  0  0
   57.1070   29.2910   44.7210 C   0  0  0  0  0  0  0  0  0  0  0  0
   58.2830   28.5670   44.7700 C   0  0  0  0  0  0  0  0  0  0  0  0
   57.9540   27.3600   45.3500 C   0  0  0  0  0  0  0  0  0  0  0  0
   56.5990   27.4290   45.6180 C   0  0  0  0  0  0  0  0  0  0  0  0
   55.7850   26.3780   46.2370 C   0  0  0  0  0  0  0  0  0  0  0  0
   56.3170   25.5180   46.9880 O   0  0  0  0  0  0  0  0  0  0  0  0
   54.4180   26.3280   45.9950 O   0  0  0  0  0  0  0  0  0  0  0  0
   56.1220   28.5900   45.2340 O   0  0  0  0  0  0  0  0  0  0  0  0
   58.8206   31.3866   48.3383 H   0  0  0  0  0  0  0  0  0  0  0  0
   57.9205   30.5668   47.0175 H   0  0  0  0  0  0  0  0  0  0  0  0
   59.7168   30.5626   47.0175 H   0  0  0  0  0  0  0  0  0  0  0  0
   60.5471   33.2455   47.5087 H   0  0  0  0  0  0  0  0  0  0  0  0
   60.5702   35.3612   46.1909 H   0  0  0  0  0  0  0  0  0  0  0  0
   58.8692   35.7422   44.4084 H   0  0  0  0  0  0  0  0  0  0  0  0
   57.1362   34.0137   43.9406 H   0  0  0  0  0  0  0  0  0  0  0  0
   56.0248   30.7283   43.5835 H   0  0  0  0  0  0  0  0  0  0  0  0
   57.8207   30.8959   43.5270 H   0  0  0  0  0  0  0  0  0  0  0  0
   59.2753   28.8870   44.4193 H   0  0  0  0  0  0  0  0  0  0  0  0
   58.6295   26.5168   45.5567 H   0  0  0  0  0  0  0  0  0  0  0  0
  1  2  1  0
  2  3  2  0
  3  4  1  0
  4  5  2  0
  5  6  1  0
  6  7  2  0
  7  8  1  0
  8  9  1  0
  9 10  1  0
 10 11  2  0
 11 12  1  0
 12 13  2  0
 13 14  1  0
 14 15  2  0
 14 16  1  0
 13 17  1  0
  7  2  1  0
 17 10  1  0
  1 18  1  0
  1 19  1  0
  1 20  1  0
  3 21  1  0
  4 22  1  0
  5 23  1  0
  6 24  1  0
  9 25  1  0
  9 26  1  0
 11 27  1  0
 12 28  1  0
M  CHG  1  16  -1
M  END
>  <UniqueID>  (14) 
12

>  <SMILES>  (14) 
Cc1ccccc1OCc1ccc(C(=O)[O-])o1

>  <Energy>  (14) 
52.11756558303472

>  <Genealogy>  (14) 
Cc1ccccc1OCc1ccc(C(=O)[O-])o1 (protonated)
Cc1ccccc1OCc1ccc(C(=O)[O-])o1 (3D coordinates assigned)
Cc1ccccc1OCc1ccc(C(=O)[O-])o1 (optimized conformer: 52.11756558303472 kcal/mol)

>  <smiles>  (14) 
Cc1ccccc1OCc1ccc(C(=O)O)o1

>  <score_type>  (14) 
oracle

>  <origin>  (14) 
adg

>  <m_score__min__energy>  (14) 
-9.9299999999999997

>  <m_primary>  (14) 
energy

$$$$
14:0
     RDKit          3D

 65 68  0  0  0  0  0  0  0  0999 V2000
   53.7150   23.0980   45.9600 C   0  0  0  0  0  0  0  0  0  0  0  0
   54.8030   22.4040   45.2500 N   0  0  0  0  0  0  0  0  0  0  0  0
   55.9580   22.0330   46.0990 C   0  0  0  0  0  0  0  0  0  0  0  0
   56.9680   23.1760   46.3090 C   0  0  0  0  0  0  0  0  0  0  0  0
   58.0600   23.2710   45.2260 C   0  0  0  0  0  0  0  0  0  0  0  0
   57.5370   23.5800   43.8780 N   0  0  0  0  0  0  0  0  0  0  0  0
   57.1390   25.0030   43.7200 C   0  0  0  0  0  0  0  0  0  0  0  0
   57.5110   25.8880   44.8980 C   0  0  0  0  0  0  0  0  0  0  0  0
   58.7580   26.5400   44.9010 C   0  0  0  0  0  0  0  0  0  0  0  0
   59.1480   27.3440   45.9820 C   0  0  0  0  0  0  0  0  0  0  0  0
   60.5020   28.0010   45.9900 C   0  0  0  0  0  0  0  0  0  0  0  0
   60.3550   29.4940   45.9120 C   0  0  0  0  0  0  0  0  0  0  0  0
   61.2380   30.2260   46.4310 O   0  0  0  0  0  0  0  0  0  0  0  0
   59.1870   30.1090   45.3570 N   0  0  0  0  0  0  0  0  0  0  0  0
   58.7560   31.4570   45.5850 C   0  0  0  0  0  0  0  0  0  0  0  0
   57.5320   31.8760   45.0470 C   0  0  0  0  0  0  0  0  0  0  0  0
   57.0560   33.1660   45.2940 C   0  0  0  0  0  0  0  0  0  0  0  0
   57.7970   34.0470   46.0880 C   0  0  0  0  0  0  0  0  0  0  0  0
   59.0220   33.6400   46.6430 C   0  0  0  0  0  0  0  0  0  0  0  0
   59.7950   34.5700   47.5390 C   0  0  0  0  0  0  0  0  0  0  0  0
   61.1800   34.0300   47.7790 C   0  0  0  0  0  0  0  0  0  0  0  0
   62.0700   33.8610   46.7050 C   0  0  0  0  0  0  0  0  0  0  0  0
   63.3690   33.3930   46.9330 C   0  0  0  0  0  0  0  0  0  0  0  0
   63.7890   33.0990   48.2340 C   0  0  0  0  0  0  0  0  0  0  0  0
   62.9130   33.2780   49.3080 C   0  0  0  0  0  0  0  0  0  0  0  0
   61.6130   33.7440   49.0850 C   0  0  0  0  0  0  0  0  0  0  0  0
   59.4870   32.3350   46.4050 C   0  0  0  0  0  0  0  0  0  0  0  0
   58.2870   27.4910   47.0770 C   0  0  0  0  0  0  0  0  0  0  0  0
   57.0340   26.8790   47.0710 C   0  0  0  0  0  0  0  0  0  0  0  0
   56.6310   26.0920   45.9830 C   0  0  0  0  0  0  0  0  0  0  0  0
   55.3550   25.5320   45.9750 O   0  0  0  0  0  0  0  0  0  0  0  0
   56.5230   22.6170   43.4040 C   0  0  0  0  0  0  0  0  0  0  0  0
   55.1440   23.0160   43.9510 C   0  0  0  0  0  0  0  0  0  0  0  0
   53.8656   23.0019   47.0454 H   0  0  0  0  0  0  0  0  0  0  0  0
   53.7164   24.1624   45.6824 H   0  0  0  0  0  0  0  0  0  0  0  0
   52.7504   22.6480   45.6824 H   0  0  0  0  0  0  0  0  0  0  0  0
   55.5787   21.7203   47.0831 H   0  0  0  0  0  0  0  0  0  0  0  0
   56.4924   21.2253   45.5774 H   0  0  0  0  0  0  0  0  0  0  0  0
   56.4138   24.1261   46.3223 H   0  0  0  0  0  0  0  0  0  0  0  0
   57.4851   22.9663   47.2570 H   0  0  0  0  0  0  0  0  0  0  0  0
   58.7665   24.0634   45.5141 H   0  0  0  0  0  0  0  0  0  0  0  0
   58.5387   22.2825   45.1655 H   0  0  0  0  0  0  0  0  0  0  0  0
   57.6312   25.4011   42.8204 H   0  0  0  0  0  0  0  0  0  0  0  0
   56.0415   25.0182   43.6472 H   0  0  0  0  0  0  0  0  0  0  0  0
   59.4363   26.4174   44.0437 H   0  0  0  0  0  0  0  0  0  0  0  0
   61.0290   27.7358   46.9184 H   0  0  0  0  0  0  0  0  0  0  0  0
   61.0758   27.6510   45.1192 H   0  0  0  0  0  0  0  0  0  0  0  0
   56.9424   31.1851   44.4265 H   0  0  0  0  0  0  0  0  0  0  0  0
   56.0968   33.4893   44.8633 H   0  0  0  0  0  0  0  0  0  0  0  0
   57.4194   35.0624   46.2788 H   0  0  0  0  0  0  0  0  0  0  0  0
   59.8681   35.5579   47.0607 H   0  0  0  0  0  0  0  0  0  0  0  0
   59.2719   34.6568   48.5027 H   0  0  0  0  0  0  0  0  0  0  0  0
   61.7445   34.0974   45.6812 H   0  0  0  0  0  0  0  0  0  0  0  0
   64.0601   33.2563   46.0882 H   0  0  0  0  0  0  0  0  0  0  0  0
   64.8087   32.7269   48.4120 H   0  0  0  0  0  0  0  0  0  0  0  0
   63.2466   33.0519   50.3315 H   0  0  0  0  0  0  0  0  0  0  0  0
   60.9281   33.8869   49.9338 H   0  0  0  0  0  0  0  0  0  0  0  0
   60.4287   31.9984   46.8631 H   0  0  0  0  0  0  0  0  0  0  0  0
   58.6001   28.0909   47.9442 H   0  0  0  0  0  0  0  0  0  0  0  0
   56.3564   27.0148   47.9268 H   0  0  0  0  0  0  0  0  0  0  0  0
   55.1840   24.6010   45.6150 H   0  0  0  0  0  0  0  0  0  0  0  0
   56.4972   22.6230   42.3043 H   0  0  0  0  0  0  0  0  0  0  0  0
   56.7807   21.6082   43.7588 H   0  0  0  0  0  0  0  0  0  0  0  0
   55.1243   24.1094   44.0701 H   0  0  0  0  0  0  0  0  0  0  0  0
   54.4012   22.6501   43.2269 H   0  0  0  0  0  0  0  0  0  0  0  0
  1  2  1  0
  2  3  1  0
  3  4  1  0
  4  5  1  0
  5  6  1  0
  6  7  1  0
  7  8  1  0
  8  9  2  0
  9 10  1  0
 10 11  1  0
 11 12  1  0
 12 13  2  0
 12 14  1  0
 14 15  1  0
 15 16  2  0
 16 17  1  0
 17 18  2  0
 18 19  1  0
 19 20  1  0
 20 21  1  0
 21 22  2  0
 22 23  1  0
 23 24  2  0
 24 25  1  0
 25 26  2  0
 19 27  2  0
 10 28  2  0
 28 29  1  0
 29 30  2  0
 30 31  1  0
  6 32  1  0
 32 33  1  0
 33  2  1  0
 30  8  1  0
 27 15  1  0
 26 21  1  0
  1 34  1  0
  1 35  1  0
  1 36  1  0
  3 37  1  0
  3 38  1  0
  4 39  1  0
  4 40  1  0
  5 41  1  0
  5 42  1  0
  7 43  1  0
  7 44  1  0
  9 45  1  0
 11 46  1  0
 11 47  1  0
 16 48  1  0
 17 49  1  0
 18 50  1  0
 20 51  1  0
 20 52  1  0
 22 53  1  0
 23 54  1  0
 24 55  1  0
 25 56  1  0
 26 57  1  0
 27 58  1  0
 28 59  1  0
 29 60  1  0
 31 61  1  0
 32 62  1  0
 32 63  1  0
 33 64  1  0
 33 65  1  0
M  CHG  1  14  -1
M  END
>  <UniqueID>  (15) 
13

>  <SMILES>  (15) 
CN1CCCN(Cc2cc(CC(=O)[N-]c3cccc(Cc4ccccc4)c3)ccc2O)CC1

>  <Energy>  (15) 
87.59558439670474

>  <Genealogy>  (15) 
CN1CCCN(Cc2cc(CC(=O)[N-]c3cccc(Cc4ccccc4)c3)ccc2O)CC1 (protonated)
CN1CCCN(Cc2cc(CC(=O)[N-]c3cccc(Cc4ccccc4)c3)ccc2O)CC1 (3D coordinates assigned)
CN1CCCN(Cc2cc(CC(=O)[N-]c3cccc(Cc4ccccc4)c3)ccc2O)CC1 (nonaromatic ring conformer: 87.59558439670474 kcal/mol)

>  <smiles>  (15) 
CN1CCCN(Cc2cc(CC(=O)Nc3cccc(Cc4ccccc4)c3)ccc2O)CC1

>  <score_type>  (15) 
oracle

>  <origin>  (15) 
adg

>  <m_score__min__energy>  (15) 
-8.3200000000000003

>  <m_primary>  (15) 
energy

$$$$
15:0
     RDKit          3D

 71 75  0  0  0  0  0  0  0  0999 V2000
   54.8700   24.4670   45.6450 C   0  0  0  0  0  0  0  0  0  0  0  0
   55.4710   25.5660   46.3220 O   0  0  0  0  0  0  0  0  0  0  0  0
   56.7740   26.0250   46.0830 C   0  0  0  0  0  0  0  0  0  0  0  0
   57.2220   26.0950   44.7580 C   0  0  0  0  0  0  0  0  0  0  0  0
   58.5010   26.5710   44.4670 C   0  0  0  0  0  0  0  0  0  0  0  0
   59.3500   26.9790   45.4980 C   0  0  0  0  0  0  0  0  0  0  0  0
   58.9280   26.8980   46.8340 C   0  0  0  0  0  0  0  0  0  0  0  0
   59.8420   27.3610   47.9460 C   0  0  0  0  0  0  0  0  0  0  0  0
   59.7820   28.8290   48.1410 N   0  0  2  0  0  0  0  0  0  0  0  0
   61.1390   29.3980   48.0600 C   0  0  0  0  0  0  0  0  0  0  0  0
   61.0980   30.9300   48.0770 C   0  0  0  0  0  0  0  0  0  0  0  0
   60.1540   31.5030   49.1220 C   0  0  0  0  0  0  0  0  0  0  0  0
   59.2360   30.6470   49.7600 C   0  0  0  0  0  0  0  0  0  0  0  0
   58.4060   31.1730   50.7580 C   0  0  0  0  0  0  0  0  0  0  0  0
   57.6210   30.4030   51.3800 O   0  0  0  0  0  0  0  0  0  0  0  0
   58.4420   32.5060   51.0610 N   0  0  0  0  0  0  0  0  0  0  0  0
   57.5910   33.0310   52.1510 C   0  0  0  0  0  0  0  0  0  0  0  0
   58.4320   33.3610   53.3590 C   0  0  0  0  0  0  0  0  0  0  0  0
   58.7230   32.3680   54.3100 C   0  0  0  0  0  0  0  0  0  0  0  0
   59.4660   32.6830   55.4530 C   0  0  0  0  0  0  0  0  0  0  0  0
   59.9190   33.9900   55.6540 C   0  0  0  0  0  0  0  0  0  0  0  0
   59.6360   34.9830   54.7130 C   0  0  0  0  0  0  0  0  0  0  0  0
   58.8920   34.6730   53.5700 C   0  0  0  0  0  0  0  0  0  0  0  0
   59.2900   33.3400   50.3800 C   0  0  0  0  0  0  0  0  0  0  0  0
   59.2880   34.5780   50.6390 O   0  0  0  0  0  0  0  0  0  0  0  0
   60.1390   32.8520   49.4120 N   0  0  0  0  0  0  0  0  0  0  0  0
   60.9630   33.8270   48.6580 C   0  0  0  0  0  0  0  0  0  0  0  0
   60.4890   33.9250   47.2310 C   0  0  0  0  0  0  0  0  0  0  0  0
   61.2380   33.5020   46.3110 O   0  0  0  0  0  0  0  0  0  0  0  0
   59.2330   34.5180   46.8760 N   0  0  0  0  0  0  0  0  0  0  0  0
   57.9340   33.8500   46.8630 C   0  0  0  0  0  0  0  0  0  0  0  0
   57.9500   32.6890   45.9060 C   0  0  0  0  0  0  0  0  0  0  0  0
   58.1440   31.3750   46.3680 C   0  0  0  0  0  0  0  0  0  0  0  0
   58.1370   30.3050   45.4670 C   0  0  0  0  0  0  0  0  0  0  0  0
   57.9480   30.5400   44.1010 C   0  0  0  0  0  0  0  0  0  0  0  0
   57.7630   31.8450   43.6330 C   0  0  0  0  0  0  0  0  0  0  0  0
   57.7630   32.9170   44.5310 C   0  0  0  0  0  0  0  0  0  0  0  0
   59.1870   29.1630   49.4540 C   0  0  0  0  0  0  0  0  0  0  0  0
   57.6380   26.4220   47.1230 C   0  0  0  0  0  0  0  0  0  0  0  0
   54.4786   23.7513   46.3830 H   0  0  0  0  0  0  0  0  0  0  0  0
   54.0455   24.8312   45.0145 H   0  0  0  0  0  0  0  0  0  0  0  0
   55.6215   23.9694   45.0145 H   0  0  0  0  0  0  0  0  0  0  0  0
   56.5606   25.7723   43.9404 H   0  0  0  0  0  0  0  0  0  0  0  0
   58.8415   26.6250   43.4224 H   0  0  0  0  0  0  0  0  0  0  0  0
   60.3527   27.3651   45.2622 H   0  0  0  0  0  0  0  0  0  0  0  0
   59.5417   26.8662   48.8814 H   0  0  0  0  0  0  0  0  0  0  0  0
   60.8734   27.0976   47.6690 H   0  0  0  0  0  0  0  0  0  0  0  0
   59.1950   29.2480   47.3790 H   0  0  0  0  0  0  0  0  0  0  0  0
   61.7282   29.0450   48.9192 H   0  0  0  0  0  0  0  0  0  0  0  0
   61.5984   29.0717   47.1153 H   0  0  0  0  0  0  0  0  0  0  0  0
   62.1122   31.3026   48.2832 H   0  0  0  0  0  0  0  0  0  0  0  0
   60.7249   31.2532   47.0940 H   0  0  0  0  0  0  0  0  0  0  0  0
   57.0793   33.9413   51.8054 H   0  0  0  0  0  0  0  0  0  0  0  0
   56.8516   32.2652   52.4281 H   0  0  0  0  0  0  0  0  0  0  0  0
   58.3653   31.3394   54.1552 H   0  0  0  0  0  0  0  0  0  0  0  0
   59.6937   31.9020   56.1935 H   0  0  0  0  0  0  0  0  0  0  0  0
   60.4996   34.2372   56.5550 H   0  0  0  0  0  0  0  0  0  0  0  0
   59.9986   36.0094   54.8711 H   0  0  0  0  0  0  0  0  0  0  0  0
   58.6659   35.4582   52.8335 H   0  0  0  0  0  0  0  0  0  0  0  0
   60.8823   34.8149   49.1351 H   0  0  0  0  0  0  0  0  0  0  0  0
   62.0095   33.4882   48.6632 H   0  0  0  0  0  0  0  0  0  0  0  0
   57.7053   33.4828   47.8744 H   0  0  0  0  0  0  0  0  0  0  0  0
   57.1668   34.5686   46.5389 H   0  0  0  0  0  0  0  0  0  0  0  0
   58.3016   31.1882   47.4405 H   0  0  0  0  0  0  0  0  0  0  0  0
   58.2803   29.2776   45.8330 H   0  0  0  0  0  0  0  0  0  0  0  0
   57.9449   29.6973   43.3940 H   0  0  0  0  0  0  0  0  0  0  0  0
   57.6174   32.0282   42.5582 H   0  0  0  0  0  0  0  0  0  0  0  0
   57.6162   33.9423   44.1605 H   0  0  0  0  0  0  0  0  0  0  0  0
   59.7395   28.6240   50.2377 H   0  0  0  0  0  0  0  0  0  0  0  0
   58.1284   28.8656   49.4235 H   0  0  0  0  0  0  0  0  0  0  0  0
   57.3003   26.3588   48.1680 H   0  0  0  0  0  0  0  0  0  0  0  0
  1  2  1  0
  2  3  1  0
  3  4  2  0
  4  5  1  0
  5  6  2  0
  6  7  1  0
  7  8  1  0
  8  9  1  0
  9 10  1  0
 10 11  1  0
 11 12  1  0
 12 13  2  0
 13 14  1  0
 14 15  2  0
 14 16  1  0
 16 17  1  0
 17 18  1  0
 18 19  2  0
 19 20  1  0
 20 21  2  0
 21 22  1  0
 22 23  2  0
 16 24  1  0
 24 25  2  0
 24 26  1  0
 26 27  1  0
 27 28  1  0
 28 29  2  0
 28 30  1  0
 30 31  1  0
 31 32  1  0
 32 33  2  0
 33 34  1  0
 34 35  2  0
 35 36  1  0
 36 37  2  0
 13 38  1  0
  7 39  2  0
 39  3  1  0
 38  9  1  0
 26 12  1  0
 37 32  1  0
 23 18  1  0
  1 40  1  0
  1 41  1  0
  1 42  1  0
  4 43  1  0
  5 44  1  0
  6 45  1  0
  8 46  1  0
  8 47  1  0
  9 48  1  6
 10 49  1  0
 10 50  1  0
 11 51  1  0
 11 52  1  0
 17 53  1  0
 17 54  1  0
 19 55  1  0
 20 56  1  0
 21 57  1  0
 22 58  1  0
 23 59  1  0
 27 60  1  0
 27 61  1  0
 31 62  1  0
 31 63  1  0
 33 64  1  0
 34 65  1  0
 35 66  1  0
 36 67  1  0
 37 68  1  0
 38 69  1  0
 38 70  1  0
 39 71  1  0
M  CHG  2   9   1  30  -1
M  END
>  <UniqueID>  (16) 
14

>  <SMILES>  (16) 
COc1cccc(C[N@@H+]2CCc3c(c(=O)n(Cc4ccccc4)c(=O)n3CC(=O)[N-]Cc3ccccc3)C2)c1

>  <Energy>  (16) 
89.42584141631329

>  <Genealogy>  (16) 
COc1cccc(C[NH+]2CCc3c(c(=O)n(Cc4ccccc4)c(=O)n3CC(=O)[N-]Cc3ccccc3)C2)c1 (protonated)
COc1cccc(C[N@@H+]2CCc3c(c(=O)n(Cc4ccccc4)c(=O)n3CC(=O)[N-]Cc3ccccc3)C2)c1 (chirality)
COc1cccc(C[N@@H+]2CCc3c(c(=O)n(Cc4ccccc4)c(=O)n3CC(=O)[N-]Cc3ccccc3)C2)c1 (3D coordinates assigned)
COc1cccc(C[N@@H+]2CCc3c(c(=O)n(Cc4ccccc4)c(=O)n3CC(=O)[N-]Cc3ccccc3)C2)c1 (nonaromatic ring conformer: 89.42584141631329 kcal/mol)

>  <smiles>  (16) 
COc1cccc(CN2CCc3c(c(=O)n(Cc4ccccc4)c(=O)n3CC(=O)NCc3ccccc3)C2)c1

>  <score_type>  (16) 
oracle

>  <origin>  (16) 
adg

>  <m_score__min__energy>  (16) 
-10.550000000000001

>  <m_primary>  (16) 
energy

$$$$
16:0
     RDKit          3D

 50 51  0  0  0  0  0  0  0  0999 V2000
   62.9250   34.4710   50.4810 C   0  0  0  0  0  0  0  0  0  0  0  0
   61.6630   34.4120   49.8250 O   0  0  0  0  0  0  0  0  0  0  0  0
   61.0360   33.2240   49.4220 C   0  0  0  0  0  0  0  0  0  0  0  0
   59.6660   33.0760   49.6740 C   0  0  0  0  0  0  0  0  0  0  0  0
   58.9970   31.9110   49.2940 C   0  0  0  0  0  0  0  0  0  0  0  0
   59.6820   30.8810   48.6350 C   0  0  0  0  0  0  0  0  0  0  0  0
   58.9700   29.6940   48.2560 N   0  0  0  0  0  0  0  0  0  0  0  0
   59.4250   28.3650   48.5530 C   0  0  0  0  0  0  0  0  0  0  0  0
   60.3600   28.1690   49.3750 O   0  0  0  0  0  0  0  0  0  0  0  0
   58.8440   27.2000   47.8090 C   0  0  0  0  0  0  0  0  0  0  0  0
   59.4870   27.0960   46.4940 N   0  0  0  0  0  0  0  0  0  0  0  0
   60.7580   26.3820   46.3440 C   0  0  0  0  0  0  0  0  0  0  0  0
   58.7900   27.5860   45.3330 C   0  0  0  0  0  0  0  0  0  0  0  0
   59.4360   27.8750   44.2900 O   0  0  0  0  0  0  0  0  0  0  0  0
   57.3100   27.8160   45.3650 C   0  0  0  0  0  0  0  0  0  0  0  0
   57.0220   29.1190   45.9570 N   0  0  0  0  0  0  0  0  0  0  0  0
   56.8490   30.3060   44.7000 S   0  0  0  0  0  0  0  0  0  0  0  0
   57.4040   29.7620   43.4130 O   0  0  0  0  0  0  0  0  0  0  0  0
   55.3910   30.6100   44.5030 O   0  0  0  0  0  0  0  0  0  0  0  0
   57.6890   31.7890   45.1520 C   0  0  0  0  0  0  0  0  0  0  0  0
   57.0160   33.0150   45.0830 C   0  0  0  0  0  0  0  0  0  0  0  0
   57.6550   34.1930   45.4850 C   0  0  0  0  0  0  0  0  0  0  0  0
   58.9710   34.1530   45.9680 C   0  0  0  0  0  0  0  0  0  0  0  0
   59.6490   35.4240   46.3870 C   0  0  0  0  0  0  0  0  0  0  0  0
   59.6470   32.9250   46.0300 C   0  0  0  0  0  0  0  0  0  0  0  0
   59.0070   31.7490   45.6300 C   0  0  0  0  0  0  0  0  0  0  0  0
   61.0600   31.0170   48.3960 C   0  0  0  0  0  0  0  0  0  0  0  0
   61.7320   32.1810   48.7820 C   0  0  0  0  0  0  0  0  0  0  0  0
   62.7727   34.4639   51.5704 H   0  0  0  0  0  0  0  0  0  0  0  0
   63.5307   33.6002   50.1898 H   0  0  0  0  0  0  0  0  0  0  0  0
   63.4468   35.3945   50.1898 H   0  0  0  0  0  0  0  0  0  0  0  0
   59.1130   33.8840   50.1752 H   0  0  0  0  0  0  0  0  0  0  0  0
   57.9248   31.8007   49.5133 H   0  0  0  0  0  0  0  0  0  0  0  0
   58.2160   29.7950   47.5390 H   0  0  0  0  0  0  0  0  0  0  0  0
   59.0200   26.2754   48.3784 H   0  0  0  0  0  0  0  0  0  0  0  0
   57.7616   27.3476   47.6797 H   0  0  0  0  0  0  0  0  0  0  0  0
   61.1685   26.1514   47.3381 H   0  0  0  0  0  0  0  0  0  0  0  0
   60.5898   25.4463   45.7907 H   0  0  0  0  0  0  0  0  0  0  0  0
   61.4696   27.0124   45.7907 H   0  0  0  0  0  0  0  0  0  0  0  0
   56.9140   27.7860   44.3392 H   0  0  0  0  0  0  0  0  0  0  0  0
   56.8346   27.0303   45.9704 H   0  0  0  0  0  0  0  0  0  0  0  0
   55.9813   33.0521   44.7114 H   0  0  0  0  0  0  0  0  0  0  0  0
   57.1233   35.1539   45.4220 H   0  0  0  0  0  0  0  0  0  0  0  0
   59.6784   35.4791   47.4852 H   0  0  0  0  0  0  0  0  0  0  0  0
   60.6753   35.4397   45.9915 H   0  0  0  0  0  0  0  0  0  0  0  0
   59.0904   36.2851   45.9915 H   0  0  0  0  0  0  0  0  0  0  0  0
   60.6841   32.8879   46.3947 H   0  0  0  0  0  0  0  0  0  0  0  0
   59.5390   30.7881   45.6902 H   0  0  0  0  0  0  0  0  0  0  0  0
   61.6128   30.2039   47.9029 H   0  0  0  0  0  0  0  0  0  0  0  0
   62.8094   32.2821   48.5847 H   0  0  0  0  0  0  0  0  0  0  0  0
  1  2  1  0
  2  3  1  0
  3  4  2  0
  4  5  1  0
  5  6  2  0
  6  7  1  0
  7  8  1  0
  8  9  2  0
  8 10  1  0
 10 11  1  0
 11 12  1  0
 11 13  1  0
 13 14  2  0
 13 15  1  0
 15 16  1  0
 16 17  1  0
 17 18  2  0
 17 19  2  0
 17 20  1  0
 20 21  2  0
 21 22  1  0
 22 23  2  0
 23 24  1  0
 23 25  1  0
 25 26  2  0
  6 27  1  0
 27 28  2  0
 28  3  1  0
 26 20  1  0
  1 29  1  0
  1 30  1  0
  1 31  1  0
  4 32  1  0
  5 33  1  0
  7 34  1  0
 10 35  1  0
 10 36  1  0
 12 37  1  0
 12 38  1  0
 12 39  1  0
 15 40  1  0
 15 41  1  0
 21 42  1  0
 22 43  1  0
 24 44  1  0
 24 45  1  0
 24 46  1  0
 25 47  1  0
 26 48  1  0
 27 49  1  0
 28 50  1  0
M  CHG  1  16  -1
M  END
>  <UniqueID>  (17) 
15

>  <SMILES>  (17) 
COc1ccc(NC(=O)CN(C)C(=O)C[N-]S(=O)(=O)c2ccc(C)cc2)cc1

>  <Energy>  (17) 
45.060139631044166

>  <Genealogy>  (17) 
COc1ccc(NC(=O)CN(C)C(=O)C[N-]S(=O)(=O)c2ccc(C)cc2)cc1 (protonated)
COc1ccc(NC(=O)CN(C)C(=O)C[N-]S(=O)(=O)c2ccc(C)cc2)cc1 (3D coordinates assigned)
COc1ccc(NC(=O)CN(C)C(=O)C[N-]S(=O)(=O)c2ccc(C)cc2)cc1 (optimized conformer: 45.060139631044166 kcal/mol)

>  <smiles>  (17) 
COc1ccc(NC(=O)CN(C)C(=O)CNS(=O)(=O)c2ccc(C)cc2)cc1

>  <score_type>  (17) 
oracle

>  <origin>  (17) 
adg

>  <m_score__min__energy>  (17) 
-9.6899999999999995

>  <m_primary>  (17) 
energy

$$$$
17:0
     RDKit          3D

 25 26  0  0  0  0  0  0  0  0999 V2000
   57.7831   27.7680   44.4879 H   0  0  0  0  0  0  0  0  0  0  0  0
   57.6400   27.6940   45.5760 C   0  0  0  0  0  0  0  0  0  0  0  0
   57.8570   28.7810   46.3240 C   0  0  0  0  0  0  0  0  0  0  0  0
   57.1826   29.0021   47.1644 H   0  0  0  0  0  0  0  0  0  0  0  0
   59.0040   29.7040   46.0370 C   0  0  0  0  0  0  0  0  0  0  0  0
   59.4623   29.4239   45.0770 H   0  0  0  0  0  0  0  0  0  0  0  0
   59.7410   29.6180   46.8491 H   0  0  0  0  0  0  0  0  0  0  0  0
   58.5400   31.0950   45.9630 N   0  0  0  0  0  0  0  0  0  0  0  0
   59.1910   32.0200   46.6750 N   0  0  0  0  0  0  0  0  0  0  0  0
   58.8130   33.3240   46.6790 C   0  0  0  0  0  0  0  0  0  0  0  0
   59.4550   34.1650   47.3610 O   0  0  0  0  0  0  0  0  0  0  0  0
   57.7100   33.7230   45.9270 C   0  0  0  0  0  0  0  0  0  0  0  0
   57.3911   34.7757   45.9184 H   0  0  0  0  0  0  0  0  0  0  0  0
   57.0180   32.7690   45.1870 C   0  0  0  0  0  0  0  0  0  0  0  0
   56.1434   33.0595   44.5864 H   0  0  0  0  0  0  0  0  0  0  0  0
   57.4440   31.4400   45.2140 C   0  0  0  0  0  0  0  0  0  0  0  0
   56.8130   30.5720   44.5510 O   0  0  0  0  0  0  0  0  0  0  0  0
   57.2170   26.3990   46.1450 C   0  0  0  0  0  0  0  0  0  0  0  0
   55.9160   25.9850   46.3260 C   0  0  0  0  0  0  0  0  0  0  0  0
   54.7790   26.7160   46.0040 O   0  0  0  0  0  0  0  0  0  0  0  0
   55.8820   24.7520   46.8650 N   0  0  0  0  0  0  0  0  0  0  0  0
   57.1910   24.4470   46.9990 C   0  0  0  0  0  0  0  0  0  0  0  0
   57.5920   23.3540   47.4760 O   0  0  0  0  0  0  0  0  0  0  0  0
   58.0280   25.4150   46.5760 N   0  0  0  0  0  0  0  0  0  0  0  0
   59.0710   25.3860   46.5880 H   0  0  0  0  0  0  0  0  0  0  0  0
  1  2  1  0
  2  3  2  0
  3  4  1  0
  3  5  1  0
  5  6  1  0
  5  7  1  0
  5  8  1  0
  8  9  1  0
  9 10  1  0
 10 11  2  0
 10 12  1  0
 12 13  1  0
 12 14  2  0
 14 15  1  0
 14 16  1  0
 16 17  2  0
  2 18  1  0
 18 19  2  0
 19 20  1  0
 19 21  1  0
 21 22  1  0
 22 23  2  0
 22 24  1  0
 24 25  1  0
 16  8  1  0
 24 18  1  0
M  CHG  3   9  -1  20  -1  21  -1
M  END
>  <UniqueID>  (18) 
16

>  <SMILES>  (18) 
O=c1ccc(=O)n(C/C=C/c2[nH]c(=O)[n-]c2[O-])[n-]1

>  <Energy>  (18) 
55.75418493937878

>  <Genealogy>  (18) 
O=c1ccc(=O)n(CC=Cc2[nH]c(=O)[n-]c2[O-])[n-]1 (protonated)
O=c1ccc(=O)n(C/C=C/c2[nH]c(=O)[n-]c2[O-])[n-]1 (cis-trans isomerization)
O=c1ccc(=O)n(C/C=C/c2[nH]c(=O)[n-]c2[O-])[n-]1 (3D coordinates assigned)
O=c1ccc(=O)n(C/C=C/c2[nH]c(=O)[n-]c2[O-])[n-]1 (optimized conformer: 55.75418493937878 kcal/mol)

>  <smiles>  (18) 
O=c1ccc(=O)n(CC=Cc2[nH]c(=O)[nH]c2O)[nH]1

>  <score_type>  (18) 
oracle

>  <origin>  (18) 
adg

>  <m_score__min__energy>  (18) 
-13.91

>  <m_primary>  (18) 
energy

$$$$
18:0
     RDKit          3D

 40 42  0  0  0  0  0  0  0  0999 V2000
   61.2674   34.7200   46.5139 H   0  0  0  0  0  0  0  0  0  0  0  0
   60.4800   33.9900   46.2750 C   0  0  0  0  0  0  0  0  0  0  0  0
   59.5710   34.2590   45.2560 C   0  0  0  0  0  0  0  0  0  0  0  0
   59.6414   35.1999   44.6905 H   0  0  0  0  0  0  0  0  0  0  0  0
   58.5720   33.3370   44.9520 C   0  0  0  0  0  0  0  0  0  0  0  0
   57.8562   33.5560   44.1459 H   0  0  0  0  0  0  0  0  0  0  0  0
   58.4690   32.1290   45.6650 C   0  0  0  0  0  0  0  0  0  0  0  0
   57.3910   31.1810   45.2940 C   0  0  0  0  0  0  0  0  0  0  0  0
   56.2720   31.5000   44.6080 N   0  0  0  0  0  0  0  0  0  0  0  0
   55.5640   30.3870   44.4950 N   0  0  0  0  0  0  0  0  0  0  0  0
   56.2780   29.4350   45.1180 C   0  0  0  0  0  0  0  0  0  0  0  0
   55.8940   28.1970   45.2050 N   0  0  0  0  0  0  0  0  0  0  0  0
   56.5670   27.1700   45.9520 C   0  0  0  0  0  0  0  0  0  0  0  0
   55.8930   26.1920   46.3710 O   0  0  0  0  0  0  0  0  0  0  0  0
   58.0110   27.2400   46.2760 C   0  0  0  0  0  0  0  0  0  0  0  0
   58.4870   26.8390   47.5380 C   0  0  0  0  0  0  0  0  0  0  0  0
   57.7821   26.4654   48.2954 H   0  0  0  0  0  0  0  0  0  0  0  0
   59.8510   26.9130   47.8340 C   0  0  0  0  0  0  0  0  0  0  0  0
   60.2147   26.6100   48.8270 H   0  0  0  0  0  0  0  0  0  0  0  0
   60.7530   27.3710   46.8710 C   0  0  0  0  0  0  0  0  0  0  0  0
   61.8253   27.4341   47.1080 H   0  0  0  0  0  0  0  0  0  0  0  0
   60.2940   27.7490   45.6070 C   0  0  0  0  0  0  0  0  0  0  0  0
   61.1710   28.1880   44.6710 F   0  0  0  0  0  0  0  0  0  0  0  0
   58.9300   27.6790   45.3060 C   0  0  0  0  0  0  0  0  0  0  0  0
   58.5743   27.9686   44.3062 H   0  0  0  0  0  0  0  0  0  0  0  0
   57.3990   29.9060   45.6050 O   0  0  0  0  0  0  0  0  0  0  0  0
   59.3920   31.8490   46.7040 C   0  0  0  0  0  0  0  0  0  0  0  0
   59.2630   30.6320   47.4050 O   0  0  0  0  0  0  0  0  0  0  0  0
   59.0930   30.3920   48.8090 C   0  0  0  0  0  0  0  0  0  0  0  0
   58.3258   29.6092   48.9013 H   0  0  0  0  0  0  0  0  0  0  0  0
   58.5250   31.6080   49.5500 C   0  0  0  0  0  0  0  0  0  0  0  0
   58.6013   31.4447   50.6351 H   0  0  0  0  0  0  0  0  0  0  0  0
   59.0968   32.5060   49.2733 H   0  0  0  0  0  0  0  0  0  0  0  0
   57.4693   31.7458   49.2733 H   0  0  0  0  0  0  0  0  0  0  0  0
   60.3510   29.8080   49.4640 C   0  0  0  0  0  0  0  0  0  0  0  0
   60.2500   29.8549   50.5584 H   0  0  0  0  0  0  0  0  0  0  0  0
   60.4744   28.7605   49.1517 H   0  0  0  0  0  0  0  0  0  0  0  0
   61.2308   30.3898   49.1517 H   0  0  0  0  0  0  0  0  0  0  0  0
   60.3960   32.7970   46.9950 C   0  0  0  0  0  0  0  0  0  0  0  0
   61.1201   32.5937   47.7977 H   0  0  0  0  0  0  0  0  0  0  0  0
  1  2  1  0
  2  3  2  0
  3  4  1  0
  3  5  1  0
  5  6  1  0
  5  7  2  0
  7  8  1  0
  8  9  2  0
  9 10  1  0
 10 11  1  0
 11 12  2  0
 12 13  1  0
 13 14  2  0
 13 15  1  0
 15 16  2  0
 16 17  1  0
 16 18  1  0
 18 19  1  0
 18 20  2  0
 20 21  1  0
 20 22  1  0
 22 23  1  0
 22 24  2  0
 24 25  1  0
 11 26  1  0
  7 27  1  0
 27 28  1  0
 28 29  1  0
 29 30  1  0
 29 31  1  0
 31 32  1  0
 31 33  1  0
 31 34  1  0
 29 35  1  0
 35 36  1  0
 35 37  1  0
 35 38  1  0
 27 39  2  0
 39 40  1  0
 39  2  1  0
 26  8  1  0
 24 15  1  0
M  CHG  1  10  -1
M  END
>  <UniqueID>  (19) 
17

>  <SMILES>  (19) 
CC(C)Oc1ccccc1-c1n[n-]/c(=N/C(=O)c2cccc(F)c2)o1

>  <Energy>  (19) 
86.86866559374742

>  <Genealogy>  (19) 
CC(C)Oc1ccccc1-c1n[n-]c(=NC(=O)c2cccc(F)c2)o1 (protonated)
CC(C)Oc1ccccc1-c1n[n-]/c(=N/C(=O)c2cccc(F)c2)o1 (cis-trans isomerization)
CC(C)Oc1ccccc1-c1n[n-]/c(=N/C(=O)c2cccc(F)c2)o1 (3D coordinates assigned)
CC(C)Oc1ccccc1-c1n[n-]/c(=N/C(=O)c2cccc(F)c2)o1 (optimized conformer: 86.86866559374742 kcal/mol)

>  <smiles>  (19) 
CC(C)Oc1ccccc1-c1n[nH]c(=NC(=O)c2cccc(F)c2)o1

>  <score_type>  (19) 
oracle

>  <origin>  (19) 
adg

>  <m_score__min__energy>  (19) 
-9.4100000000000001

>  <m_primary>  (19) 
energy

$$$$
19:0
     RDKit          3D

 52 55  0  0  0  0  0  0  0  0999 V2000
   59.5900   22.7020   44.9080 C   0  0  0  0  0  0  0  0  0  0  0  0
   59.7680   24.0200   45.6550 C   0  0  0  0  0  0  0  0  0  0  0  0
   58.4430   24.7220   45.8210 C   0  0  0  0  0  0  0  0  0  0  0  0
   58.3480   26.0950   45.5380 C   0  0  0  0  0  0  0  0  0  0  0  0
   57.1260   26.7690   45.6730 C   0  0  0  0  0  0  0  0  0  0  0  0
   57.0280   28.1950   45.3060 C   0  0  0  0  0  0  0  0  0  0  0  0
   55.8790   28.7820   44.9120 N   0  0  0  0  0  0  0  0  0  0  0  0
   56.1660   30.0400   44.6060 N   0  0  0  0  0  0  0  0  0  0  0  0
   57.4860   30.1890   44.8110 C   0  0  0  0  0  0  0  0  0  0  0  0
   58.1050   31.2640   44.5910 O   0  0  0  0  0  0  0  0  0  0  0  0
   58.0680   29.0580   45.2520 N   0  0  0  0  0  0  0  0  0  0  0  0
   59.4960   28.8070   45.4790 C   0  0  0  0  0  0  0  0  0  0  0  0
   59.8850   29.1990   46.8810 C   0  0  0  0  0  0  0  0  0  0  0  0
   59.3640   28.4940   47.9780 C   0  0  0  0  0  0  0  0  0  0  0  0
   59.6580   28.9010   49.2830 C   0  0  0  0  0  0  0  0  0  0  0  0
   60.4880   30.0110   49.5050 C   0  0  0  0  0  0  0  0  0  0  0  0
   60.7650   30.4630   50.8830 C   0  0  0  0  0  0  0  0  0  0  0  0
   62.0680   30.3120   51.3860 C   0  0  0  0  0  0  0  0  0  0  0  0
   62.3740   30.6930   52.6920 C   0  0  0  0  0  0  0  0  0  0  0  0
   61.3810   31.2290   53.5130 C   0  0  0  0  0  0  0  0  0  0  0  0
   60.0850   31.3960   53.0270 C   0  0  0  0  0  0  0  0  0  0  0  0
   59.7640   31.0290   51.7090 C   0  0  0  0  0  0  0  0  0  0  0  0
   58.1180   31.3260   51.1210 S   0  0  0  0  0  0  0  0  0  0  0  0
   57.4190   32.6530   51.9800 N   0  0  0  0  0  0  0  0  0  0  0  0
   57.2720   30.1000   51.3110 O   0  0  0  0  0  0  0  0  0  0  0  0
   58.1490   31.6550   49.6550 O   0  0  0  0  0  0  0  0  0  0  0  0
   61.0120   30.7130   48.4120 C   0  0  0  0  0  0  0  0  0  0  0  0
   60.7220   30.3050   47.1080 C   0  0  0  0  0  0  0  0  0  0  0  0
   55.9960   26.0700   46.1240 C   0  0  0  0  0  0  0  0  0  0  0  0
   54.7690   26.7120   46.2500 O   0  0  0  0  0  0  0  0  0  0  0  0
   56.0910   24.7090   46.4320 C   0  0  0  0  0  0  0  0  0  0  0  0
   57.3080   24.0310   46.2840 C   0  0  0  0  0  0  0  0  0  0  0  0
   57.3910   22.6750   46.6010 O   0  0  0  0  0  0  0  0  0  0  0  0
   59.4792   21.8819   45.6327 H   0  0  0  0  0  0  0  0  0  0  0  0
   58.6911   22.7570   44.2763 H   0  0  0  0  0  0  0  0  0  0  0  0
   60.4713   22.5166   44.2763 H   0  0  0  0  0  0  0  0  0  0  0  0
   60.1962   23.8174   46.6478 H   0  0  0  0  0  0  0  0  0  0  0  0
   60.4410   24.6677   45.0740 H   0  0  0  0  0  0  0  0  0  0  0  0
   59.2407   26.6462   45.2074 H   0  0  0  0  0  0  0  0  0  0  0  0
   59.7032   27.7368   45.3318 H   0  0  0  0  0  0  0  0  0  0  0  0
   60.0802   29.4081   44.7667 H   0  0  0  0  0  0  0  0  0  0  0  0
   58.7214   27.6172   47.8099 H   0  0  0  0  0  0  0  0  0  0  0  0
   59.2380   28.3502   50.1375 H   0  0  0  0  0  0  0  0  0  0  0  0
   62.8544   29.8892   50.7435 H   0  0  0  0  0  0  0  0  0  0  0  0
   63.3979   30.5711   53.0750 H   0  0  0  0  0  0  0  0  0  0  0  0
   61.6214   31.5204   54.5461 H   0  0  0  0  0  0  0  0  0  0  0  0
   59.3075   31.8184   53.6805 H   0  0  0  0  0  0  0  0  0  0  0  0
   56.5820   32.9610   51.4340 H   0  0  0  0  0  0  0  0  0  0  0  0
   61.6547   31.5895   48.5813 H   0  0  0  0  0  0  0  0  0  0  0  0
   61.1505   30.8517   46.2551 H   0  0  0  0  0  0  0  0  0  0  0  0
   55.2042   24.1673   46.7929 H   0  0  0  0  0  0  0  0  0  0  0  0
   57.7520   22.3590   47.4930 H   0  0  0  0  0  0  0  0  0  0  0  0
  1  2  1  0
  2  3  1  0
  3  4  2  0
  4  5  1  0
  5  6  1  0
  6  7  2  0
  7  8  1  0
  8  9  1  0
  9 10  2  0
  9 11  1  0
 11 12  1  0
 12 13  1  0
 13 14  2  0
 14 15  1  0
 15 16  2  0
 16 17  1  0
 17 18  2  0
 18 19  1  0
 19 20  2  0
 20 21  1  0
 21 22  2  0
 22 23  1  0
 23 24  1  0
 23 25  2  0
 23 26  2  0
 16 27  1  0
 27 28  2  0
  5 29  2  0
 29 30  1  0
 29 31  1  0
 31 32  2  0
 32 33  1  0
 32  3  1  0
 11  6  1  0
 28 13  1  0
 22 17  1  0
  1 34  1  0
  1 35  1  0
  1 36  1  0
  2 37  1  0
  2 38  1  0
  4 39  1  0
 12 40  1  0
 12 41  1  0
 14 42  1  0
 15 43  1  0
 18 44  1  0
 19 45  1  0
 20 46  1  0
 21 47  1  0
 24 48  1  0
 27 49  1  0
 28 50  1  0
 31 51  1  0
 33 52  1  0
M  CHG  3   8  -1  24  -1  30  -1
M  END
>  <UniqueID>  (20) 
18

>  <SMILES>  (20) 
CCc1cc(-c2n[n-]c(=O)n2Cc2ccc(-c3ccccc3S([NH-])(=O)=O)cc2)c([O-])cc1O

>  <Energy>  (20) 
100.49938838578508

>  <Genealogy>  (20) 
CCc1cc(-c2n[n-]c(=O)n2Cc2ccc(-c3ccccc3S([NH-])(=O)=O)cc2)c([O-])cc1O (protonated)
CCc1cc(-c2n[n-]c(=O)n2Cc2ccc(-c3ccccc3S([NH-])(=O)=O)cc2)c([O-])cc1O (3D coordinates assigned)
CCc1cc(-c2n[n-]c(=O)n2Cc2ccc(-c3ccccc3S([NH-])(=O)=O)cc2)c([O-])cc1O (optimized conformer: 100.49938838578508 kcal/mol)

>  <smiles>  (20) 
CCc1cc(-c2n[nH]c(=O)n2Cc2ccc(-c3ccccc3S(N)(=O)=O)cc2)c(O)cc1O

>  <score_type>  (20) 
oracle

>  <origin>  (20) 
adg

>  <m_score__min__energy>  (20) 
-15.06

>  <m_primary>  (20) 
energy

$$$$
20:0
     RDKit          3D

 49 51  0  0  0  0  0  0  0  0999 V2000
   55.5360   28.7200   44.9540 O   0  0  0  0  0  0  0  0  0  0  0  0
   56.4890   29.4090   44.5030 C   0  0  0  0  0  0  0  0  0  0  0  0
   56.3590   30.8360   44.4770 N   0  0  0  0  0  0  0  0  0  0  0  0
   57.3080   31.8020   44.9540 C   0  0  0  0  0  0  0  0  0  0  0  0
   58.4630   31.3460   45.6030 C   0  0  0  0  0  0  0  0  0  0  0  0
   59.3780   32.2530   46.1460 C   0  0  0  0  0  0  0  0  0  0  0  0
   59.1470   33.6310   46.0480 C   0  0  0  0  0  0  0  0  0  0  0  0
   60.2670   34.7710   46.7860 S   0  0  0  0  0  0  0  0  0  0  0  0
   59.9760   36.1710   46.3220 O   0  0  0  0  0  0  0  0  0  0  0  0
   61.6710   34.4190   46.3830 O   0  0  0  0  0  0  0  0  0  0  0  0
   60.1330   34.6860   48.5120 N   0  0  0  0  0  0  0  0  0  0  0  0
   60.0590   33.5680   49.1650 C   0  0  0  0  0  0  0  0  0  0  0  0
   58.8990   33.0020   49.5650 N   0  0  0  0  0  0  0  0  0  0  0  0
   59.1190   31.8320   50.2190 C   0  0  0  0  0  0  0  0  0  0  0  0
   60.4550   31.4660   50.3430 C   0  0  0  0  0  0  0  0  0  0  0  0
   61.3940   32.6520   49.6040 S   0  0  0  0  0  0  0  0  0  0  0  0
   57.9890   34.0930   45.4090 C   0  0  0  0  0  0  0  0  0  0  0  0
   57.0720   33.1860   44.8760 C   0  0  0  0  0  0  0  0  0  0  0  0
   57.7010   28.7660   44.0780 N   0  0  0  0  0  0  0  0  0  0  0  0
   57.7770   27.3420   43.7490 C   0  0  0  0  0  0  0  0  0  0  0  0
   58.4350   26.5520   44.8930 C   0  0  0  0  0  0  0  0  0  0  0  0
   57.9620   26.9880   46.2860 C   0  0  0  0  0  0  0  0  0  0  0  0
   56.8640   26.1470   46.7580 N   0  0  0  0  0  0  0  0  0  0  0  0
   55.9000   25.4760   45.9350 C   0  0  0  0  0  0  0  0  0  0  0  0
   54.7190   25.9110   45.9160 O   0  0  0  0  0  0  0  0  0  0  0  0
   56.2490   24.3120   45.0930 C   0  0  0  0  0  0  0  0  0  0  0  0
   55.5660   24.0910   43.8860 C   0  0  0  0  0  0  0  0  0  0  0  0
   55.9080   23.0080   43.0680 C   0  0  0  0  0  0  0  0  0  0  0  0
   56.9470   22.1500   43.4410 C   0  0  0  0  0  0  0  0  0  0  0  0
   57.2810   21.1060   42.6440 F   0  0  0  0  0  0  0  0  0  0  0  0
   57.6470   22.3770   44.6280 C   0  0  0  0  0  0  0  0  0  0  0  0
   57.3040   23.4560   45.4490 C   0  0  0  0  0  0  0  0  0  0  0  0
   58.6514   30.2654   45.6860 H   0  0  0  0  0  0  0  0  0  0  0  0
   60.2821   31.8832   46.6518 H   0  0  0  0  0  0  0  0  0  0  0  0
   58.2996   31.2183   50.6215 H   0  0  0  0  0  0  0  0  0  0  0  0
   60.8326   30.5591   50.8380 H   0  0  0  0  0  0  0  0  0  0  0  0
   57.8020   35.1739   45.3271 H   0  0  0  0  0  0  0  0  0  0  0  0
   56.1571   33.5568   44.3909 H   0  0  0  0  0  0  0  0  0  0  0  0
   58.5630   29.3420   43.9530 H   0  0  0  0  0  0  0  0  0  0  0  0
   56.7607   26.9557   43.5818 H   0  0  0  0  0  0  0  0  0  0  0  0
   58.3863   27.2217   42.8411 H   0  0  0  0  0  0  0  0  0  0  0  0
   58.1976   25.4859   44.7621 H   0  0  0  0  0  0  0  0  0  0  0  0
   59.5164   26.7467   44.8418 H   0  0  0  0  0  0  0  0  0  0  0  0
   58.8026   26.9099   46.9912 H   0  0  0  0  0  0  0  0  0  0  0  0
   57.6038   28.0261   46.2233 H   0  0  0  0  0  0  0  0  0  0  0  0
   54.7580   24.7726   43.5819 H   0  0  0  0  0  0  0  0  0  0  0  0
   55.3591   22.8318   42.1312 H   0  0  0  0  0  0  0  0  0  0  0  0
   58.4693   21.7062   44.9176 H   0  0  0  0  0  0  0  0  0  0  0  0
   57.8637   23.6352   46.3788 H   0  0  0  0  0  0  0  0  0  0  0  0
  1  2  2  0
  2  3  1  0
  3  4  1  0
  4  5  2  0
  5  6  1  0
  6  7  2  0
  7  8  1  0
  8  9  2  0
  8 10  2  0
  8 11  1  0
 11 12  2  3
 12 13  1  0
 13 14  1  0
 14 15  2  0
 15 16  1  0
  7 17  1  0
 17 18  2  0
  2 19  1  0
 19 20  1  0
 20 21  1  0
 21 22  1  0
 22 23  1  0
 23 24  1  0
 24 25  2  0
 24 26  1  0
 26 27  2  0
 27 28  1  0
 28 29  2  0
 29 30  1  0
 29 31  1  0
 31 32  2  0
 18  4  1  0
 32 26  1  0
 16 12  1  0
  5 33  1  0
  6 34  1  0
 14 35  1  0
 15 36  1  0
 17 37  1  0
 18 38  1  0
 19 39  1  0
 20 40  1  0
 20 41  1  0
 21 42  1  0
 21 43  1  0
 22 44  1  0
 22 45  1  0
 27 46  1  0
 28 47  1  0
 31 48  1  0
 32 49  1  0
M  CHG  3   3  -1  13  -1  23  -1
M  END
>  <UniqueID>  (21) 
19

>  <SMILES>  (21) 
O=C([N-]c1ccc(S(=O)(=O)N=c2[n-]ccs2)cc1)NCCC[N-]C(=O)c1ccc(F)cc1

>  <Energy>  (21) 
86.44611720164903

>  <Genealogy>  (21) 
O=C([N-]c1ccc(S(=O)(=O)N=c2[n-]ccs2)cc1)NCCC[N-]C(=O)c1ccc(F)cc1 (protonated)
O=C([N-]c1ccc(S(=O)(=O)N=c2[n-]ccs2)cc1)NCCC[N-]C(=O)c1ccc(F)cc1 (3D coordinates assigned)
O=C([N-]c1ccc(S(=O)(=O)N=c2[n-]ccs2)cc1)NCCC[N-]C(=O)c1ccc(F)cc1 (optimized conformer: 86.44611720164903 kcal/mol)

>  <smiles>  (21) 
O=C(NCCCNC(=O)c1ccc(F)cc1)Nc1ccc(S(=O)(=O)N=c2[nH]ccs2)cc1

>  <score_type>  (21) 
oracle

>  <origin>  (21) 
adg

>  <m_score__min__energy>  (21) 
-13.83

>  <m_primary>  (21) 
energy

$$$$
21:0
     RDKit          3D

 53 56  0  0  0  0  0  0  0  0999 V2000
   59.1551   24.8527   46.3287 H   0  0  0  0  0  0  0  0  0  0  0  0
   58.7020   25.8550   46.3380 C   0  0  0  0  0  0  0  0  0  0  0  0
   59.5360   27.3140   46.3150 S   0  0  0  0  0  0  0  0  0  0  0  0
   58.1360   28.2450   46.3650 C   0  0  0  0  0  0  0  0  0  0  0  0
   58.0590   29.5430   46.3220 N   0  0  0  0  0  0  0  0  0  0  0  0
   57.3940   30.3710   45.3530 C   0  0  0  0  0  0  0  0  0  0  0  0
   56.2840   29.9730   44.9050 O   0  0  0  0  0  0  0  0  0  0  0  0
   57.9070   31.7510   44.9690 C   0  0  1  0  0  0  0  0  0  0  0  0
   58.0443   31.7481   43.8776 H   0  0  0  0  0  0  0  0  0  0  0  0
   56.9040   32.8640   45.3120 C   0  0  0  0  0  0  0  0  0  0  0  0
   55.9589   32.6649   44.7855 H   0  0  0  0  0  0  0  0  0  0  0  0
   56.7594   32.8666   46.4024 H   0  0  0  0  0  0  0  0  0  0  0  0
   57.4200   34.2530   44.8980 C   0  0  0  0  0  0  0  0  0  0  0  0
   56.8931   34.5637   43.9837 H   0  0  0  0  0  0  0  0  0  0  0  0
   57.2279   34.9372   45.7376 H   0  0  0  0  0  0  0  0  0  0  0  0
   58.9350   34.2790   44.6230 C   0  0  0  0  0  0  0  0  0  0  0  0
   59.1131   33.8984   43.6064 H   0  0  0  0  0  0  0  0  0  0  0  0
   59.2719   35.3199   44.7373 H   0  0  0  0  0  0  0  0  0  0  0  0
   59.7110   33.4560   45.5770 N   0  0  1  0  0  0  0  0  0  0  0  0
   60.6980   33.4530   45.2260 H   0  0  0  0  0  0  0  0  0  0  0  0
   59.7900   34.2050   47.1590 S   0  0  0  0  0  0  0  0  0  0  0  0
   58.7330   33.6110   48.0460 O   0  0  0  0  0  0  0  0  0  0  0  0
   59.5470   35.6860   47.0580 O   0  0  0  0  0  0  0  0  0  0  0  0
   61.3530   33.9250   47.9060 C   0  0  0  0  0  0  0  0  0  0  0  0
   62.7300   33.4230   47.0890 S   0  0  0  0  0  0  0  0  0  0  0  0
   63.7450   33.4480   48.4300 C   0  0  0  0  0  0  0  0  0  0  0  0
   64.8124   33.1823   48.4329 H   0  0  0  0  0  0  0  0  0  0  0  0
   63.0080   33.8610   49.5340 C   0  0  0  0  0  0  0  0  0  0  0  0
   63.4378   33.9648   50.5412 H   0  0  0  0  0  0  0  0  0  0  0  0
   61.6670   34.1320   49.2410 C   0  0  0  0  0  0  0  0  0  0  0  0
   60.9382   34.4734   49.9908 H   0  0  0  0  0  0  0  0  0  0  0  0
   59.2590   32.0380   45.6670 C   0  0  0  0  0  0  0  0  0  0  0  0
   60.0273   31.4021   45.2030 H   0  0  0  0  0  0  0  0  0  0  0  0
   59.1119   31.8231   46.7357 H   0  0  0  0  0  0  0  0  0  0  0  0
   57.0330   27.4670   46.3790 N   0  0  0  0  0  0  0  0  0  0  0  0
   57.3310   26.1360   46.3710 C   0  0  0  0  0  0  0  0  0  0  0  0
   56.2570   25.1040   46.3830 C   0  0  0  0  0  0  0  0  0  0  0  0
   56.2960   24.0020   47.2600 C   0  0  0  0  0  0  0  0  0  0  0  0
   57.1351   23.8948   47.9632 H   0  0  0  0  0  0  0  0  0  0  0  0
   55.2780   23.0430   47.2450 C   0  0  0  0  0  0  0  0  0  0  0  0
   55.3194   22.1901   47.9384 H   0  0  0  0  0  0  0  0  0  0  0  0
   54.2080   23.1630   46.3530 C   0  0  0  0  0  0  0  0  0  0  0  0
   52.9220   21.9610   46.3410 S   0  0  0  0  0  0  0  0  0  0  0  0
   53.4870   20.6080   46.0160 O   0  0  0  0  0  0  0  0  0  0  0  0
   51.9030   22.3200   45.2960 O   0  0  0  0  0  0  0  0  0  0  0  0
   52.1450   21.9070   47.9400 C   0  0  0  0  0  0  0  0  0  0  0  0
   52.9149   21.9605   48.7238 H   0  0  0  0  0  0  0  0  0  0  0  0
   51.4575   22.7595   48.0426 H   0  0  0  0  0  0  0  0  0  0  0  0
   51.5820   20.9676   48.0426 H   0  0  0  0  0  0  0  0  0  0  0  0
   54.1530   24.2580   45.4850 C   0  0  0  0  0  0  0  0  0  0  0  0
   53.3072   24.3636   44.7897 H   0  0  0  0  0  0  0  0  0  0  0  0
   55.1680   25.2190   45.4970 C   0  0  0  0  0  0  0  0  0  0  0  0
   55.1158   26.0742   44.8072 H   0  0  0  0  0  0  0  0  0  0  0  0
  1  2  1  0
  2  3  1  0
  3  4  1  0
  4  5  2  0
  5  6  1  0
  6  7  2  0
  6  8  1  0
  8  9  1  6
  8 10  1  0
 10 11  1  0
 10 12  1  0
 10 13  1  0
 13 14  1  0
 13 15  1  0
 13 16  1  0
 16 17  1  0
 16 18  1  0
 16 19  1  0
 19 20  1  6
 19 21  1  0
 21 22  2  0
 21 23  2  0
 21 24  1  0
 24 25  1  0
 25 26  1  0
 26 27  1  0
 26 28  2  0
 28 29  1  0
 28 30  1  0
 30 31  1  0
 19 32  1  0
 32 33  1  0
 32 34  1  0
  4 35  1  0
 35 36  1  0
 36 37  1  0
 37 38  2  0
 38 39  1  0
 38 40  1  0
 40 41  1  0
 40 42  2  0
 42 43  1  0
 43 44  2  0
 43 45  2  0
 43 46  1  0
 46 47  1  0
 46 48  1  0
 46 49  1  0
 42 50  1  0
 50 51  1  0
 50 52  2  0
 52 53  1  0
 36  2  2  0
 52 37  1  0
 32  8  1  0
 30 24  2  0
M  CHG  2  19   1  35  -1
M  END
>  <UniqueID>  (22) 
20

>  <SMILES>  (22) 
CS(=O)(=O)c1ccc(-c2cs/c(=N\C(=O)[C@H]3CCC[N@@H+](S(=O)(=O)c4cccs4)C3)[n-]2)cc1

>  <Energy>  (22) 
128.1857123534085

>  <Genealogy>  (22) 
CS(=O)(=O)c1ccc(-c2csc(=NC(=O)C3CCC[NH+](S(=O)(=O)c4cccs4)C3)[n-]2)cc1 (protonated)
CS(=O)(=O)c1ccc(-c2csc(=NC(=O)[C@H]3CCC[N@@H+](S(=O)(=O)c4cccs4)C3)[n-]2)cc1 (chirality)
CS(=O)(=O)c1ccc(-c2cs/c(=N\C(=O)[C@H]3CCC[N@@H+](S(=O)(=O)c4cccs4)C3)[n-]2)cc1 (cis-trans isomerization)
CS(=O)(=O)c1ccc(-c2cs/c(=N\C(=O)[C@H]3CCC[N@@H+](S(=O)(=O)c4cccs4)C3)[n-]2)cc1 (3D coordinates assigned)
CS(=O)(=O)c1ccc(-c2cs/c(=N\C(=O)[C@H]3CCC[N@@H+](S(=O)(=O)c4cccs4)C3)[n-]2)cc1 (nonaromatic ring conformer: 128.1857123534085 kcal/mol)

>  <smiles>  (22) 
CS(=O)(=O)c1ccc(-c2csc(=NC(=O)C3CCCN(S(=O)(=O)c4cccs4)C3)[nH]2)cc1

>  <score_type>  (22) 
oracle

>  <origin>  (22) 
adg

>  <m_score__min__energy>  (22) 
-10.210000000000001

>  <m_primary>  (22) 
energy

$$$$
22:0
     RDKit          3D

 56 59  0  0  0  0  0  0  0  0999 V2000
   55.1790   26.5460   45.9840 O   0  0  0  0  0  0  0  0  0  0  0  0
   55.6590   25.4170   46.2820 C   0  0  0  0  0  0  0  0  0  0  0  0
   54.7890   24.2980   46.4810 N   0  0  0  0  0  0  0  0  0  0  0  0
   54.2860   23.4630   45.3950 C   0  0  0  0  0  0  0  0  0  0  0  0
   55.4280   22.7920   44.6830 C   0  0  0  0  0  0  0  0  0  0  0  0
   55.6030   22.9560   43.2990 C   0  0  0  0  0  0  0  0  0  0  0  0
   56.6560   22.3100   42.6410 C   0  0  0  0  0  0  0  0  0  0  0  0
   57.5310   21.4890   43.3570 C   0  0  0  0  0  0  0  0  0  0  0  0
   57.3600   21.3160   44.7340 C   0  0  0  0  0  0  0  0  0  0  0  0
   56.3110   21.9620   45.3950 C   0  0  0  0  0  0  0  0  0  0  0  0
   57.0770   25.2270   46.3740 N   0  0  0  0  0  0  0  0  0  0  0  0
   58.0430   26.2930   46.3660 C   0  0  0  0  0  0  0  0  0  0  0  0
   59.0870   26.3480   47.3090 C   0  0  0  0  0  0  0  0  0  0  0  0
   60.0270   27.3810   47.2600 C   0  0  0  0  0  0  0  0  0  0  0  0
   59.9440   28.3600   46.2680 C   0  0  0  0  0  0  0  0  0  0  0  0
   58.9180   28.3140   45.3130 C   0  0  0  0  0  0  0  0  0  0  0  0
   58.8660   29.3390   44.2160 C   0  0  0  0  0  0  0  0  0  0  0  0
   57.4760   29.6940   43.9580 N   0  0  0  0  0  0  0  0  0  0  0  0
   56.7890   30.8370   44.4820 C   0  0  0  0  0  0  0  0  0  0  0  0
   55.5300   30.8260   44.4900 O   0  0  0  0  0  0  0  0  0  0  0  0
   57.4830   32.0420   44.9770 C   0  0  0  0  0  0  0  0  0  0  0  0
   57.7570   33.2050   44.2680 C   0  0  0  0  0  0  0  0  0  0  0  0
   58.4850   33.9600   45.1570 C   0  0  0  0  0  0  0  0  0  0  0  0
   58.9700   35.0990   44.9230 O   0  0  0  0  0  0  0  0  0  0  0  0
   58.6300   33.2910   46.3150 N   0  0  0  0  0  0  0  0  0  0  0  0
   59.3930   33.7130   47.4870 C   0  0  0  0  0  0  0  0  0  0  0  0
   60.7650   33.1000   47.4530 C   0  0  0  0  0  0  0  0  0  0  0  0
   61.8700   33.8570   47.0270 C   0  0  0  0  0  0  0  0  0  0  0  0
   63.1510   33.2930   47.0220 C   0  0  0  0  0  0  0  0  0  0  0  0
   63.3390   31.9770   47.4500 C   0  0  0  0  0  0  0  0  0  0  0  0
   62.2460   31.2230   47.8940 C   0  0  0  0  0  0  0  0  0  0  0  0
   60.9630   31.7830   47.9010 C   0  0  0  0  0  0  0  0  0  0  0  0
   58.0400   32.1110   46.2060 N   0  0  0  0  0  0  0  0  0  0  0  0
   57.9820   27.2660   45.3560 C   0  0  0  0  0  0  0  0  0  0  0  0
   53.6144   22.6959   45.8079 H   0  0  0  0  0  0  0  0  0  0  0  0
   53.7397   24.0955   44.6799 H   0  0  0  0  0  0  0  0  0  0  0  0
   54.9104   23.5941   42.7305 H   0  0  0  0  0  0  0  0  0  0  0  0
   56.7949   22.4488   41.5587 H   0  0  0  0  0  0  0  0  0  0  0  0
   58.3550   20.9784   42.8371 H   0  0  0  0  0  0  0  0  0  0  0  0
   58.0509   20.6715   45.2973 H   0  0  0  0  0  0  0  0  0  0  0  0
   56.1761   21.8200   46.4774 H   0  0  0  0  0  0  0  0  0  0  0  0
   57.4290   24.2430   46.3620 H   0  0  0  0  0  0  0  0  0  0  0  0
   59.1631   25.5747   48.0876 H   0  0  0  0  0  0  0  0  0  0  0  0
   60.8349   27.4229   48.0054 H   0  0  0  0  0  0  0  0  0  0  0  0
   60.6866   29.1709   46.2354 H   0  0  0  0  0  0  0  0  0  0  0  0
   59.4239   30.2358   44.5235 H   0  0  0  0  0  0  0  0  0  0  0  0
   59.3179   28.9259   43.3022 H   0  0  0  0  0  0  0  0  0  0  0  0
   57.4617   33.4609   43.2398 H   0  0  0  0  0  0  0  0  0  0  0  0
   59.4834   34.8093   47.4879 H   0  0  0  0  0  0  0  0  0  0  0  0
   58.8712   33.3819   48.3970 H   0  0  0  0  0  0  0  0  0  0  0  0
   61.7275   34.8964   46.6964 H   0  0  0  0  0  0  0  0  0  0  0  0
   64.0112   33.8874   46.6803 H   0  0  0  0  0  0  0  0  0  0  0  0
   64.3454   31.5330   47.4383 H   0  0  0  0  0  0  0  0  0  0  0  0
   62.3957   30.1889   48.2379 H   0  0  0  0  0  0  0  0  0  0  0  0
   60.1077   31.1906   48.2581 H   0  0  0  0  0  0  0  0  0  0  0  0
   57.1940   27.2078   44.5907 H   0  0  0  0  0  0  0  0  0  0  0  0
  1  2  2  0
  2  3  1  0
  3  4  1  0
  4  5  1  0
  5  6  2  0
  6  7  1  0
  7  8  2  0
  8  9  1  0
  9 10  2  0
  2 11  1  0
 11 12  1  0
 12 13  2  0
 13 14  1  0
 14 15  2  0
 15 16  1  0
 16 17  1  0
 17 18  1  0
 18 19  1  0
 19 20  2  0
 19 21  1  0
 21 22  2  0
 22 23  1  0
 23 24  2  0
 23 25  1  0
 25 26  1  0
 26 27  1  0
 27 28  2  0
 28 29  1  0
 29 30  2  0
 30 31  1  0
 31 32  2  0
 25 33  1  0
 16 34  2  0
 10  5  1  0
 34 12  1  0
 33 21  1  0
 32 27  1  0
  4 35  1  0
  4 36  1  0
  6 37  1  0
  7 38  1  0
  8 39  1  0
  9 40  1  0
 10 41  1  0
 11 42  1  0
 13 43  1  0
 14 44  1  0
 15 45  1  0
 17 46  1  0
 17 47  1  0
 22 48  1  0
 26 49  1  0
 26 50  1  0
 28 51  1  0
 29 52  1  0
 30 53  1  0
 31 54  1  0
 32 55  1  0
 34 56  1  0
M  CHG  3   3  -1  18  -1  33  -1
M  END
>  <UniqueID>  (23) 
21

>  <SMILES>  (23) 
O=C([N-]Cc1ccccc1)Nc1cccc(C[N-]C(=O)c2cc(=O)n(Cc3ccccc3)[n-]2)c1

>  <Energy>  (23) 
92.86184037586068

>  <Genealogy>  (23) 
O=C([N-]Cc1ccccc1)Nc1cccc(C[N-]C(=O)c2cc(=O)n(Cc3ccccc3)[n-]2)c1 (protonated)
O=C([N-]Cc1ccccc1)Nc1cccc(C[N-]C(=O)c2cc(=O)n(Cc3ccccc3)[n-]2)c1 (3D coordinates assigned)
O=C([N-]Cc1ccccc1)Nc1cccc(C[N-]C(=O)c2cc(=O)n(Cc3ccccc3)[n-]2)c1 (optimized conformer: 92.86184037586068 kcal/mol)

>  <smiles>  (23) 
O=C(NCc1ccccc1)Nc1cccc(CNC(=O)c2cc(=O)n(Cc3ccccc3)[nH]2)c1

>  <score_type>  (23) 
oracle

>  <origin>  (23) 
adg

>  <m_score__min__energy>  (23) 
-14.19

>  <m_primary>  (23) 
energy

$$$$
23:0
     RDKit          3D

 55 59  0  0  0  0  0  0  0  0999 V2000
   55.9730   25.1930   45.6010 C   0  0  0  0  0  0  0  0  0  0  0  0
   55.7070   26.5590   45.9000 O   0  0  0  0  0  0  0  0  0  0  0  0
   56.6780   27.5720   45.9150 C   0  0  0  0  0  0  0  0  0  0  0  0
   57.9400   27.3940   46.5120 C   0  0  0  0  0  0  0  0  0  0  0  0
   58.8750   28.4320   46.5070 C   0  0  0  0  0  0  0  0  0  0  0  0
   58.5630   29.6730   45.9270 C   0  0  0  0  0  0  0  0  0  0  0  0
   59.5910   30.7900   45.9020 C   0  0  0  0  0  0  0  0  0  0  0  0
   59.0360   32.1690   45.8320 N   0  0  1  0  0  0  0  0  0  0  0  0
   58.7270   32.6150   44.4590 C   0  0  0  0  0  0  0  0  0  0  0  0
   57.5260   33.5600   44.5370 C   0  0  0  0  0  0  0  0  0  0  0  0
   57.1840   33.6620   46.0110 C   0  0  0  0  0  0  0  0  0  0  0  0
   57.8100   32.4110   46.6160 C   0  0  2  0  0  0  0  0  0  0  0  0
   58.0260   32.4770   48.1560 C   0  0  0  0  0  0  0  0  0  0  0  0
   59.4440   32.3880   48.5780 N   0  0  0  0  0  0  0  0  0  0  0  0
   60.3310   33.3840   48.2400 C   0  0  0  0  0  0  0  0  0  0  0  0
   59.9530   34.3850   47.5720 O   0  0  0  0  0  0  0  0  0  0  0  0
   61.6320   33.3080   48.6170 N   0  0  0  0  0  0  0  0  0  0  0  0
   62.1030   32.2690   49.3510 C   0  0  0  0  0  0  0  0  0  0  0  0
   61.2180   31.2560   49.7470 C   0  0  0  0  0  0  0  0  0  0  0  0
   61.6640   30.2130   50.4980 N   0  0  0  0  0  0  0  0  0  0  0  0
   62.9590   30.1030   50.8860 C   0  0  0  0  0  0  0  0  0  0  0  0
   63.3100   29.1110   51.5810 O   0  0  0  0  0  0  0  0  0  0  0  0
   63.8940   31.0910   50.5140 C   0  0  0  0  0  0  0  0  0  0  0  0
   65.2450   31.0080   50.9010 C   0  0  0  0  0  0  0  0  0  0  0  0
   66.1490   32.0010   50.5200 C   0  0  0  0  0  0  0  0  0  0  0  0
   65.7200   33.0850   49.7530 C   0  0  0  0  0  0  0  0  0  0  0  0
   64.3840   33.1840   49.3610 C   0  0  0  0  0  0  0  0  0  0  0  0
   63.4560   32.1920   49.7340 C   0  0  0  0  0  0  0  0  0  0  0  0
   59.8760   31.3430   49.3600 C   0  0  0  0  0  0  0  0  0  0  0  0
   59.0690   30.4550   49.7510 O   0  0  0  0  0  0  0  0  0  0  0  0
   57.3140   29.8360   45.3040 C   0  0  0  0  0  0  0  0  0  0  0  0
   56.3780   28.7980   45.3070 C   0  0  0  0  0  0  0  0  0  0  0  0
   55.1420   28.9880   44.6970 O   0  0  0  0  0  0  0  0  0  0  0  0
   56.0832   24.6273   46.5379 H   0  0  0  0  0  0  0  0  0  0  0  0
   55.1391   24.7764   45.0170 H   0  0  0  0  0  0  0  0  0  0  0  0
   56.9023   25.1197   45.0170 H   0  0  0  0  0  0  0  0  0  0  0  0
   58.1913   26.4331   46.9848 H   0  0  0  0  0  0  0  0  0  0  0  0
   59.8646   28.2762   46.9614 H   0  0  0  0  0  0  0  0  0  0  0  0
   60.1963   30.7142   46.8173 H   0  0  0  0  0  0  0  0  0  0  0  0
   60.1682   30.6490   44.9763 H   0  0  0  0  0  0  0  0  0  0  0  0
   59.7800   32.8150   46.1860 H   0  0  0  0  0  0  0  0  0  0  0  0
   59.5926   33.1433   44.0328 H   0  0  0  0  0  0  0  0  0  0  0  0
   58.4980   31.7526   43.8157 H   0  0  0  0  0  0  0  0  0  0  0  0
   57.7888   34.5493   44.1342 H   0  0  0  0  0  0  0  0  0  0  0  0
   56.6759   33.1883   43.9462 H   0  0  0  0  0  0  0  0  0  0  0  0
   57.6191   34.5708   46.4524 H   0  0  0  0  0  0  0  0  0  0  0  0
   56.1012   33.7270   46.1933 H   0  0  0  0  0  0  0  0  0  0  0  0
   57.1246   31.5539   46.5412 H   0  0  0  0  0  0  0  0  0  0  0  0
   57.6175   33.4311   48.5205 H   0  0  0  0  0  0  0  0  0  0  0  0
   57.5149   31.6016   48.5833 H   0  0  0  0  0  0  0  0  0  0  0  0
   65.5898   30.1568   51.5064 H   0  0  0  0  0  0  0  0  0  0  0  0
   67.2033   31.9288   50.8254 H   0  0  0  0  0  0  0  0  0  0  0  0
   66.4373   33.8643   49.4562 H   0  0  0  0  0  0  0  0  0  0  0  0
   64.0537   34.0420   48.7570 H   0  0  0  0  0  0  0  0  0  0  0  0
   57.0710   30.7883   44.8099 H   0  0  0  0  0  0  0  0  0  0  0  0
  1  2  1  0
  2  3  1  0
  3  4  2  0
  4  5  1  0
  5  6  2  0
  6  7  1  0
  7  8  1  0
  8  9  1  0
  9 10  1  0
 10 11  1  0
 11 12  1  0
 12 13  1  0
 13 14  1  0
 14 15  1  0
 15 16  2  0
 15 17  1  0
 17 18  1  0
 18 19  2  0
 19 20  1  0
 20 21  1  0
 21 22  2  0
 21 23  1  0
 23 24  2  0
 24 25  1  0
 25 26  2  0
 26 27  1  0
 27 28  2  0
 19 29  1  0
 29 30  2  0
  6 31  1  0
 31 32  2  0
 32 33  1  0
 32  3  1  0
 12  8  1  0
 29 14  1  0
 28 18  1  0
 28 23  1  0
  1 34  1  0
  1 35  1  0
  1 36  1  0
  4 37  1  0
  5 38  1  0
  7 39  1  0
  7 40  1  0
  8 41  1  1
  9 42  1  0
  9 43  1  0
 10 44  1  0
 10 45  1  0
 11 46  1  0
 11 47  1  0
 12 48  1  1
 13 49  1  0
 13 50  1  0
 24 51  1  0
 25 52  1  0
 26 53  1  0
 27 54  1  0
 31 55  1  0
M  CHG  4   8   1  17  -1  20  -1  33  -1
M  END
>  <UniqueID>  (24) 
22

>  <SMILES>  (24) 
COc1ccc(C[N@H+]2CCC[C@@H]2Cn2c(=O)[n-]c3c([n-]c(=O)c4ccccc43)c2=O)cc1[O-]

>  <Energy>  (24) 
84.53638755493942

>  <Genealogy>  (24) 
COc1ccc(C[NH+]2CCCC2Cn2c(=O)[n-]c3c([n-]c(=O)c4ccccc43)c2=O)cc1[O-] (protonated)
COc1ccc(C[N@H+]2CCC[C@@H]2Cn2c(=O)[n-]c3c([n-]c(=O)c4ccccc43)c2=O)cc1[O-] (chirality)
COc1ccc(C[N@H+]2CCC[C@@H]2Cn2c(=O)[n-]c3c([n-]c(=O)c4ccccc43)c2=O)cc1[O-] (3D coordinates assigned)
COc1ccc(C[N@H+]2CCC[C@@H]2Cn2c(=O)[n-]c3c([n-]c(=O)c4ccccc43)c2=O)cc1[O-] (nonaromatic ring conformer: 84.53638755493942 kcal/mol)

>  <smiles>  (24) 
COc1ccc(CN2CCCC2Cn2c(=O)[nH]c3c([nH]c(=O)c4ccccc43)c2=O)cc1O

>  <score_type>  (24) 
oracle

>  <origin>  (24) 
adg

>  <m_score__min__energy>  (24) 
-13.390000000000001

>  <m_primary>  (24) 
energy

$$$$
24:0
     RDKit          3D

 36 37  0  0  0  0  0  0  0  0999 V2000
   55.8710   24.6680   47.1140 O   0  0  0  0  0  0  0  0  0  0  0  0
   55.4890   25.1480   46.0140 C   0  0  0  0  0  0  0  0  0  0  0  0
   54.7710   26.3380   46.0010 O   0  0  0  0  0  0  0  0  0  0  0  0
   55.8060   24.4530   44.7550 C   0  0  0  0  0  0  0  0  0  0  0  0
   54.9810   23.6300   44.2760 O   0  0  0  0  0  0  0  0  0  0  0  0
   57.1160   24.6730   44.0530 C   0  0  0  0  0  0  0  0  0  0  0  0
   57.9620   25.6850   44.7820 C   0  0  0  0  0  0  0  0  0  0  0  0
   58.9460   25.2880   45.4640 O   0  0  0  0  0  0  0  0  0  0  0  0
   57.6600   27.1360   44.7320 C   0  0  0  0  0  0  0  0  0  0  0  0
   57.7640   27.8100   43.5040 C   0  0  0  0  0  0  0  0  0  0  0  0
   57.4790   29.1740   43.4110 C   0  0  0  0  0  0  0  0  0  0  0  0
   57.0960   29.8970   44.5530 C   0  0  0  0  0  0  0  0  0  0  0  0
   56.7990   31.2700   44.5170 O   0  0  0  0  0  0  0  0  0  0  0  0
   57.6600   32.2880   44.0070 C   0  0  0  0  0  0  0  0  0  0  0  0
   58.2320   33.1170   45.1260 C   0  0  0  0  0  0  0  0  0  0  0  0
   59.0160   34.2460   44.8370 C   0  0  0  0  0  0  0  0  0  0  0  0
   59.5560   35.0140   45.8730 C   0  0  0  0  0  0  0  0  0  0  0  0
   59.3260   34.6550   47.2040 C   0  0  0  0  0  0  0  0  0  0  0  0
   58.5570   33.5250   47.5000 C   0  0  0  0  0  0  0  0  0  0  0  0
   58.0150   32.7560   46.4660 C   0  0  0  0  0  0  0  0  0  0  0  0
   57.0030   29.2330   45.7800 C   0  0  0  0  0  0  0  0  0  0  0  0
   57.2930   27.8640   45.8820 C   0  0  0  0  0  0  0  0  0  0  0  0
   57.2400   27.2430   47.1310 O   0  0  0  0  0  0  0  0  0  0  0  0
   57.6611   23.7188   44.0033 H   0  0  0  0  0  0  0  0  0  0  0  0
   56.9096   25.0550   43.0423 H   0  0  0  0  0  0  0  0  0  0  0  0
   58.0736   27.2569   42.6050 H   0  0  0  0  0  0  0  0  0  0  0  0
   57.5547   29.6844   42.4395 H   0  0  0  0  0  0  0  0  0  0  0  0
   58.4835   31.8176   43.4498 H   0  0  0  0  0  0  0  0  0  0  0  0
   57.0753   32.9447   43.3460 H   0  0  0  0  0  0  0  0  0  0  0  0
   59.2060   34.5273   43.7907 H   0  0  0  0  0  0  0  0  0  0  0  0
   60.1625   35.9017   45.6403 H   0  0  0  0  0  0  0  0  0  0  0  0
   59.7497   35.2610   48.0184 H   0  0  0  0  0  0  0  0  0  0  0  0
   58.3784   33.2410   48.5476 H   0  0  0  0  0  0  0  0  0  0  0  0
   57.4160   31.8643   46.7028 H   0  0  0  0  0  0  0  0  0  0  0  0
   56.6984   29.7914   46.6774 H   0  0  0  0  0  0  0  0  0  0  0  0
   56.4230   26.7280   47.4350 H   0  0  0  0  0  0  0  0  0  0  0  0
  1  2  2  0
  2  3  1  0
  2  4  1  0
  4  5  2  0
  4  6  1  0
  6  7  1  0
  7  8  2  0
  7  9  1  0
  9 10  2  0
 10 11  1  0
 11 12  2  0
 12 13  1  0
 13 14  1  0
 14 15  1  0
 15 16  2  0
 16 17  1  0
 17 18  2  0
 18 19  1  0
 19 20  2  0
 12 21  1  0
 21 22  2  0
 22 23  1  0
 22  9  1  0
 20 15  1  0
  6 24  1  0
  6 25  1  0
 10 26  1  0
 11 27  1  0
 14 28  1  0
 14 29  1  0
 16 30  1  0
 17 31  1  0
 18 32  1  0
 19 33  1  0
 20 34  1  0
 21 35  1  0
 23 36  1  0
M  CHG  1   3  -1
M  END
>  <UniqueID>  (25) 
23

>  <SMILES>  (25) 
O=C([O-])C(=O)CC(=O)c1ccc(OCc2ccccc2)cc1O

>  <Energy>  (25) 
38.87531944923659

>  <Genealogy>  (25) 
O=C([O-])C(=O)CC(=O)c1ccc(OCc2ccccc2)cc1O (protonated)
O=C([O-])C(=O)CC(=O)c1ccc(OCc2ccccc2)cc1O (3D coordinates assigned)
O=C([O-])C(=O)CC(=O)c1ccc(OCc2ccccc2)cc1O (optimized conformer: 38.87531944923659 kcal/mol)

>  <smiles>  (25) 
O=C(O)C(=O)CC(=O)c1ccc(OCc2ccccc2)cc1O

>  <score_type>  (25) 
oracle

>  <origin>  (25) 
adg

>  <m_score__min__energy>  (25) 
-11.380000000000001

>  <m_primary>  (25) 
energy

$$$$
25:0
     RDKit          3D

 49 52  0  0  0  0  0  0  0  0999 V2000
   58.9690   26.2050   47.8670 C   0  0  0  0  0  0  0  0  0  0  0  0
   58.5520   27.3490   46.9830 C   0  0  0  0  0  0  0  0  0  0  0  0
   57.3490   27.4110   46.2670 C   0  0  0  0  0  0  0  0  0  0  0  0
   56.2820   26.3860   46.2140 C   0  0  0  0  0  0  0  0  0  0  0  0
   55.0880   26.7160   45.9900 O   0  0  0  0  0  0  0  0  0  0  0  0
   56.5770   25.0450   46.4170 O   0  0  0  0  0  0  0  0  0  0  0  0
   57.3540   28.6530   45.6480 C   0  0  0  0  0  0  0  0  0  0  0  0
   56.4010   29.2850   44.8450 C   0  0  0  0  0  0  0  0  0  0  0  0
   56.6670   30.5880   44.3970 C   0  0  0  0  0  0  0  0  0  0  0  0
   57.8640   31.2510   44.7530 C   0  0  0  0  0  0  0  0  0  0  0  0
   58.0820   32.5940   44.2860 N   0  0  0  0  0  0  0  0  0  0  0  0
   58.1310   33.9880   45.3200 S   0  0  0  0  0  0  0  0  0  0  0  0
   56.7800   34.1860   45.9480 O   0  0  0  0  0  0  0  0  0  0  0  0
   58.4660   35.1990   44.4950 O   0  0  0  0  0  0  0  0  0  0  0  0
   59.3190   33.7540   46.5980 C   0  0  0  0  0  0  0  0  0  0  0  0
   60.6560   33.4860   46.2690 C   0  0  0  0  0  0  0  0  0  0  0  0
   61.6040   33.3000   47.2800 C   0  0  0  0  0  0  0  0  0  0  0  0
   61.2230   33.3790   48.6220 C   0  0  0  0  0  0  0  0  0  0  0  0
   59.8930   33.6490   48.9550 C   0  0  0  0  0  0  0  0  0  0  0  0
   58.9410   33.8350   47.9470 C   0  0  0  0  0  0  0  0  0  0  0  0
   58.8070   30.5840   45.5670 C   0  0  0  0  0  0  0  0  0  0  0  0
   58.5220   29.2840   46.0040 C   0  0  0  0  0  0  0  0  0  0  0  0
   59.2650   28.4980   46.8180 N   0  0  0  0  0  0  0  0  0  0  0  0
   60.5220   28.8620   47.4890 C   0  0  0  0  0  0  0  0  0  0  0  0
   60.2410   29.6150   48.7640 C   0  0  0  0  0  0  0  0  0  0  0  0
   61.2800   29.9120   49.6620 C   0  0  0  0  0  0  0  0  0  0  0  0
   61.0110   30.6010   50.8480 C   0  0  0  0  0  0  0  0  0  0  0  0
   59.7050   30.9990   51.1460 C   0  0  0  0  0  0  0  0  0  0  0  0
   58.6670   30.7100   50.2570 C   0  0  0  0  0  0  0  0  0  0  0  0
   58.9320   30.0270   49.0670 C   0  0  0  0  0  0  0  0  0  0  0  0
   58.8620   26.4987   48.9217 H   0  0  0  0  0  0  0  0  0  0  0  0
   58.3311   25.3324   47.6628 H   0  0  0  0  0  0  0  0  0  0  0  0
   60.0188   25.9476   47.6628 H   0  0  0  0  0  0  0  0  0  0  0  0
   55.4661   28.7742   44.5710 H   0  0  0  0  0  0  0  0  0  0  0  0
   55.9328   31.1016   43.7589 H   0  0  0  0  0  0  0  0  0  0  0  0
   58.1820   32.7640   43.2610 H   0  0  0  0  0  0  0  0  0  0  0  0
   60.9593   33.4220   45.2136 H   0  0  0  0  0  0  0  0  0  0  0  0
   62.6518   33.0911   47.0183 H   0  0  0  0  0  0  0  0  0  0  0  0
   61.9695   33.2288   49.4158 H   0  0  0  0  0  0  0  0  0  0  0  0
   59.5941   33.7154   50.0115 H   0  0  0  0  0  0  0  0  0  0  0  0
   57.8943   34.0451   48.2123 H   0  0  0  0  0  0  0  0  0  0  0  0
   59.7481   31.0768   45.8524 H   0  0  0  0  0  0  0  0  0  0  0  0
   61.0843   27.9466   47.7256 H   0  0  0  0  0  0  0  0  0  0  0  0
   61.1100   29.5055   46.8180 H   0  0  0  0  0  0  0  0  0  0  0  0
   62.3095   29.6010   49.4307 H   0  0  0  0  0  0  0  0  0  0  0  0
   61.8283   30.8302   51.5476 H   0  0  0  0  0  0  0  0  0  0  0  0
   59.4944   31.5398   52.0805 H   0  0  0  0  0  0  0  0  0  0  0  0
   57.6388   31.0207   50.4942 H   0  0  0  0  0  0  0  0  0  0  0  0
   58.1131   29.8111   48.3650 H   0  0  0  0  0  0  0  0  0  0  0  0
  1  2  1  0
  2  3  2  0
  3  4  1  0
  4  5  2  0
  4  6  1  0
  3  7  1  0
  7  8  2  0
  8  9  1  0
  9 10  2  0
 10 11  1  0
 11 12  1  0
 12 13  2  0
 12 14  2  0
 12 15  1  0
 15 16  2  0
 16 17  1  0
 17 18  2  0
 18 19  1  0
 19 20  2  0
 10 21  1  0
 21 22  2  0
 22 23  1  0
 23 24  1  0
 24 25  1  0
 25 26  2  0
 26 27  1  0
 27 28  2  0
 28 29  1  0
 29 30  2  0
 23  2  1  0
 30 25  1  0
 22  7  1  0
 20 15  1  0
  1 31  1  0
  1 32  1  0
  1 33  1  0
  8 34  1  0
  9 35  1  0
 11 36  1  0
 16 37  1  0
 17 38  1  0
 18 39  1  0
 19 40  1  0
 20 41  1  0
 21 42  1  0
 24 43  1  0
 24 44  1  0
 26 45  1  0
 27 46  1  0
 28 47  1  0
 29 48  1  0
 30 49  1  0
M  CHG  1   6  -1
M  END
>  <UniqueID>  (26) 
24

>  <SMILES>  (26) 
Cc1c(C(=O)[O-])c2ccc(NS(=O)(=O)c3ccccc3)cc2n1Cc1ccccc1

>  <Energy>  (26) 
88.1263822664093

>  <Genealogy>  (26) 
Cc1c(C(=O)[O-])c2ccc(NS(=O)(=O)c3ccccc3)cc2n1Cc1ccccc1 (protonated)
Cc1c(C(=O)[O-])c2ccc(NS(=O)(=O)c3ccccc3)cc2n1Cc1ccccc1 (3D coordinates assigned)
Cc1c(C(=O)[O-])c2ccc(NS(=O)(=O)c3ccccc3)cc2n1Cc1ccccc1 (optimized conformer: 88.1263822664093 kcal/mol)

>  <smiles>  (26) 
Cc1c(C(=O)O)c2ccc(NS(=O)(=O)c3ccccc3)cc2n1Cc1ccccc1

>  <score_type>  (26) 
oracle

>  <origin>  (26) 
adg

>  <m_score__min__energy>  (26) 
-11.470000000000001

>  <m_primary>  (26) 
energy

$$$$
26:0
     RDKit          3D

 56 59  0  0  1  0  0  0  0  0999 V2000
   58.2880   27.0610   47.0840 C   0  0  0  0  0  0  0  0  0  0  0  0
   58.1270   27.3870   45.6360 C   0  0  0  0  0  0  0  0  0  0  0  0
   58.5390   26.5690   44.7900 O   0  0  0  0  0  0  0  0  0  0  0  0
   57.5190   28.6030   45.3000 N   0  0  0  0  0  0  0  0  0  0  0  0
   57.2970   29.0470   43.9290 C   0  0  0  0  0  0  0  0  0  0  0  0
   57.1380   30.5370   43.8680 C   0  0  0  0  0  0  0  0  0  0  0  0
   57.0100   31.2050   45.1120 N   0  0  0  0  0  0  0  0  0  0  0  0
   57.9040   31.6110   45.8940 C   0  0  0  0  0  0  0  0  0  0  0  0
   58.3730   30.8490   46.9020 N   0  0  0  0  0  0  0  0  0  0  0  0
   59.3330   31.3830   47.6790 C   0  0  0  0  0  0  0  0  0  0  0  0
   59.8020   30.5830   48.7560 N   0  0  0  0  0  0  0  0  0  0  0  0
   61.1770   30.1500   48.8940 C   0  0  0  0  0  0  0  0  0  0  0  0
   62.1820   31.2060   48.7890 C   0  0  0  0  0  0  0  0  0  0  0  0
   62.7400   31.9300   49.8040 C   0  0  0  0  0  0  0  0  0  0  0  0
   63.6860   32.9280   49.5690 C   0  0  0  0  0  0  0  0  0  0  0  0
   64.1080   33.2350   48.2940 C   0  0  0  0  0  0  0  0  0  0  0  0
   63.5520   32.5120   47.2590 C   0  0  0  0  0  0  0  0  0  0  0  0
   62.6180   31.5280   47.4940 C   0  0  0  0  0  0  0  0  0  0  0  0
   58.8830   30.1670   49.8320 C   0  0  0  0  0  0  0  0  0  0  0  0
   58.6070   31.3370   50.6780 C   0  0  0  0  0  0  0  0  0  0  0  0
   59.3650   32.4720   50.7650 C   0  0  0  0  0  0  0  0  0  0  0  0
   59.0230   33.5110   51.6150 C   0  0  0  0  0  0  0  0  0  0  0  0
   57.8970   33.4330   52.4080 C   0  0  0  0  0  0  0  0  0  0  0  0
   57.1220   32.3050   52.3380 C   0  0  0  0  0  0  0  0  0  0  0  0
   57.4740   31.2780   51.4870 C   0  0  0  0  0  0  0  0  0  0  0  0
   59.8320   32.6070   47.5030 N   0  0  0  0  0  0  0  0  0  0  0  0
   59.3970   33.4360   46.4920 C   0  0  0  0  0  0  0  0  0  0  0  0
   59.8150   34.6820   46.2110 C   0  0  0  0  0  0  0  0  0  0  0  0
   59.2600   35.3340   45.1740 C   0  0  0  0  0  0  0  0  0  0  0  0
   58.0280   34.0740   44.5280 S   0  0  0  0  0  0  0  0  0  0  0  0
   58.4170   32.8930   45.6990 C   0  0  0  0  0  0  0  0  0  0  0  0
   57.8821   27.8828   47.6922 H   0  0  0  0  0  0  0  0  0  0  0  0
   57.7450   26.1323   47.3133 H   0  0  0  0  0  0  0  0  0  0  0  0
   59.3555   26.9277   47.3133 H   0  0  0  0  0  0  0  0  0  0  0  0
   57.1910   29.2580   46.0570 H   0  0  0  0  0  0  0  0  0  0  0  0
   58.1574   28.7510   43.3108 H   0  0  0  0  0  0  0  0  0  0  0  0
   56.3749   28.5795   43.5532 H   0  0  0  0  0  0  0  0  0  0  0  0
   58.0206   30.9479   43.3559 H   0  0  0  0  0  0  0  0  0  0  0  0
   56.1874   30.7100   43.3422 H   0  0  0  0  0  0  0  0  0  0  0  0
   61.2856   29.6754   49.8804 H   0  0  0  0  0  0  0  0  0  0  0  0
   61.3654   29.4685   48.0514 H   0  0  0  0  0  0  0  0  0  0  0  0
   62.4338   31.7195   50.8393 H   0  0  0  0  0  0  0  0  0  0  0  0
   64.1047   33.4827   50.4216 H   0  0  0  0  0  0  0  0  0  0  0  0
   64.8548   34.0213   48.1095 H   0  0  0  0  0  0  0  0  0  0  0  0
   63.8610   32.7259   46.2252 H   0  0  0  0  0  0  0  0  0  0  0  0
   62.1998   30.9762   46.6392 H   0  0  0  0  0  0  0  0  0  0  0  0
   57.9448   29.7928   49.3965 H   0  0  0  0  0  0  0  0  0  0  0  0
   59.3376   29.3639   50.4307 H   0  0  0  0  0  0  0  0  0  0  0  0
   60.2688   32.5621   50.1445 H   0  0  0  0  0  0  0  0  0  0  0  0
   59.6569   34.4090   51.6581 H   0  0  0  0  0  0  0  0  0  0  0  0
   57.6268   34.2589   53.0824 H   0  0  0  0  0  0  0  0  0  0  0  0
   56.2192   32.2185   52.9604 H   0  0  0  0  0  0  0  0  0  0  0  0
   56.8382   30.3813   51.4456 H   0  0  0  0  0  0  0  0  0  0  0  0
   60.5610   32.9170   48.1790 H   0  0  0  0  0  0  0  0  0  0  0  0
   60.5974   35.1602   46.8186 H   0  0  0  0  0  0  0  0  0  0  0  0
   59.4734   36.3463   44.8002 H   0  0  0  0  0  0  0  0  0  0  0  0
  1  2  1  0
  2  3  2  0
  2  4  1  0
  4  5  1  0
  5  6  1  0
  6  7  1  0
  7  8  2  0
  8  9  1  0
  9 10  2  0
 10 11  1  0
 11 12  1  0
 12 13  1  0
 13 14  2  0
 14 15  1  0
 15 16  2  0
 16 17  1  0
 17 18  2  0
 11 19  1  0
 19 20  1  0
 20 21  2  0
 21 22  1  0
 22 23  2  0
 23 24  1  0
 24 25  2  0
 10 26  1  0
 26 27  1  0
 27 28  1  0
 28 29  2  0
 29 30  1  0
 30 31  1  0
 31  8  1  0
 18 13  1  0
 25 20  1  0
 31 27  2  0
  1 32  1  0
  1 33  1  0
  1 34  1  0
  4 35  1  0
  5 36  1  0
  5 37  1  0
  6 38  1  0
  6 39  1  0
 12 40  1  0
 12 41  1  0
 14 42  1  0
 15 43  1  0
 16 44  1  0
 17 45  1  0
 18 46  1  0
 19 47  1  0
 19 48  1  0
 21 49  1  0
 22 50  1  0
 23 51  1  0
 24 52  1  0
 25 53  1  0
 26 54  1  0
 28 55  1  0
 29 56  1  0
M  END
>  <smiles>  (27) 
CC(=O)NCCN=c1nc(N(Cc2ccccc2)Cc2ccccc2)[nH]c2ccsc12

>  <score_type>  (27) 
oracle

>  <origin>  (27) 
adg

>  <m_score__min__energy>  (27) 
-8.6699999999999999

>  <m_primary>  (27) 
energy

$$$$
27:0
     RDKit          3D

 42 44  0  0  0  0  0  0  0  0999 V2000
   58.9770   33.5110   51.3580 C   0  0  0  0  0  0  0  0  0  0  0  0
   59.8390   33.1340   50.1290 C   0  0  0  0  0  0  0  0  0  0  0  0
   61.0860   32.3870   50.6540 C   0  0  0  0  0  0  0  0  0  0  0  0
   58.9780   32.2640   49.2150 C   0  0  0  0  0  0  0  0  0  0  0  0
   59.2160   32.1260   47.8930 C   0  0  0  0  0  0  0  0  0  0  0  0
   60.5970   32.2580   47.3310 C   0  0  0  0  0  0  0  0  0  0  0  0
   60.9380   33.7510   47.1860 C   0  0  1  0  0  0  0  0  0  0  0  0
   62.2320   33.8430   46.3540 C   0  0  0  0  0  0  0  0  0  0  0  0
   59.8120   34.5420   46.4160 C   0  0  0  0  0  0  0  0  0  0  0  0
   58.4070   33.9400   46.4480 C   0  0  0  0  0  0  0  0  0  0  0  0
   57.4820   34.6060   46.0090 O   0  0  0  0  0  0  0  0  0  0  0  0
   58.1130   32.5310   46.9460 C   0  0  1  0  0  0  0  0  0  0  0  0
   57.9430   31.5120   45.8310 C   0  0  0  0  0  0  0  0  0  0  0  0
   57.4410   31.9450   44.5900 C   0  0  0  0  0  0  0  0  0  0  0  0
   57.2400   31.0340   43.5470 C   0  0  0  0  0  0  0  0  0  0  0  0
   57.5300   29.6820   43.7330 C   0  0  0  0  0  0  0  0  0  0  0  0
   58.0140   29.2340   44.9630 C   0  0  0  0  0  0  0  0  0  0  0  0
   58.2170   30.1390   46.0100 C   0  0  0  0  0  0  0  0  0  0  0  0
   61.2750   34.3160   48.4560 O   0  0  0  0  0  0  0  0  0  0  0  0
   60.2110   34.4530   49.3860 C   0  0  0  0  0  0  0  0  0  0  0  0
   59.5273   33.2703   52.2796 H   0  0  0  0  0  0  0  0  0  0  0  0
   58.7554   34.5882   51.3339 H   0  0  0  0  0  0  0  0  0  0  0  0
   58.0357   32.9424   51.3339 H   0  0  0  0  0  0  0  0  0  0  0  0
   61.0796   32.3908   51.7540 H   0  0  0  0  0  0  0  0  0  0  0  0
   61.0714   31.3488   50.2908 H   0  0  0  0  0  0  0  0  0  0  0  0
   61.9945   32.8897   50.2908 H   0  0  0  0  0  0  0  0  0  0  0  0
   58.1252   31.7254   49.6538 H   0  0  0  0  0  0  0  0  0  0  0  0
   61.3185   31.7791   48.0092 H   0  0  0  0  0  0  0  0  0  0  0  0
   60.6463   31.7682   46.3473 H   0  0  0  0  0  0  0  0  0  0  0  0
   63.0983   33.9046   47.0290 H   0  0  0  0  0  0  0  0  0  0  0  0
   62.3243   32.9492   45.7196 H   0  0  0  0  0  0  0  0  0  0  0  0
   62.1969   34.7409   45.7196 H   0  0  0  0  0  0  0  0  0  0  0  0
   59.7532   35.5494   46.8538 H   0  0  0  0  0  0  0  0  0  0  0  0
   60.1131   34.5182   45.3583 H   0  0  0  0  0  0  0  0  0  0  0  0
   57.1425   32.5473   47.4635 H   0  0  0  0  0  0  0  0  0  0  0  0
   57.2046   33.0085   44.4384 H   0  0  0  0  0  0  0  0  0  0  0  0
   56.8527   31.3844   42.5789 H   0  0  0  0  0  0  0  0  0  0  0  0
   57.3771   28.9687   42.9097 H   0  0  0  0  0  0  0  0  0  0  0  0
   58.2363   28.1667   45.1094 H   0  0  0  0  0  0  0  0  0  0  0  0
   58.5925   29.7784   46.9790 H   0  0  0  0  0  0  0  0  0  0  0  0
   60.5034   35.2015   50.1371 H   0  0  0  0  0  0  0  0  0  0  0  0
   59.3234   34.7526   48.8095 H   0  0  0  0  0  0  0  0  0  0  0  0
  1  2  1  0
  2  3  1  0
  2  4  1  0
  4  5  2  0
  5  6  1  0
  6  7  1  0
  7  8  1  6
  7  9  1  0
  9 10  1  0
 10 11  2  0
 10 12  1  0
 12 13  1  0
 13 14  2  0
 14 15  1  0
 15 16  2  0
 16 17  1  0
 17 18  2  0
  7 19  1  0
 19 20  1  0
 20  2  1  0
 12  5  1  0
 18 13  1  0
  1 21  1  0
  1 22  1  0
  1 23  1  0
  3 24  1  0
  3 25  1  0
  3 26  1  0
  4 27  1  0
  6 28  1  0
  6 29  1  0
  8 30  1  0
  8 31  1  0
  8 32  1  0
  9 33  1  0
  9 34  1  0
 12 35  1  1
 14 36  1  0
 15 37  1  0
 16 38  1  0
 17 39  1  0
 18 40  1  0
 20 41  1  0
 20 42  1  0
M  END
>  <UniqueID>  (28) 
25

>  <SMILES>  (28) 
CC1(C)C=C2C[C@@](C)(CC(=O)[C@H]2c2ccccc2)OC1

>  <Energy>  (28) 
76.58071584698568

>  <Genealogy>  (28) 
CC1(C)C=C2C[C@@](C)(CC(=O)[C@H]2c2ccccc2)OC1 (chirality)
CC1(C)C=C2C[C@@](C)(CC(=O)[C@H]2c2ccccc2)OC1 (3D coordinates assigned)
CC1(C)C=C2C[C@@](C)(CC(=O)[C@H]2c2ccccc2)OC1 (nonaromatic ring conformer: 76.58071584698568 kcal/mol)

>  <smiles>  (28) 
CC1(C)C=C2CC(C)(CC(=O)C2c2ccccc2)OC1

>  <score_type>  (28) 
oracle

>  <origin>  (28) 
adg

>  <m_score__min__energy>  (28) 
-6.0199999999999996

>  <m_primary>  (28) 
energy

$$$$
28:0
     RDKit          3D

 18 19  0  0  0  0  0  0  0  0999 V2000
   57.4380   23.1450   47.6200 O   0  0  0  0  0  0  0  0  0  0  0  0
   57.1050   24.2340   47.0830 C   0  0  0  0  0  0  0  0  0  0  0  0
   55.8230   24.5670   46.8320 N   0  0  0  0  0  0  0  0  0  0  0  0
   55.7380   25.7920   46.2500 C   0  0  0  0  0  0  0  0  0  0  0  0
   54.5060   26.3410   45.9190 O   0  0  0  0  0  0  0  0  0  0  0  0
   56.9620   26.4410   46.0320 C   0  0  0  0  0  0  0  0  0  0  0  0
   57.2080   27.7690   45.4290 C   0  0  0  0  0  0  0  0  0  0  0  0
   58.3890   28.2870   45.1370 C   0  0  0  0  0  0  0  0  0  0  0  0
   58.2390   29.6550   44.5540 C   0  0  0  0  0  0  0  0  0  0  0  0
   56.7220   29.8840   44.5450 C   0  0  0  0  0  0  0  0  0  0  0  0
   56.1620   28.6690   45.1070 N   0  0  0  0  0  0  0  0  0  0  0  0
   58.1820   25.4250   46.6040 S   0  0  0  0  0  0  0  0  0  0  0  0
   59.3513   27.7799   45.3009 H   0  0  0  0  0  0  0  0  0  0  0  0
   58.7450   30.4053   45.1794 H   0  0  0  0  0  0  0  0  0  0  0  0
   58.6887   29.7432   43.5540 H   0  0  0  0  0  0  0  0  0  0  0  0
   56.4576   30.7548   45.1629 H   0  0  0  0  0  0  0  0  0  0  0  0
   56.3385   30.0902   43.5348 H   0  0  0  0  0  0  0  0  0  0  0  0
   55.1420   28.4910   45.2410 H   0  0  0  0  0  0  0  0  0  0  0  0
  1  2  2  0
  2  3  1  0
  3  4  1  0
  4  5  1  0
  4  6  2  0
  6  7  1  0
  7  8  2  0
  8  9  1  0
  9 10  1  0
 10 11  1  0
  6 12  1  0
 12  2  1  0
 11  7  1  0
  8 13  1  0
  9 14  1  0
  9 15  1  0
 10 16  1  0
 10 17  1  0
 11 18  1  0
M  CHG  2   3  -1   5  -1
M  END
>  <UniqueID>  (29) 
26

>  <SMILES>  (29) 
O=c1[n-]c([O-])c(C2=CCCN2)s1

>  <Energy>  (29) 
59.22452321774274

>  <Genealogy>  (29) 
O=c1[n-]c([O-])c(C2=CCCN2)s1 (protonated)
O=c1[n-]c([O-])c(C2=CCCN2)s1 (3D coordinates assigned)
O=c1[n-]c([O-])c(C2=CCCN2)s1 (nonaromatic ring conformer: 59.22452321774274 kcal/mol)

>  <smiles>  (29) 
O=c1[nH]c(O)c(C2=CCCN2)s1

>  <score_type>  (29) 
oracle

>  <origin>  (29) 
adg

>  <m_score__min__energy>  (29) 
-12.369999999999999

>  <m_primary>  (29) 
energy

$$$$
29:0
     RDKit          3D

 54 56  0  0  0  0  0  0  0  0999 V2000
   62.7540   33.1420   47.1050 C   0  0  0  0  0  0  0  0  0  0  0  0
   62.6000   31.6660   47.4480 C   0  0  0  0  0  0  0  0  0  0  0  0
   61.1740   31.2430   47.4100 N   0  0  0  0  0  0  0  0  0  0  0  0
   60.5310   31.4650   48.7320 C   0  0  0  0  0  0  0  0  0  0  0  0
   59.0340   31.3180   48.6160 C   0  0  0  0  0  0  0  0  0  0  0  0
   58.5050   30.1880   48.8200 O   0  0  0  0  0  0  0  0  0  0  0  0
   58.1970   32.4010   48.1890 N   0  0  0  0  0  0  0  0  0  0  0  0
   58.5200   33.3880   47.1960 C   0  0  0  0  0  0  0  0  0  0  0  0
   57.9840   33.3110   45.8970 C   0  0  0  0  0  0  0  0  0  0  0  0
   58.3370   34.2630   44.9320 C   0  0  0  0  0  0  0  0  0  0  0  0
   59.2370   35.2870   45.2530 C   0  0  0  0  0  0  0  0  0  0  0  0
   59.7930   35.3530   46.5340 C   0  0  0  0  0  0  0  0  0  0  0  0
   59.4440   34.4050   47.5050 C   0  0  0  0  0  0  0  0  0  0  0  0
   60.1610   34.5150   49.1100 Cl  0  0  0  0  0  0  0  0  0  0  0  0
   61.0340   29.8280   46.9870 C   0  0  0  0  0  0  0  0  0  0  0  0
   60.1490   29.7090   45.7820 C   0  0  0  0  0  0  0  0  0  0  0  0
   60.4870   28.9490   44.8400 O   0  0  0  0  0  0  0  0  0  0  0  0
   58.9040   30.4250   45.7370 N   0  0  0  0  0  0  0  0  0  0  0  0
   58.0450   30.4500   44.5840 C   0  0  0  0  0  0  0  0  0  0  0  0
   58.2890   31.3420   43.5200 C   0  0  0  0  0  0  0  0  0  0  0  0
   57.4080   31.3980   42.4340 C   0  0  0  0  0  0  0  0  0  0  0  0
   56.2800   30.5720   42.3990 C   0  0  0  0  0  0  0  0  0  0  0  0
   56.0230   29.6940   43.4520 C   0  0  0  0  0  0  0  0  0  0  0  0
   56.8950   29.6380   44.5580 C   0  0  0  0  0  0  0  0  0  0  0  0
   56.6680   28.7470   45.6180 O   0  0  0  0  0  0  0  0  0  0  0  0
   57.4080   27.5850   45.8790 C   0  0  0  0  0  0  0  0  0  0  0  0
   57.4020   26.4830   45.0000 C   0  0  0  0  0  0  0  0  0  0  0  0
   58.1210   25.3280   45.3160 C   0  0  0  0  0  0  0  0  0  0  0  0
   58.8430   25.2580   46.5170 C   0  0  0  0  0  0  0  0  0  0  0  0
   58.8430   26.3450   47.4030 C   0  0  0  0  0  0  0  0  0  0  0  0
   58.1200   27.5000   47.0900 C   0  0  0  0  0  0  0  0  0  0  0  0
   62.8153   33.7296   48.0329 H   0  0  0  0  0  0  0  0  0  0  0  0
   63.6723   33.2880   46.5172 H   0  0  0  0  0  0  0  0  0  0  0  0
   61.8857   33.4744   46.5172 H   0  0  0  0  0  0  0  0  0  0  0  0
   63.1694   31.0688   46.7207 H   0  0  0  0  0  0  0  0  0  0  0  0
   62.9799   31.5074   48.4681 H   0  0  0  0  0  0  0  0  0  0  0  0
   60.9139   30.7255   49.4507 H   0  0  0  0  0  0  0  0  0  0  0  0
   60.7654   32.4825   49.0782 H   0  0  0  0  0  0  0  0  0  0  0  0
   57.2860   32.5010   45.6388 H   0  0  0  0  0  0  0  0  0  0  0  0
   57.9070   34.2063   43.9211 H   0  0  0  0  0  0  0  0  0  0  0  0
   59.5064   36.0394   44.4971 H   0  0  0  0  0  0  0  0  0  0  0  0
   60.5073   36.1523   46.7806 H   0  0  0  0  0  0  0  0  0  0  0  0
   62.0285   29.4259   46.7433 H   0  0  0  0  0  0  0  0  0  0  0  0
   60.5787   29.2605   47.8120 H   0  0  0  0  0  0  0  0  0  0  0  0
   58.5350   30.7990   46.6380 H   0  0  0  0  0  0  0  0  0  0  0  0
   59.1736   31.9953   43.5434 H   0  0  0  0  0  0  0  0  0  0  0  0
   57.6035   32.0941   41.6050 H   0  0  0  0  0  0  0  0  0  0  0  0
   55.5944   30.6148   41.5398 H   0  0  0  0  0  0  0  0  0  0  0  0
   55.1368   29.0431   43.4191 H   0  0  0  0  0  0  0  0  0  0  0  0
   56.8292   26.5329   44.0622 H   0  0  0  0  0  0  0  0  0  0  0  0
   58.1212   24.4734   44.6234 H   0  0  0  0  0  0  0  0  0  0  0  0
   59.4103   24.3485   46.7641 H   0  0  0  0  0  0  0  0  0  0  0  0
   59.4112   26.2890   48.3432 H   0  0  0  0  0  0  0  0  0  0  0  0
   58.1076   28.3458   47.7932 H   0  0  0  0  0  0  0  0  0  0  0  0
  1  2  1  0
  2  3  1  0
  3  4  1  0
  4  5  1  0
  5  6  2  0
  5  7  1  0
  7  8  1  0
  8  9  2  0
  9 10  1  0
 10 11  2  0
 11 12  1  0
 12 13  2  0
 13 14  1  0
  3 15  1  0
 15 16  1  0
 16 17  2  0
 16 18  1  0
 18 19  1  0
 19 20  2  0
 20 21  1  0
 21 22  2  0
 22 23  1  0
 23 24  2  0
 24 25  1  0
 25 26  1  0
 26 27  2  0
 27 28  1  0
 28 29  2  0
 29 30  1  0
 30 31  2  0
 13  8  1  0
 24 19  1  0
 31 26  1  0
  1 32  1  0
  1 33  1  0
  1 34  1  0
  2 35  1  0
  2 36  1  0
  4 37  1  0
  4 38  1  0
  9 39  1  0
 10 40  1  0
 11 41  1  0
 12 42  1  0
 15 43  1  0
 15 44  1  0
 18 45  1  0
 20 46  1  0
 21 47  1  0
 22 48  1  0
 23 49  1  0
 27 50  1  0
 28 51  1  0
 29 52  1  0
 30 53  1  0
 31 54  1  0
M  CHG  1   7  -1
M  END
>  <UniqueID>  (30) 
27

>  <SMILES>  (30) 
CCN(CC(=O)[N-]c1ccccc1Cl)CC(=O)Nc1ccccc1Oc1ccccc1

>  <Energy>  (30) 
72.73376996668816

>  <Genealogy>  (30) 
CCN(CC(=O)[N-]c1ccccc1Cl)CC(=O)Nc1ccccc1Oc1ccccc1 (protonated)
CCN(CC(=O)[N-]c1ccccc1Cl)CC(=O)Nc1ccccc1Oc1ccccc1 (3D coordinates assigned)
CCN(CC(=O)[N-]c1ccccc1Cl)CC(=O)Nc1ccccc1Oc1ccccc1 (optimized conformer: 72.73376996668816 kcal/mol)

>  <smiles>  (30) 
CCN(CC(=O)Nc1ccccc1Cl)CC(=O)Nc1ccccc1Oc1ccccc1

>  <score_type>  (30) 
oracle

>  <origin>  (30) 
adg

>  <m_score__min__energy>  (30) 
-10.869999999999999

>  <m_primary>  (30) 
energy

$$$$
30:0
     RDKit          3D

 61 66  0  0  0  0  0  0  0  0999 V2000
   55.8860   27.0790   45.9870 N   0  0  0  0  0  0  0  0  0  0  0  0
   57.3920   27.3300   45.1780 S   0  0  0  0  0  0  0  0  0  0  0  0
   58.5090   27.2140   46.1780 O   0  0  0  0  0  0  0  0  0  0  0  0
   57.5850   26.2690   44.1300 O   0  0  0  0  0  0  0  0  0  0  0  0
   57.4170   28.9370   44.4300 C   0  0  0  0  0  0  0  0  0  0  0  0
   56.7530   29.1210   43.2060 C   0  0  0  0  0  0  0  0  0  0  0  0
   56.7030   30.3810   42.6070 C   0  0  0  0  0  0  0  0  0  0  0  0
   57.3120   31.4740   43.2240 C   0  0  0  0  0  0  0  0  0  0  0  0
   57.9840   31.3070   44.4350 C   0  0  0  0  0  0  0  0  0  0  0  0
   58.0580   30.0430   45.0420 C   0  0  0  0  0  0  0  0  0  0  0  0
   58.8180   29.9130   46.3020 C   0  0  0  0  0  0  0  0  0  0  0  0
   60.2020   30.1440   46.3220 C   0  0  0  0  0  0  0  0  0  0  0  0
   60.9150   30.0440   47.5200 C   0  0  0  0  0  0  0  0  0  0  0  0
   60.2550   29.7170   48.7150 C   0  0  0  0  0  0  0  0  0  0  0  0
   60.9830   29.6480   49.9560 N   0  0  0  0  0  0  0  0  0  0  0  0
   61.4520   28.3320   50.4320 C   0  0  0  0  0  0  0  0  0  0  0  0
   62.4350   28.4480   51.6100 C   0  0  0  0  0  0  0  0  0  0  0  0
   63.3620   29.6190   51.4230 C   0  0  0  0  0  0  0  0  0  0  0  0
   64.7300   29.5070   51.7040 C   0  0  0  0  0  0  0  0  0  0  0  0
   65.5690   30.6110   51.5490 C   0  0  0  0  0  0  0  0  0  0  0  0
   65.0450   31.8400   51.1460 C   0  0  0  0  0  0  0  0  0  0  0  0
   63.6700   31.9860   50.8970 C   0  0  0  0  0  0  0  0  0  0  0  0
   63.1610   33.3280   50.5370 C   0  0  0  0  0  0  0  0  0  0  0  0
   63.9820   34.2050   50.1560 O   0  0  0  0  0  0  0  0  0  0  0  0
   61.7640   33.6620   50.5660 N   0  0  0  0  0  0  0  0  0  0  0  0
   60.9430   33.7200   49.5580 C   0  0  0  0  0  0  0  0  0  0  0  0
   61.3230   34.2090   48.3530 N   0  0  0  0  0  0  0  0  0  0  0  0
   60.3010   34.1930   47.4580 C   0  0  0  0  0  0  0  0  0  0  0  0
   60.3920   34.6270   46.1340 C   0  0  0  0  0  0  0  0  0  0  0  0
   59.2470   34.5570   45.3200 C   0  0  0  0  0  0  0  0  0  0  0  0
   58.0350   34.0570   45.8350 C   0  0  0  0  0  0  0  0  0  0  0  0
   57.9540   33.6250   47.1680 C   0  0  0  0  0  0  0  0  0  0  0  0
   59.1020   33.7040   47.9540 C   0  0  0  0  0  0  0  0  0  0  0  0
   59.3030   33.2710   49.5650 S   0  0  0  0  0  0  0  0  0  0  0  0
   62.8260   30.8500   50.9990 C   0  0  0  0  0  0  0  0  0  0  0  0
   61.3520   30.8810   50.6690 C   0  0  0  0  0  0  0  0  0  0  0  0
   58.8650   29.5050   48.6940 C   0  0  0  0  0  0  0  0  0  0  0  0
   58.1530   29.6040   47.4970 C   0  0  0  0  0  0  0  0  0  0  0  0
   55.1420   27.0770   45.2540 H   0  0  0  0  0  0  0  0  0  0  0  0
   56.2680   28.2645   42.7150 H   0  0  0  0  0  0  0  0  0  0  0  0
   56.1825   30.5122   41.6469 H   0  0  0  0  0  0  0  0  0  0  0  0
   57.2623   32.4679   42.7554 H   0  0  0  0  0  0  0  0  0  0  0  0
   58.4600   32.1729   44.9185 H   0  0  0  0  0  0  0  0  0  0  0  0
   60.7276   30.4047   45.3915 H   0  0  0  0  0  0  0  0  0  0  0  0
   62.0004   30.2227   47.5265 H   0  0  0  0  0  0  0  0  0  0  0  0
   60.5812   27.7431   50.7558 H   0  0  0  0  0  0  0  0  0  0  0  0
   61.9826   27.8453   49.6004 H   0  0  0  0  0  0  0  0  0  0  0  0
   61.8662   28.5842   52.5416 H   0  0  0  0  0  0  0  0  0  0  0  0
   63.0362   27.5281   51.6578 H   0  0  0  0  0  0  0  0  0  0  0  0
   65.1433   28.5472   52.0474 H   0  0  0  0  0  0  0  0  0  0  0  0
   66.6469   30.5123   51.7451 H   0  0  0  0  0  0  0  0  0  0  0  0
   65.7154   32.7033   51.0220 H   0  0  0  0  0  0  0  0  0  0  0  0
   62.2850   34.5560   48.1390 H   0  0  0  0  0  0  0  0  0  0  0  0
   61.3405   35.0160   45.7353 H   0  0  0  0  0  0  0  0  0  0  0  0
   59.2984   34.8949   44.2745 H   0  0  0  0  0  0  0  0  0  0  0  0
   57.1466   34.0048   45.1885 H   0  0  0  0  0  0  0  0  0  0  0  0
   57.0116   33.2353   47.5803 H   0  0  0  0  0  0  0  0  0  0  0  0
   60.7695   30.9550   51.5992 H   0  0  0  0  0  0  0  0  0  0  0  0
   61.1372   31.7514   50.0316 H   0  0  0  0  0  0  0  0  0  0  0  0
   58.3354   29.2597   49.6264 H   0  0  0  0  0  0  0  0  0  0  0  0
   57.0655   29.4388   47.4915 H   0  0  0  0  0  0  0  0  0  0  0  0
  1  2  1  0
  2  3  2  0
  2  4  2  0
  2  5  1  0
  5  6  2  0
  6  7  1  0
  7  8  2  0
  8  9  1  0
  9 10  2  0
 10 11  1  0
 11 12  2  0
 12 13  1  0
 13 14  2  0
 14 15  1  0
 15 16  1  0
 16 17  1  0
 17 18  1  0
 18 19  2  0
 19 20  1  0
 20 21  2  0
 21 22  1  0
 22 23  1  0
 23 24  2  0
 23 25  1  0
 25 26  2  3
 26 27  1  0
 27 28  1  0
 28 29  2  0
 29 30  1  0
 30 31  2  0
 31 32  1  0
 32 33  2  0
 33 34  1  0
 22 35  2  0
 35 36  1  0
 14 37  1  0
 37 38  2  0
 10  5  1  0
 38 11  1  0
 36 15  1  0
 35 18  1  0
 34 26  1  0
 33 28  1  0
  1 39  1  0
  6 40  1  0
  7 41  1  0
  8 42  1  0
  9 43  1  0
 12 44  1  0
 13 45  1  0
 16 46  1  0
 16 47  1  0
 17 48  1  0
 17 49  1  0
 19 50  1  0
 20 51  1  0
 21 52  1  0
 27 53  1  0
 29 54  1  0
 30 55  1  0
 31 56  1  0
 32 57  1  0
 36 58  1  0
 36 59  1  0
 37 60  1  0
 38 61  1  0
M  CHG  1   1  -1
M  END
>  <UniqueID>  (31) 
28

>  <SMILES>  (31) 
[NH-]S(=O)(=O)c1ccccc1-c1ccc(N2CCc3cccc(C(=O)N=c4[nH]c5ccccc5s4)c3C2)cc1

>  <Energy>  (31) 
130.71779378591245

>  <Genealogy>  (31) 
[NH-]S(=O)(=O)c1ccccc1-c1ccc(N2CCc3cccc(C(=O)N=c4[nH]c5ccccc5s4)c3C2)cc1 (protonated)
[NH-]S(=O)(=O)c1ccccc1-c1ccc(N2CCc3cccc(C(=O)N=c4[nH]c5ccccc5s4)c3C2)cc1 (3D coordinates assigned)
[NH-]S(=O)(=O)c1ccccc1-c1ccc(N2CCc3cccc(C(=O)N=c4[nH]c5ccccc5s4)c3C2)cc1 (nonaromatic ring conformer: 130.71779378591245 kcal/mol)

>  <smiles>  (31) 
NS(=O)(=O)c1ccccc1-c1ccc(N2CCc3cccc(C(=O)N=c4[nH]c5ccccc5s4)c3C2)cc1

>  <score_type>  (31) 
oracle

>  <origin>  (31) 
adg

>  <m_score__min__energy>  (31) 
-12.880000000000001

>  <m_primary>  (31) 
energy

$$$$
31:0
     RDKit          3D

 70 74  0  0  0  0  0  0  0  0999 V2000
   59.9040   25.6300   46.3520 C   0  0  0  0  0  0  0  0  0  0  0  0
   60.7320   26.4970   47.1290 O   0  0  0  0  0  0  0  0  0  0  0  0
   60.2610   27.6550   47.7730 C   0  0  0  0  0  0  0  0  0  0  0  0
   60.4790   27.8780   49.1460 C   0  0  0  0  0  0  0  0  0  0  0  0
   59.9070   28.9790   49.7920 C   0  0  0  0  0  0  0  0  0  0  0  0
   60.0240   29.1140   51.1380 N   0  0  0  0  0  0  0  0  0  0  0  0
   59.4250   30.1370   51.8150 C   0  0  0  0  0  0  0  0  0  0  0  0
   58.6360   31.0740   51.1200 C   0  0  0  0  0  0  0  0  0  0  0  0
   57.6530   31.8810   51.8550 C   0  0  0  0  0  0  0  0  0  0  0  0
   56.4420   31.5170   51.7810 O   0  0  0  0  0  0  0  0  0  0  0  0
   58.0560   33.0440   52.6370 N   0  0  0  0  0  0  0  0  0  0  0  0
   59.0330   33.8330   51.8550 C   0  0  0  0  0  0  0  0  0  0  0  0
   58.6880   32.6330   53.9100 C   0  0  0  0  0  0  0  0  0  0  0  0
   58.5230   30.9640   49.7250 C   0  0  0  0  0  0  0  0  0  0  0  0
   59.1620   29.9190   49.0500 C   0  0  0  0  0  0  0  0  0  0  0  0
   58.9820   29.7300   47.6790 C   0  0  0  0  0  0  0  0  0  0  0  0
   59.4960   28.5810   47.0410 C   0  0  0  0  0  0  0  0  0  0  0  0
   59.1700   28.3520   45.6960 O   0  0  0  0  0  0  0  0  0  0  0  0
   58.1490   29.1080   45.1280 C   0  0  0  0  0  0  0  0  0  0  0  0
   58.3720   30.4360   44.7660 C   0  0  0  0  0  0  0  0  0  0  0  0
   57.2760   31.2490   44.4070 C   0  0  0  0  0  0  0  0  0  0  0  0
   57.3910   32.5100   44.0970 N   0  0  0  0  0  0  0  0  0  0  0  0
   57.5400   33.6250   44.9870 C   0  0  0  0  0  0  0  0  0  0  0  0
   56.7650   34.6100   44.8490 O   0  0  0  0  0  0  0  0  0  0  0  0
   58.6480   33.7120   45.9650 C   0  0  0  0  0  0  0  0  0  0  0  0
   59.9670   33.8390   45.5150 C   0  0  0  0  0  0  0  0  0  0  0  0
   61.0130   33.9360   46.4270 C   0  0  0  0  0  0  0  0  0  0  0  0
   60.7710   33.9470   47.8150 C   0  0  0  0  0  0  0  0  0  0  0  0
   61.9610   34.1080   48.7580 C   0  0  1  0  0  0  0  0  0  0  0  0
   61.8080   33.2530   50.0350 C   0  0  0  0  0  0  0  0  0  0  0  0
   62.0680   31.7770   49.7410 C   0  0  0  0  0  0  0  0  0  0  0  0
   63.4800   31.6240   49.1840 C   0  0  0  0  0  0  0  0  0  0  0  0
   63.6340   32.3890   47.9370 N   0  0  0  0  0  0  0  0  0  0  0  0
   63.3650   33.8260   48.1410 C   0  0  0  0  0  0  0  0  0  0  0  0
   59.4490   33.7330   48.2610 C   0  0  0  0  0  0  0  0  0  0  0  0
   58.3990   33.6160   47.3430 C   0  0  0  0  0  0  0  0  0  0  0  0
   55.9860   30.6960   44.4220 C   0  0  0  0  0  0  0  0  0  0  0  0
   55.8200   29.3460   44.7280 C   0  0  0  0  0  0  0  0  0  0  0  0
   56.8870   28.5900   45.0540 N   0  0  0  0  0  0  0  0  0  0  0  0
   59.3019   24.9996   47.0229 H   0  0  0  0  0  0  0  0  0  0  0  0
   59.2367   26.2317   45.7174 H   0  0  0  0  0  0  0  0  0  0  0  0
   60.5358   24.9911   45.7174 H   0  0  0  0  0  0  0  0  0  0  0  0
   61.1065   27.1782   49.7174 H   0  0  0  0  0  0  0  0  0  0  0  0
   59.5585   30.2294   52.9029 H   0  0  0  0  0  0  0  0  0  0  0  0
   57.2140   33.6520   52.8490 H   0  0  0  0  0  0  0  0  0  0  0  0
   59.7016   34.3730   52.5415 H   0  0  0  0  0  0  0  0  0  0  0  0
   59.6262   33.1576   51.2210 H   0  0  0  0  0  0  0  0  0  0  0  0
   58.4976   34.5551   51.2210 H   0  0  0  0  0  0  0  0  0  0  0  0
   58.0966   33.0176   54.7539 H   0  0  0  0  0  0  0  0  0  0  0  0
   58.7290   31.5350   53.9613 H   0  0  0  0  0  0  0  0  0  0  0  0
   59.7083   33.0408   53.9613 H   0  0  0  0  0  0  0  0  0  0  0  0
   57.9311   31.7007   49.1621 H   0  0  0  0  0  0  0  0  0  0  0  0
   58.4354   30.4823   47.0913 H   0  0  0  0  0  0  0  0  0  0  0  0
   59.3927   30.8460   44.7603 H   0  0  0  0  0  0  0  0  0  0  0  0
   60.1776   33.8622   44.4356 H   0  0  0  0  0  0  0  0  0  0  0  0
   62.0470   34.0053   46.0581 H   0  0  0  0  0  0  0  0  0  0  0  0
   61.9329   35.1815   48.9963 H   0  0  0  0  0  0  0  0  0  0  0  0
   62.5285   33.6016   50.7896 H   0  0  0  0  0  0  0  0  0  0  0  0
   60.7781   33.3598   50.4065 H   0  0  0  0  0  0  0  0  0  0  0  0
   61.9720   31.1935   50.6685 H   0  0  0  0  0  0  0  0  0  0  0  0
   61.3363   31.4093   49.0065 H   0  0  0  0  0  0  0  0  0  0  0  0
   64.2027   31.9942   49.9260 H   0  0  0  0  0  0  0  0  0  0  0  0
   63.6621   30.5604   48.9706 H   0  0  0  0  0  0  0  0  0  0  0  0
   62.9890   31.9900   47.2170 H   0  0  0  0  0  0  0  0  0  0  0  0
   64.1317   34.2324   48.8170 H   0  0  0  0  0  0  0  0  0  0  0  0
   63.3890   34.3061   47.1516 H   0  0  0  0  0  0  0  0  0  0  0  0
   59.2423   33.6576   49.3388 H   0  0  0  0  0  0  0  0  0  0  0  0
   57.3734   33.4479   47.7033 H   0  0  0  0  0  0  0  0  0  0  0  0
   55.1119   31.3236   44.1938 H   0  0  0  0  0  0  0  0  0  0  0  0
   54.8161   28.8970   44.7033 H   0  0  0  0  0  0  0  0  0  0  0  0
  1  2  1  0
  2  3  1  0
  3  4  2  0
  4  5  1  0
  5  6  2  0
  6  7  1  0
  7  8  2  0
  8  9  1  0
  9 10  2  0
  9 11  1  0
 11 12  1  0
 11 13  1  0
  8 14  1  0
 14 15  2  0
 15 16  1  0
 16 17  2  0
 17 18  1  0
 18 19  1  0
 19 20  2  0
 20 21  1  0
 21 22  2  3
 22 23  1  0
 23 24  2  0
 23 25  1  0
 25 26  2  0
 26 27  1  0
 27 28  2  0
 28 29  1  0
 29 30  1  0
 30 31  1  0
 31 32  1  0
 32 33  1  0
 33 34  1  0
 28 35  1  0
 35 36  2  0
 21 37  1  0
 37 38  2  0
 38 39  1  0
 17  3  1  0
 39 19  1  0
 15  5  1  0
 36 25  1  0
 34 29  1  0
  1 40  1  0
  1 41  1  0
  1 42  1  0
  4 43  1  0
  7 44  1  0
 11 45  1  0
 12 46  1  0
 12 47  1  0
 12 48  1  0
 13 49  1  0
 13 50  1  0
 13 51  1  0
 14 52  1  0
 16 53  1  0
 20 54  1  0
 26 55  1  0
 27 56  1  0
 29 57  1  1
 30 58  1  0
 30 59  1  0
 31 60  1  0
 31 61  1  0
 32 62  1  0
 32 63  1  0
 33 64  1  0
 34 65  1  0
 34 66  1  0
 35 67  1  0
 36 68  1  0
 37 69  1  0
 38 70  1  0
M  CHG  2  11   1  39  -1
M  END
>  <UniqueID>  (32) 
29

>  <SMILES>  (32) 
COc1cc2ncc(C(=O)[NH+](C)C)cc2cc1Oc1cc(=NC(=O)c2ccc([C@H]3CCCNC3)cc2)cc[n-]1

>  <Energy>  (32) 
123.01951568076079

>  <Genealogy>  (32) 
COc1cc2ncc(C(=O)[NH+](C)C)cc2cc1Oc1cc(=NC(=O)c2ccc(C3CCCNC3)cc2)cc[n-]1 (protonated)
COc1cc2ncc(C(=O)[NH+](C)C)cc2cc1Oc1cc(=NC(=O)c2ccc([C@H]3CCCNC3)cc2)cc[n-]1 (chirality)
COc1cc2ncc(C(=O)[NH+](C)C)cc2cc1Oc1cc(=NC(=O)c2ccc([C@H]3CCCNC3)cc2)cc[n-]1 (3D coordinates assigned)
COc1cc2ncc(C(=O)[NH+](C)C)cc2cc1Oc1cc(=NC(=O)c2ccc([C@H]3CCCNC3)cc2)cc[n-]1 (nonaromatic ring conformer: 123.01951568076079 kcal/mol)

>  <smiles>  (32) 
COc1cc2ncc(C(=O)N(C)C)cc2cc1Oc1cc(=NC(=O)c2ccc(C3CCCNC3)cc2)cc[nH]1

>  <score_type>  (32) 
oracle

>  <origin>  (32) 
adg

>  <m_score__min__energy>  (32) 
-11.630000000000001

>  <m_primary>  (32) 
energy

$$$$
32:0
     RDKit          3D

 41 44  0  0  0  0  0  0  0  0999 V2000
   63.7480   33.8340   47.2510 C   0  0  0  0  0  0  0  0  0  0  0  0
   62.6150   32.9590   47.5400 N   0  0  0  0  0  0  0  0  0  0  0  0
   62.6760   31.7230   48.0890 C   0  0  0  0  0  0  0  0  0  0  0  0
   61.3950   31.1920   48.2160 C   0  0  0  0  0  0  0  0  0  0  0  0
   61.0450   29.8580   48.8050 C   0  0  0  0  0  0  0  0  0  0  0  0
   59.7690   29.3860   48.2730 N   0  0  0  0  0  0  0  0  0  0  0  0
   59.6730   28.6750   47.0300 C   0  0  0  0  0  0  0  0  0  0  0  0
   60.7180   28.3430   46.4070 O   0  0  0  0  0  0  0  0  0  0  0  0
   58.3550   28.2680   46.4980 C   0  0  0  0  0  0  0  0  0  0  0  0
   57.8250   27.0370   46.9140 C   0  0  0  0  0  0  0  0  0  0  0  0
   56.5630   26.6350   46.4750 C   0  0  0  0  0  0  0  0  0  0  0  0
   56.0770   25.5420   46.8650 O   0  0  0  0  0  0  0  0  0  0  0  0
   55.8510   27.4260   45.6320 N   0  0  0  0  0  0  0  0  0  0  0  0
   56.3300   28.6170   45.1860 C   0  0  0  0  0  0  0  0  0  0  0  0
   55.5610   29.3830   44.3040 C   0  0  0  0  0  0  0  0  0  0  0  0
   56.0490   30.5960   43.8150 C   0  0  0  0  0  0  0  0  0  0  0  0
   57.3150   31.0430   44.1960 C   0  0  0  0  0  0  0  0  0  0  0  0
   58.0960   30.2870   45.0750 C   0  0  0  0  0  0  0  0  0  0  0  0
   57.6070   29.0730   45.6010 C   0  0  0  0  0  0  0  0  0  0  0  0
   60.5330   32.1630   47.7360 C   0  0  0  0  0  0  0  0  0  0  0  0
   59.1420   32.1910   47.6320 C   0  0  0  0  0  0  0  0  0  0  0  0
   58.5420   33.3500   47.1010 C   0  0  0  0  0  0  0  0  0  0  0  0
   59.3390   34.4400   46.6880 C   0  0  0  0  0  0  0  0  0  0  0  0
   60.7400   34.3830   46.8000 C   0  0  0  0  0  0  0  0  0  0  0  0
   61.3090   33.2220   47.3330 C   0  0  0  0  0  0  0  0  0  0  0  0
   64.1949   34.1791   48.1950 H   0  0  0  0  0  0  0  0  0  0  0  0
   64.5002   33.2801   46.6701 H   0  0  0  0  0  0  0  0  0  0  0  0
   63.4023   34.7018   46.6701 H   0  0  0  0  0  0  0  0  0  0  0  0
   63.6025   31.2126   48.3908 H   0  0  0  0  0  0  0  0  0  0  0  0
   61.8330   29.1328   48.5539 H   0  0  0  0  0  0  0  0  0  0  0  0
   60.9604   29.9609   49.8969 H   0  0  0  0  0  0  0  0  0  0  0  0
   58.9020   29.5710   48.8260 H   0  0  0  0  0  0  0  0  0  0  0  0
   58.4050   26.3883   47.5869 H   0  0  0  0  0  0  0  0  0  0  0  0
   54.5670   29.0280   43.9942 H   0  0  0  0  0  0  0  0  0  0  0  0
   55.4358   31.1994   43.1295 H   0  0  0  0  0  0  0  0  0  0  0  0
   57.7003   31.9952   43.8025 H   0  0  0  0  0  0  0  0  0  0  0  0
   59.0982   30.6411   45.3583 H   0  0  0  0  0  0  0  0  0  0  0  0
   58.5322   31.3343   47.9548 H   0  0  0  0  0  0  0  0  0  0  0  0
   57.4474   33.4060   47.0077 H   0  0  0  0  0  0  0  0  0  0  0  0
   58.8606   35.3406   46.2755 H   0  0  0  0  0  0  0  0  0  0  0  0
   61.3690   35.2261   46.4781 H   0  0  0  0  0  0  0  0  0  0  0  0
  1  2  1  0
  2  3  1  0
  3  4  2  0
  4  5  1  0
  5  6  1  0
  6  7  1  0
  7  8  2  0
  7  9  1  0
  9 10  2  0
 10 11  1  0
 11 12  2  0
 11 13  1  0
 13 14  1  0
 14 15  2  0
 15 16  1  0
 16 17  2  0
 17 18  1  0
 18 19  2  0
  4 20  1  0
 20 21  2  0
 21 22  1  0
 22 23  2  0
 23 24  1  0
 24 25  2  0
 25  2  1  0
 19  9  1  0
 25 20  1  0
 19 14  1  0
  1 26  1  0
  1 27  1  0
  1 28  1  0
  3 29  1  0
  5 30  1  0
  5 31  1  0
  6 32  1  0
 10 33  1  0
 15 34  1  0
 16 35  1  0
 17 36  1  0
 18 37  1  0
 21 38  1  0
 22 39  1  0
 23 40  1  0
 24 41  1  0
M  CHG  1  13  -1
M  END
>  <UniqueID>  (33) 
30

>  <SMILES>  (33) 
Cn1cc(CNC(=O)c2cc(=O)[n-]c3ccccc23)c2ccccc21

>  <Energy>  (33) 
86.60087496309099

>  <Genealogy>  (33) 
Cn1cc(CNC(=O)c2cc(=O)[n-]c3ccccc23)c2ccccc21 (protonated)
Cn1cc(CNC(=O)c2cc(=O)[n-]c3ccccc23)c2ccccc21 (3D coordinates assigned)
Cn1cc(CNC(=O)c2cc(=O)[n-]c3ccccc23)c2ccccc21 (optimized conformer: 86.60087496309099 kcal/mol)

>  <smiles>  (33) 
Cn1cc(CNC(=O)c2cc(=O)[nH]c3ccccc23)c2ccccc21

>  <score_type>  (33) 
oracle

>  <origin>  (33) 
adg

>  <m_score__min__energy>  (33) 
-10.199999999999999

>  <m_primary>  (33) 
energy

$$$$
33:0
     RDKit          3D

 39 41  0  0  0  0  0  0  0  0999 V2000
   60.1720   24.9150   45.9820 C   0  0  0  0  0  0  0  0  0  0  0  0
   58.7370   25.3470   45.9730 C   0  0  0  0  0  0  0  0  0  0  0  0
   58.4390   26.6550   45.7500 N   0  0  0  0  0  0  0  0  0  0  0  0
   57.1630   27.1270   45.7170 C   0  0  0  0  0  0  0  0  0  0  0  0
   56.9560   28.5670   45.4640 C   0  0  0  0  0  0  0  0  0  0  0  0
   57.4240   29.4020   46.2850 O   0  0  0  0  0  0  0  0  0  0  0  0
   56.2790   29.0270   44.2830 N   0  0  0  0  0  0  0  0  0  0  0  0
   55.9580   30.4360   44.0620 C   0  0  0  0  0  0  0  0  0  0  0  0
   57.2010   31.3030   44.2450 C   0  0  0  0  0  0  0  0  0  0  0  0
   56.9290   32.3450   45.2340 N   0  0  0  0  0  0  0  0  0  0  0  0
   57.7820   33.2240   45.6760 C   0  0  0  0  0  0  0  0  0  0  0  0
   58.1090   33.2190   47.0380 C   0  0  0  0  0  0  0  0  0  0  0  0
   59.0200   34.1510   47.5380 C   0  0  0  0  0  0  0  0  0  0  0  0
   59.5890   35.0620   46.7060 N   0  0  0  0  0  0  0  0  0  0  0  0
   59.2960   35.0950   45.3800 C   0  0  0  0  0  0  0  0  0  0  0  0
   58.3900   34.1810   44.8370 C   0  0  0  0  0  0  0  0  0  0  0  0
   56.0920   26.2450   45.9570 C   0  0  0  0  0  0  0  0  0  0  0  0
   54.7820   26.7160   46.0100 O   0  0  0  0  0  0  0  0  0  0  0  0
   56.3610   24.8820   46.1780 C   0  0  0  0  0  0  0  0  0  0  0  0
   55.3320   23.9530   46.4050 C   0  0  0  0  0  0  0  0  0  0  0  0
   55.6420   22.6100   46.6250 C   0  0  0  0  0  0  0  0  0  0  0  0
   56.9770   22.2030   46.6190 C   0  0  0  0  0  0  0  0  0  0  0  0
   57.9650   23.1100   46.4030 N   0  0  0  0  0  0  0  0  0  0  0  0
   57.6970   24.4280   46.1840 C   0  0  0  0  0  0  0  0  0  0  0  0
   60.5171   24.8111   47.0213 H   0  0  0  0  0  0  0  0  0  0  0  0
   60.2672   23.9484   45.4657 H   0  0  0  0  0  0  0  0  0  0  0  0
   60.7850   25.6684   45.4657 H   0  0  0  0  0  0  0  0  0  0  0  0
   56.0380   28.3480   43.5270 H   0  0  0  0  0  0  0  0  0  0  0  0
   55.5751   30.5638   43.0388 H   0  0  0  0  0  0  0  0  0  0  0  0
   55.1972   30.7463   44.7933 H   0  0  0  0  0  0  0  0  0  0  0  0
   58.0363   30.6772   44.5924 H   0  0  0  0  0  0  0  0  0  0  0  0
   57.4662   31.7699   43.2849 H   0  0  0  0  0  0  0  0  0  0  0  0
   57.6487   32.4819   47.7124 H   0  0  0  0  0  0  0  0  0  0  0  0
   59.2776   34.1479   48.6074 H   0  0  0  0  0  0  0  0  0  0  0  0
   59.7739   35.8441   44.7316 H   0  0  0  0  0  0  0  0  0  0  0  0
   58.1525   34.2074   43.7633 H   0  0  0  0  0  0  0  0  0  0  0  0
   54.2829   24.2837   46.4094 H   0  0  0  0  0  0  0  0  0  0  0  0
   54.8402   21.8779   46.8018 H   0  0  0  0  0  0  0  0  0  0  0  0
   57.2296   21.1460   46.7895 H   0  0  0  0  0  0  0  0  0  0  0  0
  1  2  1  0
  2  3  2  0
  3  4  1  0
  4  5  1  0
  5  6  2  0
  5  7  1  0
  7  8  1  0
  8  9  1  0
  9 10  1  0
 10 11  2  3
 11 12  1  0
 12 13  2  0
 13 14  1  0
 14 15  1  0
 15 16  2  0
  4 17  2  0
 17 18  1  0
 17 19  1  0
 19 20  2  0
 20 21  1  0
 21 22  2  0
 22 23  1  0
 23 24  2  0
 24  2  1  0
 16 11  1  0
 24 19  1  0
  1 25  1  0
  1 26  1  0
  1 27  1  0
  7 28  1  0
  8 29  1  0
  8 30  1  0
  9 31  1  0
  9 32  1  0
 12 33  1  0
 13 34  1  0
 15 35  1  0
 16 36  1  0
 20 37  1  0
 21 38  1  0
 22 39  1  0
M  CHG  2  14  -1  18  -1
M  END
>  <UniqueID>  (34) 
31

>  <SMILES>  (34) 
Cc1nc(C(=O)NCCN=c2cc[n-]cc2)c([O-])c2cccnc12

>  <Energy>  (34) 
47.77562474633129

>  <Genealogy>  (34) 
Cc1nc(C(=O)NCCN=c2cc[n-]cc2)c([O-])c2cccnc12 (protonated)
Cc1nc(C(=O)NCCN=c2cc[n-]cc2)c([O-])c2cccnc12 (3D coordinates assigned)
Cc1nc(C(=O)NCCN=c2cc[n-]cc2)c([O-])c2cccnc12 (optimized conformer: 47.77562474633129 kcal/mol)

>  <smiles>  (34) 
Cc1nc(C(=O)NCCN=c2cc[nH]cc2)c(O)c2cccnc12

>  <score_type>  (34) 
oracle

>  <origin>  (34) 
adg

>  <m_score__min__energy>  (34) 
-11.880000000000001

>  <m_primary>  (34) 
energy

$$$$
34:0
     RDKit          3D

 35 36  0  0  0  0  0  0  0  0999 V2000
   54.9834   23.9961   47.1228 H   0  0  0  0  0  0  0  0  0  0  0  0
   55.8900   24.5470   46.8320 C   0  0  0  0  0  0  0  0  0  0  0  0
   57.1500   23.9980   47.0810 C   0  0  0  0  0  0  0  0  0  0  0  0
   57.2580   22.7560   47.6940 O   0  0  0  0  0  0  0  0  0  0  0  0
   58.3050   24.6990   46.7150 C   0  0  0  0  0  0  0  0  0  0  0  0
   59.2952   24.2641   46.9159 H   0  0  0  0  0  0  0  0  0  0  0  0
   58.2070   25.9560   46.0920 C   0  0  0  0  0  0  0  0  0  0  0  0
   59.4300   26.6930   45.7030 C   0  0  0  0  0  0  0  0  0  0  0  0
   60.5560   26.3220   46.1350 O   0  0  0  0  0  0  0  0  0  0  0  0
   59.3330   27.8000   44.8530 O   0  0  0  0  0  0  0  0  0  0  0  0
   60.2240   28.9130   44.9040 C   0  0  0  0  0  0  0  0  0  0  0  0
   60.6344   29.0947   43.8997 H   0  0  0  0  0  0  0  0  0  0  0  0
   61.0367   28.6867   45.6099 H   0  0  0  0  0  0  0  0  0  0  0  0
   59.5070   30.1330   45.3690 N   0  0  0  0  0  0  0  0  0  0  0  0
   58.3090   30.4360   44.7600 C   0  0  0  0  0  0  0  0  0  0  0  0
   57.8730   29.6800   43.8490 O   0  0  0  0  0  0  0  0  0  0  0  0
   57.5270   31.4990   45.0490 N   0  0  0  0  0  0  0  0  0  0  0  0
   57.5760   32.5350   45.9060 C   0  0  0  0  0  0  0  0  0  0  0  0
   56.6130   33.3480   45.8720 O   0  0  0  0  0  0  0  0  0  0  0  0
   58.6010   32.7650   46.8120 C   0  0  0  0  0  0  0  0  0  0  0  0
   58.5050   33.8190   47.5770 N   0  0  0  0  0  0  0  0  0  0  0  0
   59.3470   35.0140   47.4950 C   0  0  0  0  0  0  0  0  0  0  0  0
   60.2860   34.8316   48.0382 H   0  0  0  0  0  0  0  0  0  0  0  0
   58.8041   35.8595   47.9426 H   0  0  0  0  0  0  0  0  0  0  0  0
   59.6670   35.3520   46.0420 C   0  0  0  0  0  0  0  0  0  0  0  0
   60.4229   36.1504   46.0092 H   0  0  0  0  0  0  0  0  0  0  0  0
   60.0566   34.4571   45.5346 H   0  0  0  0  0  0  0  0  0  0  0  0
   58.7522   35.6921   45.5346 H   0  0  0  0  0  0  0  0  0  0  0  0
   59.6860   31.9740   46.9410 N   0  0  0  0  0  0  0  0  0  0  0  0
   60.1430   30.8410   46.3660 C   0  0  0  0  0  0  0  0  0  0  0  0
   61.2510   30.4200   46.8020 O   0  0  0  0  0  0  0  0  0  0  0  0
   56.9320   26.4980   45.8450 C   0  0  0  0  0  0  0  0  0  0  0  0
   56.8405   27.4805   45.3588 H   0  0  0  0  0  0  0  0  0  0  0  0
   55.7800   25.7950   46.2140 C   0  0  0  0  0  0  0  0  0  0  0  0
   54.5250   26.3380   45.9660 O   0  0  0  0  0  0  0  0  0  0  0  0
  1  2  1  0
  2  3  2  0
  3  4  1  0
  3  5  1  0
  5  6  1  0
  5  7  2  0
  7  8  1  0
  8  9  2  0
  8 10  1  0
 10 11  1  0
 11 12  1  0
 11 13  1  0
 11 14  1  0
 14 15  1  0
 15 16  2  0
 15 17  1  0
 17 18  1  0
 18 19  2  0
 18 20  1  0
 20 21  2  0
 21 22  1  0
 22 23  1  0
 22 24  1  0
 22 25  1  0
 25 26  1  0
 25 27  1  0
 25 28  1  0
 20 29  1  0
 29 30  1  0
 30 31  2  0
  7 32  1  0
 32 33  1  0
 32 34  2  0
 34 35  1  0
 34  2  1  0
 30 14  1  0
M  CHG  4   4  -1  17  -1  29  -1  35  -1
M  END
>  <UniqueID>  (35) 
32

>  <SMILES>  (35) 
CC/N=c1\[n-]c(=O)n(COC(=O)c2cc([O-])cc([O-])c2)c(=O)[n-]c1=O

>  <Energy>  (35) 
67.47784084344312

>  <Genealogy>  (35) 
CCN=c1[n-]c(=O)n(COC(=O)c2cc([O-])cc([O-])c2)c(=O)[n-]c1=O (protonated)
CC/N=c1\[n-]c(=O)n(COC(=O)c2cc([O-])cc([O-])c2)c(=O)[n-]c1=O (cis-trans isomerization)
CC/N=c1\[n-]c(=O)n(COC(=O)c2cc([O-])cc([O-])c2)c(=O)[n-]c1=O (3D coordinates assigned)
CC/N=c1\[n-]c(=O)n(COC(=O)c2cc([O-])cc([O-])c2)c(=O)[n-]c1=O (optimized conformer: 67.47784084344312 kcal/mol)

>  <smiles>  (35) 
CCN=c1[nH]c(=O)n(COC(=O)c2cc(O)cc(O)c2)c(=O)[nH]c1=O

>  <score_type>  (35) 
oracle

>  <origin>  (35) 
adg

>  <m_score__min__energy>  (35) 
-13.65

>  <m_primary>  (35) 
energy

$$$$
35:0
     RDKit          3D

 32 33  0  0  0  0  0  0  0  0999 V2000
   58.9880   29.5010   47.9660 C   0  0  0  0  0  0  0  0  0  0  0  0
   58.1140   29.3890   46.8800 O   0  0  0  0  0  0  0  0  0  0  0  0
   58.0750   28.4150   45.9300 C   0  0  0  0  0  0  0  0  0  0  0  0
   57.9290   27.0990   46.3950 C   0  0  0  0  0  0  0  0  0  0  0  0
   57.8830   26.0400   45.5140 C   0  0  0  0  0  0  0  0  0  0  0  0
   57.9870   26.3510   44.1740 C   0  0  0  0  0  0  0  0  0  0  0  0
   58.1270   27.6340   43.7220 C   0  0  0  0  0  0  0  0  0  0  0  0
   58.1760   28.7210   44.6010 C   0  0  0  0  0  0  0  0  0  0  0  0
   58.3460   29.9850   44.0280 N   0  0  0  0  0  0  0  0  0  0  0  0
   57.5360   31.1290   44.1800 C   0  0  0  0  0  0  0  0  0  0  0  0
   56.4970   31.1730   44.8670 O   0  0  0  0  0  0  0  0  0  0  0  0
   57.9150   32.4020   43.4810 C   0  0  0  0  0  0  0  0  0  0  0  0
   57.3950   33.8340   44.4950 S   0  0  0  0  0  0  0  0  0  0  0  0
   58.1580   33.6510   46.0990 C   0  0  0  0  0  0  0  0  0  0  0  0
   58.7700   34.5700   46.8650 N   0  0  0  0  0  0  0  0  0  0  0  0
   59.2100   34.0000   48.0010 C   0  0  0  0  0  0  0  0  0  0  0  0
   59.8440   34.5160   48.9980 N   0  0  0  0  0  0  0  0  0  0  0  0
   58.8620   32.6870   47.9390 N   0  0  0  0  0  0  0  0  0  0  0  0
   58.2220   32.4950   46.7740 N   0  0  0  0  0  0  0  0  0  0  0  0
   58.4183   29.4280   48.9042 H   0  0  0  0  0  0  0  0  0  0  0  0
   59.7307   28.6907   47.9240 H   0  0  0  0  0  0  0  0  0  0  0  0
   59.5024   30.4724   47.9240 H   0  0  0  0  0  0  0  0  0  0  0  0
   57.8503   26.9103   47.4758 H   0  0  0  0  0  0  0  0  0  0  0  0
   57.7694   25.0023   45.8608 H   0  0  0  0  0  0  0  0  0  0  0  0
   57.9560   25.5333   43.4389 H   0  0  0  0  0  0  0  0  0  0  0  0
   58.2030   27.8158   42.6398 H   0  0  0  0  0  0  0  0  0  0  0  0
   59.1950   30.1240   43.4000 H   0  0  0  0  0  0  0  0  0  0  0  0
   59.0053   32.4309   43.3378 H   0  0  0  0  0  0  0  0  0  0  0  0
   57.4149   32.4453   42.5022 H   0  0  0  0  0  0  0  0  0  0  0  0
   59.6220   35.4520   49.3850 H   0  0  0  0  0  0  0  0  0  0  0  0
   59.0560   31.9440   48.6710 H   0  0  0  0  0  0  0  0  0  0  0  0
   57.8560   31.5410   46.5080 H   0  0  0  0  0  0  0  0  0  0  0  0
  1  2  1  0
  2  3  1  0
  3  4  2  0
  4  5  1  0
  5  6  2  0
  6  7  1  0
  7  8  2  0
  8  9  1  0
  9 10  1  0
 10 11  2  0
 10 12  1  0
 12 13  1  0
 13 14  1  0
 14 15  2  0
 15 16  1  0
 16 17  2  3
 16 18  1  0
 18 19  1  0
  8  3  1  0
 19 14  1  0
  1 20  1  0
  1 21  1  0
  1 22  1  0
  4 23  1  0
  5 24  1  0
  6 25  1  0
  7 26  1  0
  9 27  1  0
 12 28  1  0
 12 29  1  0
 17 30  1  0
 18 31  1  0
 19 32  1  0
M  END
>  <smiles>  (36) 
COc1ccccc1NC(=O)CSc1nc(=N)[nH][nH]1

>  <score_type>  (36) 
oracle

>  <origin>  (36) 
adg

>  <m_score__min__energy>  (36) 
-6.2699999999999996

>  <m_primary>  (36) 
energy

$$$$
36:0
     RDKit          3D

 65 69  0  0  0  0  0  0  0  0999 V2000
   60.1010   27.3520   49.1490 C   0  0  0  0  0  0  0  0  0  0  0  0
   59.9370   28.2320   47.9780 N   0  0  1  0  0  0  0  0  0  0  0  0
   60.7750   29.4020   48.1510 C   0  0  0  0  0  0  0  0  0  0  0  0
   61.4680   29.6310   49.3000 N   0  0  0  0  0  0  0  0  0  0  0  0
   62.0480   30.8130   49.0530 C   0  0  0  0  0  0  0  0  0  0  0  0
   62.8310   31.5720   49.9190 C   0  0  0  0  0  0  0  0  0  0  0  0
   63.2860   32.8240   49.4670 C   0  0  0  0  0  0  0  0  0  0  0  0
   64.2520   33.8290   50.5300 Cl  0  0  0  0  0  0  0  0  0  0  0  0
   62.9450   33.2800   48.1690 C   0  0  0  0  0  0  0  0  0  0  0  0
   63.3650   34.4940   47.7380 F   0  0  0  0  0  0  0  0  0  0  0  0
   62.1450   32.4860   47.3250 C   0  0  0  0  0  0  0  0  0  0  0  0
   61.7170   31.2530   47.8080 C   0  0  0  0  0  0  0  0  0  0  0  0
   60.9040   30.3740   47.2040 N   0  0  0  0  0  0  0  0  0  0  0  0
   60.1550   27.4630   46.6980 C   0  0  2  0  0  0  0  0  0  0  0  0
   60.7870   28.2360   45.5070 C   0  0  0  0  0  0  0  0  0  0  0  0
   59.8190   29.2090   44.8240 C   0  0  0  0  0  0  0  0  0  0  0  0
   58.5240   28.5120   44.3780 C   0  0  2  0  0  0  0  0  0  0  0  0
   57.5210   29.5180   43.7730 C   0  0  0  0  0  0  0  0  0  0  0  0
   57.2110   30.9600   44.8000 S   0  0  0  0  0  0  0  0  0  0  0  0
   55.7480   31.3110   44.8000 O   0  0  0  0  0  0  0  0  0  0  0  0
   57.6050   30.5800   46.2010 O   0  0  0  0  0  0  0  0  0  0  0  0
   58.2080   32.3030   44.2590 N   0  0  0  0  0  0  0  0  0  0  0  0
   57.5960   33.6170   44.5000 C   0  0  0  0  0  0  0  0  0  0  0  0
   58.6570   34.0250   45.5030 C   0  0  0  0  0  0  0  0  0  0  0  0
   58.1150   34.1340   46.8090 O   0  0  0  0  0  0  0  0  0  0  0  0
   59.1250   34.4750   47.7390 C   0  0  0  0  0  0  0  0  0  0  0  0
   59.1740   33.4770   48.8700 C   0  0  0  0  0  0  0  0  0  0  0  0
   58.5310   32.2360   48.7360 C   0  0  0  0  0  0  0  0  0  0  0  0
   58.5550   31.3130   49.7880 C   0  0  0  0  0  0  0  0  0  0  0  0
   59.2300   31.6190   50.9720 C   0  0  0  0  0  0  0  0  0  0  0  0
   59.8750   32.8520   51.1130 C   0  0  0  0  0  0  0  0  0  0  0  0
   59.8500   33.7780   50.0630 C   0  0  0  0  0  0  0  0  0  0  0  0
   59.2380   32.6480   45.2490 C   0  0  0  0  0  0  0  0  0  0  0  0
   57.8780   27.7880   45.5760 C   0  0  0  0  0  0  0  0  0  0  0  0
   58.8480   26.7860   46.2190 C   0  0  0  0  0  0  0  0  0  0  0  0
   59.9908   27.9431   50.0701 H   0  0  0  0  0  0  0  0  0  0  0  0
   59.3343   26.5635   49.1254 H   0  0  0  0  0  0  0  0  0  0  0  0
   61.1002   26.8926   49.1254 H   0  0  0  0  0  0  0  0  0  0  0  0
   58.9470   28.5720   48.0150 H   0  0  0  0  0  0  0  0  0  0  0  0
   63.0855   31.2044   50.9240 H   0  0  0  0  0  0  0  0  0  0  0  0
   61.8675   32.8289   46.3173 H   0  0  0  0  0  0  0  0  0  0  0  0
   60.9123   26.7221   46.9940 H   0  0  0  0  0  0  0  0  0  0  0  0
   61.6485   28.8082   45.8817 H   0  0  0  0  0  0  0  0  0  0  0  0
   61.0770   27.4880   44.7544 H   0  0  0  0  0  0  0  0  0  0  0  0
   59.5649   30.0125   45.5310 H   0  0  0  0  0  0  0  0  0  0  0  0
   60.3154   29.6106   43.9283 H   0  0  0  0  0  0  0  0  0  0  0  0
   58.7844   27.7797   43.5996 H   0  0  0  0  0  0  0  0  0  0  0  0
   57.9183   29.8620   42.8067 H   0  0  0  0  0  0  0  0  0  0  0  0
   56.5621   28.9878   43.6760 H   0  0  0  0  0  0  0  0  0  0  0  0
   57.5721   34.2573   43.6059 H   0  0  0  0  0  0  0  0  0  0  0  0
   56.5397   33.6585   44.8042 H   0  0  0  0  0  0  0  0  0  0  0  0
   59.2452   34.9513   45.4258 H   0  0  0  0  0  0  0  0  0  0  0  0
   60.0980   34.4863   47.2261 H   0  0  0  0  0  0  0  0  0  0  0  0
   58.8990   35.4677   48.1555 H   0  0  0  0  0  0  0  0  0  0  0  0
   58.0067   31.9883   47.8012 H   0  0  0  0  0  0  0  0  0  0  0  0
   58.0418   30.3458   49.6822 H   0  0  0  0  0  0  0  0  0  0  0  0
   59.2543   30.8892   51.7947 H   0  0  0  0  0  0  0  0  0  0  0  0
   60.4015   33.0941   52.0480 H   0  0  0  0  0  0  0  0  0  0  0  0
   60.3621   34.7452   50.1734 H   0  0  0  0  0  0  0  0  0  0  0  0
   60.2545   32.6743   44.8295 H   0  0  0  0  0  0  0  0  0  0  0  0
   59.3923   31.9750   46.1053 H   0  0  0  0  0  0  0  0  0  0  0  0
   57.5846   28.5346   46.3287 H   0  0  0  0  0  0  0  0  0  0  0  0
   57.0009   27.2332   45.2114 H   0  0  0  0  0  0  0  0  0  0  0  0
   58.3535   26.3190   47.0835 H   0  0  0  0  0  0  0  0  0  0  0  0
   59.1144   26.0377   45.4580 H   0  0  0  0  0  0  0  0  0  0  0  0
  1  2  1  0
  2  3  1  0
  3  4  2  0
  4  5  1  0
  5  6  2  0
  6  7  1  0
  7  8  1  0
  7  9  2  0
  9 10  1  0
  9 11  1  0
 11 12  2  0
 12 13  1  0
  2 14  1  0
 14 15  1  0
 15 16  1  0
 16 17  1  0
 17 18  1  0
 18 19  1  0
 19 20  2  0
 19 21  2  0
 19 22  1  0
 22 23  1  0
 23 24  1  0
 24 25  1  0
 25 26  1  0
 26 27  1  0
 27 28  2  0
 28 29  1  0
 29 30  2  0
 30 31  1  0
 31 32  2  0
 24 33  1  0
 17 34  1  0
 34 35  1  0
 13  3  1  0
 35 14  1  0
 12  5  1  0
 33 22  1  0
 32 27  1  0
  1 36  1  0
  1 37  1  0
  1 38  1  0
  2 39  1  6
  6 40  1  0
 11 41  1  0
 14 42  1  1
 15 43  1  0
 15 44  1  0
 16 45  1  0
 16 46  1  0
 17 47  1  6
 18 48  1  0
 18 49  1  0
 23 50  1  0
 23 51  1  0
 24 52  1  0
 26 53  1  0
 26 54  1  0
 28 55  1  0
 29 56  1  0
 30 57  1  0
 31 58  1  0
 32 59  1  0
 33 60  1  0
 33 61  1  0
 34 62  1  0
 34 63  1  0
 35 64  1  0
 35 65  1  0
M  CHG  2   2   1  13  -1
M  END
>  <UniqueID>  (37) 
33

>  <SMILES>  (37) 
C[N@@H+](c1nc2cc(Cl)c(F)cc2[n-]1)C1CCC(CS(=O)(=O)N2CC(OCc3ccccc3)C2)CC1

>  <Energy>  (37) 
180.9149378586715

>  <Genealogy>  (37) 
C[NH+](c1nc2cc(Cl)c(F)cc2[n-]1)C1CCC(CS(=O)(=O)N2CC(OCc3ccccc3)C2)CC1 (protonated)
C[N@@H+](c1nc2cc(Cl)c(F)cc2[n-]1)C1CCC(CS(=O)(=O)N2CC(OCc3ccccc3)C2)CC1 (chirality)
C[N@@H+](c1nc2cc(Cl)c(F)cc2[n-]1)C1CCC(CS(=O)(=O)N2CC(OCc3ccccc3)C2)CC1 (3D coordinates assigned)
C[N@@H+](c1nc2cc(Cl)c(F)cc2[n-]1)C1CCC(CS(=O)(=O)N2CC(OCc3ccccc3)C2)CC1 (nonaromatic ring conformer: 180.9149378586715 kcal/mol)

>  <smiles>  (37) 
CN(c1nc2cc(Cl)c(F)cc2[nH]1)C1CCC(CS(=O)(=O)N2CC(OCc3ccccc3)C2)CC1

>  <score_type>  (37) 
oracle

>  <origin>  (37) 
adg

>  <m_score__min__energy>  (37) 
-9.0199999999999996

>  <m_primary>  (37) 
energy

$$$$
37:0
     RDKit          3D

 59 62  0  0  0  0  0  0  0  0999 V2000
   55.1390   26.7270   45.9960 O   0  0  0  0  0  0  0  0  0  0  0  0
   55.9210   25.7390   46.0160 C   0  0  0  0  0  0  0  0  0  0  0  0
   55.7250   24.7200   46.9410 O   0  0  0  0  0  0  0  0  0  0  0  0
   57.0690   25.6700   45.0570 C   0  0  0  0  0  0  0  0  0  0  0  0
   58.3000   26.4250   45.5770 C   0  0  0  0  0  0  0  0  0  0  0  0
   58.1530   27.9260   45.4310 C   0  0  0  0  0  0  0  0  0  0  0  0
   57.5550   28.4160   44.2550 C   0  0  0  0  0  0  0  0  0  0  0  0
   57.3720   29.7860   44.0620 C   0  0  0  0  0  0  0  0  0  0  0  0
   57.7850   30.6890   45.0390 C   0  0  0  0  0  0  0  0  0  0  0  0
   58.3790   30.2260   46.2140 C   0  0  0  0  0  0  0  0  0  0  0  0
   58.5610   28.8480   46.4360 C   0  0  0  0  0  0  0  0  0  0  0  0
   59.2370   28.4140   47.7170 C   0  0  0  0  0  0  0  0  0  0  0  0
   59.4690   29.5900   48.6230 C   0  0  0  0  0  0  0  0  0  0  0  0
   60.4790   30.3230   48.4390 O   0  0  0  0  0  0  0  0  0  0  0  0
   58.5410   29.8860   49.6750 N   0  0  0  0  0  0  0  0  0  0  0  0
   58.7030   31.0470   50.5590 C   0  0  1  0  0  0  0  0  0  0  0  0
   58.1170   32.3230   49.9150 C   0  0  0  0  0  0  0  0  0  0  0  0
   59.0930   33.0410   49.0210 C   0  0  0  0  0  0  0  0  0  0  0  0
   60.4340   33.2960   49.2960 C   0  0  0  0  0  0  0  0  0  0  0  0
   61.0290   33.8920   48.2370 N   0  0  0  0  0  0  0  0  0  0  0  0
   60.0780   34.0140   47.2950 C   0  0  0  0  0  0  0  0  0  0  0  0
   60.2230   34.5380   46.0110 C   0  0  0  0  0  0  0  0  0  0  0  0
   59.0970   34.5400   45.1680 C   0  0  0  0  0  0  0  0  0  0  0  0
   57.8640   34.0220   45.6240 C   0  0  0  0  0  0  0  0  0  0  0  0
   57.7480   33.4950   46.9240 C   0  0  0  0  0  0  0  0  0  0  0  0
   58.8820   33.5090   47.7360 C   0  0  0  0  0  0  0  0  0  0  0  0
   58.0980   30.7710   51.9140 C   0  0  0  0  0  0  0  0  0  0  0  0
   58.5510   31.3760   52.9210 O   0  0  0  0  0  0  0  0  0  0  0  0
   57.0120   29.8300   52.0180 N   0  0  0  0  0  0  0  0  0  0  0  0
   55.7700   29.9730   52.3950 C   0  0  0  0  0  0  0  0  0  0  0  0
   54.9620   30.8390   51.6440 C   0  0  0  0  0  0  0  0  0  0  0  0
   53.6370   31.0610   52.0200 C   0  0  0  0  0  0  0  0  0  0  0  0
   53.1210   30.4290   53.1070 N   0  0  0  0  0  0  0  0  0  0  0  0
   53.8690   29.5770   53.8530 C   0  0  0  0  0  0  0  0  0  0  0  0
   55.2040   29.3310   53.5180 C   0  0  0  0  0  0  0  0  0  0  0  0
   57.3390   24.6150   44.9019 H   0  0  0  0  0  0  0  0  0  0  0  0
   56.7535   26.1431   44.1154 H   0  0  0  0  0  0  0  0  0  0  0  0
   58.4401   26.1844   46.6412 H   0  0  0  0  0  0  0  0  0  0  0  0
   59.1676   26.1103   44.9785 H   0  0  0  0  0  0  0  0  0  0  0  0
   57.2275   27.7099   43.4777 H   0  0  0  0  0  0  0  0  0  0  0  0
   56.9014   30.1530   43.1379 H   0  0  0  0  0  0  0  0  0  0  0  0
   57.6427   31.7687   44.8841 H   0  0  0  0  0  0  0  0  0  0  0  0
   58.7091   30.9471   46.9763 H   0  0  0  0  0  0  0  0  0  0  0  0
   58.5973   27.6824   48.2324 H   0  0  0  0  0  0  0  0  0  0  0  0
   60.2092   27.9640   47.4676 H   0  0  0  0  0  0  0  0  0  0  0  0
   57.7180   29.2550   49.8040 H   0  0  0  0  0  0  0  0  0  0  0  0
   59.7785   31.2253   50.7055 H   0  0  0  0  0  0  0  0  0  0  0  0
   57.2383   32.0402   49.3167 H   0  0  0  0  0  0  0  0  0  0  0  0
   57.8574   33.0111   50.7330 H   0  0  0  0  0  0  0  0  0  0  0  0
   60.9387   33.0478   50.2413 H   0  0  0  0  0  0  0  0  0  0  0  0
   62.0290   34.1830   48.1640 H   0  0  0  0  0  0  0  0  0  0  0  0
   61.1886   34.9377   45.6677 H   0  0  0  0  0  0  0  0  0  0  0  0
   59.1767   34.9467   44.1491 H   0  0  0  0  0  0  0  0  0  0  0  0
   56.9884   34.0307   44.9582 H   0  0  0  0  0  0  0  0  0  0  0  0
   56.7941   33.0854   47.2877 H   0  0  0  0  0  0  0  0  0  0  0  0
   55.3734   31.3438   50.7575 H   0  0  0  0  0  0  0  0  0  0  0  0
   53.0085   31.7490   51.4355 H   0  0  0  0  0  0  0  0  0  0  0  0
   53.4227   29.0775   54.7256 H   0  0  0  0  0  0  0  0  0  0  0  0
   55.8093   28.6419   54.1253 H   0  0  0  0  0  0  0  0  0  0  0  0
  1  2  2  0
  2  3  1  0
  2  4  1  0
  4  5  1  0
  5  6  1  0
  6  7  2  0
  7  8  1  0
  8  9  2  0
  9 10  1  0
 10 11  2  0
 11 12  1  0
 12 13  1  0
 13 14  2  0
 13 15  1  0
 15 16  1  0
 16 17  1  0
 17 18  1  0
 18 19  2  0
 19 20  1  0
 20 21  1  0
 21 22  2  0
 22 23  1  0
 23 24  2  0
 24 25  1  0
 25 26  2  0
 16 27  1  0
 27 28  2  0
 27 29  1  0
 29 30  2  3
 30 31  1  0
 31 32  2  0
 32 33  1  0
 33 34  1  0
 34 35  2  0
 11  6  1  0
 26 18  1  0
 35 30  1  0
 26 21  1  0
  4 36  1  0
  4 37  1  0
  5 38  1  0
  5 39  1  0
  7 40  1  0
  8 41  1  0
  9 42  1  0
 10 43  1  0
 12 44  1  0
 12 45  1  0
 15 46  1  0
 16 47  1  1
 17 48  1  0
 17 49  1  0
 19 50  1  0
 20 51  1  0
 22 52  1  0
 23 53  1  0
 24 54  1  0
 25 55  1  0
 31 56  1  0
 32 57  1  0
 34 58  1  0
 35 59  1  0
M  CHG  2   3  -1  33  -1
M  END
>  <UniqueID>  (38) 
34

>  <SMILES>  (38) 
O=C([O-])CCc1ccccc1CC(=O)N[C@@H](Cc1c[nH]c2ccccc12)C(=O)N=c1cc[n-]cc1

>  <Energy>  (38) 
95.55702285032547

>  <Genealogy>  (38) 
O=C([O-])CCc1ccccc1CC(=O)NC(Cc1c[nH]c2ccccc12)C(=O)N=c1cc[n-]cc1 (protonated)
O=C([O-])CCc1ccccc1CC(=O)N[C@@H](Cc1c[nH]c2ccccc12)C(=O)N=c1cc[n-]cc1 (chirality)
O=C([O-])CCc1ccccc1CC(=O)N[C@@H](Cc1c[nH]c2ccccc12)C(=O)N=c1cc[n-]cc1 (3D coordinates assigned)
O=C([O-])CCc1ccccc1CC(=O)N[C@@H](Cc1c[nH]c2ccccc12)C(=O)N=c1cc[n-]cc1 (optimized conformer: 95.55702285032547 kcal/mol)

>  <smiles>  (38) 
O=C(O)CCc1ccccc1CC(=O)NC(Cc1c[nH]c2ccccc12)C(=O)N=c1cc[nH]cc1

>  <score_type>  (38) 
oracle

>  <origin>  (38) 
adg

>  <m_score__min__energy>  (38) 
-13.82

>  <m_primary>  (38) 
energy

$$$$
38:0
     RDKit          3D

 37 38  0  0  0  0  0  0  0  0999 V2000
   55.4690   24.3740   46.6170 O   0  0  0  0  0  0  0  0  0  0  0  0
   55.5730   25.4590   45.9880 C   0  0  0  0  0  0  0  0  0  0  0  0
   54.4990   26.3390   45.9470 O   0  0  0  0  0  0  0  0  0  0  0  0
   56.8280   25.7760   45.2380 C   0  0  0  0  0  0  0  0  0  0  0  0
   57.0490   27.2210   45.1880 N   0  0  0  0  0  0  0  0  0  0  0  0
   58.3480   27.7830   45.4350 C   0  0  0  0  0  0  0  0  0  0  0  0
   59.3450   27.0180   45.5480 O   0  0  0  0  0  0  0  0  0  0  0  0
   58.5430   29.2490   45.5410 C   0  0  0  0  0  0  0  0  0  0  0  0
   59.3600   29.7780   46.5570 C   0  0  0  0  0  0  0  0  0  0  0  0
   59.5460   31.1580   46.6720 C   0  0  0  0  0  0  0  0  0  0  0  0
   58.9140   32.0340   45.7810 C   0  0  0  0  0  0  0  0  0  0  0  0
   59.1460   33.7770   45.9340 S   0  0  0  0  0  0  0  0  0  0  0  0
   57.8550   34.4100   46.3740 O   0  0  0  0  0  0  0  0  0  0  0  0
   59.5060   34.3440   44.5890 O   0  0  0  0  0  0  0  0  0  0  0  0
   60.4040   34.1690   47.0800 N   0  0  0  0  0  0  0  0  0  0  0  0
   59.9820   33.8220   48.4470 C   0  0  0  0  0  0  0  0  0  0  0  0
   61.1650   33.9460   49.4310 C   0  0  0  0  0  0  0  0  0  0  0  0
   62.2580   34.6130   48.8300 O   0  0  0  0  0  0  0  0  0  0  0  0
   62.7560   33.8440   47.7490 C   0  0  0  0  0  0  0  0  0  0  0  0
   61.6490   33.4680   46.7400 C   0  0  0  0  0  0  0  0  0  0  0  0
   58.0920   31.5150   44.7720 C   0  0  0  0  0  0  0  0  0  0  0  0
   57.9030   30.1350   44.6550 C   0  0  0  0  0  0  0  0  0  0  0  0
   57.6806   25.2975   45.7421 H   0  0  0  0  0  0  0  0  0  0  0  0
   56.7310   25.3971   44.2099 H   0  0  0  0  0  0  0  0  0  0  0  0
   56.2610   27.8500   44.9150 H   0  0  0  0  0  0  0  0  0  0  0  0
   59.8563   29.0996   47.2665 H   0  0  0  0  0  0  0  0  0  0  0  0
   60.1924   31.5585   47.4668 H   0  0  0  0  0  0  0  0  0  0  0  0
   59.1781   34.5041   48.7609 H   0  0  0  0  0  0  0  0  0  0  0  0
   59.6240   32.7819   48.4534 H   0  0  0  0  0  0  0  0  0  0  0  0
   60.8393   34.5139   50.3150 H   0  0  0  0  0  0  0  0  0  0  0  0
   61.4878   32.9347   49.7193 H   0  0  0  0  0  0  0  0  0  0  0  0
   63.5284   34.4270   47.2261 H   0  0  0  0  0  0  0  0  0  0  0  0
   63.1679   32.9108   48.1607 H   0  0  0  0  0  0  0  0  0  0  0  0
   61.9654   33.7570   45.7269 H   0  0  0  0  0  0  0  0  0  0  0  0
   61.4760   32.3824   46.7799 H   0  0  0  0  0  0  0  0  0  0  0  0
   57.5927   32.1972   44.0682 H   0  0  0  0  0  0  0  0  0  0  0  0
   57.2490   29.7387   43.8643 H   0  0  0  0  0  0  0  0  0  0  0  0
  1  2  2  0
  2  3  1  0
  2  4  1  0
  4  5  1  0
  5  6  1  0
  6  7  2  0
  6  8  1  0
  8  9  2  0
  9 10  1  0
 10 11  2  0
 11 12  1  0
 12 13  2  0
 12 14  2  0
 12 15  1  0
 15 16  1  0
 16 17  1  0
 17 18  1  0
 18 19  1  0
 19 20  1  0
 11 21  1  0
 21 22  2  0
 22  8  1  0
 20 15  1  0
  4 23  1  0
  4 24  1  0
  5 25  1  0
  9 26  1  0
 10 27  1  0
 16 28  1  0
 16 29  1  0
 17 30  1  0
 17 31  1  0
 19 32  1  0
 19 33  1  0
 20 34  1  0
 20 35  1  0
 21 36  1  0
 22 37  1  0
M  CHG  1   3  -1
M  END
>  <UniqueID>  (39) 
35

>  <SMILES>  (39) 
O=C([O-])CNC(=O)c1ccc(S(=O)(=O)N2CCOCC2)cc1

>  <Energy>  (39) 
43.06365879595021

>  <Genealogy>  (39) 
O=C([O-])CNC(=O)c1ccc(S(=O)(=O)N2CCOCC2)cc1 (protonated)
O=C([O-])CNC(=O)c1ccc(S(=O)(=O)N2CCOCC2)cc1 (3D coordinates assigned)
O=C([O-])CNC(=O)c1ccc(S(=O)(=O)N2CCOCC2)cc1 (nonaromatic ring conformer: 43.06365879595021 kcal/mol)

>  <smiles>  (39) 
O=C(O)CNC(=O)c1ccc(S(=O)(=O)N2CCOCC2)cc1

>  <score_type>  (39) 
oracle

>  <origin>  (39) 
adg

>  <m_score__min__energy>  (39) 
-10.470000000000001

>  <m_primary>  (39) 
energy

$$$$
39:0
     RDKit          3D

 39 40  0  0  0  0  0  0  0  0999 V2000
   55.1370   29.3470   44.7500 N   0  0  0  0  0  0  0  0  0  0  0  0
   56.6220   29.9030   44.0660 S   0  0  0  0  0  0  0  0  0  0  0  0
   57.2200   28.8250   43.2060 O   0  0  0  0  0  0  0  0  0  0  0  0
   56.3430   31.1030   43.2020 O   0  0  0  0  0  0  0  0  0  0  0  0
   57.7530   30.3260   45.3600 C   0  0  0  0  0  0  0  0  0  0  0  0
   58.3060   31.6170   45.3790 C   0  0  0  0  0  0  0  0  0  0  0  0
   59.2350   31.9840   46.3570 C   0  0  0  0  0  0  0  0  0  0  0  0
   59.9080   33.6110   46.3680 S   0  0  0  0  0  0  0  0  0  0  0  0
   59.3520   34.4700   44.9740 N   0  0  0  0  0  0  0  0  0  0  0  0
   59.4710   34.3370   47.6100 O   0  0  0  0  0  0  0  0  0  0  0  0
   61.4090   33.5390   46.3540 O   0  0  0  0  0  0  0  0  0  0  0  0
   59.6070   31.0600   47.3370 C   0  0  0  0  0  0  0  0  0  0  0  0
   59.0600   29.7770   47.3360 C   0  0  0  0  0  0  0  0  0  0  0  0
   58.1270   29.3900   46.3550 C   0  0  0  0  0  0  0  0  0  0  0  0
   57.5460   28.0690   46.3800 N   0  0  0  0  0  0  0  0  0  0  0  0
   58.3200   26.8350   46.5300 C   0  0  0  0  0  0  0  0  0  0  0  0
   57.5360   25.8010   47.3450 C   0  0  0  0  0  0  0  0  0  0  0  0
   56.7440   24.8990   46.4340 C   0  0  0  0  0  0  0  0  0  0  0  0
   57.1500   23.5660   46.2480 C   0  0  0  0  0  0  0  0  0  0  0  0
   56.4080   22.7090   45.4310 C   0  0  0  0  0  0  0  0  0  0  0  0
   55.2490   23.1690   44.8020 C   0  0  0  0  0  0  0  0  0  0  0  0
   54.8270   24.4870   44.9920 C   0  0  0  0  0  0  0  0  0  0  0  0
   55.5640   25.3520   45.8090 C   0  0  0  0  0  0  0  0  0  0  0  0
   55.1180   26.6570   45.9960 O   0  0  0  0  0  0  0  0  0  0  0  0
   55.3830   28.7630   45.5790 H   0  0  0  0  0  0  0  0  0  0  0  0
   58.0043   32.3484   44.6148 H   0  0  0  0  0  0  0  0  0  0  0  0
   59.9150   35.3480   44.9130 H   0  0  0  0  0  0  0  0  0  0  0  0
   58.3660   34.7570   45.1660 H   0  0  0  0  0  0  0  0  0  0  0  0
   60.3337   31.3455   48.1119 H   0  0  0  0  0  0  0  0  0  0  0  0
   59.3615   29.0579   48.1119 H   0  0  0  0  0  0  0  0  0  0  0  0
   56.5140   27.9620   46.2710 H   0  0  0  0  0  0  0  0  0  0  0  0
   58.5367   26.4211   45.5341 H   0  0  0  0  0  0  0  0  0  0  0  0
   59.2565   27.0664   47.0586 H   0  0  0  0  0  0  0  0  0  0  0  0
   58.2405   25.1936   47.9322 H   0  0  0  0  0  0  0  0  0  0  0  0
   56.8406   26.3293   48.0139 H   0  0  0  0  0  0  0  0  0  0  0  0
   58.0568   23.1956   46.7484 H   0  0  0  0  0  0  0  0  0  0  0  0
   56.7374   21.6700   45.2830 H   0  0  0  0  0  0  0  0  0  0  0  0
   54.6683   22.4933   44.1568 H   0  0  0  0  0  0  0  0  0  0  0  0
   53.9123   24.8463   44.4978 H   0  0  0  0  0  0  0  0  0  0  0  0
  1  2  1  0
  2  3  2  0
  2  4  2  0
  2  5  1  0
  5  6  2  0
  6  7  1  0
  7  8  1  0
  8  9  1  0
  8 10  2  0
  8 11  2  0
  7 12  2  0
 12 13  1  0
 13 14  2  0
 14 15  1  0
 15 16  1  0
 16 17  1  0
 17 18  1  0
 18 19  2  0
 19 20  1  0
 20 21  2  0
 21 22  1  0
 22 23  2  0
 23 24  1  0
 14  5  1  0
 23 18  1  0
  1 25  1  0
  6 26  1  0
  9 27  1  0
  9 28  1  0
 12 29  1  0
 13 30  1  0
 15 31  1  0
 16 32  1  0
 16 33  1  0
 17 34  1  0
 17 35  1  0
 19 36  1  0
 20 37  1  0
 21 38  1  0
 22 39  1  0
M  CHG  2   1  -1  24  -1
M  END
>  <UniqueID>  (40) 
36

>  <SMILES>  (40) 
[NH-]S(=O)(=O)c1cc(S(N)(=O)=O)ccc1NCCc1ccccc1[O-]

>  <Energy>  (40) 
38.03291696067854

>  <Genealogy>  (40) 
[NH-]S(=O)(=O)c1cc(S(N)(=O)=O)ccc1NCCc1ccccc1[O-] (protonated)
[NH-]S(=O)(=O)c1cc(S(N)(=O)=O)ccc1NCCc1ccccc1[O-] (3D coordinates assigned)
[NH-]S(=O)(=O)c1cc(S(N)(=O)=O)ccc1NCCc1ccccc1[O-] (optimized conformer: 38.03291696067854 kcal/mol)

>  <smiles>  (40) 
NS(=O)(=O)c1ccc(NCCc2ccccc2O)c(S(N)(=O)=O)c1

>  <score_type>  (40) 
oracle

>  <origin>  (40) 
adg

>  <m_score__min__energy>  (40) 
-14.31

>  <m_primary>  (40) 
energy

$$$$
40:0
     RDKit          3D

 42 44  0  0  0  0  0  0  0  0999 V2000
   58.0260   26.7830   47.7380 O   0  0  0  0  0  0  0  0  0  0  0  0
   57.2890   26.2820   46.8460 C   0  0  0  0  0  0  0  0  0  0  0  0
   56.9000   24.8390   46.9420 C   0  0  0  0  0  0  0  0  0  0  0  0
   56.5780   24.3070   45.5820 C   0  0  0  0  0  0  0  0  0  0  0  0
   57.4500   24.2490   44.5030 C   0  0  0  0  0  0  0  0  0  0  0  0
   56.8470   23.7710   43.3340 C   0  0  0  0  0  0  0  0  0  0  0  0
   55.5000   23.4640   43.4850 C   0  0  0  0  0  0  0  0  0  0  0  0
   55.0600   23.7930   45.0750 S   0  0  0  0  0  0  0  0  0  0  0  0
   56.7540   27.1010   45.7960 N   0  0  0  0  0  0  0  0  0  0  0  0
   57.1170   28.4770   45.6100 C   0  0  0  0  0  0  0  0  0  0  0  0
   58.3290   28.9410   46.1410 C   0  0  0  0  0  0  0  0  0  0  0  0
   58.7050   30.2840   45.9950 C   0  0  0  0  0  0  0  0  0  0  0  0
   60.2290   30.8560   46.6740 S   0  0  0  0  0  0  0  0  0  0  0  0
   60.2170   30.6140   48.1580 O   0  0  0  0  0  0  0  0  0  0  0  0
   61.3600   30.0580   46.0900 O   0  0  0  0  0  0  0  0  0  0  0  0
   60.5050   32.5600   46.3720 N   0  0  0  0  0  0  0  0  0  0  0  0
   59.4030   33.4070   46.8640 C   0  0  0  0  0  0  0  0  0  0  0  0
   59.5070   33.7170   48.3770 C   0  0  0  0  0  0  0  0  0  0  0  0
   60.7370   33.3190   48.9470 O   0  0  0  0  0  0  0  0  0  0  0  0
   61.8030   33.7770   48.1490 C   0  0  0  0  0  0  0  0  0  0  0  0
   61.8410   33.0120   46.8150 C   0  0  0  0  0  0  0  0  0  0  0  0
   57.8600   31.1660   45.3080 C   0  0  0  0  0  0  0  0  0  0  0  0
   56.6410   30.7170   44.7970 C   0  0  0  0  0  0  0  0  0  0  0  0
   56.2590   29.3810   44.9560 C   0  0  0  0  0  0  0  0  0  0  0  0
   55.0150   28.9720   44.4890 O   0  0  0  0  0  0  0  0  0  0  0  0
   57.7342   24.2641   47.3704 H   0  0  0  0  0  0  0  0  0  0  0  0
   56.0138   24.7450   47.5868 H   0  0  0  0  0  0  0  0  0  0  0  0
   58.5069   24.5482   44.5611 H   0  0  0  0  0  0  0  0  0  0  0  0
   57.3886   23.6496   42.3843 H   0  0  0  0  0  0  0  0  0  0  0  0
   54.8359   23.0732   42.7000 H   0  0  0  0  0  0  0  0  0  0  0  0
   55.9490   26.7270   45.2430 H   0  0  0  0  0  0  0  0  0  0  0  0
   58.9910   28.2450   46.6771 H   0  0  0  0  0  0  0  0  0  0  0  0
   59.4170   34.3571   46.3098 H   0  0  0  0  0  0  0  0  0  0  0  0
   58.4662   32.8527   46.7055 H   0  0  0  0  0  0  0  0  0  0  0  0
   59.3910   34.8015   48.5197 H   0  0  0  0  0  0  0  0  0  0  0  0
   58.7145   33.1448   48.8814 H   0  0  0  0  0  0  0  0  0  0  0  0
   61.6701   34.8502   47.9478 H   0  0  0  0  0  0  0  0  0  0  0  0
   62.7486   33.6073   48.6848 H   0  0  0  0  0  0  0  0  0  0  0  0
   62.2614   33.6734   46.0431 H   0  0  0  0  0  0  0  0  0  0  0  0
   62.4591   32.1148   46.9668 H   0  0  0  0  0  0  0  0  0  0  0  0
   58.1584   32.2159   45.1709 H   0  0  0  0  0  0  0  0  0  0  0  0
   55.9781   31.4169   44.2671 H   0  0  0  0  0  0  0  0  0  0  0  0
  1  2  2  0
  2  3  1  0
  3  4  1  0
  4  5  2  0
  5  6  1  0
  6  7  2  0
  7  8  1  0
  2  9  1  0
  9 10  1  0
 10 11  2  0
 11 12  1  0
 12 13  1  0
 13 14  2  0
 13 15  2  0
 13 16  1  0
 16 17  1  0
 17 18  1  0
 18 19  1  0
 19 20  1  0
 20 21  1  0
 12 22  2  0
 22 23  1  0
 23 24  2  0
 24 25  1  0
  8  4  1  0
 24 10  1  0
 21 16  1  0
  3 26  1  0
  3 27  1  0
  5 28  1  0
  6 29  1  0
  7 30  1  0
  9 31  1  0
 11 32  1  0
 17 33  1  0
 17 34  1  0
 18 35  1  0
 18 36  1  0
 20 37  1  0
 20 38  1  0
 21 39  1  0
 21 40  1  0
 22 41  1  0
 23 42  1  0
M  CHG  1  25  -1
M  END
>  <UniqueID>  (41) 
37

>  <SMILES>  (41) 
O=C(Cc1cccs1)Nc1cc(S(=O)(=O)N2CCOCC2)ccc1[O-]

>  <Energy>  (41) 
81.55985069096454

>  <Genealogy>  (41) 
O=C(Cc1cccs1)Nc1cc(S(=O)(=O)N2CCOCC2)ccc1[O-] (protonated)
O=C(Cc1cccs1)Nc1cc(S(=O)(=O)N2CCOCC2)ccc1[O-] (3D coordinates assigned)
O=C(Cc1cccs1)Nc1cc(S(=O)(=O)N2CCOCC2)ccc1[O-] (nonaromatic ring conformer: 81.55985069096454 kcal/mol)

>  <smiles>  (41) 
O=C(Cc1cccs1)Nc1cc(S(=O)(=O)N2CCOCC2)ccc1O

>  <score_type>  (41) 
oracle

>  <origin>  (41) 
adg

>  <m_score__min__energy>  (41) 
-11.01

>  <m_primary>  (41) 
energy

$$$$
41:0
     RDKit          3D

 55 57  0  0  0  0  0  0  0  0999 V2000
   65.3920   32.1240   50.1550 C   0  0  0  0  0  0  0  0  0  0  0  0
   65.1060   33.1320   49.1920 O   0  0  0  0  0  0  0  0  0  0  0  0
   63.8360   33.3770   48.6420 C   0  0  0  0  0  0  0  0  0  0  0  0
   63.5760   33.1480   47.2750 C   0  0  0  0  0  0  0  0  0  0  0  0
   62.3210   33.4210   46.7330 C   0  0  0  0  0  0  0  0  0  0  0  0
   61.3010   33.9320   47.5410 C   0  0  0  0  0  0  0  0  0  0  0  0
   59.7130   34.2760   46.8600 S   0  0  0  0  0  0  0  0  0  0  0  0
   58.6930   33.3930   47.5210 O   0  0  0  0  0  0  0  0  0  0  0  0
   59.3370   35.7100   47.1180 O   0  0  0  0  0  0  0  0  0  0  0  0
   59.7200   33.9600   45.1520 N   0  0  0  0  0  0  0  0  0  0  0  0
   58.3480   33.8430   44.6630 C   0  0  0  0  0  0  0  0  0  0  0  0
   57.8290   32.4710   44.9600 C   0  0  0  0  0  0  0  0  0  0  0  0
   56.6520   32.1740   44.6200 O   0  0  0  0  0  0  0  0  0  0  0  0
   58.6580   31.5150   45.6420 N   0  0  0  0  0  0  0  0  0  0  0  0
   58.3380   30.1190   45.7760 C   0  0  0  0  0  0  0  0  0  0  0  0
   57.7210   29.4510   44.7080 C   0  0  0  0  0  0  0  0  0  0  0  0
   57.3980   28.0960   44.8100 C   0  0  0  0  0  0  0  0  0  0  0  0
   57.6720   27.3880   45.9920 C   0  0  0  0  0  0  0  0  0  0  0  0
   57.4010   25.9100   46.0680 C   0  0  0  0  0  0  0  0  0  0  0  0
   55.9250   25.6800   46.1030 C   0  0  0  0  0  0  0  0  0  0  0  0
   55.1330   26.6600   46.0240 O   0  0  0  0  0  0  0  0  0  0  0  0
   55.4230   24.3550   46.3050 N   0  0  0  0  0  0  0  0  0  0  0  0
   54.8300   23.5580   45.2410 C   0  0  0  0  0  0  0  0  0  0  0  0
   55.9060   22.8020   44.5300 C   0  0  0  0  0  0  0  0  0  0  0  0
   57.2010   22.6280   44.9740 C   0  0  0  0  0  0  0  0  0  0  0  0
   57.8410   21.9240   43.9770 C   0  0  0  0  0  0  0  0  0  0  0  0
   56.8990   21.7150   42.9890 C   0  0  0  0  0  0  0  0  0  0  0  0
   55.7560   22.2520   43.3480 O   0  0  0  0  0  0  0  0  0  0  0  0
   58.2700   28.0580   47.0710 C   0  0  0  0  0  0  0  0  0  0  0  0
   58.5850   29.4160   46.9700 C   0  0  0  0  0  0  0  0  0  0  0  0
   61.5410   34.1500   48.9010 C   0  0  0  0  0  0  0  0  0  0  0  0
   62.8000   33.8760   49.4700 C   0  0  0  0  0  0  0  0  0  0  0  0
   63.0130   34.1140   50.8790 N   0  0  0  0  0  0  0  0  0  0  0  0
   62.5010   33.3580   51.7320 O   0  0  0  0  0  0  0  0  0  0  0  0
   63.8100   35.1480   51.3140 O   0  0  0  0  0  0  0  0  0  0  0  0
   65.2741   32.5394   51.1667 H   0  0  0  0  0  0  0  0  0  0  0  0
   64.6974   31.2816   50.0213 H   0  0  0  0  0  0  0  0  0  0  0  0
   66.4255   31.7719   50.0213 H   0  0  0  0  0  0  0  0  0  0  0  0
   64.3723   32.7495   46.6292 H   0  0  0  0  0  0  0  0  0  0  0  0
   62.1326   33.2336   45.6656 H   0  0  0  0  0  0  0  0  0  0  0  0
   57.7152   34.5909   45.1632 H   0  0  0  0  0  0  0  0  0  0  0  0
   58.3294   34.0154   43.5767 H   0  0  0  0  0  0  0  0  0  0  0  0
   59.4960   31.8730   46.1540 H   0  0  0  0  0  0  0  0  0  0  0  0
   57.4896   29.9988   43.7826 H   0  0  0  0  0  0  0  0  0  0  0  0
   56.9266   27.5805   43.9603 H   0  0  0  0  0  0  0  0  0  0  0  0
   57.8297   25.4119   45.1859 H   0  0  0  0  0  0  0  0  0  0  0  0
   57.8600   25.4974   46.9785 H   0  0  0  0  0  0  0  0  0  0  0  0
   54.1070   22.8498   45.6720 H   0  0  0  0  0  0  0  0  0  0  0  0
   54.3136   24.2195   44.5298 H   0  0  0  0  0  0  0  0  0  0  0  0
   57.6318   22.9777   45.9238 H   0  0  0  0  0  0  0  0  0  0  0  0
   58.8906   21.5949   43.9697 H   0  0  0  0  0  0  0  0  0  0  0  0
   57.0790   21.1800   42.0449 H   0  0  0  0  0  0  0  0  0  0  0  0
   58.4916   27.5120   47.9998 H   0  0  0  0  0  0  0  0  0  0  0  0
   59.0291   29.9390   47.8298 H   0  0  0  0  0  0  0  0  0  0  0  0
   60.7335   34.5419   49.5369 H   0  0  0  0  0  0  0  0  0  0  0  0
  1  2  1  0
  2  3  1  0
  3  4  2  0
  4  5  1  0
  5  6  2  0
  6  7  1  0
  7  8  2  0
  7  9  2  0
  7 10  1  0
 10 11  1  0
 11 12  1  0
 12 13  2  0
 12 14  1  0
 14 15  1  0
 15 16  2  0
 16 17  1  0
 17 18  2  0
 18 19  1  0
 19 20  1  0
 20 21  2  0
 20 22  1  0
 22 23  1  0
 23 24  1  0
 24 25  2  0
 25 26  1  0
 26 27  2  0
 27 28  1  0
 18 29  1  0
 29 30  2  0
  6 31  1  0
 31 32  2  0
 32 33  1  0
 33 34  2  0
 33 35  1  0
 32  3  1  0
 30 15  1  0
 28 24  1  0
  1 36  1  0
  1 37  1  0
  1 38  1  0
  4 39  1  0
  5 40  1  0
 11 41  1  0
 11 42  1  0
 14 43  1  0
 16 44  1  0
 17 45  1  0
 19 46  1  0
 19 47  1  0
 23 48  1  0
 23 49  1  0
 25 50  1  0
 26 51  1  0
 27 52  1  0
 29 53  1  0
 30 54  1  0
 31 55  1  0
M  CHG  4  10  -1  22  -1  33   1  35  -1
M  END
>  <UniqueID>  (42) 
38

>  <SMILES>  (42) 
COc1ccc(S(=O)(=O)[N-]CC(=O)Nc2ccc(CC(=O)[N-]Cc3ccco3)cc2)cc1[N+](=O)[O-]

>  <Energy>  (42) 
81.10043197985915

>  <Genealogy>  (42) 
COc1ccc(S(=O)(=O)[N-]CC(=O)Nc2ccc(CC(=O)[N-]Cc3ccco3)cc2)cc1[N+](=O)[O-] (protonated)
COc1ccc(S(=O)(=O)[N-]CC(=O)Nc2ccc(CC(=O)[N-]Cc3ccco3)cc2)cc1[N+](=O)[O-] (3D coordinates assigned)
COc1ccc(S(=O)(=O)[N-]CC(=O)Nc2ccc(CC(=O)[N-]Cc3ccco3)cc2)cc1[N+](=O)[O-] (optimized conformer: 81.10043197985915 kcal/mol)

>  <smiles>  (42) 
COc1ccc(S(=O)(=O)NCC(=O)Nc2ccc(CC(=O)NCc3ccco3)cc2)cc1[N+](=O)[O-]

>  <score_type>  (42) 
oracle

>  <origin>  (42) 
adg

>  <m_score__min__energy>  (42) 
-12.51

>  <m_primary>  (42) 
energy

$$$$
42:0
     RDKit          3D

 56 58  0  0  0  0  0  0  0  0999 V2000
   60.6430   30.7160   50.3520 C   0  0  0  0  0  0  0  0  0  0  0  0
   61.4830   31.7540   50.8440 O   0  0  0  0  0  0  0  0  0  0  0  0
   62.8850   31.6810   50.9150 C   0  0  0  0  0  0  0  0  0  0  0  0
   63.5480   30.4640   51.1760 C   0  0  0  0  0  0  0  0  0  0  0  0
   64.9430   30.4190   51.2450 C   0  0  0  0  0  0  0  0  0  0  0  0
   65.6920   31.5810   51.0580 C   0  0  0  0  0  0  0  0  0  0  0  0
   65.0490   32.7920   50.8000 C   0  0  0  0  0  0  0  0  0  0  0  0
   63.6470   32.8540   50.7200 C   0  0  0  0  0  0  0  0  0  0  0  0
   62.9910   34.1880   50.4630 C   0  0  0  0  0  0  0  0  0  0  0  0
   61.8110   34.0130   49.6200 N   0  0  0  0  0  0  0  0  0  0  0  0
   61.8810   34.0290   48.1830 C   0  0  0  0  0  0  0  0  0  0  0  0
   63.0020   34.1360   47.6150 O   0  0  0  0  0  0  0  0  0  0  0  0
   60.6580   33.9060   47.3540 C   0  0  0  0  0  0  0  0  0  0  0  0
   60.3820   34.8230   46.3220 C   0  0  0  0  0  0  0  0  0  0  0  0
   59.2290   34.6880   45.5440 C   0  0  0  0  0  0  0  0  0  0  0  0
   58.3280   33.6420   45.7850 C   0  0  0  0  0  0  0  0  0  0  0  0
   57.1100   33.4760   44.9250 C   0  0  0  0  0  0  0  0  0  0  0  0
   56.5530   32.1420   45.1340 N   0  0  0  0  0  0  0  0  0  0  0  0
   57.2280   31.0280   43.9860 S   0  0  0  0  0  0  0  0  0  0  0  0
   56.2970   30.8700   42.8170 O   0  0  0  0  0  0  0  0  0  0  0  0
   58.5270   31.5860   43.4760 O   0  0  0  0  0  0  0  0  0  0  0  0
   57.5370   29.4650   44.7530 C   0  0  0  0  0  0  0  0  0  0  0  0
   58.8580   29.0890   45.0270 C   0  0  0  0  0  0  0  0  0  0  0  0
   59.1450   27.8630   45.6500 C   0  0  0  0  0  0  0  0  0  0  0  0
   60.5790   27.4930   45.9270 C   0  0  0  0  0  0  0  0  0  0  0  0
   58.0830   27.0030   46.0140 C   0  0  0  0  0  0  0  0  0  0  0  0
   58.3430   25.6780   46.6830 C   0  0  0  0  0  0  0  0  0  0  0  0
   56.7600   27.3890   45.7430 C   0  0  0  0  0  0  0  0  0  0  0  0
   56.4860   28.6090   45.1210 C   0  0  0  0  0  0  0  0  0  0  0  0
   55.1610   28.9640   44.8870 O   0  0  0  0  0  0  0  0  0  0  0  0
   58.6130   32.7100   46.7940 C   0  0  0  0  0  0  0  0  0  0  0  0
   59.7650   32.8420   47.5730 C   0  0  0  0  0  0  0  0  0  0  0  0
   60.2010   30.1698   51.1984 H   0  0  0  0  0  0  0  0  0  0  0  0
   59.8412   31.1529   49.7387 H   0  0  0  0  0  0  0  0  0  0  0  0
   61.2375   30.0229   49.7387 H   0  0  0  0  0  0  0  0  0  0  0  0
   62.9634   29.5444   51.3262 H   0  0  0  0  0  0  0  0  0  0  0  0
   65.4518   29.4649   51.4473 H   0  0  0  0  0  0  0  0  0  0  0  0
   66.7899   31.5424   51.1140 H   0  0  0  0  0  0  0  0  0  0  0  0
   65.6443   33.7061   50.6580 H   0  0  0  0  0  0  0  0  0  0  0  0
   62.6902   34.6362   51.4215 H   0  0  0  0  0  0  0  0  0  0  0  0
   63.7058   34.8477   49.9493 H   0  0  0  0  0  0  0  0  0  0  0  0
   60.9190   33.7460   50.0920 H   0  0  0  0  0  0  0  0  0  0  0  0
   61.0788   35.6515   46.1267 H   0  0  0  0  0  0  0  0  0  0  0  0
   59.0273   35.4077   44.7369 H   0  0  0  0  0  0  0  0  0  0  0  0
   56.3611   34.2343   45.1974 H   0  0  0  0  0  0  0  0  0  0  0  0
   57.3847   33.6004   43.8671 H   0  0  0  0  0  0  0  0  0  0  0  0
   59.6822   29.7630   44.7506 H   0  0  0  0  0  0  0  0  0  0  0  0
   60.7434   27.4506   47.0138 H   0  0  0  0  0  0  0  0  0  0  0  0
   60.7959   26.5095   45.4847 H   0  0  0  0  0  0  0  0  0  0  0  0
   61.2447   28.2488   45.4847 H   0  0  0  0  0  0  0  0  0  0  0  0
   58.3176   25.8074   47.7751 H   0  0  0  0  0  0  0  0  0  0  0  0
   57.5693   24.9568   46.3811 H   0  0  0  0  0  0  0  0  0  0  0  0
   59.3319   25.3026   46.3811 H   0  0  0  0  0  0  0  0  0  0  0  0
   55.9307   26.7231   46.0237 H   0  0  0  0  0  0  0  0  0  0  0  0
   57.9253   31.8703   46.9728 H   0  0  0  0  0  0  0  0  0  0  0  0
   59.9754   32.1075   48.3644 H   0  0  0  0  0  0  0  0  0  0  0  0
  1  2  1  0
  2  3  1  0
  3  4  2  0
  4  5  1  0
  5  6  2  0
  6  7  1  0
  7  8  2  0
  8  9  1  0
  9 10  1  0
 10 11  1  0
 11 12  2  0
 11 13  1  0
 13 14  2  0
 14 15  1  0
 15 16  2  0
 16 17  1  0
 17 18  1  0
 18 19  1  0
 19 20  2  0
 19 21  2  0
 19 22  1  0
 22 23  2  0
 23 24  1  0
 24 25  1  0
 24 26  2  0
 26 27  1  0
 26 28  1  0
 28 29  2  0
 29 30  1  0
 16 31  1  0
 31 32  2  0
  8  3  1  0
 32 13  1  0
 29 22  1  0
  1 33  1  0
  1 34  1  0
  1 35  1  0
  4 36  1  0
  5 37  1  0
  6 38  1  0
  7 39  1  0
  9 40  1  0
  9 41  1  0
 10 42  1  0
 14 43  1  0
 15 44  1  0
 17 45  1  0
 17 46  1  0
 23 47  1  0
 25 48  1  0
 25 49  1  0
 25 50  1  0
 27 51  1  0
 27 52  1  0
 27 53  1  0
 28 54  1  0
 31 55  1  0
 32 56  1  0
M  CHG  2  18  -1  30  -1
M  END
>  <UniqueID>  (43) 
39

>  <SMILES>  (43) 
COc1ccccc1CNC(=O)c1ccc(C[N-]S(=O)(=O)c2cc(C)c(C)cc2[O-])cc1

>  <Energy>  (43) 
57.63385929169357

>  <Genealogy>  (43) 
COc1ccccc1CNC(=O)c1ccc(C[N-]S(=O)(=O)c2cc(C)c(C)cc2[O-])cc1 (protonated)
COc1ccccc1CNC(=O)c1ccc(C[N-]S(=O)(=O)c2cc(C)c(C)cc2[O-])cc1 (3D coordinates assigned)
COc1ccccc1CNC(=O)c1ccc(C[N-]S(=O)(=O)c2cc(C)c(C)cc2[O-])cc1 (optimized conformer: 57.63385929169357 kcal/mol)

>  <smiles>  (43) 
COc1ccccc1CNC(=O)c1ccc(CNS(=O)(=O)c2cc(C)c(C)cc2O)cc1

>  <score_type>  (43) 
oracle

>  <origin>  (43) 
adg

>  <m_score__min__energy>  (43) 
-14.48

>  <m_primary>  (43) 
energy

$$$$
43:0
     RDKit          3D

 44 46  0  0  0  0  0  0  0  0999 V2000
   61.1830   29.0360   49.6440 O   0  0  0  0  0  0  0  0  0  0  0  0
   60.9040   29.4880   48.5020 C   0  0  0  0  0  0  0  0  0  0  0  0
   60.6170   28.5980   47.4140 N   0  0  0  0  0  0  0  0  0  0  0  0
   59.3150   28.2410   46.9310 C   0  0  0  0  0  0  0  0  0  0  0  0
   58.7070   27.0830   47.4280 C   0  0  0  0  0  0  0  0  0  0  0  0
   57.4370   26.7060   46.9890 C   0  0  0  0  0  0  0  0  0  0  0  0
   56.7490   27.4940   46.0600 C   0  0  0  0  0  0  0  0  0  0  0  0
   55.4960   27.0820   45.6230 O   0  0  0  0  0  0  0  0  0  0  0  0
   57.3300   28.6830   45.5820 C   0  0  0  0  0  0  0  0  0  0  0  0
   56.5020   29.7170   44.4110 S   0  0  0  0  0  0  0  0  0  0  0  0
   57.0440   29.5010   43.0250 O   0  0  0  0  0  0  0  0  0  0  0  0
   55.0400   29.3670   44.4020 O   0  0  0  0  0  0  0  0  0  0  0  0
   56.6780   31.3850   44.8610 N   0  0  0  0  0  0  0  0  0  0  0  0
   57.9550   31.9000   44.3750 C   0  0  0  0  0  0  0  0  0  0  0  0
   58.4350   32.9780   45.3020 C   0  0  0  0  0  0  0  0  0  0  0  0
   59.1070   34.1020   44.7950 C   0  0  0  0  0  0  0  0  0  0  0  0
   59.5880   35.0860   45.6630 C   0  0  0  0  0  0  0  0  0  0  0  0
   59.4120   34.9510   47.0430 C   0  0  0  0  0  0  0  0  0  0  0  0
   58.7570   33.8280   47.5570 C   0  0  0  0  0  0  0  0  0  0  0  0
   58.2750   32.8400   46.6920 C   0  0  0  0  0  0  0  0  0  0  0  0
   58.6130   29.0490   46.0200 C   0  0  0  0  0  0  0  0  0  0  0  0
   60.8020   30.9010   48.3190 N   0  0  0  0  0  0  0  0  0  0  0  0
   61.9260   31.7710   48.1380 C   0  0  0  0  0  0  0  0  0  0  0  0
   61.9070   32.6740   47.0660 C   0  0  0  0  0  0  0  0  0  0  0  0
   62.9970   33.5140   46.8290 C   0  0  0  0  0  0  0  0  0  0  0  0
   64.1100   33.4680   47.6690 C   0  0  0  0  0  0  0  0  0  0  0  0
   64.1280   32.5950   48.7590 C   0  0  0  0  0  0  0  0  0  0  0  0
   63.0340   31.7600   49.0180 C   0  0  0  0  0  0  0  0  0  0  0  0
   63.0630   30.9660   50.1650 O   0  0  0  0  0  0  0  0  0  0  0  0
   59.2338   26.4652   48.1702 H   0  0  0  0  0  0  0  0  0  0  0  0
   56.9750   25.7854   47.3750 H   0  0  0  0  0  0  0  0  0  0  0  0
   58.6931   31.0850   44.3444 H   0  0  0  0  0  0  0  0  0  0  0  0
   57.8274   32.3115   43.3629 H   0  0  0  0  0  0  0  0  0  0  0  0
   59.2554   34.2084   43.7103 H   0  0  0  0  0  0  0  0  0  0  0  0
   60.1061   35.9684   45.2594 H   0  0  0  0  0  0  0  0  0  0  0  0
   59.7887   35.7281   47.7243 H   0  0  0  0  0  0  0  0  0  0  0  0
   58.6204   33.7212   48.6432 H   0  0  0  0  0  0  0  0  0  0  0  0
   57.7694   31.9526   47.1004 H   0  0  0  0  0  0  0  0  0  0  0  0
   59.0726   29.9761   45.6469 H   0  0  0  0  0  0  0  0  0  0  0  0
   61.0275   32.7212   46.4070 H   0  0  0  0  0  0  0  0  0  0  0  0
   62.9781   34.2125   45.9794 H   0  0  0  0  0  0  0  0  0  0  0  0
   64.9740   34.1198   47.4726 H   0  0  0  0  0  0  0  0  0  0  0  0
   65.0077   32.5631   49.4187 H   0  0  0  0  0  0  0  0  0  0  0  0
   62.3810   30.2410   50.3480 H   0  0  0  0  0  0  0  0  0  0  0  0
  1  2  2  0
  2  3  1  0
  3  4  1  0
  4  5  2  0
  5  6  1  0
  6  7  2  0
  7  8  1  0
  7  9  1  0
  9 10  1  0
 10 11  2  0
 10 12  2  0
 10 13  1  0
 13 14  1  0
 14 15  1  0
 15 16  2  0
 16 17  1  0
 17 18  2  0
 18 19  1  0
 19 20  2  0
  9 21  2  0
  2 22  1  0
 22 23  1  0
 23 24  2  0
 24 25  1  0
 25 26  2  0
 26 27  1  0
 27 28  2  0
 28 29  1  0
 21  4  1  0
 28 23  1  0
 20 15  1  0
  5 30  1  0
  6 31  1  0
 14 32  1  0
 14 33  1  0
 16 34  1  0
 17 35  1  0
 18 36  1  0
 19 37  1  0
 20 38  1  0
 21 39  1  0
 24 40  1  0
 25 41  1  0
 26 42  1  0
 27 43  1  0
 29 44  1  0
M  CHG  4   3  -1   8  -1  13  -1  22  -1
M  END
>  <UniqueID>  (44) 
40

>  <SMILES>  (44) 
O=C([N-]c1ccc([O-])c(S(=O)(=O)[N-]Cc2ccccc2)c1)[N-]c1ccccc1O

>  <Energy>  (44) 
55.32987145159603

>  <Genealogy>  (44) 
O=C([N-]c1ccc([O-])c(S(=O)(=O)[N-]Cc2ccccc2)c1)[N-]c1ccccc1O (protonated)
O=C([N-]c1ccc([O-])c(S(=O)(=O)[N-]Cc2ccccc2)c1)[N-]c1ccccc1O (3D coordinates assigned)
O=C([N-]c1ccc([O-])c(S(=O)(=O)[N-]Cc2ccccc2)c1)[N-]c1ccccc1O (optimized conformer: 55.32987145159603 kcal/mol)

>  <smiles>  (44) 
O=C(Nc1ccc(O)c(S(=O)(=O)NCc2ccccc2)c1)Nc1ccccc1O

>  <score_type>  (44) 
oracle

>  <origin>  (44) 
adg

>  <m_score__min__energy>  (44) 
-14.83

>  <m_primary>  (44) 
energy

$$$$
44:0
     RDKit          3D

 58 61  0  0  0  0  0  0  0  0999 V2000
   59.5520   34.8520   46.6260 C   0  0  0  0  0  0  0  0  0  0  0  0
   60.0790   33.4630   46.2730 C   0  0  0  0  0  0  0  0  0  0  0  0
   60.1330   32.5840   47.4620 N   0  0  0  0  0  0  0  0  0  0  0  0
   61.5200   32.2970   47.8650 C   0  0  0  0  0  0  0  0  0  0  0  0
   61.5390   31.1980   48.9450 C   0  0  0  0  0  0  0  0  0  0  0  0
   60.2960   31.1450   49.7630 N   0  0  0  0  0  0  0  0  0  0  0  0
   59.3850   30.1070   49.2930 C   0  0  0  0  0  0  0  0  0  0  0  0
   58.1990   30.0920   49.7210 O   0  0  0  0  0  0  0  0  0  0  0  0
   59.7590   29.0900   48.2910 C   0  0  0  0  0  0  0  0  0  0  0  0
   60.2920   27.8630   48.7030 C   0  0  0  0  0  0  0  0  0  0  0  0
   60.6510   26.9030   47.7560 C   0  0  0  0  0  0  0  0  0  0  0  0
   60.4740   27.1600   46.3940 C   0  0  0  0  0  0  0  0  0  0  0  0
   59.9420   28.3880   45.9660 C   0  0  0  0  0  0  0  0  0  0  0  0
   59.6930   28.6410   44.5030 C   0  0  0  0  0  0  0  0  0  0  0  0
   58.4990   27.9750   44.0850 O   0  0  0  0  0  0  0  0  0  0  0  0
   57.7470   27.0530   44.8400 C   0  0  0  0  0  0  0  0  0  0  0  0
   58.0340   25.6740   44.8660 C   0  0  0  0  0  0  0  0  0  0  0  0
   57.2340   24.8030   45.6050 C   0  0  0  0  0  0  0  0  0  0  0  0
   56.1480   25.3090   46.3140 C   0  0  0  0  0  0  0  0  0  0  0  0
   55.8830   26.6400   46.2890 N   0  0  0  0  0  0  0  0  0  0  0  0
   56.6440   27.5220   45.5770 C   0  0  0  0  0  0  0  0  0  0  0  0
   56.3840   28.7980   45.6000 N   0  0  0  0  0  0  0  0  0  0  0  0
   55.8940   29.5930   44.5070 C   0  0  0  0  0  0  0  0  0  0  0  0
   54.7830   29.3380   43.9640 O   0  0  0  0  0  0  0  0  0  0  0  0
   56.7110   30.7020   43.9930 C   0  0  0  0  0  0  0  0  0  0  0  0
   57.0130   30.9490   42.6600 C   0  0  0  0  0  0  0  0  0  0  0  0
   57.8170   32.0810   42.4760 C   0  0  0  0  0  0  0  0  0  0  0  0
   58.1430   32.7310   43.6590 C   0  0  0  0  0  0  0  0  0  0  0  0
   57.4370   31.8930   44.9330 S   0  0  0  0  0  0  0  0  0  0  0  0
   59.6180   29.3640   46.9220 C   0  0  0  0  0  0  0  0  0  0  0  0
   59.6820   32.4840   49.9330 C   0  0  0  0  0  0  0  0  0  0  0  0
   59.4140   33.2100   48.5910 C   0  0  0  0  0  0  0  0  0  0  0  0
   59.5105   34.9614   47.7198 H   0  0  0  0  0  0  0  0  0  0  0  0
   60.2227   35.6162   46.2063 H   0  0  0  0  0  0  0  0  0  0  0  0
   58.5432   34.9790   46.2063 H   0  0  0  0  0  0  0  0  0  0  0  0
   59.4148   33.0089   45.5229 H   0  0  0  0  0  0  0  0  0  0  0  0
   61.0999   33.5718   45.8782 H   0  0  0  0  0  0  0  0  0  0  0  0
   62.0908   31.9562   46.9886 H   0  0  0  0  0  0  0  0  0  0  0  0
   61.9738   33.2121   48.2733 H   0  0  0  0  0  0  0  0  0  0  0  0
   61.6707   30.2251   48.4489 H   0  0  0  0  0  0  0  0  0  0  0  0
   62.3666   31.4333   49.6304 H   0  0  0  0  0  0  0  0  0  0  0  0
   60.5820   30.8400   50.7240 H   0  0  0  0  0  0  0  0  0  0  0  0
   60.4280   27.6553   49.7746 H   0  0  0  0  0  0  0  0  0  0  0  0
   61.0743   25.9417   48.0825 H   0  0  0  0  0  0  0  0  0  0  0  0
   60.7527   26.3966   45.6527 H   0  0  0  0  0  0  0  0  0  0  0  0
   59.5843   29.7225   44.3342 H   0  0  0  0  0  0  0  0  0  0  0  0
   60.5429   28.2547   43.9213 H   0  0  0  0  0  0  0  0  0  0  0  0
   58.8928   25.2826   44.3010 H   0  0  0  0  0  0  0  0  0  0  0  0
   57.4589   23.7265   45.6275 H   0  0  0  0  0  0  0  0  0  0  0  0
   55.5051   24.6306   46.8941 H   0  0  0  0  0  0  0  0  0  0  0  0
   56.6565   30.3188   41.8319 H   0  0  0  0  0  0  0  0  0  0  0  0
   58.1580   32.4229   41.4877 H   0  0  0  0  0  0  0  0  0  0  0  0
   58.7579   33.6388   43.7471 H   0  0  0  0  0  0  0  0  0  0  0  0
   59.2517   30.3487   46.5961 H   0  0  0  0  0  0  0  0  0  0  0  0
   58.7253   32.3647   50.4626 H   0  0  0  0  0  0  0  0  0  0  0  0
   60.3955   33.1000   50.4999 H   0  0  0  0  0  0  0  0  0  0  0  0
   58.3343   33.1811   48.3825 H   0  0  0  0  0  0  0  0  0  0  0  0
   59.7764   34.2439   48.6892 H   0  0  0  0  0  0  0  0  0  0  0  0
  1  2  1  0
  2  3  1  0
  3  4  1  0
  4  5  1  0
  5  6  1  0
  6  7  1  0
  7  8  2  0
  7  9  1  0
  9 10  2  0
 10 11  1  0
 11 12  2  0
 12 13  1  0
 13 14  1  0
 14 15  1  0
 15 16  1  0
 16 17  2  0
 17 18  1  0
 18 19  2  0
 19 20  1  0
 20 21  1  0
 21 22  2  3
 22 23  1  0
 23 24  2  0
 23 25  1  0
 25 26  2  0
 26 27  1  0
 27 28  2  0
 28 29  1  0
 13 30  2  0
  6 31  1  0
 31 32  1  0
 32  3  1  0
 30  9  1  0
 21 16  1  0
 29 25  1  0
  1 33  1  0
  1 34  1  0
  1 35  1  0
  2 36  1  0
  2 37  1  0
  4 38  1  0
  4 39  1  0
  5 40  1  0
  5 41  1  0
  6 42  1  0
 10 43  1  0
 11 44  1  0
 12 45  1  0
 14 46  1  0
 14 47  1  0
 17 48  1  0
 18 49  1  0
 19 50  1  0
 26 51  1  0
 27 52  1  0
 28 53  1  0
 30 54  1  0
 31 55  1  0
 31 56  1  0
 32 57  1  0
 32 58  1  0
M  CHG  2   6   1  20  -1
M  END
>  <UniqueID>  (45) 
41

>  <SMILES>  (45) 
CCN1CC[NH+](C(=O)c2cccc(COc3ccc[n-]c3=NC(=O)c3cccs3)c2)CC1

>  <Energy>  (45) 
111.35632194781078

>  <Genealogy>  (45) 
CCN1CC[NH+](C(=O)c2cccc(COc3ccc[n-]c3=NC(=O)c3cccs3)c2)CC1 (protonated)
CCN1CC[NH+](C(=O)c2cccc(COc3ccc[n-]c3=NC(=O)c3cccs3)c2)CC1 (3D coordinates assigned)
CCN1CC[NH+](C(=O)c2cccc(COc3ccc[n-]c3=NC(=O)c3cccs3)c2)CC1 (nonaromatic ring conformer: 111.35632194781078 kcal/mol)

>  <smiles>  (45) 
CCN1CCN(C(=O)c2cccc(COc3ccc[nH]c3=NC(=O)c3cccs3)c2)CC1

>  <score_type>  (45) 
oracle

>  <origin>  (45) 
adg

>  <m_score__min__energy>  (45) 
-10.23

>  <m_primary>  (45) 
energy

$$$$
45:0
     RDKit          3D

 45 47  0  0  0  0  0  0  0  0999 V2000
   55.2000   26.4110   45.9870 N   0  0  0  0  0  0  0  0  0  0  0  0
   56.8380   25.9470   46.2870 S   0  0  0  0  0  0  0  0  0  0  0  0
   56.8980   25.0900   47.5200 O   0  0  0  0  0  0  0  0  0  0  0  0
   57.3540   25.1510   45.1220 O   0  0  0  0  0  0  0  0  0  0  0  0
   57.8240   27.3870   46.5120 C   0  0  0  0  0  0  0  0  0  0  0  0
   58.8050   27.4190   47.5130 C   0  0  0  0  0  0  0  0  0  0  0  0
   59.5830   28.5660   47.6990 C   0  0  0  0  0  0  0  0  0  0  0  0
   59.3790   29.7020   46.9020 C   0  0  0  0  0  0  0  0  0  0  0  0
   60.2090   30.8590   47.0980 N   0  0  0  0  0  0  0  0  0  0  0  0
   59.8500   31.9750   47.9300 C   0  0  0  0  0  0  0  0  0  0  0  0
   58.9630   31.8470   48.8150 O   0  0  0  0  0  0  0  0  0  0  0  0
   60.6000   33.2480   47.8340 C   0  0  0  0  0  0  0  0  0  0  0  0
   59.8560   34.5010   47.4790 C   0  0  0  0  0  0  0  0  0  0  0  0
   58.8310   34.2040   46.4320 C   0  0  0  0  0  0  0  0  0  0  0  0
   58.9920   34.3750   45.0710 C   0  0  0  0  0  0  0  0  0  0  0  0
   57.7880   34.0140   44.5080 C   0  0  0  0  0  0  0  0  0  0  0  0
   56.9680   33.6490   45.5580 C   0  0  0  0  0  0  0  0  0  0  0  0
   57.6180   33.7750   46.6910 O   0  0  0  0  0  0  0  0  0  0  0  0
   61.8550   33.3520   48.1760 N   0  0  0  0  0  0  0  0  0  0  0  0
   62.8550   32.3210   48.1460 C   0  0  0  0  0  0  0  0  0  0  0  0
   63.0630   31.6710   47.0840 O   0  0  0  0  0  0  0  0  0  0  0  0
   63.7260   32.0940   49.3210 C   0  0  0  0  0  0  0  0  0  0  0  0
   64.9710   32.7470   49.3810 C   0  0  0  0  0  0  0  0  0  0  0  0
   65.8150   32.5720   50.4790 C   0  0  0  0  0  0  0  0  0  0  0  0
   65.4320   31.7390   51.5300 C   0  0  0  0  0  0  0  0  0  0  0  0
   64.2090   31.0690   51.4790 C   0  0  0  0  0  0  0  0  0  0  0  0
   63.3530   31.2350   50.3820 C   0  0  0  0  0  0  0  0  0  0  0  0
   61.8710   30.2830   50.3550 Cl  0  0  0  0  0  0  0  0  0  0  0  0
   58.4030   29.6610   45.8900 C   0  0  0  0  0  0  0  0  0  0  0  0
   57.6260   28.5140   45.7040 C   0  0  0  0  0  0  0  0  0  0  0  0
   55.1620   27.4530   46.0460 H   0  0  0  0  0  0  0  0  0  0  0  0
   58.9632   26.5392   48.1540 H   0  0  0  0  0  0  0  0  0  0  0  0
   60.3611   28.5774   48.4765 H   0  0  0  0  0  0  0  0  0  0  0  0
   61.1640   30.8580   46.6730 H   0  0  0  0  0  0  0  0  0  0  0  0
   59.3571   34.8958   48.3764 H   0  0  0  0  0  0  0  0  0  0  0  0
   60.5657   35.2462   47.0904 H   0  0  0  0  0  0  0  0  0  0  0  0
   59.8930   34.7260   44.5466 H   0  0  0  0  0  0  0  0  0  0  0  0
   57.5313   34.0159   43.4384 H   0  0  0  0  0  0  0  0  0  0  0  0
   55.9279   33.3049   45.4594 H   0  0  0  0  0  0  0  0  0  0  0  0
   65.2824   33.4022   48.5541 H   0  0  0  0  0  0  0  0  0  0  0  0
   66.7837   33.0919   50.5154 H   0  0  0  0  0  0  0  0  0  0  0  0
   66.0939   31.6102   52.3990 H   0  0  0  0  0  0  0  0  0  0  0  0
   63.9148   30.4058   52.3058 H   0  0  0  0  0  0  0  0  0  0  0  0
   58.2503   30.5363   45.2414 H   0  0  0  0  0  0  0  0  0  0  0  0
   56.8553   28.4963   44.9193 H   0  0  0  0  0  0  0  0  0  0  0  0
  1  2  1  0
  2  3  2  0
  2  4  2  0
  2  5  1  0
  5  6  2  0
  6  7  1  0
  7  8  2  0
  8  9  1  0
  9 10  1  0
 10 11  2  0
 10 12  1  0
 12 13  1  0
 13 14  1  0
 14 15  2  0
 15 16  1  0
 16 17  2  0
 17 18  1  0
 12 19  2  3
 19 20  1  0
 20 21  2  0
 20 22  1  0
 22 23  2  0
 23 24  1  0
 24 25  2  0
 25 26  1  0
 26 27  2  0
 27 28  1  0
  8 29  1  0
 29 30  2  0
 30  5  1  0
 18 14  1  0
 27 22  1  0
  1 31  1  0
  6 32  1  0
  7 33  1  0
  9 34  1  0
 13 35  1  0
 13 36  1  0
 15 37  1  0
 16 38  1  0
 17 39  1  0
 23 40  1  0
 24 41  1  0
 25 42  1  0
 26 43  1  0
 29 44  1  0
 30 45  1  0
M  CHG  1   1  -1
M  END
>  <UniqueID>  (46) 
42

>  <SMILES>  (46) 
[NH-]S(=O)(=O)c1ccc(NC(=O)C(Cc2ccco2)=NC(=O)c2ccccc2Cl)cc1

>  <Energy>  (46) 
85.66965806023661

>  <Genealogy>  (46) 
[NH-]S(=O)(=O)c1ccc(NC(=O)C(Cc2ccco2)=NC(=O)c2ccccc2Cl)cc1 (protonated)
[NH-]S(=O)(=O)c1ccc(NC(=O)C(Cc2ccco2)=NC(=O)c2ccccc2Cl)cc1 (3D coordinates assigned)
[NH-]S(=O)(=O)c1ccc(NC(=O)C(Cc2ccco2)=NC(=O)c2ccccc2Cl)cc1 (optimized conformer: 85.66965806023661 kcal/mol)

>  <smiles>  (46) 
NS(=O)(=O)c1ccc(NC(=O)C(Cc2ccco2)=NC(=O)c2ccccc2Cl)cc1

>  <score_type>  (46) 
oracle

>  <origin>  (46) 
adg

>  <m_score__min__energy>  (46) 
-11.25

>  <m_primary>  (46) 
energy

$$$$
46:0
     RDKit          3D

 42 45  0  0  0  0  0  0  0  0999 V2000
   56.6540   30.4640   45.7470 H   0  0  0  0  0  0  0  0  0  0  0  0
   56.7630   31.3250   45.2270 O   0  0  0  0  0  0  0  0  0  0  0  0
   57.7810   32.2340   45.5070 C   0  0  0  0  0  0  0  0  0  0  0  0
   57.8030   33.4520   45.0200 O   0  0  0  0  0  0  0  0  0  0  0  0
   58.8910   34.0420   45.4540 C   0  0  0  0  0  0  0  0  0  0  0  0
   59.2200   35.3600   45.1580 O   0  0  0  0  0  0  0  0  0  0  0  0
   59.6250   33.1910   46.2620 C   0  0  0  0  0  0  0  0  0  0  0  0
   60.8460   33.5430   47.0190 C   0  0  0  0  0  0  0  0  0  0  0  0
   62.1040   33.5270   46.3920 C   0  0  0  0  0  0  0  0  0  0  0  0
   62.1826   33.2551   45.3290 H   0  0  0  0  0  0  0  0  0  0  0  0
   63.2550   33.8550   47.1130 C   0  0  0  0  0  0  0  0  0  0  0  0
   64.2357   33.8479   46.6149 H   0  0  0  0  0  0  0  0  0  0  0  0
   63.1620   34.1920   48.4660 C   0  0  0  0  0  0  0  0  0  0  0  0
   64.0692   34.4511   49.0316 H   0  0  0  0  0  0  0  0  0  0  0  0
   61.9170   34.2000   49.1010 C   0  0  0  0  0  0  0  0  0  0  0  0
   61.8260   34.5350   50.4470 O   0  0  0  0  0  0  0  0  0  0  0  0
   60.7620   33.8720   48.3820 C   0  0  0  0  0  0  0  0  0  0  0  0
   59.7844   33.8718   48.8863 H   0  0  0  0  0  0  0  0  0  0  0  0
   58.9030   32.0030   46.2950 C   0  0  0  0  0  0  0  0  0  0  0  0
   59.2420   30.7550   47.0060 C   0  0  0  0  0  0  0  0  0  0  0  0
   58.4560   29.6600   46.8400 N   0  0  0  0  0  0  0  0  0  0  0  0
   58.6800   28.4860   47.4940 C   0  0  0  0  0  0  0  0  0  0  0  0
   57.9020   27.4570   47.3160 N   0  0  0  0  0  0  0  0  0  0  0  0
   57.0090   27.2370   46.2080 C   0  0  0  0  0  0  0  0  0  0  0  0
   56.5290   28.2370   45.6130 O   0  0  0  0  0  0  0  0  0  0  0  0
   56.6500   25.8820   45.7310 C   0  0  0  0  0  0  0  0  0  0  0  0
   57.6690   24.9760   45.3940 C   0  0  0  0  0  0  0  0  0  0  0  0
   58.7226   25.2655   45.5209 H   0  0  0  0  0  0  0  0  0  0  0  0
   57.3510   23.7080   44.8980 C   0  0  0  0  0  0  0  0  0  0  0  0
   58.1542   23.0072   44.6263 H   0  0  0  0  0  0  0  0  0  0  0  0
   56.0150   23.3300   44.7470 C   0  0  0  0  0  0  0  0  0  0  0  0
   55.7671   22.3353   44.3482 H   0  0  0  0  0  0  0  0  0  0  0  0
   54.9930   24.2140   45.1020 C   0  0  0  0  0  0  0  0  0  0  0  0
   53.9417   23.9110   44.9887 H   0  0  0  0  0  0  0  0  0  0  0  0
   55.3030   25.4830   45.6010 C   0  0  0  0  0  0  0  0  0  0  0  0
   54.2700   26.3380   45.9710 O   0  0  0  0  0  0  0  0  0  0  0  0
   59.7770   28.3810   48.3550 C   0  0  0  0  0  0  0  0  0  0  0  0
   59.9795   27.4380   48.8838 H   0  0  0  0  0  0  0  0  0  0  0  0
   60.6130   29.4850   48.5370 C   0  0  0  0  0  0  0  0  0  0  0  0
   61.4789   29.4137   49.2116 H   0  0  0  0  0  0  0  0  0  0  0  0
   60.3500   30.6790   47.8630 C   0  0  0  0  0  0  0  0  0  0  0  0
   61.0051   31.5515   48.0026 H   0  0  0  0  0  0  0  0  0  0  0  0
  1  2  1  0
  2  3  1  0
  3  4  1  0
  4  5  1  0
  5  6  1  0
  5  7  2  0
  7  8  1  0
  8  9  2  0
  9 10  1  0
  9 11  1  0
 11 12  1  0
 11 13  2  0
 13 14  1  0
 13 15  1  0
 15 16  1  0
 15 17  2  0
 17 18  1  0
  7 19  1  0
 19 20  1  0
 20 21  1  0
 21 22  1  0
 22 23  2  0
 23 24  1  0
 24 25  2  0
 24 26  1  0
 26 27  2  0
 27 28  1  0
 27 29  1  0
 29 30  1  0
 29 31  2  0
 31 32  1  0
 31 33  1  0
 33 34  1  0
 33 35  2  0
 35 36  1  0
 22 37  1  0
 37 38  1  0
 37 39  2  0
 39 40  1  0
 39 41  1  0
 41 42  1  0
 19  3  2  0
 41 20  2  0
 17  8  1  0
 35 26  1  0
M  CHG  4   6  -1  16  -1  21  -1  36  -1
M  END
>  <UniqueID>  (47) 
43

>  <SMILES>  (47) 
O=C(/N=c1/cccc(-c2c(O)oc([O-])c2-c2cccc([O-])c2)[n-]1)c1ccccc1[O-]

>  <Energy>  (47) 
92.29617947616929

>  <Genealogy>  (47) 
O=C(N=c1cccc(-c2c(O)oc([O-])c2-c2cccc([O-])c2)[n-]1)c1ccccc1[O-] (protonated)
O=C(/N=c1/cccc(-c2c(O)oc([O-])c2-c2cccc([O-])c2)[n-]1)c1ccccc1[O-] (cis-trans isomerization)
O=C(/N=c1/cccc(-c2c(O)oc([O-])c2-c2cccc([O-])c2)[n-]1)c1ccccc1[O-] (3D coordinates assigned)
O=C(/N=c1/cccc(-c2c(O)oc([O-])c2-c2cccc([O-])c2)[n-]1)c1ccccc1[O-] (optimized conformer: 92.29617947616929 kcal/mol)

>  <smiles>  (47) 
O=C(N=c1cccc(-c2c(O)oc(O)c2-c2cccc(O)c2)[nH]1)c1ccccc1O

>  <score_type>  (47) 
oracle

>  <origin>  (47) 
adg

>  <m_score__min__energy>  (47) 
-16.710000000000001

>  <m_primary>  (47) 
energy

$$$$
47:0
     RDKit          3D

 39 40  0  0  0  0  0  0  0  0999 V2000
   60.9322   28.8489   45.2912 H   0  0  0  0  0  0  0  0  0  0  0  0
   60.3450   29.1650   46.1660 C   0  0  0  0  0  0  0  0  0  0  0  0
   60.6070   30.5540   47.0840 S   0  0  0  0  0  0  0  0  0  0  0  0
   59.3320   30.2230   48.1390 C   0  0  0  0  0  0  0  0  0  0  0  0
   58.9440   30.9660   49.1360 N   0  0  0  0  0  0  0  0  0  0  0  0
   58.9250   32.4010   49.1540 C   0  0  0  0  0  0  0  0  0  0  0  0
   58.8940   32.9900   50.2670 O   0  0  0  0  0  0  0  0  0  0  0  0
   59.0110   33.2020   47.9090 C   0  0  0  0  0  0  0  0  0  0  0  0
   59.9820   34.2090   47.7810 C   0  0  0  0  0  0  0  0  0  0  0  0
   60.6940   34.3899   48.5997 H   0  0  0  0  0  0  0  0  0  0  0  0
   60.0480   34.9820   46.6190 C   0  0  0  0  0  0  0  0  0  0  0  0
   60.8073   35.7728   46.5291 H   0  0  0  0  0  0  0  0  0  0  0  0
   59.1530   34.7540   45.5710 C   0  0  0  0  0  0  0  0  0  0  0  0
   59.1987   35.3765   44.6652 H   0  0  0  0  0  0  0  0  0  0  0  0
   58.1960   33.7330   45.6710 C   0  0  0  0  0  0  0  0  0  0  0  0
   57.2010   33.5140   44.5660 C   0  0  0  0  0  0  0  0  0  0  0  0
   57.3217   34.3017   43.8077 H   0  0  0  0  0  0  0  0  0  0  0  0
   56.1854   33.5486   44.9872 H   0  0  0  0  0  0  0  0  0  0  0  0
   57.4600   31.9190   43.8050 S   0  0  0  0  0  0  0  0  0  0  0  0
   58.8860   31.4720   43.9690 O   0  0  0  0  0  0  0  0  0  0  0  0
   57.1550   32.0230   42.3370 O   0  0  0  0  0  0  0  0  0  0  0  0
   56.3950   30.7510   44.5130 N   0  0  0  0  0  0  0  0  0  0  0  0
   56.6460   29.3430   44.5810 C   0  0  0  0  0  0  0  0  0  0  0  0
   55.8360   28.6170   45.2170 O   0  0  0  0  0  0  0  0  0  0  0  0
   57.7930   28.7510   43.9480 N   0  0  0  0  0  0  0  0  0  0  0  0
   58.5140   29.3540   43.4980 H   0  0  0  0  0  0  0  0  0  0  0  0
   58.0410   27.3110   43.9710 C   0  0  0  0  0  0  0  0  0  0  0  0
   57.2104   26.8097   44.4895 H   0  0  0  0  0  0  0  0  0  0  0  0
   58.9882   27.1233   44.4979 H   0  0  0  0  0  0  0  0  0  0  0  0
   58.1510   26.7610   42.5530 C   0  0  0  0  0  0  0  0  0  0  0  0
   58.3666   25.6831   42.5935 H   0  0  0  0  0  0  0  0  0  0  0  0
   57.2022   26.9254   42.0213 H   0  0  0  0  0  0  0  0  0  0  0  0
   58.9636   27.2777   42.0213 H   0  0  0  0  0  0  0  0  0  0  0  0
   58.1310   32.9590   46.8390 C   0  0  0  0  0  0  0  0  0  0  0  0
   57.3850   32.1546   46.9189 H   0  0  0  0  0  0  0  0  0  0  0  0
   58.6990   29.0830   47.7960 N   0  0  0  0  0  0  0  0  0  0  0  0
   57.8730   28.6950   48.3050 H   0  0  0  0  0  0  0  0  0  0  0  0
   59.2570   28.4880   46.7070 C   0  0  0  0  0  0  0  0  0  0  0  0
   58.8772   27.5449   46.2871 H   0  0  0  0  0  0  0  0  0  0  0  0
  1  2  1  0
  2  3  1  0
  3  4  1  0
  4  5  2  0
  5  6  1  0
  6  7  2  0
  6  8  1  0
  8  9  2  0
  9 10  1  0
  9 11  1  0
 11 12  1  0
 11 13  2  0
 13 14  1  0
 13 15  1  0
 15 16  1  0
 16 17  1  0
 16 18  1  0
 16 19  1  0
 19 20  2  0
 19 21  2  0
 19 22  1  0
 22 23  1  0
 23 24  2  0
 23 25  1  0
 25 26  1  0
 25 27  1  0
 27 28  1  0
 27 29  1  0
 27 30  1  0
 30 31  1  0
 30 32  1  0
 30 33  1  0
 15 34  2  0
 34 35  1  0
  4 36  1  0
 36 37  1  0
 36 38  1  0
 38 39  1  0
 38  2  2  0
 34  8  1  0
M  CHG  1  22  -1
M  END
>  <UniqueID>  (48) 
44

>  <SMILES>  (48) 
CCNC(=O)[N-]S(=O)(=O)Cc1cccc(C(=O)/N=c2/[nH]ccs2)c1

>  <Energy>  (48) 
68.82272408980381

>  <Genealogy>  (48) 
CCNC(=O)[N-]S(=O)(=O)Cc1cccc(C(=O)N=c2[nH]ccs2)c1 (protonated)
CCNC(=O)[N-]S(=O)(=O)Cc1cccc(C(=O)/N=c2/[nH]ccs2)c1 (cis-trans isomerization)
CCNC(=O)[N-]S(=O)(=O)Cc1cccc(C(=O)/N=c2/[nH]ccs2)c1 (3D coordinates assigned)
CCNC(=O)[N-]S(=O)(=O)Cc1cccc(C(=O)/N=c2/[nH]ccs2)c1 (optimized conformer: 68.82272408980381 kcal/mol)

>  <smiles>  (48) 
CCNC(=O)NS(=O)(=O)Cc1cccc(C(=O)N=c2[nH]ccs2)c1

>  <score_type>  (48) 
oracle

>  <origin>  (48) 
adg

>  <m_score__min__energy>  (48) 
-9.3599999999999994

>  <m_primary>  (48) 
energy

$$$$
48:0
     RDKit          3D

 39 41  0  0  0  0  0  0  0  0999 V2000
   58.6048   32.8090   49.1960 H   0  0  0  0  0  0  0  0  0  0  0  0
   58.8970   33.3150   48.2640 C   0  0  0  0  0  0  0  0  0  0  0  0
   60.1020   33.9390   48.1800 N   0  0  0  0  0  0  0  0  0  0  0  0
   60.4970   34.5760   47.0450 C   0  0  0  0  0  0  0  0  0  0  0  0
   61.4772   35.0738   47.0075 H   0  0  0  0  0  0  0  0  0  0  0  0
   59.6600   34.5990   45.9270 C   0  0  0  0  0  0  0  0  0  0  0  0
   59.9745   35.1195   45.0104 H   0  0  0  0  0  0  0  0  0  0  0  0
   58.4160   33.9540   45.9810 C   0  0  0  0  0  0  0  0  0  0  0  0
   57.4960   33.9810   44.7900 C   0  0  0  0  0  0  0  0  0  0  0  0
   57.6857   34.8953   44.2086 H   0  0  0  0  0  0  0  0  0  0  0  0
   56.4560   33.9632   45.1479 H   0  0  0  0  0  0  0  0  0  0  0  0
   57.7120   32.8420   43.9550 O   0  0  0  0  0  0  0  0  0  0  0  0
   57.5540   31.5040   44.3500 C   0  0  0  0  0  0  0  0  0  0  0  0
   56.3830   30.8370   43.9750 C   0  0  0  0  0  0  0  0  0  0  0  0
   55.6165   31.3688   43.3921 H   0  0  0  0  0  0  0  0  0  0  0  0
   56.1770   29.5030   44.3330 C   0  0  0  0  0  0  0  0  0  0  0  0
   55.2472   28.9945   44.0383 H   0  0  0  0  0  0  0  0  0  0  0  0
   57.1520   28.8070   45.0680 C   0  0  0  0  0  0  0  0  0  0  0  0
   56.9570   27.4410   45.4710 N   0  0  0  0  0  0  0  0  0  0  0  0
   56.3720   26.8340   44.8550 H   0  0  0  0  0  0  0  0  0  0  0  0
   57.4200   26.8940   46.7190 C   0  0  0  0  0  0  0  0  0  0  0  0
   58.1010   27.5940   47.5150 O   0  0  0  0  0  0  0  0  0  0  0  0
   57.1570   25.5240   47.0550 N   0  0  0  0  0  0  0  0  0  0  0  0
   56.1010   24.8280   46.7450 C   0  0  0  0  0  0  0  0  0  0  0  0
   55.1310   25.4210   45.9960 N   0  0  0  0  0  0  0  0  0  0  0  0
   54.0020   24.7640   45.6160 C   0  0  0  0  0  0  0  0  0  0  0  0
   53.2395   25.2834   45.0171 H   0  0  0  0  0  0  0  0  0  0  0  0
   53.8100   23.4320   45.9850 C   0  0  0  0  0  0  0  0  0  0  0  0
   52.8954   22.8984   45.6871 H   0  0  0  0  0  0  0  0  0  0  0  0
   54.7900   22.7860   46.7350 C   0  0  0  0  0  0  0  0  0  0  0  0
   54.6548   21.7340   47.0267 H   0  0  0  0  0  0  0  0  0  0  0  0
   55.9450   23.4740   47.1170 C   0  0  0  0  0  0  0  0  0  0  0  0
   56.7256   22.9658   47.7021 H   0  0  0  0  0  0  0  0  0  0  0  0
   58.3130   29.4820   45.4700 C   0  0  0  0  0  0  0  0  0  0  0  0
   59.0681   28.9567   46.0732 H   0  0  0  0  0  0  0  0  0  0  0  0
   58.5190   30.8160   45.1110 C   0  0  0  0  0  0  0  0  0  0  0  0
   59.4389   31.3315   45.4240 H   0  0  0  0  0  0  0  0  0  0  0  0
   58.0290   33.3150   47.1690 C   0  0  0  0  0  0  0  0  0  0  0  0
   57.0501   32.8180   47.2376 H   0  0  0  0  0  0  0  0  0  0  0  0
  1  2  1  0
  2  3  2  0
  3  4  1  0
  4  5  1  0
  4  6  2  0
  6  7  1  0
  6  8  1  0
  8  9  1  0
  9 10  1  0
  9 11  1  0
  9 12  1  0
 12 13  1  0
 13 14  2  0
 14 15  1  0
 14 16  1  0
 16 17  1  0
 16 18  2  0
 18 19  1  0
 19 20  1  0
 19 21  1  0
 21 22  2  0
 21 23  1  0
 23 24  2  0
 24 25  1  0
 25 26  1  0
 26 27  1  0
 26 28  2  0
 28 29  1  0
 28 30  1  0
 30 31  1  0
 30 32  2  0
 32 33  1  0
 18 34  1  0
 34 35  1  0
 34 36  2  0
 36 37  1  0
  8 38  2  0
 38 39  1  0
 38  2  1  0
 36 13  1  0
 32 24  1  0
M  CHG  1  25  -1
M  END
>  <UniqueID>  (49) 
45

>  <SMILES>  (49) 
O=C(/N=c1\cccc[n-]1)Nc1ccc(OCc2ccncc2)cc1

>  <Energy>  (49) 
55.533254577817104

>  <Genealogy>  (49) 
O=C(N=c1cccc[n-]1)Nc1ccc(OCc2ccncc2)cc1 (protonated)
O=C(/N=c1\cccc[n-]1)Nc1ccc(OCc2ccncc2)cc1 (cis-trans isomerization)
O=C(/N=c1\cccc[n-]1)Nc1ccc(OCc2ccncc2)cc1 (3D coordinates assigned)
O=C(/N=c1\cccc[n-]1)Nc1ccc(OCc2ccncc2)cc1 (optimized conformer: 55.533254577817104 kcal/mol)

>  <smiles>  (49) 
O=C(N=c1cccc[nH]1)Nc1ccc(OCc2ccncc2)cc1

>  <score_type>  (49) 
oracle

>  <origin>  (49) 
adg

>  <m_score__min__energy>  (49) 
-8.8699999999999992

>  <m_primary>  (49) 
energy

$$$$
49:0
     RDKit          3D

 66 69  0  0  0  0  0  0  0  0999 V2000
   60.3710   20.5770   45.6530 H   0  0  0  0  0  0  0  0  0  0  0  0
   60.3920   21.5670   45.5950 O   0  0  0  0  0  0  0  0  0  0  0  0
   59.6710   21.9040   44.4390 C   0  0  0  0  0  0  0  0  0  0  0  0
   59.2313   20.9955   44.0017 H   0  0  0  0  0  0  0  0  0  0  0  0
   60.3453   22.3705   43.7057 H   0  0  0  0  0  0  0  0  0  0  0  0
   58.5790   22.8650   44.8020 C   0  0  0  0  0  0  0  0  0  0  0  0
   57.4510   22.9700   43.9770 C   0  0  0  0  0  0  0  0  0  0  0  0
   57.3593   22.3255   43.0903 H   0  0  0  0  0  0  0  0  0  0  0  0
   56.4440   23.8880   44.2750 C   0  0  0  0  0  0  0  0  0  0  0  0
   55.5571   23.9540   43.6276 H   0  0  0  0  0  0  0  0  0  0  0  0
   56.5530   24.7290   45.3950 C   0  0  0  0  0  0  0  0  0  0  0  0
   55.4790   25.7110   45.6710 C   0  0  0  0  0  0  0  0  0  0  0  0
   54.2850   25.3110   45.6780 O   0  0  0  0  0  0  0  0  0  0  0  0
   55.7280   27.0880   46.0000 N   0  0  0  0  0  0  0  0  0  0  0  0
   56.7470   27.8530   45.7180 C   0  0  0  0  0  0  0  0  0  0  0  0
   56.5780   28.8040   44.7610 N   0  0  0  0  0  0  0  0  0  0  0  0
   57.5820   29.6260   44.3480 C   0  0  0  0  0  0  0  0  0  0  0  0
   57.3510   30.6300   43.2880 C   0  0  0  0  0  0  0  0  0  0  0  0
   57.2093   30.2615   42.2613 H   0  0  0  0  0  0  0  0  0  0  0  0
   57.3010   31.9580   43.4830 C   0  0  0  0  0  0  0  0  0  0  0  0
   56.8270   32.5688   42.7006 H   0  0  0  0  0  0  0  0  0  0  0  0
   57.8340   32.6610   44.6680 C   0  0  0  0  0  0  0  0  0  0  0  0
   58.8410   33.6250   44.5020 C   0  0  0  0  0  0  0  0  0  0  0  0
   59.2109   33.8633   43.4938 H   0  0  0  0  0  0  0  0  0  0  0  0
   59.3760   34.2840   45.6150 C   0  0  0  0  0  0  0  0  0  0  0  0
   60.1534   35.0502   45.4789 H   0  0  0  0  0  0  0  0  0  0  0  0
   58.9230   33.9690   46.8990 C   0  0  0  0  0  0  0  0  0  0  0  0
   59.3440   34.4886   47.7724 H   0  0  0  0  0  0  0  0  0  0  0  0
   57.9350   32.9940   47.0760 C   0  0  0  0  0  0  0  0  0  0  0  0
   57.5790   32.7488   48.0875 H   0  0  0  0  0  0  0  0  0  0  0  0
   57.4000   32.3310   45.9660 C   0  0  0  0  0  0  0  0  0  0  0  0
   56.6385   31.5500   46.1079 H   0  0  0  0  0  0  0  0  0  0  0  0
   58.8560   29.4840   44.9040 C   0  0  0  0  0  0  0  0  0  0  0  0
   59.6946   30.0916   44.5332 H   0  0  0  0  0  0  0  0  0  0  0  0
   59.0540   28.5640   45.9340 C   0  0  0  0  0  0  0  0  0  0  0  0
   60.2900   28.5110   46.5820 O   0  0  0  0  0  0  0  0  0  0  0  0
   60.5070   29.0340   47.8690 C   0  0  0  0  0  0  0  0  0  0  0  0
   60.4550   28.2120   49.0230 C   0  0  0  0  0  0  0  0  0  0  0  0
   60.2340   26.7270   48.9300 C   0  0  0  0  0  0  0  0  0  0  0  0
   60.1707   26.3016   49.9424 H   0  0  0  0  0  0  0  0  0  0  0  0
   59.2965   26.5289   48.3898 H   0  0  0  0  0  0  0  0  0  0  0  0
   61.0732   26.2645   48.3898 H   0  0  0  0  0  0  0  0  0  0  0  0
   60.5660   28.7950   50.2950 C   0  0  0  0  0  0  0  0  0  0  0  0
   60.5298   28.1565   51.1900 H   0  0  0  0  0  0  0  0  0  0  0  0
   60.7220   30.1770   50.4390 C   0  0  0  0  0  0  0  0  0  0  0  0
   60.7570   30.7950   51.8180 C   0  0  0  0  0  0  0  0  0  0  0  0
   60.9206   29.9977   52.5580 H   0  0  0  0  0  0  0  0  0  0  0  0
   61.5720   31.5336   51.8331 H   0  0  0  0  0  0  0  0  0  0  0  0
   59.4590   31.5270   52.1640 C   0  0  0  0  0  0  0  0  0  0  0  0
   59.4606   31.7678   53.2373 H   0  0  0  0  0  0  0  0  0  0  0  0
   59.4082   32.4417   51.5552 H   0  0  0  0  0  0  0  0  0  0  0  0
   58.2760   30.7080   51.8610 C   0  0  0  0  0  0  0  0  0  0  0  0
   57.3470   30.0590   51.6220 N   0  0  0  0  0  0  0  0  0  0  0  0
   60.8370   30.9800   49.2970 C   0  0  0  0  0  0  0  0  0  0  0  0
   61.0277   32.0579   49.4056 H   0  0  0  0  0  0  0  0  0  0  0  0
   60.7110   30.4210   48.0140 C   0  0  0  0  0  0  0  0  0  0  0  0
   60.8530   31.2960   46.8010 C   0  0  0  0  0  0  0  0  0  0  0  0
   61.0218   32.3361   47.1169 H   0  0  0  0  0  0  0  0  0  0  0  0
   61.7071   30.9524   46.1990 H   0  0  0  0  0  0  0  0  0  0  0  0
   59.9340   31.2402   46.1990 H   0  0  0  0  0  0  0  0  0  0  0  0
   58.0170   27.7050   46.3110 C   0  0  0  0  0  0  0  0  0  0  0  0
   58.1908   26.9213   47.0631 H   0  0  0  0  0  0  0  0  0  0  0  0
   57.6750   24.6100   46.2330 C   0  0  0  0  0  0  0  0  0  0  0  0
   57.7544   25.2365   47.1337 H   0  0  0  0  0  0  0  0  0  0  0  0
   58.6920   23.6980   45.9270 C   0  0  0  0  0  0  0  0  0  0  0  0
   59.5824   23.6336   46.5697 H   0  0  0  0  0  0  0  0  0  0  0  0
  1  2  1  0
  2  3  1  0
  3  4  1  0
  3  5  1  0
  3  6  1  0
  6  7  2  0
  7  8  1  0
  7  9  1  0
  9 10  1  0
  9 11  2  0
 11 12  1  0
 12 13  2  0
 12 14  1  0
 14 15  2  0
 15 16  1  0
 16 17  1  0
 17 18  1  0
 18 19  1  0
 18 20  2  3
 20 21  1  0
 20 22  1  0
 22 23  2  0
 23 24  1  0
 23 25  1  0
 25 26  1  0
 25 27  2  0
 27 28  1  0
 27 29  1  0
 29 30  1  0
 29 31  2  0
 31 32  1  0
 17 33  2  0
 33 34  1  0
 33 35  1  0
 35 36  1  0
 36 37  1  0
 37 38  2  0
 38 39  1  0
 39 40  1  0
 39 41  1  0
 39 42  1  0
 38 43  1  0
 43 44  1  0
 43 45  2  0
 45 46  1  0
 46 47  1  0
 46 48  1  0
 46 49  1  0
 49 50  1  0
 49 51  1  0
 49 52  1  0
 52 53  3  0
 45 54  1  0
 54 55  1  0
 54 56  2  0
 56 57  1  0
 57 58  1  0
 57 59  1  0
 57 60  1  0
 35 61  2  0
 61 62  1  0
 11 63  1  0
 63 64  1  0
 63 65  2  0
 65 66  1  0
 65  6  1  0
 61 15  1  0
 31 22  1  0
 56 37  1  0
M  CHG  1  16  -1
M  END
>  <UniqueID>  (50) 
46

>  <SMILES>  (50) 
Cc1cc(CCC#N)cc(C)c1Oc1cc(C=Cc2ccccc2)[n-]/c(=N/C(=O)c2ccc(CO)cc2)c1

>  <Energy>  (50) 
93.54290079009914

>  <Genealogy>  (50) 
Cc1cc(CCC#N)cc(C)c1Oc1cc(C=Cc2ccccc2)[n-]c(=NC(=O)c2ccc(CO)cc2)c1 (protonated)
Cc1cc(CCC#N)cc(C)c1Oc1cc(C=Cc2ccccc2)[n-]/c(=N/C(=O)c2ccc(CO)cc2)c1 (cis-trans isomerization)
Cc1cc(CCC#N)cc(C)c1Oc1cc(C=Cc2ccccc2)[n-]/c(=N/C(=O)c2ccc(CO)cc2)c1 (3D coordinates assigned)
Cc1cc(CCC#N)cc(C)c1Oc1cc(C=Cc2ccccc2)[n-]/c(=N/C(=O)c2ccc(CO)cc2)c1 (optimized conformer: 93.54290079009914 kcal/mol)

>  <smiles>  (50) 
Cc1cc(CCC#N)cc(C)c1Oc1cc(C=Cc2ccccc2)[nH]c(=NC(=O)c2ccc(CO)cc2)c1

>  <score_type>  (50) 
oracle

>  <origin>  (50) 
adg

>  <m_score__min__energy>  (50) 
-12.380000000000001

>  <m_primary>  (50) 
energy

$$$$
50:0
     RDKit          3D

 55 58  0  0  0  0  0  0  0  0999 V2000
   55.9590   30.0660   44.8790 O   0  0  0  0  0  0  0  0  0  0  0  0
   57.2010   29.6570   44.1360 S   0  0  0  0  0  0  0  0  0  0  0  0
   56.8010   28.7460   43.0090 O   0  0  0  0  0  0  0  0  0  0  0  0
   57.9350   31.1350   43.4500 C   0  0  0  0  0  0  0  0  0  0  0  0
   57.9460   32.2360   44.4720 C   0  0  0  0  0  0  0  0  0  0  0  0
   58.4550   33.5010   44.1410 C   0  0  0  0  0  0  0  0  0  0  0  0
   58.4120   34.5280   45.0830 C   0  0  0  0  0  0  0  0  0  0  0  0
   57.8610   34.2910   46.3430 C   0  0  0  0  0  0  0  0  0  0  0  0
   57.3590   33.0230   46.6410 C   0  0  0  0  0  0  0  0  0  0  0  0
   57.4070   32.0310   45.7110 N   0  0  0  0  0  0  0  0  0  0  0  0
   58.3580   28.8610   45.2020 N   0  0  0  0  0  0  0  0  0  0  0  0
   59.6340   29.6060   45.2620 C   0  0  0  0  0  0  0  0  0  0  0  0
   59.7090   30.4550   46.4920 C   0  0  0  0  0  0  0  0  0  0  0  0
   58.7680   30.4080   47.4700 N   0  0  0  0  0  0  0  0  0  0  0  0
   59.2070   31.3300   48.3380 C   0  0  0  0  0  0  0  0  0  0  0  0
   58.6190   31.7200   49.5380 C   0  0  0  0  0  0  0  0  0  0  0  0
   59.2620   32.7260   50.2840 C   0  0  0  0  0  0  0  0  0  0  0  0
   60.4610   33.3090   49.8130 C   0  0  0  0  0  0  0  0  0  0  0  0
   61.0250   32.8890   48.5930 C   0  0  0  0  0  0  0  0  0  0  0  0
   60.3620   31.8910   47.8840 C   0  0  0  0  0  0  0  0  0  0  0  0
   60.7070   31.3530   46.7060 N   0  0  0  0  0  0  0  0  0  0  0  0
   58.5810   27.4410   44.8250 C   0  0  0  0  0  0  0  0  0  0  0  0
   57.6020   26.5010   45.5960 C   0  0  1  0  0  0  0  0  0  0  0  0
   56.3070   27.0540   45.5340 O   0  0  0  0  0  0  0  0  0  0  0  0
   57.5980   25.0790   45.0020 C   0  0  0  0  0  0  0  0  0  0  0  0
   56.6410   24.7150   44.0290 C   0  0  0  0  0  0  0  0  0  0  0  0
   56.6020   23.4150   43.5140 C   0  0  0  0  0  0  0  0  0  0  0  0
   57.4990   22.4520   43.9740 C   0  0  0  0  0  0  0  0  0  0  0  0
   58.4270   22.7810   44.9600 C   0  0  0  0  0  0  0  0  0  0  0  0
   58.4720   24.0770   45.4810 C   0  0  0  0  0  0  0  0  0  0  0  0
   57.9960   26.4130   47.0910 C   0  0  0  0  0  0  0  0  0  0  0  0
   59.3330   26.0860   47.2310 F   0  0  0  0  0  0  0  0  0  0  0  0
   57.7630   27.6200   47.7260 F   0  0  0  0  0  0  0  0  0  0  0  0
   57.2360   25.4430   47.7230 F   0  0  0  0  0  0  0  0  0  0  0  0
   58.9679   30.9170   43.1407 H   0  0  0  0  0  0  0  0  0  0  0  0
   57.3415   31.4589   42.5823 H   0  0  0  0  0  0  0  0  0  0  0  0
   58.8852   33.6813   43.1448 H   0  0  0  0  0  0  0  0  0  0  0  0
   58.8113   35.5222   44.8337 H   0  0  0  0  0  0  0  0  0  0  0  0
   57.8227   35.0946   47.0932 H   0  0  0  0  0  0  0  0  0  0  0  0
   56.9230   32.8251   47.6313 H   0  0  0  0  0  0  0  0  0  0  0  0
   57.0180   31.0960   45.9610 H   0  0  0  0  0  0  0  0  0  0  0  0
   60.4680   28.8888   45.2700 H   0  0  0  0  0  0  0  0  0  0  0  0
   59.6949   30.2629   44.3818 H   0  0  0  0  0  0  0  0  0  0  0  0
   57.6850   31.2584   49.8909 H   0  0  0  0  0  0  0  0  0  0  0  0
   58.8293   33.0603   51.2385 H   0  0  0  0  0  0  0  0  0  0  0  0
   60.9558   34.0948   50.4027 H   0  0  0  0  0  0  0  0  0  0  0  0
   61.9567   33.3338   48.2135 H   0  0  0  0  0  0  0  0  0  0  0  0
   58.4155   27.3249   43.7437 H   0  0  0  0  0  0  0  0  0  0  0  0
   59.6132   27.1652   45.0868 H   0  0  0  0  0  0  0  0  0  0  0  0
   56.3400   27.8400   44.9290 H   0  0  0  0  0  0  0  0  0  0  0  0
   55.9176   25.4628   43.6719 H   0  0  0  0  0  0  0  0  0  0  0  0
   55.8617   23.1519   42.7441 H   0  0  0  0  0  0  0  0  0  0  0  0
   57.4742   21.4336   43.5590 H   0  0  0  0  0  0  0  0  0  0  0  0
   59.1271   22.0174   45.3298 H   0  0  0  0  0  0  0  0  0  0  0  0
   59.1959   24.3199   46.2728 H   0  0  0  0  0  0  0  0  0  0  0  0
  1  2  2  0
  2  3  2  0
  2  4  1  0
  4  5  1  0
  5  6  2  0
  6  7  1  0
  7  8  2  0
  8  9  1  0
  9 10  2  0
  2 11  1  0
 11 12  1  0
 12 13  1  0
 13 14  2  0
 14 15  1  0
 15 16  2  0
 16 17  1  0
 17 18  2  0
 18 19  1  0
 19 20  2  0
 20 21  1  0
 11 22  1  0
 22 23  1  0
 23 24  1  1
 23 25  1  0
 25 26  2  0
 26 27  1  0
 27 28  2  0
 28 29  1  0
 29 30  2  0
 23 31  1  0
 31 32  1  0
 31 33  1  0
 31 34  1  0
 10  5  1  0
 21 13  1  0
 30 25  1  0
 20 15  1  0
  4 35  1  0
  4 36  1  0
  6 37  1  0
  7 38  1  0
  8 39  1  0
  9 40  1  0
 10 41  1  0
 12 42  1  0
 12 43  1  0
 16 44  1  0
 17 45  1  0
 18 46  1  0
 19 47  1  0
 22 48  1  0
 22 49  1  0
 24 50  1  0
 26 51  1  0
 27 52  1  0
 28 53  1  0
 29 54  1  0
 30 55  1  0
M  CHG  2  10   1  21  -1
M  END
>  <UniqueID>  (51) 
47

>  <SMILES>  (51) 
O=S(=O)(Cc1cccc[nH+]1)N(Cc1nc2ccccc2[n-]1)C[C@@](O)(c1ccccc1)C(F)(F)F

>  <Energy>  (51) 
92.90911512503791

>  <Genealogy>  (51) 
O=S(=O)(Cc1cccc[nH+]1)N(Cc1nc2ccccc2[n-]1)CC(O)(c1ccccc1)C(F)(F)F (protonated)
O=S(=O)(Cc1cccc[nH+]1)N(Cc1nc2ccccc2[n-]1)C[C@@](O)(c1ccccc1)C(F)(F)F (chirality)
O=S(=O)(Cc1cccc[nH+]1)N(Cc1nc2ccccc2[n-]1)C[C@@](O)(c1ccccc1)C(F)(F)F (3D coordinates assigned)
O=S(=O)(Cc1cccc[nH+]1)N(Cc1nc2ccccc2[n-]1)C[C@@](O)(c1ccccc1)C(F)(F)F (optimized conformer: 92.90911512503791 kcal/mol)

>  <smiles>  (51) 
O=S(=O)(Cc1ccccn1)N(Cc1nc2ccccc2[nH]1)CC(O)(c1ccccc1)C(F)(F)F

>  <score_type>  (51) 
oracle

>  <origin>  (51) 
adg

>  <m_score__min__energy>  (51) 
-7.96

>  <m_primary>  (51) 
energy

$$$$
51:0
     RDKit          3D

 36 38  0  0  0  0  0  0  0  0999 V2000
   54.7660   26.3410   45.9130 O   0  0  0  0  0  0  0  0  0  0  0  0
   55.9620   26.0540   46.1820 C   0  0  0  0  0  0  0  0  0  0  0  0
   56.2410   25.1690   47.2160 O   0  0  0  0  0  0  0  0  0  0  0  0
   57.0730   26.6210   45.3610 C   0  0  0  0  0  0  0  0  0  0  0  0
   57.7180   27.7730   46.0840 C   0  0  0  0  0  0  0  0  0  0  0  0
   57.3940   29.1340   46.0000 C   0  0  0  0  0  0  0  0  0  0  0  0
   56.3880   29.7120   45.0810 C   0  0  0  0  0  0  0  0  0  0  0  0
   56.6070   30.8030   44.4960 O   0  0  0  0  0  0  0  0  0  0  0  0
   55.1780   29.0650   44.8640 O   0  0  0  0  0  0  0  0  0  0  0  0
   58.1300   29.8510   46.8980 N   0  0  0  0  0  0  0  0  0  0  0  0
   58.1840   31.3140   47.0370 C   0  0  0  0  0  0  0  0  0  0  0  0
   59.5610   31.7490   47.4620 C   0  0  0  0  0  0  0  0  0  0  0  0
   60.6890   31.4130   46.6940 C   0  0  0  0  0  0  0  0  0  0  0  0
   61.9670   31.8030   47.1080 C   0  0  0  0  0  0  0  0  0  0  0  0
   62.1280   32.5320   48.2890 C   0  0  0  0  0  0  0  0  0  0  0  0
   61.0120   32.8720   49.0590 C   0  0  0  0  0  0  0  0  0  0  0  0
   59.7330   32.4840   48.6480 C   0  0  0  0  0  0  0  0  0  0  0  0
   58.9070   28.9510   47.5450 C   0  0  0  0  0  0  0  0  0  0  0  0
   59.8480   29.1840   48.5580 C   0  0  0  0  0  0  0  0  0  0  0  0
   60.5300   28.0810   49.1000 C   0  0  0  0  0  0  0  0  0  0  0  0
   60.2670   26.7780   48.6320 C   0  0  0  0  0  0  0  0  0  0  0  0
   59.3250   26.5660   47.6130 C   0  0  0  0  0  0  0  0  0  0  0  0
   58.6670   27.6790   47.0840 C   0  0  0  0  0  0  0  0  0  0  0  0
   57.8253   25.8395   45.1785 H   0  0  0  0  0  0  0  0  0  0  0  0
   56.6653   26.9805   44.4047 H   0  0  0  0  0  0  0  0  0  0  0  0
   57.9387   31.7794   46.0710 H   0  0  0  0  0  0  0  0  0  0  0  0
   57.4583   31.6273   47.8019 H   0  0  0  0  0  0  0  0  0  0  0  0
   60.5663   30.8405   45.7628 H   0  0  0  0  0  0  0  0  0  0  0  0
   62.8460   31.5355   46.5032 H   0  0  0  0  0  0  0  0  0  0  0  0
   63.1335   32.8385   48.6130 H   0  0  0  0  0  0  0  0  0  0  0  0
   61.1400   33.4453   49.9890 H   0  0  0  0  0  0  0  0  0  0  0  0
   58.8571   32.7552   49.2557 H   0  0  0  0  0  0  0  0  0  0  0  0
   60.0473   30.2037   48.9192 H   0  0  0  0  0  0  0  0  0  0  0  0
   61.2742   28.2359   49.8950 H   0  0  0  0  0  0  0  0  0  0  0  0
   60.8030   25.9220   49.0678 H   0  0  0  0  0  0  0  0  0  0  0  0
   59.1112   25.5528   47.2418 H   0  0  0  0  0  0  0  0  0  0  0  0
  1  2  2  0
  2  3  1  0
  2  4  1  0
  4  5  1  0
  5  6  2  0
  6  7  1  0
  7  8  2  0
  7  9  1  0
  6 10  1  0
 10 11  1  0
 11 12  1  0
 12 13  2  0
 13 14  1  0
 14 15  2  0
 15 16  1  0
 16 17  2  0
 10 18  1  0
 18 19  2  0
 19 20  1  0
 20 21  2  0
 21 22  1  0
 22 23  2  0
 23  5  1  0
 17 12  1  0
 23 18  1  0
  4 24  1  0
  4 25  1  0
 11 26  1  0
 11 27  1  0
 13 28  1  0
 14 29  1  0
 15 30  1  0
 16 31  1  0
 17 32  1  0
 19 33  1  0
 20 34  1  0
 21 35  1  0
 22 36  1  0
M  CHG  2   3  -1   9  -1
M  END
>  <UniqueID>  (52) 
48

>  <SMILES>  (52) 
O=C([O-])Cc1c(C(=O)[O-])n(Cc2ccccc2)c2ccccc12

>  <Energy>  (52) 
74.40848025813385

>  <Genealogy>  (52) 
O=C([O-])Cc1c(C(=O)[O-])n(Cc2ccccc2)c2ccccc12 (protonated)
O=C([O-])Cc1c(C(=O)[O-])n(Cc2ccccc2)c2ccccc12 (3D coordinates assigned)
O=C([O-])Cc1c(C(=O)[O-])n(Cc2ccccc2)c2ccccc12 (optimized conformer: 74.40848025813385 kcal/mol)

>  <smiles>  (52) 
O=C(O)Cc1c(C(=O)O)n(Cc2ccccc2)c2ccccc12

>  <score_type>  (52) 
oracle

>  <origin>  (52) 
adg

>  <m_score__min__energy>  (52) 
-12.470000000000001

>  <m_primary>  (52) 
energy

$$$$
52:0
     RDKit          3D

 40 41  0  0  0  0  0  0  0  0999 V2000
   59.6450   34.9280   46.2840 C   0  0  0  0  0  0  0  0  0  0  0  0
   58.9500   33.7180   45.7340 C   0  0  0  0  0  0  0  0  0  0  0  0
   58.7870   32.5810   46.5400 C   0  0  0  0  0  0  0  0  0  0  0  0
   58.1220   31.4550   46.0450 C   0  0  0  0  0  0  0  0  0  0  0  0
   57.5980   31.4630   44.7470 C   0  0  0  0  0  0  0  0  0  0  0  0
   56.7250   30.0300   44.1120 S   0  0  0  0  0  0  0  0  0  0  0  0
   58.0270   28.8050   44.5180 C   0  0  0  0  0  0  0  0  0  0  0  0
   57.8380   28.1790   45.9010 C   0  0  0  0  0  0  0  0  0  0  0  0
   56.5560   27.4870   45.9670 N   0  0  0  0  0  0  0  0  0  0  0  0
   56.3900   26.1100   45.6220 C   0  0  0  0  0  0  0  0  0  0  0  0
   55.3730   25.4780   46.0140 O   0  0  0  0  0  0  0  0  0  0  0  0
   57.4150   25.4520   44.8640 N   0  0  0  0  0  0  0  0  0  0  0  0
   57.2800   24.1260   44.3200 C   0  0  0  0  0  0  0  0  0  0  0  0
   56.2470   23.8350   43.4100 C   0  0  0  0  0  0  0  0  0  0  0  0
   56.1320   22.5600   42.8510 C   0  0  0  0  0  0  0  0  0  0  0  0
   57.0520   21.5660   43.1800 C   0  0  0  0  0  0  0  0  0  0  0  0
   58.0930   21.8410   44.0690 C   0  0  0  0  0  0  0  0  0  0  0  0
   58.2160   23.1160   44.6490 C   0  0  0  0  0  0  0  0  0  0  0  0
   59.3500   23.3870   45.6000 C   0  0  0  0  0  0  0  0  0  0  0  0
   57.7700   32.5910   43.9350 C   0  0  0  0  0  0  0  0  0  0  0  0
   58.4370   33.7160   44.4270 C   0  0  0  0  0  0  0  0  0  0  0  0
   59.6255   34.8940   47.3833 H   0  0  0  0  0  0  0  0  0  0  0  0
   60.6884   34.9414   45.9360 H   0  0  0  0  0  0  0  0  0  0  0  0
   59.1308   35.8360   45.9360 H   0  0  0  0  0  0  0  0  0  0  0  0
   59.1841   32.5755   47.5658 H   0  0  0  0  0  0  0  0  0  0  0  0
   58.0104   30.5614   46.6767 H   0  0  0  0  0  0  0  0  0  0  0  0
   58.0049   28.0048   43.7635 H   0  0  0  0  0  0  0  0  0  0  0  0
   58.9914   29.3341   44.5217 H   0  0  0  0  0  0  0  0  0  0  0  0
   58.6494   27.4605   46.0891 H   0  0  0  0  0  0  0  0  0  0  0  0
   57.8578   28.9735   46.6615 H   0  0  0  0  0  0  0  0  0  0  0  0
   58.3230   25.9550   44.7500 H   0  0  0  0  0  0  0  0  0  0  0  0
   55.5242   24.6178   43.1366 H   0  0  0  0  0  0  0  0  0  0  0  0
   55.3136   22.3400   42.1497 H   0  0  0  0  0  0  0  0  0  0  0  0
   56.9578   20.5629   42.7384 H   0  0  0  0  0  0  0  0  0  0  0  0
   58.8216   21.0551   44.3172 H   0  0  0  0  0  0  0  0  0  0  0  0
   58.9888   23.3007   46.6354 H   0  0  0  0  0  0  0  0  0  0  0  0
   60.1539   22.6557   45.4299 H   0  0  0  0  0  0  0  0  0  0  0  0
   59.7364   24.4028   45.4299 H   0  0  0  0  0  0  0  0  0  0  0  0
   57.3789   32.5914   42.9069 H   0  0  0  0  0  0  0  0  0  0  0  0
   58.5606   34.6030   43.7882 H   0  0  0  0  0  0  0  0  0  0  0  0
  1  2  1  0
  2  3  2  0
  3  4  1  0
  4  5  2  0
  5  6  1  0
  6  7  1  0
  7  8  1  0
  8  9  1  0
  9 10  1  0
 10 11  2  0
 10 12  1  0
 12 13  1  0
 13 14  2  0
 14 15  1  0
 15 16  2  0
 16 17  1  0
 17 18  2  0
 18 19  1  0
  5 20  1  0
 20 21  2  0
 21  2  1  0
 18 13  1  0
  1 22  1  0
  1 23  1  0
  1 24  1  0
  3 25  1  0
  4 26  1  0
  7 27  1  0
  7 28  1  0
  8 29  1  0
  8 30  1  0
 12 31  1  0
 14 32  1  0
 15 33  1  0
 16 34  1  0
 17 35  1  0
 19 36  1  0
 19 37  1  0
 19 38  1  0
 20 39  1  0
 21 40  1  0
M  CHG  1   9  -1
M  END
>  <UniqueID>  (53) 
49

>  <SMILES>  (53) 
Cc1ccc(SCC[N-]C(=O)Nc2ccccc2C)cc1

>  <Energy>  (53) 
33.718257867401995

>  <Genealogy>  (53) 
Cc1ccc(SCC[N-]C(=O)Nc2ccccc2C)cc1 (protonated)
Cc1ccc(SCC[N-]C(=O)Nc2ccccc2C)cc1 (3D coordinates assigned)
Cc1ccc(SCC[N-]C(=O)Nc2ccccc2C)cc1 (optimized conformer: 33.718257867401995 kcal/mol)

>  <smiles>  (53) 
Cc1ccc(SCCNC(=O)Nc2ccccc2C)cc1

>  <score_type>  (53) 
oracle

>  <origin>  (53) 
adg

>  <m_score__min__energy>  (53) 
-9.3699999999999992

>  <m_primary>  (53) 
energy

$$$$
53:0
     RDKit          3D

 45 46  0  0  0  0  0  0  0  0999 V2000
   58.0490   26.7650   43.1210 N   0  0  0  0  0  0  0  0  0  0  0  0
   58.2010   27.5890   43.9200 C   0  0  0  0  0  0  0  0  0  0  0  0
   58.3840   28.5900   44.8880 N   0  0  0  0  0  0  0  0  0  0  0  0
   59.1380   29.7580   44.5040 C   0  0  0  0  0  0  0  0  0  0  0  0
   58.7610   30.9650   44.8240 N   0  0  0  0  0  0  0  0  0  0  0  0
   57.3810   31.3650   44.8390 C   0  0  0  0  0  0  0  0  0  0  0  0
   56.4640   30.5390   44.5780 O   0  0  0  0  0  0  0  0  0  0  0  0
   57.0140   32.7690   45.2120 C   0  0  0  0  0  0  0  0  0  0  0  0
   58.0840   33.3690   46.0820 C   0  0  0  0  0  0  0  0  0  0  0  0
   58.2310   32.9510   47.4150 C   0  0  0  0  0  0  0  0  0  0  0  0
   59.2490   33.4860   48.2120 C   0  0  0  0  0  0  0  0  0  0  0  0
   60.1280   34.4340   47.6830 C   0  0  0  0  0  0  0  0  0  0  0  0
   59.9940   34.8470   46.3540 C   0  0  0  0  0  0  0  0  0  0  0  0
   58.9810   34.3140   45.5530 C   0  0  0  0  0  0  0  0  0  0  0  0
   57.7550   28.4200   46.2060 C   0  0  0  0  0  0  0  0  0  0  0  0
   58.7990   28.1320   47.2890 C   0  0  0  0  0  0  0  0  0  0  0  0
   58.9870   29.5840   48.3860 S   0  0  0  0  0  0  0  0  0  0  0  0
   60.8140   29.6590   48.3320 C   0  0  0  0  0  0  0  0  0  0  0  0
   61.3070   30.8600   47.5680 C   0  0  0  0  0  0  0  0  0  0  0  0
   60.7360   31.1490   46.4810 O   0  0  0  0  0  0  0  0  0  0  0  0
   62.4220   31.7140   48.0520 C   0  0  0  0  0  0  0  0  0  0  0  0
   63.0270   32.6770   47.2250 C   0  0  0  0  0  0  0  0  0  0  0  0
   64.0900   33.4400   47.7140 C   0  0  0  0  0  0  0  0  0  0  0  0
   64.5340   33.2590   48.9850 N   0  0  0  0  0  0  0  0  0  0  0  0
   63.9660   32.3440   49.8120 C   0  0  0  0  0  0  0  0  0  0  0  0
   62.9020   31.5610   49.3640 C   0  0  0  0  0  0  0  0  0  0  0  0
   60.0620   29.6265   43.9218 H   0  0  0  0  0  0  0  0  0  0  0  0
   59.4690   31.6910   45.0650 H   0  0  0  0  0  0  0  0  0  0  0  0
   56.9073   33.3721   44.2983 H   0  0  0  0  0  0  0  0  0  0  0  0
   56.0638   32.7577   45.7660 H   0  0  0  0  0  0  0  0  0  0  0  0
   57.5438   32.2009   47.8335 H   0  0  0  0  0  0  0  0  0  0  0  0
   59.3573   33.1595   49.2568 H   0  0  0  0  0  0  0  0  0  0  0  0
   60.9257   34.8557   48.3121 H   0  0  0  0  0  0  0  0  0  0  0  0
   60.6874   35.5929   45.9383 H   0  0  0  0  0  0  0  0  0  0  0  0
   58.8848   34.6346   44.5052 H   0  0  0  0  0  0  0  0  0  0  0  0
   57.2140   29.3417   46.4662 H   0  0  0  0  0  0  0  0  0  0  0  0
   57.0651   27.5649   46.1533 H   0  0  0  0  0  0  0  0  0  0  0  0
   58.4753   27.2658   47.8848 H   0  0  0  0  0  0  0  0  0  0  0  0
   59.7650   27.9171   46.8087 H   0  0  0  0  0  0  0  0  0  0  0  0
   61.1979   29.7109   49.3615 H   0  0  0  0  0  0  0  0  0  0  0  0
   61.1761   28.7568   47.8174 H   0  0  0  0  0  0  0  0  0  0  0  0
   62.6648   32.8288   46.1975 H   0  0  0  0  0  0  0  0  0  0  0  0
   64.5692   34.1900   47.0676 H   0  0  0  0  0  0  0  0  0  0  0  0
   64.3455   32.2200   50.8370 H   0  0  0  0  0  0  0  0  0  0  0  0
   62.4390   30.8244   50.0371 H   0  0  0  0  0  0  0  0  0  0  0  0
  1  2  3  0
  2  3  1  0
  3  4  1  0
  4  5  2  3
  5  6  1  0
  6  7  2  0
  6  8  1  0
  8  9  1  0
  9 10  2  0
 10 11  1  0
 11 12  2  0
 12 13  1  0
 13 14  2  0
  3 15  1  0
 15 16  1  0
 16 17  1  0
 17 18  1  0
 18 19  1  0
 19 20  2  0
 19 21  1  0
 21 22  2  0
 22 23  1  0
 23 24  2  0
 24 25  1  0
 25 26  2  0
 14  9  1  0
 26 21  1  0
  4 27  1  0
  5 28  1  0
  8 29  1  0
  8 30  1  0
 10 31  1  0
 11 32  1  0
 12 33  1  0
 13 34  1  0
 14 35  1  0
 15 36  1  0
 15 37  1  0
 16 38  1  0
 16 39  1  0
 18 40  1  0
 18 41  1  0
 22 42  1  0
 23 43  1  0
 25 44  1  0
 26 45  1  0
M  CHG  1   5   1
M  END
>  <UniqueID>  (54) 
50

>  <SMILES>  (54) 
N#CN(C=[NH+]C(=O)Cc1ccccc1)CCSCC(=O)c1ccncc1

>  <Energy>  (54) 
33.59320304752247

>  <Genealogy>  (54) 
N#CN(C=[NH+]C(=O)Cc1ccccc1)CCSCC(=O)c1ccncc1 (protonated)
N#CN(C=[NH+]C(=O)Cc1ccccc1)CCSCC(=O)c1ccncc1 (3D coordinates assigned)
N#CN(C=[NH+]C(=O)Cc1ccccc1)CCSCC(=O)c1ccncc1 (optimized conformer: 33.59320304752247 kcal/mol)

>  <smiles>  (54) 
N#CN(C=NC(=O)Cc1ccccc1)CCSCC(=O)c1ccncc1

>  <score_type>  (54) 
oracle

>  <origin>  (54) 
adg

>  <m_score__min__energy>  (54) 
-6.5199999999999996

>  <m_primary>  (54) 
energy

$$$$
54:0
     RDKit          3D

 35 36  0  0  0  0  0  0  0  0999 V2000
   51.0210   32.7050   51.6460 O   0  0  0  0  0  0  0  0  0  0  0  0
   51.3930   32.1870   50.5600 C   0  0  0  0  0  0  0  0  0  0  0  0
   50.9160   32.6920   49.3560 O   0  0  0  0  0  0  0  0  0  0  0  0
   52.3830   31.0660   50.5630 C   0  0  0  0  0  0  0  0  0  0  0  0
   52.5260   30.5030   51.9550 C   0  0  0  0  0  0  0  0  0  0  0  0
   51.4610   29.7830   52.5230 C   0  0  0  0  0  0  0  0  0  0  0  0
   51.5620   29.2770   53.8190 C   0  0  0  0  0  0  0  0  0  0  0  0
   52.7190   29.4970   54.5680 C   0  0  0  0  0  0  0  0  0  0  0  0
   53.7800   30.2210   54.0210 C   0  0  0  0  0  0  0  0  0  0  0  0
   53.7000   30.7230   52.7080 C   0  0  0  0  0  0  0  0  0  0  0  0
   54.7420   31.4770   52.1440 O   0  0  0  0  0  0  0  0  0  0  0  0
   56.0190   30.9930   51.8340 C   0  0  0  0  0  0  0  0  0  0  0  0
   56.2970   29.7730   51.9890 O   0  0  0  0  0  0  0  0  0  0  0  0
   56.9850   31.8960   51.2800 N   0  0  0  0  0  0  0  0  0  0  0  0
   58.3250   31.5300   50.9250 C   0  0  0  0  0  0  0  0  0  0  0  0
   58.7520   30.3640   51.1480 O   0  0  0  0  0  0  0  0  0  0  0  0
   59.1710   32.5070   50.3840 O   0  0  0  0  0  0  0  0  0  0  0  0
   59.0870   33.0260   49.0830 C   0  0  0  0  0  0  0  0  0  0  0  0
   59.9430   34.0780   48.7270 C   0  0  0  0  0  0  0  0  0  0  0  0
   59.8880   34.6320   47.4440 C   0  0  0  0  0  0  0  0  0  0  0  0
   58.9680   34.1470   46.5110 C   0  0  0  0  0  0  0  0  0  0  0  0
   58.0970   33.1130   46.8610 C   0  0  0  0  0  0  0  0  0  0  0  0
   58.1490   32.5550   48.1430 C   0  0  0  0  0  0  0  0  0  0  0  0
   52.0365   30.2731   49.8839 H   0  0  0  0  0  0  0  0  0  0  0  0
   53.3587   31.4471   50.2273 H   0  0  0  0  0  0  0  0  0  0  0  0
   50.5419   29.6174   51.9418 H   0  0  0  0  0  0  0  0  0  0  0  0
   50.7286   28.7038   54.2513 H   0  0  0  0  0  0  0  0  0  0  0  0
   52.7950   29.0994   55.5908 H   0  0  0  0  0  0  0  0  0  0  0  0
   54.6849   30.4005   54.6201 H   0  0  0  0  0  0  0  0  0  0  0  0
   56.6920   32.8860   51.1240 H   0  0  0  0  0  0  0  0  0  0  0  0
   60.6622   34.4699   49.4613 H   0  0  0  0  0  0  0  0  0  0  0  0
   60.5697   35.4504   47.1692 H   0  0  0  0  0  0  0  0  0  0  0  0
   58.9297   34.5798   45.5004 H   0  0  0  0  0  0  0  0  0  0  0  0
   57.3688   32.7366   46.1275 H   0  0  0  0  0  0  0  0  0  0  0  0
   57.4557   31.7464   48.4178 H   0  0  0  0  0  0  0  0  0  0  0  0
  1  2  2  0
  2  3  1  0
  2  4  1  0
  4  5  1  0
  5  6  2  0
  6  7  1  0
  7  8  2  0
  8  9  1  0
  9 10  2  0
 10 11  1  0
 11 12  1  0
 12 13  2  0
 12 14  1  0
 14 15  1  0
 15 16  2  0
 15 17  1  0
 17 18  1  0
 18 19  2  0
 19 20  1  0
 20 21  2  0
 21 22  1  0
 22 23  2  0
 10  5  1  0
 23 18  1  0
  4 24  1  0
  4 25  1  0
  6 26  1  0
  7 27  1  0
  8 28  1  0
  9 29  1  0
 14 30  1  0
 19 31  1  0
 20 32  1  0
 21 33  1  0
 22 34  1  0
 23 35  1  0
M  CHG  1   3  -1
M  END
>  <UniqueID>  (55) 
51

>  <SMILES>  (55) 
O=C([O-])Cc1ccccc1OC(=O)NC(=O)Oc1ccccc1

>  <Energy>  (55) 
43.03076738026318

>  <Genealogy>  (55) 
O=C([O-])Cc1ccccc1OC(=O)NC(=O)Oc1ccccc1 (protonated)
O=C([O-])Cc1ccccc1OC(=O)NC(=O)Oc1ccccc1 (3D coordinates assigned)
O=C([O-])Cc1ccccc1OC(=O)NC(=O)Oc1ccccc1 (optimized conformer: 43.03076738026318 kcal/mol)

>  <smiles>  (55) 
O=C(O)Cc1ccccc1OC(=O)NC(=O)Oc1ccccc1

>  <score_type>  (55) 
oracle

>  <origin>  (55) 
adg

>  <m_score__min__energy>  (55) 
-11.18

>  <m_primary>  (55) 
energy

$$$$
55:0
     RDKit          3D

 51 54  0  0  0  0  0  0  0  0999 V2000
   55.9400   30.5230   44.8290 O   0  0  0  0  0  0  0  0  0  0  0  0
   56.7760   29.6040   45.0470 C   0  0  0  0  0  0  0  0  0  0  0  0
   56.3670   28.2320   44.9450 N   0  0  0  0  0  0  0  0  0  0  0  0
   56.7160   27.2160   45.6870 C   0  0  0  0  0  0  0  0  0  0  0  0
   58.0470   27.0220   45.9040 N   0  0  0  0  0  0  0  0  0  0  0  0
   58.5250   26.0050   46.6690 C   0  0  0  0  0  0  0  0  0  0  0  0
   57.6430   25.1060   47.2640 C   0  0  0  0  0  0  0  0  0  0  0  0
   56.2740   25.2480   47.0420 C   0  0  0  0  0  0  0  0  0  0  0  0
   55.7950   26.2870   46.2390 C   0  0  0  0  0  0  0  0  0  0  0  0
   54.4330   26.3360   45.9700 O   0  0  0  0  0  0  0  0  0  0  0  0
   58.1400   29.9410   45.5150 C   0  0  0  0  0  0  0  0  0  0  0  0
   59.2580   29.2300   45.0400 C   0  0  0  0  0  0  0  0  0  0  0  0
   60.5440   29.5610   45.4750 C   0  0  0  0  0  0  0  0  0  0  0  0
   60.7330   30.6040   46.3840 C   0  0  0  0  0  0  0  0  0  0  0  0
   59.6320   31.3220   46.8660 C   0  0  0  0  0  0  0  0  0  0  0  0
   59.8500   32.6620   47.9860 S   0  0  0  0  0  0  0  0  0  0  0  0
   58.6250   33.5330   48.0120 O   0  0  0  0  0  0  0  0  0  0  0  0
   61.0180   33.4970   47.5430 O   0  0  0  0  0  0  0  0  0  0  0  0
   60.1290   32.0210   49.5760 N   0  0  0  0  0  0  0  0  0  0  0  0
   61.0960   30.9430   49.7960 C   0  0  0  0  0  0  0  0  0  0  0  0
   62.4750   31.5190   49.9510 C   0  0  0  0  0  0  0  0  0  0  0  0
   63.1090   32.1540   48.8730 C   0  0  0  0  0  0  0  0  0  0  0  0
   64.4120   32.6360   49.0150 C   0  0  0  0  0  0  0  0  0  0  0  0
   65.0720   32.4700   50.2340 C   0  0  0  0  0  0  0  0  0  0  0  0
   66.7080   33.0640   50.4390 Cl  0  0  0  0  0  0  0  0  0  0  0  0
   64.4500   31.8400   51.2660 N   0  0  0  0  0  0  0  0  0  0  0  0
   63.1830   31.3620   51.1510 C   0  0  0  0  0  0  0  0  0  0  0  0
   59.3320   32.5040   50.6640 C   0  0  0  0  0  0  0  0  0  0  0  0
   59.6560   33.7230   51.2770 C   0  0  0  0  0  0  0  0  0  0  0  0
   58.8870   34.1990   52.3440 C   0  0  0  0  0  0  0  0  0  0  0  0
   57.7930   33.4620   52.8020 C   0  0  0  0  0  0  0  0  0  0  0  0
   57.4630   32.2480   52.1930 C   0  0  0  0  0  0  0  0  0  0  0  0
   58.2280   31.7660   51.1240 C   0  0  0  0  0  0  0  0  0  0  0  0
   57.8840   30.5620   50.5210 O   0  0  0  0  0  0  0  0  0  0  0  0
   58.3410   30.9890   46.4330 C   0  0  0  0  0  0  0  0  0  0  0  0
   59.6090   25.8920   46.8182 H   0  0  0  0  0  0  0  0  0  0  0  0
   58.0221   24.2937   47.9015 H   0  0  0  0  0  0  0  0  0  0  0  0
   55.5682   24.5398   47.5005 H   0  0  0  0  0  0  0  0  0  0  0  0
   59.1185   28.4086   44.3218 H   0  0  0  0  0  0  0  0  0  0  0  0
   61.4111   28.9976   45.0998 H   0  0  0  0  0  0  0  0  0  0  0  0
   61.7477   30.8617   46.7216 H   0  0  0  0  0  0  0  0  0  0  0  0
   60.8262   30.3912   50.7085 H   0  0  0  0  0  0  0  0  0  0  0  0
   61.0824   30.2615   48.9326 H   0  0  0  0  0  0  0  0  0  0  0  0
   62.5800   32.2723   47.9159 H   0  0  0  0  0  0  0  0  0  0  0  0
   64.9128   33.1408   48.1757 H   0  0  0  0  0  0  0  0  0  0  0  0
   62.7112   30.8500   52.0026 H   0  0  0  0  0  0  0  0  0  0  0  0
   60.5168   34.3061   50.9179 H   0  0  0  0  0  0  0  0  0  0  0  0
   59.1444   35.1552   52.8230 H   0  0  0  0  0  0  0  0  0  0  0  0
   57.1906   33.8370   53.6425 H   0  0  0  0  0  0  0  0  0  0  0  0
   56.5999   31.6697   52.5546 H   0  0  0  0  0  0  0  0  0  0  0  0
   57.4765   31.5522   46.8144 H   0  0  0  0  0  0  0  0  0  0  0  0
  1  2  2  0
  2  3  1  0
  3  4  2  3
  4  5  1  0
  5  6  1  0
  6  7  2  0
  7  8  1  0
  8  9  2  0
  9 10  1  0
  2 11  1  0
 11 12  2  0
 12 13  1  0
 13 14  2  0
 14 15  1  0
 15 16  1  0
 16 17  2  0
 16 18  2  0
 16 19  1  0
 19 20  1  0
 20 21  1  0
 21 22  2  0
 22 23  1  0
 23 24  2  0
 24 25  1  0
 24 26  1  0
 26 27  2  0
 19 28  1  0
 28 29  2  0
 29 30  1  0
 30 31  2  0
 31 32  1  0
 32 33  2  0
 33 34  1  0
 15 35  2  0
  9  4  1  0
 35 11  1  0
 27 21  1  0
 33 28  1  0
  6 36  1  0
  7 37  1  0
  8 38  1  0
 12 39  1  0
 13 40  1  0
 14 41  1  0
 20 42  1  0
 20 43  1  0
 22 44  1  0
 23 45  1  0
 27 46  1  0
 29 47  1  0
 30 48  1  0
 31 49  1  0
 32 50  1  0
 35 51  1  0
M  CHG  3   5  -1  10  -1  34  -1
M  END
>  <UniqueID>  (56) 
52

>  <SMILES>  (56) 
O=C(N=c1[n-]cccc1[O-])c1cccc(S(=O)(=O)N(Cc2ccc(Cl)nc2)c2ccccc2[O-])c1

>  <Energy>  (56) 
74.8436050786273

>  <Genealogy>  (56) 
O=C(N=c1[n-]cccc1[O-])c1cccc(S(=O)(=O)N(Cc2ccc(Cl)nc2)c2ccccc2[O-])c1 (protonated)
O=C(N=c1[n-]cccc1[O-])c1cccc(S(=O)(=O)N(Cc2ccc(Cl)nc2)c2ccccc2[O-])c1 (3D coordinates assigned)
O=C(N=c1[n-]cccc1[O-])c1cccc(S(=O)(=O)N(Cc2ccc(Cl)nc2)c2ccccc2[O-])c1 (optimized conformer: 74.8436050786273 kcal/mol)

>  <smiles>  (56) 
O=C(N=c1[nH]cccc1O)c1cccc(S(=O)(=O)N(Cc2ccc(Cl)nc2)c2ccccc2O)c1

>  <score_type>  (56) 
oracle

>  <origin>  (56) 
adg

>  <m_score__min__energy>  (56) 
-17.23

>  <m_primary>  (56) 
energy

$$$$
56:0
     RDKit          3D

 47 50  0  0  0  0  0  0  0  0999 V2000
   55.1600   26.7050   46.2170 N   0  0  0  0  0  0  0  0  0  0  0  0
   56.2960   25.9820   46.6930 C   0  0  0  0  0  0  0  0  0  0  0  0
   56.1350   24.8540   47.2300 O   0  0  0  0  0  0  0  0  0  0  0  0
   57.6590   26.5180   46.5110 C   0  0  0  0  0  0  0  0  0  0  0  0
   58.6810   26.0680   47.3650 C   0  0  0  0  0  0  0  0  0  0  0  0
   60.0070   26.4470   47.1440 C   0  0  0  0  0  0  0  0  0  0  0  0
   60.3280   27.2720   46.0650 C   0  0  0  0  0  0  0  0  0  0  0  0
   59.3190   27.7450   45.2240 C   0  0  0  0  0  0  0  0  0  0  0  0
   57.9790   27.4090   45.4590 C   0  0  0  0  0  0  0  0  0  0  0  0
   56.9730   28.0170   44.6370 N   0  0  0  0  0  0  0  0  0  0  0  0
   56.4370   29.3410   44.8050 C   0  0  0  0  0  0  0  0  0  0  0  0
   55.2570   29.4630   45.2300 O   0  0  0  0  0  0  0  0  0  0  0  0
   57.1840   30.5540   44.3790 C   0  0  0  0  0  0  0  0  0  0  0  0
   56.9530   31.0330   43.0700 C   0  0  0  0  0  0  0  0  0  0  0  0
   56.0580   30.3880   42.2220 O   0  0  0  0  0  0  0  0  0  0  0  0
   57.5890   32.1820   42.6100 C   0  0  0  0  0  0  0  0  0  0  0  0
   58.4180   32.9110   43.4500 C   0  0  0  0  0  0  0  0  0  0  0  0
   58.6300   32.4960   44.7700 C   0  0  0  0  0  0  0  0  0  0  0  0
   59.4190   33.2830   45.6090 C   0  0  0  0  0  0  0  0  0  0  0  0
   59.6170   32.9030   46.9270 C   0  0  0  0  0  0  0  0  0  0  0  0
   59.0980   31.7360   47.4090 N   0  0  0  0  0  0  0  0  0  0  0  0
   59.3220   31.4150   48.8350 C   0  0  0  0  0  0  0  0  0  0  0  0
   58.4500   32.2680   49.7670 C   0  0  0  0  0  0  0  0  0  0  0  0
   57.7590   31.4420   50.8070 C   0  0  0  0  0  0  0  0  0  0  0  0
   58.0010   30.1190   51.0830 C   0  0  0  0  0  0  0  0  0  0  0  0
   57.2110   29.7380   52.1010 N   0  0  0  0  0  0  0  0  0  0  0  0
   56.5050   30.8470   52.4050 C   0  0  0  0  0  0  0  0  0  0  0  0
   56.8070   31.9110   51.6320 N   0  0  0  0  0  0  0  0  0  0  0  0
   58.3390   30.9190   46.6000 C   0  0  0  0  0  0  0  0  0  0  0  0
   57.9160   29.8240   47.0580 O   0  0  0  0  0  0  0  0  0  0  0  0
   58.0380   31.3010   45.2580 C   0  0  0  0  0  0  0  0  0  0  0  0
   55.2740   27.5880   45.6720 H   0  0  0  0  0  0  0  0  0  0  0  0
   54.1970   26.3300   46.3610 H   0  0  0  0  0  0  0  0  0  0  0  0
   58.4346   25.4127   48.2134 H   0  0  0  0  0  0  0  0  0  0  0  0
   60.7992   26.0949   47.8211 H   0  0  0  0  0  0  0  0  0  0  0  0
   61.3757   27.5495   45.8773 H   0  0  0  0  0  0  0  0  0  0  0  0
   59.5782   28.3871   44.3693 H   0  0  0  0  0  0  0  0  0  0  0  0
   57.4333   32.5145   41.5731 H   0  0  0  0  0  0  0  0  0  0  0  0
   58.9116   33.8204   43.0767 H   0  0  0  0  0  0  0  0  0  0  0  0
   59.8831   34.2035   45.2252 H   0  0  0  0  0  0  0  0  0  0  0  0
   60.2017   33.5521   47.5954 H   0  0  0  0  0  0  0  0  0  0  0  0
   59.0840   30.3539   49.0006 H   0  0  0  0  0  0  0  0  0  0  0  0
   60.3752   31.6310   49.0676 H   0  0  0  0  0  0  0  0  0  0  0  0
   59.0886   33.0092   50.2699 H   0  0  0  0  0  0  0  0  0  0  0  0
   57.6774   32.7556   49.1544 H   0  0  0  0  0  0  0  0  0  0  0  0
   58.7228   29.4766   50.5573 H   0  0  0  0  0  0  0  0  0  0  0  0
   55.7537   30.8806   53.2077 H   0  0  0  0  0  0  0  0  0  0  0  0
  1  2  1  0
  2  3  2  0
  2  4  1  0
  4  5  2  0
  5  6  1  0
  6  7  2  0
  7  8  1  0
  8  9  2  0
  9 10  1  0
 10 11  1  0
 11 12  2  0
 11 13  1  0
 13 14  2  0
 14 15  1  0
 14 16  1  0
 16 17  2  0
 17 18  1  0
 18 19  1  0
 19 20  2  0
 20 21  1  0
 21 22  1  0
 22 23  1  0
 23 24  1  0
 24 25  2  0
 25 26  1  0
 26 27  1  0
 27 28  2  0
 21 29  1  0
 29 30  2  0
 29 31  1  0
  9  4  1  0
 31 13  1  0
 31 18  2  0
 28 24  1  0
  1 32  1  0
  1 33  1  0
  5 34  1  0
  6 35  1  0
  7 36  1  0
  8 37  1  0
 16 38  1  0
 17 39  1  0
 19 40  1  0
 20 41  1  0
 22 42  1  0
 22 43  1  0
 23 44  1  0
 23 45  1  0
 25 46  1  0
 27 47  1  0
M  CHG  3  10  -1  15  -1  26  -1
M  END
>  <UniqueID>  (57) 
53

>  <SMILES>  (57) 
NC(=O)c1ccccc1[N-]C(=O)c1c([O-])ccc2ccn(CCc3c[n-]cn3)c(=O)c12

>  <Energy>  (57) 
102.71630268460228

>  <Genealogy>  (57) 
NC(=O)c1ccccc1[N-]C(=O)c1c([O-])ccc2ccn(CCc3c[n-]cn3)c(=O)c12 (protonated)
NC(=O)c1ccccc1[N-]C(=O)c1c([O-])ccc2ccn(CCc3c[n-]cn3)c(=O)c12 (3D coordinates assigned)
NC(=O)c1ccccc1[N-]C(=O)c1c([O-])ccc2ccn(CCc3c[n-]cn3)c(=O)c12 (optimized conformer: 102.71630268460228 kcal/mol)

>  <smiles>  (57) 
NC(=O)c1ccccc1NC(=O)c1c(O)ccc2ccn(CCc3c[nH]cn3)c(=O)c12

>  <score_type>  (57) 
oracle

>  <origin>  (57) 
adg

>  <m_score__min__energy>  (57) 
-12.1

>  <m_primary>  (57) 
energy

$$$$
57:0
     RDKit          3D

 65 69  0  0  0  0  0  0  0  0999 V2000
   66.0548   32.5485   52.0277 H   0  0  0  0  0  0  0  0  0  0  0  0
   65.1130   32.4080   51.4770 C   0  0  0  0  0  0  0  0  0  0  0  0
   64.6300   33.4150   50.6990 N   0  0  0  0  0  0  0  0  0  0  0  0
   63.4750   33.2720   50.0040 C   0  0  0  0  0  0  0  0  0  0  0  0
   63.0700   34.2350   49.2290 N   0  0  0  0  0  0  0  0  0  0  0  0
   61.9970   34.1160   48.2800 C   0  0  0  0  0  0  0  0  0  0  0  0
   60.6780   34.2710   48.7130 C   0  0  0  0  0  0  0  0  0  0  0  0
   60.4677   34.4386   49.7796 H   0  0  0  0  0  0  0  0  0  0  0  0
   59.6250   34.2140   47.7970 C   0  0  0  0  0  0  0  0  0  0  0  0
   58.5896   34.3426   48.1454 H   0  0  0  0  0  0  0  0  0  0  0  0
   59.8810   33.9930   46.4310 C   0  0  0  0  0  0  0  0  0  0  0  0
   58.8280   33.9950   45.4560 N   0  0  0  0  0  0  0  0  0  0  0  0
   58.2660   32.8210   44.8530 C   0  0  0  0  0  0  0  0  0  0  0  0
   58.1700   32.7650   43.6000 O   0  0  0  0  0  0  0  0  0  0  0  0
   57.7140   31.7790   45.6720 N   0  0  0  0  0  0  0  0  0  0  0  0
   57.2990   32.0750   46.5840 H   0  0  0  0  0  0  0  0  0  0  0  0
   57.7800   30.3660   45.3880 C   0  0  0  0  0  0  0  0  0  0  0  0
   58.9770   29.7290   44.9950 C   0  0  0  0  0  0  0  0  0  0  0  0
   59.8907   30.3243   44.8506 H   0  0  0  0  0  0  0  0  0  0  0  0
   59.0090   28.3460   44.7880 C   0  0  0  0  0  0  0  0  0  0  0  0
   59.9436   27.8637   44.4657 H   0  0  0  0  0  0  0  0  0  0  0  0
   57.8600   27.5710   44.9880 C   0  0  0  0  0  0  0  0  0  0  0  0
   57.9250   26.1420   44.8220 C   0  0  0  0  0  0  0  0  0  0  0  0
   57.9760   24.9920   44.6960 N   0  0  0  0  0  0  0  0  0  0  0  0
   56.6680   28.1930   45.3980 C   0  0  0  0  0  0  0  0  0  0  0  0
   55.5190   27.4400   45.6270 O   0  0  0  0  0  0  0  0  0  0  0  0
   56.6310   29.5790   45.5910 C   0  0  0  0  0  0  0  0  0  0  0  0
   55.6924   30.0589   45.9052 H   0  0  0  0  0  0  0  0  0  0  0  0
   61.1940   33.7560   46.0130 C   0  0  0  0  0  0  0  0  0  0  0  0
   61.3979   33.5142   44.9595 H   0  0  0  0  0  0  0  0  0  0  0  0
   62.2490   33.8250   46.9280 C   0  0  0  0  0  0  0  0  0  0  0  0
   63.2807   33.6508   46.5884 H   0  0  0  0  0  0  0  0  0  0  0  0
   62.8020   32.0900   50.0600 N   0  0  0  0  0  0  0  0  0  0  0  0
   63.2450   31.0490   50.8140 C   0  0  0  0  0  0  0  0  0  0  0  0
   62.5240   29.8530   50.7870 O   0  0  0  0  0  0  0  0  0  0  0  0
   61.2300   29.7290   50.2530 C   0  0  0  0  0  0  0  0  0  0  0  0
   60.9890   29.6430   48.8660 C   0  0  0  0  0  0  0  0  0  0  0  0
   61.8313   29.6753   48.1592 H   0  0  0  0  0  0  0  0  0  0  0  0
   59.6840   29.5170   48.3890 C   0  0  0  0  0  0  0  0  0  0  0  0
   59.5007   29.4434   47.3069 H   0  0  0  0  0  0  0  0  0  0  0  0
   58.6090   29.4840   49.2810 C   0  0  0  0  0  0  0  0  0  0  0  0
   57.5838   29.3741   48.8978 H   0  0  0  0  0  0  0  0  0  0  0  0
   58.8290   29.5900   50.6600 C   0  0  0  0  0  0  0  0  0  0  0  0
   57.7000   29.6010   51.5430 N   0  0  0  0  0  0  0  0  0  0  0  0
   56.8670   30.7430   51.7560 C   0  0  0  0  0  0  0  0  0  0  0  0
   55.6140   30.6140   51.7370 O   0  0  0  0  0  0  0  0  0  0  0  0
   57.5020   32.0690   52.0770 C   0  0  1  0  0  0  0  0  0  0  0  0
   56.6792   32.7636   52.3020 H   0  0  0  0  0  0  0  0  0  0  0  0
   58.3670   31.9360   53.1820 O   0  0  0  0  0  0  0  0  0  0  0  0
   59.4360   32.8350   52.9790 C   0  0  0  0  0  0  0  0  0  0  0  0
   60.3881   32.2852   53.0136 H   0  0  0  0  0  0  0  0  0  0  0  0
   59.4238   33.6009   53.7685 H   0  0  0  0  0  0  0  0  0  0  0  0
   59.2880   33.5080   51.6190 C   0  0  0  0  0  0  0  0  0  0  0  0
   60.2485   33.5310   51.0833 H   0  0  0  0  0  0  0  0  0  0  0  0
   58.9644   34.5570   51.6889 H   0  0  0  0  0  0  0  0  0  0  0  0
   58.2990   32.6330   50.9120 C   0  0  0  0  0  0  0  0  0  0  0  0
   58.8018   31.8350   50.3460 H   0  0  0  0  0  0  0  0  0  0  0  0
   57.6875   33.1613   50.1656 H   0  0  0  0  0  0  0  0  0  0  0  0
   60.1440   29.7090   51.1380 C   0  0  0  0  0  0  0  0  0  0  0  0
   60.3237   29.7875   52.2204 H   0  0  0  0  0  0  0  0  0  0  0  0
   64.4190   31.1900   51.5830 C   0  0  0  0  0  0  0  0  0  0  0  0
   64.9800   30.0570   52.4120 C   0  0  0  0  0  0  0  0  0  0  0  0
   65.8710   30.5720   53.3360 F   0  0  0  0  0  0  0  0  0  0  0  0
   65.6360   29.1410   51.6080 F   0  0  0  0  0  0  0  0  0  0  0  0
   63.9660   29.3980   53.0850 F   0  0  0  0  0  0  0  0  0  0  0  0
  1  2  1  0
  2  3  2  0
  3  4  1  0
  4  5  2  0
  5  6  1  0
  6  7  2  0
  7  8  1  0
  7  9  1  0
  9 10  1  0
  9 11  2  0
 11 12  1  0
 12 13  1  0
 13 14  2  0
 13 15  1  0
 15 16  1  0
 15 17  1  0
 17 18  2  0
 18 19  1  0
 18 20  1  0
 20 21  1  0
 20 22  2  0
 22 23  1  0
 23 24  3  0
 22 25  1  0
 25 26  1  0
 25 27  2  0
 27 28  1  0
 11 29  1  0
 29 30  1  0
 29 31  2  0
 31 32  1  0
  4 33  1  0
 33 34  1  0
 34 35  1  0
 35 36  1  0
 36 37  2  0
 37 38  1  0
 37 39  1  0
 39 40  1  0
 39 41  2  0
 41 42  1  0
 41 43  1  0
 43 44  1  0
 44 45  1  0
 45 46  2  0
 45 47  1  0
 47 48  1  1
 47 49  1  0
 49 50  1  0
 50 51  1  0
 50 52  1  0
 50 53  1  0
 53 54  1  0
 53 55  1  0
 53 56  1  0
 56 57  1  0
 56 58  1  0
 43 59  2  0
 59 60  1  0
 34 61  2  0
 61 62  1  0
 62 63  1  0
 62 64  1  0
 62 65  1  0
 61  2  1  0
 31  6  1  0
 59 36  1  0
 27 17  1  0
 56 47  1  0
M  CHG  4  12  -1  26  -1  33  -1  44  -1
M  END
>  <UniqueID>  (58) 
54

>  <SMILES>  (58) 
N#Cc1ccc(NC(=O)[N-]c2ccc(/N=c3/ncc(C(F)(F)F)c(Oc4cccc([N-]C(=O)[C@@H]5CCCO5)c4)[n-]3)cc2)cc1[O-]

>  <Energy>  (58) 
106.16728819857268

>  <Genealogy>  (58) 
N#Cc1ccc(NC(=O)[N-]c2ccc(N=c3ncc(C(F)(F)F)c(Oc4cccc([N-]C(=O)C5CCCO5)c4)[n-]3)cc2)cc1[O-] (protonated)
N#Cc1ccc(NC(=O)[N-]c2ccc(N=c3ncc(C(F)(F)F)c(Oc4cccc([N-]C(=O)[C@@H]5CCCO5)c4)[n-]3)cc2)cc1[O-] (chirality)
N#Cc1ccc(NC(=O)[N-]c2ccc(/N=c3/ncc(C(F)(F)F)c(Oc4cccc([N-]C(=O)[C@@H]5CCCO5)c4)[n-]3)cc2)cc1[O-] (cis-trans isomerization)
N#Cc1ccc(NC(=O)[N-]c2ccc(/N=c3/ncc(C(F)(F)F)c(Oc4cccc([N-]C(=O)[C@@H]5CCCO5)c4)[n-]3)cc2)cc1[O-] (3D coordinates assigned)
N#Cc1ccc(NC(=O)[N-]c2ccc(/N=c3/ncc(C(F)(F)F)c(Oc4cccc([N-]C(=O)[C@@H]5CCCO5)c4)[n-]3)cc2)cc1[O-] (nonaromatic ring conformer: 106.16728819857268 kcal/mol)

>  <smiles>  (58) 
N#Cc1ccc(NC(=O)Nc2ccc(N=c3ncc(C(F)(F)F)c(Oc4cccc(NC(=O)C5CCCO5)c4)[nH]3)cc2)cc1O

>  <score_type>  (58) 
oracle

>  <origin>  (58) 
adg

>  <m_score__min__energy>  (58) 
-15.26

>  <m_primary>  (58) 
energy

$$$$
58:0
     RDKit          3D

 52 53  0  0  0  0  0  0  0  0999 V2000
   64.8150   33.0620   49.9770 C   0  0  0  0  0  0  0  0  0  0  0  0
   63.7880   33.6540   49.1910 O   0  0  0  0  0  0  0  0  0  0  0  0
   63.5950   33.3330   47.8460 C   0  0  0  0  0  0  0  0  0  0  0  0
   63.7290   34.2100   46.9470 O   0  0  0  0  0  0  0  0  0  0  0  0
   63.1980   31.9400   47.4710 C   0  0  0  0  0  0  0  0  0  0  0  0
   61.8040   31.7600   47.6240 O   0  0  0  0  0  0  0  0  0  0  0  0
   61.5160   30.8620   48.6810 C   0  0  0  0  0  0  0  0  0  0  0  0
   60.5830   31.5090   49.7350 C   0  0  0  0  0  0  0  0  0  0  0  0
   60.8530   32.9560   49.9250 N   0  0  2  0  0  0  0  0  0  0  0  0
   61.2020   33.2720   51.3240 C   0  0  0  0  0  0  0  0  0  0  0  0
   59.7480   33.8110   49.4150 C   0  0  0  0  0  0  0  0  0  0  0  0
   59.6540   33.9310   47.8770 C   0  0  0  0  0  0  0  0  0  0  0  0
   58.4740   33.3210   47.3530 O   0  0  0  0  0  0  0  0  0  0  0  0
   58.4290   32.1220   46.6230 C   0  0  0  0  0  0  0  0  0  0  0  0
   58.0880   32.0700   45.2570 C   0  0  0  0  0  0  0  0  0  0  0  0
   58.0580   30.8460   44.5850 C   0  0  0  0  0  0  0  0  0  0  0  0
   58.3570   29.6550   45.2630 C   0  0  0  0  0  0  0  0  0  0  0  0
   58.3540   28.3390   44.5310 C   0  0  0  0  0  0  0  0  0  0  0  0
   57.6200   27.2870   45.3310 C   0  0  0  0  0  0  0  0  0  0  0  0
   56.2530   27.4270   45.6210 C   0  0  0  0  0  0  0  0  0  0  0  0
   55.5490   28.5490   45.2050 O   0  0  0  0  0  0  0  0  0  0  0  0
   55.6060   26.4600   46.3210 N   0  0  0  0  0  0  0  0  0  0  0  0
   56.2540   25.3470   46.7470 C   0  0  0  0  0  0  0  0  0  0  0  0
   55.6330   24.4660   47.3940 O   0  0  0  0  0  0  0  0  0  0  0  0
   57.5710   25.1830   46.4740 N   0  0  0  0  0  0  0  0  0  0  0  0
   58.2670   26.1200   45.7800 C   0  0  0  0  0  0  0  0  0  0  0  0
   59.4890   25.9310   45.5510 O   0  0  0  0  0  0  0  0  0  0  0  0
   58.6990   29.7090   46.6230 C   0  0  0  0  0  0  0  0  0  0  0  0
   58.7290   30.9330   47.2950 C   0  0  0  0  0  0  0  0  0  0  0  0
   64.5832   33.1956   51.0440 H   0  0  0  0  0  0  0  0  0  0  0  0
   64.8795   31.9882   49.7475 H   0  0  0  0  0  0  0  0  0  0  0  0
   65.7766   33.5444   49.7475 H   0  0  0  0  0  0  0  0  0  0  0  0
   63.4730   31.7561   46.4219 H   0  0  0  0  0  0  0  0  0  0  0  0
   63.7208   31.2329   48.1318 H   0  0  0  0  0  0  0  0  0  0  0  0
   61.0241   29.9691   48.2678 H   0  0  0  0  0  0  0  0  0  0  0  0
   62.4618   30.5939   49.1745 H   0  0  0  0  0  0  0  0  0  0  0  0
   59.5407   31.3854   49.4060 H   0  0  0  0  0  0  0  0  0  0  0  0
   60.7675   31.0068   50.6961 H   0  0  0  0  0  0  0  0  0  0  0  0
   61.6850   33.2070   49.3430 H   0  0  0  0  0  0  0  0  0  0  0  0
   60.5601   32.6908   52.0023 H   0  0  0  0  0  0  0  0  0  0  0  0
   62.2558   33.0146   51.5061 H   0  0  0  0  0  0  0  0  0  0  0  0
   61.0502   34.3461   51.5061 H   0  0  0  0  0  0  0  0  0  0  0  0
   58.7990   33.3919   49.7807 H   0  0  0  0  0  0  0  0  0  0  0  0
   59.9567   34.8258   49.7845 H   0  0  0  0  0  0  0  0  0  0  0  0
   59.6505   34.9970   47.6057 H   0  0  0  0  0  0  0  0  0  0  0  0
   60.5206   33.4076   47.4469 H   0  0  0  0  0  0  0  0  0  0  0  0
   57.8444   32.9972   44.7176 H   0  0  0  0  0  0  0  0  0  0  0  0
   57.7981   30.8158   43.5166 H   0  0  0  0  0  0  0  0  0  0  0  0
   57.8554   28.4672   43.5589 H   0  0  0  0  0  0  0  0  0  0  0  0
   59.3941   28.0120   44.3850 H   0  0  0  0  0  0  0  0  0  0  0  0
   58.9447   28.7825   47.1626 H   0  0  0  0  0  0  0  0  0  0  0  0
   58.9911   30.9620   48.3629 H   0  0  0  0  0  0  0  0  0  0  0  0
  1  2  1  0
  2  3  1  0
  3  4  2  0
  3  5  1  0
  5  6  1  0
  6  7  1  0
  7  8  1  0
  8  9  1  0
  9 10  1  0
  9 11  1  0
 11 12  1  0
 12 13  1  0
 13 14  1  0
 14 15  2  0
 15 16  1  0
 16 17  2  0
 17 18  1  0
 18 19  1  0
 19 20  2  0
 20 21  1  0
 20 22  1  0
 22 23  1  0
 23 24  2  0
 23 25  1  0
 25 26  1  0
 26 27  2  0
 17 28  1  0
 28 29  2  0
 29 14  1  0
 26 19  1  0
  1 30  1  0
  1 31  1  0
  1 32  1  0
  5 33  1  0
  5 34  1  0
  7 35  1  0
  7 36  1  0
  8 37  1  0
  8 38  1  0
  9 39  1  6
 10 40  1  0
 10 41  1  0
 10 42  1  0
 11 43  1  0
 11 44  1  0
 12 45  1  0
 12 46  1  0
 15 47  1  0
 16 48  1  0
 18 49  1  0
 18 50  1  0
 28 51  1  0
 29 52  1  0
M  CHG  4   9   1  21  -1  22  -1  25  -1
M  END
>  <UniqueID>  (59) 
55

>  <SMILES>  (59) 
COC(=O)COCC[N@H+](C)CCOc1ccc(Cc2c([O-])[n-]c(=O)[n-]c2=O)cc1

>  <Energy>  (59) 
59.39598632059558

>  <Genealogy>  (59) 
COC(=O)COCC[NH+](C)CCOc1ccc(Cc2c([O-])[n-]c(=O)[n-]c2=O)cc1 (protonated)
COC(=O)COCC[N@H+](C)CCOc1ccc(Cc2c([O-])[n-]c(=O)[n-]c2=O)cc1 (chirality)
COC(=O)COCC[N@H+](C)CCOc1ccc(Cc2c([O-])[n-]c(=O)[n-]c2=O)cc1 (3D coordinates assigned)
COC(=O)COCC[N@H+](C)CCOc1ccc(Cc2c([O-])[n-]c(=O)[n-]c2=O)cc1 (optimized conformer: 59.39598632059558 kcal/mol)

>  <smiles>  (59) 
COC(=O)COCCN(C)CCOc1ccc(Cc2c(O)[nH]c(=O)[nH]c2=O)cc1

>  <score_type>  (59) 
oracle

>  <origin>  (59) 
adg

>  <m_score__min__energy>  (59) 
-13.33

>  <m_primary>  (59) 
energy

$$$$
59:0
     RDKit          3D

 51 53  0  0  0  0  0  0  0  0999 V2000
   57.9060   31.9750   42.5920 C   0  0  0  0  0  0  0  0  0  0  0  0
   57.4030   32.5830   43.7770 O   0  0  0  0  0  0  0  0  0  0  0  0
   58.1660   32.8290   44.9280 C   0  0  0  0  0  0  0  0  0  0  0  0
   58.8230   34.0570   45.0380 C   0  0  0  0  0  0  0  0  0  0  0  0
   59.5920   34.3530   46.1640 C   0  0  0  0  0  0  0  0  0  0  0  0
   59.7220   33.4190   47.2090 C   0  0  0  0  0  0  0  0  0  0  0  0
   60.4880   33.6960   48.3540 O   0  0  0  0  0  0  0  0  0  0  0  0
   59.9640   34.2090   49.5740 C   0  0  0  0  0  0  0  0  0  0  0  0
   59.0660   32.1740   47.1040 C   0  0  0  0  0  0  0  0  0  0  0  0
   59.1500   31.1420   48.2030 C   0  0  0  0  0  0  0  0  0  0  0  0
   58.6710   29.8490   47.7210 N   0  0  0  0  0  0  0  0  0  0  0  0
   59.5300   28.9120   47.0480 C   0  0  0  0  0  0  0  0  0  0  0  0
   60.7590   29.1680   46.9290 O   0  0  0  0  0  0  0  0  0  0  0  0
   59.0000   27.6380   46.5060 C   0  0  0  0  0  0  0  0  0  0  0  0
   59.0000   26.4810   47.3070 C   0  0  0  0  0  0  0  0  0  0  0  0
   58.5090   25.2720   46.8080 C   0  0  0  0  0  0  0  0  0  0  0  0
   58.0270   25.1920   45.4950 C   0  0  0  0  0  0  0  0  0  0  0  0
   57.5040   23.9160   44.9660 C   0  0  0  0  0  0  0  0  0  0  0  0
   58.3910   23.0630   44.2900 C   0  0  0  0  0  0  0  0  0  0  0  0
   57.9410   21.8580   43.7480 C   0  0  0  0  0  0  0  0  0  0  0  0
   56.6030   21.4900   43.8780 C   0  0  0  0  0  0  0  0  0  0  0  0
   55.7110   22.3210   44.5610 C   0  0  0  0  0  0  0  0  0  0  0  0
   56.1480   23.5340   45.1200 C   0  0  0  0  0  0  0  0  0  0  0  0
   54.9900   24.5200   46.0270 S   0  0  0  0  0  0  0  0  0  0  0  0
   55.4690   26.1820   45.9960 N   0  0  0  0  0  0  0  0  0  0  0  0
   53.6210   24.3750   45.4250 O   0  0  0  0  0  0  0  0  0  0  0  0
   54.9430   24.0690   47.4600 O   0  0  0  0  0  0  0  0  0  0  0  0
   58.0200   26.3420   44.6930 C   0  0  0  0  0  0  0  0  0  0  0  0
   58.5090   27.5520   45.1900 C   0  0  0  0  0  0  0  0  0  0  0  0
   58.2910   31.8890   45.9670 C   0  0  0  0  0  0  0  0  0  0  0  0
   58.5858   31.1533   42.8616 H   0  0  0  0  0  0  0  0  0  0  0  0
   57.0684   31.5785   41.9994 H   0  0  0  0  0  0  0  0  0  0  0  0
   58.4524   32.7235   41.9994 H   0  0  0  0  0  0  0  0  0  0  0  0
   58.7332   34.7974   44.2294 H   0  0  0  0  0  0  0  0  0  0  0  0
   60.1014   35.3253   46.2357 H   0  0  0  0  0  0  0  0  0  0  0  0
   60.4642   33.7193   50.4225 H   0  0  0  0  0  0  0  0  0  0  0  0
   60.1398   35.2938   49.6211 H   0  0  0  0  0  0  0  0  0  0  0  0
   58.8831   34.0103   49.6211 H   0  0  0  0  0  0  0  0  0  0  0  0
   60.1959   31.0431   48.5289 H   0  0  0  0  0  0  0  0  0  0  0  0
   58.5218   31.4649   49.0463 H   0  0  0  0  0  0  0  0  0  0  0  0
   57.6850   29.5870   47.9420 H   0  0  0  0  0  0  0  0  0  0  0  0
   59.3898   26.5289   48.3345 H   0  0  0  0  0  0  0  0  0  0  0  0
   58.5008   24.3783   47.4493 H   0  0  0  0  0  0  0  0  0  0  0  0
   59.4488   23.3466   44.1867 H   0  0  0  0  0  0  0  0  0  0  0  0
   58.6432   21.1980   43.2176 H   0  0  0  0  0  0  0  0  0  0  0  0
   56.2487   20.5441   43.4424 H   0  0  0  0  0  0  0  0  0  0  0  0
   54.6570   22.0229   44.6620 H   0  0  0  0  0  0  0  0  0  0  0  0
   54.8100   26.6780   45.3550 H   0  0  0  0  0  0  0  0  0  0  0  0
   57.6272   26.2909   43.6668 H   0  0  0  0  0  0  0  0  0  0  0  0
   58.5104   28.4450   44.5477 H   0  0  0  0  0  0  0  0  0  0  0  0
   57.7763   30.9200   45.8886 H   0  0  0  0  0  0  0  0  0  0  0  0
  1  2  1  0
  2  3  1  0
  3  4  2  0
  4  5  1  0
  5  6  2  0
  6  7  1  0
  7  8  1  0
  6  9  1  0
  9 10  1  0
 10 11  1  0
 11 12  1  0
 12 13  2  0
 12 14  1  0
 14 15  2  0
 15 16  1  0
 16 17  2  0
 17 18  1  0
 18 19  2  0
 19 20  1  0
 20 21  2  0
 21 22  1  0
 22 23  2  0
 23 24  1  0
 24 25  1  0
 24 26  2  0
 24 27  2  0
 17 28  1  0
 28 29  2  0
  9 30  2  0
 30  3  1  0
 29 14  1  0
 23 18  1  0
  1 31  1  0
  1 32  1  0
  1 33  1  0
  4 34  1  0
  5 35  1  0
  8 36  1  0
  8 37  1  0
  8 38  1  0
 10 39  1  0
 10 40  1  0
 11 41  1  0
 15 42  1  0
 16 43  1  0
 19 44  1  0
 20 45  1  0
 21 46  1  0
 22 47  1  0
 25 48  1  0
 28 49  1  0
 29 50  1  0
 30 51  1  0
M  CHG  1  25  -1
M  END
>  <UniqueID>  (60) 
56

>  <SMILES>  (60) 
COc1ccc(OC)c(CNC(=O)c2ccc(-c3ccccc3S([NH-])(=O)=O)cc2)c1

>  <Energy>  (60) 
61.34707494681403

>  <Genealogy>  (60) 
COc1ccc(OC)c(CNC(=O)c2ccc(-c3ccccc3S([NH-])(=O)=O)cc2)c1 (protonated)
COc1ccc(OC)c(CNC(=O)c2ccc(-c3ccccc3S([NH-])(=O)=O)cc2)c1 (3D coordinates assigned)
COc1ccc(OC)c(CNC(=O)c2ccc(-c3ccccc3S([NH-])(=O)=O)cc2)c1 (optimized conformer: 61.34707494681403 kcal/mol)

>  <smiles>  (60) 
COc1ccc(OC)c(CNC(=O)c2ccc(-c3ccccc3S(N)(=O)=O)cc2)c1

>  <score_type>  (60) 
oracle

>  <origin>  (60) 
adg

>  <m_score__min__energy>  (60) 
-10.76

>  <m_primary>  (60) 
energy

$$$$
60:0
     RDKit          3D

 33 34  0  0  0  0  0  0  0  0999 V2000
   51.2560   23.2430   45.0890 C   0  0  0  0  0  0  0  0  0  0  0  0
   52.6080   22.7980   45.0810 O   0  0  0  0  0  0  0  0  0  0  0  0
   53.7180   23.6320   45.2900 C   0  0  0  0  0  0  0  0  0  0  0  0
   53.5880   24.9920   45.6230 C   0  0  0  0  0  0  0  0  0  0  0  0
   54.6950   25.7570   45.8150 N   0  0  0  0  0  0  0  0  0  0  0  0
   55.9560   25.2580   45.6970 C   0  0  0  0  0  0  0  0  0  0  0  0
   57.1190   26.1430   45.9210 C   0  0  0  0  0  0  0  0  0  0  0  0
   58.0620   25.7590   46.6670 O   0  0  0  0  0  0  0  0  0  0  0  0
   57.1950   27.4240   45.2720 N   0  0  0  0  0  0  0  0  0  0  0  0
   58.2010   28.4040   45.5850 C   0  0  0  0  0  0  0  0  0  0  0  0
   59.3810   28.0110   46.2410 C   0  0  0  0  0  0  0  0  0  0  0  0
   60.3510   28.9550   46.5830 C   0  0  0  0  0  0  0  0  0  0  0  0
   60.1500   30.3020   46.2860 C   0  0  0  0  0  0  0  0  0  0  0  0
   58.9800   30.7100   45.6430 C   0  0  0  0  0  0  0  0  0  0  0  0
   57.9960   29.7720   45.2880 C   0  0  0  0  0  0  0  0  0  0  0  0
   56.5380   30.3200   44.4480 S   0  0  0  0  0  0  0  0  0  0  0  0
   55.1800   29.3340   44.8640 N   0  0  0  0  0  0  0  0  0  0  0  0
   56.2340   31.7360   44.8460 O   0  0  0  0  0  0  0  0  0  0  0  0
   56.7580   30.2510   42.9630 O   0  0  0  0  0  0  0  0  0  0  0  0
   56.1270   23.9040   45.3670 C   0  0  0  0  0  0  0  0  0  0  0  0
   55.0060   23.0950   45.1640 C   0  0  0  0  0  0  0  0  0  0  0  0
   55.1580   21.8800   44.8660 O   0  0  0  0  0  0  0  0  0  0  0  0
   50.9133   23.3558   46.1281 H   0  0  0  0  0  0  0  0  0  0  0  0
   51.1857   24.2117   44.5725 H   0  0  0  0  0  0  0  0  0  0  0  0
   50.6242   22.5054   44.5725 H   0  0  0  0  0  0  0  0  0  0  0  0
   52.5880   25.4379   45.7284 H   0  0  0  0  0  0  0  0  0  0  0  0
   56.5240   27.6350   44.5020 H   0  0  0  0  0  0  0  0  0  0  0  0
   59.5412   26.9508   46.4868 H   0  0  0  0  0  0  0  0  0  0  0  0
   61.2749   28.6355   47.0874 H   0  0  0  0  0  0  0  0  0  0  0  0
   60.9144   31.0445   46.5587 H   0  0  0  0  0  0  0  0  0  0  0  0
   58.8272   31.7746   45.4124 H   0  0  0  0  0  0  0  0  0  0  0  0
   54.9330   29.5510   45.8560 H   0  0  0  0  0  0  0  0  0  0  0  0
   57.1382   23.4823   45.2688 H   0  0  0  0  0  0  0  0  0  0  0  0
  1  2  1  0
  2  3  1  0
  3  4  2  0
  4  5  1  0
  5  6  1  0
  6  7  1  0
  7  8  2  0
  7  9  1  0
  9 10  1  0
 10 11  2  0
 11 12  1  0
 12 13  2  0
 13 14  1  0
 14 15  2  0
 15 16  1  0
 16 17  1  0
 16 18  2  0
 16 19  2  0
  6 20  2  0
 20 21  1  0
 21 22  2  0
 21  3  1  0
 15 10  1  0
  1 23  1  0
  1 24  1  0
  1 25  1  0
  4 26  1  0
  9 27  1  0
 11 28  1  0
 12 29  1  0
 13 30  1  0
 14 31  1  0
 17 32  1  0
 20 33  1  0
M  CHG  2   5  -1  17  -1
M  END
>  <UniqueID>  (61) 
57

>  <SMILES>  (61) 
COc1c[n-]c(C(=O)Nc2ccccc2S([NH-])(=O)=O)cc1=O

>  <Energy>  (61) 
39.79783772646356

>  <Genealogy>  (61) 
COc1c[n-]c(C(=O)Nc2ccccc2S([NH-])(=O)=O)cc1=O (protonated)
COc1c[n-]c(C(=O)Nc2ccccc2S([NH-])(=O)=O)cc1=O (3D coordinates assigned)
COc1c[n-]c(C(=O)Nc2ccccc2S([NH-])(=O)=O)cc1=O (optimized conformer: 39.79783772646356 kcal/mol)

>  <smiles>  (61) 
COc1c[nH]c(C(=O)Nc2ccccc2S(N)(=O)=O)cc1=O

>  <score_type>  (61) 
oracle

>  <origin>  (61) 
adg

>  <m_score__min__energy>  (61) 
-12.869999999999999

>  <m_primary>  (61) 
energy

$$$$
61:0
     RDKit          3D

 30 31  0  0  0  0  0  0  0  0999 V2000
   63.3719   34.2418   49.3712 H   0  0  0  0  0  0  0  0  0  0  0  0
   62.7700   33.9920   48.4850 C   0  0  0  0  0  0  0  0  0  0  0  0
   63.4800   33.6500   47.2340 C   0  0  0  0  0  0  0  0  0  0  0  0
   63.4990   34.4980   46.3040 O   0  0  0  0  0  0  0  0  0  0  0  0
   64.1230   32.3870   47.0340 N   0  0  0  0  0  0  0  0  0  0  0  0
   64.0050   31.5890   47.6950 H   0  0  0  0  0  0  0  0  0  0  0  0
   64.6620   32.2150   46.1570 H   0  0  0  0  0  0  0  0  0  0  0  0
   61.4360   34.0150   48.6010 C   0  0  0  0  0  0  0  0  0  0  0  0
   60.9870   34.6415   49.3858 H   0  0  0  0  0  0  0  0  0  0  0  0
   60.5390   33.2340   47.7190 C   0  0  0  0  0  0  0  0  0  0  0  0
   59.5200   33.9110   47.0330 C   0  0  0  0  0  0  0  0  0  0  0  0
   59.4047   34.9969   47.1655 H   0  0  0  0  0  0  0  0  0  0  0  0
   58.6490   33.2230   46.1830 C   0  0  0  0  0  0  0  0  0  0  0  0
   57.6910   33.9200   45.5220 F   0  0  0  0  0  0  0  0  0  0  0  0
   58.7920   31.8360   45.9930 C   0  0  0  0  0  0  0  0  0  0  0  0
   57.8740   31.0890   45.0990 C   0  0  0  0  0  0  0  0  0  0  0  0
   57.7210   31.4680   43.7530 C   0  0  0  0  0  0  0  0  0  0  0  0
   58.2907   32.3215   43.3570 H   0  0  0  0  0  0  0  0  0  0  0  0
   56.8490   30.7660   42.9160 C   0  0  0  0  0  0  0  0  0  0  0  0
   56.7369   31.0674   41.8641 H   0  0  0  0  0  0  0  0  0  0  0  0
   56.1190   29.6820   43.4120 C   0  0  0  0  0  0  0  0  0  0  0  0
   55.4347   29.1299   42.7510 H   0  0  0  0  0  0  0  0  0  0  0  0
   56.2600   29.3010   44.7490 C   0  0  0  0  0  0  0  0  0  0  0  0
   55.5330   28.2230   45.2420 O   0  0  0  0  0  0  0  0  0  0  0  0
   57.1310   30.0010   45.5910 C   0  0  0  0  0  0  0  0  0  0  0  0
   57.2352   29.6987   46.6435 H   0  0  0  0  0  0  0  0  0  0  0  0
   59.8330   31.1620   46.6530 C   0  0  0  0  0  0  0  0  0  0  0  0
   59.9646   30.0808   46.4987 H   0  0  0  0  0  0  0  0  0  0  0  0
   60.7040   31.8500   47.5040 C   0  0  0  0  0  0  0  0  0  0  0  0
   61.7300   31.1680   48.0710 F   0  0  0  0  0  0  0  0  0  0  0  0
  1  2  1  0
  2  3  1  0
  3  4  2  0
  3  5  1  0
  5  6  1  0
  5  7  1  0
  2  8  2  0
  8  9  1  0
  8 10  1  0
 10 11  2  0
 11 12  1  0
 11 13  1  0
 13 14  1  0
 13 15  2  0
 15 16  1  0
 16 17  2  0
 17 18  1  0
 17 19  1  0
 19 20  1  0
 19 21  2  0
 21 22  1  0
 21 23  1  0
 23 24  1  0
 23 25  2  0
 25 26  1  0
 15 27  1  0
 27 28  1  0
 27 29  2  0
 29 30  1  0
 29 10  1  0
 25 16  1  0
M  CHG  1  24  -1
M  END
>  <UniqueID>  (62) 
58

>  <SMILES>  (62) 
NC(=O)/C=C/c1cc(F)c(-c2cccc([O-])c2)cc1F

>  <Energy>  (62) 
40.785245571350096

>  <Genealogy>  (62) 
NC(=O)C=Cc1cc(F)c(-c2cccc([O-])c2)cc1F (protonated)
NC(=O)/C=C/c1cc(F)c(-c2cccc([O-])c2)cc1F (cis-trans isomerization)
NC(=O)/C=C/c1cc(F)c(-c2cccc([O-])c2)cc1F (3D coordinates assigned)
NC(=O)/C=C/c1cc(F)c(-c2cccc([O-])c2)cc1F (optimized conformer: 40.785245571350096 kcal/mol)

>  <smiles>  (62) 
NC(=O)C=Cc1cc(F)c(-c2cccc(O)c2)cc1F

>  <score_type>  (62) 
oracle

>  <origin>  (62) 
adg

>  <m_score__min__energy>  (62) 
-10.529999999999999

>  <m_primary>  (62) 
energy

$$$$
62:0
     RDKit          3D

 39 41  0  0  1  0  0  0  0  0999 V2000
   63.7370   32.7170   47.6840 C   0  0  0  0  0  0  0  0  0  0  0  0
   62.8370   33.2430   48.7700 C   0  0  0  0  0  0  0  0  0  0  0  0
   61.6070   33.8650   48.2270 C   0  0  0  0  0  0  0  0  0  0  0  0
   60.6630   34.5240   48.5630 N   0  0  0  0  0  0  0  0  0  0  0  0
   59.6780   34.9640   47.8870 N   0  0  0  0  0  0  0  0  0  0  0  0
   59.6330   34.6790   46.5970 C   0  0  0  0  0  0  0  0  0  0  0  0
   58.8700   34.9150   45.6380 N   0  0  0  0  0  0  0  0  0  0  0  0
   57.6350   34.2050   45.4120 C   0  0  0  0  0  0  0  0  0  0  0  0
   56.6330   34.7830   44.8940 O   0  0  0  0  0  0  0  0  0  0  0  0
   57.5680   32.7700   45.8040 C   0  0  0  0  0  0  0  0  0  0  0  0
   57.4600   31.8440   44.6160 C   0  0  0  0  0  0  0  0  0  0  0  0
   57.6880   30.4670   45.0040 N   0  0  0  0  0  0  0  0  0  0  0  0
   56.6490   29.6130   44.8400 C   0  0  0  0  0  0  0  0  0  0  0  0
   55.5380   30.0170   44.3680 O   0  0  0  0  0  0  0  0  0  0  0  0
   56.7260   28.3090   45.1610 N   0  0  0  0  0  0  0  0  0  0  0  0
   57.8950   27.8730   45.6610 C   0  0  0  0  0  0  0  0  0  0  0  0
   57.9920   26.5230   45.9980 C   0  0  0  0  0  0  0  0  0  0  0  0
   59.1660   26.0370   46.5110 C   0  0  0  0  0  0  0  0  0  0  0  0
   60.2610   26.8780   46.6970 C   0  0  0  0  0  0  0  0  0  0  0  0
   60.1630   28.2260   46.3590 C   0  0  0  0  0  0  0  0  0  0  0  0
   58.9850   28.7050   45.8470 C   0  0  0  0  0  0  0  0  0  0  0  0
   58.8660   30.0390   45.5060 C   0  0  0  0  0  0  0  0  0  0  0  0
   59.8100   30.8640   45.6430 O   0  0  0  0  0  0  0  0  0  0  0  0
   61.2080   33.6630   46.3790 S   0  0  0  0  0  0  0  0  0  0  0  0
   64.6022   32.2114   48.1377 H   0  0  0  0  0  0  0  0  0  0  0  0
   63.1800   32.0022   47.0604 H   0  0  0  0  0  0  0  0  0  0  0  0
   64.0864   33.5531   47.0604 H   0  0  0  0  0  0  0  0  0  0  0  0
   62.5512   32.4089   49.4278 H   0  0  0  0  0  0  0  0  0  0  0  0
   63.3910   34.0170   49.3214 H   0  0  0  0  0  0  0  0  0  0  0  0
   58.8910   35.5540   48.3350 H   0  0  0  0  0  0  0  0  0  0  0  0
   58.4789   32.5161   46.3660 H   0  0  0  0  0  0  0  0  0  0  0  0
   56.6621   32.6347   46.4132 H   0  0  0  0  0  0  0  0  0  0  0  0
   56.4531   31.9327   44.1820 H   0  0  0  0  0  0  0  0  0  0  0  0
   58.2256   32.1303   43.8799 H   0  0  0  0  0  0  0  0  0  0  0  0
   55.8920   27.6660   45.0200 H   0  0  0  0  0  0  0  0  0  0  0  0
   57.1318   25.8529   45.8529 H   0  0  0  0  0  0  0  0  0  0  0  0
   59.2446   24.9729   46.7785 H   0  0  0  0  0  0  0  0  0  0  0  0
   61.1996   26.4791   47.1092 H   0  0  0  0  0  0  0  0  0  0  0  0
   61.0216   28.8987   46.5014 H   0  0  0  0  0  0  0  0  0  0  0  0
  1  2  1  0
  2  3  1  0
  3  4  2  0
  4  5  1  0
  5  6  1  0
  6  7  2  0
  7  8  1  0
  8  9  2  0
  8 10  1  0
 10 11  1  0
 11 12  1  0
 12 13  1  0
 13 14  2  0
 13 15  1  0
 15 16  1  0
 16 17  2  0
 17 18  1  0
 18 19  2  0
 19 20  1  0
 20 21  2  0
 21 22  1  0
 22 23  2  0
  6 24  1  0
 24  3  1  0
 22 12  1  0
 21 16  1  0
  1 25  1  0
  1 26  1  0
  1 27  1  0
  2 28  1  0
  2 29  1  0
  5 30  1  0
 10 31  1  0
 10 32  1  0
 11 33  1  0
 11 34  1  0
 15 35  1  0
 17 36  1  0
 18 37  1  0
 19 38  1  0
 20 39  1  0
M  END
>  <smiles>  (63) 
CCc1n[nH]c(=NC(=O)CCn2c(=O)[nH]c3ccccc3c2=O)s1

>  <score_type>  (63) 
oracle

>  <origin>  (63) 
adg

>  <m_score__min__energy>  (63) 
-8.2400000000000002

>  <m_primary>  (63) 
energy

$$$$
63:0
     RDKit          3D

 44 45  0  0  0  0  0  0  0  0999 V2000
   63.8880   32.9860   46.8390 N   0  0  0  0  0  0  0  0  0  0  0  0
   62.6550   33.4860   47.3560 C   0  0  0  0  0  0  0  0  0  0  0  0
   62.2640   33.1370   48.6900 N   0  0  0  0  0  0  0  0  0  0  0  0
   61.9210   34.2500   46.6000 N   0  0  0  0  0  0  0  0  0  0  0  0
   60.2680   34.6860   46.9000 S   0  0  0  0  0  0  0  0  0  0  0  0
   60.0120   34.6500   48.3790 O   0  0  0  0  0  0  0  0  0  0  0  0
   60.0290   36.0840   46.3980 O   0  0  0  0  0  0  0  0  0  0  0  0
   59.1880   33.5430   46.1090 C   0  0  0  0  0  0  0  0  0  0  0  0
   58.9760   32.2710   46.6550 C   0  0  0  0  0  0  0  0  0  0  0  0
   58.0950   31.3780   46.0360 C   0  0  0  0  0  0  0  0  0  0  0  0
   57.4050   31.7590   44.8720 C   0  0  0  0  0  0  0  0  0  0  0  0
   56.4920   30.8720   44.2140 N   0  0  0  0  0  0  0  0  0  0  0  0
   56.2860   29.4820   44.5000 C   0  0  0  0  0  0  0  0  0  0  0  0
   55.1420   29.1030   44.8660 O   0  0  0  0  0  0  0  0  0  0  0  0
   57.4010   28.4730   44.4480 C   0  0  0  0  0  0  0  0  0  0  0  0
   57.0650   27.3180   45.2990 N   0  0  0  0  0  0  0  0  0  0  0  0
   57.7240   26.0800   44.8520 C   0  0  0  0  0  0  0  0  0  0  0  0
   56.7780   24.9050   44.9100 C   0  0  0  0  0  0  0  0  0  0  0  0
   57.1360   23.7040   44.2740 C   0  0  0  0  0  0  0  0  0  0  0  0
   56.2730   22.6060   44.2980 C   0  0  0  0  0  0  0  0  0  0  0  0
   55.0470   22.6940   44.9590 C   0  0  0  0  0  0  0  0  0  0  0  0
   54.6790   23.8800   45.5950 C   0  0  0  0  0  0  0  0  0  0  0  0
   55.5340   24.9930   45.5700 C   0  0  0  0  0  0  0  0  0  0  0  0
   55.1440   26.1800   46.1900 O   0  0  0  0  0  0  0  0  0  0  0  0
   57.6630   33.0100   44.3020 C   0  0  0  0  0  0  0  0  0  0  0  0
   58.5390   33.9040   44.9220 C   0  0  0  0  0  0  0  0  0  0  0  0
   64.4980   32.3720   47.4240 H   0  0  0  0  0  0  0  0  0  0  0  0
   64.1960   33.2280   45.8720 H   0  0  0  0  0  0  0  0  0  0  0  0
   62.8880   32.5350   49.2720 H   0  0  0  0  0  0  0  0  0  0  0  0
   61.3670   33.4530   49.1180 H   0  0  0  0  0  0  0  0  0  0  0  0
   59.5037   31.9733   47.5731 H   0  0  0  0  0  0  0  0  0  0  0  0
   57.9418   30.3751   46.4611 H   0  0  0  0  0  0  0  0  0  0  0  0
   57.5401   28.1348   43.4106 H   0  0  0  0  0  0  0  0  0  0  0  0
   58.3295   28.9366   44.8127 H   0  0  0  0  0  0  0  0  0  0  0  0
   56.0320   27.1560   45.2330 H   0  0  0  0  0  0  0  0  0  0  0  0
   58.0693   26.2115   43.8159 H   0  0  0  0  0  0  0  0  0  0  0  0
   58.5728   25.8765   45.5215 H   0  0  0  0  0  0  0  0  0  0  0  0
   58.1023   23.6282   43.7538 H   0  0  0  0  0  0  0  0  0  0  0  0
   56.5601   21.6707   43.7952 H   0  0  0  0  0  0  0  0  0  0  0  0
   54.3700   21.8272   44.9786 H   0  0  0  0  0  0  0  0  0  0  0  0
   53.7138   23.9432   46.1188 H   0  0  0  0  0  0  0  0  0  0  0  0
   55.7540   26.6670   46.8350 H   0  0  0  0  0  0  0  0  0  0  0  0
   57.1725   33.2918   43.3586 H   0  0  0  0  0  0  0  0  0  0  0  0
   58.7194   34.8936   44.4769 H   0  0  0  0  0  0  0  0  0  0  0  0
  1  2  1  0
  2  3  1  0
  2  4  2  3
  4  5  1  0
  5  6  2  0
  5  7  2  0
  5  8  1  0
  8  9  2  0
  9 10  1  0
 10 11  2  0
 11 12  1  0
 12 13  1  0
 13 14  2  0
 13 15  1  0
 15 16  1  0
 16 17  1  0
 17 18  1  0
 18 19  2  0
 19 20  1  0
 20 21  2  0
 21 22  1  0
 22 23  2  0
 23 24  1  0
 11 25  1  0
 25 26  2  0
 26  8  1  0
 23 18  1  0
  1 27  1  0
  1 28  1  0
  3 29  1  0
  3 30  1  0
  9 31  1  0
 10 32  1  0
 15 33  1  0
 15 34  1  0
 16 35  1  0
 17 36  1  0
 17 37  1  0
 19 38  1  0
 20 39  1  0
 21 40  1  0
 22 41  1  0
 24 42  1  0
 25 43  1  0
 26 44  1  0
M  CHG  1  12  -1
M  END
>  <UniqueID>  (64) 
59

>  <SMILES>  (64) 
NC(N)=NS(=O)(=O)c1ccc([N-]C(=O)CNCc2ccccc2O)cc1

>  <Energy>  (64) 
46.67371840729429

>  <Genealogy>  (64) 
NC(N)=NS(=O)(=O)c1ccc([N-]C(=O)CNCc2ccccc2O)cc1 (protonated)
NC(N)=NS(=O)(=O)c1ccc([N-]C(=O)CNCc2ccccc2O)cc1 (3D coordinates assigned)
NC(N)=NS(=O)(=O)c1ccc([N-]C(=O)CNCc2ccccc2O)cc1 (optimized conformer: 46.67371840729429 kcal/mol)

>  <smiles>  (64) 
NC(N)=NS(=O)(=O)c1ccc(NC(=O)CNCc2ccccc2O)cc1

>  <score_type>  (64) 
oracle

>  <origin>  (64) 
adg

>  <m_score__min__energy>  (64) 
-10.91

>  <m_primary>  (64) 
energy

$$$$
64:0
     RDKit          3D

 44 47  0  0  0  0  0  0  0  0999 V2000
   56.2650   29.3990   42.5730 C   0  0  0  0  0  0  0  0  0  0  0  0
   55.9710   29.7190   43.9280 O   0  0  0  0  0  0  0  0  0  0  0  0
   56.9070   30.0270   44.9330 C   0  0  0  0  0  0  0  0  0  0  0  0
   57.3650   31.3080   44.9940 N   0  0  0  0  0  0  0  0  0  0  0  0
   58.2760   31.7010   45.9320 C   0  0  0  0  0  0  0  0  0  0  0  0
   58.7760   33.0980   45.9860 C   0  0  0  0  0  0  0  0  0  0  0  0
   59.2230   33.6360   47.2070 C   0  0  0  0  0  0  0  0  0  0  0  0
   59.6900   34.9520   47.2730 C   0  0  0  0  0  0  0  0  0  0  0  0
   59.7080   35.7480   46.1260 C   0  0  0  0  0  0  0  0  0  0  0  0
   59.2540   35.2310   44.9110 C   0  0  0  0  0  0  0  0  0  0  0  0
   58.7870   33.9140   44.8380 C   0  0  0  0  0  0  0  0  0  0  0  0
   58.7500   30.7910   46.8230 N   0  0  0  0  0  0  0  0  0  0  0  0
   58.3250   29.5030   46.8220 C   0  0  0  0  0  0  0  0  0  0  0  0
   58.9100   28.5400   47.8220 C   0  0  0  0  0  0  0  0  0  0  0  0
   59.4900   29.2450   49.0210 C   0  0  0  0  0  0  0  0  0  0  0  0
   59.0790   28.9540   50.1790 O   0  0  0  0  0  0  0  0  0  0  0  0
   60.5380   30.2170   48.8700 N   0  0  0  0  0  0  0  0  0  0  0  0
   61.0560   31.0850   49.8860 C   0  0  0  0  0  0  0  0  0  0  0  0
   60.6260   31.1340   51.0680 O   0  0  0  0  0  0  0  0  0  0  0  0
   62.1390   31.8990   49.3450 C   0  0  0  0  0  0  0  0  0  0  0  0
   62.9320   32.8730   49.9490 C   0  0  0  0  0  0  0  0  0  0  0  0
   63.9190   33.4990   49.1660 C   0  0  0  0  0  0  0  0  0  0  0  0
   64.0900   33.1410   47.8100 C   0  0  0  0  0  0  0  0  0  0  0  0
   63.2760   32.1540   47.2260 C   0  0  0  0  0  0  0  0  0  0  0  0
   62.3050   31.5510   48.0230 C   0  0  0  0  0  0  0  0  0  0  0  0
   61.3300   30.5110   47.7110 C   0  0  0  0  0  0  0  0  0  0  0  0
   61.2200   29.9290   46.6000 O   0  0  0  0  0  0  0  0  0  0  0  0
   57.3900   29.0820   45.8660 C   0  0  0  0  0  0  0  0  0  0  0  0
   56.9700   27.7570   45.8520 O   0  0  0  0  0  0  0  0  0  0  0  0
   57.0089   28.5893   42.5406 H   0  0  0  0  0  0  0  0  0  0  0  0
   55.3453   29.0725   42.0655 H   0  0  0  0  0  0  0  0  0  0  0  0
   56.6681   30.2878   42.0655 H   0  0  0  0  0  0  0  0  0  0  0  0
   57.0220   31.9850   44.2770 H   0  0  0  0  0  0  0  0  0  0  0  0
   59.2048   33.0167   48.1159 H   0  0  0  0  0  0  0  0  0  0  0  0
   60.0441   35.3613   48.2307 H   0  0  0  0  0  0  0  0  0  0  0  0
   60.0797   36.7819   46.1795 H   0  0  0  0  0  0  0  0  0  0  0  0
   59.2635   35.8606   44.0090 H   0  0  0  0  0  0  0  0  0  0  0  0
   58.4265   33.5138   43.8789 H   0  0  0  0  0  0  0  0  0  0  0  0
   58.1171   27.8575   48.1619 H   0  0  0  0  0  0  0  0  0  0  0  0
   59.7250   27.9925   47.3259 H   0  0  0  0  0  0  0  0  0  0  0  0
   62.7905   33.1440   51.0057 H   0  0  0  0  0  0  0  0  0  0  0  0
   64.5617   34.2721   49.6123 H   0  0  0  0  0  0  0  0  0  0  0  0
   64.8647   33.6374   47.2072 H   0  0  0  0  0  0  0  0  0  0  0  0
   63.4021   31.8666   46.1717 H   0  0  0  0  0  0  0  0  0  0  0  0
  1  2  1  0
  2  3  1  0
  3  4  2  0
  4  5  1  0
  5  6  1  0
  6  7  2  0
  7  8  1  0
  8  9  2  0
  9 10  1  0
 10 11  2  0
  5 12  2  0
 12 13  1  0
 13 14  1  0
 14 15  1  0
 15 16  2  0
 15 17  1  0
 17 18  1  0
 18 19  2  0
 18 20  1  0
 20 21  2  0
 21 22  1  0
 22 23  2  0
 23 24  1  0
 24 25  2  0
 25 26  1  0
 26 27  2  0
 13 28  2  0
 28 29  1  0
 28  3  1  0
 11  6  1  0
 26 17  1  0
 25 20  1  0
  1 30  1  0
  1 31  1  0
  1 32  1  0
  4 33  1  0
  7 34  1  0
  8 35  1  0
  9 36  1  0
 10 37  1  0
 11 38  1  0
 14 39  1  0
 14 40  1  0
 21 41  1  0
 22 42  1  0
 23 43  1  0
 24 44  1  0
M  CHG  2   4   1  29  -1
M  END
>  <UniqueID>  (65) 
60

>  <SMILES>  (65) 
COc1[nH+]c(-c2ccccc2)nc(CC(=O)N2C(=O)c3ccccc3C2=O)c1[O-]

>  <Energy>  (65) 
88.85732489117875

>  <Genealogy>  (65) 
COc1[nH+]c(-c2ccccc2)nc(CC(=O)N2C(=O)c3ccccc3C2=O)c1[O-] (protonated)
COc1[nH+]c(-c2ccccc2)nc(CC(=O)N2C(=O)c3ccccc3C2=O)c1[O-] (3D coordinates assigned)
COc1[nH+]c(-c2ccccc2)nc(CC(=O)N2C(=O)c3ccccc3C2=O)c1[O-] (nonaromatic ring conformer: 88.85732489117875 kcal/mol)

>  <smiles>  (65) 
COc1nc(-c2ccccc2)nc(CC(=O)N2C(=O)c3ccccc3C2=O)c1O

>  <score_type>  (65) 
oracle

>  <origin>  (65) 
adg

>  <m_score__min__energy>  (65) 
-8.9199999999999999

>  <m_primary>  (65) 
energy

$$$$
65:0
     RDKit          3D

 51 53  0  0  0  0  0  0  0  0999 V2000
   54.5940   24.8330   45.6290 C   0  0  0  0  0  0  0  0  0  0  0  0
   55.2880   26.0180   45.9430 O   0  0  0  0  0  0  0  0  0  0  0  0
   56.6000   25.9370   45.4320 C   0  0  0  0  0  0  0  0  0  0  0  0
   57.5360   26.5760   46.3990 C   0  0  0  0  0  0  0  0  0  0  0  0
   57.4250   27.8480   46.8290 N   0  0  0  0  0  0  0  0  0  0  0  0
   58.4690   27.9260   47.6830 C   0  0  0  0  0  0  0  0  0  0  0  0
   58.8090   29.1530   48.4690 C   0  0  0  0  0  0  0  0  0  0  0  0
   60.2590   29.3320   48.5370 N   0  0  0  0  0  0  0  0  0  0  0  0
   60.9220   30.6080   48.6480 C   0  0  0  0  0  0  0  0  0  0  0  0
   62.1530   30.7540   49.3160 C   0  0  0  0  0  0  0  0  0  0  0  0
   62.7710   32.0060   49.4030 C   0  0  0  0  0  0  0  0  0  0  0  0
   62.1780   33.1360   48.8200 C   0  0  0  0  0  0  0  0  0  0  0  0
   62.8520   34.4780   48.9460 C   0  0  0  0  0  0  0  0  0  0  0  0
   60.9410   32.9970   48.1490 C   0  0  0  0  0  0  0  0  0  0  0  0
   60.2650   34.1580   47.5360 C   0  0  0  0  0  0  0  0  0  0  0  0
   59.6340   34.9650   48.2710 O   0  0  0  0  0  0  0  0  0  0  0  0
   60.3070   34.3800   46.1210 N   0  0  0  0  0  0  0  0  0  0  0  0
   59.1170   34.5780   45.3030 C   0  0  0  0  0  0  0  0  0  0  0  0
   58.4740   33.2510   45.0240 C   0  0  0  0  0  0  0  0  0  0  0  0
   58.3360   32.2980   46.0440 C   0  0  0  0  0  0  0  0  0  0  0  0
   57.7360   31.0630   45.7810 C   0  0  0  0  0  0  0  0  0  0  0  0
   57.2710   30.7560   44.4890 C   0  0  0  0  0  0  0  0  0  0  0  0
   56.6230   29.4520   44.2090 C   0  0  0  0  0  0  0  0  0  0  0  0
   55.5000   29.0190   44.9760 N   0  0  0  0  0  0  0  0  0  0  0  0
   57.0600   28.7100   43.2870 O   0  0  0  0  0  0  0  0  0  0  0  0
   57.4300   31.7060   43.4640 C   0  0  0  0  0  0  0  0  0  0  0  0
   58.0250   32.9440   43.7320 C   0  0  0  0  0  0  0  0  0  0  0  0
   60.3230   31.7400   48.0740 C   0  0  0  0  0  0  0  0  0  0  0  0
   59.1550   26.7690   47.7720 N   0  0  0  0  0  0  0  0  0  0  0  0
   58.5460   25.9580   46.9620 O   0  0  0  0  0  0  0  0  0  0  0  0
   54.2965   24.3251   46.5583 H   0  0  0  0  0  0  0  0  0  0  0  0
   53.6968   25.0782   45.0418 H   0  0  0  0  0  0  0  0  0  0  0  0
   55.2468   24.1704   45.0418 H   0  0  0  0  0  0  0  0  0  0  0  0
   56.8772   24.8817   45.2925 H   0  0  0  0  0  0  0  0  0  0  0  0
   56.6548   26.4551   44.4632 H   0  0  0  0  0  0  0  0  0  0  0  0
   58.3582   30.0308   47.9829 H   0  0  0  0  0  0  0  0  0  0  0  0
   58.4159   29.0417   49.4903 H   0  0  0  0  0  0  0  0  0  0  0  0
   60.8460   28.4660   48.5080 H   0  0  0  0  0  0  0  0  0  0  0  0
   62.6328   29.8761   49.7733 H   0  0  0  0  0  0  0  0  0  0  0  0
   63.7298   32.1053   49.9329 H   0  0  0  0  0  0  0  0  0  0  0  0
   62.9771   34.7270   50.0101 H   0  0  0  0  0  0  0  0  0  0  0  0
   63.8381   34.4402   48.4599 H   0  0  0  0  0  0  0  0  0  0  0  0
   62.2328   35.2464   48.4599 H   0  0  0  0  0  0  0  0  0  0  0  0
   58.4066   35.2238   45.8398 H   0  0  0  0  0  0  0  0  0  0  0  0
   59.4007   35.0544   44.3530 H   0  0  0  0  0  0  0  0  0  0  0  0
   58.7019   32.5237   47.0565 H   0  0  0  0  0  0  0  0  0  0  0  0
   57.6266   30.3258   46.5901 H   0  0  0  0  0  0  0  0  0  0  0  0
   55.5610   28.1780   45.5930 H   0  0  0  0  0  0  0  0  0  0  0  0
   57.0846   31.4745   42.4456 H   0  0  0  0  0  0  0  0  0  0  0  0
   58.1411   33.6809   42.9236 H   0  0  0  0  0  0  0  0  0  0  0  0
   59.3563   31.6402   47.5586 H   0  0  0  0  0  0  0  0  0  0  0  0
  1  2  1  0
  2  3  1  0
  3  4  1  0
  4  5  2  0
  5  6  1  0
  6  7  1  0
  7  8  1  0
  8  9  1  0
  9 10  2  0
 10 11  1  0
 11 12  2  0
 12 13  1  0
 12 14  1  0
 14 15  1  0
 15 16  2  0
 15 17  1  0
 17 18  1  0
 18 19  1  0
 19 20  2  0
 20 21  1  0
 21 22  2  0
 22 23  1  0
 23 24  1  0
 23 25  2  0
 22 26  1  0
 26 27  2  0
 14 28  2  0
  6 29  2  0
 29 30  1  0
 30  4  1  0
 28  9  1  0
 27 19  1  0
  1 31  1  0
  1 32  1  0
  1 33  1  0
  3 34  1  0
  3 35  1  0
  7 36  1  0
  7 37  1  0
  8 38  1  0
 10 39  1  0
 11 40  1  0
 13 41  1  0
 13 42  1  0
 13 43  1  0
 18 44  1  0
 18 45  1  0
 20 46  1  0
 21 47  1  0
 24 48  1  0
 26 49  1  0
 27 50  1  0
 28 51  1  0
M  CHG  2  17  -1  24  -1
M  END
>  <UniqueID>  (66) 
61

>  <SMILES>  (66) 
COCc1nc(CNc2ccc(C)c(C(=O)[N-]Cc3ccc(C([NH-])=O)cc3)c2)no1

>  <Energy>  (66) 
88.50754663694129

>  <Genealogy>  (66) 
COCc1nc(CNc2ccc(C)c(C(=O)[N-]Cc3ccc(C([NH-])=O)cc3)c2)no1 (protonated)
COCc1nc(CNc2ccc(C)c(C(=O)[N-]Cc3ccc(C([NH-])=O)cc3)c2)no1 (3D coordinates assigned)
COCc1nc(CNc2ccc(C)c(C(=O)[N-]Cc3ccc(C([NH-])=O)cc3)c2)no1 (optimized conformer: 88.50754663694129 kcal/mol)

>  <smiles>  (66) 
COCc1nc(CNc2ccc(C)c(C(=O)NCc3ccc(C(N)=O)cc3)c2)no1

>  <score_type>  (66) 
oracle

>  <origin>  (66) 
adg

>  <m_score__min__energy>  (66) 
-12.44

>  <m_primary>  (66) 
energy

$$$$
66:0
     RDKit          3D

 46 48  0  0  0  0  0  0  0  0999 V2000
   56.9060   25.8270   47.4780 O   0  0  0  0  0  0  0  0  0  0  0  0
   56.5150   26.4730   46.4690 C   0  0  0  0  0  0  0  0  0  0  0  0
   55.1470   26.3410   46.0540 N   0  0  0  0  0  0  0  0  0  0  0  0
   54.5050   25.1070   45.6040 C   0  0  0  0  0  0  0  0  0  0  0  0
   55.5320   24.0440   45.3080 C   0  0  0  0  0  0  0  0  0  0  0  0
   55.8840   23.7550   43.9800 C   0  0  0  0  0  0  0  0  0  0  0  0
   56.8610   22.7940   43.7030 C   0  0  0  0  0  0  0  0  0  0  0  0
   57.4960   22.1120   44.7500 C   0  0  0  0  0  0  0  0  0  0  0  0
   58.4770   21.1600   44.4810 O   0  0  0  0  0  0  0  0  0  0  0  0
   57.1410   22.3900   46.0760 C   0  0  0  0  0  0  0  0  0  0  0  0
   57.7620   21.7140   47.1210 O   0  0  0  0  0  0  0  0  0  0  0  0
   56.1600   23.3470   46.3530 C   0  0  0  0  0  0  0  0  0  0  0  0
   57.4620   27.3690   45.7800 C   0  0  0  0  0  0  0  0  0  0  0  0
   58.8270   27.0490   45.7460 C   0  0  0  0  0  0  0  0  0  0  0  0
   59.7350   27.9040   45.1160 C   0  0  0  0  0  0  0  0  0  0  0  0
   59.2840   29.0770   44.5050 C   0  0  0  0  0  0  0  0  0  0  0  0
   57.9190   29.3950   44.5120 C   0  0  0  0  0  0  0  0  0  0  0  0
   57.3440   30.8850   43.7680 S   0  0  0  0  0  0  0  0  0  0  0  0
   58.4730   31.5800   43.0590 O   0  0  0  0  0  0  0  0  0  0  0  0
   56.2890   30.5490   42.7530 O   0  0  0  0  0  0  0  0  0  0  0  0
   56.6560   31.9350   44.9720 N   0  0  0  0  0  0  0  0  0  0  0  0
   57.1560   33.3030   44.8290 C   0  0  0  0  0  0  0  0  0  0  0  0
   58.1530   33.6240   45.9090 C   0  0  0  0  0  0  0  0  0  0  0  0
   59.1100   34.6360   45.7210 C   0  0  0  0  0  0  0  0  0  0  0  0
   60.0290   34.9320   46.7330 C   0  0  0  0  0  0  0  0  0  0  0  0
   60.0030   34.2170   47.9340 C   0  0  0  0  0  0  0  0  0  0  0  0
   59.0560   33.2060   48.1270 C   0  0  0  0  0  0  0  0  0  0  0  0
   58.1340   32.9090   47.1180 C   0  0  0  0  0  0  0  0  0  0  0  0
   57.0100   28.5370   45.1440 C   0  0  0  0  0  0  0  0  0  0  0  0
   53.8285   24.7448   46.3921 H   0  0  0  0  0  0  0  0  0  0  0  0
   53.9426   25.3189   44.6827 H   0  0  0  0  0  0  0  0  0  0  0  0
   55.3891   24.2868   43.1540 H   0  0  0  0  0  0  0  0  0  0  0  0
   57.1321   22.5725   42.6602 H   0  0  0  0  0  0  0  0  0  0  0  0
   58.8930   20.6030   45.2200 H   0  0  0  0  0  0  0  0  0  0  0  0
   55.8784   23.5552   47.3958 H   0  0  0  0  0  0  0  0  0  0  0  0
   59.1842   26.1214   46.2171 H   0  0  0  0  0  0  0  0  0  0  0  0
   60.8060   27.6535   45.1010 H   0  0  0  0  0  0  0  0  0  0  0  0
   60.0021   29.7526   44.0173 H   0  0  0  0  0  0  0  0  0  0  0  0
   57.6413   33.4087   43.8475 H   0  0  0  0  0  0  0  0  0  0  0  0
   56.3081   33.9986   44.9143 H   0  0  0  0  0  0  0  0  0  0  0  0
   59.1363   35.1969   44.7751 H   0  0  0  0  0  0  0  0  0  0  0  0
   60.7731   35.7283   46.5837 H   0  0  0  0  0  0  0  0  0  0  0  0
   60.7280   34.4497   48.7279 H   0  0  0  0  0  0  0  0  0  0  0  0
   59.0363   32.6443   49.0726 H   0  0  0  0  0  0  0  0  0  0  0  0
   57.3911   32.1124   47.2718 H   0  0  0  0  0  0  0  0  0  0  0  0
   55.9370   28.7790   45.1423 H   0  0  0  0  0  0  0  0  0  0  0  0
  1  2  2  0
  2  3  1  0
  3  4  1  0
  4  5  1  0
  5  6  2  0
  6  7  1  0
  7  8  2  0
  8  9  1  0
  8 10  1  0
 10 11  1  0
 10 12  2  0
  2 13  1  0
 13 14  2  0
 14 15  1  0
 15 16  2  0
 16 17  1  0
 17 18  1  0
 18 19  2  0
 18 20  2  0
 18 21  1  0
 21 22  1  0
 22 23  1  0
 23 24  2  0
 24 25  1  0
 25 26  2  0
 26 27  1  0
 27 28  2  0
 17 29  2  0
 12  5  1  0
 29 13  1  0
 28 23  1  0
  4 30  1  0
  4 31  1  0
  6 32  1  0
  7 33  1  0
  9 34  1  0
 12 35  1  0
 14 36  1  0
 15 37  1  0
 16 38  1  0
 22 39  1  0
 22 40  1  0
 24 41  1  0
 25 42  1  0
 26 43  1  0
 27 44  1  0
 28 45  1  0
 29 46  1  0
M  CHG  3   3  -1  11  -1  21  -1
M  END
>  <UniqueID>  (67) 
62

>  <SMILES>  (67) 
O=C([N-]Cc1ccc(O)c([O-])c1)c1cccc(S(=O)(=O)[N-]Cc2ccccc2)c1

>  <Energy>  (67) 
47.53914323467782

>  <Genealogy>  (67) 
O=C([N-]Cc1ccc(O)c([O-])c1)c1cccc(S(=O)(=O)[N-]Cc2ccccc2)c1 (protonated)
O=C([N-]Cc1ccc(O)c([O-])c1)c1cccc(S(=O)(=O)[N-]Cc2ccccc2)c1 (3D coordinates assigned)
O=C([N-]Cc1ccc(O)c([O-])c1)c1cccc(S(=O)(=O)[N-]Cc2ccccc2)c1 (optimized conformer: 47.53914323467782 kcal/mol)

>  <smiles>  (67) 
O=C(NCc1ccc(O)c(O)c1)c1cccc(S(=O)(=O)NCc2ccccc2)c1

>  <score_type>  (67) 
oracle

>  <origin>  (67) 
adg

>  <m_score__min__energy>  (67) 
-15.82

>  <m_primary>  (67) 
energy

$$$$
67:0
     RDKit          3D

 45 49  0  0  0  0  0  0  0  0999 V2000
   56.1084   24.7845   46.5976 H   0  0  0  0  0  0  0  0  0  0  0  0
   56.8210   24.8700   45.7640 C   0  0  0  0  0  0  0  0  0  0  0  0
   57.6710   25.9100   45.7770 C   0  0  0  0  0  0  0  0  0  0  0  0
   59.4520   25.7860   46.0300 S   0  0  0  0  0  0  0  0  0  0  0  0
   59.5270   27.5780   45.9650 C   0  0  0  0  0  0  0  0  0  0  0  0
   60.6250   28.1960   45.9940 O   0  0  0  0  0  0  0  0  0  0  0  0
   58.2780   28.2510   45.8140 N   0  0  0  0  0  0  0  0  0  0  0  0
   58.1140   29.6800   45.7550 C   0  0  0  0  0  0  0  0  0  0  0  0
   57.5430   30.2860   44.6250 C   0  0  0  0  0  0  0  0  0  0  0  0
   57.2161   29.6644   43.7784 H   0  0  0  0  0  0  0  0  0  0  0  0
   57.3870   31.6730   44.5680 C   0  0  0  0  0  0  0  0  0  0  0  0
   56.9294   32.1354   43.6809 H   0  0  0  0  0  0  0  0  0  0  0  0
   57.8110   32.4820   45.6370 C   0  0  0  0  0  0  0  0  0  0  0  0
   57.6390   33.9540   45.5890 C   0  0  0  0  0  0  0  0  0  0  0  0
   56.6440   34.4370   44.9870 O   0  0  0  0  0  0  0  0  0  0  0  0
   58.5990   34.8570   46.1600 N   0  0  0  0  0  0  0  0  0  0  0  0
   59.7230   34.5140   46.7200 C   0  0  0  0  0  0  0  0  0  0  0  0
   59.9560   34.5950   48.0580 N   0  0  0  0  0  0  0  0  0  0  0  0
   61.2270   34.1670   48.1570 C   0  0  0  0  0  0  0  0  0  0  0  0
   61.9940   34.0360   49.3120 C   0  0  0  0  0  0  0  0  0  0  0  0
   61.5833   34.2914   50.3000 H   0  0  0  0  0  0  0  0  0  0  0  0
   63.3140   33.5650   49.1710 C   0  0  0  0  0  0  0  0  0  0  0  0
   63.9506   33.4476   50.0604 H   0  0  0  0  0  0  0  0  0  0  0  0
   63.8260   33.2420   47.8920 C   0  0  0  0  0  0  0  0  0  0  0  0
   64.8586   32.8761   47.7931 H   0  0  0  0  0  0  0  0  0  0  0  0
   63.0220   33.3860   46.7450 C   0  0  0  0  0  0  0  0  0  0  0  0
   63.4057   33.1381   45.7443 H   0  0  0  0  0  0  0  0  0  0  0  0
   61.7230   33.8540   46.9250 C   0  0  0  0  0  0  0  0  0  0  0  0
   60.7820   34.0730   45.9990 N   0  0  0  0  0  0  0  0  0  0  0  0
   60.8490   33.9360   44.9660 H   0  0  0  0  0  0  0  0  0  0  0  0
   58.3640   31.8730   46.7760 C   0  0  0  0  0  0  0  0  0  0  0  0
   58.6759   32.4920   47.6301 H   0  0  0  0  0  0  0  0  0  0  0  0
   58.5200   30.4860   46.8300 C   0  0  0  0  0  0  0  0  0  0  0  0
   58.9647   30.0215   47.7224 H   0  0  0  0  0  0  0  0  0  0  0  0
   57.2240   27.3030   45.7110 C   0  0  0  0  0  0  0  0  0  0  0  0
   56.0130   27.6400   45.6080 O   0  0  0  0  0  0  0  0  0  0  0  0
   56.7720   23.8340   44.7150 C   0  0  0  0  0  0  0  0  0  0  0  0
   56.7910   22.4720   44.9530 C   0  0  0  0  0  0  0  0  0  0  0  0
   56.9067   21.9742   45.9271 H   0  0  0  0  0  0  0  0  0  0  0  0
   56.6360   21.8620   43.7260 C   0  0  0  0  0  0  0  0  0  0  0  0
   56.6223   20.7746   43.5604 H   0  0  0  0  0  0  0  0  0  0  0  0
   56.5040   22.7900   42.7610 N   0  0  0  0  0  0  0  0  0  0  0  0
   56.3470   22.6090   41.7450 H   0  0  0  0  0  0  0  0  0  0  0  0
   56.5750   23.9950   43.3540 C   0  0  0  0  0  0  0  0  0  0  0  0
   56.4895   24.9618   42.8363 H   0  0  0  0  0  0  0  0  0  0  0  0
  1  2  1  0
  2  3  2  0
  3  4  1  0
  4  5  1  0
  5  6  2  0
  5  7  1  0
  7  8  1  0
  8  9  2  0
  9 10  1  0
  9 11  1  0
 11 12  1  0
 11 13  2  0
 13 14  1  0
 14 15  2  0
 14 16  1  0
 16 17  2  3
 17 18  1  0
 18 19  1  0
 19 20  2  0
 20 21  1  0
 20 22  1  0
 22 23  1  0
 22 24  2  0
 24 25  1  0
 24 26  1  0
 26 27  1  0
 26 28  2  0
 28 29  1  0
 29 30  1  0
 13 31  1  0
 31 32  1  0
 31 33  2  0
 33 34  1  0
  7 35  1  0
 35 36  2  0
  2 37  1  0
 37 38  1  0
 38 39  1  0
 38 40  2  0
 40 41  1  0
 40 42  1  0
 42 43  1  0
 42 44  1  0
 44 45  1  0
 35  3  1  0
 44 37  2  0
 33  8  1  0
 29 17  1  0
 28 19  1  0
M  CHG  1  18  -1
M  END
>  <UniqueID>  (68) 
63

>  <SMILES>  (68) 
O=C(N=c1[n-]c2ccccc2[nH]1)c1ccc(N2C(=O)S/C(=C\c3cc[nH]c3)C2=O)cc1

>  <Energy>  (68) 
149.9828469278061

>  <Genealogy>  (68) 
O=C(N=c1[n-]c2ccccc2[nH]1)c1ccc(N2C(=O)SC(=Cc3cc[nH]c3)C2=O)cc1 (protonated)
O=C(N=c1[n-]c2ccccc2[nH]1)c1ccc(N2C(=O)S/C(=C\c3cc[nH]c3)C2=O)cc1 (cis-trans isomerization)
O=C(N=c1[n-]c2ccccc2[nH]1)c1ccc(N2C(=O)S/C(=C\c3cc[nH]c3)C2=O)cc1 (3D coordinates assigned)
O=C(N=c1[n-]c2ccccc2[nH]1)c1ccc(N2C(=O)S/C(=C\c3cc[nH]c3)C2=O)cc1 (nonaromatic ring conformer: 149.9828469278061 kcal/mol)

>  <smiles>  (68) 
O=C(N=c1[nH]c2ccccc2[nH]1)c1ccc(N2C(=O)SC(=Cc3cc[nH]c3)C2=O)cc1

>  <score_type>  (68) 
oracle

>  <origin>  (68) 
adg

>  <m_score__min__energy>  (68) 
-10.83

>  <m_primary>  (68) 
energy

$$$$
68:0
     RDKit          3D

 55 56  0  0  0  0  0  0  0  0999 V2000
   63.3680   33.8310   46.3540 C   0  0  0  0  0  0  0  0  0  0  0  0
   62.9860   33.1850   47.6830 C   0  0  0  0  0  0  0  0  0  0  0  0
   61.4930   32.8260   47.7140 C   0  0  0  0  0  0  0  0  0  0  0  0
   60.7720   33.3750   48.9580 C   0  0  0  0  0  0  0  0  0  0  0  0
   59.8400   34.5750   48.6940 C   0  0  0  0  0  0  0  0  0  0  0  0
   59.4050   34.7520   47.2290 C   0  0  0  0  0  0  0  0  0  0  0  0
   58.2090   33.8650   46.8530 C   0  0  0  0  0  0  0  0  0  0  0  0
   57.8570   34.0080   45.3630 C   0  0  0  0  0  0  0  0  0  0  0  0
   57.1680   32.7500   44.7960 C   0  0  0  0  0  0  0  0  0  0  0  0
   58.1300   31.7740   44.0920 C   0  0  0  0  0  0  0  0  0  0  0  0
   58.0260   30.4040   44.6370 N   0  0  0  0  0  0  0  0  0  0  0  0
   58.7530   30.0560   45.7490 C   0  0  0  0  0  0  0  0  0  0  0  0
   59.4530   30.9110   46.3570 O   0  0  0  0  0  0  0  0  0  0  0  0
   58.7360   28.7440   46.2180 C   0  0  0  0  0  0  0  0  0  0  0  0
   57.9590   27.7940   45.5510 C   0  0  0  0  0  0  0  0  0  0  0  0
   57.9540   26.4210   45.9800 N   0  0  0  0  0  0  0  0  0  0  0  0
   59.1940   25.6410   45.9920 C   0  0  0  0  0  0  0  0  0  0  0  0
   58.8710   24.1600   45.7720 C   0  0  0  0  0  0  0  0  0  0  0  0
   57.8840   23.7180   46.6870 O   0  0  0  0  0  0  0  0  0  0  0  0
   56.6650   24.3910   46.4390 C   0  0  0  0  0  0  0  0  0  0  0  0
   56.8040   25.8890   46.7170 C   0  0  0  0  0  0  0  0  0  0  0  0
   57.2220   28.1770   44.4750 N   0  0  0  0  0  0  0  0  0  0  0  0
   57.2470   29.4580   44.0160 C   0  0  0  0  0  0  0  0  0  0  0  0
   56.5600   29.7560   42.9990 O   0  0  0  0  0  0  0  0  0  0  0  0
   63.9194   34.7635   46.5447 H   0  0  0  0  0  0  0  0  0  0  0  0
   64.0030   33.1404   45.7797 H   0  0  0  0  0  0  0  0  0  0  0  0
   62.4569   34.0547   45.7797 H   0  0  0  0  0  0  0  0  0  0  0  0
   63.5788   32.2687   47.8206 H   0  0  0  0  0  0  0  0  0  0  0  0
   63.1899   33.9023   48.4916 H   0  0  0  0  0  0  0  0  0  0  0  0
   61.0127   33.2435   46.8168 H   0  0  0  0  0  0  0  0  0  0  0  0
   61.4173   31.7291   47.7451 H   0  0  0  0  0  0  0  0  0  0  0  0
   60.1686   32.5626   49.3891 H   0  0  0  0  0  0  0  0  0  0  0  0
   61.5594   33.7399   49.6339 H   0  0  0  0  0  0  0  0  0  0  0  0
   58.9347   34.4446   49.3051 H   0  0  0  0  0  0  0  0  0  0  0  0
   60.4172   35.4747   48.9536 H   0  0  0  0  0  0  0  0  0  0  0  0
   59.1263   35.8041   47.0696 H   0  0  0  0  0  0  0  0  0  0  0  0
   60.2518   34.4538   46.5933 H   0  0  0  0  0  0  0  0  0  0  0  0
   58.4610   32.8150   47.0629 H   0  0  0  0  0  0  0  0  0  0  0  0
   57.3398   34.1818   47.4481 H   0  0  0  0  0  0  0  0  0  0  0  0
   57.1799   34.8663   45.2412 H   0  0  0  0  0  0  0  0  0  0  0  0
   58.7967   34.1527   44.8098 H   0  0  0  0  0  0  0  0  0  0  0  0
   56.6814   32.2177   45.6266 H   0  0  0  0  0  0  0  0  0  0  0  0
   56.4507   33.0942   44.0365 H   0  0  0  0  0  0  0  0  0  0  0  0
   57.8880   31.7487   43.0192 H   0  0  0  0  0  0  0  0  0  0  0  0
   59.1574   32.1293   44.2600 H   0  0  0  0  0  0  0  0  0  0  0  0
   59.3265   28.4602   47.1016 H   0  0  0  0  0  0  0  0  0  0  0  0
   59.8568   25.9945   45.1884 H   0  0  0  0  0  0  0  0  0  0  0  0
   59.6947   25.7655   46.9635 H   0  0  0  0  0  0  0  0  0  0  0  0
   58.4996   24.0207   44.7460 H   0  0  0  0  0  0  0  0  0  0  0  0
   59.7872   23.5724   45.9313 H   0  0  0  0  0  0  0  0  0  0  0  0
   56.3800   24.2446   45.3867 H   0  0  0  0  0  0  0  0  0  0  0  0
   55.8933   23.9792   47.1060 H   0  0  0  0  0  0  0  0  0  0  0  0
   55.8897   26.4079   46.3931 H   0  0  0  0  0  0  0  0  0  0  0  0
   56.9554   26.0481   47.7949 H   0  0  0  0  0  0  0  0  0  0  0  0
   56.6530   27.4660   43.9610 H   0  0  0  0  0  0  0  0  0  0  0  0
  1  2  1  0
  2  3  1  0
  3  4  1  0
  4  5  1  0
  5  6  1  0
  6  7  1  0
  7  8  1  0
  8  9  1  0
  9 10  1  0
 10 11  1  0
 11 12  1  0
 12 13  2  0
 12 14  1  0
 14 15  2  0
 15 16  1  0
 16 17  1  0
 17 18  1  0
 18 19  1  0
 19 20  1  0
 20 21  1  0
 15 22  1  0
 22 23  1  0
 23 24  2  0
 23 11  1  0
 21 16  1  0
  1 25  1  0
  1 26  1  0
  1 27  1  0
  2 28  1  0
  2 29  1  0
  3 30  1  0
  3 31  1  0
  4 32  1  0
  4 33  1  0
  5 34  1  0
  5 35  1  0
  6 36  1  0
  6 37  1  0
  7 38  1  0
  7 39  1  0
  8 40  1  0
  8 41  1  0
  9 42  1  0
  9 43  1  0
 10 44  1  0
 10 45  1  0
 14 46  1  0
 17 47  1  0
 17 48  1  0
 18 49  1  0
 18 50  1  0
 20 51  1  0
 20 52  1  0
 21 53  1  0
 21 54  1  0
 22 55  1  0
M  END
>  <UniqueID>  (69) 
64

>  <SMILES>  (69) 
CCCCCCCCCCn1c(=O)cc(N2CCOCC2)[nH]c1=O

>  <Energy>  (69) 
47.10221528669085

>  <Genealogy>  (69) 
CCCCCCCCCCn1c(=O)cc(N2CCOCC2)[nH]c1=O (3D coordinates assigned)
CCCCCCCCCCn1c(=O)cc(N2CCOCC2)[nH]c1=O (nonaromatic ring conformer: 47.10221528669085 kcal/mol)

>  <smiles>  (69) 
CCCCCCCCCCn1c(=O)cc(N2CCOCC2)[nH]c1=O

>  <score_type>  (69) 
oracle

>  <origin>  (69) 
adg

>  <m_score__min__energy>  (69) 
-6.75

>  <m_primary>  (69) 
energy

$$$$
69:0
     RDKit          3D

 36 38  0  0  0  0  0  0  0  0999 V2000
   56.2410   34.2830   45.9970 H   0  0  0  0  0  0  0  0  0  0  0  0
   56.9090   33.8280   45.3880 O   0  0  0  0  0  0  0  0  0  0  0  0
   57.2670   32.4960   45.5840 C   0  0  0  0  0  0  0  0  0  0  0  0
   56.7530   31.5390   44.7740 N   0  0  0  0  0  0  0  0  0  0  0  0
   57.1000   30.2340   44.9060 C   0  0  0  0  0  0  0  0  0  0  0  0
   56.5990   29.3850   44.1190 O   0  0  0  0  0  0  0  0  0  0  0  0
   57.9970   29.8520   45.8700 N   0  0  0  0  0  0  0  0  0  0  0  0
   58.3710   28.4640   46.0000 C   0  0  0  0  0  0  0  0  0  0  0  0
   59.7170   28.0790   45.8800 C   0  0  0  0  0  0  0  0  0  0  0  0
   60.4893   28.8382   45.6872 H   0  0  0  0  0  0  0  0  0  0  0  0
   60.0780   26.7330   46.0050 C   0  0  0  0  0  0  0  0  0  0  0  0
   61.1326   26.4353   45.9096 H   0  0  0  0  0  0  0  0  0  0  0  0
   59.0990   25.7670   46.2510 C   0  0  0  0  0  0  0  0  0  0  0  0
   59.3842   24.7092   46.3496 H   0  0  0  0  0  0  0  0  0  0  0  0
   57.7580   26.1420   46.3720 C   0  0  0  0  0  0  0  0  0  0  0  0
   56.9889   25.3797   46.5655 H   0  0  0  0  0  0  0  0  0  0  0  0
   57.3940   27.4870   46.2470 C   0  0  0  0  0  0  0  0  0  0  0  0
   56.3381   27.7800   46.3427 H   0  0  0  0  0  0  0  0  0  0  0  0
   58.5360   30.7910   46.7130 C   0  0  0  0  0  0  0  0  0  0  0  0
   59.3560   30.4460   47.6100 O   0  0  0  0  0  0  0  0  0  0  0  0
   58.1650   32.1400   46.5980 C   0  0  0  0  0  0  0  0  0  0  0  0
   58.7620   33.1600   47.4870 C   0  0  0  0  0  0  0  0  0  0  0  0
   58.3046   33.3230   48.4740 H   0  0  0  0  0  0  0  0  0  0  0  0
   59.8350   33.8990   47.1520 C   0  0  0  0  0  0  0  0  0  0  0  0
   59.6630   35.3310   46.1300 Cl  0  0  0  0  0  0  0  0  0  0  0  0
   61.1860   33.5590   47.6600 C   0  0  0  0  0  0  0  0  0  0  0  0
   61.7410   34.2300   48.7700 C   0  0  0  0  0  0  0  0  0  0  0  0
   61.1630   35.0158   49.2783 H   0  0  0  0  0  0  0  0  0  0  0  0
   63.0200   33.9030   49.2280 C   0  0  0  0  0  0  0  0  0  0  0  0
   63.4424   34.4282   50.0973 H   0  0  0  0  0  0  0  0  0  0  0  0
   63.7640   32.9100   48.5840 C   0  0  0  0  0  0  0  0  0  0  0  0
   64.7693   32.6520   48.9484 H   0  0  0  0  0  0  0  0  0  0  0  0
   63.2300   32.2460   47.4780 C   0  0  0  0  0  0  0  0  0  0  0  0
   63.8171   31.4674   46.9690 H   0  0  0  0  0  0  0  0  0  0  0  0
   61.9500   32.5690   47.0160 C   0  0  0  0  0  0  0  0  0  0  0  0
   61.5373   32.0444   46.1417 H   0  0  0  0  0  0  0  0  0  0  0  0
  1  2  1  0
  2  3  1  0
  3  4  1  0
  4  5  1  0
  5  6  2  0
  5  7  1  0
  7  8  1  0
  8  9  2  0
  9 10  1  0
  9 11  1  0
 11 12  1  0
 11 13  2  0
 13 14  1  0
 13 15  1  0
 15 16  1  0
 15 17  2  0
 17 18  1  0
  7 19  1  0
 19 20  2  0
 19 21  1  0
 21 22  1  0
 22 23  1  0
 22 24  2  0
 24 25  1  0
 24 26  1  0
 26 27  2  0
 27 28  1  0
 27 29  1  0
 29 30  1  0
 29 31  2  0
 31 32  1  0
 31 33  1  0
 33 34  1  0
 33 35  2  0
 35 36  1  0
 21  3  2  0
 35 26  1  0
 17  8  1  0
M  CHG  1   4  -1
M  END
>  <UniqueID>  (70) 
65

>  <SMILES>  (70) 
O=c1[n-]c(O)c(/C=C(\Cl)c2ccccc2)c(=O)n1-c1ccccc1

>  <Energy>  (70) 
62.0241399710263

>  <Genealogy>  (70) 
O=c1[n-]c(O)c(C=C(Cl)c2ccccc2)c(=O)n1-c1ccccc1 (protonated)
O=c1[n-]c(O)c(/C=C(\Cl)c2ccccc2)c(=O)n1-c1ccccc1 (cis-trans isomerization)
O=c1[n-]c(O)c(/C=C(\Cl)c2ccccc2)c(=O)n1-c1ccccc1 (3D coordinates assigned)
O=c1[n-]c(O)c(/C=C(\Cl)c2ccccc2)c(=O)n1-c1ccccc1 (optimized conformer: 62.0241399710263 kcal/mol)

>  <smiles>  (70) 
O=c1[nH]c(O)c(C=C(Cl)c2ccccc2)c(=O)n1-c1ccccc1

>  <score_type>  (70) 
oracle

>  <origin>  (70) 
adg

>  <m_score__min__energy>  (70) 
-9.1500000000000004

>  <m_primary>  (70) 
energy

$$$$
70:0
     RDKit          3D

 60 63  0  0  0  0  0  0  0  0999 V2000
   60.0930   28.0630   45.0160 C   0  0  0  0  0  0  0  0  0  0  0  0
   58.9490   28.9520   44.6500 C   0  0  0  0  0  0  0  0  0  0  0  0
   59.1120   30.1790   44.1170 N   0  0  0  0  0  0  0  0  0  0  0  0
   57.9130   30.7310   43.9810 N   0  0  0  0  0  0  0  0  0  0  0  0
   57.7150   32.0850   43.4670 C   0  0  0  0  0  0  0  0  0  0  0  0
   58.1050   33.0950   44.5090 C   0  0  0  0  0  0  0  0  0  0  0  0
   59.2610   33.8750   44.3390 C   0  0  0  0  0  0  0  0  0  0  0  0
   59.6440   34.7930   45.3230 C   0  0  0  0  0  0  0  0  0  0  0  0
   58.8820   34.9300   46.4870 C   0  0  0  0  0  0  0  0  0  0  0  0
   57.7380   34.1480   46.6690 C   0  0  0  0  0  0  0  0  0  0  0  0
   57.3510   33.2310   45.6870 C   0  0  0  0  0  0  0  0  0  0  0  0
   56.9670   29.8780   44.4350 C   0  0  0  0  0  0  0  0  0  0  0  0
   55.4920   30.1450   44.4570 C   0  0  0  0  0  0  0  0  0  0  0  0
   57.5930   28.7180   44.8350 C   0  0  0  0  0  0  0  0  0  0  0  0
   56.9500   27.5900   45.4430 N   0  0  0  0  0  0  0  0  0  0  0  0
   57.6060   26.3990   45.8930 C   0  0  0  0  0  0  0  0  0  0  0  0
   57.7260   25.4070   45.1270 O   0  0  0  0  0  0  0  0  0  0  0  0
   58.0810   26.3040   47.2350 N   0  0  0  0  0  0  0  0  0  0  0  0
   59.4970   26.2030   47.5630 C   0  0  0  0  0  0  0  0  0  0  0  0
   59.9010   27.3860   48.3940 C   0  0  0  0  0  0  0  0  0  0  0  0
   60.7050   27.2140   49.5320 C   0  0  0  0  0  0  0  0  0  0  0  0
   61.1130   28.3220   50.2780 C   0  0  0  0  0  0  0  0  0  0  0  0
   60.7330   29.6090   49.8890 C   0  0  0  0  0  0  0  0  0  0  0  0
   59.9360   29.7940   48.7510 C   0  0  0  0  0  0  0  0  0  0  0  0
   59.5010   31.4210   48.2350 S   0  0  0  0  0  0  0  0  0  0  0  0
   58.2640   31.3670   47.3800 O   0  0  0  0  0  0  0  0  0  0  0  0
   59.2090   32.2620   49.4470 O   0  0  0  0  0  0  0  0  0  0  0  0
   60.8320   32.1190   47.3480 N   0  0  0  0  0  0  0  0  0  0  0  0
   61.3260   33.3320   47.9970 C   0  0  0  0  0  0  0  0  0  0  0  0
   62.7990   33.4540   47.6320 C   0  0  0  0  0  0  0  0  0  0  0  0
   63.2080   32.0770   47.1330 C   0  0  0  0  0  0  0  0  0  0  0  0
   61.9730   31.2080   47.3000 C   0  0  0  0  0  0  0  0  0  0  0  0
   59.5300   28.6820   48.0000 C   0  0  0  0  0  0  0  0  0  0  0  0
   60.1731   28.0007   46.1113 H   0  0  0  0  0  0  0  0  0  0  0  0
   59.9229   27.0577   44.6031 H   0  0  0  0  0  0  0  0  0  0  0  0
   61.0251   28.4761   44.6031 H   0  0  0  0  0  0  0  0  0  0  0  0
   58.3364   32.2284   42.5707 H   0  0  0  0  0  0  0  0  0  0  0  0
   56.6537   32.2218   43.2124 H   0  0  0  0  0  0  0  0  0  0  0  0
   59.8677   33.7635   43.4283 H   0  0  0  0  0  0  0  0  0  0  0  0
   60.5453   35.4073   45.1806 H   0  0  0  0  0  0  0  0  0  0  0  0
   59.1827   35.6531   47.2595 H   0  0  0  0  0  0  0  0  0  0  0  0
   57.1409   34.2542   47.5867 H   0  0  0  0  0  0  0  0  0  0  0  0
   56.4530   32.6137   45.8371 H   0  0  0  0  0  0  0  0  0  0  0  0
   55.1462   30.2076   45.4994 H   0  0  0  0  0  0  0  0  0  0  0  0
   55.2837   31.0954   43.9439 H   0  0  0  0  0  0  0  0  0  0  0  0
   54.9638   29.3279   43.9439 H   0  0  0  0  0  0  0  0  0  0  0  0
   59.6776   25.2775   48.1295 H   0  0  0  0  0  0  0  0  0  0  0  0
   60.0889   26.1853   46.6360 H   0  0  0  0  0  0  0  0  0  0  0  0
   61.0146   26.2035   49.8370 H   0  0  0  0  0  0  0  0  0  0  0  0
   61.7351   28.1810   51.1741 H   0  0  0  0  0  0  0  0  0  0  0  0
   61.0601   30.4791   50.4772 H   0  0  0  0  0  0  0  0  0  0  0  0
   60.7713   34.2095   47.6332 H   0  0  0  0  0  0  0  0  0  0  0  0
   61.1913   33.2804   49.0875 H   0  0  0  0  0  0  0  0  0  0  0  0
   62.9385   34.2065   46.8419 H   0  0  0  0  0  0  0  0  0  0  0  0
   63.4074   33.7749   48.4904 H   0  0  0  0  0  0  0  0  0  0  0  0
   63.5066   32.1233   46.0753 H   0  0  0  0  0  0  0  0  0  0  0  0
   64.0690   31.6779   47.6892 H   0  0  0  0  0  0  0  0  0  0  0  0
   61.8744   30.5191   46.4481 H   0  0  0  0  0  0  0  0  0  0  0  0
   62.0350   30.5976   48.2130 H   0  0  0  0  0  0  0  0  0  0  0  0
   58.9177   28.8253   47.0975 H   0  0  0  0  0  0  0  0  0  0  0  0
  1  2  1  0
  2  3  2  0
  3  4  1  0
  4  5  1  0
  5  6  1  0
  6  7  2  0
  7  8  1  0
  8  9  2  0
  9 10  1  0
 10 11  2  0
  4 12  1  0
 12 13  1  0
 12 14  2  0
 14 15  1  0
 15 16  1  0
 16 17  2  0
 16 18  1  0
 18 19  1  0
 19 20  1  0
 20 21  2  0
 21 22  1  0
 22 23  2  0
 23 24  1  0
 24 25  1  0
 25 26  2  0
 25 27  2  0
 25 28  1  0
 28 29  1  0
 29 30  1  0
 30 31  1  0
 31 32  1  0
 24 33  2  0
 14  2  1  0
 33 20  1  0
 11  6  1  0
 32 28  1  0
  1 34  1  0
  1 35  1  0
  1 36  1  0
  5 37  1  0
  5 38  1  0
  7 39  1  0
  8 40  1  0
  9 41  1  0
 10 42  1  0
 11 43  1  0
 13 44  1  0
 13 45  1  0
 13 46  1  0
 19 47  1  0
 19 48  1  0
 21 49  1  0
 22 50  1  0
 23 51  1  0
 29 52  1  0
 29 53  1  0
 30 54  1  0
 30 55  1  0
 31 56  1  0
 31 57  1  0
 32 58  1  0
 32 59  1  0
 33 60  1  0
M  CHG  2  15  -1  18  -1
M  END
>  <UniqueID>  (71) 
66

>  <SMILES>  (71) 
Cc1nn(Cc2ccccc2)c(C)c1[N-]C(=O)[N-]Cc1cccc(S(=O)(=O)N2CCCC2)c1

>  <Energy>  (71) 
92.8777278717966

>  <Genealogy>  (71) 
Cc1nn(Cc2ccccc2)c(C)c1[N-]C(=O)[N-]Cc1cccc(S(=O)(=O)N2CCCC2)c1 (protonated)
Cc1nn(Cc2ccccc2)c(C)c1[N-]C(=O)[N-]Cc1cccc(S(=O)(=O)N2CCCC2)c1 (3D coordinates assigned)
Cc1nn(Cc2ccccc2)c(C)c1[N-]C(=O)[N-]Cc1cccc(S(=O)(=O)N2CCCC2)c1 (nonaromatic ring conformer: 92.8777278717966 kcal/mol)

>  <smiles>  (71) 
Cc1nn(Cc2ccccc2)c(C)c1NC(=O)NCc1cccc(S(=O)(=O)N2CCCC2)c1

>  <score_type>  (71) 
oracle

>  <origin>  (71) 
adg

>  <m_score__min__energy>  (71) 
-13.699999999999999

>  <m_primary>  (71) 
energy

$$$$
71:0
     RDKit          3D

 42 44  0  0  0  0  0  0  0  0999 V2000
   63.8850   33.5240   47.5150 C   0  0  0  0  0  0  0  0  0  0  0  0
   62.4540   33.6600   47.9410 C   0  0  0  0  0  0  0  0  0  0  0  0
   62.1380   34.1790   49.2040 C   0  0  0  0  0  0  0  0  0  0  0  0
   60.8070   34.2680   49.6140 C   0  0  0  0  0  0  0  0  0  0  0  0
   59.7800   33.8340   48.7720 C   0  0  0  0  0  0  0  0  0  0  0  0
   60.0760   33.3020   47.5040 C   0  0  0  0  0  0  0  0  0  0  0  0
   59.0060   32.8240   46.5950 C   0  0  0  0  0  0  0  0  0  0  0  0
   57.8620   33.3500   46.6700 O   0  0  0  0  0  0  0  0  0  0  0  0
   59.2540   31.7810   45.6320 N   0  0  0  0  0  0  0  0  0  0  0  0
   58.2170   31.1100   44.8940 C   0  0  0  0  0  0  0  0  0  0  0  0
   57.9680   31.4840   43.5660 C   0  0  0  0  0  0  0  0  0  0  0  0
   56.9820   30.8320   42.8220 C   0  0  0  0  0  0  0  0  0  0  0  0
   56.2550   29.7830   43.3880 C   0  0  0  0  0  0  0  0  0  0  0  0
   56.5220   29.3620   44.6960 C   0  0  0  0  0  0  0  0  0  0  0  0
   55.7650   28.2710   45.2410 N   0  0  0  0  0  0  0  0  0  0  0  0
   56.2960   27.0930   45.8640 C   0  0  0  0  0  0  0  0  0  0  0  0
   55.5430   26.0930   46.0010 O   0  0  0  0  0  0  0  0  0  0  0  0
   57.7120   27.0020   46.2930 C   0  0  0  0  0  0  0  0  0  0  0  0
   58.1780   27.7750   47.3730 C   0  0  0  0  0  0  0  0  0  0  0  0
   59.5100   27.6850   47.7840 C   0  0  0  0  0  0  0  0  0  0  0  0
   60.3920   26.8310   47.1220 C   0  0  0  0  0  0  0  0  0  0  0  0
   59.9450   26.0670   46.0400 C   0  0  0  0  0  0  0  0  0  0  0  0
   58.6130   26.1520   45.6220 C   0  0  0  0  0  0  0  0  0  0  0  0
   58.2010   25.3830   44.5820 F   0  0  0  0  0  0  0  0  0  0  0  0
   57.4940   30.0400   45.4530 C   0  0  0  0  0  0  0  0  0  0  0  0
   61.4220   33.2040   47.1040 C   0  0  0  0  0  0  0  0  0  0  0  0
   64.5283   33.4629   48.4052 H   0  0  0  0  0  0  0  0  0  0  0  0
   64.0033   32.6106   46.9136 H   0  0  0  0  0  0  0  0  0  0  0  0
   64.1733   34.3988   46.9136 H   0  0  0  0  0  0  0  0  0  0  0  0
   62.9418   34.5173   49.8744 H   0  0  0  0  0  0  0  0  0  0  0  0
   60.5654   34.6816   50.6042 H   0  0  0  0  0  0  0  0  0  0  0  0
   58.7336   33.9088   49.1027 H   0  0  0  0  0  0  0  0  0  0  0  0
   60.2360   31.4970   45.4280 H   0  0  0  0  0  0  0  0  0  0  0  0
   58.5523   32.2954   43.1075 H   0  0  0  0  0  0  0  0  0  0  0  0
   56.7778   31.1457   41.7877 H   0  0  0  0  0  0  0  0  0  0  0  0
   55.4681   29.2846   42.8029 H   0  0  0  0  0  0  0  0  0  0  0  0
   57.4891   28.4541   47.8966 H   0  0  0  0  0  0  0  0  0  0  0  0
   59.8643   28.2893   48.6321 H   0  0  0  0  0  0  0  0  0  0  0  0
   61.4391   26.7587   47.4512 H   0  0  0  0  0  0  0  0  0  0  0  0
   60.6427   25.3972   45.5160 H   0  0  0  0  0  0  0  0  0  0  0  0
   57.6907   29.7315   46.4904 H   0  0  0  0  0  0  0  0  0  0  0  0
   61.6684   32.7657   46.1256 H   0  0  0  0  0  0  0  0  0  0  0  0
  1  2  1  0
  2  3  2  0
  3  4  1  0
  4  5  2  0
  5  6  1  0
  6  7  1  0
  7  8  2  0
  7  9  1  0
  9 10  1  0
 10 11  2  0
 11 12  1  0
 12 13  2  0
 13 14  1  0
 14 15  1  0
 15 16  1  0
 16 17  2  0
 16 18  1  0
 18 19  2  0
 19 20  1  0
 20 21  2  0
 21 22  1  0
 22 23  2  0
 23 24  1  0
 14 25  2  0
  6 26  2  0
 26  2  1  0
 25 10  1  0
 23 18  1  0
  1 27  1  0
  1 28  1  0
  1 29  1  0
  3 30  1  0
  4 31  1  0
  5 32  1  0
  9 33  1  0
 11 34  1  0
 12 35  1  0
 13 36  1  0
 19 37  1  0
 20 38  1  0
 21 39  1  0
 22 40  1  0
 25 41  1  0
 26 42  1  0
M  CHG  1  15  -1
M  END
>  <UniqueID>  (72) 
67

>  <SMILES>  (72) 
Cc1cccc(C(=O)Nc2cccc([N-]C(=O)c3ccccc3F)c2)c1

>  <Energy>  (72) 
58.15687972177207

>  <Genealogy>  (72) 
Cc1cccc(C(=O)Nc2cccc([N-]C(=O)c3ccccc3F)c2)c1 (protonated)
Cc1cccc(C(=O)Nc2cccc([N-]C(=O)c3ccccc3F)c2)c1 (3D coordinates assigned)
Cc1cccc(C(=O)Nc2cccc([N-]C(=O)c3ccccc3F)c2)c1 (optimized conformer: 58.15687972177207 kcal/mol)

>  <smiles>  (72) 
Cc1cccc(C(=O)Nc2cccc(NC(=O)c3ccccc3F)c2)c1

>  <score_type>  (72) 
oracle

>  <origin>  (72) 
adg

>  <m_score__min__energy>  (72) 
-11.15

>  <m_primary>  (72) 
energy

$$$$
72:0
     RDKit          3D

 34 35  0  0  0  0  0  0  0  0999 V2000
   55.6060   28.8510   44.8570 N   0  0  0  0  0  0  0  0  0  0  0  0
   56.3200   29.9890   44.3730 C   0  0  0  0  0  0  0  0  0  0  0  0
   56.4490   30.2150   42.9990 C   0  0  0  0  0  0  0  0  0  0  0  0
   57.1560   31.3420   42.5730 C   0  0  0  0  0  0  0  0  0  0  0  0
   57.2980   31.5740   41.3440 O   0  0  0  0  0  0  0  0  0  0  0  0
   57.6900   32.1920   43.4880 N   0  0  0  0  0  0  0  0  0  0  0  0
   57.5460   31.9620   44.8200 C   0  0  0  0  0  0  0  0  0  0  0  0
   58.2210   33.1220   46.0080 S   0  0  0  0  0  0  0  0  0  0  0  0
   58.8080   31.8380   47.1700 C   0  0  0  0  0  0  0  0  0  0  0  0
   60.2160   31.4470   46.8580 C   0  0  0  0  0  0  0  0  0  0  0  0
   61.1630   32.2210   47.1640 O   0  0  0  0  0  0  0  0  0  0  0  0
   60.4710   30.1930   46.2140 N   0  0  0  0  0  0  0  0  0  0  0  0
   59.5660   29.0840   46.1080 C   0  0  0  0  0  0  0  0  0  0  0  0
   58.9190   28.6350   47.2660 C   0  0  0  0  0  0  0  0  0  0  0  0
   57.9820   27.6000   47.2000 C   0  0  0  0  0  0  0  0  0  0  0  0
   57.6760   27.0040   45.9700 C   0  0  0  0  0  0  0  0  0  0  0  0
   56.4690   25.7270   45.8740 S   0  0  0  0  0  0  0  0  0  0  0  0
   56.6960   24.8350   44.4120 N   0  0  0  0  0  0  0  0  0  0  0  0
   56.6090   24.8090   47.0570 O   0  0  0  0  0  0  0  0  0  0  0  0
   55.0900   26.3250   45.8860 O   0  0  0  0  0  0  0  0  0  0  0  0
   58.3060   27.4620   44.8050 C   0  0  0  0  0  0  0  0  0  0  0  0
   59.2410   28.4980   44.8700 C   0  0  0  0  0  0  0  0  0  0  0  0
   56.8730   30.8650   45.2520 N   0  0  0  0  0  0  0  0  0  0  0  0
   54.7760   28.9620   45.4810 H   0  0  0  0  0  0  0  0  0  0  0  0
   55.9200   27.8870   44.6050 H   0  0  0  0  0  0  0  0  0  0  0  0
   56.0040   29.5213   42.2704 H   0  0  0  0  0  0  0  0  0  0  0  0
   58.7614   32.2313   48.1962 H   0  0  0  0  0  0  0  0  0  0  0  0
   58.1647   30.9512   47.0715 H   0  0  0  0  0  0  0  0  0  0  0  0
   59.1501   29.1007   48.2354 H   0  0  0  0  0  0  0  0  0  0  0  0
   57.4834   27.2525   48.1168 H   0  0  0  0  0  0  0  0  0  0  0  0
   57.6900   24.5130   44.4010 H   0  0  0  0  0  0  0  0  0  0  0  0
   56.5850   25.5100   43.6210 H   0  0  0  0  0  0  0  0  0  0  0  0
   58.0632   27.0037   43.8349 H   0  0  0  0  0  0  0  0  0  0  0  0
   59.7252   28.8573   43.9500 H   0  0  0  0  0  0  0  0  0  0  0  0
  1  2  1  0
  2  3  2  0
  3  4  1  0
  4  5  2  0
  4  6  1  0
  6  7  1  0
  7  8  1  0
  8  9  1  0
  9 10  1  0
 10 11  2  0
 10 12  1  0
 12 13  1  0
 13 14  2  0
 14 15  1  0
 15 16  2  0
 16 17  1  0
 17 18  1  0
 17 19  2  0
 17 20  2  0
 16 21  1  0
 21 22  2  0
  7 23  2  0
 23  2  1  0
 22 13  1  0
  1 24  1  0
  1 25  1  0
  3 26  1  0
  9 27  1  0
  9 28  1  0
 14 29  1  0
 15 30  1  0
 18 31  1  0
 18 32  1  0
 21 33  1  0
 22 34  1  0
M  CHG  2   6  -1  12  -1
M  END
>  <UniqueID>  (73) 
68

>  <SMILES>  (73) 
Nc1cc(=O)[n-]c(SCC(=O)[N-]c2ccc(S(N)(=O)=O)cc2)n1

>  <Energy>  (73) 
29.283177270326078

>  <Genealogy>  (73) 
Nc1cc(=O)[n-]c(SCC(=O)[N-]c2ccc(S(N)(=O)=O)cc2)n1 (protonated)
Nc1cc(=O)[n-]c(SCC(=O)[N-]c2ccc(S(N)(=O)=O)cc2)n1 (3D coordinates assigned)
Nc1cc(=O)[n-]c(SCC(=O)[N-]c2ccc(S(N)(=O)=O)cc2)n1 (optimized conformer: 29.283177270326078 kcal/mol)

>  <smiles>  (73) 
Nc1cc(=O)[nH]c(SCC(=O)Nc2ccc(S(N)(=O)=O)cc2)n1

>  <score_type>  (73) 
oracle

>  <origin>  (73) 
adg

>  <m_score__min__energy>  (73) 
-10.720000000000001

>  <m_primary>  (73) 
energy

$$$$
73:0
     RDKit          3D

 52 55  0  0  0  0  0  0  0  0999 V2000
   60.1818   26.0613   47.1260 H   0  0  0  0  0  0  0  0  0  0  0  0
   59.1230   26.1900   46.8570 C   0  0  0  0  0  0  0  0  0  0  0  0
   58.7770   27.0200   45.8370 N   0  0  0  0  0  0  0  0  0  0  0  0
   57.4770   27.2100   45.4680 C   0  0  0  0  0  0  0  0  0  0  0  0
   57.1630   28.0110   44.4910 N   0  0  0  0  0  0  0  0  0  0  0  0
   56.4810   29.2740   44.5820 C   0  0  0  0  0  0  0  0  0  0  0  0
   55.4120   29.3800   45.2460 O   0  0  0  0  0  0  0  0  0  0  0  0
   57.0390   30.4650   43.8980 C   0  0  0  0  0  0  0  0  0  0  0  0
   56.8850   30.6290   42.5100 C   0  0  0  0  0  0  0  0  0  0  0  0
   56.3512   29.8650   41.9257 H   0  0  0  0  0  0  0  0  0  0  0  0
   57.4050   31.7550   41.8680 C   0  0  0  0  0  0  0  0  0  0  0  0
   57.2778   31.8742   40.7819 H   0  0  0  0  0  0  0  0  0  0  0  0
   58.0850   32.7290   42.5990 C   0  0  0  0  0  0  0  0  0  0  0  0
   58.4880   33.6158   42.0879 H   0  0  0  0  0  0  0  0  0  0  0  0
   58.2570   32.5820   43.9840 C   0  0  0  0  0  0  0  0  0  0  0  0
   59.0020   33.6310   44.7650 C   0  0  0  0  0  0  0  0  0  0  0  0
   58.4797   34.5942   44.6675 H   0  0  0  0  0  0  0  0  0  0  0  0
   60.0242   33.7126   44.3669 H   0  0  0  0  0  0  0  0  0  0  0  0
   59.0720   33.2630   46.1750 N   0  0  0  0  0  0  0  0  0  0  0  0
   59.6490   34.0990   47.1860 C   0  0  0  0  0  0  0  0  0  0  0  0
   59.1020   35.1990   47.4760 O   0  0  0  0  0  0  0  0  0  0  0  0
   60.8780   33.6710   47.8930 C   0  0  0  0  0  0  0  0  0  0  0  0
   60.9040   33.5810   49.2940 C   0  0  0  0  0  0  0  0  0  0  0  0
   60.0026   33.8307   49.8729 H   0  0  0  0  0  0  0  0  0  0  0  0
   62.0650   33.1770   49.9600 C   0  0  0  0  0  0  0  0  0  0  0  0
   62.0662   33.1051   51.0576 H   0  0  0  0  0  0  0  0  0  0  0  0
   63.2300   32.8620   49.2410 C   0  0  0  0  0  0  0  0  0  0  0  0
   64.4510   32.4250   49.9650 C   0  0  0  0  0  0  0  0  0  0  0  0
   65.5690   33.2040   49.9160 N   0  0  0  0  0  0  0  0  0  0  0  0
   66.7210   32.8710   50.5610 C   0  0  0  0  0  0  0  0  0  0  0  0
   67.9180   33.7630   50.4600 C   0  0  0  0  0  0  0  0  0  0  0  0
   68.2675   34.0234   51.4700 H   0  0  0  0  0  0  0  0  0  0  0  0
   68.7199   33.2405   49.9179 H   0  0  0  0  0  0  0  0  0  0  0  0
   67.6466   34.6809   49.9179 H   0  0  0  0  0  0  0  0  0  0  0  0
   66.7860   31.6820   51.2950 C   0  0  0  0  0  0  0  0  0  0  0  0
   67.7120   31.4009   51.8180 H   0  0  0  0  0  0  0  0  0  0  0  0
   65.6630   30.8570   51.3560 C   0  0  0  0  0  0  0  0  0  0  0  0
   65.7009   29.9192   51.9296 H   0  0  0  0  0  0  0  0  0  0  0  0
   64.4910   31.2200   50.6900 C   0  0  0  0  0  0  0  0  0  0  0  0
   63.6055   30.5688   50.7318 H   0  0  0  0  0  0  0  0  0  0  0  0
   63.2010   32.9440   47.8370 C   0  0  0  0  0  0  0  0  0  0  0  0
   64.1007   32.6885   47.2580 H   0  0  0  0  0  0  0  0  0  0  0  0
   62.0400   33.3470   47.1700 C   0  0  0  0  0  0  0  0  0  0  0  0
   62.0355   33.4111   46.0719 H   0  0  0  0  0  0  0  0  0  0  0  0
   57.7300   31.4500   44.6270 C   0  0  0  0  0  0  0  0  0  0  0  0
   57.8590   31.3322   45.7130 H   0  0  0  0  0  0  0  0  0  0  0  0
   56.4610   26.5330   46.1590 C   0  0  0  0  0  0  0  0  0  0  0  0
   55.1250   26.7070   45.8080 O   0  0  0  0  0  0  0  0  0  0  0  0
   56.7970   25.6750   47.2090 C   0  0  0  0  0  0  0  0  0  0  0  0
   56.0080   25.1377   47.7556 H   0  0  0  0  0  0  0  0  0  0  0  0
   58.1350   25.5010   47.5630 C   0  0  0  0  0  0  0  0  0  0  0  0
   58.4087   24.8284   48.3893 H   0  0  0  0  0  0  0  0  0  0  0  0
  1  2  1  0
  2  3  1  0
  3  4  1  0
  4  5  2  0
  5  6  1  0
  6  7  2  0
  6  8  1  0
  8  9  2  0
  9 10  1  0
  9 11  1  0
 11 12  1  0
 11 13  2  0
 13 14  1  0
 13 15  1  0
 15 16  1  0
 16 17  1  0
 16 18  1  0
 16 19  1  0
 19 20  1  0
 20 21  2  0
 20 22  1  0
 22 23  2  0
 23 24  1  0
 23 25  1  0
 25 26  1  0
 25 27  2  0
 27 28  1  0
 28 29  2  0
 29 30  1  0
 30 31  1  0
 31 32  1  0
 31 33  1  0
 31 34  1  0
 30 35  2  0
 35 36  1  0
 35 37  1  0
 37 38  1  0
 37 39  2  0
 39 40  1  0
 27 41  1  0
 41 42  1  0
 41 43  2  0
 43 44  1  0
 15 45  2  0
 45 46  1  0
  4 47  1  0
 47 48  1  0
 47 49  2  0
 49 50  1  0
 49 51  1  0
 51 52  1  0
 51  2  2  0
 45  8  1  0
 43 22  1  0
 39 28  1  0
M  CHG  3   3  -1  19  -1  48  -1
M  END
>  <UniqueID>  (74) 
69

>  <SMILES>  (74) 
Cc1cccc(-c2ccc(C(=O)[N-]Cc3cccc(C(=O)/N=c4\[n-]cccc4[O-])c3)cc2)n1

>  <Energy>  (74) 
63.51003344663369

>  <Genealogy>  (74) 
Cc1cccc(-c2ccc(C(=O)[N-]Cc3cccc(C(=O)N=c4[n-]cccc4[O-])c3)cc2)n1 (protonated)
Cc1cccc(-c2ccc(C(=O)[N-]Cc3cccc(C(=O)/N=c4\[n-]cccc4[O-])c3)cc2)n1 (cis-trans isomerization)
Cc1cccc(-c2ccc(C(=O)[N-]Cc3cccc(C(=O)/N=c4\[n-]cccc4[O-])c3)cc2)n1 (3D coordinates assigned)
Cc1cccc(-c2ccc(C(=O)[N-]Cc3cccc(C(=O)/N=c4\[n-]cccc4[O-])c3)cc2)n1 (optimized conformer: 63.51003344663369 kcal/mol)

>  <smiles>  (74) 
Cc1cccc(-c2ccc(C(=O)NCc3cccc(C(=O)N=c4[nH]cccc4O)c3)cc2)n1

>  <score_type>  (74) 
oracle

>  <origin>  (74) 
adg

>  <m_score__min__energy>  (74) 
-16.399999999999999

>  <m_primary>  (74) 
energy

$$$$
74:0
     RDKit          3D

 51 53  0  0  0  0  0  0  0  0999 V2000
   55.4660   23.1590   44.5640 C   0  0  0  0  0  0  0  0  0  0  0  0
   55.2800   24.3770   45.8470 S   0  0  0  0  0  0  0  0  0  0  0  0
   53.9830   25.1140   45.6530 O   0  0  0  0  0  0  0  0  0  0  0  0
   55.2540   23.6990   47.1890 O   0  0  0  0  0  0  0  0  0  0  0  0
   56.6280   25.5080   45.7800 C   0  0  0  0  0  0  0  0  0  0  0  0
   57.9410   25.0310   45.6960 C   0  0  0  0  0  0  0  0  0  0  0  0
   59.0140   25.9270   45.6390 C   0  0  0  0  0  0  0  0  0  0  0  0
   58.7830   27.3070   45.6480 C   0  0  0  0  0  0  0  0  0  0  0  0
   60.1720   28.3920   45.6750 Cl  0  0  0  0  0  0  0  0  0  0  0  0
   57.4580   27.7930   45.7010 C   0  0  0  0  0  0  0  0  0  0  0  0
   57.1690   29.1960   45.7240 N   0  0  0  0  0  0  0  0  0  0  0  0
   56.2940   29.8520   44.7970 C   0  0  0  0  0  0  0  0  0  0  0  0
   55.1650   29.3590   44.5240 O   0  0  0  0  0  0  0  0  0  0  0  0
   56.7050   31.1430   44.1570 C   0  0  0  0  0  0  0  0  0  0  0  0
   57.0340   32.1340   45.1340 O   0  0  0  0  0  0  0  0  0  0  0  0
   58.3240   32.3950   45.6230 C   0  0  0  0  0  0  0  0  0  0  0  0
   58.8880   33.6510   45.3670 C   0  0  0  0  0  0  0  0  0  0  0  0
   60.1770   33.9580   45.8120 C   0  0  0  0  0  0  0  0  0  0  0  0
   60.9220   33.0050   46.5190 C   0  0  0  0  0  0  0  0  0  0  0  0
   62.5470   33.3740   47.0930 S   0  0  0  0  0  0  0  0  0  0  0  0
   63.2630   34.2470   46.0990 O   0  0  0  0  0  0  0  0  0  0  0  0
   63.3070   32.0860   47.2410 O   0  0  0  0  0  0  0  0  0  0  0  0
   62.4630   34.1870   48.6370 N   0  0  0  0  0  0  0  0  0  0  0  0
   63.3810   33.5400   49.5950 C   0  0  0  0  0  0  0  0  0  0  0  0
   62.9780   33.8710   51.0430 C   0  0  0  0  0  0  0  0  0  0  0  0
   61.6560   33.4750   51.3910 O   0  0  0  0  0  0  0  0  0  0  0  0
   60.8080   33.2590   50.2740 C   0  0  0  0  0  0  0  0  0  0  0  0
   61.0670   34.2520   49.1280 C   0  0  0  0  0  0  0  0  0  0  0  0
   60.3610   31.7510   46.7900 C   0  0  0  0  0  0  0  0  0  0  0  0
   59.0700   31.4450   46.3480 C   0  0  0  0  0  0  0  0  0  0  0  0
   56.3920   26.8890   45.7860 C   0  0  0  0  0  0  0  0  0  0  0  0
   55.6173   22.1685   45.0179 H   0  0  0  0  0  0  0  0  0  0  0  0
   54.5600   23.1421   43.9404 H   0  0  0  0  0  0  0  0  0  0  0  0
   56.3357   23.4132   43.9404 H   0  0  0  0  0  0  0  0  0  0  0  0
   58.1301   23.9476   45.6747 H   0  0  0  0  0  0  0  0  0  0  0  0
   60.0441   25.5448   45.5869 H   0  0  0  0  0  0  0  0  0  0  0  0
   57.5846   30.9623   43.5217 H   0  0  0  0  0  0  0  0  0  0  0  0
   55.8593   31.5157   43.5605 H   0  0  0  0  0  0  0  0  0  0  0  0
   58.3107   34.4037   44.8100 H   0  0  0  0  0  0  0  0  0  0  0  0
   60.6072   34.9494   45.6068 H   0  0  0  0  0  0  0  0  0  0  0  0
   63.3446   32.4502   49.4502 H   0  0  0  0  0  0  0  0  0  0  0  0
   64.3997   33.9149   49.4169 H   0  0  0  0  0  0  0  0  0  0  0  0
   63.6792   33.3614   51.7202 H   0  0  0  0  0  0  0  0  0  0  0  0
   63.0119   34.9666   51.1354 H   0  0  0  0  0  0  0  0  0  0  0  0
   60.9740   32.2383   49.8989 H   0  0  0  0  0  0  0  0  0  0  0  0
   59.7715   33.4061   50.6117 H   0  0  0  0  0  0  0  0  0  0  0  0
   60.3873   34.0175   48.2955 H   0  0  0  0  0  0  0  0  0  0  0  0
   60.8914   35.2669   49.5141 H   0  0  0  0  0  0  0  0  0  0  0  0
   60.9385   31.0031   47.3532 H   0  0  0  0  0  0  0  0  0  0  0  0
   58.6353   30.4586   46.5673 H   0  0  0  0  0  0  0  0  0  0  0  0
   55.3612   27.2661   45.8581 H   0  0  0  0  0  0  0  0  0  0  0  0
  1  2  1  0
  2  3  2  0
  2  4  2  0
  2  5  1  0
  5  6  2  0
  6  7  1  0
  7  8  2  0
  8  9  1  0
  8 10  1  0
 10 11  1  0
 11 12  1  0
 12 13  2  0
 12 14  1  0
 14 15  1  0
 15 16  1  0
 16 17  2  0
 17 18  1  0
 18 19  2  0
 19 20  1  0
 20 21  2  0
 20 22  2  0
 20 23  1  0
 23 24  1  0
 24 25  1  0
 25 26  1  0
 26 27  1  0
 27 28  1  0
 19 29  1  0
 29 30  2  0
 10 31  2  0
 31  5  1  0
 30 16  1  0
 28 23  1  0
  1 32  1  0
  1 33  1  0
  1 34  1  0
  6 35  1  0
  7 36  1  0
 14 37  1  0
 14 38  1  0
 17 39  1  0
 18 40  1  0
 24 41  1  0
 24 42  1  0
 25 43  1  0
 25 44  1  0
 27 45  1  0
 27 46  1  0
 28 47  1  0
 28 48  1  0
 29 49  1  0
 30 50  1  0
 31 51  1  0
M  CHG  1  11  -1
M  END
>  <UniqueID>  (75) 
70

>  <SMILES>  (75) 
CS(=O)(=O)c1ccc(Cl)c([N-]C(=O)COc2ccc(S(=O)(=O)N3CCOCC3)cc2)c1

>  <Energy>  (75) 
67.79867457779572

>  <Genealogy>  (75) 
CS(=O)(=O)c1ccc(Cl)c([N-]C(=O)COc2ccc(S(=O)(=O)N3CCOCC3)cc2)c1 (protonated)
CS(=O)(=O)c1ccc(Cl)c([N-]C(=O)COc2ccc(S(=O)(=O)N3CCOCC3)cc2)c1 (3D coordinates assigned)
CS(=O)(=O)c1ccc(Cl)c([N-]C(=O)COc2ccc(S(=O)(=O)N3CCOCC3)cc2)c1 (nonaromatic ring conformer: 67.79867457779572 kcal/mol)

>  <smiles>  (75) 
CS(=O)(=O)c1ccc(Cl)c(NC(=O)COc2ccc(S(=O)(=O)N3CCOCC3)cc2)c1

>  <score_type>  (75) 
oracle

>  <origin>  (75) 
adg

>  <m_score__min__energy>  (75) 
-11.25

>  <m_primary>  (75) 
energy

$$$$
75:0
     RDKit          3D

 45 46  0  0  0  0  0  0  0  0999 V2000
   63.2080   31.5690   48.1550 H   0  0  0  0  0  0  0  0  0  0  0  0
   62.9340   32.4250   47.6880 O   0  0  0  0  0  0  0  0  0  0  0  0
   61.6630   32.5990   47.1400 C   0  0  0  0  0  0  0  0  0  0  0  0
   61.3480   33.8220   46.5380 C   0  0  0  0  0  0  0  0  0  0  0  0
   62.0996   34.6245   46.5062 H   0  0  0  0  0  0  0  0  0  0  0  0
   60.0880   34.0310   45.9780 C   0  0  0  0  0  0  0  0  0  0  0  0
   59.8427   35.0034   45.5260 H   0  0  0  0  0  0  0  0  0  0  0  0
   59.1340   33.0050   45.9900 C   0  0  0  0  0  0  0  0  0  0  0  0
   57.7840   33.2210   45.4440 C   0  0  0  0  0  0  0  0  0  0  0  0
   57.3921   34.2488   45.4465 H   0  0  0  0  0  0  0  0  0  0  0  0
   56.9970   32.2580   44.9440 C   0  0  0  0  0  0  0  0  0  0  0  0
   55.9149   32.3548   45.1166 H   0  0  0  0  0  0  0  0  0  0  0  0
   57.4560   31.0740   44.1790 C   0  0  0  0  0  0  0  0  0  0  0  0
   58.4760   31.1320   43.4440 O   0  0  0  0  0  0  0  0  0  0  0  0
   56.6640   29.8290   44.1910 C   0  0  0  0  0  0  0  0  0  0  0  0
   56.1717   29.5197   43.2572 H   0  0  0  0  0  0  0  0  0  0  0  0
   56.5090   29.0520   45.2740 C   0  0  0  0  0  0  0  0  0  0  0  0
   55.8388   29.4020   46.0730 H   0  0  0  0  0  0  0  0  0  0  0  0
   57.1900   27.7500   45.4530 C   0  0  0  0  0  0  0  0  0  0  0  0
   56.4380   26.6170   45.8060 C   0  0  0  0  0  0  0  0  0  0  0  0
   55.0600   26.7110   45.9770 O   0  0  0  0  0  0  0  0  0  0  0  0
   57.0690   25.3870   46.0030 C   0  0  0  0  0  0  0  0  0  0  0  0
   56.4739   24.5062   46.2858 H   0  0  0  0  0  0  0  0  0  0  0  0
   58.4600   25.2680   45.8420 C   0  0  0  0  0  0  0  0  0  0  0  0
   59.1400   24.0570   46.0440 O   0  0  0  0  0  0  0  0  0  0  0  0
   58.9810   22.9000   45.2290 C   0  0  0  0  0  0  0  0  0  0  0  0
   58.8593   22.0141   45.8696 H   0  0  0  0  0  0  0  0  0  0  0  0
   58.0907   23.0184   44.5939 H   0  0  0  0  0  0  0  0  0  0  0  0
   59.8702   22.7738   44.5939 H   0  0  0  0  0  0  0  0  0  0  0  0
   59.2050   26.3890   45.4630 C   0  0  0  0  0  0  0  0  0  0  0  0
   60.2926   26.2973   45.3265 H   0  0  0  0  0  0  0  0  0  0  0  0
   58.5810   27.6330   45.2540 C   0  0  0  0  0  0  0  0  0  0  0  0
   59.3050   28.7630   44.8360 O   0  0  0  0  0  0  0  0  0  0  0  0
   60.7240   28.8700   44.8540 C   0  0  0  0  0  0  0  0  0  0  0  0
   61.0765   28.8966   45.8956 H   0  0  0  0  0  0  0  0  0  0  0  0
   61.1637   28.0025   44.3401 H   0  0  0  0  0  0  0  0  0  0  0  0
   61.0286   29.7937   44.3401 H   0  0  0  0  0  0  0  0  0  0  0  0
   59.4330   31.7900   46.6210 C   0  0  0  0  0  0  0  0  0  0  0  0
   58.6700   30.9992   46.6699 H   0  0  0  0  0  0  0  0  0  0  0  0
   60.7010   31.5720   47.1930 C   0  0  0  0  0  0  0  0  0  0  0  0
   61.0370   30.3610   47.8190 O   0  0  0  0  0  0  0  0  0  0  0  0
   60.1000   29.3510   48.1810 C   0  0  0  0  0  0  0  0  0  0  0  0
   60.0381   29.2842   49.2772 H   0  0  0  0  0  0  0  0  0  0  0  0
   59.1108   29.6053   47.7727 H   0  0  0  0  0  0  0  0  0  0  0  0
   60.4276   28.3836   47.7727 H   0  0  0  0  0  0  0  0  0  0  0  0
  1  2  1  0
  2  3  1  0
  3  4  2  0
  4  5  1  0
  4  6  1  0
  6  7  1  0
  6  8  2  0
  8  9  1  0
  9 10  1  0
  9 11  2  3
 11 12  1  0
 11 13  1  0
 13 14  2  0
 13 15  1  0
 15 16  1  0
 15 17  2  0
 17 18  1  0
 17 19  1  0
 19 20  2  0
 20 21  1  0
 20 22  1  0
 22 23  1  0
 22 24  2  0
 24 25  1  0
 25 26  1  0
 26 27  1  0
 26 28  1  0
 26 29  1  0
 24 30  1  0
 30 31  1  0
 30 32  2  0
 32 33  1  0
 33 34  1  0
 34 35  1  0
 34 36  1  0
 34 37  1  0
  8 38  1  0
 38 39  1  0
 38 40  2  0
 40 41  1  0
 41 42  1  0
 42 43  1  0
 42 44  1  0
 42 45  1  0
 40  3  1  0
 32 19  1  0
M  CHG  1  21  -1
M  END
>  <UniqueID>  (76) 
71

>  <SMILES>  (76) 
COc1cc([O-])c(/C=C\C(=O)C=Cc2ccc(O)c(OC)c2)c(OC)c1

>  <Energy>  (76) 
60.711006883878575

>  <Genealogy>  (76) 
COc1cc([O-])c(C=CC(=O)C=Cc2ccc(O)c(OC)c2)c(OC)c1 (protonated)
COc1cc([O-])c(/C=C\C(=O)C=Cc2ccc(O)c(OC)c2)c(OC)c1 (cis-trans isomerization)
COc1cc([O-])c(/C=C\C(=O)C=Cc2ccc(O)c(OC)c2)c(OC)c1 (3D coordinates assigned)
COc1cc([O-])c(/C=C\C(=O)C=Cc2ccc(O)c(OC)c2)c(OC)c1 (optimized conformer: 60.711006883878575 kcal/mol)

>  <smiles>  (76) 
COc1cc(O)c(C=CC(=O)C=Cc2ccc(O)c(OC)c2)c(OC)c1

>  <score_type>  (76) 
oracle

>  <origin>  (76) 
adg

>  <m_score__min__energy>  (76) 
-11.02

>  <m_primary>  (76) 
energy

$$$$
76:0
     RDKit          3D

 53 56  0  0  0  0  0  0  0  0999 V2000
   57.4200   26.3930   44.2790 N   0  0  0  0  0  0  0  0  0  0  0  0
   58.0600   27.6890   45.2330 S   0  0  0  0  0  0  0  0  0  0  0  0
   57.3990   27.6750   46.5820 O   0  0  0  0  0  0  0  0  0  0  0  0
   59.5370   27.4550   45.3970 O   0  0  0  0  0  0  0  0  0  0  0  0
   57.7860   29.2630   44.4570 C   0  0  0  0  0  0  0  0  0  0  0  0
   56.9940   29.3280   43.2970 C   0  0  0  0  0  0  0  0  0  0  0  0
   56.7910   30.5440   42.6410 C   0  0  0  0  0  0  0  0  0  0  0  0
   57.3720   31.7120   43.1350 C   0  0  0  0  0  0  0  0  0  0  0  0
   58.1510   31.6700   44.2920 C   0  0  0  0  0  0  0  0  0  0  0  0
   58.3560   30.4570   44.9680 C   0  0  0  0  0  0  0  0  0  0  0  0
   59.1660   30.4710   46.2010 C   0  0  0  0  0  0  0  0  0  0  0  0
   58.5500   30.6750   47.4450 C   0  0  0  0  0  0  0  0  0  0  0  0
   59.3160   30.7060   48.6130 C   0  0  0  0  0  0  0  0  0  0  0  0
   60.7080   30.5270   48.5530 C   0  0  0  0  0  0  0  0  0  0  0  0
   61.5390   30.5710   49.8060 C   0  0  0  0  0  0  0  0  0  0  0  0
   61.6380   31.9590   50.3020 N   0  0  0  0  0  0  0  0  0  0  0  0
   62.3900   32.9260   49.4530 C   0  0  2  0  0  0  0  0  0  0  0  0
   61.4520   33.5350   48.3930 C   0  0  0  0  0  0  0  0  0  0  0  0
   60.1860   34.0430   48.7620 C   0  0  0  0  0  0  0  0  0  0  0  0
   59.3100   34.5560   47.8000 C   0  0  0  0  0  0  0  0  0  0  0  0
   59.6700   34.5550   46.4530 C   0  0  0  0  0  0  0  0  0  0  0  0
   60.8990   34.0230   46.0610 C   0  0  0  0  0  0  0  0  0  0  0  0
   61.7790   33.5050   47.0170 C   0  0  0  0  0  0  0  0  0  0  0  0
   63.6140   32.2480   48.8200 C   0  0  0  0  0  0  0  0  0  0  0  0
   64.7890   33.0630   49.3340 C   0  0  0  0  0  0  0  0  0  0  0  0
   64.3790   33.7790   50.4740 O   0  0  0  0  0  0  0  0  0  0  0  0
   63.0150   34.0620   50.2870 C   0  0  0  0  0  0  0  0  0  0  0  0
   61.3180   30.2890   47.3110 C   0  0  0  0  0  0  0  0  0  0  0  0
   60.5520   30.2640   46.1420 C   0  0  0  0  0  0  0  0  0  0  0  0
   57.3080   26.7480   43.3030 H   0  0  0  0  0  0  0  0  0  0  0  0
   56.4690   26.1690   44.6480 H   0  0  0  0  0  0  0  0  0  0  0  0
   56.5298   28.4121   42.9024 H   0  0  0  0  0  0  0  0  0  0  0  0
   56.1716   30.5809   41.7327 H   0  0  0  0  0  0  0  0  0  0  0  0
   57.2159   32.6671   42.6120 H   0  0  0  0  0  0  0  0  0  0  0  0
   58.6076   32.5938   44.6769 H   0  0  0  0  0  0  0  0  0  0  0  0
   57.4599   30.8110   47.5009 H   0  0  0  0  0  0  0  0  0  0  0  0
   58.8267   30.8714   49.5842 H   0  0  0  0  0  0  0  0  0  0  0  0
   61.0689   29.9422   50.5764 H   0  0  0  0  0  0  0  0  0  0  0  0
   62.5486   30.1965   49.5814 H   0  0  0  0  0  0  0  0  0  0  0  0
   60.6680   32.3290   50.4470 H   0  0  0  0  0  0  0  0  0  0  0  0
   59.8855   34.0348   49.8201 H   0  0  0  0  0  0  0  0  0  0  0  0
   58.3345   34.9613   48.1068 H   0  0  0  0  0  0  0  0  0  0  0  0
   58.9858   34.9732   45.7000 H   0  0  0  0  0  0  0  0  0  0  0  0
   61.1767   34.0109   44.9967 H   0  0  0  0  0  0  0  0  0  0  0  0
   62.7364   33.0693   46.6951 H   0  0  0  0  0  0  0  0  0  0  0  0
   63.6926   31.2000   49.1447 H   0  0  0  0  0  0  0  0  0  0  0  0
   63.5639   32.2217   47.7215 H   0  0  0  0  0  0  0  0  0  0  0  0
   65.6183   32.3904   49.5981 H   0  0  0  0  0  0  0  0  0  0  0  0
   65.1287   33.7618   48.5554 H   0  0  0  0  0  0  0  0  0  0  0  0
   62.5120   34.1257   51.2632 H   0  0  0  0  0  0  0  0  0  0  0  0
   62.8975   35.0225   49.7638 H   0  0  0  0  0  0  0  0  0  0  0  0
   62.4038   30.1214   47.2576 H   0  0  0  0  0  0  0  0  0  0  0  0
   61.0380   30.0813   45.1722 H   0  0  0  0  0  0  0  0  0  0  0  0
  1  2  1  0
  2  3  2  0
  2  4  2  0
  2  5  1  0
  5  6  2  0
  6  7  1  0
  7  8  2  0
  8  9  1  0
  9 10  2  0
 10 11  1  0
 11 12  2  0
 12 13  1  0
 13 14  2  0
 14 15  1  0
 15 16  1  0
 17 16  1  1
 17 18  1  0
 18 19  2  0
 19 20  1  0
 20 21  2  0
 21 22  1  0
 22 23  2  0
 17 24  1  0
 24 25  1  0
 25 26  1  0
 26 27  1  0
 14 28  1  0
 28 29  2  0
 10  5  1  0
 29 11  1  0
 27 17  1  0
 23 18  1  0
  1 30  1  0
  1 31  1  0
  6 32  1  0
  7 33  1  0
  8 34  1  0
  9 35  1  0
 12 36  1  0
 13 37  1  0
 15 38  1  0
 15 39  1  0
 16 40  1  0
 19 41  1  0
 20 42  1  0
 21 43  1  0
 22 44  1  0
 23 45  1  0
 24 46  1  0
 24 47  1  0
 25 48  1  0
 25 49  1  0
 27 50  1  0
 27 51  1  0
 28 52  1  0
 29 53  1  0
M  END
>  <UniqueID>  (77) 
72

>  <SMILES>  (77) 
NS(=O)(=O)c1ccccc1-c1ccc(CN[C@]2(c3ccccc3)CCOC2)cc1

>  <Energy>  (77) 
76.8126344705592

>  <Genealogy>  (77) 
NS(=O)(=O)c1ccccc1-c1ccc(CN[C@]2(c3ccccc3)CCOC2)cc1 (chirality)
NS(=O)(=O)c1ccccc1-c1ccc(CN[C@]2(c3ccccc3)CCOC2)cc1 (3D coordinates assigned)
NS(=O)(=O)c1ccccc1-c1ccc(CN[C@]2(c3ccccc3)CCOC2)cc1 (nonaromatic ring conformer: 76.8126344705592 kcal/mol)

>  <smiles>  (77) 
NS(=O)(=O)c1ccccc1-c1ccc(CNC2(c3ccccc3)CCOC2)cc1

>  <score_type>  (77) 
oracle

>  <origin>  (77) 
adg

>  <m_score__min__energy>  (77) 
-9.1699999999999999

>  <m_primary>  (77) 
energy

$$$$
77:0
     RDKit          3D

 46 48  0  0  0  0  0  0  0  0999 V2000
   55.1720   24.0290   45.7950 C   0  0  0  0  0  0  0  0  0  0  0  0
   55.8490   24.8390   46.7510 O   0  0  0  0  0  0  0  0  0  0  0  0
   56.7600   25.8560   46.4260 C   0  0  0  0  0  0  0  0  0  0  0  0
   58.1300   25.7270   46.6360 C   0  0  0  0  0  0  0  0  0  0  0  0
   58.9840   26.7660   46.2960 C   0  0  0  0  0  0  0  0  0  0  0  0
   58.5140   27.9770   45.7320 C   0  0  0  0  0  0  0  0  0  0  0  0
   59.5200   28.9150   45.4560 C   0  0  0  0  0  0  0  0  0  0  0  0
   59.4550   30.1740   44.8840 C   0  0  0  0  0  0  0  0  0  0  0  0
   58.3480   30.8800   44.4220 C   0  0  0  0  0  0  0  0  0  0  0  0
   58.5130   32.1500   43.8340 O   0  0  0  0  0  0  0  0  0  0  0  0
   57.8520   33.3640   44.2000 C   0  0  0  0  0  0  0  0  0  0  0  0
   58.8140   34.3620   44.8680 C   0  0  0  0  0  0  0  0  0  0  0  0
   58.4840   34.5870   46.2970 N   0  0  0  0  0  0  0  0  0  0  0  0
   59.6470   34.9760   47.1250 C   0  0  0  0  0  0  0  0  0  0  0  0
   60.6690   33.8350   47.2880 C   0  0  0  0  0  0  0  0  0  0  0  0
   60.0030   32.4500   47.3760 C   0  0  0  0  0  0  0  0  0  0  0  0
   58.5500   32.5560   47.8380 C   0  0  0  0  0  0  0  0  0  0  0  0
   57.7230   33.4520   46.8900 C   0  0  0  0  0  0  0  0  0  0  0  0
   57.0300   30.4540   44.4950 C   0  0  0  0  0  0  0  0  0  0  0  0
   56.4580   29.2710   44.9650 C   0  0  0  0  0  0  0  0  0  0  0  0
   55.1970   29.2420   44.8720 O   0  0  0  0  0  0  0  0  0  0  0  0
   57.1090   28.1290   45.5120 C   0  0  0  0  0  0  0  0  0  0  0  0
   56.2680   27.0370   45.8760 C   0  0  0  0  0  0  0  0  0  0  0  0
   54.5513   23.2863   46.3176 H   0  0  0  0  0  0  0  0  0  0  0  0
   54.5318   24.6635   45.1645 H   0  0  0  0  0  0  0  0  0  0  0  0
   55.9101   23.5116   45.1645 H   0  0  0  0  0  0  0  0  0  0  0  0
   58.5352   24.8017   47.0713 H   0  0  0  0  0  0  0  0  0  0  0  0
   60.0633   26.6451   46.4705 H   0  0  0  0  0  0  0  0  0  0  0  0
   60.5328   28.5958   45.7429 H   0  0  0  0  0  0  0  0  0  0  0  0
   60.4195   30.6924   44.7793 H   0  0  0  0  0  0  0  0  0  0  0  0
   57.4314   33.8268   43.2950 H   0  0  0  0  0  0  0  0  0  0  0  0
   57.0608   33.1168   44.9232 H   0  0  0  0  0  0  0  0  0  0  0  0
   59.8384   33.9672   44.7988 H   0  0  0  0  0  0  0  0  0  0  0  0
   58.7199   35.3245   44.3439 H   0  0  0  0  0  0  0  0  0  0  0  0
   60.1478   35.8316   46.6484 H   0  0  0  0  0  0  0  0  0  0  0  0
   59.2711   35.2310   48.1269 H   0  0  0  0  0  0  0  0  0  0  0  0
   61.3484   33.8446   46.4229 H   0  0  0  0  0  0  0  0  0  0  0  0
   61.2093   34.0047   48.2310 H   0  0  0  0  0  0  0  0  0  0  0  0
   60.0289   31.9771   46.3832 H   0  0  0  0  0  0  0  0  0  0  0  0
   60.5560   31.8470   48.1112 H   0  0  0  0  0  0  0  0  0  0  0  0
   58.1061   31.5497   47.8578 H   0  0  0  0  0  0  0  0  0  0  0  0
   58.5369   33.0072   48.8411 H   0  0  0  0  0  0  0  0  0  0  0  0
   57.3433   32.8261   46.0690 H   0  0  0  0  0  0  0  0  0  0  0  0
   56.9203   33.8954   47.4975 H   0  0  0  0  0  0  0  0  0  0  0  0
   56.3011   31.1832   44.1117 H   0  0  0  0  0  0  0  0  0  0  0  0
   55.1839   27.1313   45.7155 H   0  0  0  0  0  0  0  0  0  0  0  0
  1  2  1  0
  2  3  1  0
  3  4  2  0
  4  5  1  0
  5  6  2  0
  6  7  1  0
  7  8  2  0
  8  9  1  0
  9 10  1  0
 10 11  1  0
 11 12  1  0
 12 13  1  0
 13 14  1  0
 14 15  1  0
 15 16  1  0
 16 17  1  0
 17 18  1  0
  9 19  2  0
 19 20  1  0
 20 21  2  0
 20 22  1  0
 22 23  2  0
 23  3  1  0
 22  6  1  0
 18 13  1  0
  1 24  1  0
  1 25  1  0
  1 26  1  0
  4 27  1  0
  5 28  1  0
  7 29  1  0
  8 30  1  0
 11 31  1  0
 11 32  1  0
 12 33  1  0
 12 34  1  0
 14 35  1  0
 14 36  1  0
 15 37  1  0
 15 38  1  0
 16 39  1  0
 16 40  1  0
 17 41  1  0
 17 42  1  0
 18 43  1  0
 18 44  1  0
 19 45  1  0
 23 46  1  0
M  END
>  <UniqueID>  (78) 
73

>  <SMILES>  (78) 
COc1ccc2ccc(OCCN3CCCCC3)cc(=O)c2c1

>  <Energy>  (78) 
87.73176313233766

>  <Genealogy>  (78) 
COc1ccc2ccc(OCCN3CCCCC3)cc(=O)c2c1 (3D coordinates assigned)
COc1ccc2ccc(OCCN3CCCCC3)cc(=O)c2c1 (nonaromatic ring conformer: 87.73176313233766 kcal/mol)

>  <smiles>  (78) 
COc1ccc2ccc(OCCN3CCCCC3)cc(=O)c2c1

>  <score_type>  (78) 
oracle

>  <origin>  (78) 
adg

>  <m_score__min__energy>  (78) 
-7.6299999999999999

>  <m_primary>  (78) 
energy

$$$$
78:0
     RDKit          3D

 42 43  0  0  0  0  0  0  0  0999 V2000
   56.2610   23.6240   47.6100 C   0  0  0  0  0  0  0  0  0  0  0  0
   55.5260   24.5030   46.7670 O   0  0  0  0  0  0  0  0  0  0  0  0
   56.0600   25.6970   46.2760 C   0  0  0  0  0  0  0  0  0  0  0  0
   55.3070   26.6670   45.9890 O   0  0  0  0  0  0  0  0  0  0  0  0
   57.5330   25.8110   46.0430 C   0  0  0  0  0  0  0  0  0  0  0  0
   57.9050   27.2050   45.6260 C   0  0  0  0  0  0  0  0  0  0  0  0
   57.1660   27.9310   44.7630 N   0  0  0  0  0  0  0  0  0  0  0  0
   57.7160   29.1320   44.6700 N   0  0  0  0  0  0  0  0  0  0  0  0
   57.1900   30.1920   43.8480 C   0  0  0  0  0  0  0  0  0  0  0  0
   56.8990   29.9520   42.6460 O   0  0  0  0  0  0  0  0  0  0  0  0
   56.9130   31.5710   44.3890 C   0  0  0  0  0  0  0  0  0  0  0  0
   57.9810   32.5840   43.9510 C   0  0  0  0  0  0  0  0  0  0  0  0
   58.5120   33.3750   45.1190 C   0  0  0  0  0  0  0  0  0  0  0  0
   58.2960   32.9310   46.4350 C   0  0  0  0  0  0  0  0  0  0  0  0
   58.7600   33.6840   47.5170 C   0  0  0  0  0  0  0  0  0  0  0  0
   59.4370   34.8870   47.2950 C   0  0  0  0  0  0  0  0  0  0  0  0
   59.6470   35.3400   45.9890 C   0  0  0  0  0  0  0  0  0  0  0  0
   59.1840   34.5900   44.9040 C   0  0  0  0  0  0  0  0  0  0  0  0
   58.8000   29.1230   45.4770 C   0  0  0  0  0  0  0  0  0  0  0  0
   59.5890   30.0930   45.6280 O   0  0  0  0  0  0  0  0  0  0  0  0
   58.9560   27.9280   46.0870 N   0  0  0  0  0  0  0  0  0  0  0  0
   59.9980   27.5700   47.0130 C   0  0  0  0  0  0  0  0  0  0  0  0
   60.2990   28.4080   48.2140 C   0  0  0  0  0  0  0  0  0  0  0  0
   60.6570   26.5120   46.8280 O   0  0  0  0  0  0  0  0  0  0  0  0
   56.0562   23.8689   48.6627 H   0  0  0  0  0  0  0  0  0  0  0  0
   55.9586   22.5855   47.4096 H   0  0  0  0  0  0  0  0  0  0  0  0
   57.3366   23.7378   47.4096 H   0  0  0  0  0  0  0  0  0  0  0  0
   58.0649   25.5594   46.9724 H   0  0  0  0  0  0  0  0  0  0  0  0
   57.8155   25.1169   45.2378 H   0  0  0  0  0  0  0  0  0  0  0  0
   56.2960   27.6230   44.2720 H   0  0  0  0  0  0  0  0  0  0  0  0
   55.9323   31.9069   44.0210 H   0  0  0  0  0  0  0  0  0  0  0  0
   56.9268   31.5150   45.4875 H   0  0  0  0  0  0  0  0  0  0  0  0
   58.8140   32.0421   43.4793 H   0  0  0  0  0  0  0  0  0  0  0  0
   57.5169   33.2870   43.2436 H   0  0  0  0  0  0  0  0  0  0  0  0
   57.7598   31.9874   46.6139 H   0  0  0  0  0  0  0  0  0  0  0  0
   58.5923   33.3297   48.5448 H   0  0  0  0  0  0  0  0  0  0  0  0
   59.8043   35.4770   48.1476 H   0  0  0  0  0  0  0  0  0  0  0  0
   60.1773   36.2879   45.8151 H   0  0  0  0  0  0  0  0  0  0  0  0
   59.3464   34.9524   43.8782 H   0  0  0  0  0  0  0  0  0  0  0  0
   60.0912   27.8295   49.1262 H   0  0  0  0  0  0  0  0  0  0  0  0
   61.3589   28.7019   48.1997 H   0  0  0  0  0  0  0  0  0  0  0  0
   59.6684   29.3092   48.1997 H   0  0  0  0  0  0  0  0  0  0  0  0
  1  2  1  0
  2  3  1  0
  3  4  2  0
  3  5  1  0
  5  6  1  0
  6  7  2  0
  7  8  1  0
  8  9  1  0
  9 10  2  0
  9 11  1  0
 11 12  1  0
 12 13  1  0
 13 14  2  0
 14 15  1  0
 15 16  2  0
 16 17  1  0
 17 18  2  0
  8 19  1  0
 19 20  2  0
 19 21  1  0
 21 22  1  0
 22 23  1  0
 22 24  2  0
 21  6  1  0
 18 13  1  0
  1 25  1  0
  1 26  1  0
  1 27  1  0
  5 28  1  0
  5 29  1  0
  7 30  1  0
 11 31  1  0
 11 32  1  0
 12 33  1  0
 12 34  1  0
 14 35  1  0
 15 36  1  0
 16 37  1  0
 17 38  1  0
 18 39  1  0
 23 40  1  0
 23 41  1  0
 23 42  1  0
M  CHG  1   7   1
M  END
>  <UniqueID>  (79) 
74

>  <SMILES>  (79) 
COC(=O)Cc1[nH+]n(C(=O)CCc2ccccc2)c(=O)n1C(C)=O

>  <Energy>  (79) 
77.46639740313724

>  <Genealogy>  (79) 
COC(=O)Cc1[nH+]n(C(=O)CCc2ccccc2)c(=O)n1C(C)=O (protonated)
COC(=O)Cc1[nH+]n(C(=O)CCc2ccccc2)c(=O)n1C(C)=O (3D coordinates assigned)
COC(=O)Cc1[nH+]n(C(=O)CCc2ccccc2)c(=O)n1C(C)=O (optimized conformer: 77.46639740313724 kcal/mol)

>  <smiles>  (79) 
COC(=O)Cc1nn(C(=O)CCc2ccccc2)c(=O)n1C(C)=O

>  <score_type>  (79) 
oracle

>  <origin>  (79) 
adg

>  <m_score__min__energy>  (79) 
-6.9900000000000002

>  <m_primary>  (79) 
energy

$$$$
79:0
     RDKit          3D

 36 37  0  0  0  0  0  0  0  0999 V2000
   57.9340   27.6540   44.9400 O   0  0  0  0  0  0  0  0  0  0  0  0
   56.7550   27.9830   45.2320 C   0  0  0  0  0  0  0  0  0  0  0  0
   55.8550   26.9620   45.6880 N   0  0  0  0  0  0  0  0  0  0  0  0
   56.2250   25.7180   46.3620 C   0  0  0  0  0  0  0  0  0  0  0  0
   57.5370   25.1380   45.8130 C   0  0  0  0  0  0  0  0  0  0  0  0
   57.2910   23.9850   44.8840 C   0  0  0  0  0  0  0  0  0  0  0  0
   56.3250   24.0720   43.8710 C   0  0  0  0  0  0  0  0  0  0  0  0
   56.1420   22.9920   43.0060 C   0  0  0  0  0  0  0  0  0  0  0  0
   56.9230   21.8430   43.1520 C   0  0  0  0  0  0  0  0  0  0  0  0
   57.8810   21.7940   44.1680 C   0  0  0  0  0  0  0  0  0  0  0  0
   58.0450   22.8560   45.0010 N   0  0  0  0  0  0  0  0  0  0  0  0
   56.3380   29.3920   45.0860 C   0  0  0  0  0  0  0  0  0  0  0  0
   55.1440   29.6580   44.7900 O   0  0  0  0  0  0  0  0  0  0  0  0
   57.2560   30.4770   45.2730 N   0  0  0  0  0  0  0  0  0  0  0  0
   57.3000   31.6770   44.4470 C   0  0  0  0  0  0  0  0  0  0  0  0
   57.9610   32.7850   45.2150 C   0  0  0  0  0  0  0  0  0  0  0  0
   58.6050   33.8310   44.5340 C   0  0  0  0  0  0  0  0  0  0  0  0
   59.2500   34.8450   45.2500 C   0  0  0  0  0  0  0  0  0  0  0  0
   59.2660   34.8150   46.6470 C   0  0  0  0  0  0  0  0  0  0  0  0
   58.6390   33.7690   47.3320 C   0  0  0  0  0  0  0  0  0  0  0  0
   57.9940   32.7530   46.6190 C   0  0  0  0  0  0  0  0  0  0  0  0
   56.3469   25.9184   47.4367 H   0  0  0  0  0  0  0  0  0  0  0  0
   55.4262   24.9830   46.1840 H   0  0  0  0  0  0  0  0  0  0  0  0
   58.0741   25.9272   45.2665 H   0  0  0  0  0  0  0  0  0  0  0  0
   58.1310   24.7714   46.6632 H   0  0  0  0  0  0  0  0  0  0  0  0
   55.7176   24.9823   43.7593 H   0  0  0  0  0  0  0  0  0  0  0  0
   55.3840   23.0455   42.2106 H   0  0  0  0  0  0  0  0  0  0  0  0
   56.7854   20.9869   42.4751 H   0  0  0  0  0  0  0  0  0  0  0  0
   58.5030   20.8955   44.2940 H   0  0  0  0  0  0  0  0  0  0  0  0
   57.8738   31.4717   43.5312 H   0  0  0  0  0  0  0  0  0  0  0  0
   56.2764   31.9759   44.1770 H   0  0  0  0  0  0  0  0  0  0  0  0
   58.6022   33.8529   43.4342 H   0  0  0  0  0  0  0  0  0  0  0  0
   59.7453   35.6671   44.7126 H   0  0  0  0  0  0  0  0  0  0  0  0
   59.7719   35.6144   47.2083 H   0  0  0  0  0  0  0  0  0  0  0  0
   58.6531   33.7454   48.4317 H   0  0  0  0  0  0  0  0  0  0  0  0
   57.5108   31.9259   47.1597 H   0  0  0  0  0  0  0  0  0  0  0  0
  1  2  2  0
  2  3  1  0
  3  4  1  0
  4  5  1  0
  5  6  1  0
  6  7  2  0
  7  8  1  0
  8  9  2  0
  9 10  1  0
 10 11  2  0
  2 12  1  0
 12 13  2  0
 12 14  1  0
 14 15  1  0
 15 16  1  0
 16 17  2  0
 17 18  1  0
 18 19  2  0
 19 20  1  0
 20 21  2  0
 11  6  1  0
 21 16  1  0
  4 22  1  0
  4 23  1  0
  5 24  1  0
  5 25  1  0
  7 26  1  0
  8 27  1  0
  9 28  1  0
 10 29  1  0
 15 30  1  0
 15 31  1  0
 17 32  1  0
 18 33  1  0
 19 34  1  0
 20 35  1  0
 21 36  1  0
M  CHG  2   3  -1  14  -1
M  END
>  <UniqueID>  (80) 
75

>  <SMILES>  (80) 
O=C([N-]CCc1ccccn1)C(=O)[N-]Cc1ccccc1

>  <Energy>  (80) 
33.999105315048745

>  <Genealogy>  (80) 
O=C([N-]CCc1ccccn1)C(=O)[N-]Cc1ccccc1 (protonated)
O=C([N-]CCc1ccccn1)C(=O)[N-]Cc1ccccc1 (3D coordinates assigned)
O=C([N-]CCc1ccccn1)C(=O)[N-]Cc1ccccc1 (optimized conformer: 33.999105315048745 kcal/mol)

>  <smiles>  (80) 
O=C(NCCc1ccccn1)C(=O)NCc1ccccc1

>  <score_type>  (80) 
oracle

>  <origin>  (80) 
adg

>  <m_score__min__energy>  (80) 
-11.1

>  <m_primary>  (80) 
energy

$$$$
80:0
     RDKit          3D

 30 32  0  0  1  0  0  0  0  0999 V2000
   55.7720   25.3610   46.0460 N   0  0  0  0  0  0  0  0  0  0  0  0
   56.5400   26.4110   46.0640 C   0  0  0  0  0  0  0  0  0  0  0  0
   56.1220   27.6020   45.6250 N   0  0  0  0  0  0  0  0  0  0  0  0
   56.8770   28.7260   45.6210 C   0  0  0  0  0  0  0  0  0  0  0  0
   56.3790   29.7660   45.1910 N   0  0  0  0  0  0  0  0  0  0  0  0
   56.8700   30.7700   44.4310 C   0  0  0  0  0  0  0  0  0  0  0  0
   56.9560   30.6580   43.0210 C   0  0  0  0  0  0  0  0  0  0  0  0
   57.5630   31.6510   42.2960 C   0  0  0  0  0  0  0  0  0  0  0  0
   58.1080   32.7830   42.9110 C   0  0  0  0  0  0  0  0  0  0  0  0
   58.0270   32.8960   44.2890 C   0  0  0  0  0  0  0  0  0  0  0  0
   58.7810   34.4530   45.0920 Br  0  0  0  0  0  0  0  0  0  0  0  0
   57.4230   31.9170   45.0550 C   0  0  0  0  0  0  0  0  0  0  0  0
   58.1390   28.6510   46.0900 C   0  0  0  0  0  0  0  0  0  0  0  0
   58.9800   29.7280   46.1270 C   0  0  0  0  0  0  0  0  0  0  0  0
   60.2910   29.6010   46.6250 C   0  0  0  0  0  0  0  0  0  0  0  0
   60.6480   28.3600   47.0550 C   0  0  0  0  0  0  0  0  0  0  0  0
   59.8430   27.2500   47.0380 C   0  0  0  0  0  0  0  0  0  0  0  0
   58.5670   27.4150   46.5430 C   0  0  0  0  0  0  0  0  0  0  0  0
   57.7890   26.3150   46.5330 N   0  0  0  0  0  0  0  0  0  0  0  0
   55.0250   25.2220   46.7450 H   0  0  0  0  0  0  0  0  0  0  0  0
   55.1300   27.6320   45.2650 H   0  0  0  0  0  0  0  0  0  0  0  0
   56.5376   29.7782   42.5103 H   0  0  0  0  0  0  0  0  0  0  0  0
   57.6230   31.5549   41.2018 H   0  0  0  0  0  0  0  0  0  0  0  0
   58.5917   33.5684   42.3117 H   0  0  0  0  0  0  0  0  0  0  0  0
   57.3713   32.0275   46.1482 H   0  0  0  0  0  0  0  0  0  0  0  0
   58.6286   30.7050   45.7636 H   0  0  0  0  0  0  0  0  0  0  0  0
   60.9849   30.4536   46.6641 H   0  0  0  0  0  0  0  0  0  0  0  0
   61.6676   28.2371   47.4491 H   0  0  0  0  0  0  0  0  0  0  0  0
   60.1984   26.2747   47.4019 H   0  0  0  0  0  0  0  0  0  0  0  0
   58.1310   25.3840   46.8810 H   0  0  0  0  0  0  0  0  0  0  0  0
  1  2  2  3
  2  3  1  0
  3  4  1  0
  4  5  2  0
  5  6  1  0
  6  7  2  0
  7  8  1  0
  8  9  2  0
  9 10  1  0
 10 11  1  0
 10 12  2  0
  4 13  1  0
 13 14  2  0
 14 15  1  0
 15 16  2  0
 16 17  1  0
 17 18  2  0
 18 19  1  0
 19  2  1  0
 12  6  1  0
 18 13  1  0
  1 20  1  0
  3 21  1  0
  7 22  1  0
  8 23  1  0
  9 24  1  0
 12 25  1  0
 14 26  1  0
 15 27  1  0
 16 28  1  0
 17 29  1  0
 19 30  1  0
M  END
>  <smiles>  (81) 
N=c1[nH]c(=Nc2cccc(Br)c2)c2ccccc2[nH]1

>  <score_type>  (81) 
oracle

>  <origin>  (81) 
adg

>  <m_score__min__energy>  (81) 
-8.1199999999999992

>  <m_primary>  (81) 
energy

$$$$
81:0
     RDKit          3D

 34 35  0  0  0  0  0  0  0  0999 V2000
   57.9770   31.0100   47.0630 H   0  0  0  0  0  0  0  0  0  0  0  0
   58.1670   31.9080   47.4900 O   0  0  0  0  0  0  0  0  0  0  0  0
   58.5930   33.0120   46.7480 C   0  0  0  0  0  0  0  0  0  0  0  0
   58.9070   34.1990   47.4150 C   0  0  0  0  0  0  0  0  0  0  0  0
   58.8204   34.2525   48.5103 H   0  0  0  0  0  0  0  0  0  0  0  0
   59.3300   35.3160   46.6950 C   0  0  0  0  0  0  0  0  0  0  0  0
   59.5693   36.2554   47.2149 H   0  0  0  0  0  0  0  0  0  0  0  0
   59.4460   35.2280   45.3090 C   0  0  0  0  0  0  0  0  0  0  0  0
   59.7848   36.0994   44.7295 H   0  0  0  0  0  0  0  0  0  0  0  0
   59.1410   34.0670   44.6730 N   0  0  0  0  0  0  0  0  0  0  0  0
   58.7050   32.9640   45.3440 C   0  0  0  0  0  0  0  0  0  0  0  0
   58.4200   31.8610   44.7120 N   0  0  0  0  0  0  0  0  0  0  0  0
   57.6980   31.7160   43.4770 C   0  0  0  0  0  0  0  0  0  0  0  0
   57.6890   32.6830   42.6710 O   0  0  0  0  0  0  0  0  0  0  0  0
   57.0890   30.4080   43.0380 C   0  0  0  0  0  0  0  0  0  0  0  0
   56.0172   30.4146   43.2854 H   0  0  0  0  0  0  0  0  0  0  0  0
   57.2468   30.3068   41.9541 H   0  0  0  0  0  0  0  0  0  0  0  0
   57.7490   29.2060   43.7270 C   0  0  0  0  0  0  0  0  0  0  0  0
   57.7026   28.3434   43.0459 H   0  0  0  0  0  0  0  0  0  0  0  0
   58.7852   29.4912   43.9614 H   0  0  0  0  0  0  0  0  0  0  0  0
   56.9560   28.7560   45.2730 S   0  0  0  0  0  0  0  0  0  0  0  0
   55.4950   29.0910   45.1590 O   0  0  0  0  0  0  0  0  0  0  0  0
   57.5530   29.5740   46.3820 O   0  0  0  0  0  0  0  0  0  0  0  0
   57.1740   27.0410   45.6550 C   0  0  0  0  0  0  0  0  0  0  0  0
   58.4710   26.5010   45.6710 C   0  0  0  0  0  0  0  0  0  0  0  0
   59.3355   27.1497   45.4664 H   0  0  0  0  0  0  0  0  0  0  0  0
   58.6700   25.1460   45.9450 C   0  0  0  0  0  0  0  0  0  0  0  0
   59.6879   24.7289   45.9409 H   0  0  0  0  0  0  0  0  0  0  0  0
   57.5800   24.3200   46.2240 C   0  0  0  0  0  0  0  0  0  0  0  0
   57.7380   23.2510   46.4296 H   0  0  0  0  0  0  0  0  0  0  0  0
   56.2900   24.8510   46.2420 C   0  0  0  0  0  0  0  0  0  0  0  0
   55.4336   24.2006   46.4733 H   0  0  0  0  0  0  0  0  0  0  0  0
   56.0800   26.2080   45.9670 C   0  0  0  0  0  0  0  0  0  0  0  0
   54.7850   26.7100   46.0080 O   0  0  0  0  0  0  0  0  0  0  0  0
  1  2  1  0
  2  3  1  0
  3  4  2  0
  4  5  1  0
  4  6  1  0
  6  7  1  0
  6  8  2  0
  8  9  1  0
  8 10  1  0
 10 11  1  0
 11 12  2  0
 12 13  1  0
 13 14  2  0
 13 15  1  0
 15 16  1  0
 15 17  1  0
 15 18  1  0
 18 19  1  0
 18 20  1  0
 18 21  1  0
 21 22  2  0
 21 23  2  0
 21 24  1  0
 24 25  2  0
 25 26  1  0
 25 27  1  0
 27 28  1  0
 27 29  2  0
 29 30  1  0
 29 31  1  0
 31 32  1  0
 31 33  2  0
 33 34  1  0
 11  3  1  0
 33 24  1  0
M  CHG  2  10  -1  34  -1
M  END
>  <UniqueID>  (82) 
76

>  <SMILES>  (82) 
O=C(CCS(=O)(=O)c1ccccc1[O-])/N=c1\[n-]cccc1O

>  <Energy>  (82) 
35.22022533800623

>  <Genealogy>  (82) 
O=C(CCS(=O)(=O)c1ccccc1[O-])N=c1[n-]cccc1O (protonated)
O=C(CCS(=O)(=O)c1ccccc1[O-])/N=c1\[n-]cccc1O (cis-trans isomerization)
O=C(CCS(=O)(=O)c1ccccc1[O-])/N=c1\[n-]cccc1O (3D coordinates assigned)
O=C(CCS(=O)(=O)c1ccccc1[O-])/N=c1\[n-]cccc1O (optimized conformer: 35.22022533800623 kcal/mol)

>  <smiles>  (82) 
O=C(CCS(=O)(=O)c1ccccc1O)N=c1[nH]cccc1O

>  <score_type>  (82) 
oracle

>  <origin>  (82) 
adg

>  <m_score__min__energy>  (82) 
-11.800000000000001

>  <m_primary>  (82) 
energy

$$$$
82:0
     RDKit          3D

 70 74  0  0  0  0  0  0  0  0999 V2000
   55.1630   24.7650   47.5360 H   0  0  0  0  0  0  0  0  0  0  0  0
   56.1700   24.7470   47.4360 O   0  0  0  0  0  0  0  0  0  0  0  0
   56.8660   25.8290   46.9030 C   0  0  0  0  0  0  0  0  0  0  0  0
   58.2540   25.9460   47.0970 C   0  0  0  0  0  0  0  0  0  0  0  0
   58.7936   25.1827   47.6769 H   0  0  0  0  0  0  0  0  0  0  0  0
   58.9480   27.0290   46.5550 C   0  0  0  0  0  0  0  0  0  0  0  0
   60.0332   27.1182   46.7109 H   0  0  0  0  0  0  0  0  0  0  0  0
   58.2630   28.0080   45.8090 C   0  0  0  0  0  0  0  0  0  0  0  0
   58.9930   29.1250   45.1790 C   0  0  0  0  0  0  0  0  0  0  0  0
   59.2945   29.0132   44.1271 H   0  0  0  0  0  0  0  0  0  0  0  0
   59.3130   30.2670   45.8040 C   0  0  0  0  0  0  0  0  0  0  0  0
   58.8498   31.1958   45.4396 H   0  0  0  0  0  0  0  0  0  0  0  0
   60.2440   30.3670   46.9480 C   0  0  0  0  0  0  0  0  0  0  0  0
   61.4840   30.4800   46.7570 O   0  0  0  0  0  0  0  0  0  0  0  0
   59.7630   30.2040   48.2830 N   0  0  0  0  0  0  0  0  0  0  0  0
   60.4920   30.5130   49.4820 C   0  0  0  0  0  0  0  0  0  0  0  0
   61.5490   29.6900   49.9140 C   0  0  0  0  0  0  0  0  0  0  0  0
   61.9028   28.8719   49.2694 H   0  0  0  0  0  0  0  0  0  0  0  0
   62.1520   29.9050   51.1560 C   0  0  0  0  0  0  0  0  0  0  0  0
   62.9883   29.2667   51.4772 H   0  0  0  0  0  0  0  0  0  0  0  0
   61.6980   30.9240   51.9880 C   0  0  0  0  0  0  0  0  0  0  0  0
   62.1687   31.0829   52.9694 H   0  0  0  0  0  0  0  0  0  0  0  0
   60.6480   31.7430   51.5790 C   0  0  0  0  0  0  0  0  0  0  0  0
   60.2902   32.5429   52.2440 H   0  0  0  0  0  0  0  0  0  0  0  0
   60.0410   31.5570   50.3240 C   0  0  0  0  0  0  0  0  0  0  0  0
   58.9540   32.4720   49.9100 C   0  0  0  0  0  0  0  0  0  0  0  0
   57.7560   32.1140   50.0450 O   0  0  0  0  0  0  0  0  0  0  0  0
   59.2310   33.7350   49.2940 N   0  0  0  0  0  0  0  0  0  0  0  0
   59.3580   33.9580   47.8820 C   0  0  0  0  0  0  0  0  0  0  0  0
   58.2080   34.1700   47.1050 C   0  0  0  0  0  0  0  0  0  0  0  0
   57.2316   34.2808   47.5992 H   0  0  0  0  0  0  0  0  0  0  0  0
   58.2880   34.2420   45.7130 C   0  0  0  0  0  0  0  0  0  0  0  0
   57.3838   34.4400   45.1187 H   0  0  0  0  0  0  0  0  0  0  0  0
   59.5130   34.0630   45.0790 C   0  0  0  0  0  0  0  0  0  0  0  0
   59.5694   34.0757   43.9805 H   0  0  0  0  0  0  0  0  0  0  0  0
   60.6670   33.8680   45.8310 C   0  0  0  0  0  0  0  0  0  0  0  0
   61.6317   33.7382   45.3187 H   0  0  0  0  0  0  0  0  0  0  0  0
   60.6190   33.8340   47.2450 C   0  0  0  0  0  0  0  0  0  0  0  0
   61.8520   33.7170   48.0070 N   0  0  0  0  0  0  0  0  0  0  0  0
   63.0230   33.0790   47.3640 C   0  0  0  0  0  0  0  0  0  0  0  0
   62.6902   32.1474   46.8829 H   0  0  0  0  0  0  0  0  0  0  0  0
   63.4272   33.8035   46.6417 H   0  0  0  0  0  0  0  0  0  0  0  0
   64.1600   32.7400   48.3450 C   0  0  0  0  0  0  0  0  0  0  0  0
   64.5508   31.7382   48.1134 H   0  0  0  0  0  0  0  0  0  0  0  0
   64.9557   33.4922   48.2397 H   0  0  0  0  0  0  0  0  0  0  0  0
   63.6700   32.7590   49.7300 N   0  0  0  0  0  0  0  0  0  0  0  0
   64.6370   32.1880   50.6920 C   0  0  0  0  0  0  0  0  0  0  0  0
   64.1285   32.0641   51.6595 H   0  0  0  0  0  0  0  0  0  0  0  0
   64.9809   31.2342   50.2653 H   0  0  0  0  0  0  0  0  0  0  0  0
   65.8710   33.0360   50.9100 C   0  0  0  0  0  0  0  0  0  0  0  0
   65.8340   34.1150   51.8140 C   0  0  0  0  0  0  0  0  0  0  0  0
   64.9068   34.3401   52.3614 H   0  0  0  0  0  0  0  0  0  0  0  0
   66.9720   34.9010   52.0180 C   0  0  0  0  0  0  0  0  0  0  0  0
   66.9367   35.7444   52.7233 H   0  0  0  0  0  0  0  0  0  0  0  0
   68.1520   34.6190   51.3300 C   0  0  0  0  0  0  0  0  0  0  0  0
   69.0437   35.2428   51.4902 H   0  0  0  0  0  0  0  0  0  0  0  0
   68.2030   33.5420   50.4350 C   0  0  0  0  0  0  0  0  0  0  0  0
   69.1347   33.3185   49.8946 H   0  0  0  0  0  0  0  0  0  0  0  0
   67.0680   32.7520   50.2300 C   0  0  0  0  0  0  0  0  0  0  0  0
   67.1119   31.9028   49.5322 H   0  0  0  0  0  0  0  0  0  0  0  0
   63.2380   34.1220   50.0720 C   0  0  0  0  0  0  0  0  0  0  0  0
   62.9949   34.1687   51.1438 H   0  0  0  0  0  0  0  0  0  0  0  0
   64.0511   34.8263   49.8422 H   0  0  0  0  0  0  0  0  0  0  0  0
   61.9960   34.5020   49.2520 C   0  0  0  0  0  0  0  0  0  0  0  0
   61.1037   34.3368   49.8737 H   0  0  0  0  0  0  0  0  0  0  0  0
   62.1096   35.5564   48.9600 H   0  0  0  0  0  0  0  0  0  0  0  0
   56.8810   27.8790   45.6020 C   0  0  0  0  0  0  0  0  0  0  0  0
   56.3452   28.6258   44.9977 H   0  0  0  0  0  0  0  0  0  0  0  0
   56.1820   26.8030   46.1620 C   0  0  0  0  0  0  0  0  0  0  0  0
   54.8060   26.7080   45.9850 O   0  0  0  0  0  0  0  0  0  0  0  0
  1  2  1  0
  2  3  1  0
  3  4  2  0
  4  5  1  0
  4  6  1  0
  6  7  1  0
  6  8  2  0
  8  9  1  0
  9 10  1  0
  9 11  2  0
 11 12  1  0
 11 13  1  0
 13 14  2  0
 13 15  1  0
 15 16  1  0
 16 17  2  0
 17 18  1  0
 17 19  1  0
 19 20  1  0
 19 21  2  0
 21 22  1  0
 21 23  1  0
 23 24  1  0
 23 25  2  0
 25 26  1  0
 26 27  2  0
 26 28  1  0
 28 29  1  0
 29 30  2  0
 30 31  1  0
 30 32  1  0
 32 33  1  0
 32 34  2  0
 34 35  1  0
 34 36  1  0
 36 37  1  0
 36 38  2  0
 38 39  1  0
 39 40  1  0
 40 41  1  0
 40 42  1  0
 40 43  1  0
 43 44  1  0
 43 45  1  0
 43 46  1  0
 46 47  1  0
 47 48  1  0
 47 49  1  0
 47 50  1  0
 50 51  2  0
 51 52  1  0
 51 53  1  0
 53 54  1  0
 53 55  2  0
 55 56  1  0
 55 57  1  0
 57 58  1  0
 57 59  2  0
 59 60  1  0
 46 61  1  0
 61 62  1  0
 61 63  1  0
 61 64  1  0
 64 65  1  0
 64 66  1  0
  8 67  1  0
 67 68  1  0
 67 69  2  0
 69 70  1  0
 69  3  1  0
 25 16  1  0
 38 29  1  0
 64 39  1  0
 59 50  1  0
M  CHG  3  15  -1  28  -1  70  -1
M  END
>  <UniqueID>  (83) 
77

>  <SMILES>  (83) 
O=C(/C=C\c1ccc(O)c([O-])c1)[N-]c1ccccc1C(=O)[N-]c1ccccc1N1CCN(Cc2ccccc2)CC1

>  <Energy>  (83) 
113.76793968256727

>  <Genealogy>  (83) 
O=C(C=Cc1ccc(O)c([O-])c1)[N-]c1ccccc1C(=O)[N-]c1ccccc1N1CCN(Cc2ccccc2)CC1 (protonated)
O=C(/C=C\c1ccc(O)c([O-])c1)[N-]c1ccccc1C(=O)[N-]c1ccccc1N1CCN(Cc2ccccc2)CC1 (cis-trans isomerization)
O=C(/C=C\c1ccc(O)c([O-])c1)[N-]c1ccccc1C(=O)[N-]c1ccccc1N1CCN(Cc2ccccc2)CC1 (3D coordinates assigned)
O=C(/C=C\c1ccc(O)c([O-])c1)[N-]c1ccccc1C(=O)[N-]c1ccccc1N1CCN(Cc2ccccc2)CC1 (nonaromatic ring conformer: 113.76793968256727 kcal/mol)

>  <smiles>  (83) 
O=C(C=Cc1ccc(O)c(O)c1)Nc1ccccc1C(=O)Nc1ccccc1N1CCN(Cc2ccccc2)CC1

>  <score_type>  (83) 
oracle

>  <origin>  (83) 
adg

>  <m_score__min__energy>  (83) 
-16.219999999999999

>  <m_primary>  (83) 
energy

$$$$
83:0
     RDKit          3D

 38 39  0  0  0  0  0  0  0  0999 V2000
   67.7810   33.5460   50.5320 C   0  0  0  0  0  0  0  0  0  0  0  0
   66.6230   32.6250   50.1590 C   0  0  0  0  0  0  0  0  0  0  0  0
   65.4860   33.3840   49.7470 O   0  0  0  0  0  0  0  0  0  0  0  0
   64.3510   32.8700   49.0970 C   0  0  0  0  0  0  0  0  0  0  0  0
   64.0760   33.3160   47.8000 C   0  0  0  0  0  0  0  0  0  0  0  0
   62.9630   32.8380   47.1020 C   0  0  0  0  0  0  0  0  0  0  0  0
   62.1120   31.8860   47.6910 C   0  0  0  0  0  0  0  0  0  0  0  0
   60.9460   31.3960   47.0060 N   0  0  0  0  0  0  0  0  0  0  0  0
   60.5250   30.0230   47.0250 C   0  0  0  0  0  0  0  0  0  0  0  0
   60.8780   29.2680   47.9710 O   0  0  0  0  0  0  0  0  0  0  0  0
   59.6000   29.5030   46.0020 C   0  0  0  0  0  0  0  0  0  0  0  0
   59.9160   28.1260   45.0880 S   0  0  0  0  0  0  0  0  0  0  0  0
   58.4780   28.1460   44.2280 C   0  0  0  0  0  0  0  0  0  0  0  0
   58.0980   27.1300   43.2980 N   0  0  0  0  0  0  0  0  0  0  0  0
   57.7060   29.2410   44.6290 C   0  0  0  0  0  0  0  0  0  0  0  0
   56.3680   29.5430   44.0750 C   0  0  0  0  0  0  0  0  0  0  0  0
   55.1990   29.3430   44.8650 N   0  0  0  0  0  0  0  0  0  0  0  0
   56.2510   29.9790   42.8980 O   0  0  0  0  0  0  0  0  0  0  0  0
   58.3550   30.0260   45.6150 C   0  0  0  0  0  0  0  0  0  0  0  0
   57.8020   31.3250   46.1380 C   0  0  0  0  0  0  0  0  0  0  0  0
   62.3770   31.4510   48.9960 C   0  0  0  0  0  0  0  0  0  0  0  0
   63.4910   31.9290   49.6930 C   0  0  0  0  0  0  0  0  0  0  0  0
   67.8608   33.6095   51.6273 H   0  0  0  0  0  0  0  0  0  0  0  0
   68.7175   33.1433   50.1188 H   0  0  0  0  0  0  0  0  0  0  0  0
   67.5994   34.5491   50.1188 H   0  0  0  0  0  0  0  0  0  0  0  0
   66.9360   31.9674   49.3346 H   0  0  0  0  0  0  0  0  0  0  0  0
   66.3484   32.0278   51.0410 H   0  0  0  0  0  0  0  0  0  0  0  0
   64.7425   34.0505   47.3243 H   0  0  0  0  0  0  0  0  0  0  0  0
   62.7521   33.2081   46.0878 H   0  0  0  0  0  0  0  0  0  0  0  0
   60.3160   32.0910   46.5470 H   0  0  0  0  0  0  0  0  0  0  0  0
   57.0990   27.0410   43.0060 H   0  0  0  0  0  0  0  0  0  0  0  0
   58.8000   26.5020   42.8510 H   0  0  0  0  0  0  0  0  0  0  0  0
   55.1780   28.6230   45.6210 H   0  0  0  0  0  0  0  0  0  0  0  0
   57.8084   31.3099   47.2379 H   0  0  0  0  0  0  0  0  0  0  0  0
   58.4231   32.1589   45.7791 H   0  0  0  0  0  0  0  0  0  0  0  0
   56.7704   31.4553   45.7791 H   0  0  0  0  0  0  0  0  0  0  0  0
   61.7027   30.7269   49.4767 H   0  0  0  0  0  0  0  0  0  0  0  0
   63.6960   31.5679   50.7116 H   0  0  0  0  0  0  0  0  0  0  0  0
  1  2  1  0
  2  3  1  0
  3  4  1  0
  4  5  2  0
  5  6  1  0
  6  7  2  0
  7  8  1  0
  8  9  1  0
  9 10  2  0
  9 11  1  0
 11 12  1  0
 12 13  1  0
 13 14  1  0
 13 15  2  0
 15 16  1  0
 16 17  1  0
 16 18  2  0
 15 19  1  0
 19 20  1  0
  7 21  1  0
 21 22  2  0
 22  4  1  0
 19 11  2  0
  1 23  1  0
  1 24  1  0
  1 25  1  0
  2 26  1  0
  2 27  1  0
  5 28  1  0
  6 29  1  0
  8 30  1  0
 14 31  1  0
 14 32  1  0
 17 33  1  0
 20 34  1  0
 20 35  1  0
 20 36  1  0
 21 37  1  0
 22 38  1  0
M  CHG  1  17  -1
M  END
>  <UniqueID>  (84) 
78

>  <SMILES>  (84) 
CCOc1ccc(NC(=O)c2sc(N)c(C([NH-])=O)c2C)cc1

>  <Energy>  (84) 
71.5881255683458

>  <Genealogy>  (84) 
CCOc1ccc(NC(=O)c2sc(N)c(C([NH-])=O)c2C)cc1 (protonated)
CCOc1ccc(NC(=O)c2sc(N)c(C([NH-])=O)c2C)cc1 (3D coordinates assigned)
CCOc1ccc(NC(=O)c2sc(N)c(C([NH-])=O)c2C)cc1 (optimized conformer: 71.5881255683458 kcal/mol)

>  <smiles>  (84) 
CCOc1ccc(NC(=O)c2sc(N)c(C(N)=O)c2C)cc1

>  <score_type>  (84) 
oracle

>  <origin>  (84) 
adg

>  <m_score__min__energy>  (84) 
-9.6999999999999993

>  <m_primary>  (84) 
energy

$$$$
84:0
     RDKit          3D

 55 58  0  0  0  0  0  0  0  0999 V2000
   65.8000   32.6640   50.4310 C   0  0  0  0  0  0  0  0  0  0  0  0
   64.3970   32.4190   50.4320 O   0  0  0  0  0  0  0  0  0  0  0  0
   63.5270   32.7930   49.3960 C   0  0  0  0  0  0  0  0  0  0  0  0
   63.8570   32.4220   48.0880 C   0  0  0  0  0  0  0  0  0  0  0  0
   63.0280   32.7660   47.0170 C   0  0  0  0  0  0  0  0  0  0  0  0
   61.8490   33.4910   47.2430 C   0  0  0  0  0  0  0  0  0  0  0  0
   61.0120   33.8420   46.1740 C   0  0  0  0  0  0  0  0  0  0  0  0
   59.8380   34.5840   46.3980 C   0  0  0  0  0  0  0  0  0  0  0  0
   58.9790   34.9560   45.2500 C   0  0  0  0  0  0  0  0  0  0  0  0
   59.2680   35.9790   44.5710 O   0  0  0  0  0  0  0  0  0  0  0  0
   57.7210   34.2060   44.9060 C   0  0  0  0  0  0  0  0  0  0  0  0
   57.8490   32.8050   45.3220 N   0  0  0  0  0  0  0  0  0  0  0  0
   57.7780   32.3520   46.5890 C   0  0  0  0  0  0  0  0  0  0  0  0
   57.5180   33.0710   47.5910 O   0  0  0  0  0  0  0  0  0  0  0  0
   58.0550   31.0050   46.6310 C   0  0  0  0  0  0  0  0  0  0  0  0
   58.3130   30.6760   45.3090 C   0  0  0  0  0  0  0  0  0  0  0  0
   58.7460   29.3100   44.8320 C   0  0  0  0  0  0  0  0  0  0  0  0
   60.1850   29.0570   45.1100 N   0  0  0  0  0  0  0  0  0  0  0  0
   60.4010   27.6790   45.5990 C   0  0  0  0  0  0  0  0  0  0  0  0
   59.8350   27.4770   47.0260 C   0  0  0  0  0  0  0  0  0  0  0  0
   59.5980   28.6950   47.7120 O   0  0  0  0  0  0  0  0  0  0  0  0
   60.6840   29.5770   47.5270 C   0  0  0  0  0  0  0  0  0  0  0  0
   60.7610   30.0460   46.0580 C   0  0  0  0  0  0  0  0  0  0  0  0
   58.1750   31.7840   44.5360 N   0  0  0  0  0  0  0  0  0  0  0  0
   58.4480   31.8870   43.0990 C   0  0  0  0  0  0  0  0  0  0  0  0
   59.5000   34.9490   47.7150 C   0  0  0  0  0  0  0  0  0  0  0  0
   60.3290   34.5990   48.7840 C   0  0  0  0  0  0  0  0  0  0  0  0
   61.5060   33.8740   48.5600 C   0  0  0  0  0  0  0  0  0  0  0  0
   62.3450   33.5220   49.6290 C   0  0  0  0  0  0  0  0  0  0  0  0
   66.1619   32.7272   51.4678 H   0  0  0  0  0  0  0  0  0  0  0  0
   66.3154   31.8423   49.9122 H   0  0  0  0  0  0  0  0  0  0  0  0
   66.0063   33.6118   49.9122 H   0  0  0  0  0  0  0  0  0  0  0  0
   64.7796   31.8530   47.9006 H   0  0  0  0  0  0  0  0  0  0  0  0
   63.3009   32.4674   45.9941 H   0  0  0  0  0  0  0  0  0  0  0  0
   61.2758   33.5344   45.1513 H   0  0  0  0  0  0  0  0  0  0  0  0
   56.8679   34.6652   45.4269 H   0  0  0  0  0  0  0  0  0  0  0  0
   57.5579   34.2490   43.8190 H   0  0  0  0  0  0  0  0  0  0  0  0
   58.0686   30.3429   47.5093 H   0  0  0  0  0  0  0  0  0  0  0  0
   58.1445   28.5462   45.3467 H   0  0  0  0  0  0  0  0  0  0  0  0
   58.5956   29.2651   43.7433 H   0  0  0  0  0  0  0  0  0  0  0  0
   60.7130   29.1370   44.2090 H   0  0  0  0  0  0  0  0  0  0  0  0
   59.9012   26.9768   44.9156 H   0  0  0  0  0  0  0  0  0  0  0  0
   61.4851   27.4956   45.6333 H   0  0  0  0  0  0  0  0  0  0  0  0
   58.8848   26.9280   46.9504 H   0  0  0  0  0  0  0  0  0  0  0  0
   60.5900   26.9205   47.6007 H   0  0  0  0  0  0  0  0  0  0  0  0
   60.5532   30.4529   48.1795 H   0  0  0  0  0  0  0  0  0  0  0  0
   61.6156   29.0493   47.7794 H   0  0  0  0  0  0  0  0  0  0  0  0
   60.2067   30.9911   45.9607 H   0  0  0  0  0  0  0  0  0  0  0  0
   61.8240   30.1703   45.8038 H   0  0  0  0  0  0  0  0  0  0  0  0
   59.4672   32.2715   42.9460 H   0  0  0  0  0  0  0  0  0  0  0  0
   58.3578   30.8930   42.6365 H   0  0  0  0  0  0  0  0  0  0  0  0
   57.7238   32.5737   42.6365 H   0  0  0  0  0  0  0  0  0  0  0  0
   58.5756   35.5144   47.9041 H   0  0  0  0  0  0  0  0  0  0  0  0
   60.0555   34.8947   49.8076 H   0  0  0  0  0  0  0  0  0  0  0  0
   62.0776   33.8173   50.6543 H   0  0  0  0  0  0  0  0  0  0  0  0
  1  2  1  0
  2  3  1  0
  3  4  2  0
  4  5  1  0
  5  6  2  0
  6  7  1  0
  7  8  2  0
  8  9  1  0
  9 10  2  0
  9 11  1  0
 11 12  1  0
 12 13  1  0
 13 14  2  0
 13 15  1  0
 15 16  2  0
 16 17  1  0
 17 18  1  0
 18 19  1  0
 19 20  1  0
 20 21  1  0
 21 22  1  0
 22 23  1  0
 16 24  1  0
 24 25  1  0
  8 26  1  0
 26 27  2  0
 27 28  1  0
 28 29  2  0
 29  3  1  0
 28  6  1  0
 24 12  1  0
 23 18  1  0
  1 30  1  0
  1 31  1  0
  1 32  1  0
  4 33  1  0
  5 34  1  0
  7 35  1  0
 11 36  1  0
 11 37  1  0
 15 38  1  0
 17 39  1  0
 17 40  1  0
 18 41  1  0
 19 42  1  0
 19 43  1  0
 20 44  1  0
 20 45  1  0
 22 46  1  0
 22 47  1  0
 23 48  1  0
 23 49  1  0
 25 50  1  0
 25 51  1  0
 25 52  1  0
 26 53  1  0
 27 54  1  0
 29 55  1  0
M  CHG  1  18   1
M  END
>  <UniqueID>  (85) 
79

>  <SMILES>  (85) 
COc1ccc2cc(C(=O)Cn3c(=O)cc(C[NH+]4CCOCC4)n3C)ccc2c1

>  <Energy>  (85) 
107.57594161190327

>  <Genealogy>  (85) 
COc1ccc2cc(C(=O)Cn3c(=O)cc(C[NH+]4CCOCC4)n3C)ccc2c1 (protonated)
COc1ccc2cc(C(=O)Cn3c(=O)cc(C[NH+]4CCOCC4)n3C)ccc2c1 (3D coordinates assigned)
COc1ccc2cc(C(=O)Cn3c(=O)cc(C[NH+]4CCOCC4)n3C)ccc2c1 (nonaromatic ring conformer: 107.57594161190327 kcal/mol)

>  <smiles>  (85) 
COc1ccc2cc(C(=O)Cn3c(=O)cc(CN4CCOCC4)n3C)ccc2c1

>  <score_type>  (85) 
oracle

>  <origin>  (85) 
adg

>  <m_score__min__energy>  (85) 
-6.8399999999999999

>  <m_primary>  (85) 
energy

$$$$
85:0
     RDKit          3D

 46 48  0  0  0  0  0  0  0  0999 V2000
   57.3010   24.5290   43.6180 C   0  0  0  0  0  0  0  0  0  0  0  0
   57.1170   23.1590   44.2050 C   0  0  0  0  0  0  0  0  0  0  0  0
   56.8710   22.0610   43.3460 C   0  0  0  0  0  0  0  0  0  0  0  0
   56.6450   20.7680   43.8620 C   0  0  0  0  0  0  0  0  0  0  0  0
   56.6550   20.5420   45.2460 C   0  0  0  0  0  0  0  0  0  0  0  0
   56.9120   21.6290   46.0730 C   0  0  0  0  0  0  0  0  0  0  0  0
   57.0270   21.6360   47.4130 N   0  0  0  0  0  0  0  0  0  0  0  0
   57.3420   22.8840   47.7410 N   0  0  0  0  0  0  0  0  0  0  0  0
   57.4160   23.6650   46.6650 N   0  0  0  0  0  0  0  0  0  0  0  0
   57.8990   25.0470   46.7310 C   0  0  0  0  0  0  0  0  0  0  0  0
   56.7750   26.0170   46.5200 C   0  0  0  0  0  0  0  0  0  0  0  0
   55.6310   25.5880   46.2100 O   0  0  0  0  0  0  0  0  0  0  0  0
   57.0110   27.4230   46.6490 N   0  0  0  0  0  0  0  0  0  0  0  0
   57.9520   28.1700   45.8220 C   0  0  1  0  0  0  0  0  0  0  0  0
   57.2240   29.0660   44.8370 C   0  0  0  0  0  0  0  0  0  0  0  0
   56.7380   30.1590   45.2480 O   0  0  0  0  0  0  0  0  0  0  0  0
   57.0900   28.7130   43.4410 N   0  0  0  0  0  0  0  0  0  0  0  0
   57.7810   27.5420   42.8830 C   0  0  0  0  0  0  0  0  0  0  0  0
   56.2690   29.5640   42.5710 C   0  0  0  0  0  0  0  0  0  0  0  0
   58.8590   28.9590   46.7360 C   0  0  0  0  0  0  0  0  0  0  0  0
   58.9470   28.6570   48.1090 C   0  0  0  0  0  0  0  0  0  0  0  0
   59.8300   29.3610   48.9320 C   0  0  0  0  0  0  0  0  0  0  0  0
   60.6470   30.3590   48.3910 C   0  0  0  0  0  0  0  0  0  0  0  0
   60.5840   30.6500   47.0260 C   0  0  0  0  0  0  0  0  0  0  0  0
   59.7000   29.9520   46.2000 C   0  0  0  0  0  0  0  0  0  0  0  0
   57.1460   22.8860   45.5900 C   0  0  0  0  0  0  0  0  0  0  0  0
   57.3999   25.2653   44.4293 H   0  0  0  0  0  0  0  0  0  0  0  0
   58.2091   24.5431   42.9974 H   0  0  0  0  0  0  0  0  0  0  0  0
   56.4288   24.7822   42.9974 H   0  0  0  0  0  0  0  0  0  0  0  0
   56.8558   22.2190   42.2575 H   0  0  0  0  0  0  0  0  0  0  0  0
   56.4595   19.9304   43.1736 H   0  0  0  0  0  0  0  0  0  0  0  0
   56.4664   19.5412   45.6617 H   0  0  0  0  0  0  0  0  0  0  0  0
   58.3476   25.2250   47.7195 H   0  0  0  0  0  0  0  0  0  0  0  0
   58.6461   25.1966   45.9376 H   0  0  0  0  0  0  0  0  0  0  0  0
   58.5567   27.4771   45.2185 H   0  0  0  0  0  0  0  0  0  0  0  0
   58.1535   26.9108   43.7032 H   0  0  0  0  0  0  0  0  0  0  0  0
   57.0798   26.9630   42.2641 H   0  0  0  0  0  0  0  0  0  0  0  0
   58.6269   27.8759   42.2641 H   0  0  0  0  0  0  0  0  0  0  0  0
   55.6372   30.2189   43.1891 H   0  0  0  0  0  0  0  0  0  0  0  0
   56.9237   30.1790   41.9360 H   0  0  0  0  0  0  0  0  0  0  0  0
   55.6309   28.9318   41.9360 H   0  0  0  0  0  0  0  0  0  0  0  0
   58.3171   27.8626   48.5357 H   0  0  0  0  0  0  0  0  0  0  0  0
   59.8826   29.1301   50.0062 H   0  0  0  0  0  0  0  0  0  0  0  0
   61.3393   30.9149   49.0404 H   0  0  0  0  0  0  0  0  0  0  0  0
   61.2320   31.4306   46.6008 H   0  0  0  0  0  0  0  0  0  0  0  0
   59.6609   30.1797   45.1245 H   0  0  0  0  0  0  0  0  0  0  0  0
  1  2  1  0
  2  3  2  0
  3  4  1  0
  4  5  2  0
  5  6  1  0
  6  7  1  0
  7  8  2  0
  8  9  1  0
  9 10  1  0
 10 11  1  0
 11 12  2  0
 11 13  1  0
 13 14  1  0
 14 15  1  0
 15 16  2  0
 15 17  1  0
 17 18  1  0
 17 19  1  0
 14 20  1  0
 20 21  2  0
 21 22  1  0
 22 23  2  0
 23 24  1  0
 24 25  2  0
  9 26  1  0
 26  2  1  0
 26  6  2  0
 25 20  1  0
  1 27  1  0
  1 28  1  0
  1 29  1  0
  3 30  1  0
  4 31  1  0
  5 32  1  0
 10 33  1  0
 10 34  1  0
 14 35  1  6
 18 36  1  0
 18 37  1  0
 18 38  1  0
 19 39  1  0
 19 40  1  0
 19 41  1  0
 21 42  1  0
 22 43  1  0
 23 44  1  0
 24 45  1  0
 25 46  1  0
M  CHG  1  13  -1
M  END
>  <UniqueID>  (86) 
80

>  <SMILES>  (86) 
Cc1cccc2nnn(CC(=O)[N-][C@@H](C(=O)N(C)C)c3ccccc3)c12

>  <Energy>  (86) 
88.98888528174183

>  <Genealogy>  (86) 
Cc1cccc2nnn(CC(=O)[N-]C(C(=O)N(C)C)c3ccccc3)c12 (protonated)
Cc1cccc2nnn(CC(=O)[N-][C@@H](C(=O)N(C)C)c3ccccc3)c12 (chirality)
Cc1cccc2nnn(CC(=O)[N-][C@@H](C(=O)N(C)C)c3ccccc3)c12 (3D coordinates assigned)
Cc1cccc2nnn(CC(=O)[N-][C@@H](C(=O)N(C)C)c3ccccc3)c12 (optimized conformer: 88.98888528174183 kcal/mol)

>  <smiles>  (86) 
Cc1cccc2nnn(CC(=O)NC(C(=O)N(C)C)c3ccccc3)c12

>  <score_type>  (86) 
oracle

>  <origin>  (86) 
adg

>  <m_score__min__energy>  (86) 
-10.27

>  <m_primary>  (86) 
energy

$$$$
86:0
     RDKit          3D

 38 40  0  0  0  0  0  0  0  0999 V2000
   56.4170   27.9550   44.8110 H   0  0  0  0  0  0  0  0  0  0  0  0
   56.7720   28.8700   45.1640 N   0  0  0  0  0  0  0  0  0  0  0  0
   57.7240   28.9730   46.0390 C   0  0  0  0  0  0  0  0  0  0  0  0
   58.3530   27.9260   46.6980 C   0  0  0  0  0  0  0  0  0  0  0  0
   58.0530   26.4810   46.6890 C   0  0  0  0  0  0  0  0  0  0  0  0
   57.9882   25.9460   47.6480 H   0  0  0  0  0  0  0  0  0  0  0  0
   57.8570   25.7990   45.5540 C   0  0  0  0  0  0  0  0  0  0  0  0
   58.5936   25.9008   44.7434 H   0  0  0  0  0  0  0  0  0  0  0  0
   56.6890   24.9130   45.3450 C   0  0  0  0  0  0  0  0  0  0  0  0
   56.8750   23.5810   44.9200 C   0  0  0  0  0  0  0  0  0  0  0  0
   57.8896   23.2140   44.7055 H   0  0  0  0  0  0  0  0  0  0  0  0
   55.7830   22.7240   44.7690 C   0  0  0  0  0  0  0  0  0  0  0  0
   55.9405   21.6893   44.4305 H   0  0  0  0  0  0  0  0  0  0  0  0
   54.4940   23.1760   45.0460 C   0  0  0  0  0  0  0  0  0  0  0  0
   53.6360   22.4980   44.9273 H   0  0  0  0  0  0  0  0  0  0  0  0
   54.2920   24.4890   45.4740 C   0  0  0  0  0  0  0  0  0  0  0  0
   53.2733   24.8390   45.6971 H   0  0  0  0  0  0  0  0  0  0  0  0
   55.3750   25.3650   45.6220 C   0  0  0  0  0  0  0  0  0  0  0  0
   55.1070   26.6760   46.0240 O   0  0  0  0  0  0  0  0  0  0  0  0
   55.1260   27.4660   45.3930 H   0  0  0  0  0  0  0  0  0  0  0  0
   59.4080   28.5390   47.3550 C   0  0  0  0  0  0  0  0  0  0  0  0
   60.4470   27.8590   48.1850 C   0  0  0  0  0  0  0  0  0  0  0  0
   60.2198   28.0077   49.2510 H   0  0  0  0  0  0  0  0  0  0  0  0
   60.4513   26.7828   47.9577 H   0  0  0  0  0  0  0  0  0  0  0  0
   61.4350   28.2858   47.9577 H   0  0  0  0  0  0  0  0  0  0  0  0
   59.3920   29.8670   47.1170 N   0  0  0  0  0  0  0  0  0  0  0  0
   58.3590   30.1310   46.3300 N   0  0  0  0  0  0  0  0  0  0  0  0
   58.0570   31.4520   45.8440 C   0  0  0  0  0  0  0  0  0  0  0  0
   57.9890   31.6910   44.4600 C   0  0  0  0  0  0  0  0  0  0  0  0
   58.1566   30.8640   43.7544 H   0  0  0  0  0  0  0  0  0  0  0  0
   57.7100   32.9720   43.9740 C   0  0  0  0  0  0  0  0  0  0  0  0
   57.6495   33.1471   42.8897 H   0  0  0  0  0  0  0  0  0  0  0  0
   57.5080   34.0300   44.8640 C   0  0  0  0  0  0  0  0  0  0  0  0
   57.2837   35.0364   44.4807 H   0  0  0  0  0  0  0  0  0  0  0  0
   57.5910   33.8090   46.2410 C   0  0  0  0  0  0  0  0  0  0  0  0
   57.4374   34.6436   46.9408 H   0  0  0  0  0  0  0  0  0  0  0  0
   57.8690   32.5290   46.7320 C   0  0  0  0  0  0  0  0  0  0  0  0
   57.9411   32.3628   47.8170 H   0  0  0  0  0  0  0  0  0  0  0  0
  1  2  1  0
  2  3  2  0
  3  4  1  0
  4  5  1  0
  5  6  1  0
  5  7  2  0
  7  8  1  0
  7  9  1  0
  9 10  2  0
 10 11  1  0
 10 12  1  0
 12 13  1  0
 12 14  2  0
 14 15  1  0
 14 16  1  0
 16 17  1  0
 16 18  2  0
 18 19  1  0
 19 20  1  0
  4 21  2  0
 21 22  1  0
 22 23  1  0
 22 24  1  0
 22 25  1  0
 21 26  1  0
 26 27  1  0
 27 28  1  0
 28 29  2  0
 29 30  1  0
 29 31  1  0
 31 32  1  0
 31 33  2  0
 33 34  1  0
 33 35  1  0
 35 36  1  0
 35 37  2  0
 37 38  1  0
 27  3  1  0
 37 28  1  0
 18  9  1  0
M  CHG  1  26  -1
M  END
>  <UniqueID>  (87) 
81

>  <SMILES>  (87) 
[H]/N=c1\c(/C=C/c2ccccc2O)c(C)[n-]n1-c1ccccc1

>  <Energy>  (87) 
84.98458036567128

>  <Genealogy>  (87) 
Cc1[n-]n(-c2ccccc2)c(=N)c1C=Cc1ccccc1O (protonated)
[H]/N=c1\c(/C=C/c2ccccc2O)c(C)[n-]n1-c1ccccc1 (cis-trans isomerization)
[H]/N=c1\c(/C=C/c2ccccc2O)c(C)[n-]n1-c1ccccc1 (3D coordinates assigned)
[H]/N=c1\c(/C=C/c2ccccc2O)c(C)[n-]n1-c1ccccc1 (optimized conformer: 84.98458036567128 kcal/mol)

>  <smiles>  (87) 
Cc1[nH]n(-c2ccccc2)c(=N)c1C=Cc1ccccc1O

>  <score_type>  (87) 
oracle

>  <origin>  (87) 
adg

>  <m_score__min__energy>  (87) 
-10.199999999999999

>  <m_primary>  (87) 
energy

$$$$
87:0
     RDKit          3D

 65 68  0  0  0  0  0  0  0  0999 V2000
   54.3680   30.3150   44.1560 H   0  0  0  0  0  0  0  0  0  0  0  0
   54.8020   29.3640   44.1640 N   0  0  0  0  0  0  0  0  0  0  0  0
   55.8930   29.1250   44.8160 C   0  0  0  0  0  0  0  0  0  0  0  0
   56.8670   30.0700   44.8910 N   0  0  0  0  0  0  0  0  0  0  0  0
   58.0220   29.8440   45.5720 C   0  0  0  0  0  0  0  0  0  0  0  0
   58.8990   30.7480   45.6180 O   0  0  0  0  0  0  0  0  0  0  0  0
   58.2220   28.6090   46.2120 C   0  0  0  0  0  0  0  0  0  0  0  0
   59.3920   28.3120   46.9350 C   0  0  0  0  0  0  0  0  0  0  0  0
   60.1892   29.0651   47.0207 H   0  0  0  0  0  0  0  0  0  0  0  0
   59.5460   27.0570   47.5480 C   0  0  0  0  0  0  0  0  0  0  0  0
   60.7740   26.7560   48.3650 C   0  0  0  0  0  0  0  0  0  0  0  0
   61.0620   25.7055   48.2118 H   0  0  0  0  0  0  0  0  0  0  0  0
   61.5872   27.4233   48.0435 H   0  0  0  0  0  0  0  0  0  0  0  0
   60.5120   26.9810   49.7880 N   0  0  0  0  0  0  0  0  0  0  0  0
   60.0860   26.2070   50.3500 H   0  0  0  0  0  0  0  0  0  0  0  0
   60.7990   28.2240   50.4590 C   0  0  0  0  0  0  0  0  0  0  0  0
   60.4880   28.4240   51.8170 C   0  0  0  0  0  0  0  0  0  0  0  0
   60.0036   27.6203   52.3910 H   0  0  0  0  0  0  0  0  0  0  0  0
   60.7910   29.6380   52.4410 C   0  0  0  0  0  0  0  0  0  0  0  0
   60.5336   29.7876   53.5000 H   0  0  0  0  0  0  0  0  0  0  0  0
   61.4210   30.6660   51.7250 C   0  0  0  0  0  0  0  0  0  0  0  0
   61.7480   31.9720   52.3980 C   0  0  0  0  0  0  0  0  0  0  0  0
   62.1215   31.7709   53.4129 H   0  0  0  0  0  0  0  0  0  0  0  0
   62.5136   32.4923   51.8038 H   0  0  0  0  0  0  0  0  0  0  0  0
   60.5310   32.8470   52.4860 C   0  0  0  0  0  0  0  0  0  0  0  0
   60.2770   33.4460   53.5660 O   0  0  0  0  0  0  0  0  0  0  0  0
   59.6910   33.0860   51.3470 N   0  0  0  0  0  0  0  0  0  0  0  0
   58.5910   32.4620   51.0230 C   0  0  0  0  0  0  0  0  0  0  0  0
   57.8340   31.7590   52.1160 C   0  0  0  0  0  0  0  0  0  0  0  0
   58.5113   31.5668   52.9612 H   0  0  0  0  0  0  0  0  0  0  0  0
   56.9987   32.3967   52.4409 H   0  0  0  0  0  0  0  0  0  0  0  0
   57.2890   30.4600   51.6150 C   0  0  0  0  0  0  0  0  0  0  0  0
   57.9840   29.7320   50.8570 O   0  0  0  0  0  0  0  0  0  0  0  0
   55.9940   30.0800   51.9370 O   0  0  0  0  0  0  0  0  0  0  0  0
   58.1110   32.3230   49.5920 C   0  0  0  0  0  0  0  0  0  0  0  0
   57.1434   31.7998   49.5887 H   0  0  0  0  0  0  0  0  0  0  0  0
   58.0127   33.3304   49.1613 H   0  0  0  0  0  0  0  0  0  0  0  0
   59.1120   31.5280   48.7370 C   0  0  0  0  0  0  0  0  0  0  0  0
   59.7598   30.9381   49.4021 H   0  0  0  0  0  0  0  0  0  0  0  0
   58.5425   30.8736   48.0607 H   0  0  0  0  0  0  0  0  0  0  0  0
   59.9730   32.4390   47.8970 C   0  0  0  0  0  0  0  0  0  0  0  0
   61.2010   32.5380   48.1700 O   0  0  0  0  0  0  0  0  0  0  0  0
   59.4180   33.2600   46.8500 N   0  0  0  0  0  0  0  0  0  0  0  0
   60.2100   34.2340   46.1190 C   0  0  0  0  0  0  0  0  0  0  0  0
   60.7483   34.8917   46.8173 H   0  0  0  0  0  0  0  0  0  0  0  0
   60.9654   33.7474   45.4846 H   0  0  0  0  0  0  0  0  0  0  0  0
   59.2170   35.0390   45.2910 C   0  0  0  0  0  0  0  0  0  0  0  0
   59.0386   36.0200   45.7555 H   0  0  0  0  0  0  0  0  0  0  0  0
   59.5956   35.2236   44.2748 H   0  0  0  0  0  0  0  0  0  0  0  0
   57.9290   34.2210   45.2680 C   0  0  0  0  0  0  0  0  0  0  0  0
   57.0560   34.8799   45.3856 H   0  0  0  0  0  0  0  0  0  0  0  0
   57.8091   33.6865   44.3141 H   0  0  0  0  0  0  0  0  0  0  0  0
   58.0230   33.2530   46.4410 C   0  0  0  0  0  0  0  0  0  0  0  0
   57.3799   33.5893   47.2676 H   0  0  0  0  0  0  0  0  0  0  0  0
   57.6886   32.2433   46.1603 H   0  0  0  0  0  0  0  0  0  0  0  0
   61.7140   30.4770   50.3660 C   0  0  0  0  0  0  0  0  0  0  0  0
   62.1866   31.2862   49.7900 H   0  0  0  0  0  0  0  0  0  0  0  0
   61.4080   29.2650   49.7410 C   0  0  0  0  0  0  0  0  0  0  0  0
   61.6467   29.1256   48.6763 H   0  0  0  0  0  0  0  0  0  0  0  0
   58.5140   26.1110   47.4570 C   0  0  0  0  0  0  0  0  0  0  0  0
   58.6229   25.1348   47.9521 H   0  0  0  0  0  0  0  0  0  0  0  0
   57.3490   26.4000   46.7420 C   0  0  0  0  0  0  0  0  0  0  0  0
   56.5488   25.6487   46.6695 H   0  0  0  0  0  0  0  0  0  0  0  0
   57.1980   27.6430   46.1180 C   0  0  0  0  0  0  0  0  0  0  0  0
   56.0630   27.9240   45.4260 N   0  0  0  0  0  0  0  0  0  0  0  0
  1  2  1  0
  2  3  2  3
  3  4  1  0
  4  5  1  0
  5  6  2  0
  5  7  1  0
  7  8  2  0
  8  9  1  0
  8 10  1  0
 10 11  1  0
 11 12  1  0
 11 13  1  0
 11 14  1  0
 14 15  1  0
 14 16  1  0
 16 17  2  0
 17 18  1  0
 17 19  1  0
 19 20  1  0
 19 21  2  0
 21 22  1  0
 22 23  1  0
 22 24  1  0
 22 25  1  0
 25 26  2  0
 25 27  1  0
 27 28  2  0
 28 29  1  0
 29 30  1  0
 29 31  1  0
 29 32  1  0
 32 33  2  0
 32 34  1  0
 28 35  1  0
 35 36  1  0
 35 37  1  0
 35 38  1  0
 38 39  1  0
 38 40  1  0
 38 41  1  0
 41 42  2  0
 41 43  1  0
 43 44  1  0
 44 45  1  0
 44 46  1  0
 44 47  1  0
 47 48  1  0
 47 49  1  0
 47 50  1  0
 50 51  1  0
 50 52  1  0
 50 53  1  0
 53 54  1  0
 53 55  1  0
 21 56  1  0
 56 57  1  0
 56 58  2  0
 58 59  1  0
 10 60  2  0
 60 61  1  0
 60 62  1  0
 62 63  1  0
 62 64  2  0
 64 65  1  0
 65  3  1  0
 64  7  1  0
 58 16  1  0
 53 43  1  0
M  CHG  3   4  -1  34  -1  65  -1
M  END
>  <UniqueID>  (88) 
82

>  <SMILES>  (88) 
N=c1[n-]c(=O)c2cc(CNc3ccc(CC(=O)/N=C(\CCC(=O)N4CCCC4)CC(=O)[O-])cc3)ccc2[n-]1

>  <Energy>  (88) 
73.2443138271306

>  <Genealogy>  (88) 
N=c1[n-]c(=O)c2cc(CNc3ccc(CC(=O)N=C(CCC(=O)N4CCCC4)CC(=O)[O-])cc3)ccc2[n-]1 (protonated)
N=c1[n-]c(=O)c2cc(CNc3ccc(CC(=O)/N=C(\CCC(=O)N4CCCC4)CC(=O)[O-])cc3)ccc2[n-]1 (cis-trans isomerization)
N=c1[n-]c(=O)c2cc(CNc3ccc(CC(=O)/N=C(\CCC(=O)N4CCCC4)CC(=O)[O-])cc3)ccc2[n-]1 (3D coordinates assigned)
N=c1[n-]c(=O)c2cc(CNc3ccc(CC(=O)/N=C(\CCC(=O)N4CCCC4)CC(=O)[O-])cc3)ccc2[n-]1 (nonaromatic ring conformer: 73.2443138271306 kcal/mol)

>  <smiles>  (88) 
N=c1[nH]c(=O)c2cc(CNc3ccc(CC(=O)N=C(CCC(=O)N4CCCC4)CC(=O)O)cc3)ccc2[nH]1

>  <score_type>  (88) 
oracle

>  <origin>  (88) 
adg

>  <m_score__min__energy>  (88) 
-16.239999999999998

>  <m_primary>  (88) 
energy

$$$$
88:0
     RDKit          3D

 51 54  0  0  0  0  0  0  0  0999 V2000
   56.0480   29.7140   44.8370 O   0  0  0  0  0  0  0  0  0  0  0  0
   56.8460   30.6590   44.6010 C   0  0  0  0  0  0  0  0  0  0  0  0
   58.1390   30.3580   43.9560 C   0  0  0  0  0  0  0  0  0  0  0  0
   59.1560   29.6860   44.5220 C   0  0  0  0  0  0  0  0  0  0  0  0
   59.2830   29.3890   45.9610 C   0  0  0  0  0  0  0  0  0  0  0  0
   58.5280   28.4520   46.6610 C   0  0  0  0  0  0  0  0  0  0  0  0
   58.9000   28.4240   47.9610 N   0  0  0  0  0  0  0  0  0  0  0  0
   59.8670   29.3480   48.0920 C   0  0  0  0  0  0  0  0  0  0  0  0
   60.5710   29.6690   49.2510 C   0  0  0  0  0  0  0  0  0  0  0  0
   61.5620   30.6720   49.1820 C   0  0  0  0  0  0  0  0  0  0  0  0
   62.3130   30.9900   50.3660 N   0  0  0  0  0  0  0  0  0  0  0  0
   62.0610   32.4140   51.3250 S   0  0  0  0  0  0  0  0  0  0  0  0
   62.5000   33.6210   50.5440 O   0  0  0  0  0  0  0  0  0  0  0  0
   62.8890   32.3180   52.5760 O   0  0  0  0  0  0  0  0  0  0  0  0
   60.3490   32.5830   51.7150 C   0  0  0  0  0  0  0  0  0  0  0  0
   59.8350   33.8400   52.0640 C   0  0  0  0  0  0  0  0  0  0  0  0
   58.4800   33.9820   52.3710 C   0  0  0  0  0  0  0  0  0  0  0  0
   57.6280   32.8730   52.3240 C   0  0  0  0  0  0  0  0  0  0  0  0
   58.1360   31.6170   51.9750 C   0  0  0  0  0  0  0  0  0  0  0  0
   59.4950   31.4700   51.6720 C   0  0  0  0  0  0  0  0  0  0  0  0
   61.7900   31.3430   47.9470 C   0  0  0  0  0  0  0  0  0  0  0  0
   61.0570   31.0010   46.7970 C   0  0  0  0  0  0  0  0  0  0  0  0
   60.1160   29.9750   46.9000 C   0  0  0  0  0  0  0  0  0  0  0  0
   56.4740   32.0030   44.9180 N   0  0  0  0  0  0  0  0  0  0  0  0
   57.5750   33.3340   44.7890 S   0  0  0  0  0  0  0  0  0  0  0  0
   58.5240   33.0960   43.6450 O   0  0  0  0  0  0  0  0  0  0  0  0
   56.7960   34.5860   44.5030 O   0  0  0  0  0  0  0  0  0  0  0  0
   58.4700   33.5230   46.2920 C   0  0  0  0  0  0  0  0  0  0  0  0
   58.1190   32.7650   47.4200 C   0  0  0  0  0  0  0  0  0  0  0  0
   58.8260   32.9220   48.6180 C   0  0  0  0  0  0  0  0  0  0  0  0
   59.8860   33.8310   48.6920 C   0  0  0  0  0  0  0  0  0  0  0  0
   60.2470   34.5770   47.5670 C   0  0  0  0  0  0  0  0  0  0  0  0
   59.5440   34.4230   46.3680 C   0  0  0  0  0  0  0  0  0  0  0  0
   58.2823   30.7137   42.9250 H   0  0  0  0  0  0  0  0  0  0  0  0
   59.9578   29.3290   43.8589 H   0  0  0  0  0  0  0  0  0  0  0  0
   57.7406   27.8235   46.2194 H   0  0  0  0  0  0  0  0  0  0  0  0
   58.5170   27.8030   48.7080 H   0  0  0  0  0  0  0  0  0  0  0  0
   60.3592   29.1523   50.1987 H   0  0  0  0  0  0  0  0  0  0  0  0
   63.1150   30.3750   50.6360 H   0  0  0  0  0  0  0  0  0  0  0  0
   60.5000   34.7156   52.0960 H   0  0  0  0  0  0  0  0  0  0  0  0
   58.0814   34.9684   52.6505 H   0  0  0  0  0  0  0  0  0  0  0  0
   56.5601   32.9886   52.5612 H   0  0  0  0  0  0  0  0  0  0  0  0
   57.4673   30.7444   51.9386 H   0  0  0  0  0  0  0  0  0  0  0  0
   59.8937   30.4815   51.4001 H   0  0  0  0  0  0  0  0  0  0  0  0
   62.5483   32.1380   47.8920 H   0  0  0  0  0  0  0  0  0  0  0  0
   61.2202   31.5263   45.8444 H   0  0  0  0  0  0  0  0  0  0  0  0
   57.2877   32.0470   47.3626 H   0  0  0  0  0  0  0  0  0  0  0  0
   58.5474   32.3297   49.5021 H   0  0  0  0  0  0  0  0  0  0  0  0
   60.4358   33.9588   49.6361 H   0  0  0  0  0  0  0  0  0  0  0  0
   61.0856   35.2866   47.6246 H   0  0  0  0  0  0  0  0  0  0  0  0
   59.8334   35.0084   45.4828 H   0  0  0  0  0  0  0  0  0  0  0  0
  1  2  2  0
  2  3  1  0
  3  4  2  3
  4  5  1  0
  5  6  2  0
  6  7  1  0
  7  8  1  0
  8  9  2  0
  9 10  1  0
 10 11  1  0
 11 12  1  0
 12 13  2  0
 12 14  2  0
 12 15  1  0
 15 16  2  0
 16 17  1  0
 17 18  2  0
 18 19  1  0
 19 20  2  0
 10 21  2  0
 21 22  1  0
 22 23  2  0
  2 24  1  0
 24 25  1  0
 25 26  2  0
 25 27  2  0
 25 28  1  0
 28 29  2  0
 29 30  1  0
 30 31  2  0
 31 32  1  0
 32 33  2  0
 23  5  1  0
 33 28  1  0
 23  8  1  0
 20 15  1  0
  3 34  1  0
  4 35  1  0
  6 36  1  0
  7 37  1  0
  9 38  1  0
 11 39  1  0
 16 40  1  0
 17 41  1  0
 18 42  1  0
 19 43  1  0
 20 44  1  0
 21 45  1  0
 22 46  1  0
 29 47  1  0
 30 48  1  0
 31 49  1  0
 32 50  1  0
 33 51  1  0
M  CHG  1  24  -1
M  END
>  <UniqueID>  (89) 
83

>  <SMILES>  (89) 
O=C(C=Cc1c[nH]c2cc(NS(=O)(=O)c3ccccc3)ccc12)[N-]S(=O)(=O)c1ccccc1

>  <Energy>  (89) 
97.07357475946415

>  <Genealogy>  (89) 
O=C(C=Cc1c[nH]c2cc(NS(=O)(=O)c3ccccc3)ccc12)[N-]S(=O)(=O)c1ccccc1 (protonated)
O=C(C=Cc1c[nH]c2cc(NS(=O)(=O)c3ccccc3)ccc12)[N-]S(=O)(=O)c1ccccc1 (3D coordinates assigned)
O=C(C=Cc1c[nH]c2cc(NS(=O)(=O)c3ccccc3)ccc12)[N-]S(=O)(=O)c1ccccc1 (optimized conformer: 97.07357475946415 kcal/mol)

>  <smiles>  (89) 
O=C(C=Cc1c[nH]c2cc(NS(=O)(=O)c3ccccc3)ccc12)NS(=O)(=O)c1ccccc1

>  <score_type>  (89) 
oracle

>  <origin>  (89) 
adg

>  <m_score__min__energy>  (89) 
-11.85

>  <m_primary>  (89) 
energy

$$$$
89:0
     RDKit          3D

 39 41  0  0  0  0  0  0  0  0999 V2000
   55.2050   29.2000   44.8820 O   0  0  0  0  0  0  0  0  0  0  0  0
   56.3670   29.6800   44.8230 C   0  0  0  0  0  0  0  0  0  0  0  0
   57.5480   28.7570   44.9900 C   0  0  0  0  0  0  0  0  0  0  0  0
   57.4970   27.9640   46.3040 C   0  0  0  0  0  0  0  0  0  0  0  0
   57.1880   26.5530   46.0660 N   0  0  0  0  0  0  0  0  0  0  0  0
   55.9630   25.9990   45.9250 C   0  0  0  0  0  0  0  0  0  0  0  0
   54.7690   26.7080   46.0000 O   0  0  0  0  0  0  0  0  0  0  0  0
   56.0720   24.6420   45.6950 C   0  0  0  0  0  0  0  0  0  0  0  0
   57.4130   24.3520   45.6920 C   0  0  0  0  0  0  0  0  0  0  0  0
   58.0740   25.5420   45.9230 C   0  0  0  0  0  0  0  0  0  0  0  0
   59.4530   25.6950   46.0000 O   0  0  0  0  0  0  0  0  0  0  0  0
   57.9760   22.9860   45.4710 C   0  0  0  0  0  0  0  0  0  0  0  0
   56.8840   21.9570   45.2580 C   0  0  0  0  0  0  0  0  0  0  0  0
   55.5630   22.2420   45.2590 C   0  0  0  0  0  0  0  0  0  0  0  0
   54.9940   23.6320   45.4730 C   0  0  0  0  0  0  0  0  0  0  0  0
   56.5200   31.0600   44.4600 N   0  0  0  0  0  0  0  0  0  0  0  0
   57.3970   32.0220   45.0610 C   0  0  0  0  0  0  0  0  0  0  0  0
   57.4470   33.3150   44.5300 C   0  0  0  0  0  0  0  0  0  0  0  0
   58.2670   34.2880   45.1100 C   0  0  0  0  0  0  0  0  0  0  0  0
   59.0370   33.9850   46.2470 C   0  0  0  0  0  0  0  0  0  0  0  0
   59.9070   35.0090   46.8650 C   0  0  0  0  0  0  0  0  0  0  0  0
   60.0150   36.1540   46.3490 O   0  0  0  0  0  0  0  0  0  0  0  0
   60.6190   34.7230   48.0240 O   0  0  0  0  0  0  0  0  0  0  0  0
   58.9600   32.6940   46.7970 C   0  0  0  0  0  0  0  0  0  0  0  0
   58.1380   31.7240   46.2140 C   0  0  0  0  0  0  0  0  0  0  0  0
   57.5614   28.0467   44.1502 H   0  0  0  0  0  0  0  0  0  0  0  0
   58.4557   29.3780   45.0109 H   0  0  0  0  0  0  0  0  0  0  0  0
   58.4742   28.0368   46.8038 H   0  0  0  0  0  0  0  0  0  0  0  0
   56.7027   28.3903   46.9344 H   0  0  0  0  0  0  0  0  0  0  0  0
   58.6241   23.0071   44.5824 H   0  0  0  0  0  0  0  0  0  0  0  0
   58.5455   22.7008   46.3678 H   0  0  0  0  0  0  0  0  0  0  0  0
   57.1857   20.9123   45.0921 H   0  0  0  0  0  0  0  0  0  0  0  0
   54.8566   21.4150   45.0945 H   0  0  0  0  0  0  0  0  0  0  0  0
   54.4130   23.9201   44.5845 H   0  0  0  0  0  0  0  0  0  0  0  0
   54.3570   23.6076   46.3695 H   0  0  0  0  0  0  0  0  0  0  0  0
   56.8372   33.5682   43.6502 H   0  0  0  0  0  0  0  0  0  0  0  0
   58.3100   35.2970   44.6740 H   0  0  0  0  0  0  0  0  0  0  0  0
   59.5498   32.4448   47.6915 H   0  0  0  0  0  0  0  0  0  0  0  0
   58.0723   30.7217   46.6624 H   0  0  0  0  0  0  0  0  0  0  0  0
  1  2  2  0
  2  3  1  0
  3  4  1  0
  4  5  1  0
  5  6  1  0
  6  7  1  0
  6  8  2  0
  8  9  1  0
  9 10  2  0
 10 11  1  0
  9 12  1  0
 12 13  1  0
 13 14  2  0
 14 15  1  0
  2 16  1  0
 16 17  1  0
 17 18  2  0
 18 19  1  0
 19 20  2  0
 20 21  1  0
 21 22  2  0
 21 23  1  0
 20 24  1  0
 24 25  2  0
 10  5  1  0
 25 17  1  0
 15  8  1  0
  3 26  1  0
  3 27  1  0
  4 28  1  0
  4 29  1  0
 12 30  1  0
 12 31  1  0
 13 32  1  0
 14 33  1  0
 15 34  1  0
 15 35  1  0
 18 36  1  0
 19 37  1  0
 24 38  1  0
 25 39  1  0
M  CHG  4   7  -1  11  -1  16  -1  23  -1
M  END
>  <UniqueID>  (90) 
84

>  <SMILES>  (90) 
O=C(CCn1c([O-])c2c(c1[O-])CC=CC2)[N-]c1ccc(C(=O)[O-])cc1

>  <Energy>  (90) 
76.84458680513193

>  <Genealogy>  (90) 
O=C(CCn1c([O-])c2c(c1[O-])CC=CC2)[N-]c1ccc(C(=O)[O-])cc1 (protonated)
O=C(CCn1c([O-])c2c(c1[O-])CC=CC2)[N-]c1ccc(C(=O)[O-])cc1 (3D coordinates assigned)
O=C(CCn1c([O-])c2c(c1[O-])CC=CC2)[N-]c1ccc(C(=O)[O-])cc1 (nonaromatic ring conformer: 76.84458680513193 kcal/mol)

>  <smiles>  (90) 
O=C(CCn1c(O)c2c(c1O)CC=CC2)Nc1ccc(C(=O)O)cc1

>  <score_type>  (90) 
oracle

>  <origin>  (90) 
adg

>  <m_score__min__energy>  (90) 
-15.449999999999999

>  <m_primary>  (90) 
energy

$$$$
90:0
     RDKit          3D

 41 43  0  0  0  0  0  0  0  0999 V2000
   55.8050   29.6340   44.7800 O   0  0  0  0  0  0  0  0  0  0  0  0
   56.9860   29.7160   45.2160 C   0  0  0  0  0  0  0  0  0  0  0  0
   57.6970   28.5330   45.6100 N   0  0  0  0  0  0  0  0  0  0  0  0
   57.1880   27.3900   45.9710 C   0  0  0  0  0  0  0  0  0  0  0  0
   57.8680   26.4290   46.6840 C   0  0  0  0  0  0  0  0  0  0  0  0
   56.9270   25.4320   46.8660 C   0  0  0  0  0  0  0  0  0  0  0  0
   55.7980   25.8090   46.3040 O   0  0  0  0  0  0  0  0  0  0  0  0
   55.9210   26.9820   45.7580 N   0  0  0  0  0  0  0  0  0  0  0  0
   57.6670   31.0350   45.2240 C   0  0  0  0  0  0  0  0  0  0  0  0
   57.4450   31.9150   44.1470 C   0  0  0  0  0  0  0  0  0  0  0  0
   58.0600   33.1680   44.1090 C   0  0  0  0  0  0  0  0  0  0  0  0
   58.9000   33.5660   45.1480 C   0  0  0  0  0  0  0  0  0  0  0  0
   59.1230   32.7150   46.2310 C   0  0  0  0  0  0  0  0  0  0  0  0
   58.5120   31.4550   46.2860 C   0  0  0  0  0  0  0  0  0  0  0  0
   58.8050   30.4520   47.7540 S   0  0  0  0  0  0  0  0  0  0  0  0
   60.5820   30.2320   47.4020 C   0  0  0  0  0  0  0  0  0  0  0  0
   61.4270   30.7570   48.5290 C   0  0  0  0  0  0  0  0  0  0  0  0
   61.3600   30.2020   49.6610 O   0  0  0  0  0  0  0  0  0  0  0  0
   62.2740   31.9080   48.3500 N   0  0  0  0  0  0  0  0  0  0  0  0
   61.8160   33.0530   47.5520 C   0  0  0  0  0  0  0  0  0  0  0  0
   63.0220   33.8330   47.0170 C   0  0  0  0  0  0  0  0  0  0  0  0
   63.9110   34.1660   48.0660 O   0  0  0  0  0  0  0  0  0  0  0  0
   64.4650   32.9850   48.6150 C   0  0  0  0  0  0  0  0  0  0  0  0
   63.3810   32.1360   49.2850 C   0  0  0  0  0  0  0  0  0  0  0  0
   58.9127   26.4492   47.0277 H   0  0  0  0  0  0  0  0  0  0  0  0
   57.0943   24.4812   47.3932 H   0  0  0  0  0  0  0  0  0  0  0  0
   55.1400   27.4900   45.2900 H   0  0  0  0  0  0  0  0  0  0  0  0
   56.7790   31.6115   43.3258 H   0  0  0  0  0  0  0  0  0  0  0  0
   57.8815   33.8419   43.2582 H   0  0  0  0  0  0  0  0  0  0  0  0
   59.3873   34.5516   45.1140 H   0  0  0  0  0  0  0  0  0  0  0  0
   59.7845   33.0361   47.0492 H   0  0  0  0  0  0  0  0  0  0  0  0
   60.7910   29.1607   47.2654 H   0  0  0  0  0  0  0  0  0  0  0  0
   60.8292   30.7941   46.4894 H   0  0  0  0  0  0  0  0  0  0  0  0
   61.2124   32.6903   46.7069 H   0  0  0  0  0  0  0  0  0  0  0  0
   61.2087   33.7159   48.1859 H   0  0  0  0  0  0  0  0  0  0  0  0
   63.5522   33.2146   46.2777 H   0  0  0  0  0  0  0  0  0  0  0  0
   62.6622   34.7625   46.5516 H   0  0  0  0  0  0  0  0  0  0  0  0
   64.9357   32.4000   47.8111 H   0  0  0  0  0  0  0  0  0  0  0  0
   65.2118   33.2651   49.3726 H   0  0  0  0  0  0  0  0  0  0  0  0
   63.8096   31.1684   49.5852 H   0  0  0  0  0  0  0  0  0  0  0  0
   63.0023   32.6668   50.1709 H   0  0  0  0  0  0  0  0  0  0  0  0
  1  2  2  0
  2  3  1  0
  3  4  2  3
  4  5  1  0
  5  6  2  0
  6  7  1  0
  7  8  1  0
  2  9  1  0
  9 10  2  0
 10 11  1  0
 11 12  2  0
 12 13  1  0
 13 14  2  0
 14 15  1  0
 15 16  1  0
 16 17  1  0
 17 18  2  0
 17 19  1  0
 19 20  1  0
 20 21  1  0
 21 22  1  0
 22 23  1  0
 23 24  1  0
  8  4  1  0
 14  9  1  0
 24 19  1  0
  5 25  1  0
  6 26  1  0
  8 27  1  0
 10 28  1  0
 11 29  1  0
 12 30  1  0
 13 31  1  0
 16 32  1  0
 16 33  1  0
 20 34  1  0
 20 35  1  0
 21 36  1  0
 21 37  1  0
 23 38  1  0
 23 39  1  0
 24 40  1  0
 24 41  1  0
M  END
>  <UniqueID>  (91) 
85

>  <SMILES>  (91) 
O=C(N=c1cco[nH]1)c1ccccc1SCC(=O)N1CCOCC1

>  <Energy>  (91) 
81.6309112744609

>  <Genealogy>  (91) 
O=C(N=c1cco[nH]1)c1ccccc1SCC(=O)N1CCOCC1 (3D coordinates assigned)
O=C(N=c1cco[nH]1)c1ccccc1SCC(=O)N1CCOCC1 (nonaromatic ring conformer: 81.6309112744609 kcal/mol)

>  <smiles>  (91) 
O=C(N=c1cco[nH]1)c1ccccc1SCC(=O)N1CCOCC1

>  <score_type>  (91) 
oracle

>  <origin>  (91) 
adg

>  <m_score__min__energy>  (91) 
-8.9100000000000001

>  <m_primary>  (91) 
energy

$$$$
91:0
     RDKit          3D

 49 52  0  0  0  0  0  0  0  0999 V2000
   55.4160   29.1850   44.8810 O   0  0  0  0  0  0  0  0  0  0  0  0
   56.4800   29.8340   44.7020 C   0  0  0  0  0  0  0  0  0  0  0  0
   57.7990   29.1280   44.7180 C   0  0  0  0  0  0  0  0  0  0  0  0
   57.7060   27.9680   45.6090 N   0  0  0  0  0  0  0  0  0  0  0  0
   57.3010   26.8080   45.0840 N   0  0  0  0  0  0  0  0  0  0  0  0
   57.2810   25.6570   45.8060 C   0  0  0  0  0  0  0  0  0  0  0  0
   56.9110   24.3750   45.1180 C   0  0  0  0  0  0  0  0  0  0  0  0
   55.4190   24.2080   45.1270 C   0  0  0  0  0  0  0  0  0  0  0  0
   54.7110   23.1850   44.5360 C   0  0  0  0  0  0  0  0  0  0  0  0
   53.4040   23.3290   44.8300 N   0  0  0  0  0  0  0  0  0  0  0  0
   53.3630   24.4370   45.6060 C   0  0  0  0  0  0  0  0  0  0  0  0
   54.5750   25.0000   45.8180 N   0  0  0  0  0  0  0  0  0  0  0  0
   57.7160   25.7010   47.1380 C   0  0  0  0  0  0  0  0  0  0  0  0
   57.7420   24.6640   47.8530 O   0  0  0  0  0  0  0  0  0  0  0  0
   58.1270   26.8810   47.6600 N   0  0  0  0  0  0  0  0  0  0  0  0
   58.1350   28.0130   46.9090 C   0  0  0  0  0  0  0  0  0  0  0  0
   58.5410   29.0870   47.4210 O   0  0  0  0  0  0  0  0  0  0  0  0
   56.4480   31.2550   44.5590 N   0  0  0  0  0  0  0  0  0  0  0  0
   57.3500   32.1700   45.1980 C   0  0  0  0  0  0  0  0  0  0  0  0
   57.5560   33.4700   44.7010 C   0  0  0  0  0  0  0  0  0  0  0  0
   58.3950   34.3590   45.3800 C   0  0  0  0  0  0  0  0  0  0  0  0
   59.0400   33.9620   46.5700 C   0  0  0  0  0  0  0  0  0  0  0  0
   59.8930   34.8140   47.2940 O   0  0  0  0  0  0  0  0  0  0  0  0
   60.3360   34.5900   48.6330 C   0  0  0  0  0  0  0  0  0  0  0  0
   61.7380   34.0390   48.6480 C   0  0  0  0  0  0  0  0  0  0  0  0
   62.3510   33.6220   47.4530 C   0  0  0  0  0  0  0  0  0  0  0  0
   63.6590   33.1270   47.4690 C   0  0  0  0  0  0  0  0  0  0  0  0
   64.3680   33.0550   48.6740 C   0  0  0  0  0  0  0  0  0  0  0  0
   63.7710   33.4780   49.8650 C   0  0  0  0  0  0  0  0  0  0  0  0
   62.4630   33.9750   49.8520 C   0  0  0  0  0  0  0  0  0  0  0  0
   58.8200   32.6710   47.0660 C   0  0  0  0  0  0  0  0  0  0  0  0
   57.9710   31.7860   46.3920 C   0  0  0  0  0  0  0  0  0  0  0  0
   58.0509   28.7931   43.7009 H   0  0  0  0  0  0  0  0  0  0  0  0
   58.5830   29.8113   45.0764 H   0  0  0  0  0  0  0  0  0  0  0  0
   57.2697   24.4012   44.0785 H   0  0  0  0  0  0  0  0  0  0  0  0
   57.3752   23.5302   45.6479 H   0  0  0  0  0  0  0  0  0  0  0  0
   55.1429   22.3803   43.9229 H   0  0  0  0  0  0  0  0  0  0  0  0
   52.4305   24.8424   46.0256 H   0  0  0  0  0  0  0  0  0  0  0  0
   57.0552   33.7883   43.7748 H   0  0  0  0  0  0  0  0  0  0  0  0
   58.5528   35.3731   44.9841 H   0  0  0  0  0  0  0  0  0  0  0  0
   60.3170   35.5424   49.1831 H   0  0  0  0  0  0  0  0  0  0  0  0
   59.6651   33.8594   49.1085 H   0  0  0  0  0  0  0  0  0  0  0  0
   61.8002   33.6853   46.5030 H   0  0  0  0  0  0  0  0  0  0  0  0
   64.1314   32.7937   46.5332 H   0  0  0  0  0  0  0  0  0  0  0  0
   65.3965   32.6649   48.6836 H   0  0  0  0  0  0  0  0  0  0  0  0
   64.3287   33.4203   50.8114 H   0  0  0  0  0  0  0  0  0  0  0  0
   61.9989   34.3176   50.7886 H   0  0  0  0  0  0  0  0  0  0  0  0
   59.3184   32.3501   47.9926 H   0  0  0  0  0  0  0  0  0  0  0  0
   57.7905   30.7819   46.8034 H   0  0  0  0  0  0  0  0  0  0  0  0
  1  2  2  0
  2  3  1  0
  3  4  1  0
  4  5  1  0
  5  6  2  0
  6  7  1  0
  7  8  1  0
  8  9  2  0
  9 10  1  0
 10 11  1  0
 11 12  2  0
  6 13  1  0
 13 14  2  0
 13 15  1  0
 15 16  1  0
 16 17  2  0
  2 18  1  0
 18 19  1  0
 19 20  2  0
 20 21  1  0
 21 22  2  0
 22 23  1  0
 23 24  1  0
 24 25  1  0
 25 26  2  0
 26 27  1  0
 27 28  2  0
 28 29  1  0
 29 30  2  0
 22 31  1  0
 31 32  2  0
 16  4  1  0
 32 19  1  0
 12  8  1  0
 30 25  1  0
  3 33  1  0
  3 34  1  0
  7 35  1  0
  7 36  1  0
  9 37  1  0
 11 38  1  0
 20 39  1  0
 21 40  1  0
 24 41  1  0
 24 42  1  0
 26 43  1  0
 27 44  1  0
 28 45  1  0
 29 46  1  0
 30 47  1  0
 31 48  1  0
 32 49  1  0
M  CHG  3  10  -1  15  -1  18  -1
M  END
>  <UniqueID>  (92) 
86

>  <SMILES>  (92) 
O=C(Cn1nc(Cc2c[n-]cn2)c(=O)[n-]c1=O)[N-]c1ccc(OCc2ccccc2)cc1

>  <Energy>  (92) 
82.14736767644293

>  <Genealogy>  (92) 
O=C(Cn1nc(Cc2c[n-]cn2)c(=O)[n-]c1=O)[N-]c1ccc(OCc2ccccc2)cc1 (protonated)
O=C(Cn1nc(Cc2c[n-]cn2)c(=O)[n-]c1=O)[N-]c1ccc(OCc2ccccc2)cc1 (3D coordinates assigned)
O=C(Cn1nc(Cc2c[n-]cn2)c(=O)[n-]c1=O)[N-]c1ccc(OCc2ccccc2)cc1 (optimized conformer: 82.14736767644293 kcal/mol)

>  <smiles>  (92) 
O=C(Cn1nc(Cc2c[nH]cn2)c(=O)[nH]c1=O)Nc1ccc(OCc2ccccc2)cc1

>  <score_type>  (92) 
oracle

>  <origin>  (92) 
adg

>  <m_score__min__energy>  (92) 
-13.91

>  <m_primary>  (92) 
energy

$$$$
92:0
     RDKit          3D

 71 76  0  0  0  0  0  0  0  0999 V2000
   64.6952   31.8221   52.2682 H   0  0  0  0  0  0  0  0  0  0  0  0
   64.3240   32.2950   51.3470 C   0  0  0  0  0  0  0  0  0  0  0  0
   63.6320   33.4640   51.4150 N   0  0  0  0  0  0  0  0  0  0  0  0
   63.1630   34.0820   50.3000 C   0  0  0  0  0  0  0  0  0  0  0  0
   62.6116   35.0297   50.3887 H   0  0  0  0  0  0  0  0  0  0  0  0
   63.3800   33.5150   49.0370 C   0  0  0  0  0  0  0  0  0  0  0  0
   62.8600   34.1960   47.8070 C   0  0  0  0  0  0  0  0  0  0  0  0
   63.0386   33.5524   46.9330 H   0  0  0  0  0  0  0  0  0  0  0  0
   63.3826   35.1557   47.6814 H   0  0  0  0  0  0  0  0  0  0  0  0
   61.4240   34.4490   47.9350 N   0  0  0  0  0  0  0  0  0  0  0  0
   60.5360   34.2810   46.9930 C   0  0  0  0  0  0  0  0  0  0  0  0
   60.3750   35.2600   46.0620 N   0  0  0  0  0  0  0  0  0  0  0  0
   59.5020   35.1390   45.0250 C   0  0  0  0  0  0  0  0  0  0  0  0
   59.3872   35.9645   44.3072 H   0  0  0  0  0  0  0  0  0  0  0  0
   58.7530   33.9750   44.8680 C   0  0  0  0  0  0  0  0  0  0  0  0
   58.0542   33.8768   44.0242 H   0  0  0  0  0  0  0  0  0  0  0  0
   58.8950   32.9260   45.7940 C   0  0  0  0  0  0  0  0  0  0  0  0
   58.2120   31.6170   45.5840 C   0  0  0  0  0  0  0  0  0  0  0  0
   58.0750   30.6730   46.6170 C   0  0  0  0  0  0  0  0  0  0  0  0
   58.4987   30.8835   47.6101 H   0  0  0  0  0  0  0  0  0  0  0  0
   57.4210   29.5000   46.3950 N   0  0  0  0  0  0  0  0  0  0  0  0
   56.8920   29.1690   45.1850 C   0  0  0  0  0  0  0  0  0  0  0  0
   56.2950   28.0130   45.0730 N   0  0  0  0  0  0  0  0  0  0  0  0
   56.7430   26.6220   45.2940 C   0  0  0  0  0  0  0  0  0  0  0  0
   55.9819   25.9821   44.8237 H   0  0  0  0  0  0  0  0  0  0  0  0
   56.7500   26.2520   46.7910 C   0  0  0  0  0  0  0  0  0  0  0  0
   56.6204   25.1637   46.8845 H   0  0  0  0  0  0  0  0  0  0  0  0
   55.9291   26.8040   47.2720 H   0  0  0  0  0  0  0  0  0  0  0  0
   58.0490   26.6520   47.4960 C   0  0  0  0  0  0  0  0  0  0  0  0
   58.0986   26.1340   48.4651 H   0  0  0  0  0  0  0  0  0  0  0  0
   58.0386   27.7447   47.6223 H   0  0  0  0  0  0  0  0  0  0  0  0
   59.2450   26.3030   46.7120 N   0  0  0  0  0  0  0  0  0  0  0  0
   60.5530   26.7410   47.1570 C   0  0  0  0  0  0  0  0  0  0  0  0
   61.5940   26.3460   46.5610 O   0  0  0  0  0  0  0  0  0  0  0  0
   60.7120   27.7090   48.2610 C   0  0  0  0  0  0  0  0  0  0  0  0
   60.7270   29.0830   47.9830 C   0  0  0  0  0  0  0  0  0  0  0  0
   60.6635   29.4298   46.9410 H   0  0  0  0  0  0  0  0  0  0  0  0
   60.8220   30.0150   49.0190 C   0  0  0  0  0  0  0  0  0  0  0  0
   60.8008   31.0908   48.7907 H   0  0  0  0  0  0  0  0  0  0  0  0
   60.9450   29.5840   50.3560 C   0  0  0  0  0  0  0  0  0  0  0  0
   61.0100   30.5680   51.4640 C   0  0  0  0  0  0  0  0  0  0  0  0
   61.7240   30.2680   52.6420 C   0  0  0  0  0  0  0  0  0  0  0  0
   62.1971   29.2817   52.7580 H   0  0  0  0  0  0  0  0  0  0  0  0
   61.8350   31.2180   53.6660 C   0  0  0  0  0  0  0  0  0  0  0  0
   62.3972   30.9767   54.5802 H   0  0  0  0  0  0  0  0  0  0  0  0
   61.2330   32.4710   53.5280 C   0  0  0  0  0  0  0  0  0  0  0  0
   61.3242   33.2177   54.3305 H   0  0  0  0  0  0  0  0  0  0  0  0
   60.5140   32.7740   52.3670 C   0  0  0  0  0  0  0  0  0  0  0  0
   60.0383   33.7601   52.2603 H   0  0  0  0  0  0  0  0  0  0  0  0
   60.3960   31.8290   51.3390 C   0  0  0  0  0  0  0  0  0  0  0  0
   59.8225   32.0728   50.4325 H   0  0  0  0  0  0  0  0  0  0  0  0
   60.9730   28.2030   50.6260 C   0  0  0  0  0  0  0  0  0  0  0  0
   61.0852   27.8512   51.6622 H   0  0  0  0  0  0  0  0  0  0  0  0
   60.8590   27.2730   49.5840 C   0  0  0  0  0  0  0  0  0  0  0  0
   60.8851   26.1959   49.8060 H   0  0  0  0  0  0  0  0  0  0  0  0
   59.1000   25.5760   45.4370 C   0  0  0  0  0  0  0  0  0  0  0  0
   58.7973   24.5397   45.6480 H   0  0  0  0  0  0  0  0  0  0  0  0
   60.0663   25.6005   44.9120 H   0  0  0  0  0  0  0  0  0  0  0  0
   58.0400   26.2340   44.5340 C   0  0  0  0  0  0  0  0  0  0  0  0
   57.7773   25.5282   43.7322 H   0  0  0  0  0  0  0  0  0  0  0  0
   58.4779   27.1631   44.1404 H   0  0  0  0  0  0  0  0  0  0  0  0
   57.0110   30.0920   44.1330 C   0  0  0  0  0  0  0  0  0  0  0  0
   56.6014   29.8495   43.1413 H   0  0  0  0  0  0  0  0  0  0  0  0
   57.6450   31.3110   44.3420 C   0  0  0  0  0  0  0  0  0  0  0  0
   57.7016   32.0427   43.5226 H   0  0  0  0  0  0  0  0  0  0  0  0
   59.7640   33.1070   46.8870 C   0  0  0  0  0  0  0  0  0  0  0  0
   59.8405   32.3291   47.6610 H   0  0  0  0  0  0  0  0  0  0  0  0
   64.0880   32.3080   48.9480 C   0  0  0  0  0  0  0  0  0  0  0  0
   64.2682   31.8457   47.9663 H   0  0  0  0  0  0  0  0  0  0  0  0
   64.5640   31.6940   50.1090 C   0  0  0  0  0  0  0  0  0  0  0  0
   65.1217   30.7477   50.0490 H   0  0  0  0  0  0  0  0  0  0  0  0
  1  2  1  0
  2  3  2  0
  3  4  1  0
  4  5  1  0
  4  6  2  0
  6  7  1  0
  7  8  1  0
  7  9  1  0
  7 10  1  0
 10 11  2  0
 11 12  1  0
 12 13  1  0
 13 14  1  0
 13 15  2  0
 15 16  1  0
 15 17  1  0
 17 18  1  0
 18 19  2  0
 19 20  1  0
 19 21  1  0
 21 22  1  0
 22 23  2  0
 23 24  1  0
 24 25  1  0
 24 26  1  0
 26 27  1  0
 26 28  1  0
 26 29  1  0
 29 30  1  0
 29 31  1  0
 29 32  1  0
 32 33  1  0
 33 34  2  0
 33 35  1  0
 35 36  2  0
 36 37  1  0
 36 38  1  0
 38 39  1  0
 38 40  2  0
 40 41  1  0
 41 42  2  0
 42 43  1  0
 42 44  1  0
 44 45  1  0
 44 46  2  0
 46 47  1  0
 46 48  1  0
 48 49  1  0
 48 50  2  0
 50 51  1  0
 40 52  1  0
 52 53  1  0
 52 54  2  0
 54 55  1  0
 32 56  1  0
 56 57  1  0
 56 58  1  0
 56 59  1  0
 59 60  1  0
 59 61  1  0
 22 62  1  0
 62 63  1  0
 62 64  2  0
 64 65  1  0
 17 66  2  0
 66 67  1  0
  6 68  1  0
 68 69  1  0
 68 70  2  0
 70 71  1  0
 70  2  1  0
 66 11  1  0
 64 18  1  0
 59 24  1  0
 54 35  1  0
 50 41  1  0
M  CHG  2  12  -1  21  -1
M  END
>  <UniqueID>  (93) 
87

>  <SMILES>  (93) 
O=C(c1ccc(-c2ccccc2)cc1)N1CCC(/N=c2\ccc(-c3cc[n-]/c(=N/Cc4cccnc4)c3)c[n-]2)CC1

>  <Energy>  (93) 
109.62427887641817

>  <Genealogy>  (93) 
O=C(c1ccc(-c2ccccc2)cc1)N1CCC(N=c2ccc(-c3cc[n-]c(=NCc4cccnc4)c3)c[n-]2)CC1 (protonated)
O=C(c1ccc(-c2ccccc2)cc1)N1CCC(/N=c2\ccc(-c3cc[n-]/c(=N/Cc4cccnc4)c3)c[n-]2)CC1 (cis-trans isomerization)
O=C(c1ccc(-c2ccccc2)cc1)N1CCC(/N=c2\ccc(-c3cc[n-]/c(=N/Cc4cccnc4)c3)c[n-]2)CC1 (3D coordinates assigned)
O=C(c1ccc(-c2ccccc2)cc1)N1CCC(/N=c2\ccc(-c3cc[n-]/c(=N/Cc4cccnc4)c3)c[n-]2)CC1 (nonaromatic ring conformer: 109.62427887641817 kcal/mol)

>  <smiles>  (93) 
O=C(c1ccc(-c2ccccc2)cc1)N1CCC(N=c2ccc(-c3cc[nH]c(=NCc4cccnc4)c3)c[nH]2)CC1

>  <score_type>  (93) 
oracle

>  <origin>  (93) 
adg

>  <m_score__min__energy>  (93) 
-12.359999999999999

>  <m_primary>  (93) 
energy

$$$$
93:0
     RDKit          3D

 65 69  0  0  0  0  0  0  0  0999 V2000
   56.1080   27.4840   45.6020 N   0  0  0  0  0  0  0  0  0  0  0  0
   56.3090   26.1310   46.0170 C   0  0  0  0  0  0  0  0  0  0  0  0
   55.3150   25.4160   46.3190 O   0  0  0  0  0  0  0  0  0  0  0  0
   57.6930   25.5620   46.1210 C   0  0  0  0  0  0  0  0  0  0  0  0
   58.5010   26.1840   47.2700 C   0  0  0  0  0  0  0  0  0  0  0  0
   58.8470   27.6650   47.0450 C   0  0  1  0  0  0  0  0  0  0  0  0
   59.0510   28.0680   45.7260 O   0  0  0  0  0  0  0  0  0  0  0  0
   58.5420   29.2340   46.2900 C   0  0  1  0  0  0  0  0  0  0  0  0
   57.7860   30.1490   45.3790 C   0  0  0  0  0  0  0  0  0  0  0  0
   58.3780   31.0870   44.7830 O   0  0  0  0  0  0  0  0  0  0  0  0
   56.4180   29.9770   45.2050 O   0  0  0  0  0  0  0  0  0  0  0  0
   57.7940   28.5580   47.2490 O   0  0  0  0  0  0  0  0  0  0  0  0
   59.7370   29.7360   47.0990 C   0  0  1  0  0  0  0  0  0  0  0  0
   59.4120   30.7720   47.9990 O   0  0  0  0  0  0  0  0  0  0  0  0
   60.0000   28.3590   47.7760 C   0  0  1  0  0  0  0  0  0  0  0  0
   59.7720   28.3750   49.1740 O   0  0  0  0  0  0  0  0  0  0  0  0
   60.5210   27.3560   49.8110 C   0  0  0  0  0  0  0  0  0  0  0  0
   60.6190   27.6290   51.3160 C   0  0  0  0  0  0  0  0  0  0  0  0
   62.0350   27.4140   51.8770 C   0  0  0  0  0  0  0  0  0  0  0  0
   62.8990   28.5830   51.6080 N   0  0  0  0  0  0  0  0  0  0  0  0
   62.3900   29.5690   50.8080 C   0  0  0  0  0  0  0  0  0  0  0  0
   63.0880   30.7620   50.5980 C   0  0  0  0  0  0  0  0  0  0  0  0
   62.4720   31.8470   49.8050 C   0  0  0  0  0  0  0  0  0  0  0  0
   61.7660   32.8770   50.4450 C   0  0  0  0  0  0  0  0  0  0  0  0
   61.0800   33.8350   49.6940 C   0  0  0  0  0  0  0  0  0  0  0  0
   61.1230   33.7970   48.2870 C   0  0  0  0  0  0  0  0  0  0  0  0
   60.4070   34.7020   47.4860 O   0  0  0  0  0  0  0  0  0  0  0  0
   59.2980   34.3970   46.6820 C   0  0  0  0  0  0  0  0  0  0  0  0
   58.2040   33.7470   47.2710 C   0  0  0  0  0  0  0  0  0  0  0  0
   57.0700   33.4400   46.5100 C   0  0  0  0  0  0  0  0  0  0  0  0
   57.0270   33.7670   45.1520 C   0  0  0  0  0  0  0  0  0  0  0  0
   58.1280   34.3820   44.5470 C   0  0  0  0  0  0  0  0  0  0  0  0
   59.2680   34.6860   45.3050 C   0  0  0  0  0  0  0  0  0  0  0  0
   61.8410   32.7760   47.6530 C   0  0  0  0  0  0  0  0  0  0  0  0
   62.5030   31.8010   48.4040 C   0  0  0  0  0  0  0  0  0  0  0  0
   64.3400   30.9060   51.2040 C   0  0  0  0  0  0  0  0  0  0  0  0
   65.0180   31.9560   51.0450 O   0  0  0  0  0  0  0  0  0  0  0  0
   64.8380   29.8970   51.9610 N   0  0  0  0  0  0  0  0  0  0  0  0
   64.1450   28.7480   52.1730 C   0  0  0  0  0  0  0  0  0  0  0  0
   64.8460   27.5990   53.1170 S   0  0  0  0  0  0  0  0  0  0  0  0
   55.1440   27.8850   45.5560 H   0  0  0  0  0  0  0  0  0  0  0  0
   56.9160   28.0870   45.3310 H   0  0  0  0  0  0  0  0  0  0  0  0
   57.6167   24.4778   46.2902 H   0  0  0  0  0  0  0  0  0  0  0  0
   58.2188   25.7892   45.1819 H   0  0  0  0  0  0  0  0  0  0  0  0
   57.9116   26.1008   48.1950 H   0  0  0  0  0  0  0  0  0  0  0  0
   59.4523   25.6351   47.3307 H   0  0  0  0  0  0  0  0  0  0  0  0
   60.5717   30.2094   46.5612 H   0  0  0  0  0  0  0  0  0  0  0  0
   58.9930   30.3790   48.8070 H   0  0  0  0  0  0  0  0  0  0  0  0
   61.0161   27.9436   47.7059 H   0  0  0  0  0  0  0  0  0  0  0  0
   60.0260   26.3871   49.6495 H   0  0  0  0  0  0  0  0  0  0  0  0
   61.5346   27.3373   49.3842 H   0  0  0  0  0  0  0  0  0  0  0  0
   60.3230   28.6719   51.5027 H   0  0  0  0  0  0  0  0  0  0  0  0
   59.9533   26.9150   51.8230 H   0  0  0  0  0  0  0  0  0  0  0  0
   61.9706   27.2578   52.9639 H   0  0  0  0  0  0  0  0  0  0  0  0
   62.4753   26.5344   51.3846 H   0  0  0  0  0  0  0  0  0  0  0  0
   61.4146   29.4206   50.3215 H   0  0  0  0  0  0  0  0  0  0  0  0
   61.7525   32.9305   51.5436 H   0  0  0  0  0  0  0  0  0  0  0  0
   60.5043   34.6217   50.2037 H   0  0  0  0  0  0  0  0  0  0  0  0
   58.2371   33.4769   48.3368 H   0  0  0  0  0  0  0  0  0  0  0  0
   56.2110   32.9404   46.9818 H   0  0  0  0  0  0  0  0  0  0  0  0
   56.1282   33.5410   44.5595 H   0  0  0  0  0  0  0  0  0  0  0  0
   58.0996   34.6275   43.4751 H   0  0  0  0  0  0  0  0  0  0  0  0
   60.1402   35.1511   44.8225 H   0  0  0  0  0  0  0  0  0  0  0  0
   61.8844   32.7409   46.5544 H   0  0  0  0  0  0  0  0  0  0  0  0
   63.0504   30.9945   47.8942 H   0  0  0  0  0  0  0  0  0  0  0  0
  1  2  1  0
  2  3  2  0
  2  4  1  0
  4  5  1  0
  6  5  1  6
  6  7  1  0
  7  8  1  0
  8  9  1  6
  9 10  2  0
  9 11  1  0
  8 12  1  0
  8 13  1  0
 13 14  1  0
 13 15  1  0
 15 16  1  0
 16 17  1  0
 17 18  1  0
 18 19  1  0
 19 20  1  0
 20 21  1  0
 21 22  2  0
 22 23  1  0
 23 24  2  0
 24 25  1  0
 25 26  2  0
 26 27  1  0
 27 28  1  0
 28 29  2  0
 29 30  1  0
 30 31  2  0
 31 32  1  0
 32 33  2  0
 26 34  1  0
 34 35  2  0
 22 36  1  0
 36 37  2  0
 36 38  1  0
 38 39  1  0
 39 40  2  0
 12  6  1  0
 39 20  1  0
 15  6  1  0
 35 23  1  0
 33 28  1  0
  1 41  1  0
  1 42  1  0
  4 43  1  0
  4 44  1  0
  5 45  1  0
  5 46  1  0
 13 47  1  6
 14 48  1  0
 15 49  1  1
 17 50  1  0
 17 51  1  0
 18 52  1  0
 18 53  1  0
 19 54  1  0
 19 55  1  0
 21 56  1  0
 24 57  1  0
 25 58  1  0
 29 59  1  0
 30 60  1  0
 31 61  1  0
 32 62  1  0
 33 63  1  0
 34 64  1  0
 35 65  1  0
M  CHG  2  11  -1  38  -1
M  END
>  <UniqueID>  (94) 
88

>  <SMILES>  (94) 
NC(=O)CCC12OC(C(=O)[O-])(O1)[C@@H](O)[C@H]2OCCCn1cc(-c2ccc(Oc3ccccc3)cc2)c(=O)[n-]c1=S

>  <Energy>  (94) 
220.35781518397127

>  <Genealogy>  (94) 
NC(=O)CCC12OC(C(=O)[O-])(O1)C(O)C2OCCCn1cc(-c2ccc(Oc3ccccc3)cc2)c(=O)[n-]c1=S (protonated)
NC(=O)CCC12OC(C(=O)[O-])(O1)[C@@H](O)[C@H]2OCCCn1cc(-c2ccc(Oc3ccccc3)cc2)c(=O)[n-]c1=S (chirality)
NC(=O)CCC12OC(C(=O)[O-])(O1)[C@@H](O)[C@H]2OCCCn1cc(-c2ccc(Oc3ccccc3)cc2)c(=O)[n-]c1=S (3D coordinates assigned)
NC(=O)CCC12OC(C(=O)[O-])(O1)[C@@H](O)[C@H]2OCCCn1cc(-c2ccc(Oc3ccccc3)cc2)c(=O)[n-]c1=S (nonaromatic ring conformer: 220.35781518397127 kcal/mol)

>  <smiles>  (94) 
NC(=O)CCC12OC(C(=O)O)(O1)C(O)C2OCCCn1cc(-c2ccc(Oc3ccccc3)cc2)c(=O)[nH]c1=S

>  <score_type>  (94) 
oracle

>  <origin>  (94) 
adg

>  <m_score__min__energy>  (94) 
-13.43

>  <m_primary>  (94) 
energy

$$$$
94:0
     RDKit          3D

 38 40  0  0  0  0  0  0  0  0999 V2000
   56.5090   32.2030   43.8680 H   0  0  0  0  0  0  0  0  0  0  0  0
   56.6340   31.8050   44.7890 O   0  0  0  0  0  0  0  0  0  0  0  0
   57.8280   31.9010   45.5080 C   0  0  0  0  0  0  0  0  0  0  0  0
   58.1360   33.0870   46.0850 N   0  0  0  0  0  0  0  0  0  0  0  0
   59.2830   33.2690   46.7840 C   0  0  0  0  0  0  0  0  0  0  0  0
   59.5100   34.3950   47.3050 O   0  0  0  0  0  0  0  0  0  0  0  0
   60.1710   32.2370   46.9320 N   0  0  0  0  0  0  0  0  0  0  0  0
   61.3850   32.4360   47.6850 C   0  0  0  0  0  0  0  0  0  0  0  0
   61.5810   31.7670   48.9020 C   0  0  0  0  0  0  0  0  0  0  0  0
   60.8048   31.0873   49.2835 H   0  0  0  0  0  0  0  0  0  0  0  0
   62.7570   31.9590   49.6330 C   0  0  0  0  0  0  0  0  0  0  0  0
   62.9003   31.4291   50.5862 H   0  0  0  0  0  0  0  0  0  0  0  0
   63.7580   32.8250   49.1580 C   0  0  0  0  0  0  0  0  0  0  0  0
   65.0040   33.0310   49.9280 C   0  0  0  0  0  0  0  0  0  0  0  0
   65.9910   32.2630   49.7690 O   0  0  0  0  0  0  0  0  0  0  0  0
   65.1040   34.0760   50.8410 O   0  0  0  0  0  0  0  0  0  0  0  0
   63.5590   33.4940   47.9380 C   0  0  0  0  0  0  0  0  0  0  0  0
   64.3338   34.1744   47.5550 H   0  0  0  0  0  0  0  0  0  0  0  0
   62.3820   33.3000   47.2080 C   0  0  0  0  0  0  0  0  0  0  0  0
   62.2371   33.8281   46.2540 H   0  0  0  0  0  0  0  0  0  0  0  0
   59.8990   31.0140   46.3740 C   0  0  0  0  0  0  0  0  0  0  0  0
   60.7040   30.0540   46.5360 O   0  0  0  0  0  0  0  0  0  0  0  0
   58.7160   30.8170   45.6310 C   0  0  0  0  0  0  0  0  0  0  0  0
   58.3820   29.5010   45.0380 C   0  0  0  0  0  0  0  0  0  0  0  0
   57.7207   29.4645   44.1597 H   0  0  0  0  0  0  0  0  0  0  0  0
   58.8610   28.3530   45.5390 C   0  0  0  0  0  0  0  0  0  0  0  0
   59.9514   28.2473   45.6386 H   0  0  0  0  0  0  0  0  0  0  0  0
   58.0080   27.2170   45.9670 C   0  0  0  0  0  0  0  0  0  0  0  0
   58.5250   26.0840   46.6270 C   0  0  0  0  0  0  0  0  0  0  0  0
   59.6032   26.0165   46.8342 H   0  0  0  0  0  0  0  0  0  0  0  0
   57.6750   25.0450   47.0200 C   0  0  0  0  0  0  0  0  0  0  0  0
   58.0881   24.1607   47.5274 H   0  0  0  0  0  0  0  0  0  0  0  0
   56.3030   25.1270   46.7700 C   0  0  0  0  0  0  0  0  0  0  0  0
   55.4660   24.0890   47.1630 O   0  0  0  0  0  0  0  0  0  0  0  0
   55.7760   26.2530   46.1290 C   0  0  0  0  0  0  0  0  0  0  0  0
   54.4110   26.3420   45.8820 O   0  0  0  0  0  0  0  0  0  0  0  0
   56.6240   27.2940   45.7360 C   0  0  0  0  0  0  0  0  0  0  0  0
   56.2032   28.1817   45.2412 H   0  0  0  0  0  0  0  0  0  0  0  0
  1  2  1  0
  2  3  1  0
  3  4  1  0
  4  5  1  0
  5  6  2  0
  5  7  1  0
  7  8  1  0
  8  9  2  0
  9 10  1  0
  9 11  1  0
 11 12  1  0
 11 13  2  0
 13 14  1  0
 14 15  2  0
 14 16  1  0
 13 17  1  0
 17 18  1  0
 17 19  2  0
 19 20  1  0
  7 21  1  0
 21 22  2  0
 21 23  1  0
 23 24  1  0
 24 25  1  0
 24 26  2  0
 26 27  1  0
 26 28  1  0
 28 29  2  0
 29 30  1  0
 29 31  1  0
 31 32  1  0
 31 33  2  0
 33 34  1  0
 33 35  1  0
 35 36  1  0
 35 37  2  0
 37 38  1  0
 23  3  2  0
 37 28  1  0
 19  8  1  0
M  CHG  4   4  -1  16  -1  34  -1  36  -1
M  END
>  <UniqueID>  (95) 
89

>  <SMILES>  (95) 
O=C([O-])c1ccc(-n2c(=O)[n-]c(O)c(/C=C/c3ccc([O-])c([O-])c3)c2=O)cc1

>  <Energy>  (95) 
62.27205928525034

>  <Genealogy>  (95) 
O=C([O-])c1ccc(-n2c(=O)[n-]c(O)c(C=Cc3ccc([O-])c([O-])c3)c2=O)cc1 (protonated)
O=C([O-])c1ccc(-n2c(=O)[n-]c(O)c(/C=C/c3ccc([O-])c([O-])c3)c2=O)cc1 (cis-trans isomerization)
O=C([O-])c1ccc(-n2c(=O)[n-]c(O)c(/C=C/c3ccc([O-])c([O-])c3)c2=O)cc1 (3D coordinates assigned)
O=C([O-])c1ccc(-n2c(=O)[n-]c(O)c(/C=C/c3ccc([O-])c([O-])c3)c2=O)cc1 (optimized conformer: 62.27205928525034 kcal/mol)

>  <smiles>  (95) 
O=C(O)c1ccc(-n2c(=O)[nH]c(O)c(C=Cc3ccc(O)c(O)c3)c2=O)cc1

>  <score_type>  (95) 
oracle

>  <origin>  (95) 
adg

>  <m_score__min__energy>  (95) 
-17.690000000000001

>  <m_primary>  (95) 
energy

$$$$
