0:0
     RDKit          3D

 33 34  0  0  0  0  0  0  0  0999 V2000
   55.8880   29.7190   42.9610 C   0  0  0  0  0  0  0  0  0  0  0  0
   56.5860   30.4690   44.0500 C   0  0  0  0  0  0  0  0  0  0  0  0
   56.5180   30.0430   45.2340 O   0  0  0  0  0  0  0  0  0  0  0  0
   57.2430   31.7110   43.7540 N   0  0  0  0  0  0  0  0  0  0  0  0
   58.0910   32.4150   44.6780 C   0  0  0  0  0  0  0  0  0  0  0  0
   58.8020   31.7380   45.6850 C   0  0  0  0  0  0  0  0  0  0  0  0
   59.6380   32.4450   46.5550 C   0  0  0  0  0  0  0  0  0  0  0  0
   59.7780   33.8310   46.4340 C   0  0  0  0  0  0  0  0  0  0  0  0
   60.6370   34.5000   47.3190 O   0  0  0  0  0  0  0  0  0  0  0  0
   61.7260   33.9220   47.9930 C   0  0  0  0  0  0  0  0  0  0  0  0
   62.9760   33.7780   47.3630 C   0  0  0  0  0  0  0  0  0  0  0  0
   64.0530   33.2160   48.0490 C   0  0  0  0  0  0  0  0  0  0  0  0
   63.8990   32.8020   49.3720 C   0  0  0  0  0  0  0  0  0  0  0  0
   62.6700   32.9550   50.0170 C   0  0  0  0  0  0  0  0  0  0  0  0
   61.5730   33.5220   49.3390 C   0  0  0  0  0  0  0  0  0  0  0  0
   60.2380   33.6920   50.0280 C   0  0  0  0  0  0  0  0  0  0  0  0
   59.4000   32.6140   49.8000 F   0  0  0  0  0  0  0  0  0  0  0  0
   59.6190   34.8360   49.5580 F   0  0  0  0  0  0  0  0  0  0  0  0
   60.4350   33.8130   51.3920 F   0  0  0  0  0  0  0  0  0  0  0  0
   59.1010   34.5040   45.4030 C   0  0  0  0  0  0  0  0  0  0  0  0
   58.2660   33.7990   44.5320 C   0  0  0  0  0  0  0  0  0  0  0  0
   55.2022   28.9821   43.4046 H   0  0  0  0  0  0  0  0  0  0  0  0
   55.3167   30.4234   42.3386 H   0  0  0  0  0  0  0  0  0  0  0  0
   56.6316   29.1997   42.3386 H   0  0  0  0  0  0  0  0  0  0  0  0
   57.0250   32.1680   42.8390 H   0  0  0  0  0  0  0  0  0  0  0  0
   58.7001   30.6477   45.7887 H   0  0  0  0  0  0  0  0  0  0  0  0
   60.1894   31.9069   47.3401 H   0  0  0  0  0  0  0  0  0  0  0  0
   63.1048   34.1108   46.3225 H   0  0  0  0  0  0  0  0  0  0  0  0
   65.0243   33.0993   47.5461 H   0  0  0  0  0  0  0  0  0  0  0  0
   64.7481   32.3537   49.9088 H   0  0  0  0  0  0  0  0  0  0  0  0
   62.5576   32.6305   51.0620 H   0  0  0  0  0  0  0  0  0  0  0  0
   59.2287   35.5897   45.2810 H   0  0  0  0  0  0  0  0  0  0  0  0
   57.7421   34.3334   43.7259 H   0  0  0  0  0  0  0  0  0  0  0  0
  1  2  1  0
  2  3  2  0
  2  4  1  0
  4  5  1  0
  5  6  2  0
  6  7  1  0
  7  8  2  0
  8  9  1  0
  9 10  1  0
 10 11  2  0
 11 12  1  0
 12 13  2  0
 13 14  1  0
 14 15  2  0
 15 16  1  0
 16 17  1  0
 16 18  1  0
 16 19  1  0
  8 20  1  0
 20 21  2  0
 21  5  1  0
 15 10  1  0
  1 22  1  0
  1 23  1  0
  1 24  1  0
  4 25  1  0
  6 26  1  0
  7 27  1  0
 11 28  1  0
 12 29  1  0
 13 30  1  0
 14 31  1  0
 20 32  1  0
 21 33  1  0
M  END
>  <UniqueID>  (1) 
1

>  <SMILES>  (1) 
CC(=O)Nc1ccc(Oc2ccccc2C(F)(F)F)cc1

>  <Energy>  (1) 
42.711710543401146

>  <Genealogy>  (1) 
CC(=O)Nc1ccc(Oc2ccccc2C(F)(F)F)cc1 (3D coordinates assigned)
CC(=O)Nc1ccc(Oc2ccccc2C(F)(F)F)cc1 (optimized conformer: 42.711710543401146 kcal/mol)

>  <smiles>  (1) 
CC(=O)Nc1ccc(Oc2ccccc2C(F)(F)F)cc1

>  <score_type>  (1) 
oracle

>  <origin>  (1) 
adg

>  <m_score__min__energy>  (1) 
-6.3499999999999996

>  <m_primary>  (1) 
energy

$$$$
1:0
     RDKit          3D

 26 28  0  0  0  0  0  0  0  0999 V2000
   55.1380   25.4420   46.7940 H   0  0  0  0  0  0  0  0  0  0  0  0
   55.9110   25.6190   46.1140 N   0  0  0  0  0  0  0  0  0  0  0  0
   56.5190   26.7600   46.0670 C   0  0  0  0  0  0  0  0  0  0  0  0
   57.7390   27.0520   46.6750 C   0  0  0  0  0  0  0  0  0  0  0  0
   58.3833   26.3971   47.2799 H   0  0  0  0  0  0  0  0  0  0  0  0
   57.9320   28.3730   46.3240 C   0  0  0  0  0  0  0  0  0  0  0  0
   58.9720   29.1770   46.6480 N   0  0  0  0  0  0  0  0  0  0  0  0
   58.9960   30.4750   46.2090 C   0  0  0  0  0  0  0  0  0  0  0  0
   60.1630   31.3380   46.5850 C   0  0  0  0  0  0  0  0  0  0  0  0
   60.1780   32.7360   46.3730 C   0  0  0  0  0  0  0  0  0  0  0  0
   59.3065   33.2262   45.9145 H   0  0  0  0  0  0  0  0  0  0  0  0
   61.2890   33.5020   46.7400 C   0  0  0  0  0  0  0  0  0  0  0  0
   61.2858   34.5885   46.5685 H   0  0  0  0  0  0  0  0  0  0  0  0
   62.4000   32.8950   47.3220 C   0  0  0  0  0  0  0  0  0  0  0  0
   63.2710   33.5020   47.6100 H   0  0  0  0  0  0  0  0  0  0  0  0
   62.4070   31.5180   47.5390 C   0  0  0  0  0  0  0  0  0  0  0  0
   63.2847   31.0387   47.9973 H   0  0  0  0  0  0  0  0  0  0  0  0
   61.3000   30.7450   47.1750 C   0  0  0  0  0  0  0  0  0  0  0  0
   61.3155   29.6593   47.3510 H   0  0  0  0  0  0  0  0  0  0  0  0
   57.9140   30.9500   45.4140 C   0  0  0  0  0  0  0  0  0  0  0  0
   57.9067   31.9870   45.0471 H   0  0  0  0  0  0  0  0  0  0  0  0
   56.8570   30.0800   45.1040 C   0  0  0  0  0  0  0  0  0  0  0  0
   55.8840   30.4680   44.4020 O   0  0  0  0  0  0  0  0  0  0  0  0
   56.9130   28.8120   45.5790 N   0  0  0  0  0  0  0  0  0  0  0  0
   56.0360   27.8370   45.4100 N   0  0  0  0  0  0  0  0  0  0  0  0
   55.1440   27.9030   44.8690 H   0  0  0  0  0  0  0  0  0  0  0  0
  1  2  1  0
  2  3  2  0
  3  4  1  0
  4  5  1  0
  4  6  2  0
  6  7  1  0
  7  8  1  0
  8  9  1  0
  9 10  2  0
 10 11  1  0
 10 12  1  0
 12 13  1  0
 12 14  2  0
 14 15  1  0
 14 16  1  0
 16 17  1  0
 16 18  2  0
 18 19  1  0
  8 20  2  0
 20 21  1  0
 20 22  1  0
 22 23  2  0
 22 24  1  0
 24 25  1  0
 25 26  1  0
 25  3  1  0
 24  6  1  0
 18  9  1  0
M  CHG  1   7  -1
M  END
>  <UniqueID>  (2) 
2

>  <SMILES>  (2) 
[H]/N=c1\cc2[n-]c(-c3ccccc3)cc(=O)n2[nH]1

>  <Energy>  (2) 
73.13249872445189

>  <Genealogy>  (2) 
N=c1cc2[n-]c(-c3ccccc3)cc(=O)n2[nH]1 (protonated)
[H]/N=c1\cc2[n-]c(-c3ccccc3)cc(=O)n2[nH]1 (cis-trans isomerization)
[H]/N=c1\cc2[n-]c(-c3ccccc3)cc(=O)n2[nH]1 (3D coordinates assigned)
[H]/N=c1\cc2[n-]c(-c3ccccc3)cc(=O)n2[nH]1 (optimized conformer: 73.13249872445189 kcal/mol)

>  <smiles>  (2) 
N=c1cc2[nH]c(-c3ccccc3)cc(=O)n2[nH]1

>  <score_type>  (2) 
oracle

>  <origin>  (2) 
adg

>  <m_score__min__energy>  (2) 
-8.0800000000000001

>  <m_primary>  (2) 
energy

$$$$
2:0
     RDKit          3D

 63 66  0  0  0  0  0  0  0  0999 V2000
   58.2418   32.3506   49.4444 H   0  0  0  0  0  0  0  0  0  0  0  0
   58.9990   31.8870   48.7950 C   0  0  0  0  0  0  0  0  0  0  0  0
   59.3090   30.5320   48.9440 C   0  0  0  0  0  0  0  0  0  0  0  0
   58.7901   29.9331   49.7070 H   0  0  0  0  0  0  0  0  0  0  0  0
   60.2770   29.9320   48.1270 C   0  0  0  0  0  0  0  0  0  0  0  0
   60.5970   28.4660   48.2780 C   0  0  0  0  0  0  0  0  0  0  0  0
   61.1817   28.1348   47.4072 H   0  0  0  0  0  0  0  0  0  0  0  0
   61.1717   28.3285   49.2058 H   0  0  0  0  0  0  0  0  0  0  0  0
   59.3750   27.6640   48.3660 N   0  0  0  0  0  0  0  0  0  0  0  0
   58.4230   27.6560   47.4800 C   0  0  0  0  0  0  0  0  0  0  0  0
   58.2660   28.6890   46.6100 N   0  0  0  0  0  0  0  0  0  0  0  0
   57.2680   28.6720   45.6870 C   0  0  0  0  0  0  0  0  0  0  0  0
   57.0980   29.7710   44.7680 N   0  0  0  0  0  0  0  0  0  0  0  0
   57.7780   31.0430   45.0510 C   0  0  0  0  0  0  0  0  0  0  0  0
   57.3685   31.4695   45.9786 H   0  0  0  0  0  0  0  0  0  0  0  0
   58.8549   30.8449   45.1557 H   0  0  0  0  0  0  0  0  0  0  0  0
   57.5800   32.0460   43.9110 C   0  0  0  0  0  0  0  0  0  0  0  0
   56.5830   32.5030   43.9949 H   0  0  0  0  0  0  0  0  0  0  0  0
   58.3510   32.8279   43.9754 H   0  0  0  0  0  0  0  0  0  0  0  0
   57.6940   31.3530   42.6150 N   0  0  0  0  0  0  0  0  0  0  0  0
   58.5850   30.8000   42.5990 H   0  0  0  0  0  0  0  0  0  0  0  0
   57.7710   32.3300   41.5170 C   0  0  0  0  0  0  0  0  0  0  0  0
   57.8510   33.3447   41.9340 H   0  0  0  0  0  0  0  0  0  0  0  0
   58.6552   32.1172   40.8982 H   0  0  0  0  0  0  0  0  0  0  0  0
   56.8644   32.2583   40.8982 H   0  0  0  0  0  0  0  0  0  0  0  0
   56.5580   30.4260   42.4020 C   0  0  0  0  0  0  0  0  0  0  0  0
   55.7081   31.0032   42.0089 H   0  0  0  0  0  0  0  0  0  0  0  0
   56.9021   29.6529   41.6992 H   0  0  0  0  0  0  0  0  0  0  0  0
   56.0990   29.6950   43.6890 C   0  0  0  0  0  0  0  0  0  0  0  0
   55.1638   30.1547   44.0412 H   0  0  0  0  0  0  0  0  0  0  0  0
   55.9586   28.6333   43.4380 H   0  0  0  0  0  0  0  0  0  0  0  0
   56.4190   27.6110   45.6500 N   0  0  0  0  0  0  0  0  0  0  0  0
   56.5640   26.5750   46.5200 C   0  0  0  0  0  0  0  0  0  0  0  0
   55.7450   25.5660   46.5040 N   0  0  0  0  0  0  0  0  0  0  0  0
   55.3760   24.8010   45.3110 C   0  0  0  0  0  0  0  0  0  0  0  0
   55.1867   25.4983   44.4816 H   0  0  0  0  0  0  0  0  0  0  0  0
   56.2037   24.1203   45.0631 H   0  0  0  0  0  0  0  0  0  0  0  0
   54.1350   23.9770   45.5550 C   0  0  0  0  0  0  0  0  0  0  0  0
   54.2160   22.7490   46.2270 C   0  0  0  0  0  0  0  0  0  0  0  0
   55.1882   22.3917   46.5975 H   0  0  0  0  0  0  0  0  0  0  0  0
   53.0690   21.9760   46.4290 C   0  0  0  0  0  0  0  0  0  0  0  0
   53.1459   21.0116   46.9525 H   0  0  0  0  0  0  0  0  0  0  0  0
   51.8230   22.4200   45.9700 C   0  0  0  0  0  0  0  0  0  0  0  0
   50.7020   21.6070   46.1950 O   0  0  0  0  0  0  0  0  0  0  0  0
   49.9990   20.9110   45.1720 C   0  0  0  0  0  0  0  0  0  0  0  0
   49.2881   20.2071   45.6294 H   0  0  0  0  0  0  0  0  0  0  0  0
   49.4509   21.6322   44.5479 H   0  0  0  0  0  0  0  0  0  0  0  0
   50.7147   20.3557   44.5479 H   0  0  0  0  0  0  0  0  0  0  0  0
   51.7370   23.6580   45.3060 C   0  0  0  0  0  0  0  0  0  0  0  0
   50.7630   24.0186   44.9435 H   0  0  0  0  0  0  0  0  0  0  0  0
   52.8850   24.4320   45.1050 C   0  0  0  0  0  0  0  0  0  0  0  0
   52.8081   25.4019   44.5918 H   0  0  0  0  0  0  0  0  0  0  0  0
   57.5700   26.6020   47.4290 N   0  0  0  0  0  0  0  0  0  0  0  0
   60.9230   30.7010   47.1470 C   0  0  0  0  0  0  0  0  0  0  0  0
   61.6735   30.2352   46.4914 H   0  0  0  0  0  0  0  0  0  0  0  0
   60.6160   32.0570   47.0010 C   0  0  0  0  0  0  0  0  0  0  0  0
   61.1366   32.6545   46.2381 H   0  0  0  0  0  0  0  0  0  0  0  0
   59.6530   32.6610   47.8160 C   0  0  0  0  0  0  0  0  0  0  0  0
   59.3710   34.0200   47.6200 O   0  0  0  0  0  0  0  0  0  0  0  0
   59.2450   34.6390   46.3450 C   0  0  0  0  0  0  0  0  0  0  0  0
   59.0272   35.7091   46.4769 H   0  0  0  0  0  0  0  0  0  0  0  0
   60.1853   34.5223   45.7862 H   0  0  0  0  0  0  0  0  0  0  0  0
   58.4251   34.1641   45.7862 H   0  0  0  0  0  0  0  0  0  0  0  0
  1  2  1  0
  2  3  2  0
  3  4  1  0
  3  5  1  0
  5  6  1  0
  6  7  1  0
  6  8  1  0
  6  9  1  0
  9 10  2  0
 10 11  1  0
 11 12  2  0
 12 13  1  0
 13 14  1  0
 14 15  1  0
 14 16  1  0
 14 17  1  0
 17 18  1  0
 17 19  1  0
 17 20  1  0
 20 21  1  0
 20 22  1  0
 22 23  1  0
 22 24  1  0
 22 25  1  0
 20 26  1  0
 26 27  1  0
 26 28  1  0
 26 29  1  0
 29 30  1  0
 29 31  1  0
 12 32  1  0
 32 33  1  0
 33 34  2  0
 34 35  1  0
 35 36  1  0
 35 37  1  0
 35 38  1  0
 38 39  2  0
 39 40  1  0
 39 41  1  0
 41 42  1  0
 41 43  2  0
 43 44  1  0
 44 45  1  0
 45 46  1  0
 45 47  1  0
 45 48  1  0
 43 49  1  0
 49 50  1  0
 49 51  2  0
 51 52  1  0
 33 53  1  0
  5 54  2  0
 54 55  1  0
 54 56  1  0
 56 57  1  0
 56 58  2  0
 58 59  1  0
 59 60  1  0
 60 61  1  0
 60 62  1  0
 60 63  1  0
 58  2  1  0
 53 10  1  0
 29 13  1  0
 51 38  1  0
M  CHG  3  20   1  32  -1  53  -1
M  END
>  <UniqueID>  (3) 
3

>  <SMILES>  (3) 
COc1ccc(C/N=c2\nc(N3CC[NH+](C)CC3)[n-]/c(=N\Cc3ccc(OC)cc3)[n-]2)cc1

>  <Energy>  (3) 
66.93037950140074

>  <Genealogy>  (3) 
COc1ccc(CN=c2nc(N3CC[NH+](C)CC3)[n-]c(=NCc3ccc(OC)cc3)[n-]2)cc1 (protonated)
COc1ccc(C/N=c2\nc(N3CC[NH+](C)CC3)[n-]/c(=N\Cc3ccc(OC)cc3)[n-]2)cc1 (cis-trans isomerization)
COc1ccc(C/N=c2\nc(N3CC[NH+](C)CC3)[n-]/c(=N\Cc3ccc(OC)cc3)[n-]2)cc1 (3D coordinates assigned)
COc1ccc(C/N=c2\nc(N3CC[NH+](C)CC3)[n-]/c(=N\Cc3ccc(OC)cc3)[n-]2)cc1 (nonaromatic ring conformer: 66.93037950140074 kcal/mol)

>  <smiles>  (3) 
COc1ccc(CN=c2nc(N3CCN(C)CC3)[nH]c(=NCc3ccc(OC)cc3)[nH]2)cc1

>  <score_type>  (3) 
oracle

>  <origin>  (3) 
adg

>  <m_score__min__energy>  (3) 
-9.2599999999999998

>  <m_primary>  (3) 
energy

$$$$
3:0
     RDKit          3D

 30 31  0  0  0  0  0  0  0  0999 V2000
   55.2290   26.4280   46.1330 N   0  0  0  0  0  0  0  0  0  0  0  0
   56.3940   25.8200   46.6860 C   0  0  0  0  0  0  0  0  0  0  0  0
   56.3100   24.6670   47.1890 O   0  0  0  0  0  0  0  0  0  0  0  0
   57.7040   26.5080   46.6270 C   0  0  0  0  0  0  0  0  0  0  0  0
   58.7040   26.1290   47.5410 C   0  0  0  0  0  0  0  0  0  0  0  0
   59.9900   26.6650   47.4530 C   0  0  0  0  0  0  0  0  0  0  0  0
   60.2990   27.5810   46.4480 C   0  0  0  0  0  0  0  0  0  0  0  0
   59.3140   27.9850   45.5460 C   0  0  0  0  0  0  0  0  0  0  0  0
   58.0080   27.4880   45.6440 C   0  0  0  0  0  0  0  0  0  0  0  0
   57.0160   28.0270   44.7570 N   0  0  0  0  0  0  0  0  0  0  0  0
   56.4040   29.3200   44.8660 C   0  0  0  0  0  0  0  0  0  0  0  0
   55.1520   29.3860   44.9940 O   0  0  0  0  0  0  0  0  0  0  0  0
   57.1930   30.5740   44.8270 C   0  0  0  0  0  0  0  0  0  0  0  0
   57.8350   31.0610   45.9780 C   0  0  0  0  0  0  0  0  0  0  0  0
   58.5680   32.2510   45.9280 C   0  0  0  0  0  0  0  0  0  0  0  0
   58.6780   32.9640   44.7270 C   0  0  0  0  0  0  0  0  0  0  0  0
   59.4250   34.1820   44.6780 N   0  0  0  0  0  0  0  0  0  0  0  0
   58.0550   32.4710   43.5730 C   0  0  0  0  0  0  0  0  0  0  0  0
   57.3220   31.2820   43.6200 C   0  0  0  0  0  0  0  0  0  0  0  0
   55.1750   27.4630   46.0010 H   0  0  0  0  0  0  0  0  0  0  0  0
   58.4702   25.4027   48.3333 H   0  0  0  0  0  0  0  0  0  0  0  0
   60.7609   26.3643   48.1777 H   0  0  0  0  0  0  0  0  0  0  0  0
   61.3189   27.9849   46.3663 H   0  0  0  0  0  0  0  0  0  0  0  0
   59.5656   28.7011   44.7498 H   0  0  0  0  0  0  0  0  0  0  0  0
   57.7607   30.5034   46.9233 H   0  0  0  0  0  0  0  0  0  0  0  0
   59.0606   32.6290   46.8360 H   0  0  0  0  0  0  0  0  0  0  0  0
   59.9190   34.4710   43.8040 H   0  0  0  0  0  0  0  0  0  0  0  0
   59.4890   34.8030   45.5150 H   0  0  0  0  0  0  0  0  0  0  0  0
   58.1432   33.0225   42.6253 H   0  0  0  0  0  0  0  0  0  0  0  0
   56.8433   30.8982   42.7070 H   0  0  0  0  0  0  0  0  0  0  0  0
  1  2  1  0
  2  3  2  0
  2  4  1  0
  4  5  2  0
  5  6  1  0
  6  7  2  0
  7  8  1  0
  8  9  2  0
  9 10  1  0
 10 11  1  0
 11 12  2  0
 11 13  1  0
 13 14  2  0
 14 15  1  0
 15 16  2  0
 16 17  1  0
 16 18  1  0
 18 19  2  0
  9  4  1  0
 19 13  1  0
  1 20  1  0
  5 21  1  0
  6 22  1  0
  7 23  1  0
  8 24  1  0
 14 25  1  0
 15 26  1  0
 17 27  1  0
 17 28  1  0
 18 29  1  0
 19 30  1  0
M  CHG  2   1  -1  10  -1
M  END
>  <UniqueID>  (4) 
4

>  <SMILES>  (4) 
[NH-]C(=O)c1ccccc1[N-]C(=O)c1ccc(N)cc1

>  <Energy>  (4) 
42.43323921498283

>  <Genealogy>  (4) 
[NH-]C(=O)c1ccccc1[N-]C(=O)c1ccc(N)cc1 (protonated)
[NH-]C(=O)c1ccccc1[N-]C(=O)c1ccc(N)cc1 (3D coordinates assigned)
[NH-]C(=O)c1ccccc1[N-]C(=O)c1ccc(N)cc1 (optimized conformer: 42.43323921498283 kcal/mol)

>  <smiles>  (4) 
NC(=O)c1ccccc1NC(=O)c1ccc(N)cc1

>  <score_type>  (4) 
oracle

>  <origin>  (4) 
adg

>  <m_score__min__energy>  (4) 
-11.94

>  <m_primary>  (4) 
energy

$$$$
4:0
     RDKit          3D

 54 57  0  0  1  0  0  0  0  0999 V2000
   57.1390   33.5400   45.4110 C   0  0  0  0  0  0  0  0  0  0  0  0
   58.4700   33.4790   46.0630 C   0  0  0  0  0  0  0  0  0  0  0  0
   59.2510   34.6200   46.0210 C   0  0  0  0  0  0  0  0  0  0  0  0
   60.5120   34.6060   46.6220 C   0  0  0  0  0  0  0  0  0  0  0  0
   61.0000   33.4850   47.2590 C   0  0  0  0  0  0  0  0  0  0  0  0
   62.3370   33.5430   47.8690 C   0  0  0  0  0  0  0  0  0  0  0  0
   63.2720   33.8560   47.0930 O   0  0  0  0  0  0  0  0  0  0  0  0
   62.5880   33.2740   49.2240 N   0  0  0  0  0  0  0  0  0  0  0  0
   63.8250   33.3070   49.8870 C   0  0  0  0  0  0  0  0  0  0  0  0
   64.7980   32.3660   49.5200 C   0  0  0  0  0  0  0  0  0  0  0  0
   66.0370   32.3280   50.1200 C   0  0  0  0  0  0  0  0  0  0  0  0
   66.3910   33.2110   51.1140 C   0  0  0  0  0  0  0  0  0  0  0  0
   65.4490   34.1430   51.4890 C   0  0  0  0  0  0  0  0  0  0  0  0
   65.8020   35.1080   52.5570 C   0  0  0  0  0  0  0  0  0  0  0  0
   65.7630   34.5030   53.9230 C   0  0  0  0  0  0  0  0  0  0  0  0
   67.1600   35.6820   52.3030 C   0  0  0  0  0  0  0  0  0  0  0  0
   64.8140   36.2660   52.4640 C   0  0  0  0  0  0  0  0  0  0  0  0
   64.1940   34.1770   50.8760 C   0  0  0  0  0  0  0  0  0  0  0  0
   60.2110   32.3600   47.2910 C   0  0  0  0  0  0  0  0  0  0  0  0
   58.9490   32.3470   46.6990 C   0  0  0  0  0  0  0  0  0  0  0  0
   58.1210   31.1910   46.7240 N   0  0  0  0  0  0  0  0  0  0  0  0
   58.2870   30.2190   45.8940 C   0  0  0  0  0  0  0  0  0  0  0  0
   59.3690   29.4410   46.0740 N   0  0  0  0  0  0  0  0  0  0  0  0
   59.6060   28.4070   45.2440 C   0  0  0  0  0  0  0  0  0  0  0  0
   58.7450   28.1650   44.2350 N   0  0  0  0  0  0  0  0  0  0  0  0
   57.6570   28.9250   44.0330 C   0  0  0  0  0  0  0  0  0  0  0  0
   56.6440   28.9250   43.1320 N   0  0  0  0  0  0  0  0  0  0  0  0
   55.8230   29.9480   43.4300 C   0  0  0  0  0  0  0  0  0  0  0  0
   56.2770   30.6200   44.5110 N   0  0  0  0  0  0  0  0  0  0  0  0
   57.4030   29.9900   44.8780 C   0  0  0  0  0  0  0  0  0  0  0  0
   56.3546   33.5759   46.1814 H   0  0  0  0  0  0  0  0  0  0  0  0
   57.0788   34.4418   44.7841 H   0  0  0  0  0  0  0  0  0  0  0  0
   56.9966   32.6474   44.7841 H   0  0  0  0  0  0  0  0  0  0  0  0
   58.8834   35.5278   45.5202 H   0  0  0  0  0  0  0  0  0  0  0  0
   61.1322   35.5138   46.5860 H   0  0  0  0  0  0  0  0  0  0  0  0
   61.7340   33.0170   49.8070 H   0  0  0  0  0  0  0  0  0  0  0  0
   64.5647   31.6371   48.7299 H   0  0  0  0  0  0  0  0  0  0  0  0
   66.7647   31.5698   49.7951 H   0  0  0  0  0  0  0  0  0  0  0  0
   67.3828   33.1741   51.5883 H   0  0  0  0  0  0  0  0  0  0  0  0
   65.8144   35.3005   54.6788 H   0  0  0  0  0  0  0  0  0  0  0  0
   64.8267   33.9394   54.0478 H   0  0  0  0  0  0  0  0  0  0  0  0
   66.6192   33.8238   54.0478 H   0  0  0  0  0  0  0  0  0  0  0  0
   67.6550   35.8912   53.2628 H   0  0  0  0  0  0  0  0  0  0  0  0
   67.7614   34.9611   51.7297 H   0  0  0  0  0  0  0  0  0  0  0  0
   67.0621   36.6157   51.7297 H   0  0  0  0  0  0  0  0  0  0  0  0
   64.5354   36.5925   53.4768 H   0  0  0  0  0  0  0  0  0  0  0  0
   65.2802   37.1033   51.9241 H   0  0  0  0  0  0  0  0  0  0  0  0
   63.9137   35.9374   51.9241 H   0  0  0  0  0  0  0  0  0  0  0  0
   63.4700   34.9377   51.2034 H   0  0  0  0  0  0  0  0  0  0  0  0
   60.5819   31.4540   47.7926 H   0  0  0  0  0  0  0  0  0  0  0  0
   60.0280   29.6380   46.8580 H   0  0  0  0  0  0  0  0  0  0  0  0
   60.4902   27.7685   45.3874 H   0  0  0  0  0  0  0  0  0  0  0  0
   56.5720   28.2260   42.3650 H   0  0  0  0  0  0  0  0  0  0  0  0
   54.9098   30.2020   42.8719 H   0  0  0  0  0  0  0  0  0  0  0  0
  1  2  1  0
  2  3  2  0
  3  4  1  0
  4  5  2  0
  5  6  1  0
  6  7  2  0
  6  8  1  0
  8  9  1  0
  9 10  2  0
 10 11  1  0
 11 12  2  0
 12 13  1  0
 13 14  1  0
 14 15  1  0
 14 16  1  0
 14 17  1  0
 13 18  2  0
  5 19  1  0
 19 20  2  0
 20 21  1  0
 21 22  2  0
 22 23  1  0
 23 24  1  0
 24 25  2  0
 25 26  1  0
 26 27  1  0
 27 28  1  0
 28 29  2  0
 29 30  1  0
 20  2  1  0
 30 22  1  0
 18  9  1  0
 30 26  2  0
  1 31  1  0
  1 32  1  0
  1 33  1  0
  3 34  1  0
  4 35  1  0
  8 36  1  0
 10 37  1  0
 11 38  1  0
 12 39  1  0
 15 40  1  0
 15 41  1  0
 15 42  1  0
 16 43  1  0
 16 44  1  0
 16 45  1  0
 17 46  1  0
 17 47  1  0
 17 48  1  0
 18 49  1  0
 19 50  1  0
 23 51  1  0
 24 52  1  0
 27 53  1  0
 28 54  1  0
M  END
>  <smiles>  (5) 
Cc1ccc(C(=O)Nc2cccc(C(C)(C)C)c2)cc1N=c1[nH]cnc2[nH]cnc12

>  <score_type>  (5) 
oracle

>  <origin>  (5) 
adg

>  <m_score__min__energy>  (5) 
-9.3100000000000005

>  <m_primary>  (5) 
energy

$$$$
5:0
     RDKit          3D

 53 55  0  0  0  0  0  0  0  0999 V2000
   56.2680   29.6430   42.5670 C   0  0  0  0  0  0  0  0  0  0  0  0
   55.6070   30.0970   43.8600 C   0  0  0  0  0  0  0  0  0  0  0  0
   56.6120   30.7600   44.7310 N   0  0  0  0  0  0  0  0  0  0  0  0
   57.7890   29.8960   44.9810 C   0  0  0  0  0  0  0  0  0  0  0  0
   57.3610   28.5250   45.5030 C   0  0  0  0  0  0  0  0  0  0  0  0
   57.0250   32.0770   44.1920 C   0  0  0  0  0  0  0  0  0  0  0  0
   57.8430   32.8220   45.2140 C   0  0  0  0  0  0  0  0  0  0  0  0
   57.5520   32.6830   46.5790 C   0  0  0  0  0  0  0  0  0  0  0  0
   58.2960   33.3790   47.5350 C   0  0  0  0  0  0  0  0  0  0  0  0
   59.3310   34.2450   47.1370 C   0  0  0  0  0  0  0  0  0  0  0  0
   60.1170   34.9610   48.0560 O   0  0  0  0  0  0  0  0  0  0  0  0
   61.2250   34.4270   48.7790 C   0  0  0  0  0  0  0  0  0  0  0  0
   61.5140   33.0170   48.3560 C   0  0  0  0  0  0  0  0  0  0  0  0
   60.6870   31.9760   48.5580 N   0  0  0  0  0  0  0  0  0  0  0  0
   61.3900   30.8950   48.1490 C   0  0  0  0  0  0  0  0  0  0  0  0
   60.9060   29.4960   48.1970 C   0  0  0  0  0  0  0  0  0  0  0  0
   60.4690   28.8260   47.0370 C   0  0  0  0  0  0  0  0  0  0  0  0
   60.0010   27.5100   47.1120 C   0  0  0  0  0  0  0  0  0  0  0  0
   59.9640   26.8490   48.3420 C   0  0  0  0  0  0  0  0  0  0  0  0
   60.4020   27.5000   49.4980 C   0  0  0  0  0  0  0  0  0  0  0  0
   60.8750   28.8150   49.4270 C   0  0  0  0  0  0  0  0  0  0  0  0
   62.5910   31.2290   47.7220 O   0  0  0  0  0  0  0  0  0  0  0  0
   62.7010   32.5310   47.8460 C   0  0  0  0  0  0  0  0  0  0  0  0
   63.9200   33.3140   47.4890 C   0  0  0  0  0  0  0  0  0  0  0  0
   59.6010   34.4020   45.7730 C   0  0  0  0  0  0  0  0  0  0  0  0
   58.8710   33.6910   44.8170 C   0  0  0  0  0  0  0  0  0  0  0  0
   57.1538   29.0346   42.8020 H   0  0  0  0  0  0  0  0  0  0  0  0
   55.5556   29.0427   41.9821 H   0  0  0  0  0  0  0  0  0  0  0  0
   56.5725   30.5234   41.9821 H   0  0  0  0  0  0  0  0  0  0  0  0
   54.7993   30.8068   43.6280 H   0  0  0  0  0  0  0  0  0  0  0  0
   55.1920   29.2229   44.3831 H   0  0  0  0  0  0  0  0  0  0  0  0
   58.3455   29.7654   44.0412 H   0  0  0  0  0  0  0  0  0  0  0  0
   58.4225   30.3779   45.7402 H   0  0  0  0  0  0  0  0  0  0  0  0
   57.3639   28.5342   46.6030 H   0  0  0  0  0  0  0  0  0  0  0  0
   56.3482   28.2946   45.1409 H   0  0  0  0  0  0  0  0  0  0  0  0
   58.0629   27.7593   45.1409 H   0  0  0  0  0  0  0  0  0  0  0  0
   57.6274   31.9257   43.2841 H   0  0  0  0  0  0  0  0  0  0  0  0
   56.1269   32.6651   43.9520 H   0  0  0  0  0  0  0  0  0  0  0  0
   56.7330   32.0220   46.8988 H   0  0  0  0  0  0  0  0  0  0  0  0
   58.0715   33.2493   48.6040 H   0  0  0  0  0  0  0  0  0  0  0  0
   62.1122   35.0487   48.5883 H   0  0  0  0  0  0  0  0  0  0  0  0
   60.9770   34.4274   49.8507 H   0  0  0  0  0  0  0  0  0  0  0  0
   59.7340   32.0110   48.9820 H   0  0  0  0  0  0  0  0  0  0  0  0
   60.4961   29.3415   46.0656 H   0  0  0  0  0  0  0  0  0  0  0  0
   59.6617   26.9949   46.2012 H   0  0  0  0  0  0  0  0  0  0  0  0
   59.5901   25.8162   48.4004 H   0  0  0  0  0  0  0  0  0  0  0  0
   60.3750   26.9778   50.4658 H   0  0  0  0  0  0  0  0  0  0  0  0
   61.2250   29.3196   50.3396 H   0  0  0  0  0  0  0  0  0  0  0  0
   64.4283   33.6405   48.4082 H   0  0  0  0  0  0  0  0  0  0  0  0
   64.6006   32.6837   46.8978 H   0  0  0  0  0  0  0  0  0  0  0  0
   63.6298   34.1950   46.8978 H   0  0  0  0  0  0  0  0  0  0  0  0
   60.3951   35.0914   45.4504 H   0  0  0  0  0  0  0  0  0  0  0  0
   59.1030   33.8129   43.7487 H   0  0  0  0  0  0  0  0  0  0  0  0
  1  2  1  0
  2  3  1  0
  3  4  1  0
  4  5  1  0
  3  6  1  0
  6  7  1  0
  7  8  2  0
  8  9  1  0
  9 10  2  0
 10 11  1  0
 11 12  1  0
 12 13  1  0
 13 14  1  0
 14 15  2  0
 15 16  1  0
 16 17  2  0
 17 18  1  0
 18 19  2  0
 19 20  1  0
 20 21  2  0
 15 22  1  0
 22 23  1  0
 23 24  1  0
 10 25  1  0
 25 26  2  0
 26  7  1  0
 23 13  2  0
 21 16  1  0
  1 27  1  0
  1 28  1  0
  1 29  1  0
  2 30  1  0
  2 31  1  0
  4 32  1  0
  4 33  1  0
  5 34  1  0
  5 35  1  0
  5 36  1  0
  6 37  1  0
  6 38  1  0
  8 39  1  0
  9 40  1  0
 12 41  1  0
 12 42  1  0
 14 43  1  0
 17 44  1  0
 18 45  1  0
 19 46  1  0
 20 47  1  0
 21 48  1  0
 24 49  1  0
 24 50  1  0
 24 51  1  0
 25 52  1  0
 26 53  1  0
M  CHG  1  14   1
M  END
>  <UniqueID>  (6) 
5

>  <SMILES>  (6) 
CCN(CC)Cc1ccc(OCc2[nH+]c(-c3ccccc3)oc2C)cc1

>  <Energy>  (6) 
84.13934455605413

>  <Genealogy>  (6) 
CCN(CC)Cc1ccc(OCc2[nH+]c(-c3ccccc3)oc2C)cc1 (protonated)
CCN(CC)Cc1ccc(OCc2[nH+]c(-c3ccccc3)oc2C)cc1 (3D coordinates assigned)
CCN(CC)Cc1ccc(OCc2[nH+]c(-c3ccccc3)oc2C)cc1 (optimized conformer: 84.13934455605413 kcal/mol)

>  <smiles>  (6) 
CCN(CC)Cc1ccc(OCc2nc(-c3ccccc3)oc2C)cc1

>  <score_type>  (6) 
oracle

>  <origin>  (6) 
adg

>  <m_score__min__energy>  (6) 
-6.4000000000000004

>  <m_primary>  (6) 
energy

$$$$
6:0
     RDKit          3D

 48 50  0  0  0  0  0  0  0  0999 V2000
   57.0600   21.0380   42.6530 C   0  0  0  0  0  0  0  0  0  0  0  0
   56.7990   22.1670   43.5990 C   0  0  0  0  0  0  0  0  0  0  0  0
   57.8540   22.7780   44.2780 C   0  0  0  0  0  0  0  0  0  0  0  0
   57.5860   23.8250   45.1600 C   0  0  0  0  0  0  0  0  0  0  0  0
   56.2690   24.2700   45.3630 C   0  0  0  0  0  0  0  0  0  0  0  0
   56.0340   25.4020   46.2930 C   0  0  0  0  0  0  0  0  0  0  0  0
   56.2730   25.2560   47.5240 O   0  0  0  0  0  0  0  0  0  0  0  0
   55.6330   26.6840   45.7970 N   0  0  0  0  0  0  0  0  0  0  0  0
   56.4970   27.8150   45.6160 C   0  0  0  0  0  0  0  0  0  0  0  0
   57.8310   27.7110   46.0310 C   0  0  0  0  0  0  0  0  0  0  0  0
   58.7130   28.7880   45.8710 C   0  0  0  0  0  0  0  0  0  0  0  0
   60.3940   28.6490   46.3700 S   0  0  0  0  0  0  0  0  0  0  0  0
   61.3040   28.9990   45.2240 O   0  0  0  0  0  0  0  0  0  0  0  0
   60.6850   27.2340   46.7830 O   0  0  0  0  0  0  0  0  0  0  0  0
   60.6720   29.7350   47.6950 N   0  0  0  0  0  0  0  0  0  0  0  0
   60.7460   29.1770   49.0430 C   0  0  0  0  0  0  0  0  0  0  0  0
   61.2410   31.0230   47.4190 C   0  0  0  0  0  0  0  0  0  0  0  0
   62.6280   31.2260   47.5260 C   0  0  0  0  0  0  0  0  0  0  0  0
   63.1790   32.4810   47.2370 C   0  0  0  0  0  0  0  0  0  0  0  0
   62.3510   33.5340   46.8400 C   0  0  0  0  0  0  0  0  0  0  0  0
   60.9710   33.3370   46.7320 C   0  0  0  0  0  0  0  0  0  0  0  0
   60.4170   32.0850   47.0200 C   0  0  0  0  0  0  0  0  0  0  0  0
   58.2640   29.9670   45.2640 C   0  0  0  0  0  0  0  0  0  0  0  0
   56.9450   30.0670   44.8160 C   0  0  0  0  0  0  0  0  0  0  0  0
   56.0620   28.9940   44.9750 C   0  0  0  0  0  0  0  0  0  0  0  0
   54.7750   29.0960   44.4600 O   0  0  0  0  0  0  0  0  0  0  0  0
   55.2230   23.6040   44.6740 C   0  0  0  0  0  0  0  0  0  0  0  0
   53.7760   23.9560   44.8580 C   0  0  0  0  0  0  0  0  0  0  0  0
   55.5250   22.5870   43.8190 N   0  0  0  0  0  0  0  0  0  0  0  0
   57.2717   20.1223   43.2245 H   0  0  0  0  0  0  0  0  0  0  0  0
   56.1750   20.8785   42.0194 H   0  0  0  0  0  0  0  0  0  0  0  0
   57.9252   21.2831   42.0194 H   0  0  0  0  0  0  0  0  0  0  0  0
   58.8877   22.4371   44.1191 H   0  0  0  0  0  0  0  0  0  0  0  0
   58.4135   24.3066   45.7016 H   0  0  0  0  0  0  0  0  0  0  0  0
   58.1891   26.7759   46.4863 H   0  0  0  0  0  0  0  0  0  0  0  0
   60.6388   29.9856   49.7810 H   0  0  0  0  0  0  0  0  0  0  0  0
   59.9371   28.4445   49.1815 H   0  0  0  0  0  0  0  0  0  0  0  0
   61.7178   28.6807   49.1815 H   0  0  0  0  0  0  0  0  0  0  0  0
   63.2817   30.3979   47.8372 H   0  0  0  0  0  0  0  0  0  0  0  0
   64.2644   32.6376   47.3227 H   0  0  0  0  0  0  0  0  0  0  0  0
   62.7851   34.5187   46.6122 H   0  0  0  0  0  0  0  0  0  0  0  0
   60.3202   34.1672   46.4203 H   0  0  0  0  0  0  0  0  0  0  0  0
   59.3310   31.9332   46.9331 H   0  0  0  0  0  0  0  0  0  0  0  0
   58.9517   30.8165   45.1397 H   0  0  0  0  0  0  0  0  0  0  0  0
   56.5989   30.9941   44.3358 H   0  0  0  0  0  0  0  0  0  0  0  0
   53.5460   24.0120   45.9322 H   0  0  0  0  0  0  0  0  0  0  0  0
   53.5729   24.9297   44.3883 H   0  0  0  0  0  0  0  0  0  0  0  0
   53.1483   23.1843   44.3883 H   0  0  0  0  0  0  0  0  0  0  0  0
  1  2  1  0
  2  3  2  0
  3  4  1  0
  4  5  2  0
  5  6  1  0
  6  7  2  0
  6  8  1  0
  8  9  1  0
  9 10  2  0
 10 11  1  0
 11 12  1  0
 12 13  2  0
 12 14  2  0
 12 15  1  0
 15 16  1  0
 15 17  1  0
 17 18  2  0
 18 19  1  0
 19 20  2  0
 20 21  1  0
 21 22  2  0
 11 23  2  0
 23 24  1  0
 24 25  2  0
 25 26  1  0
  5 27  1  0
 27 28  1  0
 27 29  2  0
 29  2  1  0
 25  9  1  0
 22 17  1  0
  1 30  1  0
  1 31  1  0
  1 32  1  0
  3 33  1  0
  4 34  1  0
 10 35  1  0
 16 36  1  0
 16 37  1  0
 16 38  1  0
 18 39  1  0
 19 40  1  0
 20 41  1  0
 21 42  1  0
 22 43  1  0
 23 44  1  0
 24 45  1  0
 28 46  1  0
 28 47  1  0
 28 48  1  0
M  CHG  2   8  -1  26  -1
M  END
>  <UniqueID>  (7) 
6

>  <SMILES>  (7) 
Cc1ccc(C(=O)[N-]c2cc(S(=O)(=O)N(C)c3ccccc3)ccc2[O-])c(C)n1

>  <Energy>  (7) 
64.41369010022328

>  <Genealogy>  (7) 
Cc1ccc(C(=O)[N-]c2cc(S(=O)(=O)N(C)c3ccccc3)ccc2[O-])c(C)n1 (protonated)
Cc1ccc(C(=O)[N-]c2cc(S(=O)(=O)N(C)c3ccccc3)ccc2[O-])c(C)n1 (3D coordinates assigned)
Cc1ccc(C(=O)[N-]c2cc(S(=O)(=O)N(C)c3ccccc3)ccc2[O-])c(C)n1 (optimized conformer: 64.41369010022328 kcal/mol)

>  <smiles>  (7) 
Cc1ccc(C(=O)Nc2cc(S(=O)(=O)N(C)c3ccccc3)ccc2O)c(C)n1

>  <score_type>  (7) 
oracle

>  <origin>  (7) 
adg

>  <m_score__min__energy>  (7) 
-14.83

>  <m_primary>  (7) 
energy

$$$$
7:0
     RDKit          3D

 40 42  0  0  0  0  0  0  0  0999 V2000
   63.3960   33.8400   46.4360 C   0  0  0  0  0  0  0  0  0  0  0  0
   62.6970   33.1880   47.5570 N   0  0  0  0  0  0  0  0  0  0  0  0
   63.4540   31.9970   47.9760 C   0  0  0  0  0  0  0  0  0  0  0  0
   62.5350   34.1180   48.6960 C   0  0  0  0  0  0  0  0  0  0  0  0
   61.0600   34.2250   49.1010 C   0  0  0  0  0  0  0  0  0  0  0  0
   60.1780   33.5910   48.0590 C   0  0  0  0  0  0  0  0  0  0  0  0
   59.7850   32.2360   48.1890 C   0  0  0  0  0  0  0  0  0  0  0  0
   58.9860   31.6220   47.2070 C   0  0  0  0  0  0  0  0  0  0  0  0
   58.6200   32.3800   46.0940 C   0  0  0  0  0  0  0  0  0  0  0  0
   57.8350   32.0800   44.9920 C   0  0  0  0  0  0  0  0  0  0  0  0
   57.1660   30.8090   44.6580 C   0  0  0  0  0  0  0  0  0  0  0  0
   55.9170   30.8040   44.4970 O   0  0  0  0  0  0  0  0  0  0  0  0
   57.9220   29.5560   44.4720 C   0  0  0  0  0  0  0  0  0  0  0  0
   59.2500   29.3700   44.8050 C   0  0  0  0  0  0  0  0  0  0  0  0
   59.5410   28.0520   44.5120 C   0  0  0  0  0  0  0  0  0  0  0  0
   58.3790   27.4900   44.0250 C   0  0  0  0  0  0  0  0  0  0  0  0
   57.3940   28.4060   44.0080 N   0  0  0  0  0  0  0  0  0  0  0  0
   57.7500   33.2600   44.2610 C   0  0  0  0  0  0  0  0  0  0  0  0
   58.4660   34.2390   44.8570 N   0  0  0  0  0  0  0  0  0  0  0  0
   58.9880   33.6950   45.9700 C   0  0  0  0  0  0  0  0  0  0  0  0
   59.7740   34.3330   46.9280 C   0  0  0  0  0  0  0  0  0  0  0  0
   64.1470   34.5405   46.8299 H   0  0  0  0  0  0  0  0  0  0  0  0
   63.8941   33.0764   45.8205 H   0  0  0  0  0  0  0  0  0  0  0  0
   62.6688   34.3899   45.8205 H   0  0  0  0  0  0  0  0  0  0  0  0
   63.4842   31.9495   49.0746 H   0  0  0  0  0  0  0  0  0  0  0  0
   62.9637   31.0940   47.5833 H   0  0  0  0  0  0  0  0  0  0  0  0
   64.4797   32.0576   47.5833 H   0  0  0  0  0  0  0  0  0  0  0  0
   63.1186   33.7468   49.5514 H   0  0  0  0  0  0  0  0  0  0  0  0
   62.8926   35.1135   48.3941 H   0  0  0  0  0  0  0  0  0  0  0  0
   60.9107   33.7115   50.0622 H   0  0  0  0  0  0  0  0  0  0  0  0
   60.7933   35.2882   49.1926 H   0  0  0  0  0  0  0  0  0  0  0  0
   60.1080   31.6577   49.0672 H   0  0  0  0  0  0  0  0  0  0  0  0
   58.6600   30.5768   47.3133 H   0  0  0  0  0  0  0  0  0  0  0  0
   59.9378   30.1213   45.2203 H   0  0  0  0  0  0  0  0  0  0  0  0
   60.5104   27.5485   44.6417 H   0  0  0  0  0  0  0  0  0  0  0  0
   58.2733   26.4450   43.6982 H   0  0  0  0  0  0  0  0  0  0  0  0
   56.4060   28.2380   43.7140 H   0  0  0  0  0  0  0  0  0  0  0  0
   57.1797   33.3797   43.3281 H   0  0  0  0  0  0  0  0  0  0  0  0
   58.5740   35.2240   44.5250 H   0  0  0  0  0  0  0  0  0  0  0  0
   60.0712   35.3851   46.8062 H   0  0  0  0  0  0  0  0  0  0  0  0
  1  2  1  0
  2  3  1  0
  2  4  1  0
  4  5  1  0
  5  6  1  0
  6  7  2  0
  7  8  1  0
  8  9  2  0
  9 10  1  0
 10 11  1  0
 11 12  2  0
 11 13  1  0
 13 14  2  0
 14 15  1  0
 15 16  2  0
 16 17  1  0
 10 18  2  0
 18 19  1  0
 19 20  1  0
 20 21  2  0
 21  6  1  0
 20  9  1  0
 17 13  1  0
  1 22  1  0
  1 23  1  0
  1 24  1  0
  3 25  1  0
  3 26  1  0
  3 27  1  0
  4 28  1  0
  4 29  1  0
  5 30  1  0
  5 31  1  0
  7 32  1  0
  8 33  1  0
 14 34  1  0
 15 35  1  0
 16 36  1  0
 17 37  1  0
 18 38  1  0
 19 39  1  0
 21 40  1  0
M  END
>  <UniqueID>  (8) 
7

>  <SMILES>  (8) 
CN(C)CCc1ccc2c(C(=O)c3ccc[nH]3)c[nH]c2c1

>  <Energy>  (8) 
101.64236245010859

>  <Genealogy>  (8) 
CN(C)CCc1ccc2c(C(=O)c3ccc[nH]3)c[nH]c2c1 (3D coordinates assigned)
CN(C)CCc1ccc2c(C(=O)c3ccc[nH]3)c[nH]c2c1 (optimized conformer: 101.64236245010859 kcal/mol)

>  <smiles>  (8) 
CN(C)CCc1ccc2c(C(=O)c3ccc[nH]3)c[nH]c2c1

>  <score_type>  (8) 
oracle

>  <origin>  (8) 
adg

>  <m_score__min__energy>  (8) 
-7.46

>  <m_primary>  (8) 
energy

$$$$
8:0
     RDKit          3D

 36 39  0  0  0  0  0  0  0  0999 V2000
   60.3790   27.0100   47.1200 N   0  0  0  0  0  0  0  0  0  0  0  0
   59.4280   26.9690   46.2580 C   0  0  0  0  0  0  0  0  0  0  0  0
   59.0010   25.7740   45.8270 N   0  0  0  0  0  0  0  0  0  0  0  0
   58.0210   25.5770   44.9340 C   0  0  0  0  0  0  0  0  0  0  0  0
   57.6290   24.2590   44.5290 C   0  0  0  0  0  0  0  0  0  0  0  0
   58.1520   23.1110   45.0350 C   0  0  0  0  0  0  0  0  0  0  0  0
   57.7300   21.8510   44.6020 C   0  0  0  0  0  0  0  0  0  0  0  0
   56.7550   21.7370   43.6340 C   0  0  0  0  0  0  0  0  0  0  0  0
   56.2810   20.5350   43.1500 O   0  0  0  0  0  0  0  0  0  0  0  0
   56.2150   22.8910   43.1120 C   0  0  0  0  0  0  0  0  0  0  0  0
   56.6400   24.1180   43.5470 C   0  0  0  0  0  0  0  0  0  0  0  0
   57.4250   26.6760   44.4380 N   0  0  0  0  0  0  0  0  0  0  0  0
   57.8250   27.9070   44.8470 C   0  0  0  0  0  0  0  0  0  0  0  0
   57.2310   29.5480   44.3740 S   0  0  0  0  0  0  0  0  0  0  0  0
   58.3790   30.4020   45.4430 C   0  0  0  0  0  0  0  0  0  0  0  0
   58.4900   31.8520   45.6000 C   0  0  0  0  0  0  0  0  0  0  0  0
   59.3170   32.3870   46.5680 C   0  0  0  0  0  0  0  0  0  0  0  0
   59.4120   33.7570   46.7030 C   0  0  0  0  0  0  0  0  0  0  0  0
   58.6780   34.5750   45.8690 C   0  0  0  0  0  0  0  0  0  0  0  0
   57.8380   34.0370   44.8850 C   0  0  0  0  0  0  0  0  0  0  0  0
   57.7490   32.6530   44.7560 C   0  0  0  0  0  0  0  0  0  0  0  0
   59.0950   29.4230   46.0520 C   0  0  0  0  0  0  0  0  0  0  0  0
   58.8230   28.1400   45.7580 C   0  0  0  0  0  0  0  0  0  0  0  0
   60.8960   27.9100   47.2080 H   0  0  0  0  0  0  0  0  0  0  0  0
   58.9311   23.1756   45.8088 H   0  0  0  0  0  0  0  0  0  0  0  0
   58.1783   20.9451   45.0360 H   0  0  0  0  0  0  0  0  0  0  0  0
   56.8060   19.6560   43.2690 H   0  0  0  0  0  0  0  0  0  0  0  0
   55.4353   22.8268   42.3387 H   0  0  0  0  0  0  0  0  0  0  0  0
   56.1901   25.0222   43.1111 H   0  0  0  0  0  0  0  0  0  0  0  0
   56.6550   26.6290   43.7410 H   0  0  0  0  0  0  0  0  0  0  0  0
   59.8968   31.7247   47.2277 H   0  0  0  0  0  0  0  0  0  0  0  0
   60.0683   34.1938   47.4701 H   0  0  0  0  0  0  0  0  0  0  0  0
   58.7534   35.6670   45.9783 H   0  0  0  0  0  0  0  0  0  0  0  0
   57.2576   34.6977   44.2243 H   0  0  0  0  0  0  0  0  0  0  0  0
   57.0969   32.2049   43.9918 H   0  0  0  0  0  0  0  0  0  0  0  0
   59.8851   29.6755   46.7745 H   0  0  0  0  0  0  0  0  0  0  0  0
  1  2  2  3
  2  3  1  0
  3  4  2  0
  4  5  1  0
  5  6  2  0
  6  7  1  0
  7  8  2  0
  8  9  1  0
  8 10  1  0
 10 11  2  0
  4 12  1  0
 12 13  1  0
 13 14  1  0
 14 15  1  0
 15 16  1  0
 16 17  2  0
 17 18  1  0
 18 19  2  0
 19 20  1  0
 20 21  2  0
 15 22  2  0
 22 23  1  0
 23  2  1  0
 11  5  1  0
 23 13  2  0
 21 16  1  0
  1 24  1  0
  6 25  1  0
  7 26  1  0
  9 27  1  0
 10 28  1  0
 11 29  1  0
 12 30  1  0
 17 31  1  0
 18 32  1  0
 19 33  1  0
 20 34  1  0
 21 35  1  0
 22 36  1  0
M  END
>  <smiles>  (9) 
N=c1nc(-c2ccc(O)cc2)[nH]c2sc(-c3ccccc3)cc12

>  <score_type>  (9) 
oracle

>  <origin>  (9) 
adg

>  <m_score__min__energy>  (9) 
-8.6799999999999997

>  <m_primary>  (9) 
energy

$$$$
9:0
     RDKit          3D

 39 40  0  0  0  0  0  0  0  0999 V2000
   55.1660   29.4450   44.8910 O   0  0  0  0  0  0  0  0  0  0  0  0
   56.3300   28.9610   44.8720 C   0  0  0  0  0  0  0  0  0  0  0  0
   56.7020   27.8930   45.7570 N   0  0  0  0  0  0  0  0  0  0  0  0
   56.4980   26.6110   45.6300 C   0  0  0  0  0  0  0  0  0  0  0  0
   57.4650   25.7250   45.1030 C   0  0  0  0  0  0  0  0  0  0  0  0
   57.1610   24.3660   44.9930 C   0  0  0  0  0  0  0  0  0  0  0  0
   55.9110   23.8940   45.3910 C   0  0  0  0  0  0  0  0  0  0  0  0
   54.9710   24.7970   45.8880 C   0  0  0  0  0  0  0  0  0  0  0  0
   55.2820   26.1160   45.9900 N   0  0  0  0  0  0  0  0  0  0  0  0
   57.2760   29.4080   43.8970 N   0  0  0  0  0  0  0  0  0  0  0  0
   57.6840   30.8010   43.7400 C   0  0  0  0  0  0  0  0  0  0  0  0
   57.7200   31.5280   45.0900 C   0  0  0  0  0  0  0  0  0  0  0  0
   58.9610   31.2050   45.9510 C   0  0  0  0  0  0  0  0  0  0  0  0
   59.1660   29.7400   46.1550 N   0  0  1  0  0  0  0  0  0  0  0  0
   60.4310   29.3030   45.5190 C   0  0  0  0  0  0  0  0  0  0  0  0
   60.6960   27.7800   45.6630 C   0  0  0  0  0  0  0  0  0  0  0  0
   59.7690   27.0840   46.6720 C   0  0  0  0  0  0  0  0  0  0  0  0
   59.5690   27.9320   47.9270 C   0  0  0  0  0  0  0  0  0  0  0  0
   59.2010   29.3440   47.5590 C   0  0  0  0  0  0  0  0  0  0  0  0
   58.9380   30.1320   48.4560 O   0  0  0  0  0  0  0  0  0  0  0  0
   58.4475   26.1020   44.7826 H   0  0  0  0  0  0  0  0  0  0  0  0
   57.9094   23.6669   44.5916 H   0  0  0  0  0  0  0  0  0  0  0  0
   55.6692   22.8237   45.3141 H   0  0  0  0  0  0  0  0  0  0  0  0
   53.9773   24.4411   46.1976 H   0  0  0  0  0  0  0  0  0  0  0  0
   58.6872   30.8317   43.2899 H   0  0  0  0  0  0  0  0  0  0  0  0
   56.9511   31.3061   43.0937 H   0  0  0  0  0  0  0  0  0  0  0  0
   57.7054   32.6112   44.8988 H   0  0  0  0  0  0  0  0  0  0  0  0
   56.8433   31.1831   45.6578 H   0  0  0  0  0  0  0  0  0  0  0  0
   59.8505   31.6170   45.4519 H   0  0  0  0  0  0  0  0  0  0  0  0
   58.7997   31.6551   46.9416 H   0  0  0  0  0  0  0  0  0  0  0  0
   58.3860   29.2180   45.6920 H   0  0  0  0  0  0  0  0  0  0  0  0
   60.3870   29.5501   44.4480 H   0  0  0  0  0  0  0  0  0  0  0  0
   61.2515   29.8266   46.0315 H   0  0  0  0  0  0  0  0  0  0  0  0
   60.5549   27.3085   44.6793 H   0  0  0  0  0  0  0  0  0  0  0  0
   61.7234   27.6668   46.0394 H   0  0  0  0  0  0  0  0  0  0  0  0
   58.7914   26.9105   46.1984 H   0  0  0  0  0  0  0  0  0  0  0  0
   60.2349   26.1328   46.9691 H   0  0  0  0  0  0  0  0  0  0  0  0
   58.7626   27.4947   48.5340 H   0  0  0  0  0  0  0  0  0  0  0  0
   60.5091   27.9478   48.4979 H   0  0  0  0  0  0  0  0  0  0  0  0
  1  2  2  0
  2  3  1  0
  3  4  2  3
  4  5  1  0
  5  6  2  0
  6  7  1  0
  7  8  2  0
  8  9  1  0
  2 10  1  0
 10 11  1  0
 11 12  1  0
 12 13  1  0
 13 14  1  0
 14 15  1  0
 15 16  1  0
 16 17  1  0
 17 18  1  0
 18 19  1  0
 19 20  2  0
  9  4  1  0
 19 14  1  0
  5 21  1  0
  6 22  1  0
  7 23  1  0
  8 24  1  0
 11 25  1  0
 11 26  1  0
 12 27  1  0
 12 28  1  0
 13 29  1  0
 13 30  1  0
 14 31  1  6
 15 32  1  0
 15 33  1  0
 16 34  1  0
 16 35  1  0
 17 36  1  0
 17 37  1  0
 18 38  1  0
 18 39  1  0
M  CHG  3   9  -1  10  -1  14   1
M  END
>  <UniqueID>  (10) 
8

>  <SMILES>  (10) 
O=C(N=c1cccc[n-]1)[N-]CCC[N@H+]1CCCCC1=O

>  <Energy>  (10) 
51.534614122486865

>  <Genealogy>  (10) 
O=C(N=c1cccc[n-]1)[N-]CCC[NH+]1CCCCC1=O (protonated)
O=C(N=c1cccc[n-]1)[N-]CCC[N@H+]1CCCCC1=O (chirality)
O=C(N=c1cccc[n-]1)[N-]CCC[N@H+]1CCCCC1=O (3D coordinates assigned)
O=C(N=c1cccc[n-]1)[N-]CCC[N@H+]1CCCCC1=O (nonaromatic ring conformer: 51.534614122486865 kcal/mol)

>  <smiles>  (10) 
O=C(N=c1cccc[nH]1)NCCCN1CCCCC1=O

>  <score_type>  (10) 
oracle

>  <origin>  (10) 
adg

>  <m_score__min__energy>  (10) 
-6.96

>  <m_primary>  (10) 
energy

$$$$
10:0
     RDKit          3D

 43 45  0  0  1  0  0  0  0  0999 V2000
   59.7800   33.8210   50.2000 C   0  0  0  0  0  0  0  0  0  0  0  0
   59.7910   34.1640   49.0420 C   0  0  0  0  0  0  0  0  0  0  0  0
   59.8130   34.6030   47.6460 C   0  0  0  0  0  0  0  0  0  0  0  0
   59.2100   33.6050   46.7820 N   0  0  0  0  0  0  0  0  0  0  0  0
   58.9130   33.9280   45.4340 C   0  0  0  0  0  0  0  0  0  0  0  0
   59.1770   35.0800   44.9970 O   0  0  0  0  0  0  0  0  0  0  0  0
   58.3040   32.9230   44.5570 C   0  0  0  0  0  0  0  0  0  0  0  0
   57.6610   31.8390   45.1140 C   0  0  0  0  0  0  0  0  0  0  0  0
   57.0620   30.8490   44.3310 C   0  0  0  0  0  0  0  0  0  0  0  0
   59.2890   28.5600   48.3250 N   0  0  0  0  0  0  0  0  0  0  0  0
   58.5020   28.2940   47.3210 C   0  0  0  0  0  0  0  0  0  0  0  0
   56.9240   27.5830   45.2820 N   0  0  0  0  0  0  0  0  0  0  0  0
   57.5690   26.6020   45.9460 C   0  0  0  0  0  0  0  0  0  0  0  0
   58.3830   26.9480   46.9950 C   0  0  0  0  0  0  0  0  0  0  0  0
   57.0550   28.8900   45.6180 C   0  0  0  0  0  0  0  0  0  0  0  0
   56.4040   29.7380   44.9300 N   0  0  0  0  0  0  0  0  0  0  0  0
   60.2530   29.6270   48.2250 C   0  0  0  0  0  0  0  0  0  0  0  0
   60.8160   30.1980   49.3520 C   0  0  0  0  0  0  0  0  0  0  0  0
   61.7270   31.2100   49.1420 C   0  0  0  0  0  0  0  0  0  0  0  0
   62.0630   31.6360   47.8610 C   0  0  0  0  0  0  0  0  0  0  0  0
   63.0170   32.6960   47.6590 C   0  0  0  0  0  0  0  0  0  0  0  0
   63.7570   33.5480   47.4980 N   0  0  0  0  0  0  0  0  0  0  0  0
   61.4970   31.0610   46.7450 C   0  0  0  0  0  0  0  0  0  0  0  0
   60.5780   30.0410   46.9410 C   0  0  0  0  0  0  0  0  0  0  0  0
   57.8450   29.2370   46.6380 N   0  0  0  0  0  0  0  0  0  0  0  0
   57.1550   31.0280   42.9660 C   0  0  0  0  0  0  0  0  0  0  0  0
   57.8010   32.1190   42.4180 C   0  0  0  0  0  0  0  0  0  0  0  0
   58.3650   33.0480   43.2140 N   0  0  0  0  0  0  0  0  0  0  0  0
   59.7700   33.5086   51.2547 H   0  0  0  0  0  0  0  0  0  0  0  0
   59.2520   35.5448   47.5553 H   0  0  0  0  0  0  0  0  0  0  0  0
   60.8591   34.7492   47.3390 H   0  0  0  0  0  0  0  0  0  0  0  0
   58.9740   32.6320   47.1090 H   0  0  0  0  0  0  0  0  0  0  0  0
   57.6180   31.7503   46.2096 H   0  0  0  0  0  0  0  0  0  0  0  0
   56.3140   27.2820   44.4920 H   0  0  0  0  0  0  0  0  0  0  0  0
   57.4453   25.5489   45.6533 H   0  0  0  0  0  0  0  0  0  0  0  0
   58.9276   26.1797   47.5635 H   0  0  0  0  0  0  0  0  0  0  0  0
   60.5498   29.8611   50.3648 H   0  0  0  0  0  0  0  0  0  0  0  0
   62.2007   31.6934   50.0092 H   0  0  0  0  0  0  0  0  0  0  0  0
   61.7646   31.3991   45.7330 H   0  0  0  0  0  0  0  0  0  0  0  0
   60.1042   29.5575   46.0740 H   0  0  0  0  0  0  0  0  0  0  0  0
   57.9400   30.2240   46.8860 H   0  0  0  0  0  0  0  0  0  0  0  0
   56.7025   30.2818   42.2963 H   0  0  0  0  0  0  0  0  0  0  0  0
   57.8552   32.2299   41.3250 H   0  0  0  0  0  0  0  0  0  0  0  0
  1  2  3  0
  2  3  1  0
  3  4  1  0
  4  5  1  0
  5  6  2  0
  5  7  1  0
  7  8  2  0
  8  9  1  0
  9 10  1  0
 10 11  2  0
 11 12  1  0
 12 13  1  0
 13 14  2  0
 14 15  1  0
 15 16  2  0
 16 17  1  0
 17 18  2  0
 18 19  1  0
 19 20  2  0
 20 21  1  0
 21 22  3  0
 20 23  1  0
 23 24  2  0
 15 25  1  0
  9 26  2  0
 26 27  1  0
 27 28  2  0
 28  7  1  0
 25 11  1  0
 24 17  1  0
  1 29  1  0
  3 30  1  0
  3 31  1  0
  4 32  1  0
  8 33  1  0
 12 34  1  0
 13 35  1  0
 14 36  1  0
 18 37  1  0
 19 38  1  0
 23 39  1  0
 24 40  1  0
 25 41  1  0
 26 42  1  0
 27 43  1  0
M  END
>  <smiles>  (11) 
C#CCNC(=O)c1cc(N=c2[nH]ccc(=Nc3ccc(C#N)cc3)[nH]2)ccn1

>  <score_type>  (11) 
oracle

>  <origin>  (11) 
adg

>  <m_score__min__energy>  (11) 
-7.9100000000000001

>  <m_primary>  (11) 
energy

$$$$
11:0
     RDKit          3D

 55 59  0  0  0  0  0  0  0  0999 V2000
   57.0716   30.7198   44.4298 H   0  0  0  0  0  0  0  0  0  0  0  0
   57.6550   30.3870   45.3010 C   0  0  0  0  0  0  0  0  0  0  0  0
   57.8630   29.0610   45.5110 N   0  0  0  0  0  0  0  0  0  0  0  0
   58.5800   28.5890   46.5690 C   0  0  0  0  0  0  0  0  0  0  0  0
   58.7670   27.3080   46.7250 N   0  0  0  0  0  0  0  0  0  0  0  0
   57.8860   26.2420   46.3320 C   0  0  0  0  0  0  0  0  0  0  0  0
   58.4500   25.0280   45.9240 C   0  0  0  0  0  0  0  0  0  0  0  0
   59.5426   24.9014   45.9376 H   0  0  0  0  0  0  0  0  0  0  0  0
   57.6360   23.9770   45.5000 C   0  0  0  0  0  0  0  0  0  0  0  0
   58.0878   23.0211   45.1965 H   0  0  0  0  0  0  0  0  0  0  0  0
   56.2480   24.1360   45.4600 C   0  0  0  0  0  0  0  0  0  0  0  0
   55.6110   23.3013   45.1321 H   0  0  0  0  0  0  0  0  0  0  0  0
   55.6640   25.3520   45.8350 C   0  0  0  0  0  0  0  0  0  0  0  0
   54.2670   25.4660   45.7680 O   0  0  0  0  0  0  0  0  0  0  0  0
   53.3920   24.4160   45.3640 C   0  0  0  0  0  0  0  0  0  0  0  0
   52.9787   23.9200   46.2546 H   0  0  0  0  0  0  0  0  0  0  0  0
   52.5710   24.8338   44.7628 H   0  0  0  0  0  0  0  0  0  0  0  0
   53.9510   23.6838   44.7628 H   0  0  0  0  0  0  0  0  0  0  0  0
   56.4900   26.4120   46.2590 C   0  0  0  0  0  0  0  0  0  0  0  0
   56.0417   27.3780   46.5346 H   0  0  0  0  0  0  0  0  0  0  0  0
   59.1140   29.5010   47.5080 C   0  0  0  0  0  0  0  0  0  0  0  0
   59.8870   29.0600   48.6940 C   0  0  0  0  0  0  0  0  0  0  0  0
   60.7480   30.0850   49.7420 S   0  0  0  0  0  0  0  0  0  0  0  0
   61.2990   28.8050   50.6800 C   0  0  0  0  0  0  0  0  0  0  0  0
   62.1090   28.8410   51.8140 C   0  0  0  0  0  0  0  0  0  0  0  0
   62.4891   29.7947   52.2090 H   0  0  0  0  0  0  0  0  0  0  0  0
   62.4250   27.6220   52.4370 C   0  0  0  0  0  0  0  0  0  0  0  0
   63.0634   27.6147   53.3327 H   0  0  0  0  0  0  0  0  0  0  0  0
   61.9280   26.4080   51.9200 C   0  0  0  0  0  0  0  0  0  0  0  0
   62.1780   25.4597   52.4183 H   0  0  0  0  0  0  0  0  0  0  0  0
   61.1150   26.4000   50.7720 C   0  0  0  0  0  0  0  0  0  0  0  0
   60.7282   25.4543   50.3646 H   0  0  0  0  0  0  0  0  0  0  0  0
   60.8090   27.6180   50.1600 C   0  0  0  0  0  0  0  0  0  0  0  0
   60.0310   27.7580   49.0560 N   0  0  0  0  0  0  0  0  0  0  0  0
   59.5830   26.9540   48.5570 H   0  0  0  0  0  0  0  0  0  0  0  0
   58.9120   30.8750   47.2960 C   0  0  0  0  0  0  0  0  0  0  0  0
   59.3324   31.6022   48.0062 H   0  0  0  0  0  0  0  0  0  0  0  0
   58.1810   31.3300   46.1900 C   0  0  0  0  0  0  0  0  0  0  0  0
   57.9760   32.7410   45.9730 N   0  0  0  0  0  0  0  0  0  0  0  0
   57.8470   33.6150   47.1550 C   0  0  0  0  0  0  0  0  0  0  0  0
   57.4471   33.0091   47.9814 H   0  0  0  0  0  0  0  0  0  0  0  0
   57.1877   34.4402   46.8476 H   0  0  0  0  0  0  0  0  0  0  0  0
   59.1640   34.2840   47.6460 C   0  0  0  0  0  0  0  0  0  0  0  0
   59.7568   33.5072   48.1511 H   0  0  0  0  0  0  0  0  0  0  0  0
   58.8285   35.1173   48.2808 H   0  0  0  0  0  0  0  0  0  0  0  0
   60.0060   34.8940   46.6750 O   0  0  0  0  0  0  0  0  0  0  0  0
   59.3030   35.3240   45.5270 C   0  0  0  0  0  0  0  0  0  0  0  0
   59.7937   36.2169   45.1124 H   0  0  0  0  0  0  0  0  0  0  0  0
   58.2667   35.5643   45.8067 H   0  0  0  0  0  0  0  0  0  0  0  0
   59.2950   34.2090   44.4680 C   0  0  0  0  0  0  0  0  0  0  0  0
   60.2146   33.6149   44.5749 H   0  0  0  0  0  0  0  0  0  0  0  0
   59.2344   34.6883   43.4798 H   0  0  0  0  0  0  0  0  0  0  0  0
   58.0860   33.2730   44.6060 C   0  0  0  0  0  0  0  0  0  0  0  0
   58.1998   32.4345   43.9031 H   0  0  0  0  0  0  0  0  0  0  0  0
   57.1748   33.8471   44.3822 H   0  0  0  0  0  0  0  0  0  0  0  0
  1  2  1  0
  2  3  1  0
  3  4  1  0
  4  5  2  0
  5  6  1  0
  6  7  2  0
  7  8  1  0
  7  9  1  0
  9 10  1  0
  9 11  2  0
 11 12  1  0
 11 13  1  0
 13 14  1  0
 14 15  1  0
 15 16  1  0
 15 17  1  0
 15 18  1  0
 13 19  2  0
 19 20  1  0
  4 21  1  0
 21 22  1  0
 22 23  1  0
 23 24  1  0
 24 25  2  0
 25 26  1  0
 25 27  1  0
 27 28  1  0
 27 29  2  0
 29 30  1  0
 29 31  1  0
 31 32  1  0
 31 33  2  0
 33 34  1  0
 34 35  1  0
 21 36  2  0
 36 37  1  0
 36 38  1  0
 38 39  1  0
 39 40  1  0
 40 41  1  0
 40 42  1  0
 40 43  1  0
 43 44  1  0
 43 45  1  0
 43 46  1  0
 46 47  1  0
 47 48  1  0
 47 49  1  0
 47 50  1  0
 50 51  1  0
 50 52  1  0
 50 53  1  0
 53 54  1  0
 53 55  1  0
 38  2  2  0
 53 39  1  0
 19  6  1  0
 34 22  2  0
 33 24  1  0
M  CHG  2   3  -1  34   1
M  END
>  <UniqueID>  (12) 
9

>  <SMILES>  (12) 
COc1cccc(/N=c2\[n-]cc(N3CCCOCC3)cc2-c2[nH+]c3ccccc3s2)c1

>  <Energy>  (12) 
123.49455070042679

>  <Genealogy>  (12) 
COc1cccc(N=c2[n-]cc(N3CCCOCC3)cc2-c2[nH+]c3ccccc3s2)c1 (protonated)
COc1cccc(/N=c2\[n-]cc(N3CCCOCC3)cc2-c2[nH+]c3ccccc3s2)c1 (cis-trans isomerization)
COc1cccc(/N=c2\[n-]cc(N3CCCOCC3)cc2-c2[nH+]c3ccccc3s2)c1 (3D coordinates assigned)
COc1cccc(/N=c2\[n-]cc(N3CCCOCC3)cc2-c2[nH+]c3ccccc3s2)c1 (nonaromatic ring conformer: 123.49455070042679 kcal/mol)

>  <smiles>  (12) 
COc1cccc(N=c2[nH]cc(N3CCCOCC3)cc2-c2nc3ccccc3s2)c1

>  <score_type>  (12) 
oracle

>  <origin>  (12) 
adg

>  <m_score__min__energy>  (12) 
-5.6500000000000004

>  <m_primary>  (12) 
energy

$$$$
12:0
     RDKit          3D

 48 51  0  0  0  0  0  0  0  0999 V2000
   60.0380   34.2330   48.8400 C   0  0  0  0  0  0  0  0  0  0  0  0
   59.8250   33.1590   47.8180 C   0  0  0  0  0  0  0  0  0  0  0  0
   60.4620   31.9150   47.7170 C   0  0  0  0  0  0  0  0  0  0  0  0
   61.4730   31.3530   48.6990 C   0  0  0  0  0  0  0  0  0  0  0  0
   62.9360   31.8750   48.5330 C   0  0  2  0  0  0  0  0  0  0  0  0
   63.1860   33.2860   49.0760 C   0  0  0  0  0  0  0  0  0  0  0  0
   63.2620   34.1590   47.8500 C   0  0  0  0  0  0  0  0  0  0  0  0
   63.7750   33.2310   46.7660 C   0  0  0  0  0  0  0  0  0  0  0  0
   63.3910   31.8620   47.1280 N   0  0  0  0  0  0  0  0  0  0  0  0
   60.0190   31.2510   46.6080 N   0  0  0  0  0  0  0  0  0  0  0  0
   60.5520   29.9970   46.0520 C   0  0  0  0  0  0  0  0  0  0  0  0
   59.4910   28.9240   46.0410 C   0  0  0  0  0  0  0  0  0  0  0  0
   58.8940   28.5260   44.8320 C   0  0  0  0  0  0  0  0  0  0  0  0
   57.9100   27.5320   44.8220 C   0  0  0  0  0  0  0  0  0  0  0  0
   57.5200   26.9210   46.0180 C   0  0  0  0  0  0  0  0  0  0  0  0
   56.2850   25.6750   46.0040 Cl  0  0  0  0  0  0  0  0  0  0  0  0
   58.1170   27.3020   47.2230 C   0  0  0  0  0  0  0  0  0  0  0  0
   59.1000   28.2960   47.2350 C   0  0  0  0  0  0  0  0  0  0  0  0
   59.0820   32.0490   46.0450 C   0  0  0  0  0  0  0  0  0  0  0  0
   58.3210   31.8140   44.8920 C   0  0  0  0  0  0  0  0  0  0  0  0
   57.4000   32.7980   44.4910 C   0  0  0  0  0  0  0  0  0  0  0  0
   57.2540   33.9860   45.2350 C   0  0  0  0  0  0  0  0  0  0  0  0
   58.0290   34.2030   46.3870 C   0  0  0  0  0  0  0  0  0  0  0  0
   58.9370   33.2100   46.7630 C   0  0  0  0  0  0  0  0  0  0  0  0
   59.9525   33.8018   49.8483 H   0  0  0  0  0  0  0  0  0  0  0  0
   61.0400   34.6683   48.7111 H   0  0  0  0  0  0  0  0  0  0  0  0
   59.2780   35.0177   48.7111 H   0  0  0  0  0  0  0  0  0  0  0  0
   61.1360   31.6073   49.7147 H   0  0  0  0  0  0  0  0  0  0  0  0
   61.5148   30.2715   48.5026 H   0  0  0  0  0  0  0  0  0  0  0  0
   63.5114   31.1604   49.1399 H   0  0  0  0  0  0  0  0  0  0  0  0
   62.3585   33.6033   49.7276 H   0  0  0  0  0  0  0  0  0  0  0  0
   64.1006   33.3421   49.6846 H   0  0  0  0  0  0  0  0  0  0  0  0
   62.2686   34.5528   47.5889 H   0  0  0  0  0  0  0  0  0  0  0  0
   63.9096   35.0361   47.9959 H   0  0  0  0  0  0  0  0  0  0  0  0
   63.3267   33.5019   45.7987 H   0  0  0  0  0  0  0  0  0  0  0  0
   64.8684   33.3122   46.6768 H   0  0  0  0  0  0  0  0  0  0  0  0
   64.2230   31.2330   47.0310 H   0  0  0  0  0  0  0  0  0  0  0  0
   62.6600   31.5130   46.4710 H   0  0  0  0  0  0  0  0  0  0  0  0
   60.8952   30.1758   45.0223 H   0  0  0  0  0  0  0  0  0  0  0  0
   61.3893   29.6595   46.6806 H   0  0  0  0  0  0  0  0  0  0  0  0
   59.2026   28.9992   43.8882 H   0  0  0  0  0  0  0  0  0  0  0  0
   57.4426   27.2307   43.8729 H   0  0  0  0  0  0  0  0  0  0  0  0
   57.8129   26.8190   48.1633 H   0  0  0  0  0  0  0  0  0  0  0  0
   59.5702   28.5881   48.1855 H   0  0  0  0  0  0  0  0  0  0  0  0
   58.4409   30.8846   44.3160 H   0  0  0  0  0  0  0  0  0  0  0  0
   56.7891   32.6394   43.5901 H   0  0  0  0  0  0  0  0  0  0  0  0
   56.5292   34.7478   44.9121 H   0  0  0  0  0  0  0  0  0  0  0  0
   57.9239   35.1267   46.9749 H   0  0  0  0  0  0  0  0  0  0  0  0
  1  2  1  0
  2  3  2  0
  3  4  1  0
  4  5  1  0
  5  6  1  0
  6  7  1  0
  7  8  1  0
  8  9  1  0
  3 10  1  0
 10 11  1  0
 11 12  1  0
 12 13  2  0
 13 14  1  0
 14 15  2  0
 15 16  1  0
 15 17  1  0
 17 18  2  0
 10 19  1  0
 19 20  2  0
 20 21  1  0
 21 22  2  0
 22 23  1  0
 23 24  2  0
 24  2  1  0
  9  5  1  0
 18 12  1  0
 24 19  1  0
  1 25  1  0
  1 26  1  0
  1 27  1  0
  4 28  1  0
  4 29  1  0
  5 30  1  1
  6 31  1  0
  6 32  1  0
  7 33  1  0
  7 34  1  0
  8 35  1  0
  8 36  1  0
  9 37  1  0
  9 38  1  0
 11 39  1  0
 11 40  1  0
 13 41  1  0
 14 42  1  0
 17 43  1  0
 18 44  1  0
 20 45  1  0
 21 46  1  0
 22 47  1  0
 23 48  1  0
M  CHG  1   9   1
M  END
>  <UniqueID>  (13) 
10

>  <SMILES>  (13) 
Cc1c(C[C@@H]2CCC[NH2+]2)n(Cc2ccc(Cl)cc2)c2ccccc12

>  <Energy>  (13) 
88.23127584299658

>  <Genealogy>  (13) 
Cc1c(CC2CCC[NH2+]2)n(Cc2ccc(Cl)cc2)c2ccccc12 (protonated)
Cc1c(C[C@@H]2CCC[NH2+]2)n(Cc2ccc(Cl)cc2)c2ccccc12 (chirality)
Cc1c(C[C@@H]2CCC[NH2+]2)n(Cc2ccc(Cl)cc2)c2ccccc12 (3D coordinates assigned)
Cc1c(C[C@@H]2CCC[NH2+]2)n(Cc2ccc(Cl)cc2)c2ccccc12 (nonaromatic ring conformer: 88.23127584299658 kcal/mol)

>  <smiles>  (13) 
Cc1c(CC2CCCN2)n(Cc2ccc(Cl)cc2)c2ccccc12

>  <score_type>  (13) 
oracle

>  <origin>  (13) 
adg

>  <m_score__min__energy>  (13) 
-6.9900000000000002

>  <m_primary>  (13) 
energy

$$$$
13:0
     RDKit          3D

 65 70  0  0  0  0  0  0  0  0999 V2000
   68.0790   33.3060   51.3360 C   0  0  0  0  0  0  0  0  0  0  0  0
   66.7550   32.9640   51.7320 O   0  0  0  0  0  0  0  0  0  0  0  0
   65.5770   33.2290   51.0020 C   0  0  0  0  0  0  0  0  0  0  0  0
   65.4360   32.5830   49.7680 C   0  0  0  0  0  0  0  0  0  0  0  0
   64.3080   32.7880   48.9740 C   0  0  0  0  0  0  0  0  0  0  0  0
   63.2810   33.6370   49.4060 C   0  0  0  0  0  0  0  0  0  0  0  0
   62.0860   33.8700   48.5600 C   0  0  0  0  0  0  0  0  0  0  0  0
   60.8550   34.2120   49.1460 C   0  0  0  0  0  0  0  0  0  0  0  0
   59.7380   34.4690   48.3470 C   0  0  0  0  0  0  0  0  0  0  0  0
   59.8380   34.4220   46.9540 C   0  0  0  0  0  0  0  0  0  0  0  0
   58.6740   34.7160   46.1680 N   0  0  0  0  0  0  0  0  0  0  0  0
   57.7250   33.7600   45.6790 C   0  0  0  0  0  0  0  0  0  0  0  0
   56.6200   34.1360   45.2040 O   0  0  0  0  0  0  0  0  0  0  0  0
   58.0360   32.3320   45.7750 C   0  0  0  0  0  0  0  0  0  0  0  0
   57.8050   31.3790   44.7870 C   0  0  0  0  0  0  0  0  0  0  0  0
   58.2630   30.2010   45.3410 C   0  0  0  0  0  0  0  0  0  0  0  0
   58.3110   28.9070   44.8360 C   0  0  0  0  0  0  0  0  0  0  0  0
   57.8570   28.6810   43.6800 O   0  0  0  0  0  0  0  0  0  0  0  0
   58.8590   27.8960   45.6080 N   0  0  0  0  0  0  0  0  0  0  0  0
   58.9630   26.5370   45.0250 C   0  0  0  0  0  0  0  0  0  0  0  0
   57.6570   25.7930   45.1580 C   0  0  0  0  0  0  0  0  0  0  0  0
   56.5700   26.3610   45.8490 C   0  0  0  0  0  0  0  0  0  0  0  0
   55.3740   25.6490   45.9890 C   0  0  0  0  0  0  0  0  0  0  0  0
   55.2400   24.3800   45.4160 C   0  0  0  0  0  0  0  0  0  0  0  0
   56.3050   23.8190   44.7050 C   0  0  0  0  0  0  0  0  0  0  0  0
   57.5070   24.5220   44.5760 C   0  0  0  0  0  0  0  0  0  0  0  0
   59.3420   28.1830   46.8870 C   0  0  0  0  0  0  0  0  0  0  0  0
   59.9010   27.1910   47.7310 C   0  0  0  0  0  0  0  0  0  0  0  0
   60.3780   27.5150   49.0040 C   0  0  0  0  0  0  0  0  0  0  0  0
   60.3140   28.8270   49.4710 C   0  0  0  0  0  0  0  0  0  0  0  0
   59.7690   29.8280   48.6730 C   0  0  0  0  0  0  0  0  0  0  0  0
   59.2820   29.5180   47.3960 C   0  0  0  0  0  0  0  0  0  0  0  0
   58.7330   30.4960   46.5810 C   0  0  0  0  0  0  0  0  0  0  0  0
   58.5890   31.7760   46.8360 O   0  0  0  0  0  0  0  0  0  0  0  0
   61.0560   34.0480   46.3630 C   0  0  0  0  0  0  0  0  0  0  0  0
   62.1720   33.7740   47.1600 C   0  0  0  0  0  0  0  0  0  0  0  0
   63.4040   34.2770   50.6480 C   0  0  0  0  0  0  0  0  0  0  0  0
   64.5430   34.0890   51.4550 C   0  0  0  0  0  0  0  0  0  0  0  0
   64.6630   34.7390   52.6920 O   0  0  0  0  0  0  0  0  0  0  0  0
   64.0610   34.3050   53.9100 C   0  0  0  0  0  0  0  0  0  0  0  0
   68.6993   33.4662   52.2302 H   0  0  0  0  0  0  0  0  0  0  0  0
   68.5050   32.4884   50.7359 H   0  0  0  0  0  0  0  0  0  0  0  0
   68.0557   34.2276   50.7359 H   0  0  0  0  0  0  0  0  0  0  0  0
   66.2273   31.9031   49.4193 H   0  0  0  0  0  0  0  0  0  0  0  0
   64.2242   32.2797   48.0021 H   0  0  0  0  0  0  0  0  0  0  0  0
   60.7705   34.2777   50.2408 H   0  0  0  0  0  0  0  0  0  0  0  0
   58.7734   34.7099   48.8177 H   0  0  0  0  0  0  0  0  0  0  0  0
   57.3595   31.5302   43.7927 H   0  0  0  0  0  0  0  0  0  0  0  0
   59.2228   26.6211   43.9594 H   0  0  0  0  0  0  0  0  0  0  0  0
   59.7415   25.9804   45.5673 H   0  0  0  0  0  0  0  0  0  0  0  0
   56.6614   27.3687   46.2806 H   0  0  0  0  0  0  0  0  0  0  0  0
   54.5367   26.0882   46.5512 H   0  0  0  0  0  0  0  0  0  0  0  0
   54.2972   23.8238   45.5248 H   0  0  0  0  0  0  0  0  0  0  0  0
   56.1975   22.8247   44.2471 H   0  0  0  0  0  0  0  0  0  0  0  0
   58.3418   24.0770   44.0147 H   0  0  0  0  0  0  0  0  0  0  0  0
   59.9603   26.1506   47.3788 H   0  0  0  0  0  0  0  0  0  0  0  0
   60.8072   26.7288   49.6424 H   0  0  0  0  0  0  0  0  0  0  0  0
   60.6955   29.0715   50.4733 H   0  0  0  0  0  0  0  0  0  0  0  0
   59.7204   30.8623   49.0443 H   0  0  0  0  0  0  0  0  0  0  0  0
   61.1324   33.9703   45.2684 H   0  0  0  0  0  0  0  0  0  0  0  0
   63.1222   33.4818   46.6890 H   0  0  0  0  0  0  0  0  0  0  0  0
   62.5968   34.9373   50.9979 H   0  0  0  0  0  0  0  0  0  0  0  0
   64.6247   34.7114   54.7627 H   0  0  0  0  0  0  0  0  0  0  0  0
   63.0218   34.6630   53.9533 H   0  0  0  0  0  0  0  0  0  0  0  0
   64.0723   33.2059   53.9533 H   0  0  0  0  0  0  0  0  0  0  0  0
  1  2  1  0
  2  3  1  0
  3  4  2  0
  4  5  1  0
  5  6  2  0
  6  7  1  0
  7  8  2  0
  8  9  1  0
  9 10  2  0
 10 11  1  0
 11 12  1  0
 12 13  2  0
 12 14  1  0
 14 15  2  0
 15 16  1  0
 16 17  1  0
 17 18  2  0
 17 19  1  0
 19 20  1  0
 20 21  1  0
 21 22  2  0
 22 23  1  0
 23 24  2  0
 24 25  1  0
 25 26  2  0
 19 27  1  0
 27 28  2  0
 28 29  1  0
 29 30  2  0
 30 31  1  0
 31 32  2  0
 32 33  1  0
 33 34  1  0
 10 35  1  0
 35 36  2  0
  6 37  1  0
 37 38  2  0
 38 39  1  0
 39 40  1  0
 38  3  1  0
 36  7  1  0
 34 14  1  0
 33 16  2  0
 26 21  1  0
 32 27  1  0
  1 41  1  0
  1 42  1  0
  1 43  1  0
  4 44  1  0
  5 45  1  0
  8 46  1  0
  9 47  1  0
 15 48  1  0
 20 49  1  0
 20 50  1  0
 22 51  1  0
 23 52  1  0
 24 53  1  0
 25 54  1  0
 26 55  1  0
 28 56  1  0
 29 57  1  0
 30 58  1  0
 31 59  1  0
 35 60  1  0
 36 61  1  0
 37 62  1  0
 40 63  1  0
 40 64  1  0
 40 65  1  0
M  CHG  1  11  -1
M  END
>  <UniqueID>  (14) 
11

>  <SMILES>  (14) 
COc1ccc(-c2ccc([N-]C(=O)c3cc4c(=O)n(Cc5ccccc5)c5ccccc5c4o3)cc2)cc1OC

>  <Energy>  (14) 
128.25010338977472

>  <Genealogy>  (14) 
COc1ccc(-c2ccc([N-]C(=O)c3cc4c(=O)n(Cc5ccccc5)c5ccccc5c4o3)cc2)cc1OC (protonated)
COc1ccc(-c2ccc([N-]C(=O)c3cc4c(=O)n(Cc5ccccc5)c5ccccc5c4o3)cc2)cc1OC (3D coordinates assigned)
COc1ccc(-c2ccc([N-]C(=O)c3cc4c(=O)n(Cc5ccccc5)c5ccccc5c4o3)cc2)cc1OC (optimized conformer: 128.25010338977472 kcal/mol)

>  <smiles>  (14) 
COc1ccc(-c2ccc(NC(=O)c3cc4c(=O)n(Cc5ccccc5)c5ccccc5c4o3)cc2)cc1OC

>  <score_type>  (14) 
oracle

>  <origin>  (14) 
adg

>  <m_score__min__energy>  (14) 
-10.789999999999999

>  <m_primary>  (14) 
energy

$$$$
14:0
     RDKit          3D

 43 45  0  0  0  0  0  0  0  0999 V2000
   57.7219   27.4544   43.3752 H   0  0  0  0  0  0  0  0  0  0  0  0
   57.5810   28.4730   43.7660 C   0  0  0  0  0  0  0  0  0  0  0  0
   58.2740   28.8860   44.9080 C   0  0  0  0  0  0  0  0  0  0  0  0
   58.9544   28.1895   45.4197 H   0  0  0  0  0  0  0  0  0  0  0  0
   58.1030   30.1830   45.4000 C   0  0  0  0  0  0  0  0  0  0  0  0
   58.6343   30.4978   46.3103 H   0  0  0  0  0  0  0  0  0  0  0  0
   57.2580   31.0840   44.7390 C   0  0  0  0  0  0  0  0  0  0  0  0
   57.0550   32.3910   45.2970 N   0  0  0  0  0  0  0  0  0  0  0  0
   57.9670   33.2210   45.7170 C   0  0  0  0  0  0  0  0  0  0  0  0
   58.6060   32.9450   46.8850 N   0  0  0  0  0  0  0  0  0  0  0  0
   59.5720   33.7590   47.3850 C   0  0  0  0  0  0  0  0  0  0  0  0
   60.2300   33.4200   48.6240 N   0  0  0  0  0  0  0  0  0  0  0  0
   61.6470   33.6400   48.7980 C   0  0  0  0  0  0  0  0  0  0  0  0
   62.0460   34.5960   49.5190 O   0  0  0  0  0  0  0  0  0  0  0  0
   62.6720   32.7490   48.1600 C   0  0  0  0  0  0  0  0  0  0  0  0
   63.4692   32.5334   48.8866 H   0  0  0  0  0  0  0  0  0  0  0  0
   62.1884   31.8124   47.8453 H   0  0  0  0  0  0  0  0  0  0  0  0
   63.3760   33.5480   46.7340 Cl  0  0  0  0  0  0  0  0  0  0  0  0
   59.4660   32.8820   49.7230 C   0  0  0  0  0  0  0  0  0  0  0  0
   59.2800   33.6520   50.8820 C   0  0  0  0  0  0  0  0  0  0  0  0
   59.7065   34.6644   50.9388 H   0  0  0  0  0  0  0  0  0  0  0  0
   58.5580   33.1430   51.9630 C   0  0  0  0  0  0  0  0  0  0  0  0
   58.4190   33.7535   52.8674 H   0  0  0  0  0  0  0  0  0  0  0  0
   58.0120   31.8590   51.8970 C   0  0  0  0  0  0  0  0  0  0  0  0
   57.1090   31.2220   53.2590 Cl  0  0  0  0  0  0  0  0  0  0  0  0
   58.1850   31.0830   50.7470 C   0  0  0  0  0  0  0  0  0  0  0  0
   57.7544   30.0719   50.6996 H   0  0  0  0  0  0  0  0  0  0  0  0
   58.9080   31.5890   49.6480 C   0  0  0  0  0  0  0  0  0  0  0  0
   59.0800   30.8440   48.4700 O   0  0  0  0  0  0  0  0  0  0  0  0
   60.2360   30.0730   48.1620 C   0  0  0  0  0  0  0  0  0  0  0  0
   60.7205   29.7498   49.0952 H   0  0  0  0  0  0  0  0  0  0  0  0
   59.9421   29.1894   47.5764 H   0  0  0  0  0  0  0  0  0  0  0  0
   60.9388   30.6838   47.5764 H   0  0  0  0  0  0  0  0  0  0  0  0
   59.9300   34.9090   46.6720 C   0  0  0  0  0  0  0  0  0  0  0  0
   60.7035   35.5898   47.0570 H   0  0  0  0  0  0  0  0  0  0  0  0
   59.2870   35.1740   45.4650 C   0  0  0  0  0  0  0  0  0  0  0  0
   59.5581   36.0681   44.8845 H   0  0  0  0  0  0  0  0  0  0  0  0
   58.3260   34.3320   45.0020 N   0  0  0  0  0  0  0  0  0  0  0  0
   57.9050   34.5460   44.0720 H   0  0  0  0  0  0  0  0  0  0  0  0
   56.5370   30.6540   43.6110 C   0  0  0  0  0  0  0  0  0  0  0  0
   55.8364   31.3403   43.1129 H   0  0  0  0  0  0  0  0  0  0  0  0
   56.7090   29.3550   43.1210 C   0  0  0  0  0  0  0  0  0  0  0  0
   56.1576   29.0273   42.2274 H   0  0  0  0  0  0  0  0  0  0  0  0
  1  2  1  0
  2  3  2  0
  3  4  1  0
  3  5  1  0
  5  6  1  0
  5  7  2  0
  7  8  1  0
  8  9  2  0
  9 10  1  0
 10 11  2  0
 11 12  1  0
 12 13  1  0
 13 14  2  0
 13 15  1  0
 15 16  1  0
 15 17  1  0
 15 18  1  0
 12 19  1  0
 19 20  2  0
 20 21  1  0
 20 22  1  0
 22 23  1  0
 22 24  2  0
 24 25  1  0
 24 26  1  0
 26 27  1  0
 26 28  2  0
 28 29  1  0
 29 30  1  0
 30 31  1  0
 30 32  1  0
 30 33  1  0
 11 34  1  0
 34 35  1  0
 34 36  2  0
 36 37  1  0
 36 38  1  0
 38 39  1  0
  7 40  1  0
 40 41  1  0
 40 42  2  0
 42 43  1  0
 42  2  1  0
 38  9  1  0
 28 19  1  0
M  END
>  <UniqueID>  (15) 
12

>  <SMILES>  (15) 
COc1cc(Cl)ccc1N(C(=O)CCl)c1cc[nH]/c(=N\c2ccccc2)n1

>  <Energy>  (15) 
63.288483607538886

>  <Genealogy>  (15) 
COc1cc(Cl)ccc1N(C(=O)CCl)c1cc[nH]/c(=N\c2ccccc2)n1 (cis-trans isomerization)
COc1cc(Cl)ccc1N(C(=O)CCl)c1cc[nH]/c(=N\c2ccccc2)n1 (3D coordinates assigned)
COc1cc(Cl)ccc1N(C(=O)CCl)c1cc[nH]/c(=N\c2ccccc2)n1 (optimized conformer: 63.288483607538886 kcal/mol)

>  <smiles>  (15) 
COc1cc(Cl)ccc1N(C(=O)CCl)c1cc[nH]c(=Nc2ccccc2)n1

>  <score_type>  (15) 
oracle

>  <origin>  (15) 
adg

>  <m_score__min__energy>  (15) 
-7.8700000000000001

>  <m_primary>  (15) 
energy

$$$$
15:0
     RDKit          3D

 41 43  0  0  0  0  0  0  0  0999 V2000
   54.7840   24.2680   45.1030 C   0  0  0  0  0  0  0  0  0  0  0  0
   55.1310   25.3270   45.9910 O   0  0  0  0  0  0  0  0  0  0  0  0
   56.3090   26.0880   45.9040 C   0  0  0  0  0  0  0  0  0  0  0  0
   56.2790   27.4760   45.6900 C   0  0  0  0  0  0  0  0  0  0  0  0
   57.4650   28.2130   45.6170 C   0  0  0  0  0  0  0  0  0  0  0  0
   57.4330   29.6330   45.3850 N   0  0  0  0  0  0  0  0  0  0  0  0
   58.2240   30.5460   45.9760 C   0  0  0  0  0  0  0  0  0  0  0  0
   57.8760   31.7970   45.4960 C   0  0  0  0  0  0  0  0  0  0  0  0
   58.4830   33.0990   45.8650 C   0  0  0  0  0  0  0  0  0  0  0  0
   58.8050   33.3670   47.2080 C   0  0  0  0  0  0  0  0  0  0  0  0
   59.3780   34.5880   47.5730 C   0  0  0  0  0  0  0  0  0  0  0  0
   59.6370   35.5570   46.6020 C   0  0  0  0  0  0  0  0  0  0  0  0
   59.3240   35.3060   45.2640 C   0  0  0  0  0  0  0  0  0  0  0  0
   58.7500   34.0850   44.8940 C   0  0  0  0  0  0  0  0  0  0  0  0
   56.8590   31.6700   44.6150 N   0  0  0  0  0  0  0  0  0  0  0  0
   56.6190   30.3440   44.5700 C   0  0  0  0  0  0  0  0  0  0  0  0
   55.3830   29.7100   43.7000 S   0  0  0  0  0  0  0  0  0  0  0  0
   58.6920   27.5500   45.7320 C   0  0  0  0  0  0  0  0  0  0  0  0
   58.7490   26.1590   45.9450 C   0  0  0  0  0  0  0  0  0  0  0  0
   59.9830   25.5010   46.0680 O   0  0  0  0  0  0  0  0  0  0  0  0
   61.2220   26.1340   46.3720 C   0  0  0  0  0  0  0  0  0  0  0  0
   57.5390   25.4220   46.0350 C   0  0  0  0  0  0  0  0  0  0  0  0
   57.4850   24.0320   46.2520 O   0  0  0  0  0  0  0  0  0  0  0  0
   58.0320   23.0200   45.4140 C   0  0  0  0  0  0  0  0  0  0  0  0
   54.4935   23.3813   45.6856 H   0  0  0  0  0  0  0  0  0  0  0  0
   53.9418   24.5822   44.4690 H   0  0  0  0  0  0  0  0  0  0  0  0
   55.6488   24.0229   44.4690 H   0  0  0  0  0  0  0  0  0  0  0  0
   55.3121   27.9886   45.5787 H   0  0  0  0  0  0  0  0  0  0  0  0
   59.0120   30.3350   46.7139 H   0  0  0  0  0  0  0  0  0  0  0  0
   58.6037   32.6079   47.9783 H   0  0  0  0  0  0  0  0  0  0  0  0
   59.6252   34.7859   48.6264 H   0  0  0  0  0  0  0  0  0  0  0  0
   60.0875   36.5181   46.8905 H   0  0  0  0  0  0  0  0  0  0  0  0
   59.5293   36.0700   44.4997 H   0  0  0  0  0  0  0  0  0  0  0  0
   58.5056   33.8933   43.8388 H   0  0  0  0  0  0  0  0  0  0  0  0
   59.6269   28.1245   45.6548 H   0  0  0  0  0  0  0  0  0  0  0  0
   61.3439   26.1963   47.4635 H   0  0  0  0  0  0  0  0  0  0  0  0
   62.0482   25.5475   45.9437 H   0  0  0  0  0  0  0  0  0  0  0  0
   61.2309   27.1471   45.9437 H   0  0  0  0  0  0  0  0  0  0  0  0
   58.4633   22.2221   46.0364 H   0  0  0  0  0  0  0  0  0  0  0  0
   57.2376   22.6008   44.7790 H   0  0  0  0  0  0  0  0  0  0  0  0
   58.8179   23.4549   44.7790 H   0  0  0  0  0  0  0  0  0  0  0  0
  1  2  1  0
  2  3  1  0
  3  4  2  0
  4  5  1  0
  5  6  1  0
  6  7  1  0
  7  8  2  0
  8  9  1  0
  9 10  2  0
 10 11  1  0
 11 12  2  0
 12 13  1  0
 13 14  2  0
  8 15  1  0
 15 16  1  0
 16 17  2  0
  5 18  2  0
 18 19  1  0
 19 20  1  0
 20 21  1  0
 19 22  2  0
 22 23  1  0
 23 24  1  0
 22  3  1  0
 16  6  1  0
 14  9  1  0
  1 25  1  0
  1 26  1  0
  1 27  1  0
  4 28  1  0
  7 29  1  0
 10 30  1  0
 11 31  1  0
 12 32  1  0
 13 33  1  0
 14 34  1  0
 18 35  1  0
 21 36  1  0
 21 37  1  0
 21 38  1  0
 24 39  1  0
 24 40  1  0
 24 41  1  0
M  CHG  1  15  -1
M  END
>  <UniqueID>  (16) 
13

>  <SMILES>  (16) 
COc1cc(-n2cc(-c3ccccc3)[n-]c2=S)cc(OC)c1OC

>  <Energy>  (16) 
82.4426627927374

>  <Genealogy>  (16) 
COc1cc(-n2cc(-c3ccccc3)[n-]c2=S)cc(OC)c1OC (protonated)
COc1cc(-n2cc(-c3ccccc3)[n-]c2=S)cc(OC)c1OC (3D coordinates assigned)
COc1cc(-n2cc(-c3ccccc3)[n-]c2=S)cc(OC)c1OC (optimized conformer: 82.4426627927374 kcal/mol)

>  <smiles>  (16) 
COc1cc(-n2cc(-c3ccccc3)[nH]c2=S)cc(OC)c1OC

>  <score_type>  (16) 
oracle

>  <origin>  (16) 
adg

>  <m_score__min__energy>  (16) 
-8.3499999999999996

>  <m_primary>  (16) 
energy

$$$$
16:0
     RDKit          3D

 43 46  0  0  0  0  0  0  0  0999 V2000
   60.9480   27.5180   54.1230 C   0  0  0  0  0  0  0  0  0  0  0  0
   60.9130   27.7020   52.6340 C   0  0  0  0  0  0  0  0  0  0  0  0
   60.5180   28.9280   52.0780 C   0  0  0  0  0  0  0  0  0  0  0  0
   60.4540   29.0840   50.6910 C   0  0  0  0  0  0  0  0  0  0  0  0
   60.7540   28.0120   49.8390 C   0  0  0  0  0  0  0  0  0  0  0  0
   60.6980   28.2060   48.4150 N   0  0  0  0  0  0  0  0  0  0  0  0
   60.3000   27.1920   47.4790 C   0  0  0  0  0  0  0  0  0  0  0  0
   59.7970   26.1070   47.8810 O   0  0  0  0  0  0  0  0  0  0  0  0
   60.3930   27.4510   46.0050 C   0  0  0  0  0  0  0  0  0  0  0  0
   59.2300   28.2290   45.5530 N   0  0  0  0  0  0  0  0  0  0  0  0
   58.1580   27.5610   44.9940 C   0  0  0  0  0  0  0  0  0  0  0  0
   57.0340   28.2330   44.6080 N   0  0  0  0  0  0  0  0  0  0  0  0
   57.0000   29.5730   44.7740 C   0  0  0  0  0  0  0  0  0  0  0  0
   56.0060   30.3770   44.4990 O   0  0  0  0  0  0  0  0  0  0  0  0
   56.3290   31.6040   44.8150 N   0  0  0  0  0  0  0  0  0  0  0  0
   57.5930   31.5820   45.3100 C   0  0  0  0  0  0  0  0  0  0  0  0
   58.3130   32.7900   45.7550 C   0  0  0  0  0  0  0  0  0  0  0  0
   58.6350   33.8150   44.8480 C   0  0  0  0  0  0  0  0  0  0  0  0
   59.2950   34.9650   45.2900 C   0  0  0  0  0  0  0  0  0  0  0  0
   59.6250   35.1080   46.6400 C   0  0  0  0  0  0  0  0  0  0  0  0
   59.2880   34.1050   47.5520 C   0  0  0  0  0  0  0  0  0  0  0  0
   58.6260   32.9530   47.1150 C   0  0  0  0  0  0  0  0  0  0  0  0
   58.0380   30.2700   45.2960 C   0  0  0  0  0  0  0  0  0  0  0  0
   59.1760   29.5940   45.7320 C   0  0  0  0  0  0  0  0  0  0  0  0
   60.1160   30.2150   46.2970 O   0  0  0  0  0  0  0  0  0  0  0  0
   61.1540   26.7850   50.3980 C   0  0  0  0  0  0  0  0  0  0  0  0
   61.2210   26.6290   51.7860 C   0  0  0  0  0  0  0  0  0  0  0  0
   60.7643   28.4839   54.6162 H   0  0  0  0  0  0  0  0  0  0  0  0
   60.1704   26.7998   54.4221 H   0  0  0  0  0  0  0  0  0  0  0  0
   61.9350   27.1355   54.4221 H   0  0  0  0  0  0  0  0  0  0  0  0
   60.2577   29.7697   52.7366 H   0  0  0  0  0  0  0  0  0  0  0  0
   60.1658   30.0560   50.2641 H   0  0  0  0  0  0  0  0  0  0  0  0
   60.8600   29.1710   48.0490 H   0  0  0  0  0  0  0  0  0  0  0  0
   61.3129   28.0154   45.7924 H   0  0  0  0  0  0  0  0  0  0  0  0
   60.4114   26.4892   45.4715 H   0  0  0  0  0  0  0  0  0  0  0  0
   58.2107   26.4707   44.8577 H   0  0  0  0  0  0  0  0  0  0  0  0
   58.3664   33.7114   43.7863 H   0  0  0  0  0  0  0  0  0  0  0  0
   59.5550   35.7586   44.5740 H   0  0  0  0  0  0  0  0  0  0  0  0
   60.1504   36.0108   46.9849 H   0  0  0  0  0  0  0  0  0  0  0  0
   59.5437   34.2214   48.6155 H   0  0  0  0  0  0  0  0  0  0  0  0
   58.3495   32.1719   47.8385 H   0  0  0  0  0  0  0  0  0  0  0  0
   61.4156   25.9434   49.7397 H   0  0  0  0  0  0  0  0  0  0  0  0
   61.5167   25.6600   52.2144 H   0  0  0  0  0  0  0  0  0  0  0  0
  1  2  1  0
  2  3  2  0
  3  4  1  0
  4  5  2  0
  5  6  1  0
  6  7  1  0
  7  8  2  0
  7  9  1  0
  9 10  1  0
 10 11  1  0
 11 12  2  0
 12 13  1  0
 13 14  1  0
 14 15  1  0
 15 16  2  0
 16 17  1  0
 17 18  2  0
 18 19  1  0
 19 20  2  0
 20 21  1  0
 21 22  2  0
 16 23  1  0
 23 24  1  0
 24 25  2  0
  5 26  1  0
 26 27  2  0
 27  2  1  0
 24 10  1  0
 23 13  2  0
 22 17  1  0
  1 28  1  0
  1 29  1  0
  1 30  1  0
  3 31  1  0
  4 32  1  0
  6 33  1  0
  9 34  1  0
  9 35  1  0
 11 36  1  0
 18 37  1  0
 19 38  1  0
 20 39  1  0
 21 40  1  0
 22 41  1  0
 26 42  1  0
 27 43  1  0
M  END
>  <UniqueID>  (17) 
14

>  <SMILES>  (17) 
Cc1ccc(NC(=O)Cn2cnc3onc(-c4ccccc4)c3c2=O)cc1

>  <Energy>  (17) 
98.82778545573001

>  <Genealogy>  (17) 
Cc1ccc(NC(=O)Cn2cnc3onc(-c4ccccc4)c3c2=O)cc1 (3D coordinates assigned)
Cc1ccc(NC(=O)Cn2cnc3onc(-c4ccccc4)c3c2=O)cc1 (optimized conformer: 98.82778545573001 kcal/mol)

>  <smiles>  (17) 
Cc1ccc(NC(=O)Cn2cnc3onc(-c4ccccc4)c3c2=O)cc1

>  <score_type>  (17) 
oracle

>  <origin>  (17) 
adg

>  <m_score__min__energy>  (17) 
-7.7800000000000002

>  <m_primary>  (17) 
energy

$$$$
17:0
     RDKit          3D

 34 36  0  0  0  0  0  0  0  0999 V2000
   57.7630   33.0610   44.6810 Cl  0  0  0  0  0  0  0  0  0  0  0  0
   57.7330   31.3520   45.0640 C   0  0  0  0  0  0  0  0  0  0  0  0
   58.7970   30.7590   45.7450 C   0  0  0  0  0  0  0  0  0  0  0  0
   58.7480   29.4320   46.0290 N   0  0  0  0  0  0  0  0  0  0  0  0
   57.6860   28.6570   45.6680 C   0  0  0  0  0  0  0  0  0  0  0  0
   57.6750   27.2470   45.9950 N   0  0  0  0  0  0  0  0  0  0  0  0
   56.4070   26.4950   45.9940 C   0  0  0  0  0  0  0  0  0  0  0  0
   56.5630   25.1260   46.6570 C   0  0  0  0  0  0  0  0  0  0  0  0
   57.7370   24.4470   46.0980 N   0  0  0  0  0  0  0  0  0  0  0  0
   57.6280   23.1150   45.5600 C   0  0  0  0  0  0  0  0  0  0  0  0
   58.1180   22.8220   44.2780 C   0  0  0  0  0  0  0  0  0  0  0  0
   57.9910   21.5260   43.7710 C   0  0  0  0  0  0  0  0  0  0  0  0
   57.3910   20.5560   44.5120 N   0  0  0  0  0  0  0  0  0  0  0  0
   56.9010   20.8140   45.7550 C   0  0  0  0  0  0  0  0  0  0  0  0
   57.0090   22.0970   46.2990 C   0  0  0  0  0  0  0  0  0  0  0  0
   59.0180   25.1630   46.0100 C   0  0  0  0  0  0  0  0  0  0  0  0
   58.9000   26.6100   46.5100 C   0  0  0  0  0  0  0  0  0  0  0  0
   56.6180   29.2650   44.9810 C   0  0  0  0  0  0  0  0  0  0  0  0
   56.6700   30.5930   44.6970 N   0  0  0  0  0  0  0  0  0  0  0  0
   59.6665   31.3604   46.0486 H   0  0  0  0  0  0  0  0  0  0  0  0
   55.6489   27.0730   46.5429 H   0  0  0  0  0  0  0  0  0  0  0  0
   56.1013   26.3380   44.9490 H   0  0  0  0  0  0  0  0  0  0  0  0
   56.6954   25.2559   47.7413 H   0  0  0  0  0  0  0  0  0  0  0  0
   55.6636   24.5212   46.4691 H   0  0  0  0  0  0  0  0  0  0  0  0
   58.5988   23.6073   43.6762 H   0  0  0  0  0  0  0  0  0  0  0  0
   58.3778   21.2894   42.7688 H   0  0  0  0  0  0  0  0  0  0  0  0
   57.3030   19.5910   44.1190 H   0  0  0  0  0  0  0  0  0  0  0  0
   56.4191   20.0115   46.3327 H   0  0  0  0  0  0  0  0  0  0  0  0
   56.6101   22.3070   47.3024 H   0  0  0  0  0  0  0  0  0  0  0  0
   59.7636   24.6347   46.6224 H   0  0  0  0  0  0  0  0  0  0  0  0
   59.3213   25.1909   44.9530 H   0  0  0  0  0  0  0  0  0  0  0  0
   58.8706   26.6096   47.6096 H   0  0  0  0  0  0  0  0  0  0  0  0
   59.7697   27.1783   46.1487 H   0  0  0  0  0  0  0  0  0  0  0  0
   55.7459   28.6682   44.6757 H   0  0  0  0  0  0  0  0  0  0  0  0
  1  2  1  0
  2  3  2  0
  3  4  1  0
  4  5  2  0
  5  6  1  0
  6  7  1  0
  7  8  1  0
  8  9  1  0
  9 10  1  0
 10 11  2  0
 11 12  1  0
 12 13  2  0
 13 14  1  0
 14 15  2  0
  9 16  1  0
 16 17  1  0
  5 18  1  0
 18 19  2  0
 19  2  1  0
 17  6  1  0
 15 10  1  0
  3 20  1  0
  7 21  1  0
  7 22  1  0
  8 23  1  0
  8 24  1  0
 11 25  1  0
 12 26  1  0
 13 27  1  0
 14 28  1  0
 15 29  1  0
 16 30  1  0
 16 31  1  0
 17 32  1  0
 17 33  1  0
 18 34  1  0
M  CHG  1  13   1
M  END
>  <UniqueID>  (18) 
15

>  <SMILES>  (18) 
Clc1cnc(N2CCN(c3cc[nH+]cc3)CC2)cn1

>  <Energy>  (18) 
44.03173382373449

>  <Genealogy>  (18) 
Clc1cnc(N2CCN(c3cc[nH+]cc3)CC2)cn1 (protonated)
Clc1cnc(N2CCN(c3cc[nH+]cc3)CC2)cn1 (3D coordinates assigned)
Clc1cnc(N2CCN(c3cc[nH+]cc3)CC2)cn1 (nonaromatic ring conformer: 44.03173382373449 kcal/mol)

>  <smiles>  (18) 
Clc1cnc(N2CCN(c3ccncc3)CC2)cn1

>  <score_type>  (18) 
oracle

>  <origin>  (18) 
adg

>  <m_score__min__energy>  (18) 
-4.96

>  <m_primary>  (18) 
energy

$$$$
18:0
     RDKit          3D

 51 53  0  0  0  0  0  0  0  0999 V2000
   57.0540   20.9970   45.4490 C   0  0  0  0  0  0  0  0  0  0  0  0
   57.2500   22.4230   45.0250 C   0  0  0  0  0  0  0  0  0  0  0  0
   57.6200   23.3420   45.9520 N   0  0  0  0  0  0  0  0  0  0  0  0
   57.8070   24.6560   45.6520 C   0  0  0  0  0  0  0  0  0  0  0  0
   58.1400   25.5840   46.7600 C   0  0  0  0  0  0  0  0  0  0  0  0
   57.2350   26.0330   47.5100 O   0  0  0  0  0  0  0  0  0  0  0  0
   59.4780   26.0660   46.9490 N   0  0  0  0  0  0  0  0  0  0  0  0
   59.9070   27.4310   46.8520 C   0  0  0  0  0  0  0  0  0  0  0  0
   59.8720   28.2370   47.9980 C   0  0  0  0  0  0  0  0  0  0  0  0
   60.2950   29.5680   47.9380 C   0  0  0  0  0  0  0  0  0  0  0  0
   60.7710   30.0990   46.7350 C   0  0  0  0  0  0  0  0  0  0  0  0
   61.1810   31.3910   46.6790 F   0  0  0  0  0  0  0  0  0  0  0  0
   60.8340   29.2950   45.5940 C   0  0  0  0  0  0  0  0  0  0  0  0
   60.4120   27.9640   45.6510 C   0  0  0  0  0  0  0  0  0  0  0  0
   57.6180   25.0700   44.3120 C   0  0  0  0  0  0  0  0  0  0  0  0
   57.7700   26.4640   43.8720 C   0  0  0  0  0  0  0  0  0  0  0  0
   58.2770   26.6980   42.7420 O   0  0  0  0  0  0  0  0  0  0  0  0
   57.4600   27.5420   44.7680 N   0  0  0  0  0  0  0  0  0  0  0  0
   57.3130   28.9120   44.3560 C   0  0  0  0  0  0  0  0  0  0  0  0
   56.8060   29.1930   43.0820 C   0  0  0  0  0  0  0  0  0  0  0  0
   56.6730   30.5120   42.6520 C   0  0  0  0  0  0  0  0  0  0  0  0
   57.0610   31.5650   43.4820 C   0  0  0  0  0  0  0  0  0  0  0  0
   57.6010   31.3140   44.7600 C   0  0  0  0  0  0  0  0  0  0  0  0
   58.0230   32.4070   45.6170 N   0  0  0  0  0  0  0  0  0  0  0  0
   58.1690   32.2070   47.0650 C   0  0  0  0  0  0  0  0  0  0  0  0
   58.3140   33.7300   45.0520 C   0  0  0  0  0  0  0  0  0  0  0  0
   57.7270   29.9720   45.1820 C   0  0  0  0  0  0  0  0  0  0  0  0
   57.2280   24.1520   43.3890 N   0  0  0  0  0  0  0  0  0  0  0  0
   57.0400   22.8420   43.6990 C   0  0  0  0  0  0  0  0  0  0  0  0
   56.6130   21.8920   42.6210 C   0  0  0  0  0  0  0  0  0  0  0  0
   57.0460   20.9389   46.5474 H   0  0  0  0  0  0  0  0  0  0  0  0
   56.0964   20.6257   45.0552 H   0  0  0  0  0  0  0  0  0  0  0  0
   57.8759   20.3811   45.0552 H   0  0  0  0  0  0  0  0  0  0  0  0
   59.5099   27.8202   48.9494 H   0  0  0  0  0  0  0  0  0  0  0  0
   60.2534   30.1986   48.8383 H   0  0  0  0  0  0  0  0  0  0  0  0
   61.2162   29.7102   44.6498 H   0  0  0  0  0  0  0  0  0  0  0  0
   60.4747   27.3304   44.7540 H   0  0  0  0  0  0  0  0  0  0  0  0
   57.3970   27.3230   45.7890 H   0  0  0  0  0  0  0  0  0  0  0  0
   56.5109   28.3683   42.4166 H   0  0  0  0  0  0  0  0  0  0  0  0
   56.2606   30.7241   41.6545 H   0  0  0  0  0  0  0  0  0  0  0  0
   56.9442   32.6023   43.1351 H   0  0  0  0  0  0  0  0  0  0  0  0
   57.6027   32.9827   47.6012 H   0  0  0  0  0  0  0  0  0  0  0  0
   57.7814   31.2147   47.3390 H   0  0  0  0  0  0  0  0  0  0  0  0
   59.2322   32.2738   47.3390 H   0  0  0  0  0  0  0  0  0  0  0  0
   58.4725   34.4504   45.8680 H   0  0  0  0  0  0  0  0  0  0  0  0
   59.2210   33.6726   44.4323 H   0  0  0  0  0  0  0  0  0  0  0  0
   57.4666   34.0585   44.4323 H   0  0  0  0  0  0  0  0  0  0  0  0
   58.1552   29.7529   46.1712 H   0  0  0  0  0  0  0  0  0  0  0  0
   56.2028   20.9793   43.0779 H   0  0  0  0  0  0  0  0  0  0  0  0
   55.8422   22.3680   41.9970 H   0  0  0  0  0  0  0  0  0  0  0  0
   57.4806   21.6315   41.9970 H   0  0  0  0  0  0  0  0  0  0  0  0
  1  2  1  0
  2  3  2  0
  3  4  1  0
  4  5  1  0
  5  6  2  0
  5  7  1  0
  7  8  1  0
  8  9  2  0
  9 10  1  0
 10 11  2  0
 11 12  1  0
 11 13  1  0
 13 14  2  0
  4 15  2  0
 15 16  1  0
 16 17  2  0
 16 18  1  0
 18 19  1  0
 19 20  2  0
 20 21  1  0
 21 22  2  0
 22 23  1  0
 23 24  1  0
 24 25  1  0
 24 26  1  0
 23 27  2  0
 15 28  1  0
 28 29  2  0
 29 30  1  0
 29  2  1  0
 14  8  1  0
 27 19  1  0
  1 31  1  0
  1 32  1  0
  1 33  1  0
  9 34  1  0
 10 35  1  0
 13 36  1  0
 14 37  1  0
 18 38  1  0
 20 39  1  0
 21 40  1  0
 22 41  1  0
 25 42  1  0
 25 43  1  0
 25 44  1  0
 26 45  1  0
 26 46  1  0
 26 47  1  0
 27 48  1  0
 30 49  1  0
 30 50  1  0
 30 51  1  0
M  CHG  1   7  -1
M  END
>  <UniqueID>  (19) 
16

>  <SMILES>  (19) 
Cc1nc(C(=O)[N-]c2ccc(F)cc2)c(C(=O)Nc2cccc(N(C)C)c2)nc1C

>  <Energy>  (19) 
72.39977181233003

>  <Genealogy>  (19) 
Cc1nc(C(=O)[N-]c2ccc(F)cc2)c(C(=O)Nc2cccc(N(C)C)c2)nc1C (protonated)
Cc1nc(C(=O)[N-]c2ccc(F)cc2)c(C(=O)Nc2cccc(N(C)C)c2)nc1C (3D coordinates assigned)
Cc1nc(C(=O)[N-]c2ccc(F)cc2)c(C(=O)Nc2cccc(N(C)C)c2)nc1C (optimized conformer: 72.39977181233003 kcal/mol)

>  <smiles>  (19) 
Cc1nc(C(=O)Nc2ccc(F)cc2)c(C(=O)Nc2cccc(N(C)C)c2)nc1C

>  <score_type>  (19) 
oracle

>  <origin>  (19) 
adg

>  <m_score__min__energy>  (19) 
-9.0299999999999994

>  <m_primary>  (19) 
energy

$$$$
19:0
     RDKit          3D

 35 37  0  0  0  0  0  0  0  0999 V2000
   60.8050   29.1370   45.9660 N   0  0  0  0  0  0  0  0  0  0  0  0
   61.1360   30.0910   46.5310 C   0  0  0  0  0  0  0  0  0  0  0  0
   61.5480   31.2790   47.2380 C   0  0  0  0  0  0  0  0  0  0  0  0
   62.8890   31.6820   47.1610 C   0  0  0  0  0  0  0  0  0  0  0  0
   63.3270   32.8080   47.8630 C   0  0  0  0  0  0  0  0  0  0  0  0
   62.4310   33.5340   48.6490 C   0  0  0  0  0  0  0  0  0  0  0  0
   61.0930   33.1400   48.7310 C   0  0  0  0  0  0  0  0  0  0  0  0
   60.6360   32.0230   48.0170 C   0  0  0  0  0  0  0  0  0  0  0  0
   58.9000   31.5460   48.1350 S   0  0  0  0  0  0  0  0  0  0  0  0
   58.4570   32.2910   46.5550 C   0  0  0  0  0  0  0  0  0  0  0  0
   58.4880   33.6880   46.4380 C   0  0  0  0  0  0  0  0  0  0  0  0
   58.1330   34.3060   45.2380 C   0  0  0  0  0  0  0  0  0  0  0  0
   57.7510   33.5340   44.1420 C   0  0  0  0  0  0  0  0  0  0  0  0
   57.7450   32.1410   44.2350 C   0  0  0  0  0  0  0  0  0  0  0  0
   58.1240   31.5000   45.4300 C   0  0  0  0  0  0  0  0  0  0  0  0
   58.1530   30.0610   45.5060 N   0  0  0  0  0  0  0  0  0  0  0  0
   56.9860   29.2330   45.3670 C   0  0  0  0  0  0  0  0  0  0  0  0
   55.9410   29.6970   44.8350 O   0  0  0  0  0  0  0  0  0  0  0  0
   57.0010   27.8260   45.7980 C   0  0  0  0  0  0  0  0  0  0  0  0
   58.1160   27.0700   46.1120 C   0  0  0  0  0  0  0  0  0  0  0  0
   57.6330   25.8280   46.4650 C   0  0  0  0  0  0  0  0  0  0  0  0
   56.2610   25.9020   46.3470 C   0  0  0  0  0  0  0  0  0  0  0  0
   55.9140   27.1030   45.9490 O   0  0  0  0  0  0  0  0  0  0  0  0
   63.5987   31.1096   46.5457 H   0  0  0  0  0  0  0  0  0  0  0  0
   64.3790   33.1225   47.7960 H   0  0  0  0  0  0  0  0  0  0  0  0
   62.7786   34.4175   49.2046 H   0  0  0  0  0  0  0  0  0  0  0  0
   60.3933   33.7099   49.3600 H   0  0  0  0  0  0  0  0  0  0  0  0
   58.7943   34.3013   47.2983 H   0  0  0  0  0  0  0  0  0  0  0  0
   58.1547   35.4028   45.1571 H   0  0  0  0  0  0  0  0  0  0  0  0
   57.4539   34.0230   43.2025 H   0  0  0  0  0  0  0  0  0  0  0  0
   57.4412   31.5384   43.3663 H   0  0  0  0  0  0  0  0  0  0  0  0
   59.0750   29.5790   45.5720 H   0  0  0  0  0  0  0  0  0  0  0  0
   59.1674   27.3922   46.0856 H   0  0  0  0  0  0  0  0  0  0  0  0
   58.2231   24.9540   46.7778 H   0  0  0  0  0  0  0  0  0  0  0  0
   55.5626   25.0780   46.5552 H   0  0  0  0  0  0  0  0  0  0  0  0
  1  2  3  0
  2  3  1  0
  3  4  2  0
  4  5  1  0
  5  6  2  0
  6  7  1  0
  7  8  2  0
  8  9  1  0
  9 10  1  0
 10 11  2  0
 11 12  1  0
 12 13  2  0
 13 14  1  0
 14 15  2  0
 15 16  1  0
 16 17  1  0
 17 18  2  0
 17 19  1  0
 19 20  2  0
 20 21  1  0
 21 22  2  0
 22 23  1  0
  8  3  1  0
 15 10  1  0
 23 19  1  0
  4 24  1  0
  5 25  1  0
  6 26  1  0
  7 27  1  0
 11 28  1  0
 12 29  1  0
 13 30  1  0
 14 31  1  0
 16 32  1  0
 20 33  1  0
 21 34  1  0
 22 35  1  0
M  END
>  <UniqueID>  (20) 
17

>  <SMILES>  (20) 
N#Cc1ccccc1Sc1ccccc1NC(=O)c1ccco1

>  <Energy>  (20) 
64.12145181720517

>  <Genealogy>  (20) 
N#Cc1ccccc1Sc1ccccc1NC(=O)c1ccco1 (3D coordinates assigned)
N#Cc1ccccc1Sc1ccccc1NC(=O)c1ccco1 (optimized conformer: 64.12145181720517 kcal/mol)

>  <smiles>  (20) 
N#Cc1ccccc1Sc1ccccc1NC(=O)c1ccco1

>  <score_type>  (20) 
oracle

>  <origin>  (20) 
adg

>  <m_score__min__energy>  (20) 
-8.1300000000000008

>  <m_primary>  (20) 
energy

$$$$
20:0
     RDKit          3D

 39 41  0  0  0  0  0  0  0  0999 V2000
   56.6920   30.8150   42.5000 C   0  0  0  0  0  0  0  0  0  0  0  0
   57.1440   30.3070   43.8430 C   0  0  0  0  0  0  0  0  0  0  0  0
   56.8420   28.9820   44.2030 C   0  0  0  0  0  0  0  0  0  0  0  0
   57.2920   28.4530   45.4190 C   0  0  0  0  0  0  0  0  0  0  0  0
   56.9050   26.7910   45.8580 S   0  0  0  0  0  0  0  0  0  0  0  0
   55.1960   26.6300   46.0570 N   0  0  0  0  0  0  0  0  0  0  0  0
   57.5960   26.4300   47.1430 O   0  0  0  0  0  0  0  0  0  0  0  0
   57.3730   25.8570   44.7790 O   0  0  0  0  0  0  0  0  0  0  0  0
   58.0380   29.2540   46.2890 C   0  0  0  0  0  0  0  0  0  0  0  0
   58.3270   30.5770   45.9520 C   0  0  0  0  0  0  0  0  0  0  0  0
   57.8600   31.1240   44.7500 C   0  0  0  0  0  0  0  0  0  0  0  0
   58.1700   32.4920   44.4610 N   0  0  0  0  0  0  0  0  0  0  0  0
   57.8710   33.5850   45.3350 C   0  0  0  0  0  0  0  0  0  0  0  0
   56.9250   34.3760   45.0690 O   0  0  0  0  0  0  0  0  0  0  0  0
   58.6540   33.7630   46.5630 C   0  0  0  0  0  0  0  0  0  0  0  0
   59.8200   34.4900   46.6860 C   0  0  0  0  0  0  0  0  0  0  0  0
   60.1950   34.3740   48.0080 C   0  0  0  0  0  0  0  0  0  0  0  0
   59.2300   33.5790   48.6110 C   0  0  0  0  0  0  0  0  0  0  0  0
   59.1790   33.1580   50.0310 C   0  0  0  0  0  0  0  0  0  0  0  0
   60.1370   33.5980   50.9650 C   0  0  0  0  0  0  0  0  0  0  0  0
   60.0650   33.1850   52.2980 C   0  0  0  0  0  0  0  0  0  0  0  0
   59.0410   32.3300   52.7150 C   0  0  0  0  0  0  0  0  0  0  0  0
   58.0850   31.8870   51.7970 C   0  0  0  0  0  0  0  0  0  0  0  0
   56.8000   30.8140   52.3210 Cl  0  0  0  0  0  0  0  0  0  0  0  0
   58.1530   32.2980   50.4610 C   0  0  0  0  0  0  0  0  0  0  0  0
   58.3280   33.2340   47.7200 O   0  0  0  0  0  0  0  0  0  0  0  0
   55.9669   31.6300   42.6413 H   0  0  0  0  0  0  0  0  0  0  0  0
   57.5604   31.1901   41.9386 H   0  0  0  0  0  0  0  0  0  0  0  0
   56.2184   29.9961   41.9386 H   0  0  0  0  0  0  0  0  0  0  0  0
   56.2466   28.3549   43.5231 H   0  0  0  0  0  0  0  0  0  0  0  0
   54.7700   26.7060   45.1060 H   0  0  0  0  0  0  0  0  0  0  0  0
   58.3983   28.8399   47.2423 H   0  0  0  0  0  0  0  0  0  0  0  0
   58.9266   31.1955   46.6361 H   0  0  0  0  0  0  0  0  0  0  0  0
   60.3422   35.0467   45.8939 H   0  0  0  0  0  0  0  0  0  0  0  0
   61.0788   34.8205   48.4871 H   0  0  0  0  0  0  0  0  0  0  0  0
   60.9461   34.2703   50.6434 H   0  0  0  0  0  0  0  0  0  0  0  0
   60.8166   33.5339   53.0214 H   0  0  0  0  0  0  0  0  0  0  0  0
   58.9876   32.0061   53.7649 H   0  0  0  0  0  0  0  0  0  0  0  0
   57.3985   31.9458   49.7422 H   0  0  0  0  0  0  0  0  0  0  0  0
  1  2  1  0
  2  3  2  0
  3  4  1  0
  4  5  1  0
  5  6  1  0
  5  7  2  0
  5  8  2  0
  4  9  2  0
  9 10  1  0
 10 11  2  0
 11 12  1  0
 12 13  1  0
 13 14  2  0
 13 15  1  0
 15 16  2  0
 16 17  1  0
 17 18  2  0
 18 19  1  0
 19 20  2  0
 20 21  1  0
 21 22  2  0
 22 23  1  0
 23 24  1  0
 23 25  2  0
 18 26  1  0
 11  2  1  0
 26 15  1  0
 25 19  1  0
  1 27  1  0
  1 28  1  0
  1 29  1  0
  3 30  1  0
  6 31  1  0
  9 32  1  0
 10 33  1  0
 16 34  1  0
 17 35  1  0
 20 36  1  0
 21 37  1  0
 22 38  1  0
 25 39  1  0
M  CHG  2   6  -1  12  -1
M  END
>  <UniqueID>  (21) 
18

>  <SMILES>  (21) 
Cc1cc(S([NH-])(=O)=O)ccc1[N-]C(=O)c1ccc(-c2cccc(Cl)c2)o1

>  <Energy>  (21) 
73.92638343525043

>  <Genealogy>  (21) 
Cc1cc(S([NH-])(=O)=O)ccc1[N-]C(=O)c1ccc(-c2cccc(Cl)c2)o1 (protonated)
Cc1cc(S([NH-])(=O)=O)ccc1[N-]C(=O)c1ccc(-c2cccc(Cl)c2)o1 (3D coordinates assigned)
Cc1cc(S([NH-])(=O)=O)ccc1[N-]C(=O)c1ccc(-c2cccc(Cl)c2)o1 (optimized conformer: 73.92638343525043 kcal/mol)

>  <smiles>  (21) 
Cc1cc(S(N)(=O)=O)ccc1NC(=O)c1ccc(-c2cccc(Cl)c2)o1

>  <score_type>  (21) 
oracle

>  <origin>  (21) 
adg

>  <m_score__min__energy>  (21) 
-12.289999999999999

>  <m_primary>  (21) 
energy

$$$$
21:0
     RDKit          3D

 48 51  0  0  0  0  0  0  0  0999 V2000
   58.3790   29.5280   49.3440 H   0  0  0  0  0  0  0  0  0  0  0  0
   58.5340   30.0210   48.4380 N   0  0  0  0  0  0  0  0  0  0  0  0
   59.6140   30.6800   48.1460 C   0  0  0  0  0  0  0  0  0  0  0  0
   61.1440   29.9710   48.1860 S   0  0  0  0  0  0  0  0  0  0  0  0
   61.8910   31.3800   47.6650 C   0  0  0  0  0  0  0  0  0  0  0  0
   63.2470   31.5920   47.4300 C   0  0  0  0  0  0  0  0  0  0  0  0
   63.9810   30.7897   47.5962 H   0  0  0  0  0  0  0  0  0  0  0  0
   63.6520   32.8550   46.9760 C   0  0  0  0  0  0  0  0  0  0  0  0
   64.7171   33.0523   46.7845 H   0  0  0  0  0  0  0  0  0  0  0  0
   62.7020   33.8720   46.7640 C   0  0  0  0  0  0  0  0  0  0  0  0
   63.0292   34.8591   46.4055 H   0  0  0  0  0  0  0  0  0  0  0  0
   61.3400   33.6350   47.0070 C   0  0  0  0  0  0  0  0  0  0  0  0
   60.5982   34.4290   46.8359 H   0  0  0  0  0  0  0  0  0  0  0  0
   60.9350   32.3730   47.4710 C   0  0  0  0  0  0  0  0  0  0  0  0
   59.6480   31.9910   47.7580 N   0  0  0  0  0  0  0  0  0  0  0  0
   58.4660   32.8630   47.6380 C   0  0  0  0  0  0  0  0  0  0  0  0
   57.8241   32.7266   48.5208 H   0  0  0  0  0  0  0  0  0  0  0  0
   58.8000   33.9089   47.5709 H   0  0  0  0  0  0  0  0  0  0  0  0
   57.6670   32.5130   46.3720 C   0  0  0  0  0  0  0  0  0  0  0  0
   57.8588   31.4615   46.1120 H   0  0  0  0  0  0  0  0  0  0  0  0
   56.6022   32.6857   46.5875 H   0  0  0  0  0  0  0  0  0  0  0  0
   58.0550   33.3990   45.1720 C   0  0  0  0  0  0  0  0  0  0  0  0
   57.2940   34.1851   45.0580 H   0  0  0  0  0  0  0  0  0  0  0  0
   59.0517   33.8142   45.3825 H   0  0  0  0  0  0  0  0  0  0  0  0
   58.1750   32.4730   43.5960 S   0  0  0  0  0  0  0  0  0  0  0  0
   57.4810   30.9490   44.2380 C   0  0  0  0  0  0  0  0  0  0  0  0
   56.1670   30.7690   44.4770 N   0  0  0  0  0  0  0  0  0  0  0  0
   56.0240   29.5280   44.9220 N   0  0  0  0  0  0  0  0  0  0  0  0
   57.2550   28.9800   44.9620 C   0  0  0  0  0  0  0  0  0  0  0  0
   57.5150   27.5880   45.3680 C   0  0  0  0  0  0  0  0  0  0  0  0
   57.3810   27.2510   46.7220 C   0  0  0  0  0  0  0  0  0  0  0  0
   57.1514   28.0341   47.4596 H   0  0  0  0  0  0  0  0  0  0  0  0
   57.5370   25.9280   47.1410 C   0  0  0  0  0  0  0  0  0  0  0  0
   57.4145   25.6693   48.2031 H   0  0  0  0  0  0  0  0  0  0  0  0
   57.8480   24.9350   46.2130 C   0  0  0  0  0  0  0  0  0  0  0  0
   57.9628   23.8918   46.5426 H   0  0  0  0  0  0  0  0  0  0  0  0
   58.0140   25.2630   44.8650 C   0  0  0  0  0  0  0  0  0  0  0  0
   58.2651   24.4752   44.1395 H   0  0  0  0  0  0  0  0  0  0  0  0
   57.8630   26.5910   44.4270 C   0  0  0  0  0  0  0  0  0  0  0  0
   58.0270   26.9020   42.9640 C   0  0  0  0  0  0  0  0  0  0  0  0
   58.5373   27.8697   42.8498 H   0  0  0  0  0  0  0  0  0  0  0  0
   58.6262   26.1129   42.4863 H   0  0  0  0  0  0  0  0  0  0  0  0
   57.0373   26.9508   42.4863 H   0  0  0  0  0  0  0  0  0  0  0  0
   58.1950   29.8460   44.5290 N   0  0  0  0  0  0  0  0  0  0  0  0
   59.6480   29.6840   44.5070 C   0  0  0  0  0  0  0  0  0  0  0  0
   60.0279   29.6416   45.5385 H   0  0  0  0  0  0  0  0  0  0  0  0
   59.9051   28.7516   43.9830 H   0  0  0  0  0  0  0  0  0  0  0  0
   60.1041   30.5369   43.9830 H   0  0  0  0  0  0  0  0  0  0  0  0
  1  2  1  0
  2  3  2  0
  3  4  1  0
  4  5  1  0
  5  6  2  0
  6  7  1  0
  6  8  1  0
  8  9  1  0
  8 10  2  0
 10 11  1  0
 10 12  1  0
 12 13  1  0
 12 14  2  0
 14 15  1  0
 15 16  1  0
 16 17  1  0
 16 18  1  0
 16 19  1  0
 19 20  1  0
 19 21  1  0
 19 22  1  0
 22 23  1  0
 22 24  1  0
 22 25  1  0
 25 26  1  0
 26 27  2  0
 27 28  1  0
 28 29  2  0
 29 30  1  0
 30 31  2  0
 31 32  1  0
 31 33  1  0
 33 34  1  0
 33 35  2  0
 35 36  1  0
 35 37  1  0
 37 38  1  0
 37 39  2  0
 39 40  1  0
 40 41  1  0
 40 42  1  0
 40 43  1  0
 29 44  1  0
 44 45  1  0
 45 46  1  0
 45 47  1  0
 45 48  1  0
 15  3  1  0
 44 26  1  0
 14  5  1  0
 39 30  1  0
M  END
>  <UniqueID>  (22) 
19

>  <SMILES>  (22) 
[H]/N=c1/sc2ccccc2n1CCCSc1nnc(-c2ccccc2C)n1C

>  <Energy>  (22) 
124.80785913440165

>  <Genealogy>  (22) 
[H]/N=c1/sc2ccccc2n1CCCSc1nnc(-c2ccccc2C)n1C (cis-trans isomerization)
[H]/N=c1/sc2ccccc2n1CCCSc1nnc(-c2ccccc2C)n1C (3D coordinates assigned)
[H]/N=c1/sc2ccccc2n1CCCSc1nnc(-c2ccccc2C)n1C (optimized conformer: 124.80785913440165 kcal/mol)

>  <smiles>  (22) 
Cc1ccccc1-c1nnc(SCCCn2c(=N)sc3ccccc32)n1C

>  <score_type>  (22) 
oracle

>  <origin>  (22) 
adg

>  <m_score__min__energy>  (22) 
-9.5199999999999996

>  <m_primary>  (22) 
energy

$$$$
22:0
     RDKit          3D

 33 35  0  0  0  0  0  0  0  0999 V2000
   59.5330   35.3140   46.7240 C   0  0  0  0  0  0  0  0  0  0  0  0
   60.1100   33.9340   46.7540 C   0  0  0  0  0  0  0  0  0  0  0  0
   61.4470   33.7320   47.1060 C   0  0  0  0  0  0  0  0  0  0  0  0
   61.9490   32.4270   47.1220 C   0  0  0  0  0  0  0  0  0  0  0  0
   63.3700   32.1710   47.5270 C   0  0  0  0  0  0  0  0  0  0  0  0
   61.1210   31.3840   46.8290 N   0  0  0  0  0  0  0  0  0  0  0  0
   59.8160   31.5980   46.5020 C   0  0  0  0  0  0  0  0  0  0  0  0
   58.9650   30.4900   46.1660 N   0  0  0  0  0  0  0  0  0  0  0  0
   59.1250   29.2760   46.9840 C   0  0  0  0  0  0  0  0  0  0  0  0
   58.0380   28.2700   46.7550 C   0  0  0  0  0  0  0  0  0  0  0  0
   57.8610   27.3420   47.5870 O   0  0  0  0  0  0  0  0  0  0  0  0
   57.2470   28.3100   45.5700 N   0  0  0  0  0  0  0  0  0  0  0  0
   57.3420   29.3990   44.6560 C   0  0  0  0  0  0  0  0  0  0  0  0
   56.5650   29.3860   43.4920 C   0  0  0  0  0  0  0  0  0  0  0  0
   56.6000   30.4690   42.6140 C   0  0  0  0  0  0  0  0  0  0  0  0
   57.4000   31.5750   42.9030 C   0  0  0  0  0  0  0  0  0  0  0  0
   58.1760   31.5970   44.0650 C   0  0  0  0  0  0  0  0  0  0  0  0
   58.1730   30.4970   44.9500 C   0  0  0  0  0  0  0  0  0  0  0  0
   59.3260   32.8650   46.4580 N   0  0  0  0  0  0  0  0  0  0  0  0
   59.3836   35.6714   47.7535 H   0  0  0  0  0  0  0  0  0  0  0  0
   60.2242   35.9891   46.1982 H   0  0  0  0  0  0  0  0  0  0  0  0
   58.5670   35.2962   46.1982 H   0  0  0  0  0  0  0  0  0  0  0  0
   62.0927   34.5838   47.3657 H   0  0  0  0  0  0  0  0  0  0  0  0
   63.4418   32.1581   48.6246 H   0  0  0  0  0  0  0  0  0  0  0  0
   63.6960   31.1997   47.1268 H   0  0  0  0  0  0  0  0  0  0  0  0
   64.0145   32.9675   47.1268 H   0  0  0  0  0  0  0  0  0  0  0  0
   61.4840   30.4050   46.8630 H   0  0  0  0  0  0  0  0  0  0  0  0
   60.0909   28.8112   46.7369 H   0  0  0  0  0  0  0  0  0  0  0  0
   59.0751   29.5808   48.0397 H   0  0  0  0  0  0  0  0  0  0  0  0
   55.9251   28.5195   43.2691 H   0  0  0  0  0  0  0  0  0  0  0  0
   55.9972   30.4513   41.6941 H   0  0  0  0  0  0  0  0  0  0  0  0
   57.4200   32.4323   42.2140 H   0  0  0  0  0  0  0  0  0  0  0  0
   58.7940   32.4783   44.2919 H   0  0  0  0  0  0  0  0  0  0  0  0
  1  2  1  0
  2  3  2  0
  3  4  1  0
  4  5  1  0
  4  6  2  0
  6  7  1  0
  7  8  1  0
  8  9  1  0
  9 10  1  0
 10 11  2  0
 10 12  1  0
 12 13  1  0
 13 14  2  0
 14 15  1  0
 15 16  2  0
 16 17  1  0
 17 18  2  0
  7 19  2  0
 19  2  1  0
 18  8  1  0
 18 13  1  0
  1 20  1  0
  1 21  1  0
  1 22  1  0
  3 23  1  0
  5 24  1  0
  5 25  1  0
  5 26  1  0
  6 27  1  0
  9 28  1  0
  9 29  1  0
 14 30  1  0
 15 31  1  0
 16 32  1  0
 17 33  1  0
M  CHG  2   6   1  12  -1
M  END
>  <UniqueID>  (23) 
20

>  <SMILES>  (23) 
Cc1cc(C)[nH+]c(N2CC(=O)[N-]c3ccccc32)n1

>  <Energy>  (23) 
42.69228509207281

>  <Genealogy>  (23) 
Cc1cc(C)[nH+]c(N2CC(=O)[N-]c3ccccc32)n1 (protonated)
Cc1cc(C)[nH+]c(N2CC(=O)[N-]c3ccccc32)n1 (3D coordinates assigned)
Cc1cc(C)[nH+]c(N2CC(=O)[N-]c3ccccc32)n1 (nonaromatic ring conformer: 42.69228509207281 kcal/mol)

>  <smiles>  (23) 
Cc1cc(C)nc(N2CC(=O)Nc3ccccc32)n1

>  <score_type>  (23) 
oracle

>  <origin>  (23) 
adg

>  <m_score__min__energy>  (23) 
-7.6399999999999997

>  <m_primary>  (23) 
energy

$$$$
23:0
     RDKit          3D

 44 46  0  0  0  0  0  0  0  0999 V2000
   57.0440   31.1640   43.9460 C   0  0  0  0  0  0  0  0  0  0  0  0
   58.2180   31.2460   44.8270 N   0  0  0  0  0  0  0  0  0  0  0  0
   58.7180   32.5300   45.2650 C   0  0  0  0  0  0  0  0  0  0  0  0
   58.4450   33.7070   44.5380 C   0  0  0  0  0  0  0  0  0  0  0  0
   58.8920   34.9450   44.9990 C   0  0  0  0  0  0  0  0  0  0  0  0
   59.6210   35.0280   46.1820 C   0  0  0  0  0  0  0  0  0  0  0  0
   59.9250   33.8710   46.9010 C   0  0  0  0  0  0  0  0  0  0  0  0
   59.4950   32.6070   46.4420 C   0  0  0  0  0  0  0  0  0  0  0  0
   59.8480   31.3890   47.1430 N   0  0  0  0  0  0  0  0  0  0  0  0
   60.4220   31.4450   48.4590 C   0  0  0  0  0  0  0  0  0  0  0  0
   59.6890   31.2360   49.4620 O   0  0  0  0  0  0  0  0  0  0  0  0
   61.9080   31.6410   48.6240 C   0  0  0  0  0  0  0  0  0  0  0  0
   62.6660   31.6490   47.2780 C   0  0  0  0  0  0  0  0  0  0  0  0
   63.7630   32.6510   47.2460 N   0  0  0  0  0  0  0  0  0  0  0  0
   64.1020   33.0800   48.6150 C   0  0  0  0  0  0  0  0  0  0  0  0
   63.3890   33.8290   46.4420 C   0  0  0  0  0  0  0  0  0  0  0  0
   59.6250   30.1090   46.5050 C   0  0  0  0  0  0  0  0  0  0  0  0
   60.1960   28.9240   47.0170 C   0  0  0  0  0  0  0  0  0  0  0  0
   60.0200   27.7070   46.3590 C   0  0  0  0  0  0  0  0  0  0  0  0
   59.2800   27.6520   45.1790 C   0  0  0  0  0  0  0  0  0  0  0  0
   58.6990   28.8110   44.6630 C   0  0  0  0  0  0  0  0  0  0  0  0
   58.8460   30.0450   45.3290 C   0  0  0  0  0  0  0  0  0  0  0  0
   56.1312   31.1002   44.5565 H   0  0  0  0  0  0  0  0  0  0  0  0
   56.9986   32.0612   43.3111 H   0  0  0  0  0  0  0  0  0  0  0  0
   57.1238   30.2692   43.3111 H   0  0  0  0  0  0  0  0  0  0  0  0
   57.8746   33.6482   43.5993 H   0  0  0  0  0  0  0  0  0  0  0  0
   58.6681   35.8574   44.4268 H   0  0  0  0  0  0  0  0  0  0  0  0
   59.9583   36.0078   46.5510 H   0  0  0  0  0  0  0  0  0  0  0  0
   60.5045   33.9446   47.8331 H   0  0  0  0  0  0  0  0  0  0  0  0
   62.0813   32.6021   49.1302 H   0  0  0  0  0  0  0  0  0  0  0  0
   62.2895   30.7938   49.2129 H   0  0  0  0  0  0  0  0  0  0  0  0
   63.0958   30.6505   47.1098 H   0  0  0  0  0  0  0  0  0  0  0  0
   61.9457   31.9183   46.4915 H   0  0  0  0  0  0  0  0  0  0  0  0
   64.6260   32.2320   46.8260 H   0  0  0  0  0  0  0  0  0  0  0  0
   63.5892   32.4310   49.3402 H   0  0  0  0  0  0  0  0  0  0  0  0
   65.1896   33.0077   48.7632 H   0  0  0  0  0  0  0  0  0  0  0  0
   63.7802   34.1214   48.7632 H   0  0  0  0  0  0  0  0  0  0  0  0
   63.1249   34.6609   47.1114 H   0  0  0  0  0  0  0  0  0  0  0  0
   64.2376   34.1242   45.8074 H   0  0  0  0  0  0  0  0  0  0  0  0
   62.5255   33.5807   45.8074 H   0  0  0  0  0  0  0  0  0  0  0  0
   60.7860   28.9608   47.9447 H   0  0  0  0  0  0  0  0  0  0  0  0
   60.4655   26.7898   46.7715 H   0  0  0  0  0  0  0  0  0  0  0  0
   59.1539   26.6937   44.6539 H   0  0  0  0  0  0  0  0  0  0  0  0
   58.1212   28.7615   43.7283 H   0  0  0  0  0  0  0  0  0  0  0  0
  1  2  1  0
  2  3  1  0
  3  4  2  0
  4  5  1  0
  5  6  2  0
  6  7  1  0
  7  8  2  0
  8  9  1  0
  9 10  1  0
 10 11  2  0
 10 12  1  0
 12 13  1  0
 13 14  1  0
 14 15  1  0
 14 16  1  0
  9 17  1  0
 17 18  2  0
 18 19  1  0
 19 20  2  0
 20 21  1  0
 21 22  2  0
 22  2  1  0
  8  3  1  0
 22 17  1  0
  1 23  1  0
  1 24  1  0
  1 25  1  0
  4 26  1  0
  5 27  1  0
  6 28  1  0
  7 29  1  0
 12 30  1  0
 12 31  1  0
 13 32  1  0
 13 33  1  0
 14 34  1  0
 15 35  1  0
 15 36  1  0
 15 37  1  0
 16 38  1  0
 16 39  1  0
 16 40  1  0
 18 41  1  0
 19 42  1  0
 20 43  1  0
 21 44  1  0
M  CHG  1  14   1
M  END
>  <UniqueID>  (24) 
21

>  <SMILES>  (24) 
CN1c2ccccc2N(C(=O)CC[NH+](C)C)c2ccccc21

>  <Energy>  (24) 
65.45731647869275

>  <Genealogy>  (24) 
CN1c2ccccc2N(C(=O)CC[NH+](C)C)c2ccccc21 (protonated)
CN1c2ccccc2N(C(=O)CC[NH+](C)C)c2ccccc21 (3D coordinates assigned)
CN1c2ccccc2N(C(=O)CC[NH+](C)C)c2ccccc21 (nonaromatic ring conformer: 65.45731647869275 kcal/mol)

>  <smiles>  (24) 
CN(C)CCC(=O)N1c2ccccc2N(C)c2ccccc21

>  <score_type>  (24) 
oracle

>  <origin>  (24) 
adg

>  <m_score__min__energy>  (24) 
-6.1799999999999997

>  <m_primary>  (24) 
energy

$$$$
24:0
     RDKit          3D

 46 48  0  0  0  0  0  0  0  0999 V2000
   59.2440   34.6940   45.8060 C   0  0  0  0  0  0  0  0  0  0  0  0
   58.0650   33.7830   46.1400 C   0  0  0  0  0  0  0  0  0  0  0  0
   58.4770   32.6720   47.1140 C   0  0  0  0  0  0  0  0  0  0  0  0
   58.3640   31.3520   46.4530 N   0  0  0  0  0  0  0  0  0  0  0  0
   59.4230   30.4300   46.9140 C   0  0  0  0  0  0  0  0  0  0  0  0
   58.8850   29.0350   46.9900 C   0  0  0  0  0  0  0  0  0  0  0  0
   58.8010   28.2630   48.1260 C   0  0  0  0  0  0  0  0  0  0  0  0
   58.3220   27.0980   47.7700 O   0  0  0  0  0  0  0  0  0  0  0  0
   58.1220   27.1370   46.4690 C   0  0  0  0  0  0  0  0  0  0  0  0
   57.5880   26.0010   45.6890 C   0  0  0  0  0  0  0  0  0  0  0  0
   57.7670   25.9570   44.2970 C   0  0  0  0  0  0  0  0  0  0  0  0
   57.2630   24.8850   43.5550 C   0  0  0  0  0  0  0  0  0  0  0  0
   56.5720   23.8440   44.1840 C   0  0  0  0  0  0  0  0  0  0  0  0
   56.0850   22.7920   43.3940 O   0  0  0  0  0  0  0  0  0  0  0  0
   56.8230   21.6170   43.0750 C   0  0  0  0  0  0  0  0  0  0  0  0
   56.3890   23.8870   45.5800 C   0  0  0  0  0  0  0  0  0  0  0  0
   56.8950   24.9580   46.3240 C   0  0  0  0  0  0  0  0  0  0  0  0
   58.4610   28.3270   45.9270 N   0  0  0  0  0  0  0  0  0  0  0  0
   58.3920   31.4890   44.9800 C   0  0  0  0  0  0  0  0  0  0  0  0
   57.2730   30.7040   44.3690 C   0  0  0  0  0  0  0  0  0  0  0  0
   57.0690   30.5120   43.0190 C   0  0  0  0  0  0  0  0  0  0  0  0
   55.9270   29.7460   42.9230 C   0  0  0  0  0  0  0  0  0  0  0  0
   55.5090   29.5180   44.2200 C   0  0  0  0  0  0  0  0  0  0  0  0
   56.3330   30.1030   45.0600 O   0  0  0  0  0  0  0  0  0  0  0  0
   59.7066   35.0515   46.7378 H   0  0  0  0  0  0  0  0  0  0  0  0
   59.9865   34.1327   45.2198 H   0  0  0  0  0  0  0  0  0  0  0  0
   58.8882   35.5541   45.2198 H   0  0  0  0  0  0  0  0  0  0  0  0
   57.2666   34.3843   46.5994 H   0  0  0  0  0  0  0  0  0  0  0  0
   57.7133   33.3151   45.2087 H   0  0  0  0  0  0  0  0  0  0  0  0
   59.5180   32.8329   47.4309 H   0  0  0  0  0  0  0  0  0  0  0  0
   57.8126   32.6952   47.9904 H   0  0  0  0  0  0  0  0  0  0  0  0
   60.2649   30.4584   46.2066 H   0  0  0  0  0  0  0  0  0  0  0  0
   59.7657   30.7413   47.9118 H   0  0  0  0  0  0  0  0  0  0  0  0
   59.0839   28.5682   49.1442 H   0  0  0  0  0  0  0  0  0  0  0  0
   58.3062   26.7697   43.7882 H   0  0  0  0  0  0  0  0  0  0  0  0
   57.4113   24.8597   42.4653 H   0  0  0  0  0  0  0  0  0  0  0  0
   57.1367   21.1176   44.0036 H   0  0  0  0  0  0  0  0  0  0  0  0
   56.1907   20.9351   42.4875 H   0  0  0  0  0  0  0  0  0  0  0  0
   57.7118   21.8905   42.4875 H   0  0  0  0  0  0  0  0  0  0  0  0
   55.8463   23.0755   46.0869 H   0  0  0  0  0  0  0  0  0  0  0  0
   56.7490   24.9833   47.4140 H   0  0  0  0  0  0  0  0  0  0  0  0
   58.2814   32.5499   44.7111 H   0  0  0  0  0  0  0  0  0  0  0  0
   59.3504   31.1047   44.6008 H   0  0  0  0  0  0  0  0  0  0  0  0
   57.6877   30.8906   42.1921 H   0  0  0  0  0  0  0  0  0  0  0  0
   55.4459   29.3886   42.0006 H   0  0  0  0  0  0  0  0  0  0  0  0
   54.6211   28.9351   44.5061 H   0  0  0  0  0  0  0  0  0  0  0  0
  1  2  1  0
  2  3  1  0
  3  4  1  0
  4  5  1  0
  5  6  1  0
  6  7  2  0
  7  8  1  0
  8  9  1  0
  9 10  1  0
 10 11  2  0
 11 12  1  0
 12 13  2  0
 13 14  1  0
 14 15  1  0
 13 16  1  0
 16 17  2  0
  9 18  2  0
  4 19  1  0
 19 20  1  0
 20 21  2  0
 21 22  1  0
 22 23  2  0
 23 24  1  0
 18  6  1  0
 24 20  1  0
 17 10  1  0
  1 25  1  0
  1 26  1  0
  1 27  1  0
  2 28  1  0
  2 29  1  0
  3 30  1  0
  3 31  1  0
  5 32  1  0
  5 33  1  0
  7 34  1  0
 11 35  1  0
 12 36  1  0
 15 37  1  0
 15 38  1  0
 15 39  1  0
 16 40  1  0
 17 41  1  0
 19 42  1  0
 19 43  1  0
 21 44  1  0
 22 45  1  0
 23 46  1  0
M  END
>  <UniqueID>  (25) 
22

>  <SMILES>  (25) 
CCCN(Cc1coc(-c2ccc(OC)cc2)n1)Cc1ccco1

>  <Energy>  (25) 
98.31159261197728

>  <Genealogy>  (25) 
CCCN(Cc1coc(-c2ccc(OC)cc2)n1)Cc1ccco1 (3D coordinates assigned)
CCCN(Cc1coc(-c2ccc(OC)cc2)n1)Cc1ccco1 (optimized conformer: 98.31159261197728 kcal/mol)

>  <smiles>  (25) 
CCCN(Cc1coc(-c2ccc(OC)cc2)n1)Cc1ccco1

>  <score_type>  (25) 
oracle

>  <origin>  (25) 
adg

>  <m_score__min__energy>  (25) 
-6.9699999999999998

>  <m_primary>  (25) 
energy

$$$$
25:0
     RDKit          3D

 58 62  0  0  0  0  0  0  0  0999 V2000
   57.4270   34.4360   45.4370 C   0  0  0  0  0  0  0  0  0  0  0  0
   57.7030   33.2820   46.2900 N   0  0  0  0  0  0  0  0  0  0  0  0
   58.0540   33.4970   47.5800 O   0  0  0  0  0  0  0  0  0  0  0  0
   59.4330   33.2160   47.7770 C   0  0  0  0  0  0  0  0  0  0  0  0
   60.3540   33.3710   46.5170 C   0  0  0  0  0  0  0  0  0  0  0  0
   61.8180   33.0500   46.8510 C   0  0  0  0  0  0  0  0  0  0  0  0
   62.1990   33.5380   48.1840 N   0  0  0  0  0  0  0  0  0  0  0  0
   63.4700   33.1370   48.7330 C   0  0  0  0  0  0  0  0  0  0  0  0
   64.3600   32.6740   47.9670 O   0  0  0  0  0  0  0  0  0  0  0  0
   63.7090   33.1900   50.1490 N   0  0  0  0  0  0  0  0  0  0  0  0
   65.0210   33.1940   50.7380 C   0  0  0  0  0  0  0  0  0  0  0  0
   65.9190   32.1610   50.4260 C   0  0  0  0  0  0  0  0  0  0  0  0
   67.1930   32.1320   51.0030 C   0  0  0  0  0  0  0  0  0  0  0  0
   67.5740   33.1260   51.9070 C   0  0  0  0  0  0  0  0  0  0  0  0
   66.6810   34.1470   52.2400 C   0  0  0  0  0  0  0  0  0  0  0  0
   65.4060   34.1810   51.6650 C   0  0  0  0  0  0  0  0  0  0  0  0
   61.4100   34.6060   48.8120 C   0  0  0  0  0  0  0  0  0  0  0  0
   59.8970   34.2880   48.8140 C   0  0  0  0  0  0  0  0  0  0  0  0
   59.4900   31.7720   48.2970 C   0  0  0  0  0  0  0  0  0  0  0  0
   60.1860   31.4450   49.4870 C   0  0  0  0  0  0  0  0  0  0  0  0
   60.1870   30.1490   49.9910 C   0  0  0  0  0  0  0  0  0  0  0  0
   59.5080   29.1560   49.3070 C   0  0  0  0  0  0  0  0  0  0  0  0
   58.8790   29.4490   48.1440 N   0  0  0  0  0  0  0  0  0  0  0  0
   58.8430   30.7010   47.6020 C   0  0  0  0  0  0  0  0  0  0  0  0
   58.2450   30.8300   46.2870 N   0  0  0  0  0  0  0  0  0  0  0  0
   58.3990   29.7060   45.4000 C   0  0  0  0  0  0  0  0  0  0  0  0
   57.2820   28.9610   44.9890 C   0  0  0  0  0  0  0  0  0  0  0  0
   57.4440   27.8580   44.1450 C   0  0  0  0  0  0  0  0  0  0  0  0
   58.7220   27.4890   43.7140 C   0  0  0  0  0  0  0  0  0  0  0  0
   59.8390   28.2200   44.1290 C   0  0  0  0  0  0  0  0  0  0  0  0
   59.6800   29.3240   44.9730 C   0  0  0  0  0  0  0  0  0  0  0  0
   57.4710   31.9540   45.8100 C   0  0  0  0  0  0  0  0  0  0  0  0
   56.6480   31.7850   44.8670 O   0  0  0  0  0  0  0  0  0  0  0  0
   57.2169   35.3143   46.0651 H   0  0  0  0  0  0  0  0  0  0  0  0
   58.3017   34.6401   44.8019 H   0  0  0  0  0  0  0  0  0  0  0  0
   56.5546   34.2223   44.8019 H   0  0  0  0  0  0  0  0  0  0  0  0
   60.0065   32.6825   45.7327 H   0  0  0  0  0  0  0  0  0  0  0  0
   60.2978   34.4143   46.1730 H   0  0  0  0  0  0  0  0  0  0  0  0
   61.9587   31.9595   46.8186 H   0  0  0  0  0  0  0  0  0  0  0  0
   62.4541   33.5558   46.1097 H   0  0  0  0  0  0  0  0  0  0  0  0
   62.8870   33.1000   50.7870 H   0  0  0  0  0  0  0  0  0  0  0  0
   65.6190   31.3695   49.7235 H   0  0  0  0  0  0  0  0  0  0  0  0
   67.8952   31.3257   50.7445 H   0  0  0  0  0  0  0  0  0  0  0  0
   68.5776   33.1048   52.3569 H   0  0  0  0  0  0  0  0  0  0  0  0
   66.9809   34.9263   52.9561 H   0  0  0  0  0  0  0  0  0  0  0  0
   64.7024   34.9812   51.9380 H   0  0  0  0  0  0  0  0  0  0  0  0
   61.7473   34.7316   49.8515 H   0  0  0  0  0  0  0  0  0  0  0  0
   61.5616   35.5263   48.2289 H   0  0  0  0  0  0  0  0  0  0  0  0
   59.6280   33.9271   49.8177 H   0  0  0  0  0  0  0  0  0  0  0  0
   59.3920   35.2225   48.5283 H   0  0  0  0  0  0  0  0  0  0  0  0
   60.7366   32.2321   50.0230 H   0  0  0  0  0  0  0  0  0  0  0  0
   60.7218   29.9156   50.9235 H   0  0  0  0  0  0  0  0  0  0  0  0
   59.4792   28.1316   49.7068 H   0  0  0  0  0  0  0  0  0  0  0  0
   56.2764   29.2460   45.3320 H   0  0  0  0  0  0  0  0  0  0  0  0
   56.5660   27.2805   43.8201 H   0  0  0  0  0  0  0  0  0  0  0  0
   58.8485   26.6228   43.0479 H   0  0  0  0  0  0  0  0  0  0  0  0
   60.8440   27.9267   43.7915 H   0  0  0  0  0  0  0  0  0  0  0  0
   60.5611   29.8941   45.3028 H   0  0  0  0  0  0  0  0  0  0  0  0
  1  2  1  0
  2  3  1  0
  3  4  1  0
  4  5  1  0
  5  6  1  0
  6  7  1  0
  7  8  1  0
  8  9  2  0
  8 10  1  0
 10 11  1  0
 11 12  2  0
 12 13  1  0
 13 14  2  0
 14 15  1  0
 15 16  2  0
  7 17  1  0
 17 18  1  0
  4 19  1  0
 19 20  2  0
 20 21  1  0
 21 22  2  0
 22 23  1  0
 23 24  2  0
 24 25  1  0
 25 26  1  0
 26 27  2  0
 27 28  1  0
 28 29  2  0
 29 30  1  0
 30 31  2  0
 25 32  1  0
 32 33  2  0
 32  2  1  0
 18  4  1  0
 24 19  1  0
 31 26  1  0
 16 11  1  0
  1 34  1  0
  1 35  1  0
  1 36  1  0
  5 37  1  0
  5 38  1  0
  6 39  1  0
  6 40  1  0
 10 41  1  0
 12 42  1  0
 13 43  1  0
 14 44  1  0
 15 45  1  0
 16 46  1  0
 17 47  1  0
 17 48  1  0
 18 49  1  0
 18 50  1  0
 20 51  1  0
 21 52  1  0
 22 53  1  0
 27 54  1  0
 28 55  1  0
 29 56  1  0
 30 57  1  0
 31 58  1  0
M  END
>  <UniqueID>  (26) 
23

>  <SMILES>  (26) 
CN1OC2(CCN(C(=O)Nc3ccccc3)CC2)c2cccnc2N(c2ccccc2)C1=O

>  <Energy>  (26) 
105.16336245928366

>  <Genealogy>  (26) 
CN1OC2(CCN(C(=O)Nc3ccccc3)CC2)c2cccnc2N(c2ccccc2)C1=O (3D coordinates assigned)
CN1OC2(CCN(C(=O)Nc3ccccc3)CC2)c2cccnc2N(c2ccccc2)C1=O (nonaromatic ring conformer: 105.16336245928366 kcal/mol)

>  <smiles>  (26) 
CN1OC2(CCN(C(=O)Nc3ccccc3)CC2)c2cccnc2N(c2ccccc2)C1=O

>  <score_type>  (26) 
oracle

>  <origin>  (26) 
adg

>  <m_score__min__energy>  (26) 
-9.3100000000000005

>  <m_primary>  (26) 
energy

$$$$
26:0
     RDKit          3D

 28 29  0  0  0  0  0  0  0  0999 V2000
   54.3840   28.8800   44.5140 H   0  0  0  0  0  0  0  0  0  0  0  0
   55.1980   29.3560   44.8840 O   0  0  0  0  0  0  0  0  0  0  0  0
   56.3750   28.6760   45.1930 C   0  0  0  0  0  0  0  0  0  0  0  0
   57.6050   29.3150   44.9900 C   0  0  0  0  0  0  0  0  0  0  0  0
   57.6290   30.3343   44.5773 H   0  0  0  0  0  0  0  0  0  0  0  0
   58.8060   28.6650   45.3090 C   0  0  0  0  0  0  0  0  0  0  0  0
   60.0910   29.3430   45.0370 C   0  0  0  0  0  0  0  0  0  0  0  0
   60.4530   29.3593   43.9984 H   0  0  0  0  0  0  0  0  0  0  0  0
   60.8240   29.9230   45.9460 N   0  0  0  0  0  0  0  0  0  0  0  0
   60.3960   30.8400   46.9660 C   0  0  0  0  0  0  0  0  0  0  0  0
   60.4900   30.5210   48.1830 O   0  0  0  0  0  0  0  0  0  0  0  0
   59.8040   32.1460   46.5750 C   0  0  0  0  0  0  0  0  0  0  0  0
   58.4440   32.1880   46.2090 C   0  0  0  0  0  0  0  0  0  0  0  0
   57.8460   31.2651   46.2330 H   0  0  0  0  0  0  0  0  0  0  0  0
   57.8460   33.3880   45.8160 C   0  0  0  0  0  0  0  0  0  0  0  0
   56.7843   33.4036   45.5288 H   0  0  0  0  0  0  0  0  0  0  0  0
   58.5910   34.5650   45.7870 C   0  0  0  0  0  0  0  0  0  0  0  0
   58.1185   35.5078   45.4742 H   0  0  0  0  0  0  0  0  0  0  0  0
   59.9370   34.5470   46.1550 C   0  0  0  0  0  0  0  0  0  0  0  0
   60.5201   35.4796   46.1354 H   0  0  0  0  0  0  0  0  0  0  0  0
   60.5520   33.3520   46.5490 C   0  0  0  0  0  0  0  0  0  0  0  0
   62.2400   33.4450   47.0480 Cl  0  0  0  0  0  0  0  0  0  0  0  0
   58.7690   27.3440   45.7850 C   0  0  0  0  0  0  0  0  0  0  0  0
   59.7079   26.8113   45.9964 H   0  0  0  0  0  0  0  0  0  0  0  0
   57.5440   26.7040   45.9910 C   0  0  0  0  0  0  0  0  0  0  0  0
   57.5208   25.6764   46.3829 H   0  0  0  0  0  0  0  0  0  0  0  0
   56.3470   27.3670   45.7000 C   0  0  0  0  0  0  0  0  0  0  0  0
   55.1360   26.7170   45.9110 O   0  0  0  0  0  0  0  0  0  0  0  0
  1  2  1  0
  2  3  1  0
  3  4  2  0
  4  5  1  0
  4  6  1  0
  6  7  1  0
  7  8  1  0
  7  9  2  0
  9 10  1  0
 10 11  2  0
 10 12  1  0
 12 13  2  0
 13 14  1  0
 13 15  1  0
 15 16  1  0
 15 17  2  0
 17 18  1  0
 17 19  1  0
 19 20  1  0
 19 21  2  0
 21 22  1  0
  6 23  2  0
 23 24  1  0
 23 25  1  0
 25 26  1  0
 25 27  2  0
 27 28  1  0
 27  3  1  0
 21 12  1  0
M  CHG  1  28  -1
M  END
>  <UniqueID>  (27) 
24

>  <SMILES>  (27) 
O=C(/N=C\c1ccc([O-])c(O)c1)c1ccccc1Cl

>  <Energy>  (27) 
43.26164182267952

>  <Genealogy>  (27) 
O=C(N=Cc1ccc([O-])c(O)c1)c1ccccc1Cl (protonated)
O=C(/N=C\c1ccc([O-])c(O)c1)c1ccccc1Cl (cis-trans isomerization)
O=C(/N=C\c1ccc([O-])c(O)c1)c1ccccc1Cl (3D coordinates assigned)
O=C(/N=C\c1ccc([O-])c(O)c1)c1ccccc1Cl (optimized conformer: 43.26164182267952 kcal/mol)

>  <smiles>  (27) 
O=C(N=Cc1ccc(O)c(O)c1)c1ccccc1Cl

>  <score_type>  (27) 
oracle

>  <origin>  (27) 
adg

>  <m_score__min__energy>  (27) 
-11.66

>  <m_primary>  (27) 
energy

$$$$
27:0
     RDKit          3D

 30 33  0  0  0  0  0  0  0  0999 V2000
   64.9770   33.8510   50.5670 F   0  0  0  0  0  0  0  0  0  0  0  0
   63.9300   33.5770   49.7380 C   0  0  0  0  0  0  0  0  0  0  0  0
   62.6640   34.1270   49.9680 C   0  0  0  0  0  0  0  0  0  0  0  0
   61.6090   33.8410   49.1170 C   0  0  0  0  0  0  0  0  0  0  0  0
   61.8180   33.0070   48.0370 C   0  0  0  0  0  0  0  0  0  0  0  0
   60.7080   32.7050   47.1390 C   0  0  0  0  0  0  0  0  0  0  0  0
   60.0490   31.5320   46.9360 C   0  0  0  0  0  0  0  0  0  0  0  0
   59.0850   31.7560   45.9950 C   0  0  0  0  0  0  0  0  0  0  0  0
   59.1870   33.0810   45.6470 C   0  0  0  0  0  0  0  0  0  0  0  0
   58.3330   33.6440   44.6930 C   0  0  0  0  0  0  0  0  0  0  0  0
   57.4060   32.8050   44.1370 C   0  0  0  0  0  0  0  0  0  0  0  0
   57.2930   31.4720   44.4780 C   0  0  0  0  0  0  0  0  0  0  0  0
   56.3430   30.6360   43.9010 C   0  0  0  0  0  0  0  0  0  0  0  0
   56.2490   29.3400   44.2470 N   0  0  0  0  0  0  0  0  0  0  0  0
   57.1000   28.8550   45.1720 C   0  0  0  0  0  0  0  0  0  0  0  0
   57.0270   27.2780   45.6280 S   0  0  0  0  0  0  0  0  0  0  0  0
   58.0460   29.6300   45.7650 N   0  0  0  0  0  0  0  0  0  0  0  0
   58.1500   30.9290   45.4290 C   0  0  0  0  0  0  0  0  0  0  0  0
   60.1530   33.6050   46.3420 O   0  0  0  0  0  0  0  0  0  0  0  0
   63.0690   32.4660   47.8100 C   0  0  0  0  0  0  0  0  0  0  0  0
   64.1350   32.7370   48.6450 C   0  0  0  0  0  0  0  0  0  0  0  0
   62.5055   34.7910   50.8305 H   0  0  0  0  0  0  0  0  0  0  0  0
   60.6146   34.2742   49.3000 H   0  0  0  0  0  0  0  0  0  0  0  0
   60.2555   30.5758   47.4391 H   0  0  0  0  0  0  0  0  0  0  0  0
   58.4028   34.7034   44.4054 H   0  0  0  0  0  0  0  0  0  0  0  0
   56.7176   33.2123   43.3819 H   0  0  0  0  0  0  0  0  0  0  0  0
   55.6544   31.0433   43.1461 H   0  0  0  0  0  0  0  0  0  0  0  0
   55.5180   28.7130   43.7960 H   0  0  0  0  0  0  0  0  0  0  0  0
   63.2192   31.8042   46.9443 H   0  0  0  0  0  0  0  0  0  0  0  0
   65.1253   32.2990   48.4515 H   0  0  0  0  0  0  0  0  0  0  0  0
  1  2  1  0
  2  3  2  0
  3  4  1  0
  4  5  2  0
  5  6  1  0
  6  7  2  0
  7  8  1  0
  8  9  2  0
  9 10  1  0
 10 11  2  0
 11 12  1  0
 12 13  2  0
 13 14  1  0
 14 15  1  0
 15 16  2  0
 15 17  1  0
 17 18  2  0
  9 19  1  0
  5 20  1  0
 20 21  2  0
 21  2  1  0
 19  6  1  0
 18  8  1  0
 18 12  1  0
  3 22  1  0
  4 23  1  0
  7 24  1  0
 10 25  1  0
 11 26  1  0
 13 27  1  0
 14 28  1  0
 20 29  1  0
 21 30  1  0
M  END
>  <smiles>  (28) 
Fc1ccc(-c2cc3c(ccc4c[nH]c(=S)nc43)o2)cc1

>  <score_type>  (28) 
oracle

>  <origin>  (28) 
adg

>  <m_score__min__energy>  (28) 
-7.1299999999999999

>  <m_primary>  (28) 
energy

$$$$
28:0
     RDKit          3D

 47 49  0  0  0  0  0  0  0  0999 V2000
   60.9810   29.8040   49.4530 C   0  0  0  0  0  0  0  0  0  0  0  0
   61.8750   30.9080   48.9460 C   0  0  0  0  0  0  0  0  0  0  0  0
   62.9260   31.3530   49.7680 C   0  0  0  0  0  0  0  0  0  0  0  0
   63.7680   32.3840   49.3500 C   0  0  0  0  0  0  0  0  0  0  0  0
   63.5770   32.9800   48.1050 C   0  0  0  0  0  0  0  0  0  0  0  0
   62.5480   32.5440   47.2700 C   0  0  0  0  0  0  0  0  0  0  0  0
   61.6870   31.5030   47.6680 C   0  0  0  0  0  0  0  0  0  0  0  0
   60.6200   31.0560   46.7360 C   0  0  0  0  0  0  0  0  0  0  0  0
   59.5140   31.7750   46.4420 N   0  0  0  0  0  0  0  0  0  0  0  0
   58.8350   31.0170   45.5640 C   0  0  0  0  0  0  0  0  0  0  0  0
   57.4880   31.3620   45.0150 C   0  0  0  0  0  0  0  0  0  0  0  0
   57.0310   33.0030   45.5340 S   0  0  0  0  0  0  0  0  0  0  0  0
   57.0660   33.1150   47.2110 O   0  0  0  0  0  0  0  0  0  0  0  0
   58.1140   34.2140   44.8100 C   0  0  0  0  0  0  0  0  0  0  0  0
   59.2950   34.4280   45.6990 C   0  0  0  0  0  0  0  0  0  0  0  0
   60.4560   34.2010   45.2630 O   0  0  0  0  0  0  0  0  0  0  0  0
   59.0940   34.8430   47.0530 N   0  0  0  0  0  0  0  0  0  0  0  0
   60.0840   34.6560   48.1070 C   0  0  0  0  0  0  0  0  0  0  0  0
   59.5670   33.7070   49.1410 C   0  0  0  0  0  0  0  0  0  0  0  0
   59.8370   33.7620   50.4930 C   0  0  0  0  0  0  0  0  0  0  0  0
   59.1800   32.6820   51.0440 C   0  0  0  0  0  0  0  0  0  0  0  0
   58.5550   32.0370   49.9960 C   0  0  0  0  0  0  0  0  0  0  0  0
   58.8060   32.6710   48.8740 O   0  0  0  0  0  0  0  0  0  0  0  0
   59.5440   29.8510   45.3660 C   0  0  0  0  0  0  0  0  0  0  0  0
   59.1660   28.7000   44.4930 C   0  0  0  0  0  0  0  0  0  0  0  0
   60.6370   29.9080   46.0900 O   0  0  0  0  0  0  0  0  0  0  0  0
   60.9831   29.8065   50.5530 H   0  0  0  0  0  0  0  0  0  0  0  0
   59.9560   29.9654   49.0879 H   0  0  0  0  0  0  0  0  0  0  0  0
   61.3520   28.8349   49.0879 H   0  0  0  0  0  0  0  0  0  0  0  0
   63.0857   30.8836   50.7499 H   0  0  0  0  0  0  0  0  0  0  0  0
   64.5834   32.7267   50.0039 H   0  0  0  0  0  0  0  0  0  0  0  0
   64.2391   33.7961   47.7799 H   0  0  0  0  0  0  0  0  0  0  0  0
   62.4073   33.0194   46.2881 H   0  0  0  0  0  0  0  0  0  0  0  0
   59.2200   32.6980   46.8310 H   0  0  0  0  0  0  0  0  0  0  0  0
   57.5196   31.3215   43.9162 H   0  0  0  0  0  0  0  0  0  0  0  0
   56.7462   30.6414   45.3899 H   0  0  0  0  0  0  0  0  0  0  0  0
   57.7200   33.8320   47.4040 H   0  0  0  0  0  0  0  0  0  0  0  0
   58.4559   33.8577   43.8271 H   0  0  0  0  0  0  0  0  0  0  0  0
   57.5712   35.1632   44.6903 H   0  0  0  0  0  0  0  0  0  0  0  0
   61.0074   34.2486   47.6696 H   0  0  0  0  0  0  0  0  0  0  0  0
   60.2890   35.6266   48.5822 H   0  0  0  0  0  0  0  0  0  0  0  0
   60.4476   34.5098   51.0202 H   0  0  0  0  0  0  0  0  0  0  0  0
   59.1584   32.3928   52.1051 H   0  0  0  0  0  0  0  0  0  0  0  0
   57.9400   31.1295   50.0870 H   0  0  0  0  0  0  0  0  0  0  0  0
   58.8840   27.8413   45.1200 H   0  0  0  0  0  0  0  0  0  0  0  0
   58.3145   28.9856   43.8579 H   0  0  0  0  0  0  0  0  0  0  0  0
   60.0211   28.4252   43.8579 H   0  0  0  0  0  0  0  0  0  0  0  0
  1  2  1  0
  2  3  2  0
  3  4  1  0
  4  5  2  0
  5  6  1  0
  6  7  2  0
  7  8  1  0
  8  9  2  0
  9 10  1  0
 10 11  1  0
 11 12  1  0
 12 13  1  1
 12 14  1  0
 14 15  1  0
 15 16  2  0
 15 17  1  0
 17 18  1  0
 18 19  1  0
 19 20  2  0
 20 21  1  0
 21 22  2  0
 22 23  1  0
 10 24  2  0
 24 25  1  0
 24 26  1  0
  7  2  1  0
 26  8  1  0
 23 19  1  0
  1 27  1  0
  1 28  1  0
  1 29  1  0
  3 30  1  0
  4 31  1  0
  5 32  1  0
  6 33  1  0
  9 34  1  0
 11 35  1  0
 11 36  1  0
 13 37  1  0
 14 38  1  0
 14 39  1  0
 18 40  1  0
 18 41  1  0
 20 42  1  0
 21 43  1  0
 22 44  1  0
 25 45  1  0
 25 46  1  0
 25 47  1  0
M  CHG  3   9   1  12   1  17  -1
M  END
>  <UniqueID>  (29) 
25

>  <SMILES>  (29) 
Cc1ccccc1-c1[nH+]c(C[S@@+](O)CC(=O)[N-]Cc2ccco2)c(C)o1

>  <Energy>  (29) 
95.49963618650104

>  <Genealogy>  (29) 
Cc1ccccc1-c1[nH+]c(C[S+](O)CC(=O)[N-]Cc2ccco2)c(C)o1 (protonated)
Cc1ccccc1-c1[nH+]c(C[S@@+](O)CC(=O)[N-]Cc2ccco2)c(C)o1 (chirality)
Cc1ccccc1-c1[nH+]c(C[S@@+](O)CC(=O)[N-]Cc2ccco2)c(C)o1 (3D coordinates assigned)
Cc1ccccc1-c1[nH+]c(C[S@@+](O)CC(=O)[N-]Cc2ccco2)c(C)o1 (optimized conformer: 95.49963618650104 kcal/mol)

>  <smiles>  (29) 
Cc1ccccc1-c1nc(C[S+]([O-])CC(=O)NCc2ccco2)c(C)o1

>  <score_type>  (29) 
oracle

>  <origin>  (29) 
adg

>  <m_score__min__energy>  (29) 
-6.6399999999999997

>  <m_primary>  (29) 
energy

$$$$
29:0
     RDKit          3D

 36 37  0  0  0  0  0  0  0  0999 V2000
   54.3570   26.7220   45.6740 H   0  0  0  0  0  0  0  0  0  0  0  0
   55.2640   26.3610   45.9330 O   0  0  0  0  0  0  0  0  0  0  0  0
   56.4330   27.1040   45.7700 C   0  0  0  0  0  0  0  0  0  0  0  0
   57.6590   26.5310   46.1190 C   0  0  0  0  0  0  0  0  0  0  0  0
   57.6895   25.5082   46.5227 H   0  0  0  0  0  0  0  0  0  0  0  0
   58.8460   27.2500   45.9580 C   0  0  0  0  0  0  0  0  0  0  0  0
   59.8056   26.7826   46.2239 H   0  0  0  0  0  0  0  0  0  0  0  0
   58.8270   28.5640   45.4600 C   0  0  0  0  0  0  0  0  0  0  0  0
   60.1170   29.2800   45.3010 C   0  0  0  0  0  0  0  0  0  0  0  0
   60.5771   29.3018   44.3021 H   0  0  0  0  0  0  0  0  0  0  0  0
   60.7550   29.9020   46.3030 C   0  0  0  0  0  0  0  0  0  0  0  0
   61.5065   30.6684   46.0623 H   0  0  0  0  0  0  0  0  0  0  0  0
   60.4800   29.5900   47.7180 C   0  0  0  0  0  0  0  0  0  0  0  0
   60.7320   28.4320   48.1380 O   0  0  0  0  0  0  0  0  0  0  0  0
   59.8940   30.5360   48.6210 N   0  0  0  0  0  0  0  0  0  0  0  0
   60.4260   30.8930   49.9310 C   0  0  0  0  0  0  0  0  0  0  0  0
   59.5958   31.1399   50.6091 H   0  0  0  0  0  0  0  0  0  0  0  0
   60.9934   30.0442   50.3403 H   0  0  0  0  0  0  0  0  0  0  0  0
   61.3480   32.1030   49.7930 C   0  0  0  0  0  0  0  0  0  0  0  0
   61.2808   32.7136   50.7055 H   0  0  0  0  0  0  0  0  0  0  0  0
   62.3782   31.7466   49.6461 H   0  0  0  0  0  0  0  0  0  0  0  0
   60.9520   32.9460   48.6020 C   0  0  0  0  0  0  0  0  0  0  0  0
   59.7350   33.6590   48.6290 C   0  0  0  0  0  0  0  0  0  0  0  0
   58.9100   33.5830   49.7050 F   0  0  0  0  0  0  0  0  0  0  0  0
   59.3590   34.4590   47.5470 C   0  0  0  0  0  0  0  0  0  0  0  0
   58.4067   35.0088   47.5756 H   0  0  0  0  0  0  0  0  0  0  0  0
   60.1900   34.5620   46.4290 C   0  0  0  0  0  0  0  0  0  0  0  0
   59.8869   35.1849   45.5746 H   0  0  0  0  0  0  0  0  0  0  0  0
   61.4050   33.8750   46.3950 C   0  0  0  0  0  0  0  0  0  0  0  0
   62.0574   33.9613   45.5135 H   0  0  0  0  0  0  0  0  0  0  0  0
   61.7980   33.0770   47.4760 C   0  0  0  0  0  0  0  0  0  0  0  0
   63.3600   32.2690   47.3820 Cl  0  0  0  0  0  0  0  0  0  0  0  0
   57.5880   29.1360   45.1010 C   0  0  0  0  0  0  0  0  0  0  0  0
   57.5552   30.1581   44.6957 H   0  0  0  0  0  0  0  0  0  0  0  0
   56.4010   28.4120   45.2570 C   0  0  0  0  0  0  0  0  0  0  0  0
   55.1910   28.9980   44.8980 O   0  0  0  0  0  0  0  0  0  0  0  0
  1  2  1  0
  2  3  1  0
  3  4  2  0
  4  5  1  0
  4  6  1  0
  6  7  1  0
  6  8  2  0
  8  9  1  0
  9 10  1  0
  9 11  2  0
 11 12  1  0
 11 13  1  0
 13 14  2  0
 13 15  1  0
 15 16  1  0
 16 17  1  0
 16 18  1  0
 16 19  1  0
 19 20  1  0
 19 21  1  0
 19 22  1  0
 22 23  2  0
 23 24  1  0
 23 25  1  0
 25 26  1  0
 25 27  2  0
 27 28  1  0
 27 29  1  0
 29 30  1  0
 29 31  2  0
 31 32  1  0
  8 33  1  0
 33 34  1  0
 33 35  2  0
 35 36  1  0
 35  3  1  0
 31 22  1  0
M  CHG  2  15  -1  36  -1
M  END
>  <UniqueID>  (30) 
26

>  <SMILES>  (30) 
O=C(/C=C/c1ccc(O)c([O-])c1)[N-]CCc1c(F)cccc1Cl

>  <Energy>  (30) 
40.60384948996033

>  <Genealogy>  (30) 
O=C(C=Cc1ccc(O)c([O-])c1)[N-]CCc1c(F)cccc1Cl (protonated)
O=C(/C=C/c1ccc(O)c([O-])c1)[N-]CCc1c(F)cccc1Cl (cis-trans isomerization)
O=C(/C=C/c1ccc(O)c([O-])c1)[N-]CCc1c(F)cccc1Cl (3D coordinates assigned)
O=C(/C=C/c1ccc(O)c([O-])c1)[N-]CCc1c(F)cccc1Cl (optimized conformer: 40.60384948996033 kcal/mol)

>  <smiles>  (30) 
O=C(C=Cc1ccc(O)c(O)c1)NCCc1c(F)cccc1Cl

>  <score_type>  (30) 
oracle

>  <origin>  (30) 
adg

>  <m_score__min__energy>  (30) 
-12.19

>  <m_primary>  (30) 
energy

$$$$
30:0
     RDKit          3D

 49 51  0  0  0  0  0  0  0  0999 V2000
   63.9200   33.0730   47.6440 C   0  0  0  0  0  0  0  0  0  0  0  0
   62.7300   33.3850   46.7880 C   0  0  0  0  0  0  0  0  0  0  0  0
   61.4870   32.8220   47.2870 N   0  0  0  0  0  0  0  0  0  0  0  0
   61.6560   31.6400   48.0750 C   0  0  0  0  0  0  0  0  0  0  0  0
   60.5120   31.3190   48.9570 C   0  0  0  0  0  0  0  0  0  0  0  0
   59.8510   30.1200   48.8920 C   0  0  0  0  0  0  0  0  0  0  0  0
   60.0810   29.0790   48.0880 O   0  0  0  0  0  0  0  0  0  0  0  0
   59.5010   28.4280   47.0900 C   0  0  0  0  0  0  0  0  0  0  0  0
   59.3550   27.0300   47.1980 C   0  0  0  0  0  0  0  0  0  0  0  0
   58.7670   26.2840   46.2020 C   0  0  0  0  0  0  0  0  0  0  0  0
   58.3060   26.8900   45.0750 C   0  0  0  0  0  0  0  0  0  0  0  0
   58.4160   28.2370   44.9110 C   0  0  0  0  0  0  0  0  0  0  0  0
   57.9720   28.9600   43.7760 N   0  0  0  0  0  0  0  0  0  0  0  0
   57.0260   30.3630   43.7710 S   0  0  0  0  0  0  0  0  0  0  0  0
   56.6740   30.7760   42.3550 O   0  0  0  0  0  0  0  0  0  0  0  0
   55.7430   30.1200   44.5480 O   0  0  0  0  0  0  0  0  0  0  0  0
   57.7680   31.7560   44.5070 C   0  0  0  0  0  0  0  0  0  0  0  0
   57.8110   31.7970   45.8850 C   0  0  0  0  0  0  0  0  0  0  0  0
   58.3570   32.8470   46.5960 C   0  0  0  0  0  0  0  0  0  0  0  0
   58.8860   33.9100   45.8850 C   0  0  0  0  0  0  0  0  0  0  0  0
   59.6040   35.2900   46.7020 Cl  0  0  0  0  0  0  0  0  0  0  0  0
   58.8450   33.8750   44.4970 C   0  0  0  0  0  0  0  0  0  0  0  0
   58.2930   32.8120   43.8140 C   0  0  0  0  0  0  0  0  0  0  0  0
   59.0100   28.9700   45.9210 C   0  0  0  0  0  0  0  0  0  0  0  0
   58.8070   29.9730   49.7810 N   0  0  0  0  0  0  0  0  0  0  0  0
   58.4490   30.9180   50.6490 C   0  0  0  0  0  0  0  0  0  0  0  0
   59.1080   32.0860   50.6970 N   0  0  0  0  0  0  0  0  0  0  0  0
   60.1530   32.3290   49.8630 C   0  0  0  0  0  0  0  0  0  0  0  0
   60.8050   33.4550   49.8950 N   0  0  0  0  0  0  0  0  0  0  0  0
   63.6382   33.1469   48.7047 H   0  0  0  0  0  0  0  0  0  0  0  0
   64.2698   32.0528   47.4278 H   0  0  0  0  0  0  0  0  0  0  0  0
   64.7254   33.7903   47.4278 H   0  0  0  0  0  0  0  0  0  0  0  0
   62.6187   34.4780   46.7333 H   0  0  0  0  0  0  0  0  0  0  0  0
   62.9152   32.9317   45.8030 H   0  0  0  0  0  0  0  0  0  0  0  0
   60.8950   33.5470   47.7510 H   0  0  0  0  0  0  0  0  0  0  0  0
   61.8114   30.7917   47.3922 H   0  0  0  0  0  0  0  0  0  0  0  0
   62.5161   31.8257   48.7351 H   0  0  0  0  0  0  0  0  0  0  0  0
   59.7208   26.5218   48.1024 H   0  0  0  0  0  0  0  0  0  0  0  0
   58.6696   25.1945   46.3178 H   0  0  0  0  0  0  0  0  0  0  0  0
   57.8380   26.2836   44.2855 H   0  0  0  0  0  0  0  0  0  0  0  0
   58.2770   28.5630   42.8430 H   0  0  0  0  0  0  0  0  0  0  0  0
   57.3889   30.9502   46.4460 H   0  0  0  0  0  0  0  0  0  0  0  0
   58.3711   32.8389   47.6959 H   0  0  0  0  0  0  0  0  0  0  0  0
   59.2640   34.7177   43.9276 H   0  0  0  0  0  0  0  0  0  0  0  0
   58.2749   32.8132   42.7141 H   0  0  0  0  0  0  0  0  0  0  0  0
   59.0968   30.0579   45.7832 H   0  0  0  0  0  0  0  0  0  0  0  0
   58.2460   29.0830   49.7990 H   0  0  0  0  0  0  0  0  0  0  0  0
   57.6058   30.7393   51.3324 H   0  0  0  0  0  0  0  0  0  0  0  0
   61.6840   33.4950   49.3370 H   0  0  0  0  0  0  0  0  0  0  0  0
  1  2  1  0
  2  3  1  0
  3  4  1  0
  4  5  1  0
  5  6  2  0
  6  7  1  0
  7  8  1  0
  8  9  2  0
  9 10  1  0
 10 11  2  0
 11 12  1  0
 12 13  1  0
 13 14  1  0
 14 15  2  0
 14 16  2  0
 14 17  1  0
 17 18  2  0
 18 19  1  0
 19 20  2  0
 20 21  1  0
 20 22  1  0
 22 23  2  0
 12 24  2  0
  6 25  1  0
 25 26  1  0
 26 27  2  0
 27 28  1  0
 28 29  2  3
 28  5  1  0
 24  8  1  0
 23 17  1  0
  1 30  1  0
  1 31  1  0
  1 32  1  0
  2 33  1  0
  2 34  1  0
  3 35  1  0
  4 36  1  0
  4 37  1  0
  9 38  1  0
 10 39  1  0
 11 40  1  0
 13 41  1  0
 18 42  1  0
 19 43  1  0
 22 44  1  0
 23 45  1  0
 24 46  1  0
 25 47  1  0
 26 48  1  0
 29 49  1  0
M  END
>  <smiles>  (31) 
CCNCc1c(Oc2cccc(NS(=O)(=O)c3ccc(Cl)cc3)c2)[nH]cnc1=N

>  <score_type>  (31) 
oracle

>  <origin>  (31) 
adg

>  <m_score__min__energy>  (31) 
-9.6099999999999994

>  <m_primary>  (31) 
energy

$$$$
31:0
     RDKit          3D

 38 39  0  0  0  0  0  0  0  0999 V2000
   58.4880   26.7210   41.8940 N   0  0  0  0  0  0  0  0  0  0  0  0
   58.1430   27.1220   43.0050 N   0  0  0  0  0  0  0  0  0  0  0  0
   57.7990   27.5240   44.1170 N   0  0  0  0  0  0  0  0  0  0  0  0
   57.7750   28.9170   44.4540 C   0  0  0  0  0  0  0  0  0  0  0  0
   56.8070   29.7920   43.9260 C   0  0  0  0  0  0  0  0  0  0  0  0
   56.8150   31.1450   44.2760 C   0  0  0  0  0  0  0  0  0  0  0  0
   57.7930   31.6430   45.1470 C   0  0  0  0  0  0  0  0  0  0  0  0
   57.8150   33.3580   45.5460 S   0  0  0  0  0  0  0  0  0  0  0  0
   57.0120   34.1050   44.5190 O   0  0  0  0  0  0  0  0  0  0  0  0
   57.2200   33.5980   46.9060 O   0  0  0  0  0  0  0  0  0  0  0  0
   59.4500   33.9400   45.5320 N   0  0  0  0  0  0  0  0  0  0  0  0
   60.1990   34.1790   46.7330 C   0  0  0  0  0  0  0  0  0  0  0  0
   59.6010   34.5170   47.8370 N   0  0  0  0  0  0  0  0  0  0  0  0
   61.6330   34.1110   46.6780 N   0  0  0  0  0  0  0  0  0  0  0  0
   62.4530   33.5790   47.7330 C   0  0  0  0  0  0  0  0  0  0  0  0
   63.2910   32.4690   47.5220 C   0  0  0  0  0  0  0  0  0  0  0  0
   64.1010   31.9880   48.5540 C   0  0  0  0  0  0  0  0  0  0  0  0
   64.0850   32.6030   49.8180 C   0  0  0  0  0  0  0  0  0  0  0  0
   64.9970   32.1150   50.9160 C   0  0  0  0  0  0  0  0  0  0  0  0
   66.3090   32.3740   50.5660 F   0  0  0  0  0  0  0  0  0  0  0  0
   64.7130   32.7560   52.1090 F   0  0  0  0  0  0  0  0  0  0  0  0
   64.8420   30.7530   51.1090 F   0  0  0  0  0  0  0  0  0  0  0  0
   63.2830   33.7390   50.0130 C   0  0  0  0  0  0  0  0  0  0  0  0
   62.4730   34.2200   48.9790 C   0  0  0  0  0  0  0  0  0  0  0  0
   58.7540   30.7740   45.6780 C   0  0  0  0  0  0  0  0  0  0  0  0
   58.7440   29.4180   45.3320 C   0  0  0  0  0  0  0  0  0  0  0  0
   56.0413   29.4093   43.2352 H   0  0  0  0  0  0  0  0  0  0  0  0
   56.0506   31.8215   43.8661 H   0  0  0  0  0  0  0  0  0  0  0  0
   59.9620   33.9060   44.6220 H   0  0  0  0  0  0  0  0  0  0  0  0
   59.9280   35.3190   48.4180 H   0  0  0  0  0  0  0  0  0  0  0  0
   58.7970   33.9630   48.2040 H   0  0  0  0  0  0  0  0  0  0  0  0
   62.0990   34.4090   45.7910 H   0  0  0  0  0  0  0  0  0  0  0  0
   63.3087   31.9766   46.5385 H   0  0  0  0  0  0  0  0  0  0  0  0
   64.7557   31.1221   48.3761 H   0  0  0  0  0  0  0  0  0  0  0  0
   63.2918   34.2539   50.9850 H   0  0  0  0  0  0  0  0  0  0  0  0
   61.8465   35.1088   49.1453 H   0  0  0  0  0  0  0  0  0  0  0  0
   59.5189   31.1582   46.3690 H   0  0  0  0  0  0  0  0  0  0  0  0
   59.5024   28.7412   45.7525 H   0  0  0  0  0  0  0  0  0  0  0  0
  1  2  2  0
  2  3  2  0
  3  4  1  0
  4  5  2  0
  5  6  1  0
  6  7  2  0
  7  8  1  0
  8  9  2  0
  8 10  2  0
  8 11  1  0
 11 12  1  0
 12 13  2  0
 12 14  1  0
 14 15  1  0
 15 16  2  0
 16 17  1  0
 17 18  2  0
 18 19  1  0
 19 20  1  0
 19 21  1  0
 19 22  1  0
 18 23  1  0
 23 24  2  0
  7 25  1  0
 25 26  2  0
 26  4  1  0
 24 15  1  0
  5 27  1  0
  6 28  1  0
 11 29  1  0
 13 30  1  0
 13 31  1  0
 14 32  1  0
 16 33  1  0
 17 34  1  0
 23 35  1  0
 24 36  1  0
 25 37  1  0
 26 38  1  0
M  CHG  3   1  -1   2   1  13   1
M  END
>  <UniqueID>  (32) 
27

>  <SMILES>  (32) 
[N-]=[N+]=Nc1ccc(S(=O)(=O)NC(=[NH2+])Nc2ccc(C(F)(F)F)cc2)cc1

>  <Energy>  (32) 
45.022955470326586

>  <Genealogy>  (32) 
[N-]=[N+]=Nc1ccc(S(=O)(=O)NC(=[NH2+])Nc2ccc(C(F)(F)F)cc2)cc1 (protonated)
[N-]=[N+]=Nc1ccc(S(=O)(=O)NC(=[NH2+])Nc2ccc(C(F)(F)F)cc2)cc1 (3D coordinates assigned)
[N-]=[N+]=Nc1ccc(S(=O)(=O)NC(=[NH2+])Nc2ccc(C(F)(F)F)cc2)cc1 (optimized conformer: 45.022955470326586 kcal/mol)

>  <smiles>  (32) 
[N-]=[N+]=Nc1ccc(S(=O)(=O)NC(=N)Nc2ccc(C(F)(F)F)cc2)cc1

>  <score_type>  (32) 
oracle

>  <origin>  (32) 
adg

>  <m_score__min__energy>  (32) 
-6.0800000000000001

>  <m_primary>  (32) 
energy

$$$$
32:0
     RDKit          3D

 20 21  0  0  0  0  0  0  0  0999 V2000
   57.7250   33.7240   44.8660 C   0  0  0  0  0  0  0  0  0  0  0  0
   57.8120   32.6760   44.0380 C   0  0  0  0  0  0  0  0  0  0  0  0
   57.6940   31.3310   44.5870 C   0  0  0  0  0  0  0  0  0  0  0  0
   56.6120   30.5350   44.4760 N   0  0  0  0  0  0  0  0  0  0  0  0
   56.8550   29.3690   45.1010 C   0  0  0  0  0  0  0  0  0  0  0  0
   56.1110   28.2440   45.2830 N   0  0  0  0  0  0  0  0  0  0  0  0
   56.6630   27.2280   45.9740 C   0  0  0  0  0  0  0  0  0  0  0  0
   55.9310   26.1670   46.1310 N   0  0  0  0  0  0  0  0  0  0  0  0
   57.9060   27.2750   46.4870 N   0  0  0  0  0  0  0  0  0  0  0  0
   58.6550   28.3980   46.3090 C   0  0  0  0  0  0  0  0  0  0  0  0
   59.8200   28.4520   46.7860 O   0  0  0  0  0  0  0  0  0  0  0  0
   58.1430   29.4670   45.6110 C   0  0  0  0  0  0  0  0  0  0  0  0
   58.6290   30.6650   45.2860 N   0  0  0  0  0  0  0  0  0  0  0  0
   57.8117   34.7466   44.4699 H   0  0  0  0  0  0  0  0  0  0  0  0
   57.5668   33.5627   45.9426 H   0  0  0  0  0  0  0  0  0  0  0  0
   57.9701   32.8274   42.9600 H   0  0  0  0  0  0  0  0  0  0  0  0
   55.1470   28.2130   44.8830 H   0  0  0  0  0  0  0  0  0  0  0  0
   55.1090   26.2340   46.7710 H   0  0  0  0  0  0  0  0  0  0  0  0
   58.3290   26.4740   47.0270 H   0  0  0  0  0  0  0  0  0  0  0  0
   59.5870   30.9860   45.5550 H   0  0  0  0  0  0  0  0  0  0  0  0
  1  2  2  0
  2  3  1  0
  3  4  2  0
  4  5  1  0
  5  6  1  0
  6  7  1  0
  7  8  2  3
  7  9  1  0
  9 10  1  0
 10 11  2  0
 10 12  1  0
 12 13  1  0
 13  3  1  0
 12  5  2  0
  1 14  1  0
  1 15  1  0
  2 16  1  0
  6 17  1  0
  8 18  1  0
  9 19  1  0
 13 20  1  0
M  END
>  <smiles>  (33) 
C=Cc1nc2[nH]c(=N)[nH]c(=O)c2[nH]1

>  <score_type>  (33) 
oracle

>  <origin>  (33) 
adg

>  <m_score__min__energy>  (33) 
-5.4299999999999997

>  <m_primary>  (33) 
energy

$$$$
33:0
     RDKit          3D

 52 54  0  0  0  0  0  0  0  0999 V2000
   58.8560   32.3800   49.5250 C   0  0  0  0  0  0  0  0  0  0  0  0
   59.5560   33.4240   50.3800 C   0  0  0  0  0  0  0  0  0  0  0  0
   60.3310   34.2770   49.5410 O   0  0  0  0  0  0  0  0  0  0  0  0
   61.5950   33.9550   49.0160 C   0  0  0  0  0  0  0  0  0  0  0  0
   62.7350   33.8720   49.8420 C   0  0  0  0  0  0  0  0  0  0  0  0
   63.9820   33.5560   49.3000 C   0  0  0  0  0  0  0  0  0  0  0  0
   64.1080   33.3120   47.9340 C   0  0  0  0  0  0  0  0  0  0  0  0
   62.9890   33.3880   47.1020 C   0  0  0  0  0  0  0  0  0  0  0  0
   61.7240   33.7130   47.6280 C   0  0  0  0  0  0  0  0  0  0  0  0
   60.5560   33.8050   46.7180 C   0  0  0  0  0  0  0  0  0  0  0  0
   59.7630   32.7560   46.4130 N   0  0  0  0  0  0  0  0  0  0  0  0
   58.8640   33.2870   45.5620 C   0  0  0  0  0  0  0  0  0  0  0  0
   57.7460   32.5090   44.9280 C   0  0  0  0  0  0  0  0  0  0  0  0
   57.6510   31.1340   45.4550 N   0  0  0  0  0  0  0  0  0  0  0  0
   58.2400   30.1170   44.5630 C   0  0  0  0  0  0  0  0  0  0  0  0
   57.9820   28.7030   45.0520 C   0  0  0  0  0  0  0  0  0  0  0  0
   59.0810   27.8720   45.3130 C   0  0  0  0  0  0  0  0  0  0  0  0
   58.8930   26.5660   45.7460 C   0  0  0  0  0  0  0  0  0  0  0  0
   57.6060   26.0640   45.9170 C   0  0  0  0  0  0  0  0  0  0  0  0
   56.4780   26.8740   45.6710 C   0  0  0  0  0  0  0  0  0  0  0  0
   55.1810   26.3630   45.8310 O   0  0  0  0  0  0  0  0  0  0  0  0
   54.8070   25.0050   45.6210 C   0  0  0  0  0  0  0  0  0  0  0  0
   56.6680   28.2170   45.2480 C   0  0  0  0  0  0  0  0  0  0  0  0
   55.6030   29.1080   45.0190 O   0  0  0  0  0  0  0  0  0  0  0  0
   55.2590   29.7260   43.7840 C   0  0  0  0  0  0  0  0  0  0  0  0
   59.1280   34.6250   45.3870 C   0  0  0  0  0  0  0  0  0  0  0  0
   60.1790   34.9110   46.1120 O   0  0  0  0  0  0  0  0  0  0  0  0
   58.3623   31.6437   50.1763 H   0  0  0  0  0  0  0  0  0  0  0  0
   58.1036   32.8706   48.8900 H   0  0  0  0  0  0  0  0  0  0  0  0
   59.5956   31.8702   48.8900 H   0  0  0  0  0  0  0  0  0  0  0  0
   58.8055   34.0213   50.9185 H   0  0  0  0  0  0  0  0  0  0  0  0
   60.2140   32.9247   51.1065 H   0  0  0  0  0  0  0  0  0  0  0  0
   62.6408   34.0578   50.9221 H   0  0  0  0  0  0  0  0  0  0  0  0
   64.8661   33.4996   49.9520 H   0  0  0  0  0  0  0  0  0  0  0  0
   65.0910   33.0590   47.5100 H   0  0  0  0  0  0  0  0  0  0  0  0
   63.0969   33.1920   46.0250 H   0  0  0  0  0  0  0  0  0  0  0  0
   56.7971   33.0295   45.1246 H   0  0  0  0  0  0  0  0  0  0  0  0
   57.9519   32.4424   43.8495 H   0  0  0  0  0  0  0  0  0  0  0  0
   56.6440   30.8940   45.6170 H   0  0  0  0  0  0  0  0  0  0  0  0
   58.1280   31.1010   46.3860 H   0  0  0  0  0  0  0  0  0  0  0  0
   57.8024   30.2299   43.5601 H   0  0  0  0  0  0  0  0  0  0  0  0
   59.3286   30.2739   44.5462 H   0  0  0  0  0  0  0  0  0  0  0  0
   60.1015   28.2582   45.1735 H   0  0  0  0  0  0  0  0  0  0  0  0
   59.7634   25.9265   45.9544 H   0  0  0  0  0  0  0  0  0  0  0  0
   57.4672   25.0241   46.2476 H   0  0  0  0  0  0  0  0  0  0  0  0
   54.6701   24.5079   46.5927 H   0  0  0  0  0  0  0  0  0  0  0  0
   53.8651   24.9676   45.0541 H   0  0  0  0  0  0  0  0  0  0  0  0
   55.5969   24.4906   45.0541 H   0  0  0  0  0  0  0  0  0  0  0  0
   54.7327   30.6716   43.9812 H   0  0  0  0  0  0  0  0  0  0  0  0
   56.1740   29.9289   43.2081 H   0  0  0  0  0  0  0  0  0  0  0  0
   54.6045   29.0552   43.2081 H   0  0  0  0  0  0  0  0  0  0  0  0
   58.5612   35.3247   44.7552 H   0  0  0  0  0  0  0  0  0  0  0  0
  1  2  1  0
  2  3  1  0
  3  4  1  0
  4  5  2  0
  5  6  1  0
  6  7  2  0
  7  8  1  0
  8  9  2  0
  9 10  1  0
 10 11  2  0
 11 12  1  0
 12 13  1  0
 13 14  1  0
 14 15  1  0
 15 16  1  0
 16 17  2  0
 17 18  1  0
 18 19  2  0
 19 20  1  0
 20 21  1  0
 21 22  1  0
 20 23  2  0
 23 24  1  0
 24 25  1  0
 12 26  2  0
 26 27  1  0
  9  4  1  0
 27 10  1  0
 23 16  1  0
  1 28  1  0
  1 29  1  0
  1 30  1  0
  2 31  1  0
  2 32  1  0
  5 33  1  0
  6 34  1  0
  7 35  1  0
  8 36  1  0
 13 37  1  0
 13 38  1  0
 14 39  1  0
 14 40  1  0
 15 41  1  0
 15 42  1  0
 17 43  1  0
 18 44  1  0
 19 45  1  0
 22 46  1  0
 22 47  1  0
 22 48  1  0
 25 49  1  0
 25 50  1  0
 25 51  1  0
 26 52  1  0
M  CHG  1  14   1
M  END
>  <UniqueID>  (34) 
28

>  <SMILES>  (34) 
CCOc1ccccc1-c1nc(C[NH2+]Cc2cccc(OC)c2OC)co1

>  <Energy>  (34) 
82.22405155562365

>  <Genealogy>  (34) 
CCOc1ccccc1-c1nc(C[NH2+]Cc2cccc(OC)c2OC)co1 (protonated)
CCOc1ccccc1-c1nc(C[NH2+]Cc2cccc(OC)c2OC)co1 (3D coordinates assigned)
CCOc1ccccc1-c1nc(C[NH2+]Cc2cccc(OC)c2OC)co1 (optimized conformer: 82.22405155562365 kcal/mol)

>  <smiles>  (34) 
CCOc1ccccc1-c1nc(CNCc2cccc(OC)c2OC)co1

>  <score_type>  (34) 
oracle

>  <origin>  (34) 
adg

>  <m_score__min__energy>  (34) 
-6.4800000000000004

>  <m_primary>  (34) 
energy

$$$$
34:0
     RDKit          3D

 36 38  0  0  0  0  0  0  0  0999 V2000
   56.4790   30.0860   43.6110 C   0  0  0  0  0  0  0  0  0  0  0  0
   56.4050   30.8700   44.7970 O   0  0  0  0  0  0  0  0  0  0  0  0
   57.4110   31.7440   45.2330 C   0  0  0  0  0  0  0  0  0  0  0  0
   58.6880   31.2930   45.6190 C   0  0  0  0  0  0  0  0  0  0  0  0
   59.6580   32.2040   46.0480 C   0  0  0  0  0  0  0  0  0  0  0  0
   59.3710   33.5770   46.0940 C   0  0  0  0  0  0  0  0  0  0  0  0
   60.4050   34.5550   46.5860 C   0  0  0  0  0  0  0  0  0  0  0  0
   61.4300   33.8650   47.3780 N   0  0  0  0  0  0  0  0  0  0  0  0
   62.7280   33.5710   46.8310 C   0  0  0  0  0  0  0  0  0  0  0  0
   62.9730   33.8390   45.6230 O   0  0  0  0  0  0  0  0  0  0  0  0
   63.7710   32.9850   47.6270 N   0  0  0  0  0  0  0  0  0  0  0  0
   63.7030   32.7180   49.0400 C   0  0  0  0  0  0  0  0  0  0  0  0
   64.8690   32.3120   49.7130 C   0  0  0  0  0  0  0  0  0  0  0  0
   64.8430   32.0390   51.0840 C   0  0  0  0  0  0  0  0  0  0  0  0
   63.6500   32.1650   51.7980 C   0  0  0  0  0  0  0  0  0  0  0  0
   62.4840   32.5610   51.1420 C   0  0  0  0  0  0  0  0  0  0  0  0
   62.5050   32.8390   49.7680 C   0  0  0  0  0  0  0  0  0  0  0  0
   61.0300   33.3050   48.9630 S   0  0  0  0  0  0  0  0  0  0  0  0
   60.3690   34.4120   49.7360 O   0  0  0  0  0  0  0  0  0  0  0  0
   60.1140   32.1180   48.8710 O   0  0  0  0  0  0  0  0  0  0  0  0
   58.0980   34.0250   45.7110 C   0  0  0  0  0  0  0  0  0  0  0  0
   57.1280   33.1140   45.2830 C   0  0  0  0  0  0  0  0  0  0  0  0
   56.5792   29.0239   43.8792 H   0  0  0  0  0  0  0  0  0  0  0  0
   55.5633   30.2298   43.0187 H   0  0  0  0  0  0  0  0  0  0  0  0
   57.3516   30.3986   43.0187 H   0  0  0  0  0  0  0  0  0  0  0  0
   58.9234   30.2191   45.5828 H   0  0  0  0  0  0  0  0  0  0  0  0
   60.6517   31.8425   46.3512 H   0  0  0  0  0  0  0  0  0  0  0  0
   60.8818   35.0424   45.7228 H   0  0  0  0  0  0  0  0  0  0  0  0
   59.9110   35.3056   47.2204 H   0  0  0  0  0  0  0  0  0  0  0  0
   64.6750   32.7900   47.1390 H   0  0  0  0  0  0  0  0  0  0  0  0
   65.8113   32.2081   49.1551 H   0  0  0  0  0  0  0  0  0  0  0  0
   65.7624   31.7250   51.5999 H   0  0  0  0  0  0  0  0  0  0  0  0
   63.6293   31.9522   52.8770 H   0  0  0  0  0  0  0  0  0  0  0  0
   61.5440   32.6555   51.7054 H   0  0  0  0  0  0  0  0  0  0  0  0
   57.8619   35.0987   45.7477 H   0  0  0  0  0  0  0  0  0  0  0  0
   56.1338   33.4768   44.9829 H   0  0  0  0  0  0  0  0  0  0  0  0
  1  2  1  0
  2  3  1  0
  3  4  2  0
  4  5  1  0
  5  6  2  0
  6  7  1  0
  7  8  1  0
  8  9  1  0
  9 10  2  0
  9 11  1  0
 11 12  1  0
 12 13  2  0
 13 14  1  0
 14 15  2  0
 15 16  1  0
 16 17  2  0
 17 18  1  0
 18 19  2  0
 18 20  2  0
  6 21  1  0
 21 22  2  0
 22  3  1  0
 18  8  1  0
 17 12  1  0
  1 23  1  0
  1 24  1  0
  1 25  1  0
  4 26  1  0
  5 27  1  0
  7 28  1  0
  7 29  1  0
 11 30  1  0
 13 31  1  0
 14 32  1  0
 15 33  1  0
 16 34  1  0
 21 35  1  0
 22 36  1  0
M  END
>  <UniqueID>  (35) 
29

>  <SMILES>  (35) 
COc1ccc(CN2C(=O)Nc3ccccc3S2(=O)=O)cc1

>  <Energy>  (35) 
40.56183817897872

>  <Genealogy>  (35) 
COc1ccc(CN2C(=O)Nc3ccccc3S2(=O)=O)cc1 (3D coordinates assigned)
COc1ccc(CN2C(=O)Nc3ccccc3S2(=O)=O)cc1 (nonaromatic ring conformer: 40.56183817897872 kcal/mol)

>  <smiles>  (35) 
COc1ccc(CN2C(=O)Nc3ccccc3S2(=O)=O)cc1

>  <score_type>  (35) 
oracle

>  <origin>  (35) 
adg

>  <m_score__min__energy>  (35) 
-7.5199999999999996

>  <m_primary>  (35) 
energy

$$$$
35:0
     RDKit          3D

 38 39  0  0  0  0  0  0  0  0999 V2000
   58.0050   26.6750   42.2660 C   0  0  0  0  0  0  0  0  0  0  0  0
   57.9300   27.0550   43.6880 N   0  0  0  0  0  0  0  0  0  0  0  0
   57.7990   25.8430   44.5180 C   0  0  0  0  0  0  0  0  0  0  0  0
   59.1240   27.8460   44.0630 C   0  0  0  0  0  0  0  0  0  0  0  0
   59.2080   28.0730   45.5590 C   0  0  0  0  0  0  0  0  0  0  0  0
   60.4280   27.8350   46.2170 C   0  0  0  0  0  0  0  0  0  0  0  0
   60.5490   28.0540   47.5900 C   0  0  0  0  0  0  0  0  0  0  0  0
   59.4580   28.5230   48.3200 C   0  0  0  0  0  0  0  0  0  0  0  0
   58.2420   28.7760   47.6820 C   0  0  0  0  0  0  0  0  0  0  0  0
   58.1040   28.5570   46.2970 C   0  0  0  0  0  0  0  0  0  0  0  0
   56.8660   28.8230   45.6210 N   0  0  0  0  0  0  0  0  0  0  0  0
   56.6030   30.0800   44.4580 S   0  0  0  0  0  0  0  0  0  0  0  0
   57.0100   29.6050   43.0900 O   0  0  0  0  0  0  0  0  0  0  0  0
   55.1510   30.4690   44.4370 O   0  0  0  0  0  0  0  0  0  0  0  0
   57.5690   31.4750   44.9180 C   0  0  0  0  0  0  0  0  0  0  0  0
   58.0670   31.5930   46.2240 C   0  0  0  0  0  0  0  0  0  0  0  0
   58.8140   32.7160   46.5920 C   0  0  0  0  0  0  0  0  0  0  0  0
   59.0640   33.7270   45.6590 C   0  0  0  0  0  0  0  0  0  0  0  0
   58.5610   33.6200   44.3600 C   0  0  0  0  0  0  0  0  0  0  0  0
   57.8120   32.4980   43.9900 C   0  0  0  0  0  0  0  0  0  0  0  0
   58.2174   25.5988   42.1848 H   0  0  0  0  0  0  0  0  0  0  0  0
   57.0456   26.8974   41.7759 H   0  0  0  0  0  0  0  0  0  0  0  0
   58.8079   27.2452   41.7759 H   0  0  0  0  0  0  0  0  0  0  0  0
   57.0700   27.6410   43.8160 H   0  0  0  0  0  0  0  0  0  0  0  0
   57.8292   26.1220   45.5816 H   0  0  0  0  0  0  0  0  0  0  0  0
   56.8421   25.3480   44.2957 H   0  0  0  0  0  0  0  0  0  0  0  0
   58.6280   25.1550   44.2957 H   0  0  0  0  0  0  0  0  0  0  0  0
   60.0247   27.3067   43.7345 H   0  0  0  0  0  0  0  0  0  0  0  0
   59.0479   28.8284   43.5741 H   0  0  0  0  0  0  0  0  0  0  0  0
   61.2946   27.4730   45.6443 H   0  0  0  0  0  0  0  0  0  0  0  0
   61.5054   27.8565   48.0962 H   0  0  0  0  0  0  0  0  0  0  0  0
   59.5553   28.6943   49.4022 H   0  0  0  0  0  0  0  0  0  0  0  0
   57.3864   29.1486   48.2643 H   0  0  0  0  0  0  0  0  0  0  0  0
   57.8693   30.8001   46.9604 H   0  0  0  0  0  0  0  0  0  0  0  0
   59.2053   32.8043   47.6162 H   0  0  0  0  0  0  0  0  0  0  0  0
   59.6571   34.6072   45.9480 H   0  0  0  0  0  0  0  0  0  0  0  0
   58.7540   34.4182   43.6281 H   0  0  0  0  0  0  0  0  0  0  0  0
   57.4125   32.4179   42.9683 H   0  0  0  0  0  0  0  0  0  0  0  0
  1  2  1  0
  2  3  1  0
  2  4  1  0
  4  5  1  0
  5  6  2  0
  6  7  1  0
  7  8  2  0
  8  9  1  0
  9 10  2  0
 10 11  1  0
 11 12  1  0
 12 13  2  0
 12 14  2  0
 12 15  1  0
 15 16  2  0
 16 17  1  0
 17 18  2  0
 18 19  1  0
 19 20  2  0
 10  5  1  0
 20 15  1  0
  1 21  1  0
  1 22  1  0
  1 23  1  0
  2 24  1  0
  3 25  1  0
  3 26  1  0
  3 27  1  0
  4 28  1  0
  4 29  1  0
  6 30  1  0
  7 31  1  0
  8 32  1  0
  9 33  1  0
 16 34  1  0
 17 35  1  0
 18 36  1  0
 19 37  1  0
 20 38  1  0
M  CHG  2   2   1  11  -1
M  END
>  <UniqueID>  (36) 
30

>  <SMILES>  (36) 
C[NH+](C)Cc1ccccc1[N-]S(=O)(=O)c1ccccc1

>  <Energy>  (36) 
42.86311634086225

>  <Genealogy>  (36) 
C[NH+](C)Cc1ccccc1[N-]S(=O)(=O)c1ccccc1 (protonated)
C[NH+](C)Cc1ccccc1[N-]S(=O)(=O)c1ccccc1 (3D coordinates assigned)
C[NH+](C)Cc1ccccc1[N-]S(=O)(=O)c1ccccc1 (optimized conformer: 42.86311634086225 kcal/mol)

>  <smiles>  (36) 
CN(C)Cc1ccccc1NS(=O)(=O)c1ccccc1

>  <score_type>  (36) 
oracle

>  <origin>  (36) 
adg

>  <m_score__min__energy>  (36) 
-6.6200000000000001

>  <m_primary>  (36) 
energy

$$$$
36:0
     RDKit          3D

 48 49  0  0  0  0  0  0  0  0999 V2000
   58.7990   30.1450   47.5240 C   0  0  0  0  0  0  0  0  0  0  0  0
   58.4770   29.4870   46.2080 C   0  0  0  0  0  0  0  0  0  0  0  0
   59.0210   28.2240   45.9370 C   0  0  0  0  0  0  0  0  0  0  0  0
   58.7660   27.5870   44.7220 C   0  0  0  0  0  0  0  0  0  0  0  0
   57.9870   28.2170   43.7530 C   0  0  0  0  0  0  0  0  0  0  0  0
   57.4460   29.4900   43.9910 C   0  0  0  0  0  0  0  0  0  0  0  0
   56.6110   30.1420   42.9200 C   0  0  0  0  0  0  0  0  0  0  0  0
   57.6390   30.1040   45.2480 C   0  0  0  0  0  0  0  0  0  0  0  0
   57.0460   31.3830   45.5100 N   0  0  0  0  0  0  0  0  0  0  0  0
   57.7400   32.5150   46.0490 C   0  0  0  0  0  0  0  0  0  0  0  0
   57.2950   33.0540   47.0970 O   0  0  0  0  0  0  0  0  0  0  0  0
   59.0300   33.0280   45.4510 C   0  0  0  0  0  0  0  0  0  0  0  0
   59.7870   33.8740   46.4000 N   0  0  2  0  0  0  0  0  0  0  0  0
   59.7870   35.2940   45.9950 C   0  0  0  0  0  0  0  0  0  0  0  0
   61.1510   33.3910   46.5010 C   0  0  0  0  0  0  0  0  0  0  0  0
   62.1170   34.1970   46.3890 O   0  0  0  0  0  0  0  0  0  0  0  0
   61.4600   31.9670   46.7450 C   0  0  0  0  0  0  0  0  0  0  0  0
   61.7440   31.4830   47.9600 C   0  0  0  0  0  0  0  0  0  0  0  0
   62.3840   32.3170   48.9990 C   0  0  0  0  0  0  0  0  0  0  0  0
   63.7270   32.0690   49.3430 C   0  0  0  0  0  0  0  0  0  0  0  0
   64.3950   32.8970   50.2440 C   0  0  0  0  0  0  0  0  0  0  0  0
   63.7390   33.9870   50.8090 C   0  0  0  0  0  0  0  0  0  0  0  0
   62.4050   34.2460   50.4860 C   0  0  0  0  0  0  0  0  0  0  0  0
   61.7050   33.4150   49.5910 C   0  0  0  0  0  0  0  0  0  0  0  0
   60.3100   33.6720   49.3370 N   0  0  0  0  0  0  0  0  0  0  0  0
   59.5090   32.7220   49.2170 O   0  0  0  0  0  0  0  0  0  0  0  0
   59.8680   34.9430   49.0490 O   0  0  0  0  0  0  0  0  0  0  0  0
   58.4791   29.4913   48.3488 H   0  0  0  0  0  0  0  0  0  0  0  0
   59.8833   30.3174   47.5922 H   0  0  0  0  0  0  0  0  0  0  0  0
   58.2698   31.1069   47.5922 H   0  0  0  0  0  0  0  0  0  0  0  0
   59.6546   27.7306   46.6888 H   0  0  0  0  0  0  0  0  0  0  0  0
   59.1802   26.5865   44.5287 H   0  0  0  0  0  0  0  0  0  0  0  0
   57.7948   27.7127   42.7945 H   0  0  0  0  0  0  0  0  0  0  0  0
   55.8266   30.7545   43.3886 H   0  0  0  0  0  0  0  0  0  0  0  0
   57.2511   30.7817   42.2947 H   0  0  0  0  0  0  0  0  0  0  0  0
   56.1456   29.3659   42.2947 H   0  0  0  0  0  0  0  0  0  0  0  0
   59.6549   32.1688   45.1658 H   0  0  0  0  0  0  0  0  0  0  0  0
   58.7756   33.6450   44.5766 H   0  0  0  0  0  0  0  0  0  0  0  0
   59.3380   33.8230   47.3410 H   0  0  0  0  0  0  0  0  0  0  0  0
   60.8241   35.6466   45.8944 H   0  0  0  0  0  0  0  0  0  0  0  0
   59.2685   35.4003   45.0307 H   0  0  0  0  0  0  0  0  0  0  0  0
   59.2685   35.8929   46.7581 H   0  0  0  0  0  0  0  0  0  0  0  0
   61.4565   31.2742   45.8906 H   0  0  0  0  0  0  0  0  0  0  0  0
   61.4946   30.4370   48.1915 H   0  0  0  0  0  0  0  0  0  0  0  0
   64.2543   31.2132   48.8962 H   0  0  0  0  0  0  0  0  0  0  0  0
   65.4421   32.6886   50.5088 H   0  0  0  0  0  0  0  0  0  0  0  0
   64.2719   34.6453   51.5108 H   0  0  0  0  0  0  0  0  0  0  0  0
   61.8950   35.1102   50.9367 H   0  0  0  0  0  0  0  0  0  0  0  0
  1  2  1  0
  2  3  2  0
  3  4  1  0
  4  5  2  0
  5  6  1  0
  6  7  1  0
  6  8  2  0
  8  9  1  0
  9 10  1  0
 10 11  2  0
 10 12  1  0
 12 13  1  0
 13 14  1  0
 13 15  1  0
 15 16  2  0
 15 17  1  0
 17 18  2  3
 18 19  1  0
 19 20  2  0
 20 21  1  0
 21 22  2  0
 22 23  1  0
 23 24  2  0
 24 25  1  0
 25 26  2  0
 25 27  1  0
  8  2  1  0
 24 19  1  0
  1 28  1  0
  1 29  1  0
  1 30  1  0
  3 31  1  0
  4 32  1  0
  5 33  1  0
  7 34  1  0
  7 35  1  0
  7 36  1  0
 12 37  1  0
 12 38  1  0
 13 39  1  1
 14 40  1  0
 14 41  1  0
 14 42  1  0
 17 43  1  0
 18 44  1  0
 20 45  1  0
 21 46  1  0
 22 47  1  0
 23 48  1  0
M  CHG  4   9  -1  13   1  25   1  27  -1
M  END
>  <UniqueID>  (37) 
31

>  <SMILES>  (37) 
Cc1cccc(C)c1[N-]C(=O)C[N@H+](C)C(=O)C=Cc1ccccc1[N+](=O)[O-]

>  <Energy>  (37) 
62.457137824605496

>  <Genealogy>  (37) 
Cc1cccc(C)c1[N-]C(=O)C[NH+](C)C(=O)C=Cc1ccccc1[N+](=O)[O-] (protonated)
Cc1cccc(C)c1[N-]C(=O)C[N@H+](C)C(=O)C=Cc1ccccc1[N+](=O)[O-] (chirality)
Cc1cccc(C)c1[N-]C(=O)C[N@H+](C)C(=O)C=Cc1ccccc1[N+](=O)[O-] (3D coordinates assigned)
Cc1cccc(C)c1[N-]C(=O)C[N@H+](C)C(=O)C=Cc1ccccc1[N+](=O)[O-] (optimized conformer: 62.457137824605496 kcal/mol)

>  <smiles>  (37) 
Cc1cccc(C)c1NC(=O)CN(C)C(=O)C=Cc1ccccc1[N+](=O)[O-]

>  <score_type>  (37) 
oracle

>  <origin>  (37) 
adg

>  <m_score__min__energy>  (37) 
-8.2300000000000004

>  <m_primary>  (37) 
energy

$$$$
37:0
     RDKit          3D

 58 63  0  0  0  0  0  0  0  0999 V2000
   60.3770   26.4580   46.5340 C   0  0  0  0  0  0  0  0  0  0  0  0
   59.1970   27.0940   47.0130 O   0  0  0  0  0  0  0  0  0  0  0  0
   58.5080   28.1100   46.3310 C   0  0  0  0  0  0  0  0  0  0  0  0
   57.4560   27.8190   45.4140 C   0  0  0  0  0  0  0  0  0  0  0  0
   56.7770   28.8530   44.7450 C   0  0  0  0  0  0  0  0  0  0  0  0
   57.1650   30.1600   45.0120 C   0  0  0  0  0  0  0  0  0  0  0  0
   56.6510   31.2910   44.5000 N   0  0  0  0  0  0  0  0  0  0  0  0
   57.3970   32.2430   45.1200 C   0  0  0  0  0  0  0  0  0  0  0  0
   57.2060   33.7090   44.8970 C   0  0  0  0  0  0  0  0  0  0  0  0
   58.4720   34.4180   45.0800 N   0  0  0  0  0  0  0  0  0  0  0  0
   59.3630   34.2200   46.1960 C   0  0  0  0  0  0  0  0  0  0  0  0
   58.8770   34.3970   47.4980 C   0  0  0  0  0  0  0  0  0  0  0  0
   59.7160   34.2250   48.6030 C   0  0  0  0  0  0  0  0  0  0  0  0
   61.0660   33.8700   48.4270 C   0  0  0  0  0  0  0  0  0  0  0  0
   61.9580   33.6890   49.6000 C   0  0  0  0  0  0  0  0  0  0  0  0
   63.0560   34.3730   49.6860 N   0  0  0  0  0  0  0  0  0  0  0  0
   63.9380   34.2890   50.8370 C   0  0  0  0  0  0  0  0  0  0  0  0
   64.5900   32.9310   50.9040 C   0  0  0  0  0  0  0  0  0  0  0  0
   65.9950   32.8760   50.8840 C   0  0  0  0  0  0  0  0  0  0  0  0
   66.6670   31.6700   51.0570 C   0  0  0  0  0  0  0  0  0  0  0  0
   65.9530   30.4990   51.2770 C   0  0  0  0  0  0  0  0  0  0  0  0
   64.5520   30.5150   51.3000 C   0  0  0  0  0  0  0  0  0  0  0  0
   63.8600   29.3240   51.5600 C   0  0  0  0  0  0  0  0  0  0  0  0
   62.4720   29.3120   51.6010 C   0  0  0  0  0  0  0  0  0  0  0  0
   61.7550   30.4780   51.3450 C   0  0  0  0  0  0  0  0  0  0  0  0
   62.4100   31.6830   51.0470 C   0  0  0  0  0  0  0  0  0  0  0  0
   63.8390   31.7290   51.0710 C   0  0  0  0  0  0  0  0  0  0  0  0
   61.5880   32.8000   50.6620 N   0  0  0  0  0  0  0  0  0  0  0  0
   61.5490   33.6750   47.1200 C   0  0  0  0  0  0  0  0  0  0  0  0
   60.7080   33.8480   46.0170 C   0  0  0  0  0  0  0  0  0  0  0  0
   58.3040   31.7480   45.9450 O   0  0  0  0  0  0  0  0  0  0  0  0
   58.1670   30.4500   45.8860 C   0  0  0  0  0  0  0  0  0  0  0  0
   58.8760   29.4580   46.5690 C   0  0  0  0  0  0  0  0  0  0  0  0
   59.9670   29.8070   47.5400 C   0  0  0  0  0  0  0  0  0  0  0  0
   60.9881   26.1286   47.3872 H   0  0  0  0  0  0  0  0  0  0  0  0
   60.1012   25.5863   45.9223 H   0  0  0  0  0  0  0  0  0  0  0  0
   60.9535   27.1676   45.9223 H   0  0  0  0  0  0  0  0  0  0  0  0
   57.1719   26.7728   45.2274 H   0  0  0  0  0  0  0  0  0  0  0  0
   55.9662   28.6343   44.0345 H   0  0  0  0  0  0  0  0  0  0  0  0
   56.8410   33.8760   43.8728 H   0  0  0  0  0  0  0  0  0  0  0  0
   56.4736   34.0897   45.6241 H   0  0  0  0  0  0  0  0  0  0  0  0
   58.7600   35.0820   44.3250 H   0  0  0  0  0  0  0  0  0  0  0  0
   57.8238   34.6743   47.6525 H   0  0  0  0  0  0  0  0  0  0  0  0
   59.3175   34.3684   49.6182 H   0  0  0  0  0  0  0  0  0  0  0  0
   64.7171   35.0610   50.7533 H   0  0  0  0  0  0  0  0  0  0  0  0
   63.3463   34.4453   51.7511 H   0  0  0  0  0  0  0  0  0  0  0  0
   66.5713   33.8001   50.7293 H   0  0  0  0  0  0  0  0  0  0  0  0
   67.7660   31.6438   51.0195 H   0  0  0  0  0  0  0  0  0  0  0  0
   66.4911   29.5526   51.4343 H   0  0  0  0  0  0  0  0  0  0  0  0
   64.4200   28.3931   51.7326 H   0  0  0  0  0  0  0  0  0  0  0  0
   61.9378   28.3796   51.8362 H   0  0  0  0  0  0  0  0  0  0  0  0
   60.6557   30.4542   51.3769 H   0  0  0  0  0  0  0  0  0  0  0  0
   60.5780   32.7800   50.9310 H   0  0  0  0  0  0  0  0  0  0  0  0
   62.5983   33.3837   46.9647 H   0  0  0  0  0  0  0  0  0  0  0  0
   61.1007   33.6921   45.0014 H   0  0  0  0  0  0  0  0  0  0  0  0
   59.5947   29.6879   48.5682 H   0  0  0  0  0  0  0  0  0  0  0  0
   60.8264   29.1389   47.3815 H   0  0  0  0  0  0  0  0  0  0  0  0
   60.2791   30.8498   47.3815 H   0  0  0  0  0  0  0  0  0  0  0  0
  1  2  1  0
  2  3  1  0
  3  4  2  0
  4  5  1  0
  5  6  2  0
  6  7  1  0
  7  8  2  0
  8  9  1  0
  9 10  1  0
 10 11  1  0
 11 12  2  0
 12 13  1  0
 13 14  2  0
 14 15  1  0
 15 16  2  0
 16 17  1  0
 17 18  1  0
 18 19  1  0
 19 20  2  0
 20 21  1  0
 21 22  2  0
 22 23  1  0
 23 24  2  0
 24 25  1  0
 25 26  2  0
 26 27  1  0
 26 28  1  0
 14 29  1  0
 29 30  2  0
  8 31  1  0
 31 32  1  0
 32 33  2  0
 33 34  1  0
 33  3  1  0
 32  6  1  0
 30 11  1  0
 28 15  1  0
 27 18  2  0
 27 22  1  0
  1 35  1  0
  1 36  1  0
  1 37  1  0
  4 38  1  0
  5 39  1  0
  9 40  1  0
  9 41  1  0
 10 42  1  0
 12 43  1  0
 13 44  1  0
 17 45  1  0
 17 46  1  0
 19 47  1  0
 20 48  1  0
 21 49  1  0
 23 50  1  0
 24 51  1  0
 25 52  1  0
 28 53  1  0
 29 54  1  0
 30 55  1  0
 34 56  1  0
 34 57  1  0
 34 58  1  0
M  END
>  <UniqueID>  (38) 
32

>  <SMILES>  (38) 
COc1ccc2nc(CNc3ccc(C4=NCc5cccc6cccc(c56)N4)cc3)oc2c1C

>  <Energy>  (38) 
118.71556179419873

>  <Genealogy>  (38) 
COc1ccc2nc(CNc3ccc(C4=NCc5cccc6cccc(c56)N4)cc3)oc2c1C (3D coordinates assigned)
COc1ccc2nc(CNc3ccc(C4=NCc5cccc6cccc(c56)N4)cc3)oc2c1C (nonaromatic ring conformer: 118.71556179419873 kcal/mol)

>  <smiles>  (38) 
COc1ccc2nc(CNc3ccc(C4=NCc5cccc6cccc(c56)N4)cc3)oc2c1C

>  <score_type>  (38) 
oracle

>  <origin>  (38) 
adg

>  <m_score__min__energy>  (38) 
-9.3399999999999999

>  <m_primary>  (38) 
energy

$$$$
38:0
     RDKit          3D

 38 40  0  0  0  0  0  0  0  0999 V2000
   60.6650   26.6780   47.6650 C   0  0  0  0  0  0  0  0  0  0  0  0
   60.3900   26.9980   46.1910 C   0  0  0  0  0  0  0  0  0  0  0  0
   59.1690   26.2330   45.6660 C   0  0  0  0  0  0  0  0  0  0  0  0
   60.3270   28.5150   45.8960 C   0  0  0  0  0  0  0  0  0  0  0  0
   59.5030   29.3950   46.8690 C   0  0  0  0  0  0  0  0  0  0  0  0
   58.7040   30.4300   46.1710 N   0  0  0  0  0  0  0  0  0  0  0  0
   59.0280   31.7840   46.1290 C   0  0  0  0  0  0  0  0  0  0  0  0
   60.1280   32.3050   46.7450 N   0  0  0  0  0  0  0  0  0  0  0  0
   60.4350   33.6310   46.6770 C   0  0  0  0  0  0  0  0  0  0  0  0
   61.4870   34.0370   47.2450 O   0  0  0  0  0  0  0  0  0  0  0  0
   59.6300   34.5170   46.0040 N   0  0  0  0  0  0  0  0  0  0  0  0
   60.0120   35.9400   45.9350 C   0  0  0  0  0  0  0  0  0  0  0  0
   58.5150   34.0840   45.3350 C   0  0  0  0  0  0  0  0  0  0  0  0
   57.8070   34.9010   44.6800 O   0  0  0  0  0  0  0  0  0  0  0  0
   58.1520   32.7340   45.3720 C   0  0  0  0  0  0  0  0  0  0  0  0
   56.9970   32.2510   44.7370 C   0  0  0  0  0  0  0  0  0  0  0  0
   56.7240   30.9030   44.8610 C   0  0  0  0  0  0  0  0  0  0  0  0
   55.6580   30.2420   44.3820 N   0  0  0  0  0  0  0  0  0  0  0  0
   55.7740   28.9730   44.7610 N   0  0  0  0  0  0  0  0  0  0  0  0
   56.9100   28.8250   45.4790 C   0  0  0  0  0  0  0  0  0  0  0  0
   57.5400   30.0530   45.5490 C   0  0  0  0  0  0  0  0  0  0  0  0
   60.0809   27.3576   48.3029 H   0  0  0  0  0  0  0  0  0  0  0  0
   60.3745   25.6380   47.8748 H   0  0  0  0  0  0  0  0  0  0  0  0
   61.7369   26.8088   47.8748 H   0  0  0  0  0  0  0  0  0  0  0  0
   61.2605   26.6363   45.6240 H   0  0  0  0  0  0  0  0  0  0  0  0
   58.5762   25.8616   46.5149 H   0  0  0  0  0  0  0  0  0  0  0  0
   58.5506   26.9054   45.0533 H   0  0  0  0  0  0  0  0  0  0  0  0
   59.5043   25.3832   45.0533 H   0  0  0  0  0  0  0  0  0  0  0  0
   61.3591   28.8954   45.9001 H   0  0  0  0  0  0  0  0  0  0  0  0
   59.8030   28.5934   44.9320 H   0  0  0  0  0  0  0  0  0  0  0  0
   58.8192   28.7463   47.4361 H   0  0  0  0  0  0  0  0  0  0  0  0
   60.2139   29.9144   47.5285 H   0  0  0  0  0  0  0  0  0  0  0  0
   60.7950   31.7140   47.2780 H   0  0  0  0  0  0  0  0  0  0  0  0
   60.1195   36.3406   46.9538 H   0  0  0  0  0  0  0  0  0  0  0  0
   60.9681   36.0375   45.3999 H   0  0  0  0  0  0  0  0  0  0  0  0
   59.2332   36.5032   45.3999 H   0  0  0  0  0  0  0  0  0  0  0  0
   56.3366   32.9187   44.1643 H   0  0  0  0  0  0  0  0  0  0  0  0
   57.2706   27.8886   45.9297 H   0  0  0  0  0  0  0  0  0  0  0  0
  1  2  1  0
  2  3  1  0
  2  4  1  0
  4  5  1  0
  5  6  1  0
  6  7  1  0
  7  8  2  0
  8  9  1  0
  9 10  2  0
  9 11  1  0
 11 12  1  0
 11 13  1  0
 13 14  2  0
 13 15  1  0
 15 16  2  0
 16 17  1  0
 17 18  2  0
 18 19  1  0
 19 20  1  0
 20 21  2  0
 21  6  1  0
 15  7  1  0
 21 17  1  0
  1 22  1  0
  1 23  1  0
  1 24  1  0
  2 25  1  0
  3 26  1  0
  3 27  1  0
  3 28  1  0
  4 29  1  0
  4 30  1  0
  5 31  1  0
  5 32  1  0
  8 33  1  0
 12 34  1  0
 12 35  1  0
 12 36  1  0
 16 37  1  0
 20 38  1  0
M  CHG  2   8   1  19  -1
M  END
>  <UniqueID>  (39) 
33

>  <SMILES>  (39) 
CC(C)CCn1c2[nH+]c(=O)n(C)c(=O)c-2cc2n[n-]cc21

>  <Energy>  (39) 
88.71239309897868

>  <Genealogy>  (39) 
CC(C)CCn1c2[nH+]c(=O)n(C)c(=O)c-2cc2n[n-]cc21 (protonated)
CC(C)CCn1c2[nH+]c(=O)n(C)c(=O)c-2cc2n[n-]cc21 (3D coordinates assigned)
CC(C)CCn1c2[nH+]c(=O)n(C)c(=O)c-2cc2n[n-]cc21 (optimized conformer: 88.71239309897868 kcal/mol)

>  <smiles>  (39) 
CC(C)CCn1c2nc(=O)n(C)c(=O)c-2cc2n[nH]cc21

>  <score_type>  (39) 
oracle

>  <origin>  (39) 
adg

>  <m_score__min__energy>  (39) 
-6.8499999999999996

>  <m_primary>  (39) 
energy

$$$$
39:0
     RDKit          3D

 68 71  0  0  0  0  0  0  0  0999 V2000
   56.3780   30.4780   52.6210 C   0  0  0  0  0  0  0  0  0  0  0  0
   57.2920   30.0510   51.6170 O   0  0  0  0  0  0  0  0  0  0  0  0
   58.2670   30.8740   51.0320 C   0  0  0  0  0  0  0  0  0  0  0  0
   57.9360   31.9730   50.2150 C   0  0  0  0  0  0  0  0  0  0  0  0
   58.9450   32.7610   49.6540 C   0  0  0  0  0  0  0  0  0  0  0  0
   60.2970   32.4720   49.9030 C   0  0  0  0  0  0  0  0  0  0  0  0
   61.3370   33.2730   49.3050 N   0  0  0  0  0  0  0  0  0  0  0  0
   61.0960   34.0490   48.0860 C   0  0  0  0  0  0  0  0  0  0  0  0
   62.1580   33.7290   47.0100 C   0  0  0  0  0  0  0  0  0  0  0  0
   63.3870   33.0920   47.5490 N   0  0  0  0  0  0  0  0  0  0  0  0
   63.3160   31.6100   47.5160 C   0  0  0  0  0  0  0  0  0  0  0  0
   61.9200   31.1220   47.1160 C   0  0  0  0  0  0  0  0  0  0  0  0
   61.4660   30.1000   48.0570 N   0  0  0  0  0  0  0  0  0  0  0  0
   60.4450   29.1200   47.8230 C   0  0  0  0  0  0  0  0  0  0  0  0
   60.2100   28.2740   48.7250 O   0  0  0  0  0  0  0  0  0  0  0  0
   59.6720   29.0600   46.5670 C   0  0  0  0  0  0  0  0  0  0  0  0
   59.4140   27.9360   45.8630 N   0  0  0  0  0  0  0  0  0  0  0  0
   58.7050   28.2560   44.8190 O   0  0  0  0  0  0  0  0  0  0  0  0
   58.4790   29.5480   44.8090 C   0  0  0  0  0  0  0  0  0  0  0  0
   59.0430   30.1130   45.9250 C   0  0  0  0  0  0  0  0  0  0  0  0
   59.0580   31.5850   46.2110 C   0  0  0  0  0  0  0  0  0  0  0  0
   57.9830   32.3280   45.3580 C   0  0  1  0  0  0  0  0  0  0  0  0
   58.0540   33.9030   45.4830 C   0  0  0  0  0  0  0  0  0  0  0  0
   59.2630   34.4460   44.6810 C   0  0  0  0  0  0  0  0  0  0  0  0
   58.1970   34.3680   46.9510 C   0  0  0  0  0  0  0  0  0  0  0  0
   56.7820   34.5510   44.8870 C   0  0  0  0  0  0  0  0  0  0  0  0
   58.0240   31.8150   43.8830 C   0  0  0  0  0  0  0  0  0  0  0  0
   57.7050   30.3090   43.7840 C   0  0  0  0  0  0  0  0  0  0  0  0
   63.7410   33.6440   48.8770 C   0  0  0  0  0  0  0  0  0  0  0  0
   62.6590   33.3570   49.9330 C   0  0  0  0  0  0  0  0  0  0  0  0
   60.6230   31.3730   50.7130 C   0  0  0  0  0  0  0  0  0  0  0  0
   59.6140   30.5840   51.2730 C   0  0  0  0  0  0  0  0  0  0  0  0
   56.8053   30.2784   53.6147 H   0  0  0  0  0  0  0  0  0  0  0  0
   56.1913   31.5566   52.5121 H   0  0  0  0  0  0  0  0  0  0  0  0
   55.4310   29.9291   52.5121 H   0  0  0  0  0  0  0  0  0  0  0  0
   56.8804   32.2116   50.0180 H   0  0  0  0  0  0  0  0  0  0  0  0
   58.6783   33.6140   49.0126 H   0  0  0  0  0  0  0  0  0  0  0  0
   60.0989   33.8016   47.6928 H   0  0  0  0  0  0  0  0  0  0  0  0
   61.1569   35.1192   48.3327 H   0  0  0  0  0  0  0  0  0  0  0  0
   61.7094   33.0473   46.2724 H   0  0  0  0  0  0  0  0  0  0  0  0
   62.4633   34.6884   46.5669 H   0  0  0  0  0  0  0  0  0  0  0  0
   64.0485   31.2335   46.7868 H   0  0  0  0  0  0  0  0  0  0  0  0
   63.5370   31.2320   48.5251 H   0  0  0  0  0  0  0  0  0  0  0  0
   61.2187   31.9693   47.1302 H   0  0  0  0  0  0  0  0  0  0  0  0
   61.9608   30.6926   46.1041 H   0  0  0  0  0  0  0  0  0  0  0  0
   59.6920   26.9640   46.1090 H   0  0  0  0  0  0  0  0  0  0  0  0
   58.8461   31.7469   47.2782 H   0  0  0  0  0  0  0  0  0  0  0  0
   60.0499   31.9837   45.9519 H   0  0  0  0  0  0  0  0  0  0  0  0
   56.9948   32.0792   45.7722 H   0  0  0  0  0  0  0  0  0  0  0  0
   60.0390   34.7945   45.3785 H   0  0  0  0  0  0  0  0  0  0  0  0
   59.6722   33.6452   44.0475 H   0  0  0  0  0  0  0  0  0  0  0  0
   58.9363   35.2838   44.0475 H   0  0  0  0  0  0  0  0  0  0  0  0
   57.9415   33.5373   47.6253 H   0  0  0  0  0  0  0  0  0  0  0  0
   59.2341   34.6847   47.1359 H   0  0  0  0  0  0  0  0  0  0  0  0
   57.5171   35.2127   47.1359 H   0  0  0  0  0  0  0  0  0  0  0  0
   56.1245   34.8860   45.7028 H   0  0  0  0  0  0  0  0  0  0  0  0
   57.0662   35.4142   44.2672 H   0  0  0  0  0  0  0  0  0  0  0  0
   56.2508   33.8136   44.2672 H   0  0  0  0  0  0  0  0  0  0  0  0
   57.2835   32.3741   43.2922 H   0  0  0  0  0  0  0  0  0  0  0  0
   59.0423   31.9719   43.4977 H   0  0  0  0  0  0  0  0  0  0  0  0
   56.6291   30.1539   43.9525 H   0  0  0  0  0  0  0  0  0  0  0  0
   57.9850   29.9485   42.7832 H   0  0  0  0  0  0  0  0  0  0  0  0
   64.6876   33.1917   49.2077 H   0  0  0  0  0  0  0  0  0  0  0  0
   63.8327   34.7355   48.7755 H   0  0  0  0  0  0  0  0  0  0  0  0
   62.8841   32.4026   50.4315 H   0  0  0  0  0  0  0  0  0  0  0  0
   62.6524   34.1764   50.6669 H   0  0  0  0  0  0  0  0  0  0  0  0
   61.6782   31.1313   50.9082 H   0  0  0  0  0  0  0  0  0  0  0  0
   59.8817   29.7273   51.9089 H   0  0  0  0  0  0  0  0  0  0  0  0
  1  2  1  0
  2  3  1  0
  3  4  2  0
  4  5  1  0
  5  6  2  0
  6  7  1  0
  7  8  1  0
  8  9  1  0
  9 10  1  0
 10 11  1  0
 11 12  1  0
 12 13  1  0
 13 14  1  0
 14 15  2  0
 14 16  1  0
 16 17  2  0
 17 18  1  0
 18 19  1  0
 19 20  2  0
 20 21  1  0
 21 22  1  0
 22 23  1  0
 23 24  1  0
 23 25  1  0
 23 26  1  0
 22 27  1  0
 27 28  1  0
 10 29  1  0
 29 30  1  0
  6 31  1  0
 31 32  2  0
 32  3  1  0
 30  7  1  0
 20 16  1  0
 28 19  1  0
  1 33  1  0
  1 34  1  0
  1 35  1  0
  4 36  1  0
  5 37  1  0
  8 38  1  0
  8 39  1  0
  9 40  1  0
  9 41  1  0
 11 42  1  0
 11 43  1  0
 12 44  1  0
 12 45  1  0
 17 46  1  0
 21 47  1  0
 21 48  1  0
 22 49  1  1
 24 50  1  0
 24 51  1  0
 24 52  1  0
 25 53  1  0
 25 54  1  0
 25 55  1  0
 26 56  1  0
 26 57  1  0
 26 58  1  0
 27 59  1  0
 27 60  1  0
 28 61  1  0
 28 62  1  0
 29 63  1  0
 29 64  1  0
 30 65  1  0
 30 66  1  0
 31 67  1  0
 32 68  1  0
M  CHG  2  13  -1  17   1
M  END
>  <UniqueID>  (40) 
34

>  <SMILES>  (40) 
COc1ccc(N2CCN(CC[N-]C(=O)c3[nH+]oc4c3C[C@@H](C(C)(C)C)CC4)CC2)cc1

>  <Energy>  (40) 
118.37701782340719

>  <Genealogy>  (40) 
COc1ccc(N2CCN(CC[N-]C(=O)c3[nH+]oc4c3CC(C(C)(C)C)CC4)CC2)cc1 (protonated)
COc1ccc(N2CCN(CC[N-]C(=O)c3[nH+]oc4c3C[C@@H](C(C)(C)C)CC4)CC2)cc1 (chirality)
COc1ccc(N2CCN(CC[N-]C(=O)c3[nH+]oc4c3C[C@@H](C(C)(C)C)CC4)CC2)cc1 (3D coordinates assigned)
COc1ccc(N2CCN(CC[N-]C(=O)c3[nH+]oc4c3C[C@@H](C(C)(C)C)CC4)CC2)cc1 (nonaromatic ring conformer: 118.37701782340719 kcal/mol)

>  <smiles>  (40) 
COc1ccc(N2CCN(CCNC(=O)c3noc4c3CC(C(C)(C)C)CC4)CC2)cc1

>  <score_type>  (40) 
oracle

>  <origin>  (40) 
adg

>  <m_score__min__energy>  (40) 
-10.41

>  <m_primary>  (40) 
energy

$$$$
40:0
     RDKit          3D

 34 36  0  0  0  0  0  0  0  0999 V2000
   58.0660   27.0120   42.2690 C   0  0  0  0  0  0  0  0  0  0  0  0
   58.1170   27.8210   43.5320 C   0  0  0  0  0  0  0  0  0  0  0  0
   59.0040   27.4620   44.4970 N   0  0  0  0  0  0  0  0  0  0  0  0
   59.1020   28.1530   45.6600 C   0  0  0  0  0  0  0  0  0  0  0  0
   60.3010   27.6620   46.8970 S   0  0  0  0  0  0  0  0  0  0  0  0
   59.1120   26.6820   47.8780 C   0  0  0  0  0  0  0  0  0  0  0  0
   58.1410   25.9770   46.9840 C   0  0  0  0  0  0  0  0  0  0  0  0
   56.8620   26.4270   46.8830 N   0  0  0  0  0  0  0  0  0  0  0  0
   55.9670   25.8400   46.0460 C   0  0  0  0  0  0  0  0  0  0  0  0
   54.7930   26.2900   45.9830 O   0  0  0  0  0  0  0  0  0  0  0  0
   56.3660   24.7450   45.2620 C   0  0  0  0  0  0  0  0  0  0  0  0
   55.4910   24.0920   44.3740 C   0  0  0  0  0  0  0  0  0  0  0  0
   55.9450   23.0070   43.6170 C   0  0  0  0  0  0  0  0  0  0  0  0
   57.2660   22.5680   43.7380 C   0  0  0  0  0  0  0  0  0  0  0  0
   58.1430   23.2100   44.6170 C   0  0  0  0  0  0  0  0  0  0  0  0
   57.6990   24.2960   45.3800 C   0  0  0  0  0  0  0  0  0  0  0  0
   58.5520   24.9220   46.2320 N   0  0  0  0  0  0  0  0  0  0  0  0
   58.2990   29.2220   45.8840 N   0  0  0  0  0  0  0  0  0  0  0  0
   57.3990   29.6340   44.9560 C   0  0  0  0  0  0  0  0  0  0  0  0
   56.6720   30.6310   45.2070 O   0  0  0  0  0  0  0  0  0  0  0  0
   57.2900   28.9490   43.7290 C   0  0  0  0  0  0  0  0  0  0  0  0
   56.2870   29.3750   42.6840 C   0  0  0  0  0  0  0  0  0  0  0  0
   57.9986   25.9433   42.5206 H   0  0  0  0  0  0  0  0  0  0  0  0
   57.1846   27.3064   41.6803 H   0  0  0  0  0  0  0  0  0  0  0  0
   58.9774   27.1934   41.6803 H   0  0  0  0  0  0  0  0  0  0  0  0
   59.6618   25.9372   48.4722 H   0  0  0  0  0  0  0  0  0  0  0  0
   58.5542   27.3620   48.5387 H   0  0  0  0  0  0  0  0  0  0  0  0
   54.4504   24.4348   44.2753 H   0  0  0  0  0  0  0  0  0  0  0  0
   55.2595   22.4974   42.9238 H   0  0  0  0  0  0  0  0  0  0  0  0
   57.6170   21.7144   43.1396 H   0  0  0  0  0  0  0  0  0  0  0  0
   59.1823   22.8616   44.7090 H   0  0  0  0  0  0  0  0  0  0  0  0
   55.3827   29.7591   43.1787 H   0  0  0  0  0  0  0  0  0  0  0  0
   56.7249   30.1648   42.0559 H   0  0  0  0  0  0  0  0  0  0  0  0
   56.0226   28.5115   42.0559 H   0  0  0  0  0  0  0  0  0  0  0  0
  1  2  1  0
  2  3  1  0
  3  4  1  0
  4  5  1  0
  5  6  1  0
  6  7  1  0
  7  8  2  0
  8  9  1  0
  9 10  2  0
  9 11  1  0
 11 12  2  0
 12 13  1  0
 13 14  2  0
 14 15  1  0
 15 16  2  0
 16 17  1  0
  4 18  2  0
 18 19  1  0
 19 20  2  0
 19 21  1  0
 21 22  1  0
 21  2  2  0
 17  7  1  0
 16 11  1  0
  1 23  1  0
  1 24  1  0
  1 25  1  0
  6 26  1  0
  6 27  1  0
 12 28  1  0
 13 29  1  0
 14 30  1  0
 15 31  1  0
 22 32  1  0
 22 33  1  0
 22 34  1  0
M  CHG  2   3  -1  17  -1
M  END
>  <UniqueID>  (41) 
35

>  <SMILES>  (41) 
Cc1[n-]c(SCc2nc(=O)c3ccccc3[n-]2)nc(=O)c1C

>  <Energy>  (41) 
37.2466383460394

>  <Genealogy>  (41) 
Cc1[n-]c(SCc2nc(=O)c3ccccc3[n-]2)nc(=O)c1C (protonated)
Cc1[n-]c(SCc2nc(=O)c3ccccc3[n-]2)nc(=O)c1C (3D coordinates assigned)
Cc1[n-]c(SCc2nc(=O)c3ccccc3[n-]2)nc(=O)c1C (optimized conformer: 37.2466383460394 kcal/mol)

>  <smiles>  (41) 
Cc1[nH]c(SCc2nc(=O)c3ccccc3[nH]2)nc(=O)c1C

>  <score_type>  (41) 
oracle

>  <origin>  (41) 
adg

>  <m_score__min__energy>  (41) 
-10.59

>  <m_primary>  (41) 
energy

$$$$
41:0
     RDKit          3D

 48 50  0  0  0  0  0  0  0  0999 V2000
   64.6370   33.3980   49.3780 C   0  0  0  0  0  0  0  0  0  0  0  0
   63.5230   32.5020   48.9260 C   0  0  0  0  0  0  0  0  0  0  0  0
   63.3050   32.2770   47.5590 C   0  0  0  0  0  0  0  0  0  0  0  0
   62.2980   31.4020   47.1390 C   0  0  0  0  0  0  0  0  0  0  0  0
   61.5030   30.7300   48.0830 C   0  0  0  0  0  0  0  0  0  0  0  0
   60.4500   29.7500   47.6320 C   0  0  0  0  0  0  0  0  0  0  0  0
   59.5440   30.3680   46.6500 N   0  0  0  0  0  0  0  0  0  0  0  0
   58.5020   31.2970   47.1170 C   0  0  0  0  0  0  0  0  0  0  0  0
   58.8680   32.7140   46.7550 C   0  0  0  0  0  0  0  0  0  0  0  0
   59.6810   33.4800   47.6060 C   0  0  0  0  0  0  0  0  0  0  0  0
   60.0690   34.7710   47.2370 C   0  0  0  0  0  0  0  0  0  0  0  0
   59.6440   35.3100   46.0200 C   0  0  0  0  0  0  0  0  0  0  0  0
   60.0260   36.5600   45.6610 F   0  0  0  0  0  0  0  0  0  0  0  0
   58.8240   34.5610   45.1730 C   0  0  0  0  0  0  0  0  0  0  0  0
   58.4370   33.2680   45.5370 C   0  0  0  0  0  0  0  0  0  0  0  0
   59.5370   29.9370   45.2730 C   0  0  0  0  0  0  0  0  0  0  0  0
   60.3030   29.0020   44.9120 O   0  0  0  0  0  0  0  0  0  0  0  0
   58.5400   30.4850   44.2780 C   0  0  0  0  0  0  0  0  0  0  0  0
   57.6230   29.4380   43.7790 N   0  0  2  0  0  0  0  0  0  0  0  0
   56.5060   29.9860   42.9720 C   0  0  0  0  0  0  0  0  0  0  0  0
   55.1950   29.7170   43.7380 C   0  0  0  0  0  0  0  0  0  0  0  0
   55.5830   28.9610   44.8640 O   0  0  0  0  0  0  0  0  0  0  0  0
   56.9480   28.8140   44.8710 C   0  0  0  0  0  0  0  0  0  0  0  0
   57.5480   28.1480   45.7570 O   0  0  0  0  0  0  0  0  0  0  0  0
   61.7290   30.9510   49.4510 C   0  0  0  0  0  0  0  0  0  0  0  0
   62.7380   31.8220   49.8690 C   0  0  0  0  0  0  0  0  0  0  0  0
   64.6658   33.4212   50.4774 H   0  0  0  0  0  0  0  0  0  0  0  0
   65.5941   33.0152   48.9941 H   0  0  0  0  0  0  0  0  0  0  0  0
   64.4683   34.4149   48.9941 H   0  0  0  0  0  0  0  0  0  0  0  0
   63.9292   32.7913   46.8134 H   0  0  0  0  0  0  0  0  0  0  0  0
   62.1275   31.2391   46.0646 H   0  0  0  0  0  0  0  0  0  0  0  0
   60.9411   28.8801   47.1715 H   0  0  0  0  0  0  0  0  0  0  0  0
   59.8607   29.4394   48.5074 H   0  0  0  0  0  0  0  0  0  0  0  0
   57.5441   31.0367   46.6430 H   0  0  0  0  0  0  0  0  0  0  0  0
   58.4137   31.2172   48.2105 H   0  0  0  0  0  0  0  0  0  0  0  0
   60.0140   33.0620   48.5675 H   0  0  0  0  0  0  0  0  0  0  0  0
   60.7102   35.3638   47.9059 H   0  0  0  0  0  0  0  0  0  0  0  0
   58.4825   34.9888   44.2189 H   0  0  0  0  0  0  0  0  0  0  0  0
   57.7918   32.6810   44.8668 H   0  0  0  0  0  0  0  0  0  0  0  0
   57.9475   31.2728   44.7661 H   0  0  0  0  0  0  0  0  0  0  0  0
   59.1006   30.8831   43.4194 H   0  0  0  0  0  0  0  0  0  0  0  0
   58.1450   28.7040   43.2440 H   0  0  0  0  0  0  0  0  0  0  0  0
   56.6419   31.0685   42.8313 H   0  0  0  0  0  0  0  0  0  0  0  0
   56.4772   29.5085   41.9814 H   0  0  0  0  0  0  0  0  0  0  0  0
   54.7271   30.6627   44.0490 H   0  0  0  0  0  0  0  0  0  0  0  0
   54.4540   29.1894   43.1195 H   0  0  0  0  0  0  0  0  0  0  0  0
   61.1078   30.4352   50.1981 H   0  0  0  0  0  0  0  0  0  0  0  0
   62.9179   31.9755   50.9433 H   0  0  0  0  0  0  0  0  0  0  0  0
  1  2  1  0
  2  3  2  0
  3  4  1  0
  4  5  2  0
  5  6  1  0
  6  7  1  0
  7  8  1  0
  8  9  1  0
  9 10  2  0
 10 11  1  0
 11 12  2  0
 12 13  1  0
 12 14  1  0
 14 15  2  0
  7 16  1  0
 16 17  2  0
 16 18  1  0
 18 19  1  0
 19 20  1  0
 20 21  1  0
 21 22  1  0
 22 23  1  0
 23 24  2  0
  5 25  1  0
 25 26  2  0
 26  2  1  0
 15  9  1  0
 23 19  1  0
  1 27  1  0
  1 28  1  0
  1 29  1  0
  3 30  1  0
  4 31  1  0
  6 32  1  0
  6 33  1  0
  8 34  1  0
  8 35  1  0
 10 36  1  0
 11 37  1  0
 14 38  1  0
 15 39  1  0
 18 40  1  0
 18 41  1  0
 19 42  1  6
 20 43  1  0
 20 44  1  0
 21 45  1  0
 21 46  1  0
 25 47  1  0
 26 48  1  0
M  CHG  1  19   1
M  END
>  <UniqueID>  (42) 
36

>  <SMILES>  (42) 
Cc1ccc(CN(Cc2ccc(F)cc2)C(=O)C[N@@H+]2CCOC2=O)cc1

>  <Energy>  (42) 
58.70414173867706

>  <Genealogy>  (42) 
Cc1ccc(CN(Cc2ccc(F)cc2)C(=O)C[NH+]2CCOC2=O)cc1 (protonated)
Cc1ccc(CN(Cc2ccc(F)cc2)C(=O)C[N@@H+]2CCOC2=O)cc1 (chirality)
Cc1ccc(CN(Cc2ccc(F)cc2)C(=O)C[N@@H+]2CCOC2=O)cc1 (3D coordinates assigned)
Cc1ccc(CN(Cc2ccc(F)cc2)C(=O)C[N@@H+]2CCOC2=O)cc1 (nonaromatic ring conformer: 58.70414173867706 kcal/mol)

>  <smiles>  (42) 
Cc1ccc(CN(Cc2ccc(F)cc2)C(=O)CN2CCOC2=O)cc1

>  <score_type>  (42) 
oracle

>  <origin>  (42) 
adg

>  <m_score__min__energy>  (42) 
-5.9699999999999998

>  <m_primary>  (42) 
energy

$$$$
42:0
     RDKit          3D

 49 52  0  0  0  0  0  0  0  0999 V2000
   58.1896   26.0663   44.5966 H   0  0  0  0  0  0  0  0  0  0  0  0
   57.8330   26.2250   45.6250 C   0  0  0  0  0  0  0  0  0  0  0  0
   56.4170   26.5850   45.8360 C   0  0  0  0  0  0  0  0  0  0  0  0
   55.6370   25.7120   46.2980 O   0  0  0  0  0  0  0  0  0  0  0  0
   55.9000   27.8980   45.5670 N   0  0  0  0  0  0  0  0  0  0  0  0
   56.6340   29.0090   45.0340 C   0  0  0  0  0  0  0  0  0  0  0  0
   56.3600   29.4360   43.7300 C   0  0  0  0  0  0  0  0  0  0  0  0
   55.5905   28.9216   43.1357 H   0  0  0  0  0  0  0  0  0  0  0  0
   57.0590   30.5120   43.1800 C   0  0  0  0  0  0  0  0  0  0  0  0
   56.8357   30.8444   42.1555 H   0  0  0  0  0  0  0  0  0  0  0  0
   58.0410   31.1680   43.9260 C   0  0  0  0  0  0  0  0  0  0  0  0
   58.5828   32.0188   43.4872 H   0  0  0  0  0  0  0  0  0  0  0  0
   58.3420   30.7480   45.2350 C   0  0  0  0  0  0  0  0  0  0  0  0
   59.3880   31.4260   46.0450 C   0  0  0  0  0  0  0  0  0  0  0  0
   60.5240   30.7540   46.3720 N   0  0  0  0  0  0  0  0  0  0  0  0
   61.4900   31.3120   47.1050 N   0  0  0  0  0  0  0  0  0  0  0  0
   61.3940   32.5880   47.5650 C   0  0  0  0  0  0  0  0  0  0  0  0
   62.4510   33.1380   48.3730 N   0  0  0  0  0  0  0  0  0  0  0  0
   63.7700   32.4870   48.3590 C   0  0  0  0  0  0  0  0  0  0  0  0
   63.6421   31.4170   48.5800 H   0  0  0  0  0  0  0  0  0  0  0  0
   64.2145   32.6329   47.3634 H   0  0  0  0  0  0  0  0  0  0  0  0
   64.7160   33.1010   49.4010 C   0  0  0  0  0  0  0  0  0  0  0  0
   65.5647   32.4208   49.5656 H   0  0  0  0  0  0  0  0  0  0  0  0
   65.0763   34.0712   49.0283 H   0  0  0  0  0  0  0  0  0  0  0  0
   63.9790   33.3200   50.7280 C   0  0  0  0  0  0  0  0  0  0  0  0
   63.6627   32.3422   51.1202 H   0  0  0  0  0  0  0  0  0  0  0  0
   64.6733   33.8285   51.4132 H   0  0  0  0  0  0  0  0  0  0  0  0
   62.7310   34.2190   50.5770 C   0  0  0  0  0  0  0  0  0  0  0  0
   61.9061   33.7689   51.1488 H   0  0  0  0  0  0  0  0  0  0  0  0
   63.0028   35.2165   50.9528 H   0  0  0  0  0  0  0  0  0  0  0  0
   62.2750   34.3930   49.1200 C   0  0  0  0  0  0  0  0  0  0  0  0
   61.2126   34.6778   49.1045 H   0  0  0  0  0  0  0  0  0  0  0  0
   62.8842   35.1775   48.6473 H   0  0  0  0  0  0  0  0  0  0  0  0
   60.2320   33.3180   47.2840 C   0  0  0  0  0  0  0  0  0  0  0  0
   60.1162   34.3433   47.6653 H   0  0  0  0  0  0  0  0  0  0  0  0
   59.2250   32.7370   46.5190 C   0  0  0  0  0  0  0  0  0  0  0  0
   58.3090   33.3005   46.2878 H   0  0  0  0  0  0  0  0  0  0  0  0
   57.6460   29.6490   45.7720 C   0  0  0  0  0  0  0  0  0  0  0  0
   57.8962   29.2865   46.7800 H   0  0  0  0  0  0  0  0  0  0  0  0
   58.7000   26.0840   46.6340 C   0  0  0  0  0  0  0  0  0  0  0  0
   59.1323   25.0928   46.8356 H   0  0  0  0  0  0  0  0  0  0  0  0
   59.0890   27.2220   47.4800 C   0  0  0  0  0  0  0  0  0  0  0  0
   58.2500   27.9920   48.1340 O   0  0  0  0  0  0  0  0  0  0  0  0
   58.9370   28.8990   48.7890 C   0  0  0  0  0  0  0  0  0  0  0  0
   58.5041   29.6842   49.4262 H   0  0  0  0  0  0  0  0  0  0  0  0
   60.2860   28.7170   48.5560 C   0  0  0  0  0  0  0  0  0  0  0  0
   61.1138   29.3159   48.9636 H   0  0  0  0  0  0  0  0  0  0  0  0
   60.3860   27.6340   47.7100 C   0  0  0  0  0  0  0  0  0  0  0  0
   61.3068   27.1906   47.3031 H   0  0  0  0  0  0  0  0  0  0  0  0
  1  2  1  0
  2  3  1  0
  3  4  2  0
  3  5  1  0
  5  6  1  0
  6  7  2  0
  7  8  1  0
  7  9  1  0
  9 10  1  0
  9 11  2  0
 11 12  1  0
 11 13  1  0
 13 14  1  0
 14 15  2  0
 15 16  1  0
 16 17  2  0
 17 18  1  0
 18 19  1  0
 19 20  1  0
 19 21  1  0
 19 22  1  0
 22 23  1  0
 22 24  1  0
 22 25  1  0
 25 26  1  0
 25 27  1  0
 25 28  1  0
 28 29  1  0
 28 30  1  0
 28 31  1  0
 31 32  1  0
 31 33  1  0
 17 34  1  0
 34 35  1  0
 34 36  2  0
 36 37  1  0
 13 38  2  0
 38 39  1  0
  2 40  2  0
 40 41  1  0
 40 42  1  0
 42 43  1  0
 43 44  1  0
 44 45  1  0
 44 46  2  0
 46 47  1  0
 46 48  1  0
 48 49  1  0
 38  6  1  0
 48 42  2  0
 36 14  1  0
 31 18  1  0
M  CHG  1   5  -1
M  END
>  <UniqueID>  (43) 
37

>  <SMILES>  (43) 
O=C(/C=C/c1ccco1)[N-]c1cccc(-c2ccc(N3CCCCC3)nn2)c1

>  <Energy>  (43) 
90.88545288506867

>  <Genealogy>  (43) 
O=C(C=Cc1ccco1)[N-]c1cccc(-c2ccc(N3CCCCC3)nn2)c1 (protonated)
O=C(/C=C/c1ccco1)[N-]c1cccc(-c2ccc(N3CCCCC3)nn2)c1 (cis-trans isomerization)
O=C(/C=C/c1ccco1)[N-]c1cccc(-c2ccc(N3CCCCC3)nn2)c1 (3D coordinates assigned)
O=C(/C=C/c1ccco1)[N-]c1cccc(-c2ccc(N3CCCCC3)nn2)c1 (nonaromatic ring conformer: 90.88545288506867 kcal/mol)

>  <smiles>  (43) 
O=C(C=Cc1ccco1)Nc1cccc(-c2ccc(N3CCCCC3)nn2)c1

>  <score_type>  (43) 
oracle

>  <origin>  (43) 
adg

>  <m_score__min__energy>  (43) 
-11.199999999999999

>  <m_primary>  (43) 
energy

$$$$
43:0
     RDKit          3D

 36 37  0  0  0  0  0  0  0  0999 V2000
   55.7210   24.5480   46.5600 O   0  0  0  0  0  0  0  0  0  0  0  0
   56.0600   25.7570   46.4550 C   0  0  0  0  0  0  0  0  0  0  0  0
   55.1450   26.6880   45.9800 O   0  0  0  0  0  0  0  0  0  0  0  0
   57.4280   26.1950   46.8770 C   0  0  0  0  0  0  0  0  0  0  0  0
   58.0630   27.1470   45.8550 C   0  0  0  0  0  0  0  0  0  0  0  0
   58.4780   28.4600   46.4770 C   0  0  0  0  0  0  0  0  0  0  0  0
   58.5780   28.6640   47.8410 C   0  0  0  0  0  0  0  0  0  0  0  0
   58.8960   29.9920   48.0220 C   0  0  0  0  0  0  0  0  0  0  0  0
   58.9820   30.5530   46.7610 C   0  0  0  0  0  0  0  0  0  0  0  0
   59.2390   31.9900   46.5170 C   0  0  0  0  0  0  0  0  0  0  0  0
   60.5110   32.5270   46.7790 C   0  0  0  0  0  0  0  0  0  0  0  0
   60.7690   33.8790   46.5390 C   0  0  0  0  0  0  0  0  0  0  0  0
   59.7650   34.7040   46.0260 C   0  0  0  0  0  0  0  0  0  0  0  0
   58.5020   34.1740   45.7460 C   0  0  0  0  0  0  0  0  0  0  0  0
   58.2410   32.8220   45.9840 C   0  0  0  0  0  0  0  0  0  0  0  0
   58.7170   29.6180   45.8120 N   0  0  0  0  0  0  0  0  0  0  0  0
   58.5870   29.8480   44.3650 C   0  0  0  0  0  0  0  0  0  0  0  0
   57.2700   29.2730   43.8340 C   0  0  0  0  0  0  0  0  0  0  0  0
   56.1030   29.9480   44.4810 C   0  0  0  0  0  0  0  0  0  0  0  0
   55.1150   29.2710   44.8700 O   0  0  0  0  0  0  0  0  0  0  0  0
   56.1290   31.3190   44.7020 O   0  0  0  0  0  0  0  0  0  0  0  0
   57.3535   26.7110   47.8456 H   0  0  0  0  0  0  0  0  0  0  0  0
   58.0646   25.3011   46.9526 H   0  0  0  0  0  0  0  0  0  0  0  0
   58.9519   26.6626   45.4246 H   0  0  0  0  0  0  0  0  0  0  0  0
   57.3103   27.3630   45.0825 H   0  0  0  0  0  0  0  0  0  0  0  0
   58.4318   27.9110   48.6294 H   0  0  0  0  0  0  0  0  0  0  0  0
   59.0512   30.5059   48.9821 H   0  0  0  0  0  0  0  0  0  0  0  0
   61.3074   31.8797   47.1750 H   0  0  0  0  0  0  0  0  0  0  0  0
   61.7644   34.2946   46.7544 H   0  0  0  0  0  0  0  0  0  0  0  0
   59.9680   35.7694   45.8426 H   0  0  0  0  0  0  0  0  0  0  0  0
   57.7126   34.8222   45.3378 H   0  0  0  0  0  0  0  0  0  0  0  0
   57.2488   32.4073   45.7527 H   0  0  0  0  0  0  0  0  0  0  0  0
   58.6120   30.9301   44.1691 H   0  0  0  0  0  0  0  0  0  0  0  0
   59.4207   29.3445   43.8537 H   0  0  0  0  0  0  0  0  0  0  0  0
   57.2201   29.4283   42.7462 H   0  0  0  0  0  0  0  0  0  0  0  0
   57.2324   28.1986   44.0667 H   0  0  0  0  0  0  0  0  0  0  0  0
  1  2  2  0
  2  3  1  0
  2  4  1  0
  4  5  1  0
  5  6  1  0
  6  7  2  0
  7  8  1  0
  8  9  2  0
  9 10  1  0
 10 11  2  0
 11 12  1  0
 12 13  2  0
 13 14  1  0
 14 15  2  0
  9 16  1  0
 16 17  1  0
 17 18  1  0
 18 19  1  0
 19 20  2  0
 19 21  1  0
 16  6  1  0
 15 10  1  0
  4 22  1  0
  4 23  1  0
  5 24  1  0
  5 25  1  0
  7 26  1  0
  8 27  1  0
 11 28  1  0
 12 29  1  0
 13 30  1  0
 14 31  1  0
 15 32  1  0
 17 33  1  0
 17 34  1  0
 18 35  1  0
 18 36  1  0
M  CHG  2   3  -1  21  -1
M  END
>  <UniqueID>  (44) 
38

>  <SMILES>  (44) 
O=C([O-])CCc1ccc(-c2ccccc2)n1CCC(=O)[O-]

>  <Energy>  (44) 
61.48481849392991

>  <Genealogy>  (44) 
O=C([O-])CCc1ccc(-c2ccccc2)n1CCC(=O)[O-] (protonated)
O=C([O-])CCc1ccc(-c2ccccc2)n1CCC(=O)[O-] (3D coordinates assigned)
O=C([O-])CCc1ccc(-c2ccccc2)n1CCC(=O)[O-] (optimized conformer: 61.48481849392991 kcal/mol)

>  <smiles>  (44) 
O=C(O)CCc1ccc(-c2ccccc2)n1CCC(=O)O

>  <score_type>  (44) 
oracle

>  <origin>  (44) 
adg

>  <m_score__min__energy>  (44) 
-13.220000000000001

>  <m_primary>  (44) 
energy

$$$$
44:0
     RDKit          3D

 31 32  0  0  0  0  0  0  0  0999 V2000
   57.5610   25.8620   46.5770 C   0  0  0  0  0  0  0  0  0  0  0  0
   56.5930   26.8410   45.9810 C   0  0  0  0  0  0  0  0  0  0  0  0
   55.3620   26.5790   46.0420 O   0  0  0  0  0  0  0  0  0  0  0  0
   57.0490   28.0980   45.3260 C   0  0  0  0  0  0  0  0  0  0  0  0
   58.4240   28.3430   45.1520 C   0  0  0  0  0  0  0  0  0  0  0  0
   58.8680   29.5180   44.5390 C   0  0  0  0  0  0  0  0  0  0  0  0
   57.9430   30.4750   44.0820 C   0  0  0  0  0  0  0  0  0  0  0  0
   58.3340   31.6690   43.4550 O   0  0  0  0  0  0  0  0  0  0  0  0
   57.7780   32.9580   43.7160 C   0  0  0  0  0  0  0  0  0  0  0  0
   58.2740   33.5010   45.0300 C   0  0  0  0  0  0  0  0  0  0  0  0
   57.8130   32.9670   46.2450 C   0  0  0  0  0  0  0  0  0  0  0  0
   58.2700   33.4840   47.4600 C   0  0  0  0  0  0  0  0  0  0  0  0
   59.1840   34.5420   47.4720 C   0  0  0  0  0  0  0  0  0  0  0  0
   59.6370   35.0880   46.2680 C   0  0  0  0  0  0  0  0  0  0  0  0
   59.1810   34.5730   45.0500 C   0  0  0  0  0  0  0  0  0  0  0  0
   56.5780   30.2370   44.2590 C   0  0  0  0  0  0  0  0  0  0  0  0
   56.1300   29.0640   44.8720 C   0  0  0  0  0  0  0  0  0  0  0  0
   57.5079   25.9157   47.6744 H   0  0  0  0  0  0  0  0  0  0  0  0
   57.3038   24.8447   46.2468 H   0  0  0  0  0  0  0  0  0  0  0  0
   58.5811   26.1077   46.2468 H   0  0  0  0  0  0  0  0  0  0  0  0
   59.1572   27.6016   45.5023 H   0  0  0  0  0  0  0  0  0  0  0  0
   59.9462   29.6956   44.4131 H   0  0  0  0  0  0  0  0  0  0  0  0
   58.0695   33.6461   42.9089 H   0  0  0  0  0  0  0  0  0  0  0  0
   56.6830   32.8651   43.7649 H   0  0  0  0  0  0  0  0  0  0  0  0
   57.0894   32.1386   46.2397 H   0  0  0  0  0  0  0  0  0  0  0  0
   57.9102   33.0581   48.4083 H   0  0  0  0  0  0  0  0  0  0  0  0
   59.5466   34.9447   48.4293 H   0  0  0  0  0  0  0  0  0  0  0  0
   60.3526   35.9233   46.2781 H   0  0  0  0  0  0  0  0  0  0  0  0
   59.5342   35.0094   44.1041 H   0  0  0  0  0  0  0  0  0  0  0  0
   55.8470   30.9820   43.9116 H   0  0  0  0  0  0  0  0  0  0  0  0
   55.0510   28.8936   45.0011 H   0  0  0  0  0  0  0  0  0  0  0  0
  1  2  1  0
  2  3  2  0
  2  4  1  0
  4  5  2  0
  5  6  1  0
  6  7  2  0
  7  8  1  0
  8  9  1  0
  9 10  1  0
 10 11  2  0
 11 12  1  0
 12 13  2  0
 13 14  1  0
 14 15  2  0
  7 16  1  0
 16 17  2  0
 17  4  1  0
 15 10  1  0
  1 18  1  0
  1 19  1  0
  1 20  1  0
  5 21  1  0
  6 22  1  0
  9 23  1  0
  9 24  1  0
 11 25  1  0
 12 26  1  0
 13 27  1  0
 14 28  1  0
 15 29  1  0
 16 30  1  0
 17 31  1  0
M  END
>  <UniqueID>  (45) 
39

>  <SMILES>  (45) 
CC(=O)c1ccc(OCc2ccccc2)cc1

>  <Energy>  (45) 
31.605565707339554

>  <Genealogy>  (45) 
CC(=O)c1ccc(OCc2ccccc2)cc1 (3D coordinates assigned)
CC(=O)c1ccc(OCc2ccccc2)cc1 (optimized conformer: 31.605565707339554 kcal/mol)

>  <smiles>  (45) 
CC(=O)c1ccc(OCc2ccccc2)cc1

>  <score_type>  (45) 
oracle

>  <origin>  (45) 
adg

>  <m_score__min__energy>  (45) 
-6.9000000000000004

>  <m_primary>  (45) 
energy

$$$$
45:0
     RDKit          3D

 32 34  0  0  0  0  0  0  0  0999 V2000
   60.1920   34.1660   46.7200 C   0  0  0  0  0  0  0  0  0  0  0  0
   59.2120   33.1350   46.2530 C   0  0  0  0  0  0  0  0  0  0  0  0
   57.8680   33.4950   45.2970 S   0  0  0  0  0  0  0  0  0  0  0  0
   57.3550   31.9080   45.1860 C   0  0  0  0  0  0  0  0  0  0  0  0
   56.2780   31.4680   44.4950 N   0  0  0  0  0  0  0  0  0  0  0  0
   55.9960   30.1380   44.4940 C   0  0  0  0  0  0  0  0  0  0  0  0
   56.7730   29.2710   45.2030 N   0  0  0  0  0  0  0  0  0  0  0  0
   57.8570   29.6880   45.9170 C   0  0  0  0  0  0  0  0  0  0  0  0
   58.7200   28.4680   46.9160 S   0  0  0  0  0  0  0  0  0  0  0  0
   58.9040   27.2510   45.5620 C   0  0  0  0  0  0  0  0  0  0  0  0
   57.7110   26.3390   45.4820 C   0  0  0  0  0  0  0  0  0  0  0  0
   57.6560   25.3220   44.5180 C   0  0  0  0  0  0  0  0  0  0  0  0
   56.5640   24.4520   44.4830 C   0  0  0  0  0  0  0  0  0  0  0  0
   55.5350   24.6070   45.4140 C   0  0  0  0  0  0  0  0  0  0  0  0
   55.6000   25.6010   46.3400 N   0  0  0  0  0  0  0  0  0  0  0  0
   56.6510   26.4620   46.3940 C   0  0  0  0  0  0  0  0  0  0  0  0
   58.1950   31.0580   45.8890 C   0  0  0  0  0  0  0  0  0  0  0  0
   59.2860   31.7490   46.4770 C   0  0  0  0  0  0  0  0  0  0  0  0
   60.4370   31.0990   47.1940 C   0  0  0  0  0  0  0  0  0  0  0  0
   60.2091   34.1840   47.8197 H   0  0  0  0  0  0  0  0  0  0  0  0
   61.1944   33.9170   46.3417 H   0  0  0  0  0  0  0  0  0  0  0  0
   59.8925   35.1545   46.3417 H   0  0  0  0  0  0  0  0  0  0  0  0
   55.1377   29.7602   43.9190 H   0  0  0  0  0  0  0  0  0  0  0  0
   59.0085   27.7890   44.6082 H   0  0  0  0  0  0  0  0  0  0  0  0
   59.7959   26.6395   45.7633 H   0  0  0  0  0  0  0  0  0  0  0  0
   58.4726   25.2095   43.7897 H   0  0  0  0  0  0  0  0  0  0  0  0
   56.5151   23.6524   43.7292 H   0  0  0  0  0  0  0  0  0  0  0  0
   54.6719   23.9252   45.3985 H   0  0  0  0  0  0  0  0  0  0  0  0
   56.6707   27.2568   47.1542 H   0  0  0  0  0  0  0  0  0  0  0  0
   60.2871   31.1837   48.2804 H   0  0  0  0  0  0  0  0  0  0  0  0
   60.4913   30.0369   46.9130 H   0  0  0  0  0  0  0  0  0  0  0  0
   61.3746   31.6010   46.9130 H   0  0  0  0  0  0  0  0  0  0  0  0
  1  2  1  0
  2  3  1  0
  3  4  1  0
  4  5  2  0
  5  6  1  0
  6  7  2  0
  7  8  1  0
  8  9  1  0
  9 10  1  0
 10 11  1  0
 11 12  2  0
 12 13  1  0
 13 14  2  0
 14 15  1  0
 15 16  2  0
  8 17  2  0
 17 18  1  0
 18 19  1  0
 18  2  2  0
 17  4  1  0
 16 11  1  0
  1 20  1  0
  1 21  1  0
  1 22  1  0
  6 23  1  0
 10 24  1  0
 10 25  1  0
 12 26  1  0
 13 27  1  0
 14 28  1  0
 16 29  1  0
 19 30  1  0
 19 31  1  0
 19 32  1  0
M  END
>  <UniqueID>  (46) 
40

>  <SMILES>  (46) 
Cc1sc2ncnc(SCc3cccnc3)c2c1C

>  <Energy>  (46) 
65.07826437919904

>  <Genealogy>  (46) 
Cc1sc2ncnc(SCc3cccnc3)c2c1C (3D coordinates assigned)
Cc1sc2ncnc(SCc3cccnc3)c2c1C (optimized conformer: 65.07826437919904 kcal/mol)

>  <smiles>  (46) 
Cc1sc2ncnc(SCc3cccnc3)c2c1C

>  <score_type>  (46) 
oracle

>  <origin>  (46) 
adg

>  <m_score__min__energy>  (46) 
-7.1399999999999997

>  <m_primary>  (46) 
energy

$$$$
46:0
     RDKit          3D

 40 42  0  0  0  0  0  0  0  0999 V2000
   58.7880   28.5640   44.2480 C   0  0  0  0  0  0  0  0  0  0  0  0
   60.1190   28.5510   44.6730 C   0  0  0  0  0  0  0  0  0  0  0  0
   60.5310   29.3960   45.7100 C   0  0  0  0  0  0  0  0  0  0  0  0
   59.6120   30.2470   46.3360 C   0  0  0  0  0  0  0  0  0  0  0  0
   60.0600   31.0740   47.3760 O   0  0  0  0  0  0  0  0  0  0  0  0
   61.1920   31.8950   47.3000 C   0  0  0  0  0  0  0  0  0  0  0  0
   62.3730   31.4170   47.7790 N   0  0  0  0  0  0  0  0  0  0  0  0
   63.5180   32.1470   47.7350 C   0  0  0  0  0  0  0  0  0  0  0  0
   63.5080   33.4310   47.1950 C   0  0  0  0  0  0  0  0  0  0  0  0
   62.3100   33.9610   46.7150 C   0  0  0  0  0  0  0  0  0  0  0  0
   61.1300   33.2040   46.7650 C   0  0  0  0  0  0  0  0  0  0  0  0
   59.8810   33.7890   46.3450 N   0  0  0  0  0  0  0  0  0  0  0  0
   59.5760   33.8840   44.9050 C   0  0  0  0  0  0  0  0  0  0  0  0
   58.1210   33.4910   44.5670 C   0  0  0  0  0  0  0  0  0  0  0  0
   57.0360   34.2220   45.3760 C   0  0  0  0  0  0  0  0  0  0  0  0
   56.6570   33.5230   46.6190 N   0  0  0  0  0  0  0  0  0  0  0  0
   57.7420   33.3400   47.6050 C   0  0  0  0  0  0  0  0  0  0  0  0
   58.9440   34.2750   47.3790 C   0  0  0  0  0  0  0  0  0  0  0  0
   58.2780   30.2700   45.8910 C   0  0  0  0  0  0  0  0  0  0  0  0
   57.8690   29.4250   44.8540 C   0  0  0  0  0  0  0  0  0  0  0  0
   58.4634   27.8964   43.4362 H   0  0  0  0  0  0  0  0  0  0  0  0
   60.8431   27.8766   44.1926 H   0  0  0  0  0  0  0  0  0  0  0  0
   61.5819   29.3915   46.0348 H   0  0  0  0  0  0  0  0  0  0  0  0
   64.4546   31.7233   48.1265 H   0  0  0  0  0  0  0  0  0  0  0  0
   64.4351   34.0210   47.1475 H   0  0  0  0  0  0  0  0  0  0  0  0
   62.2906   34.9776   46.2952 H   0  0  0  0  0  0  0  0  0  0  0  0
   59.7432   34.9213   44.5794 H   0  0  0  0  0  0  0  0  0  0  0  0
   60.2368   33.1768   44.3822 H   0  0  0  0  0  0  0  0  0  0  0  0
   57.9508   33.7035   43.5012 H   0  0  0  0  0  0  0  0  0  0  0  0
   58.0265   32.4260   44.8257 H   0  0  0  0  0  0  0  0  0  0  0  0
   57.4123   35.2215   45.6395 H   0  0  0  0  0  0  0  0  0  0  0  0
   56.1370   34.2679   44.7438 H   0  0  0  0  0  0  0  0  0  0  0  0
   56.2870   32.5810   46.3550 H   0  0  0  0  0  0  0  0  0  0  0  0
   55.8760   34.0480   47.0780 H   0  0  0  0  0  0  0  0  0  0  0  0
   57.3357   33.5323   48.6090 H   0  0  0  0  0  0  0  0  0  0  0  0
   58.1094   32.3093   47.4929 H   0  0  0  0  0  0  0  0  0  0  0  0
   58.5655   35.2607   47.0706 H   0  0  0  0  0  0  0  0  0  0  0  0
   59.5017   34.3206   48.3261 H   0  0  0  0  0  0  0  0  0  0  0  0
   57.5548   30.9539   46.3594 H   0  0  0  0  0  0  0  0  0  0  0  0
   56.8226   29.4382   44.5150 H   0  0  0  0  0  0  0  0  0  0  0  0
  1  2  2  0
  2  3  1  0
  3  4  2  0
  4  5  1  0
  5  6  1  0
  6  7  2  0
  7  8  1  0
  8  9  2  0
  9 10  1  0
 10 11  2  0
 11 12  1  0
 12 13  1  0
 13 14  1  0
 14 15  1  0
 15 16  1  0
 16 17  1  0
 17 18  1  0
  4 19  1  0
 19 20  2  0
 20  1  1  0
 11  6  1  0
 18 12  1  0
  1 21  1  0
  2 22  1  0
  3 23  1  0
  8 24  1  0
  9 25  1  0
 10 26  1  0
 13 27  1  0
 13 28  1  0
 14 29  1  0
 14 30  1  0
 15 31  1  0
 15 32  1  0
 16 33  1  0
 16 34  1  0
 17 35  1  0
 17 36  1  0
 18 37  1  0
 18 38  1  0
 19 39  1  0
 20 40  1  0
M  CHG  1  16   1
M  END
>  <UniqueID>  (47) 
41

>  <SMILES>  (47) 
c1ccc(Oc2ncccc2N2CCC[NH2+]CC2)cc1

>  <Energy>  (47) 
62.88414250815104

>  <Genealogy>  (47) 
c1ccc(Oc2ncccc2N2CCC[NH2+]CC2)cc1 (protonated)
c1ccc(Oc2ncccc2N2CCC[NH2+]CC2)cc1 (3D coordinates assigned)
c1ccc(Oc2ncccc2N2CCC[NH2+]CC2)cc1 (nonaromatic ring conformer: 62.88414250815104 kcal/mol)

>  <smiles>  (47) 
c1ccc(Oc2ncccc2N2CCCNCC2)cc1

>  <score_type>  (47) 
oracle

>  <origin>  (47) 
adg

>  <m_score__min__energy>  (47) 
-3.2799999999999998

>  <m_primary>  (47) 
energy

$$$$
47:0
     RDKit          3D

 65 69  0  0  1  0  0  0  0  0999 V2000
   58.9420   29.0960   48.4390 C   0  0  0  0  0  0  0  0  0  0  0  0
   59.4310   29.3950   47.1140 N   0  0  0  0  0  0  0  0  0  0  0  0
   60.7300   29.9670   47.1950 C   0  0  0  0  0  0  0  0  0  0  0  0
   59.2630   28.2940   46.2300 C   0  0  0  0  0  0  0  0  0  0  0  0
   59.0950   28.7610   44.8020 C   0  0  0  0  0  0  0  0  0  0  0  0
   57.8870   29.5070   44.6170 N   0  0  0  0  0  0  0  0  0  0  0  0
   56.7050   29.0130   44.2900 N   0  0  0  0  0  0  0  0  0  0  0  0
   55.8100   30.0190   44.2070 C   0  0  0  0  0  0  0  0  0  0  0  0
   56.4440   31.1840   44.4910 N   0  0  0  0  0  0  0  0  0  0  0  0
   57.7100   30.8540   44.7390 C   0  0  0  0  0  0  0  0  0  0  0  0
   58.6830   31.6340   45.0570 N   0  0  0  0  0  0  0  0  0  0  0  0
   58.4870   32.7400   45.9080 C   0  0  0  0  0  0  0  0  0  0  0  0
   57.8400   33.7210   45.4260 O   0  0  0  0  0  0  0  0  0  0  0  0
   58.9450   32.8730   47.2720 C   0  0  0  0  0  0  0  0  0  0  0  0
   60.2100   33.3570   47.5340 C   0  0  0  0  0  0  0  0  0  0  0  0
   60.6160   33.4910   48.8550 C   0  0  0  0  0  0  0  0  0  0  0  0
   59.7800   33.1510   49.9160 C   0  0  0  0  0  0  0  0  0  0  0  0
   58.5150   32.6670   49.6470 C   0  0  0  0  0  0  0  0  0  0  0  0
   57.6880   32.3330   50.7540 N   0  0  0  0  0  0  0  0  0  0  0  0
   57.8260   31.2450   51.4220 C   0  0  0  0  0  0  0  0  0  0  0  0
   59.0430   30.7340   51.6970 N   0  0  0  0  0  0  0  0  0  0  0  0
   59.2240   29.6060   52.4040 C   0  0  0  0  0  0  0  0  0  0  0  0
   58.1510   28.9380   52.8680 N   0  0  0  0  0  0  0  0  0  0  0  0
   56.8910   29.3950   52.6280 C   0  0  0  0  0  0  0  0  0  0  0  0
   55.8550   28.6560   53.1300 C   0  0  0  0  0  0  0  0  0  0  0  0
   56.0730   27.5790   53.8050 N   0  0  0  0  0  0  0  0  0  0  0  0
   54.5940   29.1140   52.8810 N   0  0  0  0  0  0  0  0  0  0  0  0
   54.4220   30.2410   52.1740 C   0  0  0  0  0  0  0  0  0  0  0  0
   53.0520   30.6390   51.9400 N   0  0  0  0  0  0  0  0  0  0  0  0
   52.5720   30.4050   50.5900 C   0  0  0  0  0  0  0  0  0  0  0  0
   51.4530   31.3510   50.2600 C   0  0  0  0  0  0  0  0  0  0  0  0
   51.3150   32.3900   51.1750 O   0  0  0  0  0  0  0  0  0  0  0  0
   50.9840   31.7680   52.3920 C   0  0  0  0  0  0  0  0  0  0  0  0
   52.2450   31.2150   52.9930 C   0  0  0  0  0  0  0  0  0  0  0  0
   55.4600   30.9640   51.6830 N   0  0  0  0  0  0  0  0  0  0  0  0
   56.7400   30.5510   51.9030 C   0  0  0  0  0  0  0  0  0  0  0  0
   58.1310   32.5390   48.3330 C   0  0  0  0  0  0  0  0  0  0  0  0
   59.6299   29.5166   49.1873 H   0  0  0  0  0  0  0  0  0  0  0  0
   57.9432   29.5380   48.5697 H   0  0  0  0  0  0  0  0  0  0  0  0
   58.8803   28.0055   48.5697 H   0  0  0  0  0  0  0  0  0  0  0  0
   61.0109   30.0907   48.2513 H   0  0  0  0  0  0  0  0  0  0  0  0
   61.4540   29.3044   46.6982 H   0  0  0  0  0  0  0  0  0  0  0  0
   60.7301   30.9484   46.6982 H   0  0  0  0  0  0  0  0  0  0  0  0
   60.1485   27.6444   46.2934 H   0  0  0  0  0  0  0  0  0  0  0  0
   58.3572   27.7444   46.5259 H   0  0  0  0  0  0  0  0  0  0  0  0
   59.9502   29.3991   44.5347 H   0  0  0  0  0  0  0  0  0  0  0  0
   59.0445   27.8703   44.1585 H   0  0  0  0  0  0  0  0  0  0  0  0
   56.4950   27.9840   44.1170 H   0  0  0  0  0  0  0  0  0  0  0  0
   54.7453   29.9124   43.9519 H   0  0  0  0  0  0  0  0  0  0  0  0
   60.8854   33.6320   46.7105 H   0  0  0  0  0  0  0  0  0  0  0  0
   61.6240   33.8757   49.0692 H   0  0  0  0  0  0  0  0  0  0  0  0
   60.1231   33.2666   50.9547 H   0  0  0  0  0  0  0  0  0  0  0  0
   59.9010   31.2100   51.3570 H   0  0  0  0  0  0  0  0  0  0  0  0
   60.2393   29.2317   52.6019 H   0  0  0  0  0  0  0  0  0  0  0  0
   57.0640   27.3140   53.9610 H   0  0  0  0  0  0  0  0  0  0  0  0
   53.7690   28.5810   53.2470 H   0  0  0  0  0  0  0  0  0  0  0  0
   53.3979   30.5591   49.8800 H   0  0  0  0  0  0  0  0  0  0  0  0
   52.1989   29.3727   50.5182 H   0  0  0  0  0  0  0  0  0  0  0  0
   51.6453   31.7846   49.2675 H   0  0  0  0  0  0  0  0  0  0  0  0
   50.5196   30.7696   50.2883 H   0  0  0  0  0  0  0  0  0  0  0  0
   50.5362   32.5034   53.0766 H   0  0  0  0  0  0  0  0  0  0  0  0
   50.2576   30.9598   52.2212 H   0  0  0  0  0  0  0  0  0  0  0  0
   52.8043   32.0234   53.4867 H   0  0  0  0  0  0  0  0  0  0  0  0
   51.9965   30.4435   53.7366 H   0  0  0  0  0  0  0  0  0  0  0  0
   57.1245   32.1509   48.1179 H   0  0  0  0  0  0  0  0  0  0  0  0
  1  2  1  0
  2  3  1  0
  2  4  1  0
  4  5  1  0
  5  6  1  0
  6  7  1  0
  7  8  1  0
  8  9  2  0
  9 10  1  0
 10 11  2  0
 11 12  1  0
 12 13  2  0
 12 14  1  0
 14 15  2  0
 15 16  1  0
 16 17  2  0
 17 18  1  0
 18 19  1  0
 19 20  2  0
 20 21  1  0
 21 22  1  0
 22 23  2  0
 23 24  1  0
 24 25  1  0
 25 26  2  3
 25 27  1  0
 27 28  1  0
 28 29  1  0
 29 30  1  0
 30 31  1  0
 31 32  1  0
 32 33  1  0
 33 34  1  0
 28 35  2  0
 35 36  1  0
 18 37  2  0
 10  6  1  0
 37 14  1  0
 36 20  1  0
 36 24  2  0
 34 29  1  0
  1 38  1  0
  1 39  1  0
  1 40  1  0
  3 41  1  0
  3 42  1  0
  3 43  1  0
  4 44  1  0
  4 45  1  0
  5 46  1  0
  5 47  1  0
  7 48  1  0
  8 49  1  0
 15 50  1  0
 16 51  1  0
 17 52  1  0
 21 53  1  0
 22 54  1  0
 26 55  1  0
 27 56  1  0
 30 57  1  0
 30 58  1  0
 31 59  1  0
 31 60  1  0
 33 61  1  0
 33 62  1  0
 34 63  1  0
 34 64  1  0
 37 65  1  0
M  END
>  <smiles>  (48) 
CN(C)CCn1[nH]cnc1=NC(=O)c1cccc(N=c2[nH]cnc3c(=N)[nH]c(N4CCOCC4)nc23)c1

>  <score_type>  (48) 
oracle

>  <origin>  (48) 
adg

>  <m_score__min__energy>  (48) 
-9.0800000000000001

>  <m_primary>  (48) 
energy

$$$$
48:0
     RDKit          3D

 50 52  0  0  0  0  0  0  0  0999 V2000
   57.7950   31.6710   51.2040 C   0  0  0  0  0  0  0  0  0  0  0  0
   58.9030   32.1990   50.4830 O   0  0  0  0  0  0  0  0  0  0  0  0
   59.6250   31.4970   49.5050 C   0  0  0  0  0  0  0  0  0  0  0  0
   59.4800   30.1070   49.3250 C   0  0  0  0  0  0  0  0  0  0  0  0
   60.2380   29.4300   48.3580 C   0  0  0  0  0  0  0  0  0  0  0  0
   60.1240   27.9320   48.2070 C   0  0  0  0  0  0  0  0  0  0  0  0
   60.5060   27.4410   46.7980 C   0  0  0  0  0  0  0  0  0  0  0  0
   59.3040   27.0210   45.9300 C   0  0  0  0  0  0  0  0  0  0  0  0
   58.5700   28.1880   45.3140 C   0  0  0  0  0  0  0  0  0  0  0  0
   59.2800   29.2360   44.7010 C   0  0  0  0  0  0  0  0  0  0  0  0
   58.5940   30.3030   44.1130 C   0  0  0  0  0  0  0  0  0  0  0  0
   57.1990   30.3440   44.1500 C   0  0  0  0  0  0  0  0  0  0  0  0
   56.4810   29.3190   44.7780 C   0  0  0  0  0  0  0  0  0  0  0  0
   55.0900   29.3540   44.8250 O   0  0  0  0  0  0  0  0  0  0  0  0
   57.1650   28.2490   45.3630 C   0  0  0  0  0  0  0  0  0  0  0  0
   61.1080   30.1580   47.5350 C   0  0  0  0  0  0  0  0  0  0  0  0
   61.2530   31.5350   47.7050 C   0  0  0  0  0  0  0  0  0  0  0  0
   60.5220   32.2130   48.6980 C   0  0  0  0  0  0  0  0  0  0  0  0
   60.6470   33.5970   48.9110 O   0  0  0  0  0  0  0  0  0  0  0  0
   59.7130   34.5900   48.4850 C   0  0  0  0  0  0  0  0  0  0  0  0
   59.0720   34.1930   47.1830 C   0  0  0  0  0  0  0  0  0  0  0  0
   59.6600   34.5780   45.9670 C   0  0  0  0  0  0  0  0  0  0  0  0
   59.0630   34.2270   44.7530 C   0  0  0  0  0  0  0  0  0  0  0  0
   57.8770   33.4880   44.7430 C   0  0  0  0  0  0  0  0  0  0  0  0
   57.2840   33.1020   45.9480 C   0  0  0  0  0  0  0  0  0  0  0  0
   57.8740   33.4580   47.1650 C   0  0  0  0  0  0  0  0  0  0  0  0
   57.9838   31.7610   52.2839 H   0  0  0  0  0  0  0  0  0  0  0  0
   56.8861   32.2328   50.9426 H   0  0  0  0  0  0  0  0  0  0  0  0
   57.6589   30.6112   50.9426 H   0  0  0  0  0  0  0  0  0  0  0  0
   58.7663   29.5480   49.9480 H   0  0  0  0  0  0  0  0  0  0  0  0
   60.7919   27.4536   48.9385 H   0  0  0  0  0  0  0  0  0  0  0  0
   59.0711   27.6622   48.3765 H   0  0  0  0  0  0  0  0  0  0  0  0
   61.0377   28.2537   46.2815 H   0  0  0  0  0  0  0  0  0  0  0  0
   61.1283   26.5440   46.9329 H   0  0  0  0  0  0  0  0  0  0  0  0
   59.6690   26.3723   45.1201 H   0  0  0  0  0  0  0  0  0  0  0  0
   58.5928   26.5031   46.5903 H   0  0  0  0  0  0  0  0  0  0  0  0
   60.3797   29.2161   44.6841 H   0  0  0  0  0  0  0  0  0  0  0  0
   59.1543   31.1114   43.6205 H   0  0  0  0  0  0  0  0  0  0  0  0
   56.6624   31.1839   43.6845 H   0  0  0  0  0  0  0  0  0  0  0  0
   54.5700   30.1710   44.5250 H   0  0  0  0  0  0  0  0  0  0  0  0
   56.6008   27.4492   45.8651 H   0  0  0  0  0  0  0  0  0  0  0  0
   61.6798   29.6406   46.7505 H   0  0  0  0  0  0  0  0  0  0  0  0
   61.9440   32.0951   47.0579 H   0  0  0  0  0  0  0  0  0  0  0  0
   58.9326   34.7043   49.2517 H   0  0  0  0  0  0  0  0  0  0  0  0
   60.2481   35.5402   48.3407 H   0  0  0  0  0  0  0  0  0  0  0  0
   60.5945   35.1583   45.9701 H   0  0  0  0  0  0  0  0  0  0  0  0
   59.5274   34.5329   43.8039 H   0  0  0  0  0  0  0  0  0  0  0  0
   57.4102   33.2101   43.7865 H   0  0  0  0  0  0  0  0  0  0  0  0
   56.3522   32.5175   45.9393 H   0  0  0  0  0  0  0  0  0  0  0  0
   57.3987   33.1617   48.1117 H   0  0  0  0  0  0  0  0  0  0  0  0
  1  2  1  0
  2  3  1  0
  3  4  2  0
  4  5  1  0
  5  6  1  0
  6  7  1  0
  7  8  1  0
  8  9  1  0
  9 10  2  0
 10 11  1  0
 11 12  2  0
 12 13  1  0
 13 14  1  0
 13 15  2  0
  5 16  2  0
 16 17  1  0
 17 18  2  0
 18 19  1  0
 19 20  1  0
 20 21  1  0
 21 22  2  0
 22 23  1  0
 23 24  2  0
 24 25  1  0
 25 26  2  0
 18  3  1  0
 26 21  1  0
 15  9  1  0
  1 27  1  0
  1 28  1  0
  1 29  1  0
  4 30  1  0
  6 31  1  0
  6 32  1  0
  7 33  1  0
  7 34  1  0
  8 35  1  0
  8 36  1  0
 10 37  1  0
 11 38  1  0
 12 39  1  0
 14 40  1  0
 15 41  1  0
 16 42  1  0
 17 43  1  0
 20 44  1  0
 20 45  1  0
 22 46  1  0
 23 47  1  0
 24 48  1  0
 25 49  1  0
 26 50  1  0
M  END
>  <UniqueID>  (49) 
42

>  <SMILES>  (49) 
COc1cc(CCCc2cccc(O)c2)ccc1OCc1ccccc1

>  <Energy>  (49) 
41.740466783431536

>  <Genealogy>  (49) 
COc1cc(CCCc2cccc(O)c2)ccc1OCc1ccccc1 (3D coordinates assigned)
COc1cc(CCCc2cccc(O)c2)ccc1OCc1ccccc1 (optimized conformer: 41.740466783431536 kcal/mol)

>  <smiles>  (49) 
COc1cc(CCCc2cccc(O)c2)ccc1OCc1ccccc1

>  <score_type>  (49) 
oracle

>  <origin>  (49) 
adg

>  <m_score__min__energy>  (49) 
-9.0700000000000003

>  <m_primary>  (49) 
energy

$$$$
49:0
     RDKit          3D

 40 42  0  0  1  0  0  0  0  0999 V2000
   58.8990   27.8000   44.1020 C   0  0  0  0  0  0  0  0  0  0  0  0
   59.0280   28.2030   45.5100 N   0  0  0  0  0  0  0  0  0  0  0  0
   59.9580   29.3390   45.4950 C   0  0  0  0  0  0  0  0  0  0  0  0
   57.7260   28.6850   45.9910 C   0  0  0  0  0  0  0  0  0  0  0  0
   56.7110   28.4790   44.8940 C   0  0  0  0  0  0  0  0  0  0  0  0
   56.0510   29.7530   44.6720 N   0  0  0  0  0  0  0  0  0  0  0  0
   56.6830   30.6500   44.0130 C   0  0  0  0  0  0  0  0  0  0  0  0
   56.6520   30.8020   42.6480 C   0  0  0  0  0  0  0  0  0  0  0  0
   57.3830   31.8210   42.0480 C   0  0  0  0  0  0  0  0  0  0  0  0
   58.1350   32.6840   42.7470 N   0  0  0  0  0  0  0  0  0  0  0  0
   58.1480   32.5130   44.0910 C   0  0  0  0  0  0  0  0  0  0  0  0
   58.8160   33.2380   45.0600 C   0  0  0  0  0  0  0  0  0  0  0  0
   58.4930   32.6620   46.2690 C   0  0  0  0  0  0  0  0  0  0  0  0
   58.9580   33.1030   47.6010 C   0  0  0  0  0  0  0  0  0  0  0  0
   58.5490   32.3680   48.7210 C   0  0  0  0  0  0  0  0  0  0  0  0
   58.9680   32.7280   49.9990 C   0  0  0  0  0  0  0  0  0  0  0  0
   59.7950   33.8360   50.0600 C   0  0  0  0  0  0  0  0  0  0  0  0
   60.2210   34.2070   51.2940 F   0  0  0  0  0  0  0  0  0  0  0  0
   60.2040   34.5640   48.9910 C   0  0  0  0  0  0  0  0  0  0  0  0
   59.7810   34.2000   47.7110 C   0  0  0  0  0  0  0  0  0  0  0  0
   57.6660   31.6390   46.0000 N   0  0  0  0  0  0  0  0  0  0  0  0
   57.4540   31.5400   44.7030 N   0  0  0  0  0  0  0  0  0  0  0  0
   58.5640   26.7536   44.0493 H   0  0  0  0  0  0  0  0  0  0  0  0
   58.1628   28.4463   43.6016 H   0  0  0  0  0  0  0  0  0  0  0  0
   59.8736   27.8986   43.6016 H   0  0  0  0  0  0  0  0  0  0  0  0
   60.1970   29.6309   46.5283 H   0  0  0  0  0  0  0  0  0  0  0  0
   60.8819   29.0497   44.9727 H   0  0  0  0  0  0  0  0  0  0  0  0
   59.4919   30.1875   44.9727 H   0  0  0  0  0  0  0  0  0  0  0  0
   57.4271   28.1191   46.8856 H   0  0  0  0  0  0  0  0  0  0  0  0
   57.7896   29.7513   46.2537 H   0  0  0  0  0  0  0  0  0  0  0  0
   57.2139   28.1500   43.9727 H   0  0  0  0  0  0  0  0  0  0  0  0
   55.9813   27.7066   45.1785 H   0  0  0  0  0  0  0  0  0  0  0  0
   56.0500   30.1188   42.0310 H   0  0  0  0  0  0  0  0  0  0  0  0
   57.3429   31.9238   40.9536 H   0  0  0  0  0  0  0  0  0  0  0  0
   58.6820   33.4460   42.3170 H   0  0  0  0  0  0  0  0  0  0  0  0
   59.4751   34.1036   44.8978 H   0  0  0  0  0  0  0  0  0  0  0  0
   57.8899   31.4972   48.5895 H   0  0  0  0  0  0  0  0  0  0  0  0
   58.6631   32.1709   50.8972 H   0  0  0  0  0  0  0  0  0  0  0  0
   60.8631   35.4334   49.1312 H   0  0  0  0  0  0  0  0  0  0  0  0
   60.0942   34.7693   46.8234 H   0  0  0  0  0  0  0  0  0  0  0  0
  1  2  1  0
  2  3  1  0
  2  4  1  0
  4  5  1  0
  5  6  1  0
  6  7  2  0
  7  8  1  0
  8  9  2  0
  9 10  1  0
 10 11  1  0
 11 12  2  0
 12 13  1  0
 13 14  1  0
 14 15  2  0
 15 16  1  0
 16 17  2  0
 17 18  1  0
 17 19  1  0
 19 20  2  0
 13 21  2  0
 21 22  1  0
 22  7  1  0
 22 11  1  0
 20 14  1  0
  1 23  1  0
  1 24  1  0
  1 25  1  0
  3 26  1  0
  3 27  1  0
  3 28  1  0
  4 29  1  0
  4 30  1  0
  5 31  1  0
  5 32  1  0
  8 33  1  0
  9 34  1  0
 10 35  1  0
 12 36  1  0
 15 37  1  0
 16 38  1  0
 19 39  1  0
 20 40  1  0
M  END
>  <smiles>  (50) 
CN(C)CCN=c1cc[nH]c2cc(-c3ccc(F)cc3)nn12

>  <score_type>  (50) 
oracle

>  <origin>  (50) 
adg

>  <m_score__min__energy>  (50) 
-6.5300000000000002

>  <m_primary>  (50) 
energy

$$$$
50:0
     RDKit          3D

 39 42  0  0  0  0  0  0  0  0999 V2000
   64.6930   33.0740   49.2790 C   0  0  0  0  0  0  0  0  0  0  0  0
   63.9560   33.3520   48.0920 O   0  0  0  0  0  0  0  0  0  0  0  0
   62.6890   32.8250   47.8060 C   0  0  0  0  0  0  0  0  0  0  0  0
   62.5020   31.4940   47.3830 C   0  0  0  0  0  0  0  0  0  0  0  0
   61.2160   31.0150   47.1150 C   0  0  0  0  0  0  0  0  0  0  0  0
   60.1020   31.8420   47.2900 C   0  0  0  0  0  0  0  0  0  0  0  0
   58.7980   31.3480   46.9540 N   0  0  0  0  0  0  0  0  0  0  0  0
   58.4350   30.4070   46.1160 C   0  0  0  0  0  0  0  0  0  0  0  0
   58.3660   29.0180   46.4490 C   0  0  0  0  0  0  0  0  0  0  0  0
   59.0380   28.4440   47.5540 C   0  0  0  0  0  0  0  0  0  0  0  0
   58.8950   27.0890   47.8590 C   0  0  0  0  0  0  0  0  0  0  0  0
   58.1230   26.2650   47.0450 C   0  0  0  0  0  0  0  0  0  0  0  0
   57.5350   26.7810   45.8930 C   0  0  0  0  0  0  0  0  0  0  0  0
   57.6810   28.1400   45.5650 C   0  0  0  0  0  0  0  0  0  0  0  0
   57.2040   28.5940   44.3740 N   0  0  0  0  0  0  0  0  0  0  0  0
   57.4060   29.8740   43.9600 C   0  0  0  0  0  0  0  0  0  0  0  0
   56.9670   30.2760   42.6880 C   0  0  0  0  0  0  0  0  0  0  0  0
   57.1540   31.5900   42.2580 C   0  0  0  0  0  0  0  0  0  0  0  0
   57.7720   32.5180   43.0950 C   0  0  0  0  0  0  0  0  0  0  0  0
   58.2080   32.1360   44.3660 C   0  0  0  0  0  0  0  0  0  0  0  0
   58.0390   30.8070   44.8160 C   0  0  0  0  0  0  0  0  0  0  0  0
   60.2890   33.1800   47.6750 C   0  0  0  0  0  0  0  0  0  0  0  0
   61.5730   33.6600   47.9450 C   0  0  0  0  0  0  0  0  0  0  0  0
   64.0742   33.3074   50.1579 H   0  0  0  0  0  0  0  0  0  0  0  0
   64.9700   32.0096   49.2978 H   0  0  0  0  0  0  0  0  0  0  0  0
   65.6039   33.6903   49.2978 H   0  0  0  0  0  0  0  0  0  0  0  0
   63.3705   30.8296   47.2632 H   0  0  0  0  0  0  0  0  0  0  0  0
   61.0797   29.9813   46.7644 H   0  0  0  0  0  0  0  0  0  0  0  0
   59.6832   29.0752   48.1827 H   0  0  0  0  0  0  0  0  0  0  0  0
   59.3942   26.6712   48.7457 H   0  0  0  0  0  0  0  0  0  0  0  0
   57.9776   25.2077   47.3114 H   0  0  0  0  0  0  0  0  0  0  0  0
   56.9519   26.1202   45.2348 H   0  0  0  0  0  0  0  0  0  0  0  0
   56.7120   27.9280   43.7350 H   0  0  0  0  0  0  0  0  0  0  0  0
   56.4723   29.5499   42.0262 H   0  0  0  0  0  0  0  0  0  0  0  0
   56.8134   31.8942   41.2573 H   0  0  0  0  0  0  0  0  0  0  0  0
   57.9167   33.5537   42.7537 H   0  0  0  0  0  0  0  0  0  0  0  0
   58.6875   32.8767   45.0229 H   0  0  0  0  0  0  0  0  0  0  0  0
   59.4223   33.8515   47.7641 H   0  0  0  0  0  0  0  0  0  0  0  0
   61.7086   34.7023   48.2694 H   0  0  0  0  0  0  0  0  0  0  0  0
  1  2  1  0
  2  3  1  0
  3  4  2  0
  4  5  1  0
  5  6  2  0
  6  7  1  0
  7  8  2  3
  8  9  1  0
  9 10  2  0
 10 11  1  0
 11 12  2  0
 12 13  1  0
 13 14  2  0
 14 15  1  0
 15 16  1  0
 16 17  2  0
 17 18  1  0
 18 19  2  0
 19 20  1  0
 20 21  2  0
  6 22  1  0
 22 23  2  0
 23  3  1  0
 21  8  1  0
 14  9  1  0
 21 16  1  0
  1 24  1  0
  1 25  1  0
  1 26  1  0
  4 27  1  0
  5 28  1  0
 10 29  1  0
 11 30  1  0
 12 31  1  0
 13 32  1  0
 15 33  1  0
 17 34  1  0
 18 35  1  0
 19 36  1  0
 20 37  1  0
 22 38  1  0
 23 39  1  0
M  END
>  <UniqueID>  (51) 
43

>  <SMILES>  (51) 
COc1ccc(N=c2c3ccccc3[nH]c3ccccc23)cc1

>  <Energy>  (51) 
72.26379284022961

>  <Genealogy>  (51) 
COc1ccc(N=c2c3ccccc3[nH]c3ccccc23)cc1 (3D coordinates assigned)
COc1ccc(N=c2c3ccccc3[nH]c3ccccc23)cc1 (optimized conformer: 72.26379284022961 kcal/mol)

>  <smiles>  (51) 
COc1ccc(N=c2c3ccccc3[nH]c3ccccc23)cc1

>  <score_type>  (51) 
oracle

>  <origin>  (51) 
adg

>  <m_score__min__energy>  (51) 
-7.54

>  <m_primary>  (51) 
energy

$$$$
51:0
     RDKit          3D

 24 25  0  0  0  0  0  0  0  0999 V2000
   56.1460   30.0110   44.9330 O   0  0  0  0  0  0  0  0  0  0  0  0
   57.3390   30.2970   44.6400 C   0  0  0  0  0  0  0  0  0  0  0  0
   58.1670   29.3200   43.9840 N   0  0  0  0  0  0  0  0  0  0  0  0
   57.9260   27.9040   44.0340 C   0  0  0  0  0  0  0  0  0  0  0  0
   58.0410   27.0860   42.8990 C   0  0  0  0  0  0  0  0  0  0  0  0
   57.7760   25.7570   42.9880 N   0  0  0  0  0  0  0  0  0  0  0  0
   57.3910   25.1990   44.1650 C   0  0  0  0  0  0  0  0  0  0  0  0
   57.2530   25.9720   45.2720 N   0  0  0  0  0  0  0  0  0  0  0  0
   57.5040   27.3060   45.2280 C   0  0  0  0  0  0  0  0  0  0  0  0
   57.8490   31.6610   44.9130 C   0  0  0  0  0  0  0  0  0  0  0  0
   58.0510   32.0760   46.2430 C   0  0  0  0  0  0  0  0  0  0  0  0
   58.5290   33.3590   46.5200 C   0  0  0  0  0  0  0  0  0  0  0  0
   58.8190   34.2410   45.4770 C   0  0  0  0  0  0  0  0  0  0  0  0
   59.2860   35.4850   45.7490 F   0  0  0  0  0  0  0  0  0  0  0  0
   58.6390   33.8370   44.1530 C   0  0  0  0  0  0  0  0  0  0  0  0
   58.1600   32.5530   43.8650 C   0  0  0  0  0  0  0  0  0  0  0  0
   58.0450   32.1780   42.5670 F   0  0  0  0  0  0  0  0  0  0  0  0
   58.9210   29.6670   43.3500 H   0  0  0  0  0  0  0  0  0  0  0  0
   58.3461   27.5220   41.9363 H   0  0  0  0  0  0  0  0  0  0  0  0
   57.1907   24.1188   44.2211 H   0  0  0  0  0  0  0  0  0  0  0  0
   57.3755   27.9184   46.1327 H   0  0  0  0  0  0  0  0  0  0  0  0
   57.8308   31.3850   47.0700 H   0  0  0  0  0  0  0  0  0  0  0  0
   58.6774   33.6755   47.5630 H   0  0  0  0  0  0  0  0  0  0  0  0
   58.8745   34.5304   43.3322 H   0  0  0  0  0  0  0  0  0  0  0  0
  1  2  2  0
  2  3  1  0
  3  4  1  0
  4  5  2  0
  5  6  1  0
  6  7  2  0
  7  8  1  0
  8  9  2  0
  2 10  1  0
 10 11  2  0
 11 12  1  0
 12 13  2  0
 13 14  1  0
 13 15  1  0
 15 16  2  0
 16 17  1  0
  9  4  1  0
 16 10  1  0
  3 18  1  0
  5 19  1  0
  7 20  1  0
  9 21  1  0
 11 22  1  0
 12 23  1  0
 15 24  1  0
M  END
>  <UniqueID>  (52) 
44

>  <SMILES>  (52) 
O=C(Nc1cncnc1)c1ccc(F)cc1F

>  <Energy>  (52) 
33.1220923728576

>  <Genealogy>  (52) 
O=C(Nc1cncnc1)c1ccc(F)cc1F (3D coordinates assigned)
O=C(Nc1cncnc1)c1ccc(F)cc1F (optimized conformer: 33.1220923728576 kcal/mol)

>  <smiles>  (52) 
O=C(Nc1cncnc1)c1ccc(F)cc1F

>  <score_type>  (52) 
oracle

>  <origin>  (52) 
adg

>  <m_score__min__energy>  (52) 
-5.8399999999999999

>  <m_primary>  (52) 
energy

$$$$
52:0
     RDKit          3D

 63 67  0  0  1  0  0  0  0  0999 V2000
   61.6560   31.2080   47.1510 C   0  0  0  0  0  0  0  0  0  0  0  0
   61.5740   32.5480   47.5760 N   0  0  0  0  0  0  0  0  0  0  0  0
   62.4950   33.4830   47.0380 C   0  0  0  0  0  0  0  0  0  0  0  0
   60.5010   32.9970   48.3360 C   0  0  0  0  0  0  0  0  0  0  0  0
   59.1060   32.7760   47.8300 C   0  0  0  0  0  0  0  0  0  0  0  0
   58.8480   33.3270   46.5280 N   0  0  0  0  0  0  0  0  0  0  0  0
   59.2230   34.6200   46.2380 C   0  0  0  0  0  0  0  0  0  0  0  0
   58.9530   34.9090   44.9680 N   0  0  0  0  0  0  0  0  0  0  0  0
   58.4170   33.8250   44.4620 N   0  0  0  0  0  0  0  0  0  0  0  0
   58.3480   32.8580   45.4060 C   0  0  0  0  0  0  0  0  0  0  0  0
   57.7420   31.5230   45.2030 C   0  0  0  0  0  0  0  0  0  0  0  0
   56.6420   31.3200   44.4920 N   0  0  0  0  0  0  0  0  0  0  0  0
   56.1750   30.0790   44.3420 C   0  0  0  0  0  0  0  0  0  0  0  0
   56.8370   28.9970   44.9270 C   0  0  0  0  0  0  0  0  0  0  0  0
   57.9780   29.1800   45.6670 C   0  0  0  0  0  0  0  0  0  0  0  0
   58.7390   28.2890   46.2940 O   0  0  0  0  0  0  0  0  0  0  0  0
   59.3560   28.2390   47.4690 C   0  0  0  0  0  0  0  0  0  0  0  0
   59.3770   29.1700   48.4810 C   0  0  0  0  0  0  0  0  0  0  0  0
   60.0810   28.9790   49.6730 C   0  0  0  0  0  0  0  0  0  0  0  0
   60.7980   27.8260   49.8900 C   0  0  0  0  0  0  0  0  0  0  0  0
   61.4870   27.7020   51.1230 N   0  0  0  0  0  0  0  0  0  0  0  0
   61.7110   26.4980   51.8060 C   0  0  0  0  0  0  0  0  0  0  0  0
   61.3340   25.3630   51.4220 O   0  0  0  0  0  0  0  0  0  0  0  0
   62.4370   26.5690   53.0500 N   0  0  0  0  0  0  0  0  0  0  0  0
   63.7210   26.7130   53.0570 C   0  0  0  0  0  0  0  0  0  0  0  0
   64.5730   26.4480   51.9970 C   0  0  0  0  0  0  0  0  0  0  0  0
   65.8570   26.7360   52.4250 C   0  0  0  0  0  0  0  0  0  0  0  0
   67.0760   26.6040   51.6400 C   0  0  0  0  0  0  0  0  0  0  0  0
   68.1640   25.9500   52.1940 C   0  0  0  0  0  0  0  0  0  0  0  0
   69.2980   25.8590   51.3870 C   0  0  0  0  0  0  0  0  0  0  0  0
   69.3380   26.3730   50.1450 N   0  0  0  0  0  0  0  0  0  0  0  0
   68.2870   27.0170   49.5820 C   0  0  0  0  0  0  0  0  0  0  0  0
   67.1500   27.1210   50.3630 C   0  0  0  0  0  0  0  0  0  0  0  0
   65.7790   27.1580   53.6980 N   0  0  0  0  0  0  0  0  0  0  0  0
   64.4980   27.1410   54.0680 N   0  0  0  0  0  0  0  0  0  0  0  0
   60.7940   26.8820   48.9000 C   0  0  0  0  0  0  0  0  0  0  0  0
   60.1050   27.0730   47.7360 C   0  0  0  0  0  0  0  0  0  0  0  0
   58.3810   30.4990   45.7660 N   0  0  0  0  0  0  0  0  0  0  0  0
   61.6965   30.5467   48.0291 H   0  0  0  0  0  0  0  0  0  0  0  0
   60.7713   30.9604   46.5460 H   0  0  0  0  0  0  0  0  0  0  0  0
   62.5643   31.0701   46.5460 H   0  0  0  0  0  0  0  0  0  0  0  0
   63.0091   34.0049   47.8585 H   0  0  0  0  0  0  0  0  0  0  0  0
   63.2349   32.9543   46.4191 H   0  0  0  0  0  0  0  0  0  0  0  0
   61.9552   34.2149   46.4191 H   0  0  0  0  0  0  0  0  0  0  0  0
   60.5705   32.5014   49.3155 H   0  0  0  0  0  0  0  0  0  0  0  0
   60.6131   34.0912   48.3286 H   0  0  0  0  0  0  0  0  0  0  0  0
   58.9246   31.6920   47.7860 H   0  0  0  0  0  0  0  0  0  0  0  0
   58.4347   33.2976   48.5281 H   0  0  0  0  0  0  0  0  0  0  0  0
   59.6815   35.3161   46.9558 H   0  0  0  0  0  0  0  0  0  0  0  0
   55.2619   29.9068   43.7533 H   0  0  0  0  0  0  0  0  0  0  0  0
   56.4370   27.9812   44.7922 H   0  0  0  0  0  0  0  0  0  0  0  0
   58.8150   30.1060   48.3463 H   0  0  0  0  0  0  0  0  0  0  0  0
   60.0613   29.7604   50.4469 H   0  0  0  0  0  0  0  0  0  0  0  0
   61.8510   28.6090   51.5330 H   0  0  0  0  0  0  0  0  0  0  0  0
   64.2832   26.0782   51.0024 H   0  0  0  0  0  0  0  0  0  0  0  0
   68.1355   25.5278   53.2093 H   0  0  0  0  0  0  0  0  0  0  0  0
   70.1901   25.3494   51.7800 H   0  0  0  0  0  0  0  0  0  0  0  0
   68.3351   27.4323   48.5646 H   0  0  0  0  0  0  0  0  0  0  0  0
   66.2703   27.6361   49.9497 H   0  0  0  0  0  0  0  0  0  0  0  0
   66.6100   27.4370   54.2540 H   0  0  0  0  0  0  0  0  0  0  0  0
   64.1850   27.4250   55.0150 H   0  0  0  0  0  0  0  0  0  0  0  0
   61.3579   25.9487   49.0444 H   0  0  0  0  0  0  0  0  0  0  0  0
   60.1353   26.2821   46.9721 H   0  0  0  0  0  0  0  0  0  0  0  0
  1  2  1  0
  2  3  1  0
  2  4  1  0
  4  5  1  0
  5  6  1  0
  6  7  1  0
  7  8  2  0
  8  9  1  0
  9 10  2  0
 10 11  1  0
 11 12  2  0
 12 13  1  0
 13 14  2  0
 14 15  1  0
 15 16  1  0
 16 17  1  0
 17 18  2  0
 18 19  1  0
 19 20  2  0
 20 21  1  0
 21 22  1  0
 22 23  2  0
 22 24  1  0
 24 25  2  0
 25 26  1  0
 26 27  2  0
 27 28  1  0
 28 29  2  0
 29 30  1  0
 30 31  2  0
 31 32  1  0
 32 33  2  0
 27 34  1  0
 34 35  1  0
 20 36  1  0
 36 37  2  0
 15 38  2  0
 10  6  1  0
 38 11  1  0
 37 17  1  0
 35 25  1  0
 33 28  1  0
  1 39  1  0
  1 40  1  0
  1 41  1  0
  3 42  1  0
  3 43  1  0
  3 44  1  0
  4 45  1  0
  4 46  1  0
  5 47  1  0
  5 48  1  0
  7 49  1  0
 13 50  1  0
 14 51  1  0
 18 52  1  0
 19 53  1  0
 21 54  1  0
 26 55  1  0
 29 56  1  0
 30 57  1  0
 32 58  1  0
 33 59  1  0
 34 60  1  0
 35 61  1  0
 36 62  1  0
 37 63  1  0
M  END
>  <smiles>  (53) 
CN(C)CCn1cnnc1-c1nccc(Oc2ccc(NC(=O)N=c3cc(-c4ccncc4)[nH][nH]3)cc2)n1

>  <score_type>  (53) 
oracle

>  <origin>  (53) 
adg

>  <m_score__min__energy>  (53) 
-9.0500000000000007

>  <m_primary>  (53) 
energy

$$$$
53:0
     RDKit          3D

 31 33  0  0  0  0  0  0  0  0999 V2000
   57.4620   32.1240   41.5640 C   0  0  0  0  0  0  0  0  0  0  0  0
   57.6580   31.6650   42.9740 C   0  0  0  0  0  0  0  0  0  0  0  0
   57.3360   30.3550   43.3430 C   0  0  0  0  0  0  0  0  0  0  0  0
   57.5180   29.9660   44.6800 C   0  0  0  0  0  0  0  0  0  0  0  0
   57.2010   28.6020   45.1650 C   0  0  0  0  0  0  0  0  0  0  0  0
   58.1920   27.6910   45.5690 C   0  0  0  0  0  0  0  0  0  0  0  0
   57.8150   26.4280   46.0240 C   0  0  0  0  0  0  0  0  0  0  0  0
   56.4610   26.1000   46.0760 C   0  0  0  0  0  0  0  0  0  0  0  0
   56.0950   24.9670   46.4830 O   0  0  0  0  0  0  0  0  0  0  0  0
   55.5370   27.0150   45.6880 N   0  0  0  0  0  0  0  0  0  0  0  0
   55.8950   28.2240   45.2510 N   0  0  0  0  0  0  0  0  0  0  0  0
   57.9750   30.8840   45.5750 N   0  0  0  0  0  0  0  0  0  0  0  0
   58.2770   32.1600   45.2080 C   0  0  0  0  0  0  0  0  0  0  0  0
   58.7750   33.1300   46.2130 C   0  0  0  0  0  0  0  0  0  0  0  0
   59.1700   34.4260   45.8260 C   0  0  0  0  0  0  0  0  0  0  0  0
   59.6400   35.3380   46.7760 C   0  0  0  0  0  0  0  0  0  0  0  0
   59.7220   34.9710   48.1200 C   0  0  0  0  0  0  0  0  0  0  0  0
   59.3340   33.6900   48.5180 C   0  0  0  0  0  0  0  0  0  0  0  0
   58.8640   32.7730   47.5730 C   0  0  0  0  0  0  0  0  0  0  0  0
   58.1140   32.5350   43.9110 N   0  0  0  0  0  0  0  0  0  0  0  0
   57.0300   33.1356   41.5644 H   0  0  0  0  0  0  0  0  0  0  0  0
   58.4319   32.1397   41.0453 H   0  0  0  0  0  0  0  0  0  0  0  0
   56.7799   31.4343   41.0453 H   0  0  0  0  0  0  0  0  0  0  0  0
   56.9475   29.6429   42.6000 H   0  0  0  0  0  0  0  0  0  0  0  0
   59.2548   27.9716   45.5267 H   0  0  0  0  0  0  0  0  0  0  0  0
   58.5767   25.6992   46.3381 H   0  0  0  0  0  0  0  0  0  0  0  0
   59.1081   34.7225   44.7685 H   0  0  0  0  0  0  0  0  0  0  0  0
   59.9459   36.3473   46.4633 H   0  0  0  0  0  0  0  0  0  0  0  0
   60.0921   35.6904   48.8653 H   0  0  0  0  0  0  0  0  0  0  0  0
   59.3983   33.4017   49.5776 H   0  0  0  0  0  0  0  0  0  0  0  0
   58.5614   31.7652   47.8938 H   0  0  0  0  0  0  0  0  0  0  0  0
  1  2  1  0
  2  3  2  0
  3  4  1  0
  4  5  1  0
  5  6  1  0
  6  7  2  0
  7  8  1  0
  8  9  2  0
  8 10  1  0
 10 11  1  0
  4 12  2  0
 12 13  1  0
 13 14  1  0
 14 15  2  0
 15 16  1  0
 16 17  2  0
 17 18  1  0
 18 19  2  0
 13 20  2  0
 20  2  1  0
 11  5  2  0
 19 14  1  0
  1 21  1  0
  1 22  1  0
  1 23  1  0
  3 24  1  0
  6 25  1  0
  7 26  1  0
 15 27  1  0
 16 28  1  0
 17 29  1  0
 18 30  1  0
 19 31  1  0
M  CHG  1  10  -1
M  END
>  <UniqueID>  (54) 
45

>  <SMILES>  (54) 
Cc1cc(-c2ccc(=O)[n-]n2)nc(-c2ccccc2)n1

>  <Energy>  (54) 
39.03538282269163

>  <Genealogy>  (54) 
Cc1cc(-c2ccc(=O)[n-]n2)nc(-c2ccccc2)n1 (protonated)
Cc1cc(-c2ccc(=O)[n-]n2)nc(-c2ccccc2)n1 (3D coordinates assigned)
Cc1cc(-c2ccc(=O)[n-]n2)nc(-c2ccccc2)n1 (optimized conformer: 39.03538282269163 kcal/mol)

>  <smiles>  (54) 
Cc1cc(-c2ccc(=O)[nH]n2)nc(-c2ccccc2)n1

>  <score_type>  (54) 
oracle

>  <origin>  (54) 
adg

>  <m_score__min__energy>  (54) 
-10.57

>  <m_primary>  (54) 
energy

$$$$
54:0
     RDKit          3D

 42 44  0  0  0  0  0  0  0  0999 V2000
   58.2874   28.2817   46.3431 H   0  0  0  0  0  0  0  0  0  0  0  0
   57.6260   27.4030   46.3620 C   0  0  0  0  0  0  0  0  0  0  0  0
   56.3310   27.4790   45.8250 C   0  0  0  0  0  0  0  0  0  0  0  0
   55.8180   28.6840   45.2440 N   0  0  0  0  0  0  0  0  0  0  0  0
   56.5640   29.5650   43.9490 S   0  0  0  0  0  0  0  0  0  0  0  0
   57.5450   28.6680   43.2470 O   0  0  0  0  0  0  0  0  0  0  0  0
   55.5070   29.9960   42.9740 O   0  0  0  0  0  0  0  0  0  0  0  0
   57.3730   30.9960   44.5810 C   0  0  0  0  0  0  0  0  0  0  0  0
   57.4670   32.1590   43.8050 C   0  0  0  0  0  0  0  0  0  0  0  0
   57.0231   32.1838   42.7989 H   0  0  0  0  0  0  0  0  0  0  0  0
   58.1230   33.2880   44.3050 C   0  0  0  0  0  0  0  0  0  0  0  0
   58.2035   34.1938   43.6861 H   0  0  0  0  0  0  0  0  0  0  0  0
   58.6790   33.2700   45.5930 C   0  0  0  0  0  0  0  0  0  0  0  0
   59.4170   34.4650   46.1190 C   0  0  0  0  0  0  0  0  0  0  0  0
   59.4063   34.4477   47.2188 H   0  0  0  0  0  0  0  0  0  0  0  0
   60.4572   34.4400   45.7620 H   0  0  0  0  0  0  0  0  0  0  0  0
   58.9288   35.3838   45.7620 H   0  0  0  0  0  0  0  0  0  0  0  0
   58.5940   32.1010   46.3640 C   0  0  0  0  0  0  0  0  0  0  0  0
   59.0454   32.0720   47.3667 H   0  0  0  0  0  0  0  0  0  0  0  0
   57.9380   30.9730   45.8630 C   0  0  0  0  0  0  0  0  0  0  0  0
   57.8650   30.0636   46.4776 H   0  0  0  0  0  0  0  0  0  0  0  0
   55.5300   26.3800   45.8590 N   0  0  0  0  0  0  0  0  0  0  0  0
   55.9260   25.1970   46.4010 C   0  0  0  0  0  0  0  0  0  0  0  0
   55.0910   24.1960   46.3890 N   0  0  0  0  0  0  0  0  0  0  0  0
   55.4080   22.8410   46.0350 C   0  0  0  0  0  0  0  0  0  0  0  0
   55.1950   21.8280   46.9800 C   0  0  0  0  0  0  0  0  0  0  0  0
   54.7952   22.0812   47.9730 H   0  0  0  0  0  0  0  0  0  0  0  0
   55.4880   20.4980   46.6670 C   0  0  0  0  0  0  0  0  0  0  0  0
   55.3124   19.7068   47.4108 H   0  0  0  0  0  0  0  0  0  0  0  0
   56.0030   20.1730   45.4120 C   0  0  0  0  0  0  0  0  0  0  0  0
   56.2215   19.1240   45.1634 H   0  0  0  0  0  0  0  0  0  0  0  0
   56.2420   21.1770   44.4700 C   0  0  0  0  0  0  0  0  0  0  0  0
   56.6456   20.9138   43.4811 H   0  0  0  0  0  0  0  0  0  0  0  0
   55.9700   22.5210   44.7780 C   0  0  0  0  0  0  0  0  0  0  0  0
   56.2430   23.5830   43.7480 C   0  0  0  0  0  0  0  0  0  0  0  0
   56.4863   24.5295   44.2529 H   0  0  0  0  0  0  0  0  0  0  0  0
   57.0910   23.2744   43.1190 H   0  0  0  0  0  0  0  0  0  0  0  0
   55.3513   23.7216   43.1190 H   0  0  0  0  0  0  0  0  0  0  0  0
   57.2230   25.0920   46.9420 C   0  0  0  0  0  0  0  0  0  0  0  0
   57.5672   24.1425   47.3778 H   0  0  0  0  0  0  0  0  0  0  0  0
   58.0660   26.2020   46.9200 C   0  0  0  0  0  0  0  0  0  0  0  0
   59.0790   26.1311   47.3429 H   0  0  0  0  0  0  0  0  0  0  0  0
  1  2  1  0
  2  3  2  0
  3  4  1  0
  4  5  1  0
  5  6  2  0
  5  7  2  0
  5  8  1  0
  8  9  2  0
  9 10  1  0
  9 11  1  0
 11 12  1  0
 11 13  2  0
 13 14  1  0
 14 15  1  0
 14 16  1  0
 14 17  1  0
 13 18  1  0
 18 19  1  0
 18 20  2  0
 20 21  1  0
  3 22  1  0
 22 23  1  0
 23 24  2  0
 24 25  1  0
 25 26  2  0
 26 27  1  0
 26 28  1  0
 28 29  1  0
 28 30  2  0
 30 31  1  0
 30 32  1  0
 32 33  1  0
 32 34  2  0
 34 35  1  0
 35 36  1  0
 35 37  1  0
 35 38  1  0
 23 39  1  0
 39 40  1  0
 39 41  2  0
 41 42  1  0
 41  2  1  0
 20  8  1  0
 34 25  1  0
M  CHG  2   4  -1  22  -1
M  END
>  <UniqueID>  (55) 
46

>  <SMILES>  (55) 
Cc1ccc(S(=O)(=O)[N-]c2ccc/c(=N\c3ccccc3C)[n-]2)cc1

>  <Energy>  (55) 
57.71948164279698

>  <Genealogy>  (55) 
Cc1ccc(S(=O)(=O)[N-]c2cccc(=Nc3ccccc3C)[n-]2)cc1 (protonated)
Cc1ccc(S(=O)(=O)[N-]c2ccc/c(=N\c3ccccc3C)[n-]2)cc1 (cis-trans isomerization)
Cc1ccc(S(=O)(=O)[N-]c2ccc/c(=N\c3ccccc3C)[n-]2)cc1 (3D coordinates assigned)
Cc1ccc(S(=O)(=O)[N-]c2ccc/c(=N\c3ccccc3C)[n-]2)cc1 (optimized conformer: 57.71948164279698 kcal/mol)

>  <smiles>  (55) 
Cc1ccc(S(=O)(=O)Nc2cccc(=Nc3ccccc3C)[nH]2)cc1

>  <score_type>  (55) 
oracle

>  <origin>  (55) 
adg

>  <m_score__min__energy>  (55) 
-12.41

>  <m_primary>  (55) 
energy

$$$$
55:0
     RDKit          3D

 42 44  0  0  0  0  0  0  0  0999 V2000
   56.7180   23.8670   43.2800 N   0  0  0  0  0  0  0  0  0  0  0  0
   57.0020   22.2620   43.8610 S   0  0  0  0  0  0  0  0  0  0  0  0
   58.4740   21.9680   43.7890 O   0  0  0  0  0  0  0  0  0  0  0  0
   56.2530   21.2920   42.9900 O   0  0  0  0  0  0  0  0  0  0  0  0
   56.4570   22.0950   45.5350 C   0  0  0  0  0  0  0  0  0  0  0  0
   56.7720   20.9340   46.2590 C   0  0  0  0  0  0  0  0  0  0  0  0
   56.3490   20.7910   47.5820 C   0  0  0  0  0  0  0  0  0  0  0  0
   55.6150   21.8050   48.1950 C   0  0  0  0  0  0  0  0  0  0  0  0
   55.2890   22.9630   47.4840 C   0  0  0  0  0  0  0  0  0  0  0  0
   55.6870   23.1090   46.1410 C   0  0  0  0  0  0  0  0  0  0  0  0
   55.3730   24.2970   45.3970 N   0  0  0  0  0  0  0  0  0  0  0  0
   55.4550   25.6510   45.8610 C   0  0  0  0  0  0  0  0  0  0  0  0
   54.4060   26.3380   45.9900 O   0  0  0  0  0  0  0  0  0  0  0  0
   56.7830   26.2430   46.1640 C   0  0  0  0  0  0  0  0  0  0  0  0
   57.7540   25.4440   46.7970 C   0  0  0  0  0  0  0  0  0  0  0  0
   58.9980   25.9720   47.1430 C   0  0  0  0  0  0  0  0  0  0  0  0
   59.2970   27.3030   46.8610 C   0  0  0  0  0  0  0  0  0  0  0  0
   58.3530   28.1100   46.2240 C   0  0  0  0  0  0  0  0  0  0  0  0
   57.0920   27.5970   45.8740 C   0  0  0  0  0  0  0  0  0  0  0  0
   56.1770   28.4270   45.1380 N   0  0  0  0  0  0  0  0  0  0  0  0
   56.5770   29.5770   44.3720 C   0  0  0  0  0  0  0  0  0  0  0  0
   56.2800   29.6850   42.9990 C   0  0  0  0  0  0  0  0  0  0  0  0
   56.6980   30.8040   42.2730 C   0  0  0  0  0  0  0  0  0  0  0  0
   57.4240   31.8180   42.9040 C   0  0  0  0  0  0  0  0  0  0  0  0
   57.7380   31.7110   44.2610 C   0  0  0  0  0  0  0  0  0  0  0  0
   57.3220   30.5930   44.9910 C   0  0  0  0  0  0  0  0  0  0  0  0
   55.6830   23.9980   43.2410 H   0  0  0  0  0  0  0  0  0  0  0  0
   57.0760   24.5240   44.0100 H   0  0  0  0  0  0  0  0  0  0  0  0
   57.3551   20.1328   45.7814 H   0  0  0  0  0  0  0  0  0  0  0  0
   56.5955   19.8765   48.1414 H   0  0  0  0  0  0  0  0  0  0  0  0
   55.2917   21.6935   49.2405 H   0  0  0  0  0  0  0  0  0  0  0  0
   54.7186   23.7647   47.9759 H   0  0  0  0  0  0  0  0  0  0  0  0
   57.5291   24.3909   47.0214 H   0  0  0  0  0  0  0  0  0  0  0  0
   59.7449   25.3355   47.6399 H   0  0  0  0  0  0  0  0  0  0  0  0
   60.2767   27.7179   47.1402 H   0  0  0  0  0  0  0  0  0  0  0  0
   58.5982   29.1573   45.9937 H   0  0  0  0  0  0  0  0  0  0  0  0
   55.1710   28.1420   45.1180 H   0  0  0  0  0  0  0  0  0  0  0  0
   55.7167   28.8852   42.4961 H   0  0  0  0  0  0  0  0  0  0  0  0
   56.4552   30.8867   41.2033 H   0  0  0  0  0  0  0  0  0  0  0  0
   57.7481   32.7001   42.3322 H   0  0  0  0  0  0  0  0  0  0  0  0
   58.3133   32.5072   44.7561 H   0  0  0  0  0  0  0  0  0  0  0  0
   57.5802   30.5093   46.0570 H   0  0  0  0  0  0  0  0  0  0  0  0
  1  2  1  0
  2  3  2  0
  2  4  2  0
  2  5  1  0
  5  6  2  0
  6  7  1  0
  7  8  2  0
  8  9  1  0
  9 10  2  0
 10 11  1  0
 11 12  1  0
 12 13  2  0
 12 14  1  0
 14 15  2  0
 15 16  1  0
 16 17  2  0
 17 18  1  0
 18 19  2  0
 19 20  1  0
 20 21  1  0
 21 22  2  0
 22 23  1  0
 23 24  2  0
 24 25  1  0
 25 26  2  0
 10  5  1  0
 19 14  1  0
 26 21  1  0
  1 27  1  0
  1 28  1  0
  6 29  1  0
  7 30  1  0
  8 31  1  0
  9 32  1  0
 15 33  1  0
 16 34  1  0
 17 35  1  0
 18 36  1  0
 20 37  1  0
 22 38  1  0
 23 39  1  0
 24 40  1  0
 25 41  1  0
 26 42  1  0
M  CHG  1  11  -1
M  END
>  <UniqueID>  (56) 
47

>  <SMILES>  (56) 
NS(=O)(=O)c1ccccc1[N-]C(=O)c1ccccc1Nc1ccccc1

>  <Energy>  (56) 
57.44653117961683

>  <Genealogy>  (56) 
NS(=O)(=O)c1ccccc1[N-]C(=O)c1ccccc1Nc1ccccc1 (protonated)
NS(=O)(=O)c1ccccc1[N-]C(=O)c1ccccc1Nc1ccccc1 (3D coordinates assigned)
NS(=O)(=O)c1ccccc1[N-]C(=O)c1ccccc1Nc1ccccc1 (optimized conformer: 57.44653117961683 kcal/mol)

>  <smiles>  (56) 
NS(=O)(=O)c1ccccc1NC(=O)c1ccccc1Nc1ccccc1

>  <score_type>  (56) 
oracle

>  <origin>  (56) 
adg

>  <m_score__min__energy>  (56) 
-10.390000000000001

>  <m_primary>  (56) 
energy

$$$$
56:0
     RDKit          3D

 42 44  0  0  0  0  0  0  0  0999 V2000
   56.9490   31.1120   41.5410 H   0  0  0  0  0  0  0  0  0  0  0  0
   57.1730   31.8160   42.2780 N   0  0  0  0  0  0  0  0  0  0  0  0
   57.4430   31.5020   43.5060 C   0  0  0  0  0  0  0  0  0  0  0  0
   57.8580   32.4930   44.4160 C   0  0  0  0  0  0  0  0  0  0  0  0
   57.9529   33.5372   44.0833 H   0  0  0  0  0  0  0  0  0  0  0  0
   58.1550   32.1490   45.7640 C   0  0  0  0  0  0  0  0  0  0  0  0
   58.6030   33.1460   46.7000 N   0  0  0  0  0  0  0  0  0  0  0  0
   58.6160   34.5740   46.3630 C   0  0  0  0  0  0  0  0  0  0  0  0
   58.4805   34.6913   45.2777 H   0  0  0  0  0  0  0  0  0  0  0  0
   57.7989   35.0749   46.9029 H   0  0  0  0  0  0  0  0  0  0  0  0
   59.9540   35.2130   46.7790 C   0  0  0  0  0  0  0  0  0  0  0  0
   60.6623   35.1064   45.9442 H   0  0  0  0  0  0  0  0  0  0  0  0
   59.7417   36.2643   47.0235 H   0  0  0  0  0  0  0  0  0  0  0  0
   60.5650   34.6050   47.9910 N   0  0  0  0  0  0  0  0  0  0  0  0
   61.7230   33.7580   47.6550 C   0  0  0  0  0  0  0  0  0  0  0  0
   62.2020   33.4076   48.5812 H   0  0  0  0  0  0  0  0  0  0  0  0
   61.3855   32.8921   47.0665 H   0  0  0  0  0  0  0  0  0  0  0  0
   62.4460   34.3420   47.0665 H   0  0  0  0  0  0  0  0  0  0  0  0
   59.5900   33.8910   48.8440 C   0  0  0  0  0  0  0  0  0  0  0  0
   60.1179   33.4688   49.7118 H   0  0  0  0  0  0  0  0  0  0  0  0
   58.8212   34.6108   49.1614 H   0  0  0  0  0  0  0  0  0  0  0  0
   58.8930   32.7510   48.0820 C   0  0  0  0  0  0  0  0  0  0  0  0
   59.5499   31.8687   48.0741 H   0  0  0  0  0  0  0  0  0  0  0  0
   57.9441   32.5190   48.5877 H   0  0  0  0  0  0  0  0  0  0  0  0
   58.0620   30.8450   46.1670 N   0  0  0  0  0  0  0  0  0  0  0  0
   57.6630   29.8970   45.2870 C   0  0  0  0  0  0  0  0  0  0  0  0
   57.3520   30.1910   43.9870 C   0  0  0  0  0  0  0  0  0  0  0  0
   57.0080   28.9670   43.4420 C   0  0  0  0  0  0  0  0  0  0  0  0
   56.6500   28.7460   42.2560 O   0  0  0  0  0  0  0  0  0  0  0  0
   57.1160   28.0080   44.3890 N   0  0  0  0  0  0  0  0  0  0  0  0
   56.9220   26.9890   44.2630 H   0  0  0  0  0  0  0  0  0  0  0  0
   57.5190   28.5740   45.5230 N   0  0  0  0  0  0  0  0  0  0  0  0
   57.7530   27.8420   46.7730 C   0  0  0  0  0  0  0  0  0  0  0  0
   57.2826   28.4018   47.5948 H   0  0  0  0  0  0  0  0  0  0  0  0
   59.2520   27.7450   47.0730 C   0  0  0  0  0  0  0  0  0  0  0  0
   59.4081   27.7349   48.1618 H   0  0  0  0  0  0  0  0  0  0  0  0
   59.6542   26.8190   46.6363 H   0  0  0  0  0  0  0  0  0  0  0  0
   59.7702   28.6115   46.6363 H   0  0  0  0  0  0  0  0  0  0  0  0
   57.1020   26.4560   46.7230 C   0  0  0  0  0  0  0  0  0  0  0  0
   56.9318   26.0937   47.7476 H   0  0  0  0  0  0  0  0  0  0  0  0
   56.1405   26.5214   46.1928 H   0  0  0  0  0  0  0  0  0  0  0  0
   57.7663   25.7578   46.1928 H   0  0  0  0  0  0  0  0  0  0  0  0
  1  2  1  0
  2  3  2  0
  3  4  1  0
  4  5  1  0
  4  6  2  0
  6  7  1  0
  7  8  1  0
  8  9  1  0
  8 10  1  0
  8 11  1  0
 11 12  1  0
 11 13  1  0
 11 14  1  0
 14 15  1  0
 15 16  1  0
 15 17  1  0
 15 18  1  0
 14 19  1  0
 19 20  1  0
 19 21  1  0
 19 22  1  0
 22 23  1  0
 22 24  1  0
  6 25  1  0
 25 26  1  0
 26 27  2  0
 27 28  1  0
 28 29  2  0
 28 30  1  0
 30 31  1  0
 30 32  1  0
 32 33  1  0
 33 34  1  0
 33 35  1  0
 35 36  1  0
 35 37  1  0
 35 38  1  0
 33 39  1  0
 39 40  1  0
 39 41  1  0
 39 42  1  0
 27  3  1  0
 22  7  1  0
 32 26  1  0
M  CHG  1  25  -1
M  END
>  <UniqueID>  (57) 
48

>  <SMILES>  (57) 
[H]/N=c1/cc(N2CCN(C)CC2)[n-]c2c1c(=O)[nH]n2C(C)C

>  <Energy>  (57) 
93.57981689779307

>  <Genealogy>  (57) 
CC(C)n1[nH]c(=O)c2c(=N)cc(N3CCN(C)CC3)[n-]c21 (protonated)
[H]/N=c1/cc(N2CCN(C)CC2)[n-]c2c1c(=O)[nH]n2C(C)C (cis-trans isomerization)
[H]/N=c1/cc(N2CCN(C)CC2)[n-]c2c1c(=O)[nH]n2C(C)C (3D coordinates assigned)
[H]/N=c1/cc(N2CCN(C)CC2)[n-]c2c1c(=O)[nH]n2C(C)C (nonaromatic ring conformer: 93.57981689779307 kcal/mol)

>  <smiles>  (57) 
CC(C)n1[nH]c(=O)c2c(=N)cc(N3CCN(C)CC3)[nH]c21

>  <score_type>  (57) 
oracle

>  <origin>  (57) 
adg

>  <m_score__min__energy>  (57) 
-7.6299999999999999

>  <m_primary>  (57) 
energy

$$$$
57:0
     RDKit          3D

 36 38  0  0  0  0  0  0  0  0999 V2000
   60.7858   26.7967   49.0746 H   0  0  0  0  0  0  0  0  0  0  0  0
   60.0580   27.2320   48.3740 C   0  0  0  0  0  0  0  0  0  0  0  0
   59.5940   28.5350   48.5700 C   0  0  0  0  0  0  0  0  0  0  0  0
   59.9464   29.1198   49.4324 H   0  0  0  0  0  0  0  0  0  0  0  0
   58.6830   29.0960   47.6720 C   0  0  0  0  0  0  0  0  0  0  0  0
   58.3055   30.1154   47.8402 H   0  0  0  0  0  0  0  0  0  0  0  0
   58.2470   28.3650   46.5560 C   0  0  0  0  0  0  0  0  0  0  0  0
   57.3590   28.9860   45.6140 N   0  0  0  0  0  0  0  0  0  0  0  0
   56.3690   29.1200   45.9200 H   0  0  0  0  0  0  0  0  0  0  0  0
   57.7200   29.3850   44.4220 C   0  0  0  0  0  0  0  0  0  0  0  0
   57.2640   28.6690   43.2710 N   0  0  0  0  0  0  0  0  0  0  0  0
   56.6440   27.8340   43.3660 H   0  0  0  0  0  0  0  0  0  0  0  0
   57.5450   28.9790   42.3150 H   0  0  0  0  0  0  0  0  0  0  0  0
   58.5920   30.5150   44.2320 N   0  0  0  0  0  0  0  0  0  0  0  0
   59.2670   30.4810   43.4340 H   0  0  0  0  0  0  0  0  0  0  0  0
   58.4140   31.7700   44.9130 C   0  0  0  0  0  0  0  0  0  0  0  0
   57.3500   32.6110   44.5480 C   0  0  0  0  0  0  0  0  0  0  0  0
   56.6767   32.3130   43.7308 H   0  0  0  0  0  0  0  0  0  0  0  0
   57.1380   33.8190   45.2100 C   0  0  0  0  0  0  0  0  0  0  0  0
   56.2995   34.4662   44.9132 H   0  0  0  0  0  0  0  0  0  0  0  0
   57.9840   34.2110   46.2470 C   0  0  0  0  0  0  0  0  0  0  0  0
   57.8073   35.1634   46.7683 H   0  0  0  0  0  0  0  0  0  0  0  0
   59.0580   33.3960   46.6270 C   0  0  0  0  0  0  0  0  0  0  0  0
   59.9020   33.7870   47.6780 C   0  0  0  0  0  0  0  0  0  0  0  0
   59.7271   34.7425   48.1942 H   0  0  0  0  0  0  0  0  0  0  0  0
   60.9620   32.9690   48.0710 C   0  0  0  0  0  0  0  0  0  0  0  0
   61.6189   33.2811   48.8962 H   0  0  0  0  0  0  0  0  0  0  0  0
   61.1910   31.7560   47.4200 C   0  0  0  0  0  0  0  0  0  0  0  0
   62.0274   31.1147   47.7348 H   0  0  0  0  0  0  0  0  0  0  0  0
   60.3620   31.3530   46.3700 C   0  0  0  0  0  0  0  0  0  0  0  0
   60.5488   30.3945   45.8637 H   0  0  0  0  0  0  0  0  0  0  0  0
   59.2880   32.1660   45.9550 C   0  0  0  0  0  0  0  0  0  0  0  0
   58.6860   27.0360   46.3840 C   0  0  0  0  0  0  0  0  0  0  0  0
   58.0820   26.0350   45.0700 Cl  0  0  0  0  0  0  0  0  0  0  0  0
   59.5990   26.4820   47.2900 C   0  0  0  0  0  0  0  0  0  0  0  0
   59.9559   25.4514   47.1467 H   0  0  0  0  0  0  0  0  0  0  0  0
  1  2  1  0
  2  3  2  0
  3  4  1  0
  3  5  1  0
  5  6  1  0
  5  7  2  0
  7  8  1  0
  8  9  1  0
  8 10  2  0
 10 11  1  0
 11 12  1  0
 11 13  1  0
 10 14  1  0
 14 15  1  0
 14 16  1  0
 16 17  2  0
 17 18  1  0
 17 19  1  0
 19 20  1  0
 19 21  2  0
 21 22  1  0
 21 23  1  0
 23 24  2  0
 24 25  1  0
 24 26  1  0
 26 27  1  0
 26 28  2  0
 28 29  1  0
 28 30  1  0
 30 31  1  0
 30 32  2  0
  7 33  1  0
 33 34  1  0
 33 35  2  0
 35 36  1  0
 35  2  1  0
 32 16  1  0
 32 23  1  0
M  CHG  1   8   1
M  END
>  <UniqueID>  (58) 
49

>  <SMILES>  (58) 
N/C(Nc1cccc2ccccc12)=[NH+]/c1ccccc1Cl

>  <Energy>  (58) 
53.88566034918177

>  <Genealogy>  (58) 
NC(Nc1cccc2ccccc12)=[NH+]c1ccccc1Cl (protonated)
N/C(Nc1cccc2ccccc12)=[NH+]/c1ccccc1Cl (cis-trans isomerization)
N/C(Nc1cccc2ccccc12)=[NH+]/c1ccccc1Cl (3D coordinates assigned)
N/C(Nc1cccc2ccccc12)=[NH+]/c1ccccc1Cl (optimized conformer: 53.88566034918177 kcal/mol)

>  <smiles>  (58) 
NC(=Nc1ccccc1Cl)Nc1cccc2ccccc12

>  <score_type>  (58) 
oracle

>  <origin>  (58) 
adg

>  <m_score__min__energy>  (58) 
-6.0899999999999999

>  <m_primary>  (58) 
energy

$$$$
58:0
     RDKit          3D

 41 42  0  0  0  0  0  0  0  0999 V2000
   60.7175   29.7060   48.0061 H   0  0  0  0  0  0  0  0  0  0  0  0
   60.8440   30.3550   47.1270 C   0  0  0  0  0  0  0  0  0  0  0  0
   60.2050   30.0090   46.0010 C   0  0  0  0  0  0  0  0  0  0  0  0
   60.6689   30.2793   45.0409 H   0  0  0  0  0  0  0  0  0  0  0  0
   58.8910   29.2730   45.9680 C   0  0  0  0  0  0  0  0  0  0  0  0
   58.6263   28.9560   46.9875 H   0  0  0  0  0  0  0  0  0  0  0  0
   58.9884   28.3933   45.3149 H   0  0  0  0  0  0  0  0  0  0  0  0
   57.8370   30.1440   45.4430 N   0  0  0  0  0  0  0  0  0  0  0  0
   57.9500   31.5690   45.5630 C   0  0  0  0  0  0  0  0  0  0  0  0
   58.1050   32.1520   46.8300 C   0  0  0  0  0  0  0  0  0  0  0  0
   58.1360   31.5144   47.7258 H   0  0  0  0  0  0  0  0  0  0  0  0
   58.2200   33.5370   46.9590 C   0  0  0  0  0  0  0  0  0  0  0  0
   58.3438   33.9881   47.9546 H   0  0  0  0  0  0  0  0  0  0  0  0
   58.1780   34.3500   45.8250 C   0  0  0  0  0  0  0  0  0  0  0  0
   58.2687   35.4413   45.9288 H   0  0  0  0  0  0  0  0  0  0  0  0
   58.0210   33.7810   44.5580 C   0  0  0  0  0  0  0  0  0  0  0  0
   57.9894   34.4265   43.6679 H   0  0  0  0  0  0  0  0  0  0  0  0
   57.9030   32.3840   44.4160 C   0  0  0  0  0  0  0  0  0  0  0  0
   57.7300   31.7750   43.1630 O   0  0  0  0  0  0  0  0  0  0  0  0
   58.1480   32.3410   41.9260 C   0  0  0  0  0  0  0  0  0  0  0  0
   58.7912   33.2120   42.1200 H   0  0  0  0  0  0  0  0  0  0  0  0
   58.7104   31.5907   41.3509 H   0  0  0  0  0  0  0  0  0  0  0  0
   57.2655   32.6578   41.3509 H   0  0  0  0  0  0  0  0  0  0  0  0
   56.4980   29.4530   44.5780 S   0  0  0  0  0  0  0  0  0  0  0  0
   55.3700   30.4440   44.5000 O   0  0  0  0  0  0  0  0  0  0  0  0
   56.0180   28.2220   45.2930 O   0  0  0  0  0  0  0  0  0  0  0  0
   57.0090   29.0360   42.9260 C   0  0  0  0  0  0  0  0  0  0  0  0
   57.8606   28.3411   42.9700 H   0  0  0  0  0  0  0  0  0  0  0  0
   56.1734   28.5587   42.3932 H   0  0  0  0  0  0  0  0  0  0  0  0
   57.3091   29.9504   42.3932 H   0  0  0  0  0  0  0  0  0  0  0  0
   61.7070   31.5470   47.2720 C   0  0  0  0  0  0  0  0  0  0  0  0
   62.9490   31.4170   47.9130 C   0  0  0  0  0  0  0  0  0  0  0  0
   63.2600   30.4398   48.3110 H   0  0  0  0  0  0  0  0  0  0  0  0
   63.7930   32.5240   48.0480 C   0  0  0  0  0  0  0  0  0  0  0  0
   64.7576   32.4195   48.5663 H   0  0  0  0  0  0  0  0  0  0  0  0
   63.4120   33.7630   47.5250 C   0  0  0  0  0  0  0  0  0  0  0  0
   64.0742   34.6343   47.6359 H   0  0  0  0  0  0  0  0  0  0  0  0
   62.1890   33.8940   46.8610 C   0  0  0  0  0  0  0  0  0  0  0  0
   61.8918   34.8681   46.4454 H   0  0  0  0  0  0  0  0  0  0  0  0
   61.3430   32.7900   46.7240 C   0  0  0  0  0  0  0  0  0  0  0  0
   60.3893   32.8937   46.1858 H   0  0  0  0  0  0  0  0  0  0  0  0
  1  2  1  0
  2  3  2  0
  3  4  1  0
  3  5  1  0
  5  6  1  0
  5  7  1  0
  5  8  1  0
  8  9  1  0
  9 10  2  0
 10 11  1  0
 10 12  1  0
 12 13  1  0
 12 14  2  0
 14 15  1  0
 14 16  1  0
 16 17  1  0
 16 18  2  0
 18 19  1  0
 19 20  1  0
 20 21  1  0
 20 22  1  0
 20 23  1  0
  8 24  1  0
 24 25  2  0
 24 26  2  0
 24 27  1  0
 27 28  1  0
 27 29  1  0
 27 30  1  0
  2 31  1  0
 31 32  2  0
 32 33  1  0
 32 34  1  0
 34 35  1  0
 34 36  2  0
 36 37  1  0
 36 38  1  0
 38 39  1  0
 38 40  2  0
 40 41  1  0
 18  9  1  0
 40 31  1  0
M  END
>  <UniqueID>  (59) 
50

>  <SMILES>  (59) 
COc1ccccc1N(C/C=C\c1ccccc1)S(C)(=O)=O

>  <Energy>  (59) 
46.31785716671935

>  <Genealogy>  (59) 
COc1ccccc1N(C/C=C\c1ccccc1)S(C)(=O)=O (cis-trans isomerization)
COc1ccccc1N(C/C=C\c1ccccc1)S(C)(=O)=O (3D coordinates assigned)
COc1ccccc1N(C/C=C\c1ccccc1)S(C)(=O)=O (optimized conformer: 46.31785716671935 kcal/mol)

>  <smiles>  (59) 
COc1ccccc1N(CC=Cc1ccccc1)S(C)(=O)=O

>  <score_type>  (59) 
oracle

>  <origin>  (59) 
adg

>  <m_score__min__energy>  (59) 
-7.5300000000000002

>  <m_primary>  (59) 
energy

$$$$
59:0
     RDKit          3D

 31 32  0  0  0  0  0  0  0  0999 V2000
   56.3290   23.6050   46.7470 H   0  0  0  0  0  0  0  0  0  0  0  0
   55.7490   24.4730   46.7020 N   0  0  0  0  0  0  0  0  0  0  0  0
   56.2530   25.5930   46.3040 C   0  0  0  0  0  0  0  0  0  0  0  0
   55.5070   26.6770   46.0050 N   0  0  0  0  0  0  0  0  0  0  0  0
   56.2850   27.7230   45.6200 C   0  0  0  0  0  0  0  0  0  0  0  0
   55.7160   28.9540   45.3000 O   0  0  0  0  0  0  0  0  0  0  0  0
   55.7170   29.7360   45.9410 H   0  0  0  0  0  0  0  0  0  0  0  0
   57.6620   27.4610   45.5900 C   0  0  0  0  0  0  0  0  0  0  0  0
   58.7580   28.4460   45.2850 C   0  0  0  0  0  0  0  0  0  0  0  0
   59.7034   27.8993   45.1532 H   0  0  0  0  0  0  0  0  0  0  0  0
   58.4883   28.9890   44.3672 H   0  0  0  0  0  0  0  0  0  0  0  0
   58.9240   29.4510   46.3980 C   0  0  0  0  0  0  0  0  0  0  0  0
   59.7970   29.1730   47.4640 C   0  0  0  0  0  0  0  0  0  0  0  0
   60.3407   28.2171   47.4896 H   0  0  0  0  0  0  0  0  0  0  0  0
   59.9790   30.1020   48.4910 C   0  0  0  0  0  0  0  0  0  0  0  0
   61.1670   29.7100   49.9350 Br  0  0  0  0  0  0  0  0  0  0  0  0
   59.2950   31.3170   48.4610 C   0  0  0  0  0  0  0  0  0  0  0  0
   59.4356   32.0454   49.2732 H   0  0  0  0  0  0  0  0  0  0  0  0
   58.4320   31.6120   47.4030 C   0  0  0  0  0  0  0  0  0  0  0  0
   57.8990   32.5741   47.3842 H   0  0  0  0  0  0  0  0  0  0  0  0
   58.2400   30.6840   46.3590 C   0  0  0  0  0  0  0  0  0  0  0  0
   57.3910   30.9520   45.2700 O   0  0  0  0  0  0  0  0  0  0  0  0
   57.6370   31.9110   44.2410 C   0  0  0  0  0  0  0  0  0  0  0  0
   56.9889   32.7854   44.4006 H   0  0  0  0  0  0  0  0  0  0  0  0
   58.6958   32.2066   44.2806 H   0  0  0  0  0  0  0  0  0  0  0  0
   57.3510   31.3270   42.8880 C   0  0  0  0  0  0  0  0  0  0  0  0
   57.8061   31.7843   41.9971 H   0  0  0  0  0  0  0  0  0  0  0  0
   56.5550   30.2630   42.7430 C   0  0  0  0  0  0  0  0  0  0  0  0
   56.3610   29.8538   41.7406 H   0  0  0  0  0  0  0  0  0  0  0  0
   56.0939   29.7966   43.6261 H   0  0  0  0  0  0  0  0  0  0  0  0
   57.8970   25.8710   46.1160 S   0  0  0  0  0  0  0  0  0  0  0  0
  1  2  1  0
  2  3  2  0
  3  4  1  0
  4  5  1  0
  5  6  1  0
  6  7  1  0
  5  8  2  0
  8  9  1  0
  9 10  1  0
  9 11  1  0
  9 12  1  0
 12 13  2  0
 13 14  1  0
 13 15  1  0
 15 16  1  0
 15 17  2  0
 17 18  1  0
 17 19  1  0
 19 20  1  0
 19 21  2  0
 21 22  1  0
 22 23  1  0
 23 24  1  0
 23 25  1  0
 23 26  1  0
 26 27  1  0
 26 28  2  0
 28 29  1  0
 28 30  1  0
  8 31  1  0
 31  3  1  0
 21 12  1  0
M  CHG  1   4  -1
M  END
>  <UniqueID>  (60) 
51

>  <SMILES>  (60) 
[H]/N=c1\[n-]c(O)c(Cc2cc(Br)ccc2OCC=C)s1

>  <Energy>  (60) 
58.34591218694948

>  <Genealogy>  (60) 
C=CCOc1ccc(Br)cc1Cc1sc(=N)[n-]c1O (protonated)
[H]/N=c1\[n-]c(O)c(Cc2cc(Br)ccc2OCC=C)s1 (cis-trans isomerization)
[H]/N=c1\[n-]c(O)c(Cc2cc(Br)ccc2OCC=C)s1 (3D coordinates assigned)
[H]/N=c1\[n-]c(O)c(Cc2cc(Br)ccc2OCC=C)s1 (optimized conformer: 58.34591218694948 kcal/mol)

>  <smiles>  (60) 
C=CCOc1ccc(Br)cc1Cc1sc(=N)[nH]c1O

>  <score_type>  (60) 
oracle

>  <origin>  (60) 
adg

>  <m_score__min__energy>  (60) 
-9.3100000000000005

>  <m_primary>  (60) 
energy

$$$$
60:0
     RDKit          3D

 36 39  0  0  0  0  0  0  0  0999 V2000
   54.9379   30.1557   43.8615 H   0  0  0  0  0  0  0  0  0  0  0  0
   55.9980   30.1530   44.1550 C   0  0  0  0  0  0  0  0  0  0  0  0
   56.6000   31.3090   44.5380 N   0  0  0  0  0  0  0  0  0  0  0  0
   57.9110   31.3620   44.9130 C   0  0  0  0  0  0  0  0  0  0  0  0
   58.4890   32.6680   45.3160 C   0  0  0  0  0  0  0  0  0  0  0  0
   58.5000   33.8140   44.5110 C   0  0  0  0  0  0  0  0  0  0  0  0
   58.0787   33.8931   43.4980 H   0  0  0  0  0  0  0  0  0  0  0  0
   59.2680   35.0500   45.3580 S   0  0  0  0  0  0  0  0  0  0  0  0
   59.5470   34.0940   46.7170 C   0  0  0  0  0  0  0  0  0  0  0  0
   60.1830   34.4510   47.7950 N   0  0  0  0  0  0  0  0  0  0  0  0
   61.5390   34.1250   48.1360 C   0  0  0  0  0  0  0  0  0  0  0  0
   62.4010   33.6530   47.1180 C   0  0  0  0  0  0  0  0  0  0  0  0
   62.0301   33.5728   46.0855 H   0  0  0  0  0  0  0  0  0  0  0  0
   63.7270   33.2850   47.4110 C   0  0  0  0  0  0  0  0  0  0  0  0
   64.4077   32.9374   46.6199 H   0  0  0  0  0  0  0  0  0  0  0  0
   64.1500   33.3750   48.7350 C   0  0  0  0  0  0  0  0  0  0  0  0
   63.3130   33.8020   49.7300 C   0  0  0  0  0  0  0  0  0  0  0  0
   61.9960   34.1770   49.4740 C   0  0  0  0  0  0  0  0  0  0  0  0
   61.3315   34.5036   50.2875 H   0  0  0  0  0  0  0  0  0  0  0  0
   64.0210   33.7680   50.9120 C   0  0  0  0  0  0  0  0  0  0  0  0
   63.6662   34.0483   51.9148 H   0  0  0  0  0  0  0  0  0  0  0  0
   65.2840   33.3010   50.5580 C   0  0  0  0  0  0  0  0  0  0  0  0
   66.4370   33.1510   51.4950 C   0  0  0  0  0  0  0  0  0  0  0  0
   66.0748   33.1981   52.5326 H   0  0  0  0  0  0  0  0  0  0  0  0
   66.9269   32.1816   51.3213 H   0  0  0  0  0  0  0  0  0  0  0  0
   67.1586   33.9628   51.3213 H   0  0  0  0  0  0  0  0  0  0  0  0
   65.3640   33.0710   49.2260 N   0  0  0  0  0  0  0  0  0  0  0  0
   66.1950   32.7330   48.6920 H   0  0  0  0  0  0  0  0  0  0  0  0
   59.0820   32.8410   46.5340 N   0  0  0  0  0  0  0  0  0  0  0  0
   59.1710   32.0900   47.2550 H   0  0  0  0  0  0  0  0  0  0  0  0
   58.6700   30.1760   44.8990 C   0  0  0  0  0  0  0  0  0  0  0  0
   59.7296   30.1930   45.1939 H   0  0  0  0  0  0  0  0  0  0  0  0
   58.0680   28.9780   44.5080 C   0  0  0  0  0  0  0  0  0  0  0  0
   58.6536   28.0469   44.4951 H   0  0  0  0  0  0  0  0  0  0  0  0
   56.7250   28.9620   44.1340 C   0  0  0  0  0  0  0  0  0  0  0  0
   56.2442   28.0218   43.8260 H   0  0  0  0  0  0  0  0  0  0  0  0
  1  2  1  0
  2  3  2  0
  3  4  1  0
  4  5  1  0
  5  6  2  0
  6  7  1  0
  6  8  1  0
  8  9  1  0
  9 10  2  0
 10 11  1  0
 11 12  2  0
 12 13  1  0
 12 14  1  0
 14 15  1  0
 14 16  2  0
 16 17  1  0
 17 18  2  0
 18 19  1  0
 17 20  1  0
 20 21  1  0
 20 22  2  0
 22 23  1  0
 23 24  1  0
 23 25  1  0
 23 26  1  0
 22 27  1  0
 27 28  1  0
  9 29  1  0
 29 30  1  0
  4 31  2  0
 31 32  1  0
 31 33  1  0
 33 34  1  0
 33 35  2  0
 35 36  1  0
 35  2  1  0
 29  5  1  0
 18 11  1  0
 27 16  1  0
M  END
>  <UniqueID>  (61) 
52

>  <SMILES>  (61) 
Cc1cc2cc(/N=c3/[nH]c(-c4ccccn4)cs3)ccc2[nH]1

>  <Energy>  (61) 
111.13018486597498

>  <Genealogy>  (61) 
Cc1cc2cc(/N=c3/[nH]c(-c4ccccn4)cs3)ccc2[nH]1 (cis-trans isomerization)
Cc1cc2cc(/N=c3/[nH]c(-c4ccccn4)cs3)ccc2[nH]1 (3D coordinates assigned)
Cc1cc2cc(/N=c3/[nH]c(-c4ccccn4)cs3)ccc2[nH]1 (optimized conformer: 111.13018486597498 kcal/mol)

>  <smiles>  (61) 
Cc1cc2cc(N=c3[nH]c(-c4ccccn4)cs3)ccc2[nH]1

>  <score_type>  (61) 
oracle

>  <origin>  (61) 
adg

>  <m_score__min__energy>  (61) 
-8.2300000000000004

>  <m_primary>  (61) 
energy

$$$$
61:0
     RDKit          3D

 37 40  0  0  0  0  0  0  0  0999 V2000
   57.9215   31.4427   43.3036 H   0  0  0  0  0  0  0  0  0  0  0  0
   57.6100   31.4080   44.3580 C   0  0  0  0  0  0  0  0  0  0  0  0
   57.2730   32.5670   44.9440 C   0  0  0  0  0  0  0  0  0  0  0  0
   56.2087   32.8449   44.9526 H   0  0  0  0  0  0  0  0  0  0  0  0
   58.2340   33.5000   45.5810 C   0  0  0  0  0  0  0  0  0  0  0  0
   58.7360   34.5830   44.8400 C   0  0  0  0  0  0  0  0  0  0  0  0
   58.4352   34.7175   43.7905 H   0  0  0  0  0  0  0  0  0  0  0  0
   59.6150   35.4870   45.4340 C   0  0  0  0  0  0  0  0  0  0  0  0
   60.0155   36.3272   44.8477 H   0  0  0  0  0  0  0  0  0  0  0  0
   59.9790   35.3350   46.7330 N   0  0  0  0  0  0  0  0  0  0  0  0
   59.5080   34.3110   47.4940 C   0  0  0  0  0  0  0  0  0  0  0  0
   59.9140   34.2000   48.8280 C   0  0  0  0  0  0  0  0  0  0  0  0
   60.6029   34.9434   49.2556 H   0  0  0  0  0  0  0  0  0  0  0  0
   59.4470   33.1480   49.6180 C   0  0  0  0  0  0  0  0  0  0  0  0
   59.7682   33.0648   50.6668 H   0  0  0  0  0  0  0  0  0  0  0  0
   58.5730   32.2010   49.0800 C   0  0  0  0  0  0  0  0  0  0  0  0
   58.2088   31.3733   49.7063 H   0  0  0  0  0  0  0  0  0  0  0  0
   58.1590   32.3010   47.7480 C   0  0  0  0  0  0  0  0  0  0  0  0
   57.4738   31.5486   47.3304 H   0  0  0  0  0  0  0  0  0  0  0  0
   58.6150   33.3610   46.9370 C   0  0  0  0  0  0  0  0  0  0  0  0
   57.5940   30.0860   45.0240 C   0  0  0  0  0  0  0  0  0  0  0  0
   58.7600   29.6250   45.7000 C   0  0  0  0  0  0  0  0  0  0  0  0
   59.8900   30.4590   45.7420 O   0  0  0  0  0  0  0  0  0  0  0  0
   60.8840   30.4180   46.7600 C   0  0  0  0  0  0  0  0  0  0  0  0
   60.3990   30.4380   47.7471 H   0  0  0  0  0  0  0  0  0  0  0  0
   61.4736   29.4948   46.6598 H   0  0  0  0  0  0  0  0  0  0  0  0
   61.5476   31.2895   46.6598 H   0  0  0  0  0  0  0  0  0  0  0  0
   58.7560   28.3500   46.3200 C   0  0  0  0  0  0  0  0  0  0  0  0
   59.6428   27.9777   46.8537 H   0  0  0  0  0  0  0  0  0  0  0  0
   57.5980   27.5830   46.2340 C   0  0  0  0  0  0  0  0  0  0  0  0
   57.3870   26.3600   46.7420 N   0  0  0  0  0  0  0  0  0  0  0  0
   56.1150   26.1060   46.3460 C   0  0  0  0  0  0  0  0  0  0  0  0
   55.5240   25.0300   46.6270 O   0  0  0  0  0  0  0  0  0  0  0  0
   55.5240   27.0920   45.6240 N   0  0  0  0  0  0  0  0  0  0  0  0
   56.4940   28.0170   45.5710 C   0  0  0  0  0  0  0  0  0  0  0  0
   56.4500   29.2560   44.9450 C   0  0  0  0  0  0  0  0  0  0  0  0
   55.5508   29.5834   44.4026 H   0  0  0  0  0  0  0  0  0  0  0  0
  1  2  1  0
  2  3  2  0
  3  4  1  0
  3  5  1  0
  5  6  2  0
  6  7  1  0
  6  8  1  0
  8  9  1  0
  8 10  2  0
 10 11  1  0
 11 12  2  0
 12 13  1  0
 12 14  1  0
 14 15  1  0
 14 16  2  0
 16 17  1  0
 16 18  1  0
 18 19  1  0
 18 20  2  0
  2 21  1  0
 21 22  2  0
 22 23  1  0
 23 24  1  0
 24 25  1  0
 24 26  1  0
 24 27  1  0
 22 28  1  0
 28 29  1  0
 28 30  2  0
 30 31  1  0
 31 32  1  0
 32 33  2  0
 32 34  1  0
 34 35  1  0
 35 36  2  0
 36 37  1  0
 20  5  1  0
 36 21  1  0
 20 11  1  0
 35 30  1  0
M  CHG  2  31  -1  34  -1
M  END
>  <UniqueID>  (62) 
53

>  <SMILES>  (62) 
COc1cc2[n-]c(=O)[n-]c2cc1/C=C\c1ccnc2ccccc12

>  <Energy>  (62) 
91.61730661698921

>  <Genealogy>  (62) 
COc1cc2[n-]c(=O)[n-]c2cc1C=Cc1ccnc2ccccc12 (protonated)
COc1cc2[n-]c(=O)[n-]c2cc1/C=C\c1ccnc2ccccc12 (cis-trans isomerization)
COc1cc2[n-]c(=O)[n-]c2cc1/C=C\c1ccnc2ccccc12 (3D coordinates assigned)
COc1cc2[n-]c(=O)[n-]c2cc1/C=C\c1ccnc2ccccc12 (optimized conformer: 91.61730661698921 kcal/mol)

>  <smiles>  (62) 
COc1cc2[nH]c(=O)[nH]c2cc1C=Cc1ccnc2ccccc12

>  <score_type>  (62) 
oracle

>  <origin>  (62) 
adg

>  <m_score__min__energy>  (62) 
-11.98

>  <m_primary>  (62) 
energy

$$$$
62:0
     RDKit          3D

 34 35  0  0  0  0  0  0  0  0999 V2000
   55.2920   29.7620   43.1220 O   0  0  0  0  0  0  0  0  0  0  0  0
   56.1240   29.8610   44.0630 C   0  0  0  0  0  0  0  0  0  0  0  0
   57.2330   30.8770   43.9750 C   0  0  0  0  0  0  0  0  0  0  0  0
   57.6050   31.4810   45.2780 N   0  0  0  0  0  0  0  0  0  0  0  0
   59.0230   31.2100   45.6360 C   0  0  0  0  0  0  0  0  0  0  0  0
   59.5420   32.1070   46.7850 C   0  0  0  0  0  0  0  0  0  0  0  0
   58.4000   32.6570   47.6410 C   0  0  0  0  0  0  0  0  0  0  0  0
   57.3980   33.4550   46.7890 C   0  0  0  0  0  0  0  0  0  0  0  0
   57.2910   32.9260   45.3430 C   0  0  0  0  0  0  0  0  0  0  0  0
   55.9980   29.0540   45.2410 N   0  0  0  0  0  0  0  0  0  0  0  0
   56.8290   27.9460   45.6140 C   0  0  0  0  0  0  0  0  0  0  0  0
   56.2910   26.7160   46.0370 C   0  0  0  0  0  0  0  0  0  0  0  0
   57.1400   25.6550   46.3700 C   0  0  0  0  0  0  0  0  0  0  0  0
   58.5260   25.8080   46.2720 C   0  0  0  0  0  0  0  0  0  0  0  0
   59.0640   27.0180   45.8300 C   0  0  0  0  0  0  0  0  0  0  0  0
   58.2190   28.0800   45.4950 C   0  0  0  0  0  0  0  0  0  0  0  0
   58.1222   30.3826   43.5568 H   0  0  0  0  0  0  0  0  0  0  0  0
   56.8641   31.6955   43.3394 H   0  0  0  0  0  0  0  0  0  0  0  0
   57.0040   30.9980   45.9910 H   0  0  0  0  0  0  0  0  0  0  0  0
   59.1107   30.1583   45.9462 H   0  0  0  0  0  0  0  0  0  0  0  0
   59.6330   31.4301   44.7475 H   0  0  0  0  0  0  0  0  0  0  0  0
   60.2116   31.5133   47.4247 H   0  0  0  0  0  0  0  0  0  0  0  0
   60.0733   32.9599   46.3376 H   0  0  0  0  0  0  0  0  0  0  0  0
   57.8746   31.8176   48.1199 H   0  0  0  0  0  0  0  0  0  0  0  0
   58.8268   33.3313   48.3981 H   0  0  0  0  0  0  0  0  0  0  0  0
   56.4064   33.3920   47.2609 H   0  0  0  0  0  0  0  0  0  0  0  0
   57.7589   34.4928   46.7370 H   0  0  0  0  0  0  0  0  0  0  0  0
   56.2665   33.0876   44.9765 H   0  0  0  0  0  0  0  0  0  0  0  0
   58.0159   33.4688   44.7186 H   0  0  0  0  0  0  0  0  0  0  0  0
   55.2006   26.5887   46.1059 H   0  0  0  0  0  0  0  0  0  0  0  0
   56.7160   24.6985   46.7096 H   0  0  0  0  0  0  0  0  0  0  0  0
   59.1922   24.9757   46.5429 H   0  0  0  0  0  0  0  0  0  0  0  0
   60.1544   27.1359   45.7452 H   0  0  0  0  0  0  0  0  0  0  0  0
   58.6479   29.0271   45.1356 H   0  0  0  0  0  0  0  0  0  0  0  0
  1  2  2  0
  2  3  1  0
  3  4  1  0
  4  5  1  0
  5  6  1  0
  6  7  1  0
  7  8  1  0
  8  9  1  0
  2 10  1  0
 10 11  1  0
 11 12  2  0
 12 13  1  0
 13 14  2  0
 14 15  1  0
 15 16  2  0
  9  4  1  0
 16 11  1  0
  3 17  1  0
  3 18  1  0
  4 19  1  0
  5 20  1  0
  5 21  1  0
  6 22  1  0
  6 23  1  0
  7 24  1  0
  7 25  1  0
  8 26  1  0
  8 27  1  0
  9 28  1  0
  9 29  1  0
 12 30  1  0
 13 31  1  0
 14 32  1  0
 15 33  1  0
 16 34  1  0
M  CHG  2   4   1  10  -1
M  END
>  <UniqueID>  (63) 
54

>  <SMILES>  (63) 
O=C(C[NH+]1CCCCC1)[N-]c1ccccc1

>  <Energy>  (63) 
43.76759809639773

>  <Genealogy>  (63) 
O=C(C[NH+]1CCCCC1)[N-]c1ccccc1 (protonated)
O=C(C[NH+]1CCCCC1)[N-]c1ccccc1 (3D coordinates assigned)
O=C(C[NH+]1CCCCC1)[N-]c1ccccc1 (nonaromatic ring conformer: 43.76759809639773 kcal/mol)

>  <smiles>  (63) 
O=C(CN1CCCCC1)Nc1ccccc1

>  <score_type>  (63) 
oracle

>  <origin>  (63) 
adg

>  <m_score__min__energy>  (63) 
-6.3700000000000001

>  <m_primary>  (63) 
energy

$$$$
63:0
     RDKit          3D

 30 31  0  0  0  0  0  0  0  0999 V2000
   58.7353   35.3724   45.8319 H   0  0  0  0  0  0  0  0  0  0  0  0
   59.1620   34.4730   46.3000 C   0  0  0  0  0  0  0  0  0  0  0  0
   60.3050   34.5810   47.0960 C   0  0  0  0  0  0  0  0  0  0  0  0
   60.7804   35.5625   47.2398 H   0  0  0  0  0  0  0  0  0  0  0  0
   60.8500   33.4450   47.7130 C   0  0  0  0  0  0  0  0  0  0  0  0
   62.1000   33.5600   48.5460 C   0  0  0  0  0  0  0  0  0  0  0  0
   62.0109   32.8906   49.4143 H   0  0  0  0  0  0  0  0  0  0  0  0
   62.2029   34.6089   48.8609 H   0  0  0  0  0  0  0  0  0  0  0  0
   63.3570   33.1780   47.7530 C   0  0  0  0  0  0  0  0  0  0  0  0
   63.3801   32.0848   47.6333 H   0  0  0  0  0  0  0  0  0  0  0  0
   64.2303   33.5414   48.3146 H   0  0  0  0  0  0  0  0  0  0  0  0
   63.3930   33.8240   46.3680 C   0  0  0  0  0  0  0  0  0  0  0  0
   63.4539   34.9171   46.4747 H   0  0  0  0  0  0  0  0  0  0  0  0
   64.2722   33.4599   45.8163 H   0  0  0  0  0  0  0  0  0  0  0  0
   62.4787   33.5598   45.8163 H   0  0  0  0  0  0  0  0  0  0  0  0
   60.2360   32.1970   47.5190 C   0  0  0  0  0  0  0  0  0  0  0  0
   60.6568   31.2999   47.9967 H   0  0  0  0  0  0  0  0  0  0  0  0
   59.0930   32.0890   46.7220 C   0  0  0  0  0  0  0  0  0  0  0  0
   58.6128   31.1087   46.5865 H   0  0  0  0  0  0  0  0  0  0  0  0
   58.5530   33.2220   46.0930 C   0  0  0  0  0  0  0  0  0  0  0  0
   57.3340   33.1020   45.2600 C   0  0  0  0  0  0  0  0  0  0  0  0
   56.4690   34.0160   45.3010 O   0  0  0  0  0  0  0  0  0  0  0  0
   57.1230   32.0000   44.3620 N   0  0  0  0  0  0  0  0  0  0  0  0
   56.8650   30.7760   44.7120 C   0  0  0  0  0  0  0  0  0  0  0  0
   57.7590   30.0050   45.3660 N   0  0  0  0  0  0  0  0  0  0  0  0
   57.0840   28.8440   45.4860 C   0  0  0  0  0  0  0  0  0  0  0  0
   57.4833   27.9454   45.9790 H   0  0  0  0  0  0  0  0  0  0  0  0
   55.8630   28.9200   44.9290 N   0  0  0  0  0  0  0  0  0  0  0  0
   55.1470   28.1630   44.8830 H   0  0  0  0  0  0  0  0  0  0  0  0
   55.7140   30.1320   44.4320 N   0  0  0  0  0  0  0  0  0  0  0  0
  1  2  1  0
  2  3  2  0
  3  4  1  0
  3  5  1  0
  5  6  1  0
  6  7  1  0
  6  8  1  0
  6  9  1  0
  9 10  1  0
  9 11  1  0
  9 12  1  0
 12 13  1  0
 12 14  1  0
 12 15  1  0
  5 16  2  0
 16 17  1  0
 16 18  1  0
 18 19  1  0
 18 20  2  0
 20 21  1  0
 21 22  2  0
 21 23  1  0
 23 24  2  0
 24 25  1  0
 25 26  2  0
 26 27  1  0
 26 28  1  0
 28 29  1  0
 28 30  1  0
 20  2  1  0
 30 24  1  0
M  CHG  1  30  -1
M  END
>  <UniqueID>  (64) 
55

>  <SMILES>  (64) 
CCCc1ccc(C(=O)/N=c2/nc[nH][n-]2)cc1

>  <Energy>  (64) 
65.38602099753575

>  <Genealogy>  (64) 
CCCc1ccc(C(=O)N=c2nc[nH][n-]2)cc1 (protonated)
CCCc1ccc(C(=O)/N=c2/nc[nH][n-]2)cc1 (cis-trans isomerization)
CCCc1ccc(C(=O)/N=c2/nc[nH][n-]2)cc1 (3D coordinates assigned)
CCCc1ccc(C(=O)/N=c2/nc[nH][n-]2)cc1 (optimized conformer: 65.38602099753575 kcal/mol)

>  <smiles>  (64) 
CCCc1ccc(C(=O)N=c2nc[nH][nH]2)cc1

>  <score_type>  (64) 
oracle

>  <origin>  (64) 
adg

>  <m_score__min__energy>  (64) 
-8.3900000000000006

>  <m_primary>  (64) 
energy

$$$$
64:0
     RDKit          3D

 65 67  0  0  0  0  0  0  0  0999 V2000
   66.6034   25.3653   51.3077 H   0  0  0  0  0  0  0  0  0  0  0  0
   66.5860   26.4650   51.2910 C   0  0  0  0  0  0  0  0  0  0  0  0
   67.5660   27.1690   50.5870 C   0  0  0  0  0  0  0  0  0  0  0  0
   68.3545   26.6228   50.0485 H   0  0  0  0  0  0  0  0  0  0  0  0
   67.5460   28.5660   50.5660 C   0  0  0  0  0  0  0  0  0  0  0  0
   68.3220   29.1145   50.0119 H   0  0  0  0  0  0  0  0  0  0  0  0
   66.5410   29.2770   51.2480 C   0  0  0  0  0  0  0  0  0  0  0  0
   66.5390   30.7580   51.2060 C   0  0  0  0  0  0  0  0  0  0  0  0
   67.6270   31.4780   51.0140 O   0  0  0  0  0  0  0  0  0  0  0  0
   67.2660   32.7410   51.0230 C   0  0  0  0  0  0  0  0  0  0  0  0
   68.1980   33.8880   50.8150 C   0  0  0  0  0  0  0  0  0  0  0  0
   68.5181   34.2820   51.7909 H   0  0  0  0  0  0  0  0  0  0  0  0
   69.0784   33.5473   50.2504 H   0  0  0  0  0  0  0  0  0  0  0  0
   67.6844   34.6801   50.2504 H   0  0  0  0  0  0  0  0  0  0  0  0
   65.9030   32.7970   51.2330 C   0  0  0  0  0  0  0  0  0  0  0  0
   65.0260   34.0150   51.2260 C   0  0  0  0  0  0  0  0  0  0  0  0
   65.1139   34.5134   50.2494 H   0  0  0  0  0  0  0  0  0  0  0  0
   65.3546   34.6822   52.0365 H   0  0  0  0  0  0  0  0  0  0  0  0
   63.5550   33.6490   51.4690 C   0  0  0  0  0  0  0  0  0  0  0  0
   62.9404   34.5558   51.3690 H   0  0  0  0  0  0  0  0  0  0  0  0
   63.4688   33.2251   52.4804 H   0  0  0  0  0  0  0  0  0  0  0  0
   63.0940   32.6710   50.5340 O   0  0  0  0  0  0  0  0  0  0  0  0
   62.2970   32.9300   49.4090 C   0  0  0  0  0  0  0  0  0  0  0  0
   62.5550   32.2070   48.2380 C   0  0  0  0  0  0  0  0  0  0  0  0
   63.3796   31.4793   48.2170 H   0  0  0  0  0  0  0  0  0  0  0  0
   61.7740   32.4020   47.0960 C   0  0  0  0  0  0  0  0  0  0  0  0
   61.9824   31.8222   46.1848 H   0  0  0  0  0  0  0  0  0  0  0  0
   60.7250   33.3340   47.1060 C   0  0  0  0  0  0  0  0  0  0  0  0
   59.8480   33.5020   45.8920 C   0  0  0  0  0  0  0  0  0  0  0  0
   60.2194   32.8451   45.0917 H   0  0  0  0  0  0  0  0  0  0  0  0
   59.8859   34.5586   45.5885 H   0  0  0  0  0  0  0  0  0  0  0  0
   58.3760   33.1430   46.1890 C   0  0  2  0  0  0  0  0  0  0  0  0
   58.2490   33.1265   47.2815 H   0  0  0  0  0  0  0  0  0  0  0  0
   58.0470   31.7660   45.6490 C   0  0  0  0  0  0  0  0  0  0  0  0
   56.9620   31.6100   44.9520 N   0  0  0  0  0  0  0  0  0  0  0  0
   56.3570   30.3820   44.8070 O   0  0  0  0  0  0  0  0  0  0  0  0
   56.3450   29.7350   43.5460 C   0  0  0  0  0  0  0  0  0  0  0  0
   56.3248   28.6451   43.6933 H   0  0  0  0  0  0  0  0  0  0  0  0
   55.4525   30.0455   42.9830 H   0  0  0  0  0  0  0  0  0  0  0  0
   57.2484   30.0122   42.9830 H   0  0  0  0  0  0  0  0  0  0  0  0
   58.8850   30.5970   45.9930 C   0  0  0  0  0  0  0  0  0  0  0  0
   59.6070   30.0810   45.0970 O   0  0  0  0  0  0  0  0  0  0  0  0
   58.8690   30.0280   47.3130 N   0  0  0  0  0  0  0  0  0  0  0  0
   58.8860   30.8830   48.5030 C   0  0  0  0  0  0  0  0  0  0  0  0
   58.8735   30.2549   49.4060 H   0  0  0  0  0  0  0  0  0  0  0  0
   59.7966   31.5001   48.4981 H   0  0  0  0  0  0  0  0  0  0  0  0
   58.0007   31.5358   48.4981 H   0  0  0  0  0  0  0  0  0  0  0  0
   58.9860   28.5780   47.4690 C   0  0  0  0  0  0  0  0  0  0  0  0
   59.0064   28.3248   48.5393 H   0  0  0  0  0  0  0  0  0  0  0  0
   58.1245   28.0873   46.9925 H   0  0  0  0  0  0  0  0  0  0  0  0
   59.9150   28.2317   46.9925 H   0  0  0  0  0  0  0  0  0  0  0  0
   57.4070   34.2020   45.6450 C   0  0  0  0  0  0  0  0  0  0  0  0
   56.9274   34.7261   46.4848 H   0  0  0  0  0  0  0  0  0  0  0  0
   57.9622   34.9257   45.0302 H   0  0  0  0  0  0  0  0  0  0  0  0
   56.6370   33.7131   45.0302 H   0  0  0  0  0  0  0  0  0  0  0  0
   60.4740   34.0710   48.2740 C   0  0  0  0  0  0  0  0  0  0  0  0
   59.6556   34.8058   48.2908 H   0  0  0  0  0  0  0  0  0  0  0  0
   61.2560   33.8780   49.4150 C   0  0  0  0  0  0  0  0  0  0  0  0
   61.0579   34.4687   50.3215 H   0  0  0  0  0  0  0  0  0  0  0  0
   65.4430   31.5380   51.3450 N   0  0  0  0  0  0  0  0  0  0  0  0
   64.4500   31.2500   51.4850 H   0  0  0  0  0  0  0  0  0  0  0  0
   65.5580   28.5560   51.9540 C   0  0  0  0  0  0  0  0  0  0  0  0
   64.7652   29.0954   52.4930 H   0  0  0  0  0  0  0  0  0  0  0  0
   65.5850   27.1580   51.9730 C   0  0  0  0  0  0  0  0  0  0  0  0
   64.8144   26.6025   52.5276 H   0  0  0  0  0  0  0  0  0  0  0  0
  1  2  1  0
  2  3  2  0
  3  4  1  0
  3  5  1  0
  5  6  1  0
  5  7  2  0
  7  8  1  0
  8  9  1  0
  9 10  1  0
 10 11  1  0
 11 12  1  0
 11 13  1  0
 11 14  1  0
 10 15  2  0
 15 16  1  0
 16 17  1  0
 16 18  1  0
 16 19  1  0
 19 20  1  0
 19 21  1  0
 19 22  1  0
 22 23  1  0
 23 24  2  0
 24 25  1  0
 24 26  1  0
 26 27  1  0
 26 28  2  0
 28 29  1  0
 29 30  1  0
 29 31  1  0
 29 32  1  0
 32 33  1  1
 32 34  1  0
 34 35  2  0
 35 36  1  0
 36 37  1  0
 37 38  1  0
 37 39  1  0
 37 40  1  0
 34 41  1  0
 41 42  2  0
 41 43  1  0
 43 44  1  0
 44 45  1  0
 44 46  1  0
 44 47  1  0
 43 48  1  0
 48 49  1  0
 48 50  1  0
 48 51  1  0
 32 52  1  0
 52 53  1  0
 52 54  1  0
 52 55  1  0
 28 56  1  0
 56 57  1  0
 56 58  2  0
 58 59  1  0
 15 60  1  0
 60 61  1  0
  7 62  1  0
 62 63  1  0
 62 64  2  0
 64 65  1  0
 64  2  1  0
 60  8  2  0
 58 23  1  0
M  CHG  1  60   1
M  END
>  <UniqueID>  (65) 
56

>  <SMILES>  (65) 
CO/N=C(\C(=O)N(C)C)[C@H](C)Cc1ccc(OCCc2[nH+]c(-c3ccccc3)oc2C)cc1

>  <Energy>  (65) 
91.63187446728028

>  <Genealogy>  (65) 
CON=C(C(=O)N(C)C)C(C)Cc1ccc(OCCc2[nH+]c(-c3ccccc3)oc2C)cc1 (protonated)
CON=C(C(=O)N(C)C)[C@H](C)Cc1ccc(OCCc2[nH+]c(-c3ccccc3)oc2C)cc1 (chirality)
CO/N=C(\C(=O)N(C)C)[C@H](C)Cc1ccc(OCCc2[nH+]c(-c3ccccc3)oc2C)cc1 (cis-trans isomerization)
CO/N=C(\C(=O)N(C)C)[C@H](C)Cc1ccc(OCCc2[nH+]c(-c3ccccc3)oc2C)cc1 (3D coordinates assigned)
CO/N=C(\C(=O)N(C)C)[C@H](C)Cc1ccc(OCCc2[nH+]c(-c3ccccc3)oc2C)cc1 (optimized conformer: 91.63187446728028 kcal/mol)

>  <smiles>  (65) 
CON=C(C(=O)N(C)C)C(C)Cc1ccc(OCCc2nc(-c3ccccc3)oc2C)cc1

>  <score_type>  (65) 
oracle

>  <origin>  (65) 
adg

>  <m_score__min__energy>  (65) 
-7.8399999999999999

>  <m_primary>  (65) 
energy

$$$$
65:0
     RDKit          3D

 39 41  0  0  0  0  0  0  0  0999 V2000
   61.4380   33.7270   48.3610 O   0  0  0  0  0  0  0  0  0  0  0  0
   59.9640   33.7410   48.6560 S   0  0  0  0  0  0  0  0  0  0  0  0
   59.6470   34.9350   49.5130 O   0  0  0  0  0  0  0  0  0  0  0  0
   59.0560   33.8570   47.1530 C   0  0  0  0  0  0  0  0  0  0  0  0
   59.6230   34.4900   46.0380 C   0  0  0  0  0  0  0  0  0  0  0  0
   58.8950   34.6060   44.8500 C   0  0  0  0  0  0  0  0  0  0  0  0
   57.5970   34.0970   44.7720 C   0  0  0  0  0  0  0  0  0  0  0  0
   57.0230   33.4730   45.8830 C   0  0  0  0  0  0  0  0  0  0  0  0
   57.7490   33.3540   47.0740 C   0  0  0  0  0  0  0  0  0  0  0  0
   59.5230   32.2860   49.4870 N   0  0  0  0  0  0  0  0  0  0  0  0
   58.4870   32.1840   50.4990 C   0  0  0  0  0  0  0  0  0  0  0  0
   58.3710   30.6700   50.7540 C   0  0  0  0  0  0  0  0  0  0  0  0
   59.3120   30.0660   49.8200 N   0  0  0  0  0  0  0  0  0  0  0  0
   59.9230   30.9730   49.1430 C   0  0  0  0  0  0  0  0  0  0  0  0
   61.1510   30.5920   47.8950 S   0  0  0  0  0  0  0  0  0  0  0  0
   60.3550   29.0210   47.4280 C   0  0  0  0  0  0  0  0  0  0  0  0
   59.2510   29.2930   46.4510 C   0  0  0  0  0  0  0  0  0  0  0  0
   59.2960   30.4300   45.6270 C   0  0  0  0  0  0  0  0  0  0  0  0
   58.2830   30.6620   44.6910 C   0  0  0  0  0  0  0  0  0  0  0  0
   57.2250   29.7570   44.5640 C   0  0  0  0  0  0  0  0  0  0  0  0
   55.9580   30.0490   43.3870 Cl  0  0  0  0  0  0  0  0  0  0  0  0
   57.1810   28.6150   45.3700 C   0  0  0  0  0  0  0  0  0  0  0  0
   58.1920   28.3800   46.3070 C   0  0  0  0  0  0  0  0  0  0  0  0
   60.6434   34.8965   46.0980 H   0  0  0  0  0  0  0  0  0  0  0  0
   59.3453   35.0988   43.9757 H   0  0  0  0  0  0  0  0  0  0  0  0
   57.0262   34.1872   43.8360 H   0  0  0  0  0  0  0  0  0  0  0  0
   55.9994   33.0749   45.8215 H   0  0  0  0  0  0  0  0  0  0  0  0
   57.2942   32.8657   47.9485 H   0  0  0  0  0  0  0  0  0  0  0  0
   58.7817   32.7145   51.4164 H   0  0  0  0  0  0  0  0  0  0  0  0
   57.5359   32.6361   50.1814 H   0  0  0  0  0  0  0  0  0  0  0  0
   58.6452   30.4290   51.7917 H   0  0  0  0  0  0  0  0  0  0  0  0
   57.3451   30.3004   50.6096 H   0  0  0  0  0  0  0  0  0  0  0  0
   59.4760   29.0390   49.7150 H   0  0  0  0  0  0  0  0  0  0  0  0
   61.0990   28.3560   46.9652 H   0  0  0  0  0  0  0  0  0  0  0  0
   59.9407   28.5382   48.3253 H   0  0  0  0  0  0  0  0  0  0  0  0
   60.1309   31.1403   45.7183 H   0  0  0  0  0  0  0  0  0  0  0  0
   58.3188   31.5579   44.0538 H   0  0  0  0  0  0  0  0  0  0  0  0
   56.3505   27.9011   45.2668 H   0  0  0  0  0  0  0  0  0  0  0  0
   58.1584   27.4768   46.9340 H   0  0  0  0  0  0  0  0  0  0  0  0
  1  2  2  0
  2  3  2  0
  2  4  1  0
  4  5  2  0
  5  6  1  0
  6  7  2  0
  7  8  1  0
  8  9  2  0
  2 10  1  0
 10 11  1  0
 11 12  1  0
 12 13  1  0
 13 14  2  0
 14 15  1  0
 15 16  1  0
 16 17  1  0
 17 18  2  0
 18 19  1  0
 19 20  2  0
 20 21  1  0
 20 22  1  0
 22 23  2  0
  9  4  1  0
 14 10  1  0
 23 17  1  0
  5 24  1  0
  6 25  1  0
  7 26  1  0
  8 27  1  0
  9 28  1  0
 11 29  1  0
 11 30  1  0
 12 31  1  0
 12 32  1  0
 13 33  1  0
 16 34  1  0
 16 35  1  0
 18 36  1  0
 19 37  1  0
 22 38  1  0
 23 39  1  0
M  CHG  1  13   1
M  END
>  <UniqueID>  (66) 
57

>  <SMILES>  (66) 
O=S(=O)(c1ccccc1)N1CC[NH+]=C1SCc1ccc(Cl)cc1

>  <Energy>  (66) 
48.20163364285424

>  <Genealogy>  (66) 
O=S(=O)(c1ccccc1)N1CC[NH+]=C1SCc1ccc(Cl)cc1 (protonated)
O=S(=O)(c1ccccc1)N1CC[NH+]=C1SCc1ccc(Cl)cc1 (3D coordinates assigned)
O=S(=O)(c1ccccc1)N1CC[NH+]=C1SCc1ccc(Cl)cc1 (nonaromatic ring conformer: 48.20163364285424 kcal/mol)

>  <smiles>  (66) 
O=S(=O)(c1ccccc1)N1CCN=C1SCc1ccc(Cl)cc1

>  <score_type>  (66) 
oracle

>  <origin>  (66) 
adg

>  <m_score__min__energy>  (66) 
-6.4699999999999998

>  <m_primary>  (66) 
energy

$$$$
66:0
     RDKit          3D

 55 58  0  0  0  0  0  0  0  0999 V2000
   59.5860   28.2960   46.5160 C   0  0  0  0  0  0  0  0  0  0  0  0
   59.5660   28.5770   47.8820 C   0  0  0  0  0  0  0  0  0  0  0  0
   60.3440   29.6190   48.3900 C   0  0  0  0  0  0  0  0  0  0  0  0
   61.1400   30.3780   47.5150 C   0  0  0  0  0  0  0  0  0  0  0  0
   62.0280   31.3980   48.0100 N   0  0  0  0  0  0  0  0  0  0  0  0
   63.3440   31.6570   47.4110 C   0  0  0  0  0  0  0  0  0  0  0  0
   63.4460   33.1190   46.9080 C   0  0  0  0  0  0  0  0  0  0  0  0
   62.4180   34.0220   47.4890 N   0  0  0  0  0  0  0  0  0  0  0  0
   61.1990   34.0310   46.6390 C   0  0  0  0  0  0  0  0  0  0  0  0
   59.9620   34.6430   47.3230 C   0  0  0  0  0  0  0  0  0  0  0  0
   58.7660   33.6740   47.2970 C   0  0  0  0  0  0  0  0  0  0  0  0
   58.9900   32.5740   46.3360 N   0  0  0  0  0  0  0  0  0  0  0  0
   58.7460   32.9910   44.9480 C   0  0  0  0  0  0  0  0  0  0  0  0
   58.2150   31.7420   44.2940 C   0  0  2  0  0  0  0  0  0  0  0  0
   57.3850   31.9180   43.0250 C   0  0  0  0  0  0  0  0  0  0  0  0
   56.8990   30.5260   42.5720 C   0  0  0  0  0  0  0  0  0  0  0  0
   56.2270   29.7340   43.7190 C   0  0  0  0  0  0  0  0  0  0  0  0
   57.0670   29.7640   45.0100 C   0  0  0  0  0  0  0  0  0  0  0  0
   57.3730   31.1640   45.3240 N   0  0  0  0  0  0  0  0  0  0  0  0
   58.1180   31.3980   46.5600 C   0  0  0  0  0  0  0  0  0  0  0  0
   62.1840   33.6880   48.9140 C   0  0  0  0  0  0  0  0  0  0  0  0
   61.5710   32.2860   49.0820 C   0  0  0  0  0  0  0  0  0  0  0  0
   61.1470   30.0700   46.1870 N   0  0  0  0  0  0  0  0  0  0  0  0
   60.3900   29.0650   45.6740 C   0  0  0  0  0  0  0  0  0  0  0  0
   58.9750   27.4777   46.1073 H   0  0  0  0  0  0  0  0  0  0  0  0
   58.9380   27.9784   48.5582 H   0  0  0  0  0  0  0  0  0  0  0  0
   60.3341   29.8442   49.4667 H   0  0  0  0  0  0  0  0  0  0  0  0
   64.1241   31.4810   48.1663 H   0  0  0  0  0  0  0  0  0  0  0  0
   63.4786   30.9808   46.5539 H   0  0  0  0  0  0  0  0  0  0  0  0
   64.4402   33.5088   47.1718 H   0  0  0  0  0  0  0  0  0  0  0  0
   63.2793   33.0982   45.8209 H   0  0  0  0  0  0  0  0  0  0  0  0
   61.4151   34.6127   45.7307 H   0  0  0  0  0  0  0  0  0  0  0  0
   60.9551   32.9806   46.4217 H   0  0  0  0  0  0  0  0  0  0  0  0
   60.2105   34.8761   48.3689 H   0  0  0  0  0  0  0  0  0  0  0  0
   59.6800   35.5542   46.7752 H   0  0  0  0  0  0  0  0  0  0  0  0
   58.6263   33.2494   48.3021 H   0  0  0  0  0  0  0  0  0  0  0  0
   57.8717   34.2329   46.9842 H   0  0  0  0  0  0  0  0  0  0  0  0
   58.0047   33.8026   44.9058 H   0  0  0  0  0  0  0  0  0  0  0  0
   59.6469   33.3837   44.4538 H   0  0  0  0  0  0  0  0  0  0  0  0
   59.0676   31.1390   43.9483 H   0  0  0  0  0  0  0  0  0  0  0  0
   56.5202   32.5654   43.2322 H   0  0  0  0  0  0  0  0  0  0  0  0
   57.9917   32.3850   42.2351 H   0  0  0  0  0  0  0  0  0  0  0  0
   56.1712   30.6538   41.7572 H   0  0  0  0  0  0  0  0  0  0  0  0
   57.7788   29.9550   42.2405 H   0  0  0  0  0  0  0  0  0  0  0  0
   55.2414   30.1763   43.9262 H   0  0  0  0  0  0  0  0  0  0  0  0
   56.1332   28.6858   43.3988 H   0  0  0  0  0  0  0  0  0  0  0  0
   56.4973   29.3129   45.8358 H   0  0  0  0  0  0  0  0  0  0  0  0
   57.9970   29.1930   44.8721 H   0  0  0  0  0  0  0  0  0  0  0  0
   57.4209   31.5990   47.3868 H   0  0  0  0  0  0  0  0  0  0  0  0
   58.7178   30.5148   46.8250 H   0  0  0  0  0  0  0  0  0  0  0  0
   63.1441   33.7228   49.4497 H   0  0  0  0  0  0  0  0  0  0  0  0
   61.4742   34.4216   49.3239 H   0  0  0  0  0  0  0  0  0  0  0  0
   61.8779   31.8700   50.0530 H   0  0  0  0  0  0  0  0  0  0  0  0
   60.4750   32.3674   49.0356 H   0  0  0  0  0  0  0  0  0  0  0  0
   60.4110   28.8575   44.5940 H   0  0  0  0  0  0  0  0  0  0  0  0
  1  2  2  0
  2  3  1  0
  3  4  2  0
  4  5  1  0
  5  6  1  0
  6  7  1  0
  7  8  1  0
  8  9  1  0
  9 10  1  0
 10 11  1  0
 11 12  1  0
 12 13  1  0
 13 14  1  0
 14 15  1  0
 15 16  1  0
 16 17  1  0
 17 18  1  0
 18 19  1  0
 19 20  1  0
  8 21  1  0
 21 22  1  0
  4 23  1  0
 23 24  2  0
 24  1  1  0
 22  5  1  0
 20 12  1  0
 19 14  1  0
  1 25  1  0
  2 26  1  0
  3 27  1  0
  6 28  1  0
  6 29  1  0
  7 30  1  0
  7 31  1  0
  9 32  1  0
  9 33  1  0
 10 34  1  0
 10 35  1  0
 11 36  1  0
 11 37  1  0
 13 38  1  0
 13 39  1  0
 14 40  1  6
 15 41  1  0
 15 42  1  0
 16 43  1  0
 16 44  1  0
 17 45  1  0
 17 46  1  0
 18 47  1  0
 18 48  1  0
 20 49  1  0
 20 50  1  0
 21 51  1  0
 21 52  1  0
 22 53  1  0
 22 54  1  0
 24 55  1  0
M  END
>  <UniqueID>  (67) 
58

>  <SMILES>  (67) 
c1ccc(N2CCN(CCCN3C[C@@H]4CCCCN4C3)CC2)nc1

>  <Energy>  (67) 
72.11991783226198

>  <Genealogy>  (67) 
c1ccc(N2CCN(CCCN3C[C@@H]4CCCCN4C3)CC2)nc1 (chirality)
c1ccc(N2CCN(CCCN3C[C@@H]4CCCCN4C3)CC2)nc1 (3D coordinates assigned)
c1ccc(N2CCN(CCCN3C[C@@H]4CCCCN4C3)CC2)nc1 (nonaromatic ring conformer: 72.11991783226198 kcal/mol)

>  <smiles>  (67) 
c1ccc(N2CCN(CCCN3CC4CCCCN4C3)CC2)nc1

>  <score_type>  (67) 
oracle

>  <origin>  (67) 
adg

>  <m_score__min__energy>  (67) 
-8.1199999999999992

>  <m_primary>  (67) 
energy

$$$$
67:0
     RDKit          3D

 72 75  0  0  0  0  0  0  0  0999 V2000
   61.8400   33.2580   49.5590 C   0  0  0  0  0  0  0  0  0  0  0  0
   61.0010   32.1150   49.6850 O   0  0  0  0  0  0  0  0  0  0  0  0
   60.8060   31.1560   48.6780 C   0  0  0  0  0  0  0  0  0  0  0  0
   61.1520   31.4020   47.3380 C   0  0  0  0  0  0  0  0  0  0  0  0
   60.9430   30.4270   46.3630 C   0  0  0  0  0  0  0  0  0  0  0  0
   60.4430   29.1630   46.7140 C   0  0  0  0  0  0  0  0  0  0  0  0
   60.1450   28.1180   45.6610 C   0  0  0  0  0  0  0  0  0  0  0  0
   59.9620   26.6960   46.2110 C   0  0  0  0  0  0  0  0  0  0  0  0
   58.5550   26.2730   46.2030 N   0  0  0  0  0  0  0  0  0  0  0  0
   57.4500   27.0560   46.1920 C   0  0  0  0  0  0  0  0  0  0  0  0
   57.4070   28.5450   46.3940 C   0  0  0  0  0  0  0  0  0  0  0  0
   57.1010   29.2480   45.1080 C   0  0  0  0  0  0  0  0  0  0  0  0
   57.3400   28.6770   44.0080 O   0  0  0  0  0  0  0  0  0  0  0  0
   56.6440   30.6060   45.1450 N   0  0  0  0  0  0  0  0  0  0  0  0
   57.4630   31.7840   45.1870 C   0  0  0  0  0  0  0  0  0  0  0  0
   57.8730   32.4510   44.0170 C   0  0  0  0  0  0  0  0  0  0  0  0
   58.6480   33.6110   44.1060 C   0  0  0  0  0  0  0  0  0  0  0  0
   59.0130   34.1180   45.3550 C   0  0  0  0  0  0  0  0  0  0  0  0
   58.6040   33.4670   46.5290 C   0  0  0  0  0  0  0  0  0  0  0  0
   58.9540   34.0290   47.8750 C   0  0  0  0  0  0  0  0  0  0  0  0
   57.8140   32.3110   46.4360 C   0  0  0  0  0  0  0  0  0  0  0  0
   56.3520   26.2410   46.0060 C   0  0  0  0  0  0  0  0  0  0  0  0
   55.0310   26.6690   45.9320 O   0  0  0  0  0  0  0  0  0  0  0  0
   56.7450   24.9560   45.8870 N   0  0  0  0  0  0  0  0  0  0  0  0
   55.8490   23.8120   45.6220 C   0  0  1  0  0  0  0  0  0  0  0  0
   56.5980   22.5110   45.3010 C   0  0  0  0  0  0  0  0  0  0  0  0
   54.8160   23.6270   46.7540 C   0  0  0  0  0  0  0  0  0  0  0  0
   55.3100   22.7640   47.8870 C   0  0  0  0  0  0  0  0  0  0  0  0
   54.5730   21.6400   48.2940 C   0  0  0  0  0  0  0  0  0  0  0  0
   55.0590   20.8060   49.3030 C   0  0  0  0  0  0  0  0  0  0  0  0
   56.2740   21.0970   49.9270 C   0  0  0  0  0  0  0  0  0  0  0  0
   57.0060   22.2230   49.5440 C   0  0  0  0  0  0  0  0  0  0  0  0
   56.5300   23.0530   48.5240 C   0  0  0  0  0  0  0  0  0  0  0  0
   58.0930   25.0130   46.0260 C   0  0  0  0  0  0  0  0  0  0  0  0
   58.8480   24.0060   45.9770 O   0  0  0  0  0  0  0  0  0  0  0  0
   60.0770   28.9240   48.0510 C   0  0  0  0  0  0  0  0  0  0  0  0
   60.2440   29.9210   49.0320 C   0  0  0  0  0  0  0  0  0  0  0  0
   59.8660   29.7240   50.3690 O   0  0  0  0  0  0  0  0  0  0  0  0
   60.7760   29.5200   51.4450 C   0  0  0  0  0  0  0  0  0  0  0  0
   62.1104   33.6264   50.5596 H   0  0  0  0  0  0  0  0  0  0  0  0
   62.7530   32.9840   49.0100 H   0  0  0  0  0  0  0  0  0  0  0  0
   61.3049   34.0469   49.0100 H   0  0  0  0  0  0  0  0  0  0  0  0
   61.5908   32.3706   47.0564 H   0  0  0  0  0  0  0  0  0  0  0  0
   61.1718   30.6502   45.3104 H   0  0  0  0  0  0  0  0  0  0  0  0
   59.2196   28.4075   45.1415 H   0  0  0  0  0  0  0  0  0  0  0  0
   61.0196   28.0862   44.9946 H   0  0  0  0  0  0  0  0  0  0  0  0
   60.5447   25.9989   45.5909 H   0  0  0  0  0  0  0  0  0  0  0  0
   60.3095   26.6910   47.2547 H   0  0  0  0  0  0  0  0  0  0  0  0
   56.6272   28.7864   47.1313 H   0  0  0  0  0  0  0  0  0  0  0  0
   58.3911   28.8804   46.7533 H   0  0  0  0  0  0  0  0  0  0  0  0
   57.5830   32.0587   43.0311 H   0  0  0  0  0  0  0  0  0  0  0  0
   58.9713   34.1260   43.1894 H   0  0  0  0  0  0  0  0  0  0  0  0
   59.6233   35.0309   45.4188 H   0  0  0  0  0  0  0  0  0  0  0  0
   58.5476   33.3764   48.6618 H   0  0  0  0  0  0  0  0  0  0  0  0
   60.0479   34.0866   47.9751 H   0  0  0  0  0  0  0  0  0  0  0  0
   58.5231   35.0361   47.9751 H   0  0  0  0  0  0  0  0  0  0  0  0
   57.4669   31.8137   47.3537 H   0  0  0  0  0  0  0  0  0  0  0  0
   55.2950   24.0632   44.7055 H   0  0  0  0  0  0  0  0  0  0  0  0
   56.8851   22.0123   46.2385 H   0  0  0  0  0  0  0  0  0  0  0  0
   55.9444   21.8461   44.7172 H   0  0  0  0  0  0  0  0  0  0  0  0
   57.5012   22.7423   44.7172 H   0  0  0  0  0  0  0  0  0  0  0  0
   54.5610   24.6181   47.1574 H   0  0  0  0  0  0  0  0  0  0  0  0
   53.9454   23.1169   46.3159 H   0  0  0  0  0  0  0  0  0  0  0  0
   53.6082   21.4155   47.8156 H   0  0  0  0  0  0  0  0  0  0  0  0
   54.4841   19.9187   49.6067 H   0  0  0  0  0  0  0  0  0  0  0  0
   56.6550   20.4383   50.7213 H   0  0  0  0  0  0  0  0  0  0  0  0
   57.9571   22.4571   50.0447 H   0  0  0  0  0  0  0  0  0  0  0  0
   57.1120   23.9351   48.2189 H   0  0  0  0  0  0  0  0  0  0  0  0
   59.6558   27.9479   48.3336 H   0  0  0  0  0  0  0  0  0  0  0  0
   60.2456   29.6389   52.4013 H   0  0  0  0  0  0  0  0  0  0  0  0
   61.1962   28.5054   51.3825 H   0  0  0  0  0  0  0  0  0  0  0  0
   61.5892   30.2581   51.3825 H   0  0  0  0  0  0  0  0  0  0  0  0
  1  2  1  0
  2  3  1  0
  3  4  2  0
  4  5  1  0
  5  6  2  0
  6  7  1  0
  7  8  1  0
  8  9  1  0
  9 10  1  0
 10 11  1  0
 11 12  1  0
 12 13  2  0
 12 14  1  0
 14 15  1  0
 15 16  2  0
 16 17  1  0
 17 18  2  0
 18 19  1  0
 19 20  1  0
 19 21  2  0
 10 22  2  0
 22 23  1  0
 22 24  1  0
 24 25  1  0
 25 26  1  0
 25 27  1  0
 27 28  1  0
 28 29  2  0
 29 30  1  0
 30 31  2  0
 31 32  1  0
 32 33  2  0
 24 34  1  0
 34 35  2  0
  6 36  1  0
 36 37  2  0
 37 38  1  0
 38 39  1  0
 37  3  1  0
 34  9  1  0
 21 15  1  0
 33 28  1  0
  1 40  1  0
  1 41  1  0
  1 42  1  0
  4 43  1  0
  5 44  1  0
  7 45  1  0
  7 46  1  0
  8 47  1  0
  8 48  1  0
 11 49  1  0
 11 50  1  0
 16 51  1  0
 17 52  1  0
 18 53  1  0
 20 54  1  0
 20 55  1  0
 20 56  1  0
 21 57  1  0
 25 58  1  6
 26 59  1  0
 26 60  1  0
 26 61  1  0
 27 62  1  0
 27 63  1  0
 29 64  1  0
 30 65  1  0
 31 66  1  0
 32 67  1  0
 33 68  1  0
 36 69  1  0
 39 70  1  0
 39 71  1  0
 39 72  1  0
M  CHG  2  14  -1  23  -1
M  END
>  <UniqueID>  (68) 
59

>  <SMILES>  (68) 
COc1ccc(CCn2c(CC(=O)[N-]c3cccc(C)c3)c([O-])n([C@@H](C)Cc3ccccc3)c2=O)cc1OC

>  <Energy>  (68) 
100.78282624913687

>  <Genealogy>  (68) 
COc1ccc(CCn2c(CC(=O)[N-]c3cccc(C)c3)c([O-])n(C(C)Cc3ccccc3)c2=O)cc1OC (protonated)
COc1ccc(CCn2c(CC(=O)[N-]c3cccc(C)c3)c([O-])n([C@@H](C)Cc3ccccc3)c2=O)cc1OC (chirality)
COc1ccc(CCn2c(CC(=O)[N-]c3cccc(C)c3)c([O-])n([C@@H](C)Cc3ccccc3)c2=O)cc1OC (3D coordinates assigned)
COc1ccc(CCn2c(CC(=O)[N-]c3cccc(C)c3)c([O-])n([C@@H](C)Cc3ccccc3)c2=O)cc1OC (optimized conformer: 100.78282624913687 kcal/mol)

>  <smiles>  (68) 
COc1ccc(CCn2c(CC(=O)Nc3cccc(C)c3)c(O)n(C(C)Cc3ccccc3)c2=O)cc1OC

>  <score_type>  (68) 
oracle

>  <origin>  (68) 
adg

>  <m_score__min__energy>  (68) 
-14.289999999999999

>  <m_primary>  (68) 
energy

$$$$
68:0
     RDKit          3D

 49 51  0  0  0  0  0  0  0  0999 V2000
   64.5270   32.7360   49.1750 C   0  0  0  0  0  0  0  0  0  0  0  0
   63.7090   33.6900   48.4050 N   0  0  0  0  0  0  0  0  0  0  0  0
   62.4820   34.0740   49.1350 C   0  0  0  0  0  0  0  0  0  0  0  0
   61.4790   32.9120   49.2190 C   0  0  0  0  0  0  0  0  0  0  0  0
   61.4020   32.1850   47.9440 N   0  0  0  0  0  0  0  0  0  0  0  0
   60.7360   30.9030   47.8610 C   0  0  0  0  0  0  0  0  0  0  0  0
   60.2600   30.4660   46.6630 N   0  0  0  0  0  0  0  0  0  0  0  0
   59.6340   29.2660   46.5350 C   0  0  0  0  0  0  0  0  0  0  0  0
   59.0870   28.8540   45.1990 C   0  0  0  0  0  0  0  0  0  0  0  0
   57.9650   29.7890   44.7400 C   0  0  0  0  0  0  0  0  0  0  0  0
   58.5290   31.0650   44.2660 N   0  0  0  0  0  0  0  0  0  0  0  0
   57.6070   32.1840   44.4980 C   0  0  0  0  0  0  0  0  0  0  0  0
   58.2420   33.1790   45.4290 C   0  0  0  0  0  0  0  0  0  0  0  0
   58.1100   33.0300   46.8190 C   0  0  0  0  0  0  0  0  0  0  0  0
   58.7320   33.9340   47.6870 C   0  0  0  0  0  0  0  0  0  0  0  0
   59.4970   34.9840   47.1710 C   0  0  0  0  0  0  0  0  0  0  0  0
   59.6440   35.1310   45.7900 C   0  0  0  0  0  0  0  0  0  0  0  0
   59.0240   34.2300   44.9190 C   0  0  0  0  0  0  0  0  0  0  0  0
   59.4630   28.4590   47.6640 C   0  0  0  0  0  0  0  0  0  0  0  0
   59.9560   28.9100   48.8840 C   0  0  0  0  0  0  0  0  0  0  0  0
   60.5810   30.1150   48.9670 N   0  0  0  0  0  0  0  0  0  0  0  0
   61.9900   32.8110   46.7530 C   0  0  0  0  0  0  0  0  0  0  0  0
   63.4540   33.2080   47.0220 C   0  0  0  0  0  0  0  0  0  0  0  0
   64.3778   32.9100   50.2509 H   0  0  0  0  0  0  0  0  0  0  0  0
   64.2250   31.7084   48.9244 H   0  0  0  0  0  0  0  0  0  0  0  0
   65.5887   32.8776   48.9244 H   0  0  0  0  0  0  0  0  0  0  0  0
   62.7563   34.3817   50.1548 H   0  0  0  0  0  0  0  0  0  0  0  0
   62.0033   34.8993   48.5876 H   0  0  0  0  0  0  0  0  0  0  0  0
   61.7995   32.2175   50.0096 H   0  0  0  0  0  0  0  0  0  0  0  0
   60.4850   33.3248   49.4459 H   0  0  0  0  0  0  0  0  0  0  0  0
   59.8989   28.8787   44.4572 H   0  0  0  0  0  0  0  0  0  0  0  0
   58.6737   27.8389   45.2932 H   0  0  0  0  0  0  0  0  0  0  0  0
   57.4065   29.3120   43.9212 H   0  0  0  0  0  0  0  0  0  0  0  0
   57.2924   29.9864   45.5878 H   0  0  0  0  0  0  0  0  0  0  0  0
   59.4080   31.2580   44.8020 H   0  0  0  0  0  0  0  0  0  0  0  0
   57.3782   32.6739   43.5401 H   0  0  0  0  0  0  0  0  0  0  0  0
   56.6788   31.8036   44.9494 H   0  0  0  0  0  0  0  0  0  0  0  0
   57.5153   32.1994   47.2270 H   0  0  0  0  0  0  0  0  0  0  0  0
   58.6191   33.8185   48.7751 H   0  0  0  0  0  0  0  0  0  0  0  0
   59.9840   35.6957   47.8539 H   0  0  0  0  0  0  0  0  0  0  0  0
   60.2485   35.9569   45.3869 H   0  0  0  0  0  0  0  0  0  0  0  0
   59.1484   34.3438   43.8320 H   0  0  0  0  0  0  0  0  0  0  0  0
   58.9499   27.4889   47.5890 H   0  0  0  0  0  0  0  0  0  0  0  0
   59.8399   28.2897   49.7850 H   0  0  0  0  0  0  0  0  0  0  0  0
   60.9220   30.4230   49.9030 H   0  0  0  0  0  0  0  0  0  0  0  0
   61.9557   32.0991   45.9151 H   0  0  0  0  0  0  0  0  0  0  0  0
   61.4151   33.7153   46.5047 H   0  0  0  0  0  0  0  0  0  0  0  0
   64.0892   32.3285   46.8403 H   0  0  0  0  0  0  0  0  0  0  0  0
   63.6841   34.0457   46.3472 H   0  0  0  0  0  0  0  0  0  0  0  0
  1  2  1  0
  2  3  1  0
  3  4  1  0
  4  5  1  0
  5  6  1  0
  6  7  2  0
  7  8  1  0
  8  9  1  0
  9 10  1  0
 10 11  1  0
 11 12  1  0
 12 13  1  0
 13 14  2  0
 14 15  1  0
 15 16  2  0
 16 17  1  0
 17 18  2  0
  8 19  2  0
 19 20  1  0
 20 21  2  0
  5 22  1  0
 22 23  1  0
 23  2  1  0
 21  6  1  0
 18 13  1  0
  1 24  1  0
  1 25  1  0
  1 26  1  0
  3 27  1  0
  3 28  1  0
  4 29  1  0
  4 30  1  0
  9 31  1  0
  9 32  1  0
 10 33  1  0
 10 34  1  0
 11 35  1  0
 12 36  1  0
 12 37  1  0
 14 38  1  0
 15 39  1  0
 16 40  1  0
 17 41  1  0
 18 42  1  0
 19 43  1  0
 20 44  1  0
 21 45  1  0
 22 46  1  0
 22 47  1  0
 23 48  1  0
 23 49  1  0
M  CHG  1  21   1
M  END
>  <UniqueID>  (69) 
60

>  <SMILES>  (69) 
CN1CCN(c2nc(CCNCc3ccccc3)cc[nH+]2)CC1

>  <Energy>  (69) 
55.00533817114656

>  <Genealogy>  (69) 
CN1CCN(c2nc(CCNCc3ccccc3)cc[nH+]2)CC1 (protonated)
CN1CCN(c2nc(CCNCc3ccccc3)cc[nH+]2)CC1 (3D coordinates assigned)
CN1CCN(c2nc(CCNCc3ccccc3)cc[nH+]2)CC1 (nonaromatic ring conformer: 55.00533817114656 kcal/mol)

>  <smiles>  (69) 
CN1CCN(c2nccc(CCNCc3ccccc3)n2)CC1

>  <score_type>  (69) 
oracle

>  <origin>  (69) 
adg

>  <m_score__min__energy>  (69) 
-6.1200000000000001

>  <m_primary>  (69) 
energy

$$$$
69:0
     RDKit          3D

 48 51  0  0  0  0  0  0  0  0999 V2000
   66.9210   30.9710   52.2880 C   0  0  0  0  0  0  0  0  0  0  0  0
   65.9500   31.5300   51.2910 C   0  0  0  0  0  0  0  0  0  0  0  0
   66.3280   32.5750   50.4330 C   0  0  0  0  0  0  0  0  0  0  0  0
   65.4270   33.0710   49.4880 C   0  0  0  0  0  0  0  0  0  0  0  0
   64.1320   32.5370   49.3920 C   0  0  0  0  0  0  0  0  0  0  0  0
   63.2060   33.0210   48.4060 N   0  0  0  0  0  0  0  0  0  0  0  0
   63.4680   33.0590   47.1070 N   0  0  0  0  0  0  0  0  0  0  0  0
   62.4430   33.5700   46.4340 N   0  0  0  0  0  0  0  0  0  0  0  0
   61.4900   33.8700   47.3370 C   0  0  0  0  0  0  0  0  0  0  0  0
   59.9050   34.5090   46.9380 S   0  0  0  0  0  0  0  0  0  0  0  0
   59.2260   35.0130   48.1800 O   0  0  0  0  0  0  0  0  0  0  0  0
   60.0700   35.6620   45.9860 O   0  0  0  0  0  0  0  0  0  0  0  0
   58.9300   33.2420   46.2030 C   0  0  0  0  0  0  0  0  0  0  0  0
   57.7820   33.5590   45.4660 C   0  0  0  0  0  0  0  0  0  0  0  0
   57.0190   32.5440   44.8810 C   0  0  0  0  0  0  0  0  0  0  0  0
   57.3960   31.1950   45.0180 C   0  0  0  0  0  0  0  0  0  0  0  0
   56.5920   30.1210   44.3880 C   0  0  0  0  0  0  0  0  0  0  0  0
   56.3110   30.1860   43.1600 O   0  0  0  0  0  0  0  0  0  0  0  0
   56.0950   29.0360   45.1840 N   0  0  0  0  0  0  0  0  0  0  0  0
   56.7930   27.8290   45.5200 C   0  0  0  0  0  0  0  0  0  0  0  0
   56.1300   26.7010   46.0420 C   0  0  0  0  0  0  0  0  0  0  0  0
   56.8470   25.5340   46.3290 C   0  0  0  0  0  0  0  0  0  0  0  0
   58.2220   25.4770   46.0840 C   0  0  0  0  0  0  0  0  0  0  0  0
   58.9140   24.3440   46.3600 F   0  0  0  0  0  0  0  0  0  0  0  0
   58.8810   26.5830   45.5430 C   0  0  0  0  0  0  0  0  0  0  0  0
   58.1670   27.7510   45.2540 C   0  0  0  0  0  0  0  0  0  0  0  0
   58.5530   30.8860   45.7560 C   0  0  0  0  0  0  0  0  0  0  0  0
   59.3120   31.9030   46.3420 C   0  0  0  0  0  0  0  0  0  0  0  0
   61.9640   33.5160   48.5750 C   0  0  0  0  0  0  0  0  0  0  0  0
   61.3000   33.5550   49.6890 N   0  0  0  0  0  0  0  0  0  0  0  0
   63.7670   31.4690   50.2250 C   0  0  0  0  0  0  0  0  0  0  0  0
   64.6700   30.9710   51.1700 C   0  0  0  0  0  0  0  0  0  0  0  0
   66.5609   31.1783   53.3065 H   0  0  0  0  0  0  0  0  0  0  0  0
   67.0090   29.8840   52.1444 H   0  0  0  0  0  0  0  0  0  0  0  0
   67.9052   31.4407   52.1444 H   0  0  0  0  0  0  0  0  0  0  0  0
   67.3379   33.0049   50.5053 H   0  0  0  0  0  0  0  0  0  0  0  0
   65.7339   33.8850   48.8148 H   0  0  0  0  0  0  0  0  0  0  0  0
   57.4797   34.6099   45.3471 H   0  0  0  0  0  0  0  0  0  0  0  0
   56.1159   32.8021   44.3085 H   0  0  0  0  0  0  0  0  0  0  0  0
   55.0459   26.7376   46.2245 H   0  0  0  0  0  0  0  0  0  0  0  0
   56.3275   24.6597   46.7483 H   0  0  0  0  0  0  0  0  0  0  0  0
   59.9618   26.5359   45.3440 H   0  0  0  0  0  0  0  0  0  0  0  0
   58.6878   28.6146   44.8147 H   0  0  0  0  0  0  0  0  0  0  0  0
   58.8625   29.8369   45.8727 H   0  0  0  0  0  0  0  0  0  0  0  0
   60.2153   31.6492   46.9161 H   0  0  0  0  0  0  0  0  0  0  0  0
   60.3800   34.0360   49.7840 H   0  0  0  0  0  0  0  0  0  0  0  0
   62.7663   31.0212   50.1346 H   0  0  0  0  0  0  0  0  0  0  0  0
   64.3741   30.1359   51.8220 H   0  0  0  0  0  0  0  0  0  0  0  0
  1  2  1  0
  2  3  2  0
  3  4  1  0
  4  5  2  0
  5  6  1  0
  6  7  1  0
  7  8  1  0
  8  9  2  0
  9 10  1  0
 10 11  2  0
 10 12  2  0
 10 13  1  0
 13 14  2  0
 14 15  1  0
 15 16  2  0
 16 17  1  0
 17 18  2  0
 17 19  1  0
 19 20  1  0
 20 21  2  0
 21 22  1  0
 22 23  2  0
 23 24  1  0
 23 25  1  0
 25 26  2  0
 16 27  1  0
 27 28  2  0
  9 29  1  0
 29 30  2  3
  5 31  1  0
 31 32  2  0
 32  2  1  0
 29  6  1  0
 28 13  1  0
 26 20  1  0
  1 33  1  0
  1 34  1  0
  1 35  1  0
  3 36  1  0
  4 37  1  0
 14 38  1  0
 15 39  1  0
 21 40  1  0
 22 41  1  0
 25 42  1  0
 26 43  1  0
 27 44  1  0
 28 45  1  0
 30 46  1  0
 31 47  1  0
 32 48  1  0
M  CHG  2   7  -1  19  -1
M  END
>  <UniqueID>  (70) 
61

>  <SMILES>  (70) 
Cc1ccc(-n2[n-]nc(S(=O)(=O)c3ccc(C(=O)[N-]c4ccc(F)cc4)cc3)c2=N)cc1

>  <Energy>  (70) 
102.76440833681521

>  <Genealogy>  (70) 
Cc1ccc(-n2[n-]nc(S(=O)(=O)c3ccc(C(=O)[N-]c4ccc(F)cc4)cc3)c2=N)cc1 (protonated)
Cc1ccc(-n2[n-]nc(S(=O)(=O)c3ccc(C(=O)[N-]c4ccc(F)cc4)cc3)c2=N)cc1 (3D coordinates assigned)
Cc1ccc(-n2[n-]nc(S(=O)(=O)c3ccc(C(=O)[N-]c4ccc(F)cc4)cc3)c2=N)cc1 (optimized conformer: 102.76440833681521 kcal/mol)

>  <smiles>  (70) 
Cc1ccc(-n2[nH]nc(S(=O)(=O)c3ccc(C(=O)Nc4ccc(F)cc4)cc3)c2=N)cc1

>  <score_type>  (70) 
oracle

>  <origin>  (70) 
adg

>  <m_score__min__energy>  (70) 
-11.369999999999999

>  <m_primary>  (70) 
energy

$$$$
70:0
     RDKit          3D

 40 41  0  0  0  0  0  0  0  0999 V2000
   61.0970   26.7290   48.1960 C   0  0  0  0  0  0  0  0  0  0  0  0
   60.3090   26.2730   47.1010 O   0  0  0  0  0  0  0  0  0  0  0  0
   59.3900   27.0680   46.4010 C   0  0  0  0  0  0  0  0  0  0  0  0
   57.9980   26.9510   46.5870 C   0  0  0  0  0  0  0  0  0  0  0  0
   57.1210   27.7800   45.8830 C   0  0  0  0  0  0  0  0  0  0  0  0
   57.6180   28.7340   44.9860 C   0  0  0  0  0  0  0  0  0  0  0  0
   56.5270   29.8480   44.1680 S   0  0  0  0  0  0  0  0  0  0  0  0
   55.1010   29.4020   44.3360 O   0  0  0  0  0  0  0  0  0  0  0  0
   56.8520   29.8530   42.7010 O   0  0  0  0  0  0  0  0  0  0  0  0
   56.7210   31.4610   44.7970 N   0  0  0  0  0  0  0  0  0  0  0  0
   57.7690   31.5130   45.8210 C   0  0  0  0  0  0  0  0  0  0  0  0
   58.4250   32.8750   45.8910 C   0  0  0  0  0  0  0  0  0  0  0  0
   58.2140   33.8110   44.8620 C   0  0  0  0  0  0  0  0  0  0  0  0
   58.8790   35.0350   44.8750 C   0  0  0  0  0  0  0  0  0  0  0  0
   59.7360   35.3370   45.9310 C   0  0  0  0  0  0  0  0  0  0  0  0
   59.8860   34.4560   46.9540 N   0  0  0  0  0  0  0  0  0  0  0  0
   59.2460   33.2540   46.9810 C   0  0  0  0  0  0  0  0  0  0  0  0
   59.4100   32.4090   48.1320 N   0  0  0  0  0  0  0  0  0  0  0  0
   59.2500   32.9920   49.4670 C   0  0  0  0  0  0  0  0  0  0  0  0
   60.1480   31.1540   47.9950 C   0  0  0  0  0  0  0  0  0  0  0  0
   58.9990   28.8390   44.7850 C   0  0  0  0  0  0  0  0  0  0  0  0
   59.8800   28.0110   45.4890 C   0  0  0  0  0  0  0  0  0  0  0  0
   61.2160   28.1400   45.2980 F   0  0  0  0  0  0  0  0  0  0  0  0
   60.6097   26.4470   49.1410 H   0  0  0  0  0  0  0  0  0  0  0  0
   62.0949   26.2688   48.1464 H   0  0  0  0  0  0  0  0  0  0  0  0
   61.1952   27.8235   48.1464 H   0  0  0  0  0  0  0  0  0  0  0  0
   57.6002   26.2038   47.2895 H   0  0  0  0  0  0  0  0  0  0  0  0
   56.0357   27.6831   46.0338 H   0  0  0  0  0  0  0  0  0  0  0  0
   57.3215   31.2835   46.7993 H   0  0  0  0  0  0  0  0  0  0  0  0
   58.5416   30.7767   45.5547 H   0  0  0  0  0  0  0  0  0  0  0  0
   57.5197   33.5748   44.0422 H   0  0  0  0  0  0  0  0  0  0  0  0
   58.7287   35.7567   44.0586 H   0  0  0  0  0  0  0  0  0  0  0  0
   60.2902   36.2872   45.9364 H   0  0  0  0  0  0  0  0  0  0  0  0
   59.4600   32.2268   50.2288 H   0  0  0  0  0  0  0  0  0  0  0  0
   59.9511   33.8311   49.5871 H   0  0  0  0  0  0  0  0  0  0  0  0
   58.2188   33.3557   49.5871 H   0  0  0  0  0  0  0  0  0  0  0  0
   60.3823   30.7556   48.9932 H   0  0  0  0  0  0  0  0  0  0  0  0
   59.5342   30.4259   47.4444 H   0  0  0  0  0  0  0  0  0  0  0  0
   61.0826   31.3365   47.4444 H   0  0  0  0  0  0  0  0  0  0  0  0
   59.3936   29.5760   44.0701 H   0  0  0  0  0  0  0  0  0  0  0  0
  1  2  1  0
  2  3  1  0
  3  4  2  0
  4  5  1  0
  5  6  2  0
  6  7  1  0
  7  8  2  0
  7  9  2  0
  7 10  1  0
 10 11  1  0
 11 12  1  0
 12 13  2  0
 13 14  1  0
 14 15  2  0
 15 16  1  0
 16 17  2  0
 17 18  1  0
 18 19  1  0
 18 20  1  0
  6 21  1  0
 21 22  2  0
 22 23  1  0
 22  3  1  0
 17 12  1  0
  1 24  1  0
  1 25  1  0
  1 26  1  0
  4 27  1  0
  5 28  1  0
 11 29  1  0
 11 30  1  0
 13 31  1  0
 14 32  1  0
 15 33  1  0
 19 34  1  0
 19 35  1  0
 19 36  1  0
 20 37  1  0
 20 38  1  0
 20 39  1  0
 21 40  1  0
M  CHG  1  10  -1
M  END
>  <UniqueID>  (71) 
62

>  <SMILES>  (71) 
COc1ccc(S(=O)(=O)[N-]Cc2cccnc2N(C)C)cc1F

>  <Energy>  (71) 
40.308334758388554

>  <Genealogy>  (71) 
COc1ccc(S(=O)(=O)[N-]Cc2cccnc2N(C)C)cc1F (protonated)
COc1ccc(S(=O)(=O)[N-]Cc2cccnc2N(C)C)cc1F (3D coordinates assigned)
COc1ccc(S(=O)(=O)[N-]Cc2cccnc2N(C)C)cc1F (optimized conformer: 40.308334758388554 kcal/mol)

>  <smiles>  (71) 
COc1ccc(S(=O)(=O)NCc2cccnc2N(C)C)cc1F

>  <score_type>  (71) 
oracle

>  <origin>  (71) 
adg

>  <m_score__min__energy>  (71) 
-7.75

>  <m_primary>  (71) 
energy

$$$$
71:0
     RDKit          3D

 34 36  0  0  0  0  0  0  0  0999 V2000
   59.2920   35.1235   47.4997 H   0  0  0  0  0  0  0  0  0  0  0  0
   58.9000   34.4120   46.7580 C   0  0  0  0  0  0  0  0  0  0  0  0
   58.2370   33.2560   47.1810 C   0  0  0  0  0  0  0  0  0  0  0  0
   58.1036   33.0610   48.2553 H   0  0  0  0  0  0  0  0  0  0  0  0
   57.7430   32.3470   46.2390 C   0  0  0  0  0  0  0  0  0  0  0  0
   57.2157   31.4419   46.5749 H   0  0  0  0  0  0  0  0  0  0  0  0
   57.9180   32.5860   44.8660 C   0  0  0  0  0  0  0  0  0  0  0  0
   57.3520   31.6320   43.8520 C   0  0  0  0  0  0  0  0  0  0  0  0
   58.0646   31.5171   43.0220 H   0  0  0  0  0  0  0  0  0  0  0  0
   56.3996   32.0306   43.4725 H   0  0  0  0  0  0  0  0  0  0  0  0
   57.1100   30.3000   44.4850 C   0  0  0  0  0  0  0  0  0  0  0  0
   55.8770   29.8030   44.7280 N   0  0  0  0  0  0  0  0  0  0  0  0
   55.8960   28.5690   45.2280 N   0  0  0  0  0  0  0  0  0  0  0  0
   57.1490   28.0810   45.3710 C   0  0  0  0  0  0  0  0  0  0  0  0
   57.4190   26.8970   45.8240 N   0  0  0  0  0  0  0  0  0  0  0  0
   56.2140   25.6720   46.0500 S   0  0  0  0  0  0  0  0  0  0  0  0
   56.2740   25.1730   47.4660 O   0  0  0  0  0  0  0  0  0  0  0  0
   54.8570   26.2680   45.7960 O   0  0  0  0  0  0  0  0  0  0  0  0
   56.5120   24.3250   44.9550 C   0  0  0  0  0  0  0  0  0  0  0  0
   57.6550   23.5290   45.1170 C   0  0  0  0  0  0  0  0  0  0  0  0
   58.3624   23.7444   45.9314 H   0  0  0  0  0  0  0  0  0  0  0  0
   57.8980   22.4630   44.2470 C   0  0  0  0  0  0  0  0  0  0  0  0
   58.7966   21.8419   44.3765 H   0  0  0  0  0  0  0  0  0  0  0  0
   57.0000   22.1850   43.2120 C   0  0  0  0  0  0  0  0  0  0  0  0
   57.1943   21.3480   42.5252 H   0  0  0  0  0  0  0  0  0  0  0  0
   55.8550   22.9710   43.0500 C   0  0  0  0  0  0  0  0  0  0  0  0
   55.1464   22.7491   42.2384 H   0  0  0  0  0  0  0  0  0  0  0  0
   55.6100   24.0390   43.9190 C   0  0  0  0  0  0  0  0  0  0  0  0
   54.7085   24.6560   43.7901 H   0  0  0  0  0  0  0  0  0  0  0  0
   58.3160   29.1830   44.8700 S   0  0  0  0  0  0  0  0  0  0  0  0
   58.5730   33.7580   44.4480 C   0  0  0  0  0  0  0  0  0  0  0  0
   58.6988   33.9628   43.3746 H   0  0  0  0  0  0  0  0  0  0  0  0
   59.0650   34.6640   45.3930 C   0  0  0  0  0  0  0  0  0  0  0  0
   59.5826   35.5763   45.0616 H   0  0  0  0  0  0  0  0  0  0  0  0
  1  2  1  0
  2  3  2  0
  3  4  1  0
  3  5  1  0
  5  6  1  0
  5  7  2  0
  7  8  1  0
  8  9  1  0
  8 10  1  0
  8 11  1  0
 11 12  2  0
 12 13  1  0
 13 14  1  0
 14 15  2  0
 15 16  1  0
 16 17  2  0
 16 18  2  0
 16 19  1  0
 19 20  2  0
 20 21  1  0
 20 22  1  0
 22 23  1  0
 22 24  2  0
 24 25  1  0
 24 26  1  0
 26 27  1  0
 26 28  2  0
 28 29  1  0
 14 30  1  0
  7 31  1  0
 31 32  1  0
 31 33  2  0
 33 34  1  0
 33  2  1  0
 30 11  1  0
 28 19  1  0
M  CHG  1  13  -1
M  END
>  <UniqueID>  (72) 
63

>  <SMILES>  (72) 
O=S(=O)(/N=c1\[n-]nc(Cc2ccccc2)s1)c1ccccc1

>  <Energy>  (72) 
71.37370575687937

>  <Genealogy>  (72) 
O=S(=O)(N=c1[n-]nc(Cc2ccccc2)s1)c1ccccc1 (protonated)
O=S(=O)(/N=c1\[n-]nc(Cc2ccccc2)s1)c1ccccc1 (cis-trans isomerization)
O=S(=O)(/N=c1\[n-]nc(Cc2ccccc2)s1)c1ccccc1 (3D coordinates assigned)
O=S(=O)(/N=c1\[n-]nc(Cc2ccccc2)s1)c1ccccc1 (optimized conformer: 71.37370575687937 kcal/mol)

>  <smiles>  (72) 
O=S(=O)(N=c1[nH]nc(Cc2ccccc2)s1)c1ccccc1

>  <score_type>  (72) 
oracle

>  <origin>  (72) 
adg

>  <m_score__min__energy>  (72) 
-11.109999999999999

>  <m_primary>  (72) 
energy

$$$$
72:0
     RDKit          3D

 45 48  0  0  0  0  0  0  0  0999 V2000
   61.8500   33.7300   46.7590 C   0  0  0  0  0  0  0  0  0  0  0  0
   60.4220   33.8980   47.1850 C   0  0  0  0  0  0  0  0  0  0  0  0
   60.1750   34.6420   48.1720 O   0  0  0  0  0  0  0  0  0  0  0  0
   59.3050   33.2140   46.4780 C   0  0  0  0  0  0  0  0  0  0  0  0
   59.4300   31.8880   46.0180 C   0  0  0  0  0  0  0  0  0  0  0  0
   58.3690   31.2610   45.3600 C   0  0  0  0  0  0  0  0  0  0  0  0
   57.1550   31.9380   45.1640 C   0  0  0  0  0  0  0  0  0  0  0  0
   56.0420   31.3230   44.5000 N   0  0  0  0  0  0  0  0  0  0  0  0
   55.9070   29.9280   44.2000 C   0  0  0  0  0  0  0  0  0  0  0  0
   55.8250   29.5610   43.0000 O   0  0  0  0  0  0  0  0  0  0  0  0
   55.8210   28.9530   45.2420 N   0  0  0  0  0  0  0  0  0  0  0  0
   56.8860   27.9990   45.5580 C   0  0  1  0  0  0  0  0  0  0  0  0
   57.7700   27.7290   44.3100 C   0  0  0  0  0  0  0  0  0  0  0  0
   58.8670   26.6990   44.6590 C   0  0  2  0  0  0  0  0  0  0  0  0
   58.2070   25.3770   45.1070 C   0  0  0  0  0  0  0  0  0  0  0  0
   57.3310   25.6330   46.3530 C   0  0  1  0  0  0  0  0  0  0  0  0
   58.2110   26.1810   47.4970 C   0  0  0  0  0  0  0  0  0  0  0  0
   58.8710   27.5060   47.0520 C   0  0  1  0  0  0  0  0  0  0  0  0
   59.7450   27.2500   45.8040 C   0  0  0  0  0  0  0  0  0  0  0  0
   57.7750   28.5390   46.7100 C   0  0  0  0  0  0  0  0  0  0  0  0
   56.2360   26.6660   46.0070 C   0  0  0  0  0  0  0  0  0  0  0  0
   57.0350   33.2630   45.5910 C   0  0  0  0  0  0  0  0  0  0  0  0
   58.0940   33.8950   46.2490 C   0  0  0  0  0  0  0  0  0  0  0  0
   62.4917   33.6545   47.6492 H   0  0  0  0  0  0  0  0  0  0  0  0
   61.9479   32.8141   46.1577 H   0  0  0  0  0  0  0  0  0  0  0  0
   62.1578   34.5981   46.1577 H   0  0  0  0  0  0  0  0  0  0  0  0
   60.3712   31.3417   46.1784 H   0  0  0  0  0  0  0  0  0  0  0  0
   58.4856   30.2305   44.9933 H   0  0  0  0  0  0  0  0  0  0  0  0
   58.2411   28.6687   43.9859 H   0  0  0  0  0  0  0  0  0  0  0  0
   57.1422   27.3305   43.4994 H   0  0  0  0  0  0  0  0  0  0  0  0
   59.4928   26.5150   43.7733 H   0  0  0  0  0  0  0  0  0  0  0  0
   58.9881   24.6426   45.3530 H   0  0  0  0  0  0  0  0  0  0  0  0
   57.5792   24.9870   44.2923 H   0  0  0  0  0  0  0  0  0  0  0  0
   56.8607   24.6909   46.6712 H   0  0  0  0  0  0  0  0  0  0  0  0
   58.9924   25.4466   47.7421 H   0  0  0  0  0  0  0  0  0  0  0  0
   57.5866   26.3630   48.3841 H   0  0  0  0  0  0  0  0  0  0  0  0
   59.4987   27.8953   47.8671 H   0  0  0  0  0  0  0  0  0  0  0  0
   60.5279   26.5174   46.0497 H   0  0  0  0  0  0  0  0  0  0  0  0
   60.2104   28.1942   45.4847 H   0  0  0  0  0  0  0  0  0  0  0  0
   58.2468   29.4819   46.3962 H   0  0  0  0  0  0  0  0  0  0  0  0
   57.1512   28.7150   47.5988 H   0  0  0  0  0  0  0  0  0  0  0  0
   55.6099   26.2737   45.1921 H   0  0  0  0  0  0  0  0  0  0  0  0
   55.6180   26.8486   46.8985 H   0  0  0  0  0  0  0  0  0  0  0  0
   56.1001   33.8129   45.4080 H   0  0  0  0  0  0  0  0  0  0  0  0
   57.9803   34.9342   46.5912 H   0  0  0  0  0  0  0  0  0  0  0  0
  1  2  1  0
  2  3  2  0
  2  4  1  0
  4  5  2  0
  5  6  1  0
  6  7  2  0
  7  8  1  0
  8  9  1  0
  9 10  2  0
  9 11  1  0
 12 11  1  6
 12 13  1  0
 13 14  1  0
 14 15  1  0
 15 16  1  0
 16 17  1  0
 17 18  1  0
 18 19  1  0
 18 20  1  0
 16 21  1  0
  7 22  1  0
 22 23  2  0
 23  4  1  0
 20 12  1  0
 21 12  1  0
 19 14  1  0
  1 24  1  0
  1 25  1  0
  1 26  1  0
  5 27  1  0
  6 28  1  0
 13 29  1  0
 13 30  1  0
 14 31  1  6
 15 32  1  0
 15 33  1  0
 16 34  1  1
 17 35  1  0
 17 36  1  0
 18 37  1  1
 19 38  1  0
 19 39  1  0
 20 40  1  0
 20 41  1  0
 21 42  1  0
 21 43  1  0
 22 44  1  0
 23 45  1  0
M  CHG  2   8  -1  11  -1
M  END
>  <UniqueID>  (73) 
64

>  <SMILES>  (73) 
CC(=O)c1ccc([N-]C(=O)[N-]C23CC4CC(CC(C4)C2)C3)cc1

>  <Energy>  (73) 
53.71012604986295

>  <Genealogy>  (73) 
CC(=O)c1ccc([N-]C(=O)[N-]C23CC4CC(CC(C4)C2)C3)cc1 (protonated)
CC(=O)c1ccc([N-]C(=O)[N-]C23CC4CC(CC(C4)C2)C3)cc1 (3D coordinates assigned)
CC(=O)c1ccc([N-]C(=O)[N-]C23CC4CC(CC(C4)C2)C3)cc1 (nonaromatic ring conformer: 53.71012604986295 kcal/mol)

>  <smiles>  (73) 
CC(=O)c1ccc(NC(=O)NC23CC4CC(CC(C4)C2)C3)cc1

>  <score_type>  (73) 
oracle

>  <origin>  (73) 
adg

>  <m_score__min__energy>  (73) 
-11.210000000000001

>  <m_primary>  (73) 
energy

$$$$
73:0
     RDKit          3D

 49 52  0  0  0  0  0  0  0  0999 V2000
   54.6470   26.0790   45.8760 N   0  0  0  0  0  0  0  0  0  0  0  0
   55.9560   25.8190   46.3780 C   0  0  0  0  0  0  0  0  0  0  0  0
   56.1880   24.7020   46.9160 O   0  0  0  0  0  0  0  0  0  0  0  0
   57.0390   26.8350   46.2760 C   0  0  0  0  0  0  0  0  0  0  0  0
   56.8560   27.9570   45.4450 C   0  0  0  0  0  0  0  0  0  0  0  0
   57.8610   28.9280   45.2990 C   0  0  0  0  0  0  0  0  0  0  0  0
   57.6520   30.0580   44.3620 C   0  0  0  0  0  0  0  0  0  0  0  0
   57.0170   29.8510   43.1260 C   0  0  0  0  0  0  0  0  0  0  0  0
   56.8960   30.9010   42.2120 C   0  0  0  0  0  0  0  0  0  0  0  0
   57.4320   32.1570   42.5080 C   0  0  0  0  0  0  0  0  0  0  0  0
   58.0860   32.3710   43.7340 C   0  0  0  0  0  0  0  0  0  0  0  0
   58.7160   33.5840   44.0460 O   0  0  0  0  0  0  0  0  0  0  0  0
   58.1660   34.5950   44.8940 C   0  0  0  0  0  0  0  0  0  0  0  0
   57.8150   34.0530   46.2920 C   0  0  0  0  0  0  0  0  0  0  0  0
   59.0260   33.5020   47.0060 C   0  0  0  0  0  0  0  0  0  0  0  0
   58.8810   32.4810   47.9580 C   0  0  0  0  0  0  0  0  0  0  0  0
   60.0070   31.8820   48.5310 C   0  0  0  0  0  0  0  0  0  0  0  0
   61.2940   32.2870   48.1500 C   0  0  0  0  0  0  0  0  0  0  0  0
   62.4310   31.6640   48.6860 C   0  0  0  0  0  0  0  0  0  0  0  0
   63.7090   32.0610   48.2780 C   0  0  0  0  0  0  0  0  0  0  0  0
   63.8600   33.0840   47.3380 C   0  0  0  0  0  0  0  0  0  0  0  0
   62.7350   33.7190   46.8030 C   0  0  0  0  0  0  0  0  0  0  0  0
   61.4480   33.3260   47.2010 C   0  0  0  0  0  0  0  0  0  0  0  0
   60.3140   33.9360   46.6490 C   0  0  0  0  0  0  0  0  0  0  0  0
   58.1600   31.3310   44.6670 C   0  0  0  0  0  0  0  0  0  0  0  0
   59.0630   28.7890   46.0150 C   0  0  0  0  0  0  0  0  0  0  0  0
   60.0630   29.7570   45.9080 O   0  0  0  0  0  0  0  0  0  0  0  0
   59.2520   27.6820   46.8470 C   0  0  0  0  0  0  0  0  0  0  0  0
   58.2580   26.7090   46.9810 C   0  0  0  0  0  0  0  0  0  0  0  0
   58.5020   25.6240   47.8160 O   0  0  0  0  0  0  0  0  0  0  0  0
   53.9940   26.7180   46.3810 H   0  0  0  0  0  0  0  0  0  0  0  0
   55.9081   28.0756   44.8997 H   0  0  0  0  0  0  0  0  0  0  0  0
   56.6135   28.8585   42.8768 H   0  0  0  0  0  0  0  0  0  0  0  0
   56.3769   30.7382   41.2560 H   0  0  0  0  0  0  0  0  0  0  0  0
   57.3423   32.9783   41.7818 H   0  0  0  0  0  0  0  0  0  0  0  0
   58.9019   35.4054   45.0026 H   0  0  0  0  0  0  0  0  0  0  0  0
   57.2374   34.9576   44.4291 H   0  0  0  0  0  0  0  0  0  0  0  0
   57.3897   34.8702   46.8931 H   0  0  0  0  0  0  0  0  0  0  0  0
   57.0924   33.2331   46.1668 H   0  0  0  0  0  0  0  0  0  0  0  0
   57.8750   32.1499   48.2553 H   0  0  0  0  0  0  0  0  0  0  0  0
   59.8825   31.0897   49.2838 H   0  0  0  0  0  0  0  0  0  0  0  0
   62.3173   30.8611   49.4292 H   0  0  0  0  0  0  0  0  0  0  0  0
   64.5973   31.5666   48.6982 H   0  0  0  0  0  0  0  0  0  0  0  0
   64.8668   33.3906   47.0181 H   0  0  0  0  0  0  0  0  0  0  0  0
   62.8591   34.5284   46.0685 H   0  0  0  0  0  0  0  0  0  0  0  0
   60.4327   34.7607   45.9309 H   0  0  0  0  0  0  0  0  0  0  0  0
   58.6207   31.5124   45.6492 H   0  0  0  0  0  0  0  0  0  0  0  0
   61.0420   29.5250   46.0240 H   0  0  0  0  0  0  0  0  0  0  0  0
   60.1950   27.5753   47.4033 H   0  0  0  0  0  0  0  0  0  0  0  0
  1  2  1  0
  2  3  2  0
  2  4  1  0
  4  5  2  0
  5  6  1  0
  6  7  1  0
  7  8  2  0
  8  9  1  0
  9 10  2  0
 10 11  1  0
 11 12  1  0
 12 13  1  0
 13 14  1  0
 14 15  1  0
 15 16  2  0
 16 17  1  0
 17 18  2  0
 18 19  1  0
 19 20  2  0
 20 21  1  0
 21 22  2  0
 22 23  1  0
 23 24  2  0
 11 25  2  0
  6 26  2  0
 26 27  1  0
 26 28  1  0
 28 29  2  0
 29 30  1  0
 29  4  1  0
 25  7  1  0
 24 15  1  0
 23 18  1  0
  1 31  1  0
  5 32  1  0
  8 33  1  0
  9 34  1  0
 10 35  1  0
 13 36  1  0
 13 37  1  0
 14 38  1  0
 14 39  1  0
 16 40  1  0
 17 41  1  0
 19 42  1  0
 20 43  1  0
 21 44  1  0
 22 45  1  0
 24 46  1  0
 25 47  1  0
 27 48  1  0
 28 49  1  0
M  CHG  2   1  -1  30  -1
M  END
>  <UniqueID>  (74) 
65

>  <SMILES>  (74) 
[NH-]C(=O)c1cc(-c2cccc(OCCc3ccc4ccccc4c3)c2)c(O)cc1[O-]

>  <Energy>  (74) 
61.606017398761225

>  <Genealogy>  (74) 
[NH-]C(=O)c1cc(-c2cccc(OCCc3ccc4ccccc4c3)c2)c(O)cc1[O-] (protonated)
[NH-]C(=O)c1cc(-c2cccc(OCCc3ccc4ccccc4c3)c2)c(O)cc1[O-] (3D coordinates assigned)
[NH-]C(=O)c1cc(-c2cccc(OCCc3ccc4ccccc4c3)c2)c(O)cc1[O-] (optimized conformer: 61.606017398761225 kcal/mol)

>  <smiles>  (74) 
NC(=O)c1cc(-c2cccc(OCCc3ccc4ccccc4c3)c2)c(O)cc1O

>  <score_type>  (74) 
oracle

>  <origin>  (74) 
adg

>  <m_score__min__energy>  (74) 
-14.09

>  <m_primary>  (74) 
energy

$$$$
74:0
     RDKit          3D

 50 54  0  0  1  0  0  0  0  0999 V2000
   56.2170   22.3330   48.5730 C   0  0  0  0  0  0  0  0  0  0  0  0
   57.2990   22.9180   47.8520 O   0  0  0  0  0  0  0  0  0  0  0  0
   57.1010   24.1370   47.2140 C   0  0  0  0  0  0  0  0  0  0  0  0
   56.1540   24.2600   46.2270 C   0  0  0  0  0  0  0  0  0  0  0  0
   55.9920   25.4870   45.6200 C   0  0  0  0  0  0  0  0  0  0  0  0
   56.7670   26.5410   46.0070 C   0  0  0  0  0  0  0  0  0  0  0  0
   56.6140   27.7400   45.4220 N   0  0  0  0  0  0  0  0  0  0  0  0
   57.3850   28.8210   45.7960 C   0  0  0  0  0  0  0  0  0  0  0  0
   57.1470   29.8890   45.2230 N   0  0  0  0  0  0  0  0  0  0  0  0
   57.7570   31.1240   45.3140 C   0  0  0  0  0  0  0  0  0  0  0  0
   57.8010   31.8490   46.4800 N   0  0  0  0  0  0  0  0  0  0  0  0
   58.3740   33.0330   46.2900 C   0  0  0  0  0  0  0  0  0  0  0  0
   58.6140   34.0550   47.1900 C   0  0  0  0  0  0  0  0  0  0  0  0
   59.2320   35.2040   46.7470 C   0  0  0  0  0  0  0  0  0  0  0  0
   59.5840   35.2760   45.4150 C   0  0  0  0  0  0  0  0  0  0  0  0
   59.3400   34.2550   44.5310 C   0  0  0  0  0  0  0  0  0  0  0  0
   58.7170   33.0940   44.9690 C   0  0  0  0  0  0  0  0  0  0  0  0
   58.3390   31.9490   44.4190 N   0  0  0  0  0  0  0  0  0  0  0  0
   58.3240   28.7150   46.7620 C   0  0  0  0  0  0  0  0  0  0  0  0
   59.2460   29.6760   47.2100 N   0  0  0  0  0  0  0  0  0  0  0  0
   60.4450   30.0670   46.4480 C   0  0  0  0  0  0  0  0  0  0  0  0
   61.1570   31.1950   47.1350 C   0  0  0  0  0  0  0  0  0  0  0  0
   61.5890   30.7770   48.5280 C   0  0  0  0  0  0  0  0  0  0  0  0
   60.4860   30.0450   49.2780 C   0  0  0  0  0  0  0  0  0  0  0  0
   59.1620   30.3380   48.5250 C   0  0  0  0  0  0  0  0  0  0  0  0
   58.4680   27.4870   47.3530 N   0  0  0  0  0  0  0  0  0  0  0  0
   57.7290   26.4630   46.9920 C   0  0  0  0  0  0  0  0  0  0  0  0
   57.8780   25.2100   47.5960 C   0  0  0  0  0  0  0  0  0  0  0  0
   56.4001   22.4320   49.6531 H   0  0  0  0  0  0  0  0  0  0  0  0
   55.2809   22.8479   48.3111 H   0  0  0  0  0  0  0  0  0  0  0  0
   56.1352   21.2678   48.3111 H   0  0  0  0  0  0  0  0  0  0  0  0
   55.5386   23.3988   45.9276 H   0  0  0  0  0  0  0  0  0  0  0  0
   55.2409   25.6158   44.8268 H   0  0  0  0  0  0  0  0  0  0  0  0
   55.8930   27.8230   44.6760 H   0  0  0  0  0  0  0  0  0  0  0  0
   58.3160   33.9522   48.2439 H   0  0  0  0  0  0  0  0  0  0  0  0
   59.4383   36.0380   47.4340 H   0  0  0  0  0  0  0  0  0  0  0  0
   60.0793   36.1868   45.0474 H   0  0  0  0  0  0  0  0  0  0  0  0
   59.6376   34.3563   43.4769 H   0  0  0  0  0  0  0  0  0  0  0  0
   58.4630   31.6870   43.4140 H   0  0  0  0  0  0  0  0  0  0  0  0
   61.1228   29.2041   46.3710 H   0  0  0  0  0  0  0  0  0  0  0  0
   60.1379   30.3974   45.4447 H   0  0  0  0  0  0  0  0  0  0  0  0
   62.0448   31.4740   46.5485 H   0  0  0  0  0  0  0  0  0  0  0  0
   60.4728   32.0525   47.2157 H   0  0  0  0  0  0  0  0  0  0  0  0
   62.4611   30.1120   48.4435 H   0  0  0  0  0  0  0  0  0  0  0  0
   61.8330   31.6887   49.0930 H   0  0  0  0  0  0  0  0  0  0  0  0
   60.6862   28.9634   49.2852 H   0  0  0  0  0  0  0  0  0  0  0  0
   60.4286   30.3820   50.3235 H   0  0  0  0  0  0  0  0  0  0  0  0
   58.3097   29.9376   49.0936 H   0  0  0  0  0  0  0  0  0  0  0  0
   59.0152   31.4216   48.4054 H   0  0  0  0  0  0  0  0  0  0  0  0
   58.6282   25.0785   48.3896 H   0  0  0  0  0  0  0  0  0  0  0  0
  1  2  1  0
  2  3  1  0
  3  4  2  0
  4  5  1  0
  5  6  2  0
  6  7  1  0
  7  8  1  0
  8  9  2  0
  9 10  1  0
 10 11  2  0
 11 12  1  0
 12 13  2  0
 13 14  1  0
 14 15  2  0
 15 16  1  0
 16 17  2  0
 17 18  1  0
  8 19  1  0
 19 20  1  0
 20 21  1  0
 21 22  1  0
 22 23  1  0
 23 24  1  0
 24 25  1  0
 19 26  2  0
 26 27  1  0
 27 28  2  0
 28  3  1  0
 27  6  1  0
 18 10  1  0
 25 20  1  0
 17 12  1  0
  1 29  1  0
  1 30  1  0
  1 31  1  0
  4 32  1  0
  5 33  1  0
  7 34  1  0
 13 35  1  0
 14 36  1  0
 15 37  1  0
 16 38  1  0
 18 39  1  0
 21 40  1  0
 21 41  1  0
 22 42  1  0
 22 43  1  0
 23 44  1  0
 23 45  1  0
 24 46  1  0
 24 47  1  0
 25 48  1  0
 25 49  1  0
 28 50  1  0
M  END
>  <smiles>  (75) 
COc1ccc2[nH]c(=Nc3nc4ccccc4[nH]3)c(N3CCCCC3)nc2c1

>  <score_type>  (75) 
oracle

>  <origin>  (75) 
adg

>  <m_score__min__energy>  (75) 
-8

>  <m_primary>  (75) 
energy

$$$$
75:0
     RDKit          3D

 44 46  0  0  0  0  0  0  0  0999 V2000
   59.2510   35.4640   44.8660 C   0  0  0  0  0  0  0  0  0  0  0  0
   58.9750   34.0810   45.3800 C   0  0  0  0  0  0  0  0  0  0  0  0
   58.2820   33.1570   44.5820 C   0  0  0  0  0  0  0  0  0  0  0  0
   57.9790   31.8780   45.0720 C   0  0  0  0  0  0  0  0  0  0  0  0
   57.1020   30.7330   44.0560 S   0  0  0  0  0  0  0  0  0  0  0  0
   55.7940   30.4000   44.7160 O   0  0  0  0  0  0  0  0  0  0  0  0
   56.8290   31.3260   42.7020 O   0  0  0  0  0  0  0  0  0  0  0  0
   58.0220   29.2750   43.8520 N   0  0  0  0  0  0  0  0  0  0  0  0
   57.9050   28.1250   44.7080 C   0  0  0  0  0  0  0  0  0  0  0  0
   57.1330   28.1490   45.8840 C   0  0  0  0  0  0  0  0  0  0  0  0
   57.0460   27.0170   46.6990 C   0  0  0  0  0  0  0  0  0  0  0  0
   57.7280   25.8430   46.3580 C   0  0  0  0  0  0  0  0  0  0  0  0
   57.6250   24.7120   47.2330 N   0  0  0  0  0  0  0  0  0  0  0  0
   56.5910   23.3430   46.9840 S   0  0  0  0  0  0  0  0  0  0  0  0
   55.1900   23.7030   47.3860 O   0  0  0  0  0  0  0  0  0  0  0  0
   57.0600   22.2030   47.8450 O   0  0  0  0  0  0  0  0  0  0  0  0
   56.5960   22.8900   45.2820 C   0  0  0  0  0  0  0  0  0  0  0  0
   55.8340   23.6050   44.3470 C   0  0  0  0  0  0  0  0  0  0  0  0
   55.8550   23.2380   42.9980 C   0  0  0  0  0  0  0  0  0  0  0  0
   56.6310   22.1540   42.5780 C   0  0  0  0  0  0  0  0  0  0  0  0
   57.3890   21.4370   43.5080 C   0  0  0  0  0  0  0  0  0  0  0  0
   57.3730   21.8020   44.8570 C   0  0  0  0  0  0  0  0  0  0  0  0
   58.4880   25.8090   45.1760 C   0  0  0  0  0  0  0  0  0  0  0  0
   58.5710   26.9410   44.3600 C   0  0  0  0  0  0  0  0  0  0  0  0
   58.3790   31.5210   46.3680 C   0  0  0  0  0  0  0  0  0  0  0  0
   58.1110   30.2860   46.8610 F   0  0  0  0  0  0  0  0  0  0  0  0
   59.0580   32.4420   47.1710 C   0  0  0  0  0  0  0  0  0  0  0  0
   59.3470   33.7210   46.6860 C   0  0  0  0  0  0  0  0  0  0  0  0
   59.9900   34.6060   47.4880 F   0  0  0  0  0  0  0  0  0  0  0  0
   59.3879   36.1501   45.7148 H   0  0  0  0  0  0  0  0  0  0  0  0
   60.1644   35.4519   44.2532 H   0  0  0  0  0  0  0  0  0  0  0  0
   58.4029   35.8035   44.2532 H   0  0  0  0  0  0  0  0  0  0  0  0
   57.9741   33.4383   43.5641 H   0  0  0  0  0  0  0  0  0  0  0  0
   58.7480   29.2740   43.0990 H   0  0  0  0  0  0  0  0  0  0  0  0
   56.5937   29.0659   46.1641 H   0  0  0  0  0  0  0  0  0  0  0  0
   56.4374   27.0488   47.6148 H   0  0  0  0  0  0  0  0  0  0  0  0
   55.2189   24.4558   44.6752 H   0  0  0  0  0  0  0  0  0  0  0  0
   55.2597   23.8034   42.2659 H   0  0  0  0  0  0  0  0  0  0  0  0
   56.6451   21.8655   41.5166 H   0  0  0  0  0  0  0  0  0  0  0  0
   57.9994   20.5837   43.1775 H   0  0  0  0  0  0  0  0  0  0  0  0
   57.9704   21.2354   45.5865 H   0  0  0  0  0  0  0  0  0  0  0  0
   59.0192   24.8885   44.8922 H   0  0  0  0  0  0  0  0  0  0  0  0
   59.1651   26.9026   43.4350 H   0  0  0  0  0  0  0  0  0  0  0  0
   59.3661   32.1593   48.1884 H   0  0  0  0  0  0  0  0  0  0  0  0
  1  2  1  0
  2  3  2  0
  3  4  1  0
  4  5  1  0
  5  6  2  0
  5  7  2  0
  5  8  1  0
  8  9  1  0
  9 10  2  0
 10 11  1  0
 11 12  2  0
 12 13  1  0
 13 14  1  0
 14 15  2  0
 14 16  2  0
 14 17  1  0
 17 18  2  0
 18 19  1  0
 19 20  2  0
 20 21  1  0
 21 22  2  0
 12 23  1  0
 23 24  2  0
  4 25  2  0
 25 26  1  0
 25 27  1  0
 27 28  2  0
 28 29  1  0
 28  2  1  0
 24  9  1  0
 22 17  1  0
  1 30  1  0
  1 31  1  0
  1 32  1  0
  3 33  1  0
  8 34  1  0
 10 35  1  0
 11 36  1  0
 18 37  1  0
 19 38  1  0
 20 39  1  0
 21 40  1  0
 22 41  1  0
 23 42  1  0
 24 43  1  0
 27 44  1  0
M  CHG  1  13  -1
M  END
>  <UniqueID>  (76) 
66

>  <SMILES>  (76) 
Cc1cc(S(=O)(=O)Nc2ccc([N-]S(=O)(=O)c3ccccc3)cc2)c(F)cc1F

>  <Energy>  (76) 
52.88620947527096

>  <Genealogy>  (76) 
Cc1cc(S(=O)(=O)Nc2ccc([N-]S(=O)(=O)c3ccccc3)cc2)c(F)cc1F (protonated)
Cc1cc(S(=O)(=O)Nc2ccc([N-]S(=O)(=O)c3ccccc3)cc2)c(F)cc1F (3D coordinates assigned)
Cc1cc(S(=O)(=O)Nc2ccc([N-]S(=O)(=O)c3ccccc3)cc2)c(F)cc1F (optimized conformer: 52.88620947527096 kcal/mol)

>  <smiles>  (76) 
Cc1cc(S(=O)(=O)Nc2ccc(NS(=O)(=O)c3ccccc3)cc2)c(F)cc1F

>  <score_type>  (76) 
oracle

>  <origin>  (76) 
adg

>  <m_score__min__energy>  (76) 
-11.140000000000001

>  <m_primary>  (76) 
energy

$$$$
76:0
     RDKit          3D

 41 42  0  0  0  0  0  0  0  0999 V2000
   56.6440   30.4770   42.6520 C   0  0  0  0  0  0  0  0  0  0  0  0
   56.1680   30.0630   44.0420 C   0  0  0  0  0  0  0  0  0  0  0  0
   56.9930   30.6950   45.0960 N   0  0  0  0  0  0  0  0  0  0  0  0
   57.8250   29.7170   45.8320 C   0  0  0  0  0  0  0  0  0  0  0  0
   59.2920   29.6880   45.3780 C   0  0  0  0  0  0  0  0  0  0  0  0
   57.7660   31.8670   44.6160 C   0  0  0  0  0  0  0  0  0  0  0  0
   57.1000   33.1520   45.1220 C   0  0  0  0  0  0  0  0  0  0  0  0
   57.4430   33.4550   46.5900 C   0  0  0  0  0  0  0  0  0  0  0  0
   58.9040   33.4590   46.8160 N   0  0  0  0  0  0  0  0  0  0  0  0
   59.6840   34.4140   46.2070 C   0  0  0  0  0  0  0  0  0  0  0  0
   59.1580   35.3000   45.4790 O   0  0  0  0  0  0  0  0  0  0  0  0
   61.0320   34.4190   46.3810 N   0  0  0  0  0  0  0  0  0  0  0  0
   61.6500   33.4870   47.1540 C   0  0  0  0  0  0  0  0  0  0  0  0
   63.0440   33.5070   47.3180 C   0  0  0  0  0  0  0  0  0  0  0  0
   63.6720   32.5460   48.1130 C   0  0  0  0  0  0  0  0  0  0  0  0
   62.9160   31.5590   48.7490 C   0  0  0  0  0  0  0  0  0  0  0  0
   61.5270   31.5280   48.5930 C   0  0  0  0  0  0  0  0  0  0  0  0
   60.8840   32.4930   47.7940 C   0  0  0  0  0  0  0  0  0  0  0  0
   59.4910   32.5010   47.6060 C   0  0  0  0  0  0  0  0  0  0  0  0
   58.7840   31.6160   48.1650 O   0  0  0  0  0  0  0  0  0  0  0  0
   57.4709   31.1962   42.7467 H   0  0  0  0  0  0  0  0  0  0  0  0
   56.9915   29.5889   42.1038 H   0  0  0  0  0  0  0  0  0  0  0  0
   55.8126   30.9443   42.1038 H   0  0  0  0  0  0  0  0  0  0  0  0
   55.1206   30.3735   44.1707 H   0  0  0  0  0  0  0  0  0  0  0  0
   56.2605   28.9707   44.1329 H   0  0  0  0  0  0  0  0  0  0  0  0
   57.7976   29.9731   46.9014 H   0  0  0  0  0  0  0  0  0  0  0  0
   57.4058   28.7207   45.6278 H   0  0  0  0  0  0  0  0  0  0  0  0
   59.9487   29.6750   46.2604 H   0  0  0  0  0  0  0  0  0  0  0  0
   59.4712   28.7861   44.7742 H   0  0  0  0  0  0  0  0  0  0  0  0
   59.5067   30.5821   44.7742 H   0  0  0  0  0  0  0  0  0  0  0  0
   58.7955   31.8107   44.9993 H   0  0  0  0  0  0  0  0  0  0  0  0
   57.7873   31.8703   43.5162 H   0  0  0  0  0  0  0  0  0  0  0  0
   57.4388   33.9934   44.4998 H   0  0  0  0  0  0  0  0  0  0  0  0
   56.0109   33.0123   45.0555 H   0  0  0  0  0  0  0  0  0  0  0  0
   57.0377   34.4427   46.8551 H   0  0  0  0  0  0  0  0  0  0  0  0
   56.9992   32.6680   47.2174 H   0  0  0  0  0  0  0  0  0  0  0  0
   61.6000   35.1580   45.9040 H   0  0  0  0  0  0  0  0  0  0  0  0
   63.6436   34.2823   46.8186 H   0  0  0  0  0  0  0  0  0  0  0  0
   64.7646   32.5665   48.2386 H   0  0  0  0  0  0  0  0  0  0  0  0
   63.4147   30.8039   49.3744 H   0  0  0  0  0  0  0  0  0  0  0  0
   60.9354   30.7484   49.0953 H   0  0  0  0  0  0  0  0  0  0  0  0
  1  2  1  0
  2  3  1  0
  3  4  1  0
  4  5  1  0
  3  6  1  0
  6  7  1  0
  7  8  1  0
  8  9  1  0
  9 10  1  0
 10 11  2  0
 10 12  1  0
 12 13  1  0
 13 14  2  0
 14 15  1  0
 15 16  2  0
 16 17  1  0
 17 18  2  0
 18 19  1  0
 19 20  2  0
 19  9  1  0
 18 13  1  0
  1 21  1  0
  1 22  1  0
  1 23  1  0
  2 24  1  0
  2 25  1  0
  4 26  1  0
  4 27  1  0
  5 28  1  0
  5 29  1  0
  5 30  1  0
  6 31  1  0
  6 32  1  0
  7 33  1  0
  7 34  1  0
  8 35  1  0
  8 36  1  0
 12 37  1  0
 14 38  1  0
 15 39  1  0
 16 40  1  0
 17 41  1  0
M  END
>  <UniqueID>  (77) 
67

>  <SMILES>  (77) 
CCN(CC)CCCn1c(=O)[nH]c2ccccc2c1=O

>  <Energy>  (77) 
46.50011360501307

>  <Genealogy>  (77) 
CCN(CC)CCCn1c(=O)[nH]c2ccccc2c1=O (3D coordinates assigned)
CCN(CC)CCCn1c(=O)[nH]c2ccccc2c1=O (optimized conformer: 46.50011360501307 kcal/mol)

>  <smiles>  (77) 
CCN(CC)CCCn1c(=O)[nH]c2ccccc2c1=O

>  <score_type>  (77) 
oracle

>  <origin>  (77) 
adg

>  <m_score__min__energy>  (77) 
-6.7400000000000002

>  <m_primary>  (77) 
energy

$$$$
77:0
     RDKit          3D

 27 29  0  0  0  0  0  0  0  0999 V2000
   58.4260   30.6830   47.2630 O   0  0  0  0  0  0  0  0  0  0  0  0
   58.3370   31.4250   46.2430 C   0  0  0  0  0  0  0  0  0  0  0  0
   57.7870   30.9010   45.0590 C   0  0  0  0  0  0  0  0  0  0  0  0
   57.6550   31.7590   43.9510 C   0  0  0  0  0  0  0  0  0  0  0  0
   58.1030   33.0350   44.0370 N   0  0  0  0  0  0  0  0  0  0  0  0
   58.6480   33.5270   45.1770 C   0  0  0  0  0  0  0  0  0  0  0  0
   59.0840   34.8560   45.2020 C   0  0  0  0  0  0  0  0  0  0  0  0
   59.6430   35.3740   46.3680 C   0  0  0  0  0  0  0  0  0  0  0  0
   59.7610   34.5650   47.4930 C   0  0  0  0  0  0  0  0  0  0  0  0
   59.3190   33.2420   47.4420 C   0  0  0  0  0  0  0  0  0  0  0  0
   58.7700   32.7290   46.2920 N   0  0  0  0  0  0  0  0  0  0  0  0
   57.1210   31.2750   42.6270 C   0  0  0  0  0  0  0  0  0  0  0  0
   56.2800   30.0030   42.7650 C   0  0  0  0  0  0  0  0  0  0  0  0
   57.0250   28.9650   43.6030 C   0  0  0  0  0  0  0  0  0  0  0  0
   57.2460   29.4850   45.0260 C   0  0  0  0  0  0  0  0  0  0  0  0
   58.9861   35.4878   44.3069 H   0  0  0  0  0  0  0  0  0  0  0  0
   59.9893   36.4176   46.3988 H   0  0  0  0  0  0  0  0  0  0  0  0
   60.2005   34.9657   48.4184 H   0  0  0  0  0  0  0  0  0  0  0  0
   59.4113   32.6030   48.3326 H   0  0  0  0  0  0  0  0  0  0  0  0
   56.4951   32.0661   42.1883 H   0  0  0  0  0  0  0  0  0  0  0  0
   57.9823   31.0388   41.9848 H   0  0  0  0  0  0  0  0  0  0  0  0
   55.3267   30.2493   43.2554 H   0  0  0  0  0  0  0  0  0  0  0  0
   56.0916   29.5874   41.7641 H   0  0  0  0  0  0  0  0  0  0  0  0
   56.4323   28.0392   43.6436 H   0  0  0  0  0  0  0  0  0  0  0  0
   58.0031   28.7684   43.1396 H   0  0  0  0  0  0  0  0  0  0  0  0
   56.2849   29.4638   45.5607 H   0  0  0  0  0  0  0  0  0  0  0  0
   57.9940   28.8345   45.5029 H   0  0  0  0  0  0  0  0  0  0  0  0
  1  2  2  0
  2  3  1  0
  3  4  2  0
  4  5  1  0
  5  6  2  0
  6  7  1  0
  7  8  2  0
  8  9  1  0
  9 10  2  0
 10 11  1  0
  4 12  1  0
 12 13  1  0
 13 14  1  0
 14 15  1  0
 11  2  1  0
 15  3  1  0
 11  6  1  0
  7 16  1  0
  8 17  1  0
  9 18  1  0
 10 19  1  0
 12 20  1  0
 12 21  1  0
 13 22  1  0
 13 23  1  0
 14 24  1  0
 14 25  1  0
 15 26  1  0
 15 27  1  0
M  END
>  <UniqueID>  (78) 
68

>  <SMILES>  (78) 
O=c1c2c(nc3ccccn13)CCCC2

>  <Energy>  (78) 
34.05332099595726

>  <Genealogy>  (78) 
O=c1c2c(nc3ccccn13)CCCC2 (3D coordinates assigned)
O=c1c2c(nc3ccccn13)CCCC2 (nonaromatic ring conformer: 34.05332099595726 kcal/mol)

>  <smiles>  (78) 
O=c1c2c(nc3ccccn13)CCCC2

>  <score_type>  (78) 
oracle

>  <origin>  (78) 
adg

>  <m_score__min__energy>  (78) 
-6.29

>  <m_primary>  (78) 
energy

$$$$
78:0
     RDKit          3D

 50 52  0  0  0  0  0  0  0  0999 V2000
   56.6070   22.0520   42.6850 C   0  0  0  0  0  0  0  0  0  0  0  0
   57.3900   21.1750   43.6560 C   0  0  0  0  0  0  0  0  0  0  0  0
   56.7400   21.1230   44.9250 O   0  0  0  0  0  0  0  0  0  0  0  0
   57.0690   21.9600   45.9980 C   0  0  0  0  0  0  0  0  0  0  0  0
   57.3750   21.4640   47.1160 O   0  0  0  0  0  0  0  0  0  0  0  0
   57.0670   23.4270   45.8150 C   0  0  0  0  0  0  0  0  0  0  0  0
   55.9170   24.1770   46.1120 C   0  0  0  0  0  0  0  0  0  0  0  0
   55.9100   25.5650   45.9400 C   0  0  0  0  0  0  0  0  0  0  0  0
   57.0620   26.2340   45.4910 C   0  0  0  0  0  0  0  0  0  0  0  0
   57.0820   27.6550   45.2730 N   0  0  0  0  0  0  0  0  0  0  0  0
   57.8200   28.6030   46.0700 C   0  0  0  0  0  0  0  0  0  0  0  0
   58.4600   28.2260   47.0900 O   0  0  0  0  0  0  0  0  0  0  0  0
   57.8430   30.0380   45.7030 C   0  0  0  0  0  0  0  0  0  0  0  0
   58.8650   30.8660   46.1820 C   0  0  0  0  0  0  0  0  0  0  0  0
   58.9080   32.2050   45.8800 N   0  0  0  0  0  0  0  0  0  0  0  0
   59.9930   33.0110   46.5020 C   0  0  0  0  0  0  0  0  0  0  0  0
   59.4520   34.0930   47.4790 C   0  0  0  0  0  0  0  0  0  0  0  0
   60.1860   34.1030   48.8280 C   0  0  0  0  0  0  0  0  0  0  0  0
   61.7060   34.1010   48.6330 C   0  0  0  0  0  0  0  0  0  0  0  0
   62.2150   32.9450   47.7410 C   0  0  0  0  0  0  0  0  0  0  0  0
   61.0930   32.1100   47.1070 C   0  0  0  0  0  0  0  0  0  0  0  0
   57.9230   32.7290   45.0600 C   0  0  0  0  0  0  0  0  0  0  0  0
   57.8710   34.3090   44.6130 S   0  0  0  0  0  0  0  0  0  0  0  0
   56.9450   31.9260   44.5690 N   0  0  0  0  0  0  0  0  0  0  0  0
   56.8790   30.6070   44.8630 C   0  0  0  0  0  0  0  0  0  0  0  0
   55.9600   29.9070   44.3560 O   0  0  0  0  0  0  0  0  0  0  0  0
   58.2000   25.4800   45.1710 C   0  0  0  0  0  0  0  0  0  0  0  0
   58.2080   24.0930   45.3350 C   0  0  0  0  0  0  0  0  0  0  0  0
   55.9789   22.7555   43.2511 H   0  0  0  0  0  0  0  0  0  0  0  0
   57.3086   22.6147   42.0517 H   0  0  0  0  0  0  0  0  0  0  0  0
   55.9687   21.4184   42.0517 H   0  0  0  0  0  0  0  0  0  0  0  0
   57.4623   20.1571   43.2454 H   0  0  0  0  0  0  0  0  0  0  0  0
   58.3937   21.6046   43.7901 H   0  0  0  0  0  0  0  0  0  0  0  0
   55.0148   23.6686   46.4828 H   0  0  0  0  0  0  0  0  0  0  0  0
   54.9963   26.1374   46.1577 H   0  0  0  0  0  0  0  0  0  0  0  0
   56.5730   28.0140   44.4350 H   0  0  0  0  0  0  0  0  0  0  0  0
   59.6531   30.4335   46.8159 H   0  0  0  0  0  0  0  0  0  0  0  0
   60.4804   33.5834   45.6990 H   0  0  0  0  0  0  0  0  0  0  0  0
   59.5693   35.0804   47.0086 H   0  0  0  0  0  0  0  0  0  0  0  0
   58.3965   33.8572   47.6800 H   0  0  0  0  0  0  0  0  0  0  0  0
   59.8973   35.0055   49.3867 H   0  0  0  0  0  0  0  0  0  0  0  0
   59.9053   33.1960   49.3835 H   0  0  0  0  0  0  0  0  0  0  0  0
   61.9980   35.0538   48.1673 H   0  0  0  0  0  0  0  0  0  0  0  0
   62.1581   33.9645   49.6265 H   0  0  0  0  0  0  0  0  0  0  0  0
   62.8267   33.3737   46.9335 H   0  0  0  0  0  0  0  0  0  0  0  0
   62.7893   32.2684   48.3909 H   0  0  0  0  0  0  0  0  0  0  0  0
   61.5200   31.4827   46.3107 H   0  0  0  0  0  0  0  0  0  0  0  0
   60.6382   31.4881   47.8921 H   0  0  0  0  0  0  0  0  0  0  0  0
   59.0972   25.9869   44.7862 H   0  0  0  0  0  0  0  0  0  0  0  0
   59.1126   23.5184   45.0870 H   0  0  0  0  0  0  0  0  0  0  0  0
  1  2  1  0
  2  3  1  0
  3  4  1  0
  4  5  2  0
  4  6  1  0
  6  7  2  0
  7  8  1  0
  8  9  2  0
  9 10  1  0
 10 11  1  0
 11 12  2  0
 11 13  1  0
 13 14  2  0
 14 15  1  0
 15 16  1  0
 16 17  1  0
 17 18  1  0
 18 19  1  0
 19 20  1  0
 20 21  1  0
 15 22  1  0
 22 23  2  0
 22 24  1  0
 24 25  1  0
 25 26  2  0
  9 27  1  0
 27 28  2  0
 28  6  1  0
 25 13  1  0
 21 16  1  0
  1 29  1  0
  1 30  1  0
  1 31  1  0
  2 32  1  0
  2 33  1  0
  7 34  1  0
  8 35  1  0
 10 36  1  0
 14 37  1  0
 16 38  1  0
 17 39  1  0
 17 40  1  0
 18 41  1  0
 18 42  1  0
 19 43  1  0
 19 44  1  0
 20 45  1  0
 20 46  1  0
 21 47  1  0
 21 48  1  0
 27 49  1  0
 28 50  1  0
M  CHG  1  24  -1
M  END
>  <UniqueID>  (79) 
69

>  <SMILES>  (79) 
CCOC(=O)c1ccc(NC(=O)c2cn(C3CCCCC3)c(=S)[n-]c2=O)cc1

>  <Energy>  (79) 
69.38991301627532

>  <Genealogy>  (79) 
CCOC(=O)c1ccc(NC(=O)c2cn(C3CCCCC3)c(=S)[n-]c2=O)cc1 (protonated)
CCOC(=O)c1ccc(NC(=O)c2cn(C3CCCCC3)c(=S)[n-]c2=O)cc1 (3D coordinates assigned)
CCOC(=O)c1ccc(NC(=O)c2cn(C3CCCCC3)c(=S)[n-]c2=O)cc1 (nonaromatic ring conformer: 69.38991301627532 kcal/mol)

>  <smiles>  (79) 
CCOC(=O)c1ccc(NC(=O)c2cn(C3CCCCC3)c(=S)[nH]c2=O)cc1

>  <score_type>  (79) 
oracle

>  <origin>  (79) 
adg

>  <m_score__min__energy>  (79) 
-9.6999999999999993

>  <m_primary>  (79) 
energy

$$$$
79:0
     RDKit          3D

 47 50  0  0  1  0  0  0  0  0999 V2000
   57.3380   22.4740   43.7450 C   0  0  0  0  0  0  0  0  0  0  0  0
   56.3150   23.3470   44.3420 C   0  0  0  0  0  0  0  0  0  0  0  0
   54.9830   23.1410   44.3790 N   0  0  0  0  0  0  0  0  0  0  0  0
   54.3820   24.1380   44.9960 N   0  0  0  0  0  0  0  0  0  0  0  0
   55.3620   24.9860   45.3520 C   0  0  0  0  0  0  0  0  0  0  0  0
   55.1240   26.0730   45.9780 O   0  0  0  0  0  0  0  0  0  0  0  0
   56.5580   24.5160   44.9590 N   0  0  0  0  0  0  0  0  0  0  0  0
   57.7530   25.1850   45.1920 N   0  0  0  0  0  0  0  0  0  0  0  0
   58.1690   26.1790   44.5210 C   0  0  0  0  0  0  0  0  0  0  0  0
   58.4950   27.4450   45.1920 C   0  0  0  0  0  0  0  0  0  0  0  0
   58.4800   27.4920   46.5700 C   0  0  0  0  0  0  0  0  0  0  0  0
   58.7910   28.6980   47.1700 C   0  0  0  0  0  0  0  0  0  0  0  0
   59.1090   29.8270   46.4120 C   0  0  0  0  0  0  0  0  0  0  0  0
   59.4140   31.0120   47.0720 O   0  0  0  0  0  0  0  0  0  0  0  0
   59.0050   32.2000   46.4470 C   0  0  0  0  0  0  0  0  0  0  0  0
   57.7620   32.2990   45.8540 C   0  0  0  0  0  0  0  0  0  0  0  0
   57.3450   33.4760   45.2310 C   0  0  0  0  0  0  0  0  0  0  0  0
   58.1930   34.5850   45.2000 C   0  0  0  0  0  0  0  0  0  0  0  0
   59.4350   34.4810   45.7950 C   0  0  0  0  0  0  0  0  0  0  0  0
   59.8280   33.3080   46.4050 C   0  0  0  0  0  0  0  0  0  0  0  0
   61.1600   33.2350   47.0290 C   0  0  0  0  0  0  0  0  0  0  0  0
   62.2720   33.7290   46.3700 C   0  0  0  0  0  0  0  0  0  0  0  0
   63.5060   33.6350   47.0060 C   0  0  0  0  0  0  0  0  0  0  0  0
   63.6320   33.0650   48.2650 C   0  0  0  0  0  0  0  0  0  0  0  0
   64.8670   32.9740   48.8950 O   0  0  0  0  0  0  0  0  0  0  0  0
   62.5040   32.5720   48.9200 C   0  0  0  0  0  0  0  0  0  0  0  0
   61.2640   32.6620   48.2890 C   0  0  0  0  0  0  0  0  0  0  0  0
   59.1230   29.7780   45.0340 C   0  0  0  0  0  0  0  0  0  0  0  0
   58.8100   28.5630   44.4510 C   0  0  0  0  0  0  0  0  0  0  0  0
   57.9130   21.9833   44.5441 H   0  0  0  0  0  0  0  0  0  0  0  0
   56.8499   21.7098   43.1223 H   0  0  0  0  0  0  0  0  0  0  0  0
   58.0159   23.0762   43.1223 H   0  0  0  0  0  0  0  0  0  0  0  0
   53.3600   24.2630   45.1800 H   0  0  0  0  0  0  0  0  0  0  0  0
   58.2862   26.0921   43.4307 H   0  0  0  0  0  0  0  0  0  0  0  0
   58.2301   26.6039   47.1690 H   0  0  0  0  0  0  0  0  0  0  0  0
   58.7879   28.7699   48.2676 H   0  0  0  0  0  0  0  0  0  0  0  0
   57.0860   31.4315   45.8731 H   0  0  0  0  0  0  0  0  0  0  0  0
   56.3500   33.5301   44.7651 H   0  0  0  0  0  0  0  0  0  0  0  0
   57.8790   35.5199   44.7129 H   0  0  0  0  0  0  0  0  0  0  0  0
   60.1182   35.3430   45.7823 H   0  0  0  0  0  0  0  0  0  0  0  0
   62.1830   34.1830   45.3720 H   0  0  0  0  0  0  0  0  0  0  0  0
   64.4025   34.0215   46.4991 H   0  0  0  0  0  0  0  0  0  0  0  0
   65.6940   32.8400   48.3350 H   0  0  0  0  0  0  0  0  0  0  0  0
   62.5911   32.1193   49.9187 H   0  0  0  0  0  0  0  0  0  0  0  0
   60.3644   32.2773   48.7917 H   0  0  0  0  0  0  0  0  0  0  0  0
   59.3709   30.6618   44.4279 H   0  0  0  0  0  0  0  0  0  0  0  0
   58.8127   28.4866   43.3537 H   0  0  0  0  0  0  0  0  0  0  0  0
  1  2  1  0
  2  3  2  0
  3  4  1  0
  4  5  1  0
  5  6  2  0
  5  7  1  0
  7  8  1  0
  8  9  2  0
  9 10  1  0
 10 11  2  0
 11 12  1  0
 12 13  2  0
 13 14  1  0
 14 15  1  0
 15 16  2  0
 16 17  1  0
 17 18  2  0
 18 19  1  0
 19 20  2  0
 20 21  1  0
 21 22  2  0
 22 23  1  0
 23 24  2  0
 24 25  1  0
 24 26  1  0
 26 27  2  0
 13 28  1  0
 28 29  2  0
  7  2  1  0
 29 10  1  0
 20 15  1  0
 27 21  1  0
  1 30  1  0
  1 31  1  0
  1 32  1  0
  4 33  1  0
  9 34  1  0
 11 35  1  0
 12 36  1  0
 16 37  1  0
 17 38  1  0
 18 39  1  0
 19 40  1  0
 22 41  1  0
 23 42  1  0
 25 43  1  0
 26 44  1  0
 27 45  1  0
 28 46  1  0
 29 47  1  0
M  END
>  <smiles>  (80) 
Cc1n[nH]c(=O)n1N=Cc1ccc(Oc2ccccc2-c2ccc(O)cc2)cc1

>  <score_type>  (80) 
oracle

>  <origin>  (80) 
adg

>  <m_score__min__energy>  (80) 
-9.5099999999999998

>  <m_primary>  (80) 
energy

$$$$
80:0
     RDKit          3D

 49 51  0  0  1  0  0  0  0  0999 V2000
   51.6540   23.9310   44.2930 C   0  0  0  0  0  0  0  0  0  0  0  0
   53.1180   23.7920   44.5450 C   0  0  0  0  0  0  0  0  0  0  0  0
   53.6540   24.0960   45.7790 C   0  0  0  0  0  0  0  0  0  0  0  0
   55.0040   23.9460   45.9420 C   0  0  0  0  0  0  0  0  0  0  0  0
   55.5760   24.2040   47.0460 N   0  0  0  0  0  0  0  0  0  0  0  0
   57.2540   24.5250   47.1310 S   0  0  0  0  0  0  0  0  0  0  0  0
   57.7210   24.8360   48.5270 O   0  0  0  0  0  0  0  0  0  0  0  0
   58.0870   23.3940   46.5560 O   0  0  0  0  0  0  0  0  0  0  0  0
   57.5980   25.9370   46.1600 C   0  0  0  0  0  0  0  0  0  0  0  0
   56.7970   27.0490   46.2810 C   0  0  0  0  0  0  0  0  0  0  0  0
   57.0300   28.1800   45.5390 C   0  0  0  0  0  0  0  0  0  0  0  0
   58.0900   28.2740   44.6170 C   0  0  0  0  0  0  0  0  0  0  0  0
   58.2500   29.4810   43.8960 N   0  0  0  0  0  0  0  0  0  0  0  0
   57.5720   30.6900   44.0740 C   0  0  0  0  0  0  0  0  0  0  0  0
   56.6740   30.6650   44.9860 O   0  0  0  0  0  0  0  0  0  0  0  0
   57.6980   31.9640   43.4350 C   0  0  0  0  0  0  0  0  0  0  0  0
   58.1690   33.0900   43.8070 C   0  0  0  0  0  0  0  0  0  0  0  0
   58.6600   33.4960   45.1000 C   0  0  0  0  0  0  0  0  0  0  0  0
   59.2470   34.7370   45.1830 C   0  0  0  0  0  0  0  0  0  0  0  0
   59.6040   35.1950   46.4180 C   0  0  0  0  0  0  0  0  0  0  0  0
   59.4250   34.5200   47.5950 C   0  0  0  0  0  0  0  0  0  0  0  0
   58.8360   33.2780   47.5230 C   0  0  0  0  0  0  0  0  0  0  0  0
   58.5630   32.3340   48.9760 Cl  0  0  0  0  0  0  0  0  0  0  0  0
   58.4790   32.8180   46.2830 C   0  0  0  0  0  0  0  0  0  0  0  0
   58.8720   27.1550   44.5150 C   0  0  0  0  0  0  0  0  0  0  0  0
   58.6380   26.0080   45.2660 C   0  0  0  0  0  0  0  0  0  0  0  0
   55.7710   23.5130   44.9180 N   0  0  0  0  0  0  0  0  0  0  0  0
   55.2490   23.2160   43.7130 C   0  0  0  0  0  0  0  0  0  0  0  0
   56.1520   22.7430   42.6250 C   0  0  0  0  0  0  0  0  0  0  0  0
   53.9220   23.3610   43.5470 N   0  0  0  0  0  0  0  0  0  0  0  0
   51.1198   23.9817   45.2533 H   0  0  0  0  0  0  0  0  0  0  0  0
   51.4663   24.8510   43.7200 H   0  0  0  0  0  0  0  0  0  0  0  0
   51.2965   23.0628   43.7200 H   0  0  0  0  0  0  0  0  0  0  0  0
   53.0173   24.4473   46.6044 H   0  0  0  0  0  0  0  0  0  0  0  0
   55.9531   27.0314   46.9864 H   0  0  0  0  0  0  0  0  0  0  0  0
   56.3636   29.0454   45.6696 H   0  0  0  0  0  0  0  0  0  0  0  0
   58.9160   29.4290   43.0950 H   0  0  0  0  0  0  0  0  0  0  0  0
   57.3066   31.9750   42.4071 H   0  0  0  0  0  0  0  0  0  0  0  0
   58.2057   33.8644   43.0266 H   0  0  0  0  0  0  0  0  0  0  0  0
   59.4234   35.3420   44.2814 H   0  0  0  0  0  0  0  0  0  0  0  0
   60.0741   36.1880   46.4718 H   0  0  0  0  0  0  0  0  0  0  0  0
   59.7383   34.9514   48.5571 H   0  0  0  0  0  0  0  0  0  0  0  0
   58.0090   31.8249   46.2290 H   0  0  0  0  0  0  0  0  0  0  0  0
   59.7180   27.1633   43.8120 H   0  0  0  0  0  0  0  0  0  0  0  0
   59.3004   25.1387   45.1411 H   0  0  0  0  0  0  0  0  0  0  0  0
   56.8100   23.3930   45.0310 H   0  0  0  0  0  0  0  0  0  0  0  0
   57.0445   22.2755   43.0665 H   0  0  0  0  0  0  0  0  0  0  0  0
   55.6221   22.0067   42.0029 H   0  0  0  0  0  0  0  0  0  0  0  0
   56.4556   23.5979   42.0029 H   0  0  0  0  0  0  0  0  0  0  0  0
  1  2  1  0
  2  3  2  0
  3  4  1  0
  4  5  2  0
  5  6  1  0
  6  7  2  0
  6  8  2  0
  6  9  1  0
  9 10  2  0
 10 11  1  0
 11 12  2  0
 12 13  1  0
 13 14  1  0
 14 15  2  0
 14 16  1  0
 16 17  2  0
 17 18  1  0
 18 19  2  0
 19 20  1  0
 20 21  2  0
 21 22  1  0
 22 23  1  0
 22 24  2  0
 12 25  1  0
 25 26  2  0
  4 27  1  0
 27 28  1  0
 28 29  1  0
 28 30  2  0
 30  2  1  0
 26  9  1  0
 24 18  1  0
  1 31  1  0
  1 32  1  0
  1 33  1  0
  3 34  1  0
 10 35  1  0
 11 36  1  0
 13 37  1  0
 16 38  1  0
 17 39  1  0
 19 40  1  0
 20 41  1  0
 21 42  1  0
 24 43  1  0
 25 44  1  0
 26 45  1  0
 27 46  1  0
 29 47  1  0
 29 48  1  0
 29 49  1  0
M  END
>  <smiles>  (81) 
Cc1cc(=NS(=O)(=O)c2ccc(NC(=O)C=Cc3cccc(Cl)c3)cc2)[nH]c(C)n1

>  <score_type>  (81) 
oracle

>  <origin>  (81) 
adg

>  <m_score__min__energy>  (81) 
-10.09

>  <m_primary>  (81) 
energy

$$$$
81:0
     RDKit          3D

 52 55  0  0  0  0  0  0  0  0999 V2000
   57.4890   31.9720   42.1040 C   0  0  0  0  0  0  0  0  0  0  0  0
   57.7460   32.2030   43.5620 C   0  0  0  0  0  0  0  0  0  0  0  0
   58.5330   33.2680   44.0320 C   0  0  0  0  0  0  0  0  0  0  0  0
   58.6510   33.2970   45.4150 C   0  0  0  0  0  0  0  0  0  0  0  0
   59.5030   34.2400   46.2070 C   0  0  0  0  0  0  0  0  0  0  0  0
   59.8930   33.5990   47.5050 C   0  0  0  0  0  0  0  0  0  0  0  0
   58.7940   33.0390   48.6500 S   0  0  0  0  0  0  0  0  0  0  0  0
   59.9880   32.2910   49.5790 C   0  0  0  0  0  0  0  0  0  0  0  0
   59.7970   31.5760   50.6480 N   0  0  0  0  0  0  0  0  0  0  0  0
   59.2240   30.2610   50.7150 C   0  0  0  0  0  0  0  0  0  0  0  0
   57.9920   30.0930   50.9210 O   0  0  0  0  0  0  0  0  0  0  0  0
   60.1020   29.0700   50.5020 C   0  0  0  0  0  0  0  0  0  0  0  0
   60.1440   28.7270   49.0380 C   0  0  0  0  0  0  0  0  0  0  0  0
   60.3840   27.4040   48.6280 C   0  0  0  0  0  0  0  0  0  0  0  0
   60.3760   27.0770   47.2680 C   0  0  0  0  0  0  0  0  0  0  0  0
   60.1220   28.0630   46.3110 C   0  0  0  0  0  0  0  0  0  0  0  0
   59.8670   29.3770   46.7120 C   0  0  0  0  0  0  0  0  0  0  0  0
   59.8720   29.7090   48.0710 C   0  0  0  0  0  0  0  0  0  0  0  0
   61.2110   32.4400   49.0290 N   0  0  0  0  0  0  0  0  0  0  0  0
   61.1700   33.1670   47.8790 C   0  0  0  0  0  0  0  0  0  0  0  0
   62.4000   33.3980   47.0600 C   0  0  0  0  0  0  0  0  0  0  0  0
   57.7860   32.0090   46.0590 S   0  0  0  0  0  0  0  0  0  0  0  0
   57.2530   31.3860   44.5870 C   0  0  0  0  0  0  0  0  0  0  0  0
   56.4040   30.1850   44.4410 C   0  0  0  0  0  0  0  0  0  0  0  0
   55.1600   30.3250   44.2970 O   0  0  0  0  0  0  0  0  0  0  0  0
   56.9790   28.8190   44.4780 C   0  0  0  0  0  0  0  0  0  0  0  0
   56.7900   28.0060   45.6110 C   0  0  0  0  0  0  0  0  0  0  0  0
   57.3240   26.7140   45.6490 C   0  0  0  0  0  0  0  0  0  0  0  0
   58.0390   26.2170   44.5560 C   0  0  0  0  0  0  0  0  0  0  0  0
   58.2150   27.0090   43.4190 C   0  0  0  0  0  0  0  0  0  0  0  0
   57.6850   28.3020   43.3760 C   0  0  0  0  0  0  0  0  0  0  0  0
   56.6756   31.2409   41.9864 H   0  0  0  0  0  0  0  0  0  0  0  0
   57.2010   32.9207   41.6276 H   0  0  0  0  0  0  0  0  0  0  0  0
   58.4018   31.5848   41.6276 H   0  0  0  0  0  0  0  0  0  0  0  0
   59.0087   34.0060   43.3694 H   0  0  0  0  0  0  0  0  0  0  0  0
   60.4090   34.4844   45.6330 H   0  0  0  0  0  0  0  0  0  0  0  0
   58.9358   35.1602   46.4108 H   0  0  0  0  0  0  0  0  0  0  0  0
   61.1191   29.2979   50.8536 H   0  0  0  0  0  0  0  0  0  0  0  0
   59.6996   28.2151   51.0652 H   0  0  0  0  0  0  0  0  0  0  0  0
   60.5786   26.6238   49.3786 H   0  0  0  0  0  0  0  0  0  0  0  0
   60.5700   26.0416   46.9512 H   0  0  0  0  0  0  0  0  0  0  0  0
   60.1228   27.8047   45.2418 H   0  0  0  0  0  0  0  0  0  0  0  0
   59.6621   30.1514   45.9581 H   0  0  0  0  0  0  0  0  0  0  0  0
   59.6622   30.7426   48.3835 H   0  0  0  0  0  0  0  0  0  0  0  0
   63.2597   33.5594   47.7270 H   0  0  0  0  0  0  0  0  0  0  0  0
   62.5883   32.5195   46.4253 H   0  0  0  0  0  0  0  0  0  0  0  0
   62.2567   34.2849   46.4253 H   0  0  0  0  0  0  0  0  0  0  0  0
   56.2198   28.3884   46.4704 H   0  0  0  0  0  0  0  0  0  0  0  0
   57.1808   26.0873   46.5416 H   0  0  0  0  0  0  0  0  0  0  0  0
   58.4630   25.2026   44.5910 H   0  0  0  0  0  0  0  0  0  0  0  0
   58.7715   26.6147   42.5560 H   0  0  0  0  0  0  0  0  0  0  0  0
   57.8207   28.9188   42.4754 H   0  0  0  0  0  0  0  0  0  0  0  0
  1  2  1  0
  2  3  1  0
  3  4  2  0
  4  5  1  0
  5  6  1  0
  6  7  1  0
  7  8  1  0
  8  9  2  3
  9 10  1  0
 10 11  2  0
 10 12  1  0
 12 13  1  0
 13 14  2  0
 14 15  1  0
 15 16  2  0
 16 17  1  0
 17 18  2  0
  8 19  1  0
 19 20  1  0
 20 21  1  0
  4 22  1  0
 22 23  1  0
 23 24  1  0
 24 25  2  0
 24 26  1  0
 26 27  2  0
 27 28  1  0
 28 29  2  0
 29 30  1  0
 30 31  2  0
 23  2  2  0
 31 26  1  0
 20  6  2  0
 18 13  1  0
  1 32  1  0
  1 33  1  0
  1 34  1  0
  3 35  1  0
  5 36  1  0
  5 37  1  0
 12 38  1  0
 12 39  1  0
 14 40  1  0
 15 41  1  0
 16 42  1  0
 17 43  1  0
 18 44  1  0
 21 45  1  0
 21 46  1  0
 21 47  1  0
 27 48  1  0
 28 49  1  0
 29 50  1  0
 30 51  1  0
 31 52  1  0
M  CHG  1  19  -1
M  END
>  <UniqueID>  (82) 
70

>  <SMILES>  (82) 
Cc1cc(Cc2sc(=NC(=O)Cc3ccccc3)[n-]c2C)sc1C(=O)c1ccccc1

>  <Energy>  (82) 
113.03841602240253

>  <Genealogy>  (82) 
Cc1cc(Cc2sc(=NC(=O)Cc3ccccc3)[n-]c2C)sc1C(=O)c1ccccc1 (protonated)
Cc1cc(Cc2sc(=NC(=O)Cc3ccccc3)[n-]c2C)sc1C(=O)c1ccccc1 (3D coordinates assigned)
Cc1cc(Cc2sc(=NC(=O)Cc3ccccc3)[n-]c2C)sc1C(=O)c1ccccc1 (optimized conformer: 113.03841602240253 kcal/mol)

>  <smiles>  (82) 
Cc1cc(Cc2sc(=NC(=O)Cc3ccccc3)[nH]c2C)sc1C(=O)c1ccccc1

>  <score_type>  (82) 
oracle

>  <origin>  (82) 
adg

>  <m_score__min__energy>  (82) 
-11.619999999999999

>  <m_primary>  (82) 
energy

$$$$
82:0
     RDKit          3D

 27 29  0  0  0  0  0  0  0  0999 V2000
   58.0470   32.2950   42.2990 O   0  0  0  0  0  0  0  0  0  0  0  0
   57.9880   31.7290   43.4420 C   0  0  0  0  0  0  0  0  0  0  0  0
   57.8180   30.3940   43.5160 N   0  0  0  0  0  0  0  0  0  0  0  0
   57.7480   29.7440   44.6900 C   0  0  0  0  0  0  0  0  0  0  0  0
   57.5680   28.3250   44.7880 C   0  0  0  0  0  0  0  0  0  0  0  0
   57.0330   27.6910   45.8870 C   0  0  0  0  0  0  0  0  0  0  0  0
   56.8650   26.3210   45.9680 C   0  0  0  0  0  0  0  0  0  0  0  0
   57.2430   25.5160   44.9050 C   0  0  0  0  0  0  0  0  0  0  0  0
   57.7800   26.1210   43.7900 C   0  0  0  0  0  0  0  0  0  0  0  0
   57.9420   27.5020   43.7310 C   0  0  0  0  0  0  0  0  0  0  0  0
   57.8570   30.4960   45.8020 N   0  0  0  0  0  0  0  0  0  0  0  0
   58.0270   31.8290   45.7970 C   0  0  0  0  0  0  0  0  0  0  0  0
   58.1360   32.5760   46.9510 C   0  0  0  0  0  0  0  0  0  0  0  0
   58.3140   33.9620   46.9070 C   0  0  0  0  0  0  0  0  0  0  0  0
   58.3780   34.5810   45.6570 C   0  0  0  0  0  0  0  0  0  0  0  0
   58.2730   33.8620   44.4990 C   0  0  0  0  0  0  0  0  0  0  0  0
   58.0980   32.4890   44.5890 C   0  0  0  0  0  0  0  0  0  0  0  0
   57.7430   29.8900   42.6050 H   0  0  0  0  0  0  0  0  0  0  0  0
   56.7233   28.3062   46.7447 H   0  0  0  0  0  0  0  0  0  0  0  0
   56.4324   25.8711   46.8738 H   0  0  0  0  0  0  0  0  0  0  0  0
   57.1177   24.4241   44.9504 H   0  0  0  0  0  0  0  0  0  0  0  0
   58.0855   25.5029   42.9329 H   0  0  0  0  0  0  0  0  0  0  0  0
   58.3762   27.9534   42.8268 H   0  0  0  0  0  0  0  0  0  0  0  0
   58.0818   32.0708   47.9266 H   0  0  0  0  0  0  0  0  0  0  0  0
   58.4013   34.5495   47.8329 H   0  0  0  0  0  0  0  0  0  0  0  0
   58.5159   35.6710   45.6029 H   0  0  0  0  0  0  0  0  0  0  0  0
   58.3260   34.3602   43.5197 H   0  0  0  0  0  0  0  0  0  0  0  0
  1  2  2  0
  2  3  1  0
  3  4  1  0
  4  5  1  0
  5  6  2  0
  6  7  1  0
  7  8  2  0
  8  9  1  0
  9 10  2  0
  4 11  2  0
 11 12  1  0
 12 13  2  0
 13 14  1  0
 14 15  2  0
 15 16  1  0
 16 17  2  0
 17  2  1  0
 10  5  1  0
 17 12  1  0
  3 18  1  0
  6 19  1  0
  7 20  1  0
  8 21  1  0
  9 22  1  0
 10 23  1  0
 13 24  1  0
 14 25  1  0
 15 26  1  0
 16 27  1  0
M  END
>  <smiles>  (83) 
O=c1[nH]c(-c2ccccc2)nc2ccccc12

>  <score_type>  (83) 
oracle

>  <origin>  (83) 
adg

>  <m_score__min__energy>  (83) 
-6.75

>  <m_primary>  (83) 
energy

$$$$
83:0
     RDKit          3D

 29 30  0  0  1  0  0  0  0  0999 V2000
   64.1420   33.1350   46.5850 N   0  0  0  0  0  0  0  0  0  0  0  0
   63.0840   33.4250   47.2870 C   0  0  0  0  0  0  0  0  0  0  0  0
   63.1480   33.4680   48.6670 C   0  0  0  0  0  0  0  0  0  0  0  0
   62.0210   33.7760   49.4010 C   0  0  0  0  0  0  0  0  0  0  0  0
   62.0470   33.8440   51.1510 Cl  0  0  0  0  0  0  0  0  0  0  0  0
   60.8630   34.0310   48.7380 N   0  0  0  0  0  0  0  0  0  0  0  0
   60.8410   33.9790   47.3920 C   0  0  0  0  0  0  0  0  0  0  0  0
   59.7240   34.2260   46.7960 N   0  0  0  0  0  0  0  0  0  0  0  0
   59.0200   33.1660   46.1510 C   0  0  0  0  0  0  0  0  0  0  0  0
   58.1180   33.4990   45.1610 C   0  0  0  0  0  0  0  0  0  0  0  0
   57.4070   32.4870   44.5050 C   0  0  0  0  0  0  0  0  0  0  0  0
   57.6410   31.1680   44.8790 C   0  0  0  0  0  0  0  0  0  0  0  0
   56.7160   29.9360   44.0160 S   0  0  0  0  0  0  0  0  0  0  0  0
   57.6490   28.5180   43.7370 N   0  0  0  0  0  0  0  0  0  0  0  0
   55.5050   29.5790   44.8260 O   0  0  0  0  0  0  0  0  0  0  0  0
   56.2720   30.5830   42.7150 O   0  0  0  0  0  0  0  0  0  0  0  0
   58.5390   30.8230   45.8650 C   0  0  0  0  0  0  0  0  0  0  0  0
   59.2180   31.8340   46.4890 C   0  0  0  0  0  0  0  0  0  0  0  0
   61.9250   33.6820   46.6520 N   0  0  0  0  0  0  0  0  0  0  0  0
   64.7980   32.3790   46.8570 H   0  0  0  0  0  0  0  0  0  0  0  0
   64.0977   33.2566   49.1803 H   0  0  0  0  0  0  0  0  0  0  0  0
   60.0260   34.2610   49.3140 H   0  0  0  0  0  0  0  0  0  0  0  0
   57.9587   34.5529   44.8891 H   0  0  0  0  0  0  0  0  0  0  0  0
   56.6818   32.7289   43.7140 H   0  0  0  0  0  0  0  0  0  0  0  0
   56.9930   27.7900   43.3750 H   0  0  0  0  0  0  0  0  0  0  0  0
   58.3780   28.6850   42.9880 H   0  0  0  0  0  0  0  0  0  0  0  0
   58.7045   29.7712   46.1412 H   0  0  0  0  0  0  0  0  0  0  0  0
   59.9405   31.5846   47.2801 H   0  0  0  0  0  0  0  0  0  0  0  0
   61.9160   33.6390   45.6100 H   0  0  0  0  0  0  0  0  0  0  0  0
  1  2  2  3
  2  3  1  0
  3  4  2  0
  4  5  1  0
  4  6  1  0
  6  7  1  0
  7  8  2  0
  8  9  1  0
  9 10  2  0
 10 11  1  0
 11 12  2  0
 12 13  1  0
 13 14  1  0
 13 15  2  0
 13 16  2  0
 12 17  1  0
 17 18  2  0
  7 19  1  0
 19  2  1  0
 18  9  1  0
  1 20  1  0
  3 21  1  0
  6 22  1  0
 10 23  1  0
 11 24  1  0
 14 25  1  0
 14 26  1  0
 17 27  1  0
 18 28  1  0
 19 29  1  0
M  END
>  <smiles>  (84) 
N=c1cc(Cl)[nH]c(=Nc2ccc(S(N)(=O)=O)cc2)[nH]1

>  <score_type>  (84) 
oracle

>  <origin>  (84) 
adg

>  <m_score__min__energy>  (84) 
-7.5999999999999996

>  <m_primary>  (84) 
energy

$$$$
84:0
     RDKit          3D

 25 26  0  0  0  0  0  0  0  0999 V2000
   55.7360   31.9060   50.7400 H   0  0  0  0  0  0  0  0  0  0  0  0
   56.2480   31.1500   51.2400 N   0  0  0  0  0  0  0  0  0  0  0  0
   56.4800   31.1330   52.5180 C   0  0  0  0  0  0  0  0  0  0  0  0
   57.5960   31.8300   53.0030 C   0  0  0  0  0  0  0  0  0  0  0  0
   58.4110   32.5050   52.1530 F   0  0  0  0  0  0  0  0  0  0  0  0
   57.8750   31.8290   54.3680 C   0  0  0  0  0  0  0  0  0  0  0  0
   58.7503   32.3753   54.7494 H   0  0  0  0  0  0  0  0  0  0  0  0
   57.0700   31.1560   55.2280 N   0  0  0  0  0  0  0  0  0  0  0  0
   55.9790   30.4700   54.7990 C   0  0  0  0  0  0  0  0  0  0  0  0
   55.3523   29.9329   55.5262 H   0  0  0  0  0  0  0  0  0  0  0  0
   55.6430   30.4400   53.4330 C   0  0  0  0  0  0  0  0  0  0  0  0
   54.4330   29.6380   53.0010 C   0  0  0  0  0  0  0  0  0  0  0  0
   54.6767   29.0901   52.0788 H   0  0  0  0  0  0  0  0  0  0  0  0
   54.1716   28.9403   53.8103 H   0  0  0  0  0  0  0  0  0  0  0  0
   53.2470   30.5330   52.7420 C   0  0  0  0  0  0  0  0  0  0  0  0
   52.2860   30.7540   53.7450 C   0  0  0  0  0  0  0  0  0  0  0  0
   52.4009   30.2751   54.7286 H   0  0  0  0  0  0  0  0  0  0  0  0
   51.1850   31.5800   53.4970 C   0  0  0  0  0  0  0  0  0  0  0  0
   50.4405   31.7547   54.2877 H   0  0  0  0  0  0  0  0  0  0  0  0
   51.0290   32.1840   52.2460 C   0  0  0  0  0  0  0  0  0  0  0  0
   49.9340   33.0050   52.0020 O   0  0  0  0  0  0  0  0  0  0  0  0
   51.9720   31.9600   51.2400 C   0  0  0  0  0  0  0  0  0  0  0  0
   51.8470   32.4329   50.2548 H   0  0  0  0  0  0  0  0  0  0  0  0
   53.0750   31.1350   51.4840 C   0  0  0  0  0  0  0  0  0  0  0  0
   53.8117   30.9565   50.6868 H   0  0  0  0  0  0  0  0  0  0  0  0
  1  2  1  0
  2  3  2  0
  3  4  1  0
  4  5  1  0
  4  6  2  0
  6  7  1  0
  6  8  1  0
  8  9  1  0
  9 10  1  0
  9 11  2  0
 11 12  1  0
 12 13  1  0
 12 14  1  0
 12 15  1  0
 15 16  2  0
 16 17  1  0
 16 18  1  0
 18 19  1  0
 18 20  2  0
 20 21  1  0
 20 22  1  0
 22 23  1  0
 22 24  2  0
 24 25  1  0
 11  3  1  0
 24 15  1  0
M  CHG  2   8  -1  21  -1
M  END
>  <UniqueID>  (85) 
71

>  <SMILES>  (85) 
[H]/N=c1/c(F)c[n-]cc1Cc1ccc([O-])cc1

>  <Energy>  (85) 
29.424440544857433

>  <Genealogy>  (85) 
N=c1c(F)c[n-]cc1Cc1ccc([O-])cc1 (protonated)
[H]/N=c1/c(F)c[n-]cc1Cc1ccc([O-])cc1 (cis-trans isomerization)
[H]/N=c1/c(F)c[n-]cc1Cc1ccc([O-])cc1 (3D coordinates assigned)
[H]/N=c1/c(F)c[n-]cc1Cc1ccc([O-])cc1 (optimized conformer: 29.424440544857433 kcal/mol)

>  <smiles>  (85) 
N=c1c(F)c[nH]cc1Cc1ccc(O)cc1

>  <score_type>  (85) 
oracle

>  <origin>  (85) 
adg

>  <m_score__min__energy>  (85) 
-10.17

>  <m_primary>  (85) 
energy

$$$$
85:0
     RDKit          3D

 35 36  0  0  0  0  0  0  0  0999 V2000
   58.6330   27.8140   44.1500 C   0  0  0  0  0  0  0  0  0  0  0  0
   59.0390   28.6320   45.3430 C   0  0  0  0  0  0  0  0  0  0  0  0
   60.3540   28.5510   45.8350 C   0  0  0  0  0  0  0  0  0  0  0  0
   60.7390   29.3040   46.9470 C   0  0  0  0  0  0  0  0  0  0  0  0
   59.8230   30.1520   47.5690 C   0  0  0  0  0  0  0  0  0  0  0  0
   60.2060   30.8990   48.6340 F   0  0  0  0  0  0  0  0  0  0  0  0
   58.5130   30.2400   47.0910 C   0  0  0  0  0  0  0  0  0  0  0  0
   58.1020   29.4580   45.9970 C   0  0  0  0  0  0  0  0  0  0  0  0
   56.7580   29.5400   45.4960 N   0  0  0  0  0  0  0  0  0  0  0  0
   56.2970   30.3550   44.4110 C   0  0  0  0  0  0  0  0  0  0  0  0
   55.2000   30.0700   43.8630 O   0  0  0  0  0  0  0  0  0  0  0  0
   57.0380   31.5810   43.9570 C   0  0  0  0  0  0  0  0  0  0  0  0
   57.0050   32.8700   45.2530 S   0  0  0  0  0  0  0  0  0  0  0  0
   58.6280   33.6210   44.8570 C   0  0  0  0  0  0  0  0  0  0  0  0
   59.4750   33.7700   46.0940 C   0  0  0  0  0  0  0  0  0  0  0  0
   58.8740   33.9540   47.3500 C   0  0  0  0  0  0  0  0  0  0  0  0
   59.6610   34.0680   48.4990 C   0  0  0  0  0  0  0  0  0  0  0  0
   61.0550   34.0090   48.4030 C   0  0  0  0  0  0  0  0  0  0  0  0
   62.0410   34.1520   49.8460 Cl  0  0  0  0  0  0  0  0  0  0  0  0
   61.6610   33.8410   47.1540 C   0  0  0  0  0  0  0  0  0  0  0  0
   60.8750   33.7230   46.0030 C   0  0  0  0  0  0  0  0  0  0  0  0
   58.1678   26.8767   44.4892 H   0  0  0  0  0  0  0  0  0  0  0  0
   57.9125   28.3825   43.5437 H   0  0  0  0  0  0  0  0  0  0  0  0
   59.5215   27.5839   43.5437 H   0  0  0  0  0  0  0  0  0  0  0  0
   61.0831   27.8914   45.3418 H   0  0  0  0  0  0  0  0  0  0  0  0
   61.7664   29.2279   47.3326 H   0  0  0  0  0  0  0  0  0  0  0  0
   57.7995   30.9246   47.5730 H   0  0  0  0  0  0  0  0  0  0  0  0
   58.0826   31.3126   43.7407 H   0  0  0  0  0  0  0  0  0  0  0  0
   56.5511   31.9749   43.0527 H   0  0  0  0  0  0  0  0  0  0  0  0
   59.1548   32.9780   44.1366 H   0  0  0  0  0  0  0  0  0  0  0  0
   58.4550   34.6201   44.4305 H   0  0  0  0  0  0  0  0  0  0  0  0
   57.7782   34.0086   47.4296 H   0  0  0  0  0  0  0  0  0  0  0  0
   59.1834   34.2044   49.4805 H   0  0  0  0  0  0  0  0  0  0  0  0
   62.7576   33.8016   47.0765 H   0  0  0  0  0  0  0  0  0  0  0  0
   61.3560   33.5928   45.0223 H   0  0  0  0  0  0  0  0  0  0  0  0
  1  2  1  0
  2  3  2  0
  3  4  1  0
  4  5  2  0
  5  6  1  0
  5  7  1  0
  7  8  2  0
  8  9  1  0
  9 10  1  0
 10 11  2  0
 10 12  1  0
 12 13  1  0
 13 14  1  0
 14 15  1  0
 15 16  2  0
 16 17  1  0
 17 18  2  0
 18 19  1  0
 18 20  1  0
 20 21  2  0
  8  2  1  0
 21 15  1  0
  1 22  1  0
  1 23  1  0
  1 24  1  0
  3 25  1  0
  4 26  1  0
  7 27  1  0
 12 28  1  0
 12 29  1  0
 14 30  1  0
 14 31  1  0
 16 32  1  0
 17 33  1  0
 20 34  1  0
 21 35  1  0
M  CHG  1   9  -1
M  END
>  <UniqueID>  (86) 
72

>  <SMILES>  (86) 
Cc1ccc(F)cc1[N-]C(=O)CSCc1ccc(Cl)cc1

>  <Energy>  (86) 
33.765171310415425

>  <Genealogy>  (86) 
Cc1ccc(F)cc1[N-]C(=O)CSCc1ccc(Cl)cc1 (protonated)
Cc1ccc(F)cc1[N-]C(=O)CSCc1ccc(Cl)cc1 (3D coordinates assigned)
Cc1ccc(F)cc1[N-]C(=O)CSCc1ccc(Cl)cc1 (optimized conformer: 33.765171310415425 kcal/mol)

>  <smiles>  (86) 
Cc1ccc(F)cc1NC(=O)CSCc1ccc(Cl)cc1

>  <score_type>  (86) 
oracle

>  <origin>  (86) 
adg

>  <m_score__min__energy>  (86) 
-9.0899999999999999

>  <m_primary>  (86) 
energy

$$$$
86:0
     RDKit          3D

 44 47  0  0  0  0  0  0  0  0999 V2000
   57.9620   25.9680   47.3200 C   0  0  0  0  0  0  0  0  0  0  0  0
   57.8260   27.3510   46.8330 N   0  0  0  0  0  0  0  0  0  0  0  0
   58.7580   28.2990   47.1880 C   0  0  0  0  0  0  0  0  0  0  0  0
   59.7300   28.0210   47.9420 O   0  0  0  0  0  0  0  0  0  0  0  0
   58.6080   29.5820   46.6950 C   0  0  0  0  0  0  0  0  0  0  0  0
   59.3660   30.6640   46.9210 N   0  0  0  0  0  0  0  0  0  0  0  0
   58.7440   31.6210   46.1800 C   0  0  0  0  0  0  0  0  0  0  0  0
   59.2020   33.0300   46.1210 C   0  0  0  0  0  0  0  0  0  0  0  0
   58.8330   33.8200   45.0170 C   0  0  0  0  0  0  0  0  0  0  0  0
   59.2030   35.1650   44.9450 C   0  0  0  0  0  0  0  0  0  0  0  0
   59.9490   35.7400   45.9730 C   0  0  0  0  0  0  0  0  0  0  0  0
   60.3370   34.9690   47.0700 C   0  0  0  0  0  0  0  0  0  0  0  0
   59.9780   33.6160   47.1540 C   0  0  0  0  0  0  0  0  0  0  0  0
   60.4680   32.8440   48.2590 N   0  0  0  0  0  0  0  0  0  0  0  0
   59.7140   32.7960   49.5160 C   0  0  0  0  0  0  0  0  0  0  0  0
   59.5750   31.3440   50.0160 C   0  0  0  0  0  0  0  0  0  0  0  0
   60.7140   30.4640   49.6740 N   0  0  0  0  0  0  0  0  0  0  0  0
   61.9420   31.2000   49.3440 C   0  0  0  0  0  0  0  0  0  0  0  0
   61.7160   32.0910   48.1190 C   0  0  0  0  0  0  0  0  0  0  0  0
   57.6360   31.1810   45.5220 N   0  0  0  0  0  0  0  0  0  0  0  0
   57.5880   29.8860   45.8690 C   0  0  0  0  0  0  0  0  0  0  0  0
   56.6740   28.9600   45.4690 N   0  0  0  0  0  0  0  0  0  0  0  0
   55.5600   29.3310   44.5860 C   0  0  0  0  0  0  0  0  0  0  0  0
   56.7950   27.6800   45.9660 C   0  0  0  0  0  0  0  0  0  0  0  0
   55.9570   26.7980   45.6240 O   0  0  0  0  0  0  0  0  0  0  0  0
   57.9623   25.9650   48.4200 H   0  0  0  0  0  0  0  0  0  0  0  0
   57.1188   25.3651   46.9519 H   0  0  0  0  0  0  0  0  0  0  0  0
   58.9065   25.5409   46.9519 H   0  0  0  0  0  0  0  0  0  0  0  0
   58.2462   33.3733   44.2009 H   0  0  0  0  0  0  0  0  0  0  0  0
   58.9056   35.7710   44.0765 H   0  0  0  0  0  0  0  0  0  0  0  0
   60.2319   36.8017   45.9195 H   0  0  0  0  0  0  0  0  0  0  0  0
   60.9296   35.4268   47.8758 H   0  0  0  0  0  0  0  0  0  0  0  0
   60.2421   33.3902   50.2763 H   0  0  0  0  0  0  0  0  0  0  0  0
   58.7086   33.2061   49.3400 H   0  0  0  0  0  0  0  0  0  0  0  0
   59.4752   31.3662   51.1112 H   0  0  0  0  0  0  0  0  0  0  0  0
   58.6929   30.9232   49.5112 H   0  0  0  0  0  0  0  0  0  0  0  0
   60.4520   29.8770   48.8460 H   0  0  0  0  0  0  0  0  0  0  0  0
   62.2302   31.8272   50.2005 H   0  0  0  0  0  0  0  0  0  0  0  0
   62.7413   30.4787   49.1187 H   0  0  0  0  0  0  0  0  0  0  0  0
   62.5555   32.7953   48.0232 H   0  0  0  0  0  0  0  0  0  0  0  0
   61.6512   31.4562   47.2230 H   0  0  0  0  0  0  0  0  0  0  0  0
   54.6906   29.6205   45.1945 H   0  0  0  0  0  0  0  0  0  0  0  0
   55.8615   30.1772   43.9512 H   0  0  0  0  0  0  0  0  0  0  0  0
   55.2939   28.4730   43.9512 H   0  0  0  0  0  0  0  0  0  0  0  0
  1  2  1  0
  2  3  1  0
  3  4  2  0
  3  5  1  0
  5  6  1  0
  6  7  2  0
  7  8  1  0
  8  9  2  0
  9 10  1  0
 10 11  2  0
 11 12  1  0
 12 13  2  0
 13 14  1  0
 14 15  1  0
 15 16  1  0
 16 17  1  0
 17 18  1  0
 18 19  1  0
  7 20  1  0
 20 21  1  0
 21 22  1  0
 22 23  1  0
 22 24  1  0
 24 25  2  0
 24  2  1  0
 21  5  2  0
 13  8  1  0
 19 14  1  0
  1 26  1  0
  1 27  1  0
  1 28  1  0
  9 29  1  0
 10 30  1  0
 11 31  1  0
 12 32  1  0
 15 33  1  0
 15 34  1  0
 16 35  1  0
 16 36  1  0
 17 37  1  0
 18 38  1  0
 18 39  1  0
 19 40  1  0
 19 41  1  0
 23 42  1  0
 23 43  1  0
 23 44  1  0
M  CHG  1  20  -1
M  END
>  <UniqueID>  (87) 
73

>  <SMILES>  (87) 
Cn1c(=O)c2nc(-c3ccccc3N3CCNCC3)[n-]c2n(C)c1=O

>  <Energy>  (87) 
101.56322779533224

>  <Genealogy>  (87) 
Cn1c(=O)c2nc(-c3ccccc3N3CCNCC3)[n-]c2n(C)c1=O (protonated)
Cn1c(=O)c2nc(-c3ccccc3N3CCNCC3)[n-]c2n(C)c1=O (3D coordinates assigned)
Cn1c(=O)c2nc(-c3ccccc3N3CCNCC3)[n-]c2n(C)c1=O (nonaromatic ring conformer: 101.56322779533224 kcal/mol)

>  <smiles>  (87) 
Cn1c(=O)c2nc(-c3ccccc3N3CCNCC3)[nH]c2n(C)c1=O

>  <score_type>  (87) 
oracle

>  <origin>  (87) 
adg

>  <m_score__min__energy>  (87) 
-8.5800000000000001

>  <m_primary>  (87) 
energy

$$$$
87:0
     RDKit          3D

 38 39  0  0  0  0  0  0  0  0999 V2000
   54.8120   25.1810   45.6270 C   0  0  0  0  0  0  0  0  0  0  0  0
   55.1880   26.5110   45.9710 O   0  0  0  0  0  0  0  0  0  0  0  0
   56.5090   26.9870   45.9810 C   0  0  0  0  0  0  0  0  0  0  0  0
   57.5730   26.2270   46.5060 C   0  0  0  0  0  0  0  0  0  0  0  0
   58.8730   26.7370   46.5010 C   0  0  0  0  0  0  0  0  0  0  0  0
   59.1260   28.0000   45.9690 C   0  0  0  0  0  0  0  0  0  0  0  0
   58.0810   28.7610   45.4410 C   0  0  0  0  0  0  0  0  0  0  0  0
   56.7630   28.2620   45.4490 C   0  0  0  0  0  0  0  0  0  0  0  0
   55.6770   28.9950   44.9420 O   0  0  0  0  0  0  0  0  0  0  0  0
   55.6640   29.7220   43.7140 C   0  0  0  0  0  0  0  0  0  0  0  0
   56.6280   30.9090   43.7480 C   0  0  0  0  0  0  0  0  0  0  0  0
   56.7020   31.4610   45.0640 O   0  0  0  0  0  0  0  0  0  0  0  0
   57.5230   32.5220   45.4830 C   0  0  0  0  0  0  0  0  0  0  0  0
   57.8110   33.5270   44.5500 C   0  0  0  0  0  0  0  0  0  0  0  0
   58.6620   34.5850   44.8820 C   0  0  0  0  0  0  0  0  0  0  0  0
   59.2370   34.6480   46.1520 C   0  0  0  0  0  0  0  0  0  0  0  0
   58.9480   33.6610   47.1010 C   0  0  0  0  0  0  0  0  0  0  0  0
   59.7140   33.7270   48.7220 S   0  0  0  0  0  0  0  0  0  0  0  0
   61.4020   33.8540   48.0580 C   0  0  0  0  0  0  0  0  0  0  0  0
   58.0870   32.6060   46.7730 C   0  0  0  0  0  0  0  0  0  0  0  0
   54.6471   24.5976   46.5448 H   0  0  0  0  0  0  0  0  0  0  0  0
   53.8850   25.2035   45.0352 H   0  0  0  0  0  0  0  0  0  0  0  0
   55.6135   24.7148   45.0352 H   0  0  0  0  0  0  0  0  0  0  0  0
   57.3787   25.2273   46.9217 H   0  0  0  0  0  0  0  0  0  0  0  0
   59.6984   26.1410   46.9175 H   0  0  0  0  0  0  0  0  0  0  0  0
   60.1513   28.3984   45.9650 H   0  0  0  0  0  0  0  0  0  0  0  0
   58.2875   29.7547   45.0168 H   0  0  0  0  0  0  0  0  0  0  0  0
   55.9588   29.0469   42.8971 H   0  0  0  0  0  0  0  0  0  0  0  0
   54.6471   30.1110   43.5570 H   0  0  0  0  0  0  0  0  0  0  0  0
   57.6287   30.5705   43.4414 H   0  0  0  0  0  0  0  0  0  0  0  0
   56.2600   31.6838   43.0593 H   0  0  0  0  0  0  0  0  0  0  0  0
   57.3629   33.4829   43.5464 H   0  0  0  0  0  0  0  0  0  0  0  0
   58.8787   35.3689   44.1413 H   0  0  0  0  0  0  0  0  0  0  0  0
   59.9176   35.4737   46.4071 H   0  0  0  0  0  0  0  0  0  0  0  0
   62.1200   33.9080   48.8896 H   0  0  0  0  0  0  0  0  0  0  0  0
   61.6209   32.9698   47.4414 H   0  0  0  0  0  0  0  0  0  0  0  0
   61.4862   34.7610   47.4414 H   0  0  0  0  0  0  0  0  0  0  0  0
   57.8496   31.8393   47.5252 H   0  0  0  0  0  0  0  0  0  0  0  0
  1  2  1  0
  2  3  1  0
  3  4  2  0
  4  5  1  0
  5  6  2  0
  6  7  1  0
  7  8  2  0
  8  9  1  0
  9 10  1  0
 10 11  1  0
 11 12  1  0
 12 13  1  0
 13 14  2  0
 14 15  1  0
 15 16  2  0
 16 17  1  0
 17 18  1  0
 18 19  1  0
 17 20  2  0
  8  3  1  0
 20 13  1  0
  1 21  1  0
  1 22  1  0
  1 23  1  0
  4 24  1  0
  5 25  1  0
  6 26  1  0
  7 27  1  0
 10 28  1  0
 10 29  1  0
 11 30  1  0
 11 31  1  0
 14 32  1  0
 15 33  1  0
 16 34  1  0
 19 35  1  0
 19 36  1  0
 19 37  1  0
 20 38  1  0
M  END
>  <UniqueID>  (88) 
74

>  <SMILES>  (88) 
COc1ccccc1OCCOc1cccc(SC)c1

>  <Energy>  (88) 
31.702617726551672

>  <Genealogy>  (88) 
COc1ccccc1OCCOc1cccc(SC)c1 (3D coordinates assigned)
COc1ccccc1OCCOc1cccc(SC)c1 (optimized conformer: 31.702617726551672 kcal/mol)

>  <smiles>  (88) 
COc1ccccc1OCCOc1cccc(SC)c1

>  <score_type>  (88) 
oracle

>  <origin>  (88) 
adg

>  <m_score__min__energy>  (88) 
-8.1899999999999995

>  <m_primary>  (88) 
energy

$$$$
88:0
     RDKit          3D

 28 30  0  0  0  0  0  0  0  0999 V2000
   60.2300   30.2350   46.6170 C   0  0  0  0  0  0  0  0  0  0  0  0
   59.3460   31.1740   45.9150 N   0  0  0  0  0  0  0  0  0  0  0  0
   59.3700   32.5830   46.2130 C   0  0  0  0  0  0  0  0  0  0  0  0
   59.8210   33.0710   47.4570 C   0  0  0  0  0  0  0  0  0  0  0  0
   59.8200   34.4440   47.7160 C   0  0  0  0  0  0  0  0  0  0  0  0
   59.3690   35.3400   46.7470 C   0  0  0  0  0  0  0  0  0  0  0  0
   58.9090   34.8670   45.5160 C   0  0  0  0  0  0  0  0  0  0  0  0
   58.8880   33.4890   45.2530 C   0  0  0  0  0  0  0  0  0  0  0  0
   58.4450   32.9790   43.9070 C   0  0  0  0  0  0  0  0  0  0  0  0
   57.9310   31.6000   43.9750 N   0  0  0  0  0  0  0  0  0  0  0  0
   57.0420   31.1880   43.0190 C   0  0  0  0  0  0  0  0  0  0  0  0
   56.5680   29.8760   43.0040 C   0  0  0  0  0  0  0  0  0  0  0  0
   57.0130   28.9780   43.9670 C   0  0  0  0  0  0  0  0  0  0  0  0
   57.9330   29.3900   44.9260 C   0  0  0  0  0  0  0  0  0  0  0  0
   58.4090   30.7150   44.9150 C   0  0  0  0  0  0  0  0  0  0  0  0
   60.1109   30.3615   47.7032 H   0  0  0  0  0  0  0  0  0  0  0  0
   59.9667   29.2044   46.3369 H   0  0  0  0  0  0  0  0  0  0  0  0
   61.2746   30.4356   46.3369 H   0  0  0  0  0  0  0  0  0  0  0  0
   60.1747   32.3684   48.2259 H   0  0  0  0  0  0  0  0  0  0  0  0
   60.1759   34.8193   48.6868 H   0  0  0  0  0  0  0  0  0  0  0  0
   59.3756   36.4206   46.9525 H   0  0  0  0  0  0  0  0  0  0  0  0
   58.5622   35.5768   44.7506 H   0  0  0  0  0  0  0  0  0  0  0  0
   57.6493   33.6350   43.5242 H   0  0  0  0  0  0  0  0  0  0  0  0
   59.3205   32.9802   43.2410 H   0  0  0  0  0  0  0  0  0  0  0  0
   56.6975   31.8994   42.2540 H   0  0  0  0  0  0  0  0  0  0  0  0
   55.8482   29.5550   42.2366 H   0  0  0  0  0  0  0  0  0  0  0  0
   56.6386   27.9437   43.9709 H   0  0  0  0  0  0  0  0  0  0  0  0
   58.2873   28.6828   45.6904 H   0  0  0  0  0  0  0  0  0  0  0  0
  1  2  1  0
  2  3  1  0
  3  4  2  0
  4  5  1  0
  5  6  2  0
  6  7  1  0
  7  8  2  0
  8  9  1  0
  9 10  1  0
 10 11  2  0
 11 12  1  0
 12 13  2  0
 13 14  1  0
 14 15  2  0
 15  2  1  0
  8  3  1  0
 15 10  1  0
  1 16  1  0
  1 17  1  0
  1 18  1  0
  4 19  1  0
  5 20  1  0
  6 21  1  0
  7 22  1  0
  9 23  1  0
  9 24  1  0
 11 25  1  0
 12 26  1  0
 13 27  1  0
 14 28  1  0
M  CHG  1  10   1
M  END
>  <UniqueID>  (89) 
75

>  <SMILES>  (89) 
CN1c2ccccc2C[n+]2ccccc21

>  <Energy>  (89) 
39.11504638521261

>  <Genealogy>  (89) 
CN1c2ccccc2C[n+]2ccccc21 (3D coordinates assigned)
CN1c2ccccc2C[n+]2ccccc21 (nonaromatic ring conformer: 39.11504638521261 kcal/mol)

>  <smiles>  (89) 
CN1c2ccccc2C[n+]2ccccc21

>  <score_type>  (89) 
oracle

>  <origin>  (89) 
adg

>  <m_score__min__energy>  (89) 
-4.5300000000000002

>  <m_primary>  (89) 
energy

$$$$
89:0
     RDKit          3D

 42 44  0  0  0  0  0  0  0  0999 V2000
   55.8200   30.0070   43.6840 N   0  0  0  0  0  0  0  0  0  0  0  0
   56.7000   29.9270   44.4320 C   0  0  0  0  0  0  0  0  0  0  0  0
   57.7930   29.8280   45.3630 C   0  0  0  0  0  0  0  0  0  0  0  0
   58.8700   30.7190   45.2770 C   0  0  0  0  0  0  0  0  0  0  0  0
   59.9240   30.6330   46.1930 C   0  0  0  0  0  0  0  0  0  0  0  0
   59.9150   29.6500   47.1960 C   0  0  0  0  0  0  0  0  0  0  0  0
   61.0640   29.5470   48.1720 C   0  0  0  0  0  0  0  0  0  0  0  0
   61.1300   30.7010   49.0930 N   0  0  0  0  0  0  0  0  0  0  0  0
   61.9040   31.8110   48.5670 C   0  0  0  0  0  0  0  0  0  0  0  0
   62.9410   31.5600   47.6430 C   0  0  0  0  0  0  0  0  0  0  0  0
   63.7010   32.6040   47.1140 C   0  0  0  0  0  0  0  0  0  0  0  0
   63.4130   33.9210   47.4600 C   0  0  0  0  0  0  0  0  0  0  0  0
   62.3490   34.2000   48.3160 C   0  0  0  0  0  0  0  0  0  0  0  0
   61.5820   33.1640   48.8680 C   0  0  0  0  0  0  0  0  0  0  0  0
   60.1300   33.6360   49.8290 S   0  0  0  0  0  0  0  0  0  0  0  0
   58.9620   32.8700   48.7010 C   0  0  0  0  0  0  0  0  0  0  0  0
   58.4260   31.7870   49.0480 O   0  0  0  0  0  0  0  0  0  0  0  0
   58.6380   33.4640   47.3820 C   0  0  0  0  0  0  0  0  0  0  0  0
   59.5780   34.2850   46.7310 C   0  0  0  0  0  0  0  0  0  0  0  0
   59.2870   34.8440   45.4830 C   0  0  0  0  0  0  0  0  0  0  0  0
   58.0550   34.5970   44.8750 C   0  0  0  0  0  0  0  0  0  0  0  0
   57.1100   33.7920   45.5160 C   0  0  0  0  0  0  0  0  0  0  0  0
   57.3960   33.2300   46.7630 C   0  0  0  0  0  0  0  0  0  0  0  0
   58.8350   28.7550   47.2710 C   0  0  0  0  0  0  0  0  0  0  0  0
   57.7770   28.8470   46.3610 C   0  0  0  0  0  0  0  0  0  0  0  0
   58.8873   31.4865   44.4892 H   0  0  0  0  0  0  0  0  0  0  0  0
   60.7646   31.3394   46.1272 H   0  0  0  0  0  0  0  0  0  0  0  0
   60.9416   28.6288   48.7653 H   0  0  0  0  0  0  0  0  0  0  0  0
   61.9968   29.5309   47.5893 H   0  0  0  0  0  0  0  0  0  0  0  0
   61.4960   30.3630   50.0100 H   0  0  0  0  0  0  0  0  0  0  0  0
   60.1560   31.0430   49.2610 H   0  0  0  0  0  0  0  0  0  0  0  0
   63.1534   30.5255   47.3351 H   0  0  0  0  0  0  0  0  0  0  0  0
   64.5285   32.3859   46.4229 H   0  0  0  0  0  0  0  0  0  0  0  0
   64.0251   34.7417   47.0579 H   0  0  0  0  0  0  0  0  0  0  0  0
   62.1082   35.2449   48.5614 H   0  0  0  0  0  0  0  0  0  0  0  0
   60.5484   34.4882   47.2075 H   0  0  0  0  0  0  0  0  0  0  0  0
   60.0302   35.4796   44.9793 H   0  0  0  0  0  0  0  0  0  0  0  0
   57.8284   35.0358   43.8921 H   0  0  0  0  0  0  0  0  0  0  0  0
   56.1382   33.6001   45.0377 H   0  0  0  0  0  0  0  0  0  0  0  0
   56.6456   32.6007   47.2639 H   0  0  0  0  0  0  0  0  0  0  0  0
   58.8213   27.9779   48.0494 H   0  0  0  0  0  0  0  0  0  0  0  0
   56.9310   28.1473   46.4298 H   0  0  0  0  0  0  0  0  0  0  0  0
  1  2  3  0
  2  3  1  0
  3  4  2  0
  4  5  1  0
  5  6  2  0
  6  7  1  0
  7  8  1  0
  8  9  1  0
  9 10  2  0
 10 11  1  0
 11 12  2  0
 12 13  1  0
 13 14  2  0
 14 15  1  0
 15 16  1  0
 16 17  2  0
 16 18  1  0
 18 19  2  0
 19 20  1  0
 20 21  2  0
 21 22  1  0
 22 23  2  0
  6 24  1  0
 24 25  2  0
 25  3  1  0
 14  9  1  0
 23 18  1  0
  4 26  1  0
  5 27  1  0
  7 28  1  0
  7 29  1  0
  8 30  1  0
  8 31  1  0
 10 32  1  0
 11 33  1  0
 12 34  1  0
 13 35  1  0
 19 36  1  0
 20 37  1  0
 21 38  1  0
 22 39  1  0
 23 40  1  0
 24 41  1  0
 25 42  1  0
M  CHG  1   8   1
M  END
>  <UniqueID>  (90) 
76

>  <SMILES>  (90) 
N#Cc1ccc(C[NH2+]c2ccccc2SC(=O)c2ccccc2)cc1

>  <Energy>  (90) 
44.29425083115832

>  <Genealogy>  (90) 
N#Cc1ccc(C[NH2+]c2ccccc2SC(=O)c2ccccc2)cc1 (protonated)
N#Cc1ccc(C[NH2+]c2ccccc2SC(=O)c2ccccc2)cc1 (3D coordinates assigned)
N#Cc1ccc(C[NH2+]c2ccccc2SC(=O)c2ccccc2)cc1 (optimized conformer: 44.29425083115832 kcal/mol)

>  <smiles>  (90) 
N#Cc1ccc(CNc2ccccc2SC(=O)c2ccccc2)cc1

>  <score_type>  (90) 
oracle

>  <origin>  (90) 
adg

>  <m_score__min__energy>  (90) 
-6.5999999999999996

>  <m_primary>  (90) 
energy

$$$$
90:0
     RDKit          3D

 40 42  0  0  0  0  0  0  0  0999 V2000
   58.5660   22.2370   44.1850 C   0  0  0  0  0  0  0  0  0  0  0  0
   57.6360   23.2750   44.6520 N   0  0  0  0  0  0  0  0  0  0  0  0
   58.1280   24.3720   45.2920 C   0  0  0  0  0  0  0  0  0  0  0  0
   57.2680   25.3470   45.8000 C   0  0  0  0  0  0  0  0  0  0  0  0
   57.8350   26.4760   46.5810 C   0  0  0  0  0  0  0  0  0  0  0  0
   57.7680   26.4500   47.8400 O   0  0  0  0  0  0  0  0  0  0  0  0
   58.4590   27.6740   45.9150 C   0  0  0  0  0  0  0  0  0  0  0  0
   57.5870   28.8050   45.9620 O   0  0  0  0  0  0  0  0  0  0  0  0
   57.4050   29.7310   44.9190 C   0  0  0  0  0  0  0  0  0  0  0  0
   56.8190   29.3560   43.6950 C   0  0  0  0  0  0  0  0  0  0  0  0
   56.6650   30.2870   42.6660 C   0  0  0  0  0  0  0  0  0  0  0  0
   57.0940   31.6040   42.8380 C   0  0  0  0  0  0  0  0  0  0  0  0
   57.6820   32.0020   44.0460 C   0  0  0  0  0  0  0  0  0  0  0  0
   58.1290   33.3210   44.2170 C   0  0  0  0  0  0  0  0  0  0  0  0
   58.7310   33.7090   45.4150 C   0  0  0  0  0  0  0  0  0  0  0  0
   58.8920   32.7880   46.4510 C   0  0  0  0  0  0  0  0  0  0  0  0
   58.4480   31.4730   46.2980 C   0  0  0  0  0  0  0  0  0  0  0  0
   57.8360   31.0620   45.0980 C   0  0  0  0  0  0  0  0  0  0  0  0
   55.8890   25.1830   45.5950 C   0  0  0  0  0  0  0  0  0  0  0  0
   55.0870   26.0690   46.0050 O   0  0  0  0  0  0  0  0  0  0  0  0
   55.4130   24.0730   44.9480 N   0  0  0  0  0  0  0  0  0  0  0  0
   53.9590   23.8730   44.8080 C   0  0  0  0  0  0  0  0  0  0  0  0
   56.2840   23.1070   44.5090 C   0  0  0  0  0  0  0  0  0  0  0  0
   55.8400   22.0520   43.9720 O   0  0  0  0  0  0  0  0  0  0  0  0
   59.0179   21.7327   45.0519 H   0  0  0  0  0  0  0  0  0  0  0  0
   58.0191   21.5014   43.5768 H   0  0  0  0  0  0  0  0  0  0  0  0
   59.3570   22.7001   43.5768 H   0  0  0  0  0  0  0  0  0  0  0  0
   59.2152   24.4909   45.4099 H   0  0  0  0  0  0  0  0  0  0  0  0
   59.3976   27.9231   46.4316 H   0  0  0  0  0  0  0  0  0  0  0  0
   58.6502   27.4256   44.8606 H   0  0  0  0  0  0  0  0  0  0  0  0
   56.4794   28.3201   43.5481 H   0  0  0  0  0  0  0  0  0  0  0  0
   56.2035   29.9812   41.7155 H   0  0  0  0  0  0  0  0  0  0  0  0
   56.9701   32.3319   42.0226 H   0  0  0  0  0  0  0  0  0  0  0  0
   58.0046   34.0517   43.4042 H   0  0  0  0  0  0  0  0  0  0  0  0
   59.0797   34.7444   45.5430 H   0  0  0  0  0  0  0  0  0  0  0  0
   59.3704   33.0990   47.3914 H   0  0  0  0  0  0  0  0  0  0  0  0
   58.5771   30.7535   47.1200 H   0  0  0  0  0  0  0  0  0  0  0  0
   53.4998   23.8098   45.8056 H   0  0  0  0  0  0  0  0  0  0  0  0
   53.5238   24.7197   44.2570 H   0  0  0  0  0  0  0  0  0  0  0  0
   53.7686   22.9402   44.2570 H   0  0  0  0  0  0  0  0  0  0  0  0
  1  2  1  0
  2  3  1  0
  3  4  2  0
  4  5  1  0
  5  6  2  0
  5  7  1  0
  7  8  1  0
  8  9  1  0
  9 10  2  0
 10 11  1  0
 11 12  2  0
 12 13  1  0
 13 14  2  0
 14 15  1  0
 15 16  2  0
 16 17  1  0
 17 18  2  0
  4 19  1  0
 19 20  2  0
 19 21  1  0
 21 22  1  0
 21 23  1  0
 23 24  2  0
 23  2  1  0
 18  9  1  0
 18 13  1  0
  1 25  1  0
  1 26  1  0
  1 27  1  0
  3 28  1  0
  7 29  1  0
  7 30  1  0
 10 31  1  0
 11 32  1  0
 12 33  1  0
 14 34  1  0
 15 35  1  0
 16 36  1  0
 17 37  1  0
 22 38  1  0
 22 39  1  0
 22 40  1  0
M  END
>  <UniqueID>  (91) 
77

>  <SMILES>  (91) 
Cn1cc(C(=O)COc2cccc3ccccc23)c(=O)n(C)c1=O

>  <Energy>  (91) 
54.89242086685876

>  <Genealogy>  (91) 
Cn1cc(C(=O)COc2cccc3ccccc23)c(=O)n(C)c1=O (3D coordinates assigned)
Cn1cc(C(=O)COc2cccc3ccccc23)c(=O)n(C)c1=O (optimized conformer: 54.89242086685876 kcal/mol)

>  <smiles>  (91) 
Cn1cc(C(=O)COc2cccc3ccccc23)c(=O)n(C)c1=O

>  <score_type>  (91) 
oracle

>  <origin>  (91) 
adg

>  <m_score__min__energy>  (91) 
-8.4299999999999997

>  <m_primary>  (91) 
energy

$$$$
91:0
     RDKit          3D

 19 20  0  0  0  0  0  0  0  0999 V2000
   55.1760   29.4500   44.8660 O   0  0  0  0  0  0  0  0  0  0  0  0
   56.5100   29.2970   44.4650 C   0  0  0  0  0  0  0  0  0  0  0  0
   57.0220   30.5790   43.8720 C   0  0  0  0  0  0  0  0  0  0  0  0
   57.0130   30.8270   42.4960 C   0  0  0  0  0  0  0  0  0  0  0  0
   57.7130   32.3350   42.1980 S   0  0  0  0  0  0  0  0  0  0  0  0
   58.0430   32.6760   43.8060 C   0  0  0  0  0  0  0  0  0  0  0  0
   58.6570   33.8100   44.3340 C   0  0  0  0  0  0  0  0  0  0  0  0
   58.8440   33.8780   45.7220 C   0  0  0  0  0  0  0  0  0  0  0  0
   58.4210   32.8190   46.5490 C   0  0  0  0  0  0  0  0  0  0  0  0
   57.8040   31.6850   45.9950 C   0  0  0  0  0  0  0  0  0  0  0  0
   57.6160   31.6240   44.6060 C   0  0  0  0  0  0  0  0  0  0  0  0
   55.1770   30.0930   45.6210 H   0  0  0  0  0  0  0  0  0  0  0  0
   57.1237   29.0294   45.3378 H   0  0  0  0  0  0  0  0  0  0  0  0
   56.5689   28.5016   43.7075 H   0  0  0  0  0  0  0  0  0  0  0  0
   56.6133   30.1475   41.7289 H   0  0  0  0  0  0  0  0  0  0  0  0
   58.9863   34.6302   43.6792 H   0  0  0  0  0  0  0  0  0  0  0  0
   59.3232   34.7624   46.1671 H   0  0  0  0  0  0  0  0  0  0  0  0
   58.5749   32.8804   47.6364 H   0  0  0  0  0  0  0  0  0  0  0  0
   57.4734   30.8577   46.6402 H   0  0  0  0  0  0  0  0  0  0  0  0
  1  2  1  0
  2  3  1  0
  3  4  2  0
  4  5  1  0
  5  6  1  0
  6  7  2  0
  7  8  1  0
  8  9  2  0
  9 10  1  0
 10 11  2  0
 11  3  1  0
 11  6  1  0
  1 12  1  0
  2 13  1  0
  2 14  1  0
  4 15  1  0
  7 16  1  0
  8 17  1  0
  9 18  1  0
 10 19  1  0
M  END
>  <UniqueID>  (92) 
78

>  <SMILES>  (92) 
OCc1csc2ccccc12

>  <Energy>  (92) 
49.70686440830044

>  <Genealogy>  (92) 
OCc1csc2ccccc12 (3D coordinates assigned)
OCc1csc2ccccc12 (optimized conformer: 49.70686440830044 kcal/mol)

>  <smiles>  (92) 
OCc1csc2ccccc12

>  <score_type>  (92) 
oracle

>  <origin>  (92) 
adg

>  <m_score__min__energy>  (92) 
-6.2300000000000004

>  <m_primary>  (92) 
energy

$$$$
92:0
     RDKit          3D

 43 45  0  0  0  0  0  0  0  0999 V2000
   57.8180   27.8690   43.5360 C   0  0  0  0  0  0  0  0  0  0  0  0
   57.2310   29.0510   43.3450 C   0  0  0  0  0  0  0  0  0  0  0  0
   56.5020   29.9240   44.6870 S   0  0  0  0  0  0  0  0  0  0  0  0
   56.3550   31.3690   44.3030 O   0  0  0  0  0  0  0  0  0  0  0  0
   55.1410   29.3580   44.9800 O   0  0  0  0  0  0  0  0  0  0  0  0
   57.4980   29.8080   46.1030 N   0  0  0  0  0  0  0  0  0  0  0  0
   58.8890   30.1400   46.1420 C   0  0  0  0  0  0  0  0  0  0  0  0
   59.6900   29.5090   45.4030 O   0  0  0  0  0  0  0  0  0  0  0  0
   59.4100   31.2050   47.0210 C   0  0  0  0  0  0  0  0  0  0  0  0
   60.1060   30.8310   48.1790 C   0  0  0  0  0  0  0  0  0  0  0  0
   60.6010   31.7710   49.0250 N   0  0  0  0  0  0  0  0  0  0  0  0
   60.4330   33.1040   48.7850 C   0  0  0  0  0  0  0  0  0  0  0  0
   60.9420   34.0810   49.6520 O   0  0  0  0  0  0  0  0  0  0  0  0
   62.2980   34.5160   49.6650 C   0  0  0  0  0  0  0  0  0  0  0  0
   63.2320   33.3200   49.5010 C   0  0  0  0  0  0  0  0  0  0  0  0
   63.9320   33.3560   48.1340 C   0  0  0  0  0  0  0  0  0  0  0  0
   63.4220   32.3380   47.1260 C   0  0  0  0  0  0  0  0  0  0  0  0
   63.0700   33.8090   46.9660 C   0  0  0  0  0  0  0  0  0  0  0  0
   59.7370   33.5210   47.6480 C   0  0  0  0  0  0  0  0  0  0  0  0
   59.2130   32.5770   46.7390 C   0  0  0  0  0  0  0  0  0  0  0  0
   58.4780   32.9910   45.4630 C   0  0  0  0  0  0  0  0  0  0  0  0
   57.4220   34.0810   45.5830 C   0  0  0  0  0  0  0  0  0  0  0  0
   58.7570   34.3840   44.9150 C   0  0  0  0  0  0  0  0  0  0  0  0
   58.2694   27.3354   42.6866 H   0  0  0  0  0  0  0  0  0  0  0  0
   57.8508   27.4275   44.5430 H   0  0  0  0  0  0  0  0  0  0  0  0
   57.2023   29.4859   42.3350 H   0  0  0  0  0  0  0  0  0  0  0  0
   60.2528   29.7645   48.4049 H   0  0  0  0  0  0  0  0  0  0  0  0
   61.1140   31.4420   49.8710 H   0  0  0  0  0  0  0  0  0  0  0  0
   62.4619   35.2222   48.8377 H   0  0  0  0  0  0  0  0  0  0  0  0
   62.5093   35.0100   50.6249 H   0  0  0  0  0  0  0  0  0  0  0  0
   63.9920   33.3447   50.2958 H   0  0  0  0  0  0  0  0  0  0  0  0
   62.6371   32.3971   49.5676 H   0  0  0  0  0  0  0  0  0  0  0  0
   64.9185   33.6429   48.5271 H   0  0  0  0  0  0  0  0  0  0  0  0
   64.1218   31.8605   46.4244 H   0  0  0  0  0  0  0  0  0  0  0  0
   62.8463   31.4027   47.1883 H   0  0  0  0  0  0  0  0  0  0  0  0
   63.5152   34.3953   46.1487 H   0  0  0  0  0  0  0  0  0  0  0  0
   62.1343   34.3783   46.8647 H   0  0  0  0  0  0  0  0  0  0  0  0
   59.5959   34.5955   47.4592 H   0  0  0  0  0  0  0  0  0  0  0  0
   58.5004   31.9722   45.0487 H   0  0  0  0  0  0  0  0  0  0  0  0
   56.5044   34.0267   44.9788 H   0  0  0  0  0  0  0  0  0  0  0  0
   56.8496   34.5215   46.4126 H   0  0  0  0  0  0  0  0  0  0  0  0
   58.8036   34.5485   43.8284 H   0  0  0  0  0  0  0  0  0  0  0  0
   59.5482   35.1339   45.0623 H   0  0  0  0  0  0  0  0  0  0  0  0
  1  2  2  0
  2  3  1  0
  3  4  2  0
  3  5  2  0
  3  6  1  0
  6  7  1  0
  7  8  2  0
  7  9  1  0
  9 10  2  0
 10 11  1  0
 11 12  2  0
 12 13  1  0
 13 14  1  0
 14 15  1  0
 15 16  1  0
 16 17  1  0
 17 18  1  0
 12 19  1  0
 19 20  2  0
 20 21  1  0
 21 22  1  0
 22 23  1  0
 20  9  1  0
 23 21  1  0
 18 16  1  0
  1 24  1  0
  1 25  1  0
  2 26  1  0
 10 27  1  0
 11 28  1  0
 14 29  1  0
 14 30  1  0
 15 31  1  0
 15 32  1  0
 16 33  1  0
 17 34  1  0
 17 35  1  0
 18 36  1  0
 18 37  1  0
 19 38  1  0
 21 39  1  0
 22 40  1  0
 22 41  1  0
 23 42  1  0
 23 43  1  0
M  CHG  2   6  -1  11   1
M  END
>  <UniqueID>  (93) 
79

>  <SMILES>  (93) 
C=CS(=O)(=O)[N-]C(=O)c1c[nH+]c(OCCC2CC2)cc1C1CC1

>  <Energy>  (93) 
577.2789162237854

>  <Genealogy>  (93) 
C=CS(=O)(=O)[N-]C(=O)c1c[nH+]c(OCCC2CC2)cc1C1CC1 (protonated)
C=CS(=O)(=O)[N-]C(=O)c1c[nH+]c(OCCC2CC2)cc1C1CC1 (3D coordinates assigned)
C=CS(=O)(=O)[N-]C(=O)c1c[nH+]c(OCCC2CC2)cc1C1CC1 (nonaromatic ring conformer: 577.2789162237854 kcal/mol)

>  <smiles>  (93) 
C=CS(=O)(=O)NC(=O)c1cnc(OCCC2CC2)cc1C1CC1

>  <score_type>  (93) 
oracle

>  <origin>  (93) 
adg

>  <m_score__min__energy>  (93) 
-8.0099999999999998

>  <m_primary>  (93) 
energy

$$$$
93:0
     RDKit          3D

 35 37  0  0  0  0  0  0  0  0999 V2000
   59.9780   25.5990   46.3680 C   0  0  0  0  0  0  0  0  0  0  0  0
   58.9350   26.3820   46.9410 O   0  0  0  0  0  0  0  0  0  0  0  0
   58.5980   27.6890   46.5570 C   0  0  0  0  0  0  0  0  0  0  0  0
   59.4780   28.7520   46.8100 C   0  0  0  0  0  0  0  0  0  0  0  0
   59.1610   30.0520   46.4380 C   0  0  0  0  0  0  0  0  0  0  0  0
   60.0320   31.0200   46.7030 O   0  0  0  0  0  0  0  0  0  0  0  0
   59.8220   32.2900   46.3880 C   0  0  0  0  0  0  0  0  0  0  0  0
   60.7900   33.2500   46.7010 C   0  0  0  0  0  0  0  0  0  0  0  0
   60.5810   34.5920   46.3740 C   0  0  0  0  0  0  0  0  0  0  0  0
   59.4030   34.9810   45.7320 C   0  0  0  0  0  0  0  0  0  0  0  0
   58.4280   34.0300   45.4140 C   0  0  0  0  0  0  0  0  0  0  0  0
   58.6290   32.6740   45.7390 C   0  0  0  0  0  0  0  0  0  0  0  0
   57.6790   31.6830   45.4390 C   0  0  0  0  0  0  0  0  0  0  0  0
   56.6050   32.0080   44.8600 O   0  0  0  0  0  0  0  0  0  0  0  0
   57.9370   30.3340   45.7910 C   0  0  0  0  0  0  0  0  0  0  0  0
   57.0280   29.2760   45.5240 C   0  0  0  0  0  0  0  0  0  0  0  0
   55.8170   29.6020   44.8760 O   0  0  0  0  0  0  0  0  0  0  0  0
   55.5850   29.7370   43.4770 C   0  0  0  0  0  0  0  0  0  0  0  0
   57.3600   27.9440   45.9090 C   0  0  0  0  0  0  0  0  0  0  0  0
   56.4360   26.9190   45.6280 O   0  0  0  0  0  0  0  0  0  0  0  0
   56.7180   25.5690   45.2720 C   0  0  0  0  0  0  0  0  0  0  0  0
   60.5801   25.1470   47.1700 H   0  0  0  0  0  0  0  0  0  0  0  0
   59.5404   24.8044   45.7458 H   0  0  0  0  0  0  0  0  0  0  0  0
   60.6189   26.2410   45.7458 H   0  0  0  0  0  0  0  0  0  0  0  0
   60.4362   28.5522   47.3120 H   0  0  0  0  0  0  0  0  0  0  0  0
   61.7190   32.9472   47.2063 H   0  0  0  0  0  0  0  0  0  0  0  0
   61.3451   35.3433   46.6224 H   0  0  0  0  0  0  0  0  0  0  0  0
   59.2417   36.0385   45.4757 H   0  0  0  0  0  0  0  0  0  0  0  0
   57.5019   34.3416   44.9089 H   0  0  0  0  0  0  0  0  0  0  0  0
   54.6450   30.2840   43.3123 H   0  0  0  0  0  0  0  0  0  0  0  0
   56.4172   30.2919   43.0192 H   0  0  0  0  0  0  0  0  0  0  0  0
   55.5137   28.7393   43.0192 H   0  0  0  0  0  0  0  0  0  0  0  0
   56.8436   24.9677   46.1845 H   0  0  0  0  0  0  0  0  0  0  0  0
   55.8849   25.1647   44.6783 H   0  0  0  0  0  0  0  0  0  0  0  0
   57.6433   25.5320   44.6783 H   0  0  0  0  0  0  0  0  0  0  0  0
  1  2  1  0
  2  3  1  0
  3  4  2  0
  4  5  1  0
  5  6  1  0
  6  7  1  0
  7  8  2  0
  8  9  1  0
  9 10  2  0
 10 11  1  0
 11 12  2  0
 12 13  1  0
 13 14  2  0
 13 15  1  0
 15 16  1  0
 16 17  1  0
 17 18  1  0
 16 19  2  0
 19 20  1  0
 20 21  1  0
 19  3  1  0
 15  5  2  0
 12  7  1  0
  1 22  1  0
  1 23  1  0
  1 24  1  0
  4 25  1  0
  8 26  1  0
  9 27  1  0
 10 28  1  0
 11 29  1  0
 18 30  1  0
 18 31  1  0
 18 32  1  0
 21 33  1  0
 21 34  1  0
 21 35  1  0
M  END
>  <UniqueID>  (94) 
80

>  <SMILES>  (94) 
COc1cc2oc3ccccc3c(=O)c2c(OC)c1OC

>  <Energy>  (94) 
54.122169369979865

>  <Genealogy>  (94) 
COc1cc2oc3ccccc3c(=O)c2c(OC)c1OC (3D coordinates assigned)
COc1cc2oc3ccccc3c(=O)c2c(OC)c1OC (optimized conformer: 54.122169369979865 kcal/mol)

>  <smiles>  (94) 
COc1cc2oc3ccccc3c(=O)c2c(OC)c1OC

>  <score_type>  (94) 
oracle

>  <origin>  (94) 
adg

>  <m_score__min__energy>  (94) 
-6.6600000000000001

>  <m_primary>  (94) 
energy

$$$$
