0:0
     RDKit          3D

 41 42  0  0  0  0  0  0  0  0999 V2000
   58.5870   21.4560   44.1620 N   0  0  0  0  0  0  0  0  0  0  0  0
   57.4730   22.1850   44.6850 C   0  0  0  0  0  0  0  0  0  0  0  0
   56.1940   21.9910   44.1520 C   0  0  0  0  0  0  0  0  0  0  0  0
   55.1080   22.7070   44.6580 C   0  0  0  0  0  0  0  0  0  0  0  0
   55.2800   23.6230   45.7020 C   0  0  0  0  0  0  0  0  0  0  0  0
   54.1550   24.3100   46.1620 O   0  0  0  0  0  0  0  0  0  0  0  0
   56.5690   23.8240   46.2530 C   0  0  0  0  0  0  0  0  0  0  0  0
   56.8190   24.8150   47.3700 C   0  0  0  0  0  0  0  0  0  0  0  0
   57.3390   26.1350   46.8410 C   0  0  0  0  0  0  0  0  0  0  0  0
   58.6820   26.4890   47.0580 C   0  0  0  0  0  0  0  0  0  0  0  0
   59.1780   27.7070   46.5900 C   0  0  0  0  0  0  0  0  0  0  0  0
   58.3370   28.5980   45.9230 C   0  0  0  0  0  0  0  0  0  0  0  0
   56.9800   28.2850   45.7360 C   0  0  0  0  0  0  0  0  0  0  0  0
   56.0880   29.1760   45.0480 N   0  0  0  0  0  0  0  0  0  0  0  0
   56.4500   30.3640   44.3320 C   0  0  0  0  0  0  0  0  0  0  0  0
   56.0280   30.5680   43.1620 O   0  0  0  0  0  0  0  0  0  0  0  0
   57.4350   31.3140   44.9400 C   0  0  0  0  0  0  0  0  0  0  0  0
   57.6360   32.5560   44.0620 C   0  0  0  0  0  0  0  0  0  0  0  0
   57.6990   33.8170   44.8840 C   0  0  0  0  0  0  0  0  0  0  0  0
   56.6250   34.3580   45.2590 O   0  0  0  0  0  0  0  0  0  0  0  0
   58.9840   34.4100   45.2920 C   0  0  0  0  0  0  0  0  0  0  0  0
   59.2840   35.5860   44.9590 O   0  0  0  0  0  0  0  0  0  0  0  0
   59.8810   33.6660   46.0490 O   0  0  0  0  0  0  0  0  0  0  0  0
   56.4870   27.0510   46.1880 C   0  0  0  0  0  0  0  0  0  0  0  0
   55.1410   26.7490   45.9960 O   0  0  0  0  0  0  0  0  0  0  0  0
   57.6560   23.0990   45.7300 C   0  0  0  0  0  0  0  0  0  0  0  0
   59.0850   20.7490   44.7470 H   0  0  0  0  0  0  0  0  0  0  0  0
   58.9220   21.6190   43.1860 H   0  0  0  0  0  0  0  0  0  0  0  0
   56.0440   21.2727   43.3325 H   0  0  0  0  0  0  0  0  0  0  0  0
   54.1063   22.5496   44.2317 H   0  0  0  0  0  0  0  0  0  0  0  0
   54.1570   25.2970   46.3760 H   0  0  0  0  0  0  0  0  0  0  0  0
   55.8754   24.9928   47.9067 H   0  0  0  0  0  0  0  0  0  0  0  0
   57.5801   24.3906   48.0412 H   0  0  0  0  0  0  0  0  0  0  0  0
   59.3470   25.8011   47.6007 H   0  0  0  0  0  0  0  0  0  0  0  0
   60.2356   27.9651   46.7477 H   0  0  0  0  0  0  0  0  0  0  0  0
   58.7376   29.5490   45.5421 H   0  0  0  0  0  0  0  0  0  0  0  0
   57.0644   31.6300   45.9263 H   0  0  0  0  0  0  0  0  0  0  0  0
   58.4014   30.7966   45.0314 H   0  0  0  0  0  0  0  0  0  0  0  0
   58.5769   32.4482   43.5024 H   0  0  0  0  0  0  0  0  0  0  0  0
   56.7772   32.6351   43.3792 H   0  0  0  0  0  0  0  0  0  0  0  0
   58.6621   23.2523   46.1474 H   0  0  0  0  0  0  0  0  0  0  0  0
  1  2  1  0
  2  3  2  0
  3  4  1  0
  4  5  2  0
  5  6  1  0
  5  7  1  0
  7  8  1  0
  8  9  1  0
  9 10  2  0
 10 11  1  0
 11 12  2  0
 12 13  1  0
 13 14  1  0
 14 15  1  0
 15 16  2  0
 15 17  1  0
 17 18  1  0
 18 19  1  0
 19 20  2  0
 19 21  1  0
 21 22  2  0
 21 23  1  0
 13 24  2  0
 24 25  1  0
  7 26  2  0
 26  2  1  0
 24  9  1  0
  1 27  1  0
  1 28  1  0
  3 29  1  0
  4 30  1  0
  6 31  1  0
  8 32  1  0
  8 33  1  0
 10 34  1  0
 11 35  1  0
 12 36  1  0
 17 37  1  0
 17 38  1  0
 18 39  1  0
 18 40  1  0
 26 41  1  0
M  CHG  3  14  -1  23  -1  25  -1
M  END
>  <UniqueID>  (1) 
1

>  <SMILES>  (1) 
Nc1ccc(O)c(Cc2cccc([N-]C(=O)CCC(=O)C(=O)[O-])c2[O-])c1

>  <Energy>  (1) 
40.977272548713856

>  <Genealogy>  (1) 
Nc1ccc(O)c(Cc2cccc([N-]C(=O)CCC(=O)C(=O)[O-])c2[O-])c1 (protonated)
Nc1ccc(O)c(Cc2cccc([N-]C(=O)CCC(=O)C(=O)[O-])c2[O-])c1 (3D coordinates assigned)
Nc1ccc(O)c(Cc2cccc([N-]C(=O)CCC(=O)C(=O)[O-])c2[O-])c1 (optimized conformer: 40.977272548713856 kcal/mol)

>  <smiles>  (1) 
Nc1ccc(O)c(Cc2cccc(NC(=O)CCC(=O)C(=O)O)c2O)c1

>  <score_type>  (1) 
oracle

>  <origin>  (1) 
adg

>  <m_score__min__energy>  (1) 
-15.199999999999999

>  <m_primary>  (1) 
energy

$$$$
1:0
     RDKit          3D

 63 66  0  0  0  0  0  0  0  0999 V2000
   56.9735   34.2844   46.0953 H   0  0  0  0  0  0  0  0  0  0  0  0
   57.6500   33.4370   45.9100 C   0  0  0  0  0  0  0  0  0  0  0  0
   58.5740   33.1660   46.8580 C   0  0  0  0  0  0  0  0  0  0  0  0
   59.7120   34.0800   47.1960 C   0  0  0  0  0  0  0  0  0  0  0  0
   59.9460   35.0900   46.4820 O   0  0  0  0  0  0  0  0  0  0  0  0
   60.5660   33.7860   48.3840 C   0  0  0  0  0  0  0  0  0  0  0  0
   61.6350   34.5230   48.7610 C   0  0  0  0  0  0  0  0  0  0  0  0
   61.6006   35.6018   48.5490 H   0  0  0  0  0  0  0  0  0  0  0  0
   62.8440   34.0070   49.4320 C   0  0  0  0  0  0  0  0  0  0  0  0
   63.1990   34.4450   50.7210 C   0  0  0  0  0  0  0  0  0  0  0  0
   62.5467   35.1472   51.2607 H   0  0  0  0  0  0  0  0  0  0  0  0
   64.3790   33.9900   51.3180 C   0  0  0  0  0  0  0  0  0  0  0  0
   64.6428   34.3195   52.3338 H   0  0  0  0  0  0  0  0  0  0  0  0
   65.2240   33.1170   50.6260 C   0  0  0  0  0  0  0  0  0  0  0  0
   66.1492   32.7561   51.0990 H   0  0  0  0  0  0  0  0  0  0  0  0
   64.8920   32.7030   49.3320 C   0  0  0  0  0  0  0  0  0  0  0  0
   65.5598   32.0209   48.7853 H   0  0  0  0  0  0  0  0  0  0  0  0
   63.7120   33.1550   48.7320 C   0  0  0  0  0  0  0  0  0  0  0  0
   63.4635   32.8413   47.7074 H   0  0  0  0  0  0  0  0  0  0  0  0
   60.1250   32.6580   49.2730 C   0  0  0  0  0  0  0  0  0  0  0  0
   59.3427   33.0143   49.9594 H   0  0  0  0  0  0  0  0  0  0  0  0
   60.9811   32.2912   49.8583 H   0  0  0  0  0  0  0  0  0  0  0  0
   59.5940   31.5750   48.4450 N   0  0  0  0  0  0  0  0  0  0  0  0
   60.1740   30.2590   48.5130 C   0  0  0  0  0  0  0  0  0  0  0  0
   61.4260   30.1350   48.5840 O   0  0  0  0  0  0  0  0  0  0  0  0
   59.3090   29.0260   48.4530 C   0  0  0  0  0  0  0  0  0  0  0  0
   58.9129   28.8239   49.4591 H   0  0  0  0  0  0  0  0  0  0  0  0
   58.5016   29.2193   47.7313 H   0  0  0  0  0  0  0  0  0  0  0  0
   60.0810   27.7870   47.9690 C   0  0  0  0  0  0  0  0  0  0  0  0
   60.9874   28.1281   47.4474 H   0  0  0  0  0  0  0  0  0  0  0  0
   60.3024   27.1852   48.8628 H   0  0  0  0  0  0  0  0  0  0  0  0
   59.2830   26.8740   47.0070 C   0  0  0  0  0  0  0  0  0  0  0  0
   59.4718   25.8257   47.2818 H   0  0  0  0  0  0  0  0  0  0  0  0
   58.2205   27.1407   47.1070 H   0  0  0  0  0  0  0  0  0  0  0  0
   59.6580   27.0650   45.5720 N   0  0  0  0  0  0  0  0  0  0  0  0
   60.3240   26.3080   45.2880 H   0  0  0  0  0  0  0  0  0  0  0  0
   58.4840   26.9430   44.6800 C   0  0  0  0  0  0  0  0  0  0  0  0
   58.8303   26.9236   43.6361 H   0  0  0  0  0  0  0  0  0  0  0  0
   57.9535   26.0144   44.9374 H   0  0  0  0  0  0  0  0  0  0  0  0
   57.5020   28.1240   44.8600 C   0  0  0  0  0  0  0  0  0  0  0  0
   57.2106   28.4922   43.8653 H   0  0  0  0  0  0  0  0  0  0  0  0
   56.6381   27.7496   45.4288 H   0  0  0  0  0  0  0  0  0  0  0  0
   58.0590   29.2010   45.5950 O   0  0  0  0  0  0  0  0  0  0  0  0
   59.3400   29.5190   45.0930 C   0  0  0  0  0  0  0  0  0  0  0  0
   59.2649   29.7091   44.0122 H   0  0  0  0  0  0  0  0  0  0  0  0
   59.7086   30.4120   45.6190 H   0  0  0  0  0  0  0  0  0  0  0  0
   60.3350   28.3650   45.3330 C   0  0  0  0  0  0  0  0  0  0  0  0
   60.9813   28.2678   44.4482 H   0  0  0  0  0  0  0  0  0  0  0  0
   60.9149   28.6085   46.2355 H   0  0  0  0  0  0  0  0  0  0  0  0
   58.4330   31.8470   47.5930 C   0  0  0  0  0  0  0  0  0  0  0  0
   57.5306   31.8834   48.2210 H   0  0  0  0  0  0  0  0  0  0  0  0
   58.3604   31.0435   46.8452 H   0  0  0  0  0  0  0  0  0  0  0  0
   57.4700   32.6940   44.6470 C   0  0  0  0  0  0  0  0  0  0  0  0
   56.6620   31.5430   44.5910 C   0  0  0  0  0  0  0  0  0  0  0  0
   56.1236   31.2062   45.4892 H   0  0  0  0  0  0  0  0  0  0  0  0
   56.5420   30.8260   43.3950 C   0  0  0  0  0  0  0  0  0  0  0  0
   55.8964   29.9365   43.3499 H   0  0  0  0  0  0  0  0  0  0  0  0
   57.2430   31.2400   42.2560 C   0  0  0  0  0  0  0  0  0  0  0  0
   57.1434   30.6786   41.3153 H   0  0  0  0  0  0  0  0  0  0  0  0
   58.0700   32.3670   42.3130 C   0  0  0  0  0  0  0  0  0  0  0  0
   58.6246   32.6877   41.4188 H   0  0  0  0  0  0  0  0  0  0  0  0
   58.1920   33.0870   43.5080 C   0  0  0  0  0  0  0  0  0  0  0  0
   58.8554   33.9632   43.5548 H   0  0  0  0  0  0  0  0  0  0  0  0
  1  2  1  0
  2  3  2  0
  3  4  1  0
  4  5  2  0
  4  6  1  0
  6  7  2  0
  7  8  1  0
  7  9  1  0
  9 10  2  0
 10 11  1  0
 10 12  1  0
 12 13  1  0
 12 14  2  0
 14 15  1  0
 14 16  1  0
 16 17  1  0
 16 18  2  0
 18 19  1  0
  6 20  1  0
 20 21  1  0
 20 22  1  0
 20 23  1  0
 23 24  1  0
 24 25  2  0
 24 26  1  0
 26 27  1  0
 26 28  1  0
 26 29  1  0
 29 30  1  0
 29 31  1  0
 29 32  1  0
 32 33  1  0
 32 34  1  0
 32 35  1  0
 35 36  1  0
 35 37  1  0
 37 38  1  0
 37 39  1  0
 37 40  1  0
 40 41  1  0
 40 42  1  0
 40 43  1  0
 43 44  1  0
 44 45  1  0
 44 46  1  0
 44 47  1  0
 47 48  1  0
 47 49  1  0
 23 50  1  0
 50 51  1  0
 50 52  1  0
  2 53  1  0
 53 54  2  0
 54 55  1  0
 54 56  1  0
 56 57  1  0
 56 58  2  0
 58 59  1  0
 58 60  1  0
 60 61  1  0
 60 62  2  0
 62 63  1  0
 50  3  1  0
 62 53  1  0
 18  9  1  0
 47 35  1  0
M  CHG  1  35   1
M  END
>  <UniqueID>  (2) 
2

>  <SMILES>  (2) 
O=C1/C(=C\c2ccccc2)CN(C(=O)CCC[NH+]2CCOCC2)C/C1=C/c1ccccc1

>  <Energy>  (2) 
99.9369293024446

>  <Genealogy>  (2) 
O=C1C(=Cc2ccccc2)CN(C(=O)CCC[NH+]2CCOCC2)CC1=Cc1ccccc1 (protonated)
O=C1/C(=C\c2ccccc2)CN(C(=O)CCC[NH+]2CCOCC2)C/C1=C/c1ccccc1 (cis-trans isomerization)
O=C1/C(=C\c2ccccc2)CN(C(=O)CCC[NH+]2CCOCC2)C/C1=C/c1ccccc1 (3D coordinates assigned)
O=C1/C(=C\c2ccccc2)CN(C(=O)CCC[NH+]2CCOCC2)C/C1=C/c1ccccc1 (nonaromatic ring conformer: 99.9369293024446 kcal/mol)

>  <smiles>  (2) 
O=C1C(=Cc2ccccc2)CN(C(=O)CCCN2CCOCC2)CC1=Cc1ccccc1

>  <score_type>  (2) 
oracle

>  <origin>  (2) 
adg

>  <m_score__min__energy>  (2) 
-8.1699999999999999

>  <m_primary>  (2) 
energy

$$$$
2:0
     RDKit          3D

 44 46  0  0  0  0  0  0  0  0999 V2000
   63.3340   31.7340   47.3680 N   0  0  0  0  0  0  0  0  0  0  0  0
   62.9390   33.4100   47.2060 S   0  0  0  0  0  0  0  0  0  0  0  0
   63.5470   34.1830   48.3430 O   0  0  0  0  0  0  0  0  0  0  0  0
   63.5310   33.9250   45.9240 O   0  0  0  0  0  0  0  0  0  0  0  0
   61.1790   33.6280   47.1580 C   0  0  0  0  0  0  0  0  0  0  0  0
   60.6580   34.5850   46.2730 C   0  0  0  0  0  0  0  0  0  0  0  0
   59.2850   34.8390   46.2240 C   0  0  0  0  0  0  0  0  0  0  0  0
   58.4150   34.1410   47.0620 C   0  0  0  0  0  0  0  0  0  0  0  0
   58.9140   33.1780   47.9410 C   0  0  0  0  0  0  0  0  0  0  0  0
   60.2890   32.9020   47.9900 C   0  0  0  0  0  0  0  0  0  0  0  0
   60.7540   31.8400   48.8970 C   0  0  0  0  0  0  0  0  0  0  0  0
   61.6070   32.1260   49.7810 O   0  0  0  0  0  0  0  0  0  0  0  0
   60.2290   30.5020   48.8030 N   0  0  0  0  0  0  0  0  0  0  0  0
   60.9660   29.3750   49.3950 C   0  0  0  0  0  0  0  0  0  0  0  0
   60.9120   28.1550   48.4660 C   0  0  0  0  0  0  0  0  0  0  0  0
   59.5840   27.9910   47.8580 N   0  0  0  0  0  0  0  0  0  0  0  0
   59.4180   27.0270   46.8020 C   0  0  0  0  0  0  0  0  0  0  0  0
   60.0560   25.9400   46.8510 O   0  0  0  0  0  0  0  0  0  0  0  0
   58.4950   27.2900   45.6420 C   0  0  0  0  0  0  0  0  0  0  0  0
   57.1790   26.5990   45.8350 C   0  0  0  0  0  0  0  0  0  0  0  0
   57.0490   25.3330   46.2710 N   0  0  0  0  0  0  0  0  0  0  0  0
   55.7100   25.1680   46.3480 C   0  0  0  0  0  0  0  0  0  0  0  0
   55.1810   24.0890   46.7200 O   0  0  0  0  0  0  0  0  0  0  0  0
   54.9840   26.2520   46.0000 N   0  0  0  0  0  0  0  0  0  0  0  0
   55.9300   27.1510   45.6840 C   0  0  0  0  0  0  0  0  0  0  0  0
   55.6570   28.4490   45.2720 O   0  0  0  0  0  0  0  0  0  0  0  0
   58.4670   28.8210   48.3290 C   0  0  0  0  0  0  0  0  0  0  0  0
   58.8710   30.2940   48.2690 C   0  0  0  0  0  0  0  0  0  0  0  0
   64.3700   31.6460   47.2790 H   0  0  0  0  0  0  0  0  0  0  0  0
   63.0850   31.4460   48.3400 H   0  0  0  0  0  0  0  0  0  0  0  0
   61.3381   35.1410   45.6109 H   0  0  0  0  0  0  0  0  0  0  0  0
   58.8897   35.5899   45.5241 H   0  0  0  0  0  0  0  0  0  0  0  0
   57.3354   34.3495   47.0301 H   0  0  0  0  0  0  0  0  0  0  0  0
   58.2239   32.6313   48.6004 H   0  0  0  0  0  0  0  0  0  0  0  0
   62.0151   29.6681   49.5480 H   0  0  0  0  0  0  0  0  0  0  0  0
   60.5034   29.1118   50.3576 H   0  0  0  0  0  0  0  0  0  0  0  0
   61.6565   28.2830   47.6664 H   0  0  0  0  0  0  0  0  0  0  0  0
   61.1268   27.2583   49.0659 H   0  0  0  0  0  0  0  0  0  0  0  0
   58.3234   28.3732   45.5573 H   0  0  0  0  0  0  0  0  0  0  0  0
   58.9639   26.9012   44.7260 H   0  0  0  0  0  0  0  0  0  0  0  0
   57.5894   28.6544   47.6871 H   0  0  0  0  0  0  0  0  0  0  0  0
   58.2179   28.5494   49.3654 H   0  0  0  0  0  0  0  0  0  0  0  0
   58.8428   30.6304   47.2221 H   0  0  0  0  0  0  0  0  0  0  0  0
   58.1652   30.8716   48.8840 H   0  0  0  0  0  0  0  0  0  0  0  0
  1  2  1  0
  2  3  2  0
  2  4  2  0
  2  5  1  0
  5  6  2  0
  6  7  1  0
  7  8  2  0
  8  9  1  0
  9 10  2  0
 10 11  1  0
 11 12  2  0
 11 13  1  0
 13 14  1  0
 14 15  1  0
 15 16  1  0
 16 17  1  0
 17 18  2  0
 17 19  1  0
 19 20  1  0
 20 21  1  0
 21 22  1  0
 22 23  2  0
 22 24  1  0
 24 25  1  0
 25 26  1  0
 16 27  1  0
 27 28  1  0
 10  5  1  0
 28 13  1  0
 25 20  2  0
  1 29  1  0
  1 30  1  0
  6 31  1  0
  7 32  1  0
  8 33  1  0
  9 34  1  0
 14 35  1  0
 14 36  1  0
 15 37  1  0
 15 38  1  0
 19 39  1  0
 19 40  1  0
 27 41  1  0
 27 42  1  0
 28 43  1  0
 28 44  1  0
M  CHG  3  21  -1  24  -1  26  -1
M  END
>  <UniqueID>  (3) 
3

>  <SMILES>  (3) 
NS(=O)(=O)c1ccccc1C(=O)N1CCN(C(=O)Cc2[n-]c(=O)[n-]c2[O-])CC1

>  <Energy>  (3) 
81.55087559262078

>  <Genealogy>  (3) 
NS(=O)(=O)c1ccccc1C(=O)N1CCN(C(=O)Cc2[n-]c(=O)[n-]c2[O-])CC1 (protonated)
NS(=O)(=O)c1ccccc1C(=O)N1CCN(C(=O)Cc2[n-]c(=O)[n-]c2[O-])CC1 (3D coordinates assigned)
NS(=O)(=O)c1ccccc1C(=O)N1CCN(C(=O)Cc2[n-]c(=O)[n-]c2[O-])CC1 (nonaromatic ring conformer: 81.55087559262078 kcal/mol)

>  <smiles>  (3) 
NS(=O)(=O)c1ccccc1C(=O)N1CCN(C(=O)Cc2[nH]c(=O)[nH]c2O)CC1

>  <score_type>  (3) 
oracle

>  <origin>  (3) 
adg

>  <m_score__min__energy>  (3) 
-16.390000000000001

>  <m_primary>  (3) 
energy

$$$$
3:0
     RDKit          3D

 51 53  0  0  0  0  0  0  0  0999 V2000
   58.4930   30.4320   49.6140 O   0  0  0  0  0  0  0  0  0  0  0  0
   59.1340   31.1730   48.8220 C   0  0  0  0  0  0  0  0  0  0  0  0
   60.2590   30.6050   48.0120 C   0  0  0  0  0  0  0  0  0  0  0  0
   60.0590   29.1260   47.7730 C   0  0  0  0  0  0  0  0  0  0  0  0
   60.4930   28.2290   48.7660 C   0  0  0  0  0  0  0  0  0  0  0  0
   60.3580   26.8520   48.5910 C   0  0  0  0  0  0  0  0  0  0  0  0
   59.7830   26.3480   47.4260 C   0  0  0  0  0  0  0  0  0  0  0  0
   59.3350   27.2220   46.4320 C   0  0  0  0  0  0  0  0  0  0  0  0
   59.4580   28.6130   46.5910 C   0  0  0  0  0  0  0  0  0  0  0  0
   58.9530   29.4990   45.5180 C   0  0  0  0  0  0  0  0  0  0  0  0
   59.6410   29.6740   44.4760 O   0  0  0  0  0  0  0  0  0  0  0  0
   57.6090   30.1580   45.6240 C   0  0  0  0  0  0  0  0  0  0  0  0
   56.5610   29.6360   44.2790 S   0  0  0  0  0  0  0  0  0  0  0  0
   57.2830   28.6020   43.4590 O   0  0  0  0  0  0  0  0  0  0  0  0
   56.2290   30.8140   43.4100 O   0  0  0  0  0  0  0  0  0  0  0  0
   55.1450   28.9700   44.8870 O   0  0  0  0  0  0  0  0  0  0  0  0
   58.7460   32.5360   48.6200 N   0  0  0  0  0  0  0  0  0  0  0  0
   58.6230   33.2120   47.3590 C   0  0  0  0  0  0  0  0  0  0  0  0
   57.3890   33.2750   46.6840 C   0  0  0  0  0  0  0  0  0  0  0  0
   57.2910   33.9210   45.4500 C   0  0  0  0  0  0  0  0  0  0  0  0
   58.4170   34.5170   44.8800 C   0  0  0  0  0  0  0  0  0  0  0  0
   59.6410   34.4820   45.5510 C   0  0  0  0  0  0  0  0  0  0  0  0
   59.7540   33.8440   46.7970 C   0  0  0  0  0  0  0  0  0  0  0  0
   61.0270   33.8200   47.4710 N   0  0  0  0  0  0  0  0  0  0  0  0
   62.2460   33.4490   46.7370 C   0  0  0  0  0  0  0  0  0  0  0  0
   63.1600   32.6110   47.6360 C   0  0  0  0  0  0  0  0  0  0  0  0
   63.5080   33.3280   48.9570 C   0  0  0  0  0  0  0  0  0  0  0  0
   62.5340   34.4620   49.3270 C   0  0  0  0  0  0  0  0  0  0  0  0
   61.0960   34.1440   48.9030 C   0  0  0  0  0  0  0  0  0  0  0  0
   60.3026   31.1237   47.0429 H   0  0  0  0  0  0  0  0  0  0  0  0
   61.1981   30.7473   48.5668 H   0  0  0  0  0  0  0  0  0  0  0  0
   60.9439   28.6181   49.6908 H   0  0  0  0  0  0  0  0  0  0  0  0
   60.7061   26.1624   49.3741 H   0  0  0  0  0  0  0  0  0  0  0  0
   59.6817   25.2613   47.2887 H   0  0  0  0  0  0  0  0  0  0  0  0
   58.8813   26.8170   45.5154 H   0  0  0  0  0  0  0  0  0  0  0  0
   57.1411   29.8779   46.5793 H   0  0  0  0  0  0  0  0  0  0  0  0
   57.7389   31.2492   45.5758 H   0  0  0  0  0  0  0  0  0  0  0  0
   56.4968   32.8126   47.1314 H   0  0  0  0  0  0  0  0  0  0  0  0
   56.3246   33.9603   44.9261 H   0  0  0  0  0  0  0  0  0  0  0  0
   58.3402   35.0144   43.9019 H   0  0  0  0  0  0  0  0  0  0  0  0
   60.5241   34.9581   45.0999 H   0  0  0  0  0  0  0  0  0  0  0  0
   61.9721   32.8628   45.8474 H   0  0  0  0  0  0  0  0  0  0  0  0
   62.7770   34.3624   46.4309 H   0  0  0  0  0  0  0  0  0  0  0  0
   62.6515   31.6645   47.8717 H   0  0  0  0  0  0  0  0  0  0  0  0
   64.0999   32.4403   47.0907 H   0  0  0  0  0  0  0  0  0  0  0  0
   63.4979   32.5845   49.7677 H   0  0  0  0  0  0  0  0  0  0  0  0
   64.4971   33.7891   48.8190 H   0  0  0  0  0  0  0  0  0  0  0  0
   62.5586   34.6100   50.4167 H   0  0  0  0  0  0  0  0  0  0  0  0
   62.8523   35.3707   48.7951 H   0  0  0  0  0  0  0  0  0  0  0  0
   60.7318   33.2840   49.4841 H   0  0  0  0  0  0  0  0  0  0  0  0
   60.4716   35.0298   49.0917 H   0  0  0  0  0  0  0  0  0  0  0  0
  1  2  2  0
  2  3  1  0
  3  4  1  0
  4  5  2  0
  5  6  1  0
  6  7  2  0
  7  8  1  0
  8  9  2  0
  9 10  1  0
 10 11  2  0
 10 12  1  0
 12 13  1  0
 13 14  2  0
 13 15  2  0
 13 16  1  0
  2 17  1  0
 17 18  1  0
 18 19  2  0
 19 20  1  0
 20 21  2  0
 21 22  1  0
 22 23  2  0
 23 24  1  0
 24 25  1  0
 25 26  1  0
 26 27  1  0
 27 28  1  0
 28 29  1  0
  9  4  1  0
 23 18  1  0
 29 24  1  0
  3 30  1  0
  3 31  1  0
  5 32  1  0
  6 33  1  0
  7 34  1  0
  8 35  1  0
 12 36  1  0
 12 37  1  0
 19 38  1  0
 20 39  1  0
 21 40  1  0
 22 41  1  0
 25 42  1  0
 25 43  1  0
 26 44  1  0
 26 45  1  0
 27 46  1  0
 27 47  1  0
 28 48  1  0
 28 49  1  0
 29 50  1  0
 29 51  1  0
M  CHG  2  16  -1  17  -1
M  END
>  <UniqueID>  (4) 
4

>  <SMILES>  (4) 
O=C(Cc1ccccc1C(=O)CS(=O)(=O)[O-])[N-]c1ccccc1N1CCCCC1

>  <Energy>  (4) 
61.397445229014664

>  <Genealogy>  (4) 
O=C(Cc1ccccc1C(=O)CS(=O)(=O)[O-])[N-]c1ccccc1N1CCCCC1 (protonated)
O=C(Cc1ccccc1C(=O)CS(=O)(=O)[O-])[N-]c1ccccc1N1CCCCC1 (3D coordinates assigned)
O=C(Cc1ccccc1C(=O)CS(=O)(=O)[O-])[N-]c1ccccc1N1CCCCC1 (nonaromatic ring conformer: 61.397445229014664 kcal/mol)

>  <smiles>  (4) 
O=C(Cc1ccccc1C(=O)CS(=O)(=O)O)Nc1ccccc1N1CCCCC1

>  <score_type>  (4) 
oracle

>  <origin>  (4) 
adg

>  <m_score__min__energy>  (4) 
-14.02

>  <m_primary>  (4) 
energy

$$$$
4:0
     RDKit          3D

 34 36  0  0  0  0  0  0  0  0999 V2000
   55.5210   27.0840   45.6190 N   0  0  0  0  0  0  0  0  0  0  0  0
   56.6050   26.3720   46.2110 C   0  0  0  0  0  0  0  0  0  0  0  0
   56.3760   25.5030   47.0950 O   0  0  0  0  0  0  0  0  0  0  0  0
   58.0150   26.6760   45.8040 C   0  0  0  0  0  0  0  0  0  0  0  0
   58.4830   27.9320   46.4350 N   0  0  0  0  0  0  0  0  0  0  0  0
   58.0830   29.1350   45.8980 C   0  0  0  0  0  0  0  0  0  0  0  0
   57.2830   29.1630   44.9190 O   0  0  0  0  0  0  0  0  0  0  0  0
   58.5370   30.3490   46.4490 C   0  0  0  0  0  0  0  0  0  0  0  0
   58.1380   31.6580   45.8710 C   0  0  0  0  0  0  0  0  0  0  0  0
   58.0960   31.8480   44.4790 C   0  0  0  0  0  0  0  0  0  0  0  0
   57.7330   33.0890   43.9460 C   0  0  0  0  0  0  0  0  0  0  0  0
   57.4130   34.1500   44.7970 C   0  0  0  0  0  0  0  0  0  0  0  0
   57.4600   33.9730   46.1810 C   0  0  0  0  0  0  0  0  0  0  0  0
   57.8230   32.7350   46.7190 C   0  0  0  0  0  0  0  0  0  0  0  0
   59.3440   30.3210   47.5420 N   0  0  0  0  0  0  0  0  0  0  0  0
   59.7220   29.1480   48.1150 C   0  0  0  0  0  0  0  0  0  0  0  0
   60.5440   29.1610   49.2550 C   0  0  0  0  0  0  0  0  0  0  0  0
   60.9260   27.9660   49.8610 C   0  0  0  0  0  0  0  0  0  0  0  0
   60.4890   26.7500   49.3410 C   0  0  0  0  0  0  0  0  0  0  0  0
   59.6740   26.7200   48.2070 C   0  0  0  0  0  0  0  0  0  0  0  0
   59.2810   27.9200   47.5630 C   0  0  0  0  0  0  0  0  0  0  0  0
   55.5120   28.1280   45.6020 H   0  0  0  0  0  0  0  0  0  0  0  0
   58.6680   25.8487   46.1187 H   0  0  0  0  0  0  0  0  0  0  0  0
   58.0497   26.7951   44.7110 H   0  0  0  0  0  0  0  0  0  0  0  0
   58.3500   31.0163   43.8053 H   0  0  0  0  0  0  0  0  0  0  0  0
   57.6994   33.2300   42.8556 H   0  0  0  0  0  0  0  0  0  0  0  0
   57.1241   35.1246   44.3765 H   0  0  0  0  0  0  0  0  0  0  0  0
   57.2107   34.8100   46.8499 H   0  0  0  0  0  0  0  0  0  0  0  0
   57.8625   32.6025   47.8103 H   0  0  0  0  0  0  0  0  0  0  0  0
   59.6860   31.2230   47.9460 H   0  0  0  0  0  0  0  0  0  0  0  0
   60.8875   30.1196   49.6709 H   0  0  0  0  0  0  0  0  0  0  0  0
   61.5730   27.9829   50.7505 H   0  0  0  0  0  0  0  0  0  0  0  0
   60.7872   25.8087   49.8257 H   0  0  0  0  0  0  0  0  0  0  0  0
   59.3329   25.7530   47.8087 H   0  0  0  0  0  0  0  0  0  0  0  0
  1  2  1  0
  2  3  2  0
  2  4  1  0
  4  5  1  0
  5  6  1  0
  6  7  2  0
  6  8  1  0
  8  9  1  0
  9 10  2  0
 10 11  1  0
 11 12  2  0
 12 13  1  0
 13 14  2  0
  8 15  2  0
 15 16  1  0
 16 17  2  0
 17 18  1  0
 18 19  2  0
 19 20  1  0
 20 21  2  0
 21  5  1  0
 14  9  1  0
 21 16  1  0
  1 22  1  0
  4 23  1  0
  4 24  1  0
 10 25  1  0
 11 26  1  0
 12 27  1  0
 13 28  1  0
 14 29  1  0
 15 30  1  0
 17 31  1  0
 18 32  1  0
 19 33  1  0
 20 34  1  0
M  CHG  2   1  -1  15   1
M  END
>  <UniqueID>  (5) 
5

>  <SMILES>  (5) 
[NH-]C(=O)Cn1c(=O)c(-c2ccccc2)[nH+]c2ccccc21

>  <Energy>  (5) 
52.59736988200018

>  <Genealogy>  (5) 
[NH-]C(=O)Cn1c(=O)c(-c2ccccc2)[nH+]c2ccccc21 (protonated)
[NH-]C(=O)Cn1c(=O)c(-c2ccccc2)[nH+]c2ccccc21 (3D coordinates assigned)
[NH-]C(=O)Cn1c(=O)c(-c2ccccc2)[nH+]c2ccccc21 (optimized conformer: 52.59736988200018 kcal/mol)

>  <smiles>  (5) 
NC(=O)Cn1c(=O)c(-c2ccccc2)nc2ccccc21

>  <score_type>  (5) 
oracle

>  <origin>  (5) 
adg

>  <m_score__min__energy>  (5) 
-8.7300000000000004

>  <m_primary>  (5) 
energy

$$$$
5:0
     RDKit          3D

 67 71  0  0  0  0  0  0  0  0999 V2000
   61.0120   26.6810   48.1540 O   0  0  0  0  0  0  0  0  0  0  0  0
   60.2760   27.5870   48.6270 C   0  0  0  0  0  0  0  0  0  0  0  0
   60.6840   28.2920   49.8850 C   0  0  0  0  0  0  0  0  0  0  0  0
   59.8730   29.4970   50.0870 N   0  0  0  0  0  0  0  0  0  0  0  0
   58.8150   29.4180   50.9000 N   0  0  0  0  0  0  0  0  0  0  0  0
   57.9640   30.4620   51.0970 C   0  0  0  0  0  0  0  0  0  0  0  0
   56.8020   30.2990   52.0000 C   0  0  0  0  0  0  0  0  0  0  0  0
   56.9370   29.5520   53.1840 C   0  0  0  0  0  0  0  0  0  0  0  0
   55.8440   29.3740   54.0360 C   0  0  0  0  0  0  0  0  0  0  0  0
   54.6040   29.9230   53.7080 C   0  0  0  0  0  0  0  0  0  0  0  0
   54.4530   30.6600   52.5310 C   0  0  0  0  0  0  0  0  0  0  0  0
   53.2430   31.1800   52.2080 F   0  0  0  0  0  0  0  0  0  0  0  0
   55.5460   30.8510   51.6800 C   0  0  0  0  0  0  0  0  0  0  0  0
   58.2050   31.6670   50.4240 C   0  0  0  0  0  0  0  0  0  0  0  0
   59.3050   31.7620   49.5770 C   0  0  0  0  0  0  0  0  0  0  0  0
   60.1390   30.6560   49.4070 C   0  0  0  0  0  0  0  0  0  0  0  0
   61.1250   30.7390   48.6230 O   0  0  0  0  0  0  0  0  0  0  0  0
   59.0540   27.9520   47.9680 N   0  0  0  0  0  0  0  0  0  0  0  0
   58.2160   27.0360   47.2480 C   0  0  0  0  0  0  0  0  0  0  0  0
   58.3080   25.6720   47.5550 C   0  0  0  0  0  0  0  0  0  0  0  0
   57.4820   24.7440   46.9180 C   0  0  0  0  0  0  0  0  0  0  0  0
   56.5560   25.1720   45.9640 C   0  0  0  0  0  0  0  0  0  0  0  0
   56.4710   26.5240   45.6270 C   0  0  0  0  0  0  0  0  0  0  0  0
   57.3130   27.4660   46.2430 C   0  0  0  0  0  0  0  0  0  0  0  0
   57.2810   28.8600   45.7620 C   0  0  0  0  0  0  0  0  0  0  0  0
   56.2540   29.2780   45.1550 O   0  0  0  0  0  0  0  0  0  0  0  0
   58.4110   29.7280   45.9710 N   0  0  0  0  0  0  0  0  0  0  0  0
   58.4690   31.0920   45.5260 C   0  0  0  0  0  0  0  0  0  0  0  0
   58.0340   31.4590   44.2400 C   0  0  0  0  0  0  0  0  0  0  0  0
   58.1370   32.7870   43.8190 C   0  0  0  0  0  0  0  0  0  0  0  0
   58.6760   33.7550   44.6710 C   0  0  0  0  0  0  0  0  0  0  0  0
   59.1400   33.3970   45.9430 C   0  0  0  0  0  0  0  0  0  0  0  0
   59.8660   34.6080   47.0010 S   0  0  0  0  0  0  0  0  0  0  0  0
   59.0540   34.7040   48.2660 O   0  0  0  0  0  0  0  0  0  0  0  0
   59.8220   35.9480   46.3170 O   0  0  0  0  0  0  0  0  0  0  0  0
   61.5230   34.2170   47.3930 N   0  0  0  0  0  0  0  0  0  0  0  0
   61.6940   34.0940   48.8500 C   0  0  0  0  0  0  0  0  0  0  0  0
   63.1410   33.6970   49.1630 C   0  0  0  0  0  0  0  0  0  0  0  0
   63.4750   32.4750   48.5300 O   0  0  0  0  0  0  0  0  0  0  0  0
   63.3560   32.6090   47.1260 C   0  0  0  0  0  0  0  0  0  0  0  0
   61.9150   32.9600   46.7330 C   0  0  0  0  0  0  0  0  0  0  0  0
   59.0410   32.0640   46.3610 C   0  0  0  0  0  0  0  0  0  0  0  0
   60.5447   27.6147   50.7405 H   0  0  0  0  0  0  0  0  0  0  0  0
   61.7407   28.5855   49.8005 H   0  0  0  0  0  0  0  0  0  0  0  0
   57.9088   29.1052   53.4408 H   0  0  0  0  0  0  0  0  0  0  0  0
   55.9614   28.8000   54.9670 H   0  0  0  0  0  0  0  0  0  0  0  0
   53.7438   29.7752   54.3774 H   0  0  0  0  0  0  0  0  0  0  0  0
   55.4245   31.4353   50.7560 H   0  0  0  0  0  0  0  0  0  0  0  0
   57.5333   32.5269   50.5634 H   0  0  0  0  0  0  0  0  0  0  0  0
   59.5156   32.7017   49.0455 H   0  0  0  0  0  0  0  0  0  0  0  0
   59.0371   25.3295   48.3041 H   0  0  0  0  0  0  0  0  0  0  0  0
   57.5605   23.6756   47.1675 H   0  0  0  0  0  0  0  0  0  0  0  0
   55.8923   24.4422   45.4772 H   0  0  0  0  0  0  0  0  0  0  0  0
   55.7401   26.8544   44.8743 H   0  0  0  0  0  0  0  0  0  0  0  0
   59.2040   29.3770   46.5560 H   0  0  0  0  0  0  0  0  0  0  0  0
   57.6123   30.6997   43.5650 H   0  0  0  0  0  0  0  0  0  0  0  0
   57.7928   33.0718   42.8138 H   0  0  0  0  0  0  0  0  0  0  0  0
   58.7360   34.8026   44.3410 H   0  0  0  0  0  0  0  0  0  0  0  0
   61.4666   35.0580   49.3285 H   0  0  0  0  0  0  0  0  0  0  0  0
   61.0107   33.3230   49.2355 H   0  0  0  0  0  0  0  0  0  0  0  0
   63.8175   34.4863   48.8032 H   0  0  0  0  0  0  0  0  0  0  0  0
   63.2447   33.5706   50.2508 H   0  0  0  0  0  0  0  0  0  0  0  0
   64.0287   33.4083   46.7816 H   0  0  0  0  0  0  0  0  0  0  0  0
   63.6268   31.6520   46.6560 H   0  0  0  0  0  0  0  0  0  0  0  0
   61.8512   33.0825   45.6417 H   0  0  0  0  0  0  0  0  0  0  0  0
   61.2394   32.1515   47.0492 H   0  0  0  0  0  0  0  0  0  0  0  0
   59.4156   31.7759   47.3543 H   0  0  0  0  0  0  0  0  0  0  0  0
  1  2  2  0
  2  3  1  0
  3  4  1  0
  4  5  1  0
  5  6  2  0
  6  7  1  0
  7  8  2  0
  8  9  1  0
  9 10  2  0
 10 11  1  0
 11 12  1  0
 11 13  2  0
  6 14  1  0
 14 15  2  0
 15 16  1  0
 16 17  2  0
  2 18  1  0
 18 19  1  0
 19 20  2  0
 20 21  1  0
 21 22  2  0
 22 23  1  0
 23 24  2  0
 24 25  1  0
 25 26  2  0
 25 27  1  0
 27 28  1  0
 28 29  2  0
 29 30  1  0
 30 31  2  0
 31 32  1  0
 32 33  1  0
 33 34  2  0
 33 35  2  0
 33 36  1  0
 36 37  1  0
 37 38  1  0
 38 39  1  0
 39 40  1  0
 40 41  1  0
 32 42  2  0
 16  4  1  0
 24 19  1  0
 42 28  1  0
 13  7  1  0
 41 36  1  0
  3 43  1  0
  3 44  1  0
  8 45  1  0
  9 46  1  0
 10 47  1  0
 13 48  1  0
 14 49  1  0
 15 50  1  0
 20 51  1  0
 21 52  1  0
 22 53  1  0
 23 54  1  0
 27 55  1  0
 29 56  1  0
 30 57  1  0
 31 58  1  0
 37 59  1  0
 37 60  1  0
 38 61  1  0
 38 62  1  0
 40 63  1  0
 40 64  1  0
 41 65  1  0
 41 66  1  0
 42 67  1  0
M  CHG  1  18  -1
M  END
>  <UniqueID>  (6) 
6

>  <SMILES>  (6) 
O=C(Cn1nc(-c2cccc(F)c2)ccc1=O)[N-]c1ccccc1C(=O)Nc1cccc(S(=O)(=O)N2CCOCC2)c1

>  <Energy>  (6) 
88.56038883623471

>  <Genealogy>  (6) 
O=C(Cn1nc(-c2cccc(F)c2)ccc1=O)[N-]c1ccccc1C(=O)Nc1cccc(S(=O)(=O)N2CCOCC2)c1 (protonated)
O=C(Cn1nc(-c2cccc(F)c2)ccc1=O)[N-]c1ccccc1C(=O)Nc1cccc(S(=O)(=O)N2CCOCC2)c1 (3D coordinates assigned)
O=C(Cn1nc(-c2cccc(F)c2)ccc1=O)[N-]c1ccccc1C(=O)Nc1cccc(S(=O)(=O)N2CCOCC2)c1 (nonaromatic ring conformer: 88.56038883623471 kcal/mol)

>  <smiles>  (6) 
O=C(Cn1nc(-c2cccc(F)c2)ccc1=O)Nc1ccccc1C(=O)Nc1cccc(S(=O)(=O)N2CCOCC2)c1

>  <score_type>  (6) 
oracle

>  <origin>  (6) 
adg

>  <m_score__min__energy>  (6) 
-12.17

>  <m_primary>  (6) 
energy

$$$$
6:0
     RDKit          3D

 30 30  0  0  0  0  0  0  0  0999 V2000
   62.4780   33.4420   47.1160 C   0  0  0  0  0  0  0  0  0  0  0  0
   61.2240   33.8780   46.9610 C   0  0  0  0  0  0  0  0  0  0  0  0
   60.0990   33.3540   47.8080 C   0  0  0  0  0  0  0  0  0  0  0  0
   58.8170   33.8420   47.3120 N   0  0  0  0  0  0  0  0  0  0  0  0
   58.1420   33.2780   46.1850 C   0  0  0  0  0  0  0  0  0  0  0  0
   56.9180   33.5050   45.9920 O   0  0  0  0  0  0  0  0  0  0  0  0
   58.8860   32.3610   45.2660 C   0  0  0  0  0  0  0  0  0  0  0  0
   58.3280   31.0020   45.3580 N   0  0  0  0  0  0  0  0  0  0  0  0
   59.0490   30.0390   46.0030 C   0  0  0  0  0  0  0  0  0  0  0  0
   58.5510   28.7460   46.1400 C   0  0  0  0  0  0  0  0  0  0  0  0
   57.2930   28.4170   45.6220 C   0  0  0  0  0  0  0  0  0  0  0  0
   56.8360   27.0110   45.7130 C   0  0  0  0  0  0  0  0  0  0  0  0
   55.4620   26.7210   45.9640 N   0  0  0  0  0  0  0  0  0  0  0  0
   57.6580   26.0620   45.6190 O   0  0  0  0  0  0  0  0  0  0  0  0
   56.5260   29.4310   45.0000 C   0  0  0  0  0  0  0  0  0  0  0  0
   55.1810   29.1850   44.5550 N   0  0  0  0  0  0  0  0  0  0  0  0
   57.0740   30.7240   44.8720 C   0  0  0  0  0  0  0  0  0  0  0  0
   56.3950   31.6340   44.3210 O   0  0  0  0  0  0  0  0  0  0  0  0
   63.2822   33.8433   46.4818 H   0  0  0  0  0  0  0  0  0  0  0  0
   62.7058   32.6819   47.8778 H   0  0  0  0  0  0  0  0  0  0  0  0
   61.0106   34.6384   46.1953 H   0  0  0  0  0  0  0  0  0  0  0  0
   60.1044   32.2544   47.7773 H   0  0  0  0  0  0  0  0  0  0  0  0
   60.2379   33.7048   48.8413 H   0  0  0  0  0  0  0  0  0  0  0  0
   58.7921   32.7250   44.2322 H   0  0  0  0  0  0  0  0  0  0  0  0
   59.9468   32.3383   45.5562 H   0  0  0  0  0  0  0  0  0  0  0  0
   60.0361   30.2877   46.4199 H   0  0  0  0  0  0  0  0  0  0  0  0
   59.1482   27.9805   46.6570 H   0  0  0  0  0  0  0  0  0  0  0  0
   54.7680   26.6940   45.1830 H   0  0  0  0  0  0  0  0  0  0  0  0
   54.5910   29.9390   44.1440 H   0  0  0  0  0  0  0  0  0  0  0  0
   54.7960   28.2150   44.5150 H   0  0  0  0  0  0  0  0  0  0  0  0
  1  2  2  0
  2  3  1  0
  3  4  1  0
  4  5  1  0
  5  6  2  0
  5  7  1  0
  7  8  1  0
  8  9  1  0
  9 10  2  0
 10 11  1  0
 11 12  1  0
 12 13  1  0
 12 14  2  0
 11 15  2  0
 15 16  1  0
 15 17  1  0
 17 18  2  0
 17  8  1  0
  1 19  1  0
  1 20  1  0
  2 21  1  0
  3 22  1  0
  3 23  1  0
  7 24  1  0
  7 25  1  0
  9 26  1  0
 10 27  1  0
 13 28  1  0
 16 29  1  0
 16 30  1  0
M  CHG  2   4  -1  13  -1
M  END
>  <UniqueID>  (7) 
7

>  <SMILES>  (7) 
C=CC[N-]C(=O)Cn1ccc(C([NH-])=O)c(N)c1=O

>  <Energy>  (7) 
29.35636289598151

>  <Genealogy>  (7) 
C=CC[N-]C(=O)Cn1ccc(C([NH-])=O)c(N)c1=O (protonated)
C=CC[N-]C(=O)Cn1ccc(C([NH-])=O)c(N)c1=O (3D coordinates assigned)
C=CC[N-]C(=O)Cn1ccc(C([NH-])=O)c(N)c1=O (optimized conformer: 29.35636289598151 kcal/mol)

>  <smiles>  (7) 
C=CCNC(=O)Cn1ccc(C(N)=O)c(N)c1=O

>  <score_type>  (7) 
oracle

>  <origin>  (7) 
adg

>  <m_score__min__energy>  (7) 
-9.9700000000000006

>  <m_primary>  (7) 
energy

$$$$
7:0
     RDKit          3D

 30 31  0  0  0  0  0  0  0  0999 V2000
   57.1262   33.7262   43.9305 H   0  0  0  0  0  0  0  0  0  0  0  0
   57.3470   33.0230   44.7470 C   0  0  0  0  0  0  0  0  0  0  0  0
   56.6470   31.9350   44.8620 N   0  0  0  0  0  0  0  0  0  0  0  0
   56.7060   30.8410   43.9360 C   0  0  0  0  0  0  0  0  0  0  0  0
   57.3300   30.9550   42.8460 O   0  0  0  0  0  0  0  0  0  0  0  0
   56.0480   29.5680   44.2760 C   0  0  0  0  0  0  0  0  0  0  0  0
   54.8110   29.4410   44.0800 O   0  0  0  0  0  0  0  0  0  0  0  0
   56.7650   28.5010   44.9140 N   0  0  0  0  0  0  0  0  0  0  0  0
   58.0370   28.4680   45.2070 C   0  0  0  0  0  0  0  0  0  0  0  0
   58.5120   28.0130   46.4550 C   0  0  0  0  0  0  0  0  0  0  0  0
   57.8052   27.6602   47.2205 H   0  0  0  0  0  0  0  0  0  0  0  0
   59.8830   28.0130   46.7130 C   0  0  0  0  0  0  0  0  0  0  0  0
   60.2616   27.6530   47.6810 H   0  0  0  0  0  0  0  0  0  0  0  0
   60.7720   28.4700   45.7420 C   0  0  0  0  0  0  0  0  0  0  0  0
   61.8550   28.4680   45.9348 H   0  0  0  0  0  0  0  0  0  0  0  0
   60.2740   28.9300   44.5230 C   0  0  0  0  0  0  0  0  0  0  0  0
   60.9669   29.2975   43.7517 H   0  0  0  0  0  0  0  0  0  0  0  0
   58.9340   28.9260   44.2840 N   0  0  0  0  0  0  0  0  0  0  0  0
   58.5920   29.2790   43.3620 H   0  0  0  0  0  0  0  0  0  0  0  0
   58.4350   33.3290   45.6970 C   0  0  0  0  0  0  0  0  0  0  0  0
   58.9620   34.6290   45.8170 C   0  0  0  0  0  0  0  0  0  0  0  0
   58.5610   35.4418   45.1937 H   0  0  0  0  0  0  0  0  0  0  0  0
   59.9930   34.8920   46.7250 C   0  0  0  0  0  0  0  0  0  0  0  0
   60.3995   35.9102   46.8145 H   0  0  0  0  0  0  0  0  0  0  0  0
   60.5070   33.8640   47.5180 C   0  0  0  0  0  0  0  0  0  0  0  0
   61.3182   34.0727   48.2310 H   0  0  0  0  0  0  0  0  0  0  0  0
   59.9910   32.5700   47.4060 C   0  0  0  0  0  0  0  0  0  0  0  0
   60.3969   31.7610   48.0311 H   0  0  0  0  0  0  0  0  0  0  0  0
   58.9600   32.3020   46.5010 C   0  0  0  0  0  0  0  0  0  0  0  0
   58.5571   31.2819   46.4174 H   0  0  0  0  0  0  0  0  0  0  0  0
  1  2  1  0
  2  3  2  0
  3  4  1  0
  4  5  2  0
  4  6  1  0
  6  7  2  0
  6  8  1  0
  8  9  2  3
  9 10  1  0
 10 11  1  0
 10 12  2  0
 12 13  1  0
 12 14  1  0
 14 15  1  0
 14 16  2  0
 16 17  1  0
 16 18  1  0
 18 19  1  0
  2 20  1  0
 20 21  2  0
 21 22  1  0
 21 23  1  0
 23 24  1  0
 23 25  2  0
 25 26  1  0
 25 27  1  0
 27 28  1  0
 27 29  2  0
 29 30  1  0
 18  9  1  0
 29 20  1  0
M  END
>  <UniqueID>  (8) 
8

>  <SMILES>  (8) 
O=C(N=c1cccc[nH]1)C(=O)/N=C/c1ccccc1

>  <Energy>  (8) 
39.57009462870307

>  <Genealogy>  (8) 
O=C(N=c1cccc[nH]1)C(=O)/N=C/c1ccccc1 (cis-trans isomerization)
O=C(N=c1cccc[nH]1)C(=O)/N=C/c1ccccc1 (3D coordinates assigned)
O=C(N=c1cccc[nH]1)C(=O)/N=C/c1ccccc1 (optimized conformer: 39.57009462870307 kcal/mol)

>  <smiles>  (8) 
O=C(N=Cc1ccccc1)C(=O)N=c1cccc[nH]1

>  <score_type>  (8) 
oracle

>  <origin>  (8) 
adg

>  <m_score__min__energy>  (8) 
-7.46

>  <m_primary>  (8) 
energy

$$$$
8:0
     RDKit          3D

 43 45  0  0  0  0  0  0  0  0999 V2000
   64.1940   33.8630   47.9830 O   0  0  0  0  0  0  0  0  0  0  0  0
   63.0120   33.9080   48.4140 C   0  0  0  0  0  0  0  0  0  0  0  0
   62.7010   34.7690   49.4590 O   0  0  0  0  0  0  0  0  0  0  0  0
   61.9610   33.0550   47.8240 C   0  0  0  0  0  0  0  0  0  0  0  0
   61.5490   31.7700   48.5260 C   0  0  0  0  0  0  0  0  0  0  0  0
   60.4110   31.9920   49.4920 C   0  0  0  0  0  0  0  0  0  0  0  0
   60.2310   33.2460   50.1020 C   0  0  0  0  0  0  0  0  0  0  0  0
   59.1870   33.4480   51.0080 C   0  0  0  0  0  0  0  0  0  0  0  0
   58.3220   32.3970   51.3270 C   0  0  0  0  0  0  0  0  0  0  0  0
   58.4980   31.1410   50.7360 C   0  0  0  0  0  0  0  0  0  0  0  0
   57.6430   30.0920   51.0590 O   0  0  0  0  0  0  0  0  0  0  0  0
   59.5360   30.9370   49.8200 C   0  0  0  0  0  0  0  0  0  0  0  0
   61.3470   33.4960   46.7590 N   0  0  0  0  0  0  0  0  0  0  0  0
   59.9510   33.8010   46.6740 C   0  0  0  0  0  0  0  0  0  0  0  0
   59.5340   34.9100   47.0990 O   0  0  0  0  0  0  0  0  0  0  0  0
   59.0080   32.8140   46.1180 C   0  0  0  0  0  0  0  0  0  0  0  0
   58.9320   31.5230   46.6600 C   0  0  0  0  0  0  0  0  0  0  0  0
   58.1150   30.5580   46.0660 C   0  0  0  0  0  0  0  0  0  0  0  0
   57.3560   30.8720   44.9270 C   0  0  0  0  0  0  0  0  0  0  0  0
   56.5390   29.8380   44.2590 C   0  0  0  0  0  0  0  0  0  0  0  0
   56.5490   29.7590   43.0020 O   0  0  0  0  0  0  0  0  0  0  0  0
   55.7140   28.9290   45.0020 N   0  0  0  0  0  0  0  0  0  0  0  0
   56.1580   27.6860   45.5590 C   0  0  0  0  0  0  0  0  0  0  0  0
   57.4830   27.3630   45.7670 C   0  0  0  0  0  0  0  0  0  0  0  0
   57.4780   26.1140   46.3510 C   0  0  0  0  0  0  0  0  0  0  0  0
   56.1490   25.7590   46.4680 C   0  0  0  0  0  0  0  0  0  0  0  0
   55.6890   24.5610   47.0050 O   0  0  0  0  0  0  0  0  0  0  0  0
   55.3280   26.7160   45.9950 N   0  0  0  0  0  0  0  0  0  0  0  0
   57.3830   32.1820   44.4260 C   0  0  0  0  0  0  0  0  0  0  0  0
   58.2110   33.1450   45.0110 C   0  0  0  0  0  0  0  0  0  0  0  0
   61.2338   31.0372   47.7686 H   0  0  0  0  0  0  0  0  0  0  0  0
   62.4138   31.4041   49.0989 H   0  0  0  0  0  0  0  0  0  0  0  0
   60.9164   34.0729   49.8644 H   0  0  0  0  0  0  0  0  0  0  0  0
   59.0453   34.4356   51.4712 H   0  0  0  0  0  0  0  0  0  0  0  0
   57.5026   32.5576   52.0430 H   0  0  0  0  0  0  0  0  0  0  0  0
   59.6695   29.9495   49.3542 H   0  0  0  0  0  0  0  0  0  0  0  0
   59.5176   31.2693   47.5559 H   0  0  0  0  0  0  0  0  0  0  0  0
   58.0659   29.5456   46.4933 H   0  0  0  0  0  0  0  0  0  0  0  0
   58.3621   27.9756   45.5182 H   0  0  0  0  0  0  0  0  0  0  0  0
   58.3525   25.5225   46.6599 H   0  0  0  0  0  0  0  0  0  0  0  0
   54.7180   24.4540   47.2760 H   0  0  0  0  0  0  0  0  0  0  0  0
   56.7495   32.4531   43.5685 H   0  0  0  0  0  0  0  0  0  0  0  0
   58.2379   34.1658   44.6021 H   0  0  0  0  0  0  0  0  0  0  0  0
  1  2  2  0
  2  3  1  0
  2  4  1  0
  4  5  1  0
  5  6  1  0
  6  7  2  0
  7  8  1  0
  8  9  2  0
  9 10  1  0
 10 11  1  0
 10 12  2  0
  4 13  2  3
 13 14  1  0
 14 15  2  0
 14 16  1  0
 16 17  2  0
 17 18  1  0
 18 19  2  0
 19 20  1  0
 20 21  2  0
 20 22  1  0
 22 23  1  0
 23 24  2  0
 24 25  1  0
 25 26  2  0
 26 27  1  0
 26 28  1  0
 19 29  1  0
 29 30  2  0
 12  6  1  0
 30 16  1  0
 28 23  1  0
  5 31  1  0
  5 32  1  0
  7 33  1  0
  8 34  1  0
  9 35  1  0
 12 36  1  0
 17 37  1  0
 18 38  1  0
 24 39  1  0
 25 40  1  0
 27 41  1  0
 29 42  1  0
 30 43  1  0
M  CHG  4   3  -1  11  -1  22  -1  28  -1
M  END
>  <UniqueID>  (9) 
9

>  <SMILES>  (9) 
O=C([O-])C(Cc1cccc([O-])c1)=NC(=O)c1ccc(C(=O)[N-]c2ccc(O)[n-]2)cc1

>  <Energy>  (9) 
84.08442724873973

>  <Genealogy>  (9) 
O=C([O-])C(Cc1cccc([O-])c1)=NC(=O)c1ccc(C(=O)[N-]c2ccc(O)[n-]2)cc1 (protonated)
O=C([O-])C(Cc1cccc([O-])c1)=NC(=O)c1ccc(C(=O)[N-]c2ccc(O)[n-]2)cc1 (3D coordinates assigned)
O=C([O-])C(Cc1cccc([O-])c1)=NC(=O)c1ccc(C(=O)[N-]c2ccc(O)[n-]2)cc1 (optimized conformer: 84.08442724873973 kcal/mol)

>  <smiles>  (9) 
O=C(O)C(Cc1cccc(O)c1)=NC(=O)c1ccc(C(=O)Nc2ccc(O)[nH]2)cc1

>  <score_type>  (9) 
oracle

>  <origin>  (9) 
adg

>  <m_score__min__energy>  (9) 
-15.98

>  <m_primary>  (9) 
energy

$$$$
9:0
     RDKit          3D

 38 40  0  0  0  0  0  0  0  0999 V2000
   53.8950   26.6890   46.3820 H   0  0  0  0  0  0  0  0  0  0  0  0
   54.4590   25.9970   45.8400 N   0  0  0  0  0  0  0  0  0  0  0  0
   55.8730   25.9160   46.0020 C   0  0  0  0  0  0  0  0  0  0  0  0
   56.4130   24.7920   46.1840 O   0  0  0  0  0  0  0  0  0  0  0  0
   56.6890   27.1430   45.9570 C   0  0  0  0  0  0  0  0  0  0  0  0
   56.2320   28.2250   45.2670 N   0  0  0  0  0  0  0  0  0  0  0  0
   58.0410   32.8580   44.6820 C   0  0  0  0  0  0  0  0  0  0  0  0
   57.6470   32.3230   43.5620 N   0  0  0  0  0  0  0  0  0  0  0  0
   56.9280   31.0940   43.3750 C   0  0  0  0  0  0  0  0  0  0  0  0
   56.6830   30.7200   42.1980 O   0  0  0  0  0  0  0  0  0  0  0  0
   56.3940   30.3700   44.4970 N   0  0  0  0  0  0  0  0  0  0  0  0
   56.9270   29.3910   45.1750 C   0  0  0  0  0  0  0  0  0  0  0  0
   59.2740   33.9940   44.8850 S   0  0  0  0  0  0  0  0  0  0  0  0
   59.0400   34.0960   46.5510 C   0  0  0  0  0  0  0  0  0  0  0  0
   59.8780   34.8990   47.4940 C   0  0  0  0  0  0  0  0  0  0  0  0
   60.0992   35.8772   47.0420 H   0  0  0  0  0  0  0  0  0  0  0  0
   59.3277   35.0389   48.4361 H   0  0  0  0  0  0  0  0  0  0  0  0
   61.1670   34.1790   47.7780 C   0  0  0  0  0  0  0  0  0  0  0  0
   61.8960   33.5930   46.7310 C   0  0  0  0  0  0  0  0  0  0  0  0
   61.5066   33.6335   45.7030 H   0  0  0  0  0  0  0  0  0  0  0  0
   63.1150   32.9580   46.9890 C   0  0  0  0  0  0  0  0  0  0  0  0
   63.6786   32.4951   46.1655 H   0  0  0  0  0  0  0  0  0  0  0  0
   63.6180   32.9110   48.2930 C   0  0  0  0  0  0  0  0  0  0  0  0
   64.5742   32.4064   48.4956 H   0  0  0  0  0  0  0  0  0  0  0  0
   62.9060   33.5050   49.3390 C   0  0  0  0  0  0  0  0  0  0  0  0
   63.3990   33.4680   50.6010 F   0  0  0  0  0  0  0  0  0  0  0  0
   61.6860   34.1410   49.0830 C   0  0  0  0  0  0  0  0  0  0  0  0
   61.1310   34.6132   49.9071 H   0  0  0  0  0  0  0  0  0  0  0  0
   58.0150   33.2250   46.9080 C   0  0  0  0  0  0  0  0  0  0  0  0
   57.6812   33.0917   47.9476 H   0  0  0  0  0  0  0  0  0  0  0  0
   57.4610   32.5530   45.8650 N   0  0  0  0  0  0  0  0  0  0  0  0
   56.6790   31.8690   45.9730 H   0  0  0  0  0  0  0  0  0  0  0  0
   58.1650   29.4990   45.8430 C   0  0  0  0  0  0  0  0  0  0  0  0
   58.7374   30.4374   45.8018 H   0  0  0  0  0  0  0  0  0  0  0  0
   58.6570   28.4060   46.5560 C   0  0  0  0  0  0  0  0  0  0  0  0
   59.6247   28.4794   47.0739 H   0  0  0  0  0  0  0  0  0  0  0  0
   57.9250   27.2200   46.6140 C   0  0  0  0  0  0  0  0  0  0  0  0
   58.3137   26.3539   47.1697 H   0  0  0  0  0  0  0  0  0  0  0  0
  1  2  1  0
  2  3  1  0
  3  4  2  0
  3  5  1  0
  5  6  1  0
  6  7  1  0
  7  8  2  0
  8  9  1  0
  9 10  2  0
  9 11  1  0
 11 12  2  0
 12 13  1  0
 13 14  1  0
 14 15  1  0
 15 16  1  0
 15 17  1  0
 15 18  1  0
 18 19  2  0
 19 20  1  0
 19 21  1  0
 21 22  1  0
 21 23  2  0
 23 24  1  0
 23 25  1  0
 25 26  1  0
 25 27  2  0
 27 28  1  0
 14 29  2  0
 29 30  1  0
 29 31  1  0
 31 32  1  0
  7 33  1  0
 33 34  1  0
 33 35  2  0
 35 36  1  0
 35 37  1  0
 37 38  1  0
 37  5  2  0
 31 12  1  0
 27 18  1  0
M  CHG  2   2  -1   6  -1
M  END
>  <UniqueID>  (10) 
10

>  <SMILES>  (10) 
[NH-]C(=O)c1ccc/c(=N\C(=O)/N=c2/[nH]cc(Cc3cccc(F)c3)s2)[n-]1

>  <Energy>  (10) 
79.19359613046996

>  <Genealogy>  (10) 
[NH-]C(=O)c1cccc(=NC(=O)N=c2[nH]cc(Cc3cccc(F)c3)s2)[n-]1 (protonated)
[NH-]C(=O)c1ccc/c(=N\C(=O)/N=c2/[nH]cc(Cc3cccc(F)c3)s2)[n-]1 (cis-trans isomerization)
[NH-]C(=O)c1ccc/c(=N\C(=O)/N=c2/[nH]cc(Cc3cccc(F)c3)s2)[n-]1 (3D coordinates assigned)
[NH-]C(=O)c1ccc/c(=N\C(=O)/N=c2/[nH]cc(Cc3cccc(F)c3)s2)[n-]1 (optimized conformer: 79.19359613046996 kcal/mol)

>  <smiles>  (10) 
NC(=O)c1cccc(=NC(=O)N=c2[nH]cc(Cc3cccc(F)c3)s2)[nH]1

>  <score_type>  (10) 
oracle

>  <origin>  (10) 
adg

>  <m_score__min__energy>  (10) 
-14.27

>  <m_primary>  (10) 
energy

$$$$
10:0
     RDKit          3D

 37 39  0  0  0  0  0  0  0  0999 V2000
   58.9680   22.7440   45.0760 C   0  0  0  0  0  0  0  0  0  0  0  0
   59.3530   23.8930   45.8220 O   0  0  0  0  0  0  0  0  0  0  0  0
   58.5450   25.0260   46.0070 C   0  0  0  0  0  0  0  0  0  0  0  0
   57.1440   24.9780   45.9000 C   0  0  0  0  0  0  0  0  0  0  0  0
   56.3750   26.1320   46.0850 C   0  0  0  0  0  0  0  0  0  0  0  0
   54.9800   26.0300   45.9700 O   0  0  0  0  0  0  0  0  0  0  0  0
   54.2870   24.8350   45.6260 C   0  0  0  0  0  0  0  0  0  0  0  0
   57.0170   27.3480   46.3760 C   0  0  0  0  0  0  0  0  0  0  0  0
   58.4140   27.4080   46.5170 C   0  0  0  0  0  0  0  0  0  0  0  0
   59.1170   28.6780   46.8580 C   0  0  0  0  0  0  0  0  0  0  0  0
   59.4880   28.8480   48.0520 O   0  0  0  0  0  0  0  0  0  0  0  0
   59.3740   29.7330   45.9000 N   0  0  0  0  0  0  0  0  0  0  0  0
   60.3280   30.7090   46.3690 C   0  0  0  0  0  0  0  0  0  0  0  0
   61.5180   30.4250   46.6760 O   0  0  0  0  0  0  0  0  0  0  0  0
   59.7670   32.0520   46.4080 C   0  0  0  0  0  0  0  0  0  0  0  0
   60.3170   33.2620   46.8250 C   0  0  0  0  0  0  0  0  0  0  0  0
   59.4980   34.4050   46.7910 C   0  0  0  0  0  0  0  0  0  0  0  0
   58.1590   34.3100   46.3510 C   0  0  0  0  0  0  0  0  0  0  0  0
   57.6310   33.0730   45.9410 C   0  0  0  0  0  0  0  0  0  0  0  0
   58.4700   31.9610   45.9790 C   0  0  0  0  0  0  0  0  0  0  0  0
   58.2120   30.5580   45.6810 C   0  0  0  0  0  0  0  0  0  0  0  0
   57.1160   30.1120   45.2490 O   0  0  0  0  0  0  0  0  0  0  0  0
   59.1680   26.2410   46.3120 C   0  0  0  0  0  0  0  0  0  0  0  0
   58.6961   21.9324   45.7669 H   0  0  0  0  0  0  0  0  0  0  0  0
   58.1036   22.9910   44.4422 H   0  0  0  0  0  0  0  0  0  0  0  0
   59.8068   22.4203   44.4422 H   0  0  0  0  0  0  0  0  0  0  0  0
   56.6477   24.0240   45.6686 H   0  0  0  0  0  0  0  0  0  0  0  0
   53.9828   24.3104   46.5438 H   0  0  0  0  0  0  0  0  0  0  0  0
   53.3944   25.0862   45.0342 H   0  0  0  0  0  0  0  0  0  0  0  0
   54.9483   24.1850   45.0342 H   0  0  0  0  0  0  0  0  0  0  0  0
   56.4189   28.2635   46.4948 H   0  0  0  0  0  0  0  0  0  0  0  0
   59.7020   29.3430   44.9860 H   0  0  0  0  0  0  0  0  0  0  0  0
   61.3597   33.3218   47.1702 H   0  0  0  0  0  0  0  0  0  0  0  0
   59.9021   35.3776   47.1086 H   0  0  0  0  0  0  0  0  0  0  0  0
   57.5256   35.2091   46.3290 H   0  0  0  0  0  0  0  0  0  0  0  0
   56.5885   32.9858   45.6010 H   0  0  0  0  0  0  0  0  0  0  0  0
   60.2643   26.2829   46.3924 H   0  0  0  0  0  0  0  0  0  0  0  0
  1  2  1  0
  2  3  1  0
  3  4  2  0
  4  5  1  0
  5  6  1  0
  6  7  1  0
  5  8  2  0
  8  9  1  0
  9 10  1  0
 10 11  2  0
 10 12  1  0
 12 13  1  0
 13 14  2  0
 13 15  1  0
 15 16  2  0
 16 17  1  0
 17 18  2  0
 18 19  1  0
 19 20  2  0
 20 21  1  0
 21 22  2  0
  9 23  2  0
 23  3  1  0
 21 12  1  0
 20 15  1  0
  1 24  1  0
  1 25  1  0
  1 26  1  0
  4 27  1  0
  7 28  1  0
  7 29  1  0
  7 30  1  0
  8 31  1  0
 12 32  1  0
 16 33  1  0
 17 34  1  0
 18 35  1  0
 19 36  1  0
 23 37  1  0
M  CHG  1  12   1
M  END
>  <UniqueID>  (11) 
11

>  <SMILES>  (11) 
COc1cc(OC)cc(C(=O)[NH+]2C(=O)c3ccccc3C2=O)c1

>  <Energy>  (11) 
69.25242087021826

>  <Genealogy>  (11) 
COc1cc(OC)cc(C(=O)[NH+]2C(=O)c3ccccc3C2=O)c1 (protonated)
COc1cc(OC)cc(C(=O)[NH+]2C(=O)c3ccccc3C2=O)c1 (3D coordinates assigned)
COc1cc(OC)cc(C(=O)[NH+]2C(=O)c3ccccc3C2=O)c1 (nonaromatic ring conformer: 69.25242087021826 kcal/mol)

>  <smiles>  (11) 
COc1cc(OC)cc(C(=O)N2C(=O)c3ccccc3C2=O)c1

>  <score_type>  (11) 
oracle

>  <origin>  (11) 
adg

>  <m_score__min__energy>  (11) 
-6.2699999999999996

>  <m_primary>  (11) 
energy

$$$$
11:0
     RDKit          3D

 33 34  0  0  0  0  0  0  0  0999 V2000
   56.6230   30.7640   43.1650 C   0  0  0  0  0  0  0  0  0  0  0  0
   57.3000   29.8040   44.1030 C   0  0  0  0  0  0  0  0  0  0  0  0
   58.7010   29.7760   44.1990 C   0  0  0  0  0  0  0  0  0  0  0  0
   59.3320   28.8940   45.0820 C   0  0  0  0  0  0  0  0  0  0  0  0
   58.5710   28.0260   45.8790 C   0  0  0  0  0  0  0  0  0  0  0  0
   59.2510   27.1040   46.8550 C   0  0  0  0  0  0  0  0  0  0  0  0
   58.9280   25.6440   46.5310 C   0  0  0  0  0  0  0  0  0  0  0  0
   58.0390   25.0820   47.5430 N   0  0  0  0  0  0  0  0  0  0  0  0
   57.2920   23.8720   47.3640 C   0  0  0  0  0  0  0  0  0  0  0  0
   57.0310   23.1520   48.3660 O   0  0  0  0  0  0  0  0  0  0  0  0
   56.8150   23.4620   46.0160 C   0  0  0  0  0  0  0  0  0  0  0  0
   57.6010   22.5960   45.2320 C   0  0  0  0  0  0  0  0  0  0  0  0
   57.1720   22.1990   43.9650 C   0  0  0  0  0  0  0  0  0  0  0  0
   55.9520   22.6690   43.4790 C   0  0  0  0  0  0  0  0  0  0  0  0
   55.5490   22.3210   42.3400 O   0  0  0  0  0  0  0  0  0  0  0  0
   55.1970   23.5050   44.2370 N   0  0  0  0  0  0  0  0  0  0  0  0
   55.5870   23.9110   45.4760 C   0  0  0  0  0  0  0  0  0  0  0  0
   54.7570   24.7710   46.1850 O   0  0  0  0  0  0  0  0  0  0  0  0
   57.1710   28.0690   45.8020 C   0  0  0  0  0  0  0  0  0  0  0  0
   56.5370   28.9500   44.9190 C   0  0  0  0  0  0  0  0  0  0  0  0
   55.1470   28.9740   44.8610 O   0  0  0  0  0  0  0  0  0  0  0  0
   56.0849   31.5270   43.7466 H   0  0  0  0  0  0  0  0  0  0  0  0
   57.3783   31.2514   42.5310 H   0  0  0  0  0  0  0  0  0  0  0  0
   55.9104   30.2161   42.5310 H   0  0  0  0  0  0  0  0  0  0  0  0
   59.3054   30.4517   43.5760 H   0  0  0  0  0  0  0  0  0  0  0  0
   60.4297   28.8808   45.1519 H   0  0  0  0  0  0  0  0  0  0  0  0
   60.3390   27.2550   46.7971 H   0  0  0  0  0  0  0  0  0  0  0  0
   58.8888   27.3309   47.8686 H   0  0  0  0  0  0  0  0  0  0  0  0
   58.4372   25.5911   45.5480 H   0  0  0  0  0  0  0  0  0  0  0  0
   59.8640   25.0662   46.5183 H   0  0  0  0  0  0  0  0  0  0  0  0
   58.5619   22.2291   45.6218 H   0  0  0  0  0  0  0  0  0  0  0  0
   57.7894   21.5225   43.3558 H   0  0  0  0  0  0  0  0  0  0  0  0
   56.5679   27.4060   46.4397 H   0  0  0  0  0  0  0  0  0  0  0  0
  1  2  1  0
  2  3  2  0
  3  4  1  0
  4  5  2  0
  5  6  1  0
  6  7  1  0
  7  8  1  0
  8  9  1  0
  9 10  2  0
  9 11  1  0
 11 12  1  0
 12 13  2  0
 13 14  1  0
 14 15  2  0
 14 16  1  0
 16 17  1  0
 17 18  1  0
  5 19  1  0
 19 20  2  0
 20 21  1  0
 20  2  1  0
 17 11  2  0
  1 22  1  0
  1 23  1  0
  1 24  1  0
  3 25  1  0
  4 26  1  0
  6 27  1  0
  6 28  1  0
  7 29  1  0
  7 30  1  0
 12 31  1  0
 13 32  1  0
 19 33  1  0
M  CHG  4   8  -1  16  -1  18  -1  21  -1
M  END
>  <UniqueID>  (12) 
12

>  <SMILES>  (12) 
Cc1ccc(CC[N-]C(=O)c2ccc(=O)[n-]c2[O-])cc1[O-]

>  <Energy>  (12) 
32.67172295164725

>  <Genealogy>  (12) 
Cc1ccc(CC[N-]C(=O)c2ccc(=O)[n-]c2[O-])cc1[O-] (protonated)
Cc1ccc(CC[N-]C(=O)c2ccc(=O)[n-]c2[O-])cc1[O-] (3D coordinates assigned)
Cc1ccc(CC[N-]C(=O)c2ccc(=O)[n-]c2[O-])cc1[O-] (optimized conformer: 32.67172295164725 kcal/mol)

>  <smiles>  (12) 
Cc1ccc(CCNC(=O)c2ccc(=O)[nH]c2O)cc1O

>  <score_type>  (12) 
oracle

>  <origin>  (12) 
adg

>  <m_score__min__energy>  (12) 
-17.079999999999998

>  <m_primary>  (12) 
energy

$$$$
12:0
     RDKit          3D

 58 62  0  0  0  0  0  0  0  0999 V2000
   56.9780   19.8100   45.6400 N   0  0  0  0  0  0  0  0  0  0  0  0
   57.3480   21.0270   46.2830 C   0  0  0  0  0  0  0  0  0  0  0  0
   57.6630   21.0090   47.4810 O   0  0  0  0  0  0  0  0  0  0  0  0
   57.3300   22.2450   45.4660 C   0  0  0  0  0  0  0  0  0  0  0  0
   57.0440   22.2270   44.1130 C   0  0  0  0  0  0  0  0  0  0  0  0
   57.0410   23.4100   43.3940 C   0  0  0  0  0  0  0  0  0  0  0  0
   57.3220   24.6070   44.0160 C   0  0  0  0  0  0  0  0  0  0  0  0
   57.3950   25.8720   43.6050 N   0  0  0  0  0  0  0  0  0  0  0  0
   57.7100   26.7020   44.6190 C   0  0  0  0  0  0  0  0  0  0  0  0
   57.8740   28.1540   44.5320 C   0  0  0  0  0  0  0  0  0  0  0  0
   57.0600   28.8610   43.7000 C   0  0  0  0  0  0  0  0  0  0  0  0
   57.1730   30.2320   43.5790 C   0  0  0  0  0  0  0  0  0  0  0  0
   58.1460   30.8440   44.3390 C   0  0  0  0  0  0  0  0  0  0  0  0
   58.3000   32.2870   44.2360 C   0  0  0  0  0  0  0  0  0  0  0  0
   58.6660   32.7530   43.1170 O   0  0  0  0  0  0  0  0  0  0  0  0
   58.0510   33.1390   45.3380 N   0  0  0  0  0  0  0  0  0  0  0  0
   57.6220   32.6350   46.6470 C   0  0  0  0  0  0  0  0  0  0  0  0
   58.1930   33.4930   47.7550 C   0  0  0  0  0  0  0  0  0  0  0  0
   59.3490   34.2190   47.3580 N   0  0  0  0  0  0  0  0  0  0  0  0
   60.2280   34.6040   48.3960 C   0  0  0  0  0  0  0  0  0  0  0  0
   61.5870   34.0450   48.1740 C   0  0  0  0  0  0  0  0  0  0  0  0
   62.0430   33.6420   46.9350 C   0  0  0  0  0  0  0  0  0  0  0  0
   63.3370   33.1330   46.8280 C   0  0  0  0  0  0  0  0  0  0  0  0
   64.1160   33.0500   47.9680 C   0  0  0  0  0  0  0  0  0  0  0  0
   63.6720   33.4500   49.2130 C   0  0  0  0  0  0  0  0  0  0  0  0
   62.3950   33.9520   49.3130 C   0  0  0  0  0  0  0  0  0  0  0  0
   61.9330   34.3570   50.5230 F   0  0  0  0  0  0  0  0  0  0  0  0
   59.1880   35.1000   46.2580 C   0  0  0  0  0  0  0  0  0  0  0  0
   58.2160   34.5820   45.2220 C   0  0  0  0  0  0  0  0  0  0  0  0
   58.9730   30.1310   45.1840 C   0  0  0  0  0  0  0  0  0  0  0  0
   58.8460   28.7620   45.2920 C   0  0  0  0  0  0  0  0  0  0  0  0
   57.8460   25.9260   45.7280 N   0  0  0  0  0  0  0  0  0  0  0  0
   57.6090   24.6290   45.3710 C   0  0  0  0  0  0  0  0  0  0  0  0
   57.6100   23.4480   46.0880 C   0  0  0  0  0  0  0  0  0  0  0  0
   56.0630   19.3840   45.9290 H   0  0  0  0  0  0  0  0  0  0  0  0
   57.5910   19.3590   44.9120 H   0  0  0  0  0  0  0  0  0  0  0  0
   56.8195   21.2751   43.6095 H   0  0  0  0  0  0  0  0  0  0  0  0
   56.8126   23.3943   42.3181 H   0  0  0  0  0  0  0  0  0  0  0  0
   57.2240   26.1590   42.6150 H   0  0  0  0  0  0  0  0  0  0  0  0
   56.2971   28.3292   43.1125 H   0  0  0  0  0  0  0  0  0  0  0  0
   56.5180   30.8076   42.9084 H   0  0  0  0  0  0  0  0  0  0  0  0
   56.5236   32.6563   46.7015 H   0  0  0  0  0  0  0  0  0  0  0  0
   57.9864   31.6044   46.7697 H   0  0  0  0  0  0  0  0  0  0  0  0
   57.4224   34.2096   48.0755 H   0  0  0  0  0  0  0  0  0  0  0  0
   58.4929   32.8188   48.5708 H   0  0  0  0  0  0  0  0  0  0  0  0
   60.2906   35.7018   48.4264 H   0  0  0  0  0  0  0  0  0  0  0  0
   59.8390   34.2151   49.3486 H   0  0  0  0  0  0  0  0  0  0  0  0
   61.3973   33.7209   46.0480 H   0  0  0  0  0  0  0  0  0  0  0  0
   63.7308   32.8037   45.8551 H   0  0  0  0  0  0  0  0  0  0  0  0
   65.1356   32.6470   47.8788 H   0  0  0  0  0  0  0  0  0  0  0  0
   64.3200   33.3696   50.0982 H   0  0  0  0  0  0  0  0  0  0  0  0
   58.8181   36.0654   46.6336 H   0  0  0  0  0  0  0  0  0  0  0  0
   60.1685   35.1974   45.7689 H   0  0  0  0  0  0  0  0  0  0  0  0
   57.2405   35.0688   45.3685 H   0  0  0  0  0  0  0  0  0  0  0  0
   58.6138   34.8106   44.2222 H   0  0  0  0  0  0  0  0  0  0  0  0
   59.7373   30.6577   45.7743 H   0  0  0  0  0  0  0  0  0  0  0  0
   59.4968   28.1788   45.9601 H   0  0  0  0  0  0  0  0  0  0  0  0
   57.8358   23.4648   47.1644 H   0  0  0  0  0  0  0  0  0  0  0  0
  1  2  1  0
  2  3  2  0
  2  4  1  0
  4  5  2  0
  5  6  1  0
  6  7  2  0
  7  8  1  0
  8  9  1  0
  9 10  1  0
 10 11  2  0
 11 12  1  0
 12 13  2  0
 13 14  1  0
 14 15  2  0
 14 16  1  0
 16 17  1  0
 17 18  1  0
 18 19  1  0
 19 20  1  0
 20 21  1  0
 21 22  2  0
 22 23  1  0
 23 24  2  0
 24 25  1  0
 25 26  2  0
 26 27  1  0
 19 28  1  0
 28 29  1  0
 13 30  1  0
 30 31  2  0
  9 32  2  0
 32 33  1  0
 33 34  2  0
 34  4  1  0
 33  7  1  0
 31 10  1  0
 29 16  1  0
 26 21  1  0
  1 35  1  0
  1 36  1  0
  5 37  1  0
  6 38  1  0
  8 39  1  0
 11 40  1  0
 12 41  1  0
 17 42  1  0
 17 43  1  0
 18 44  1  0
 18 45  1  0
 20 46  1  0
 20 47  1  0
 22 48  1  0
 23 49  1  0
 24 50  1  0
 25 51  1  0
 28 52  1  0
 28 53  1  0
 29 54  1  0
 29 55  1  0
 30 56  1  0
 31 57  1  0
 34 58  1  0
M  END
>  <smiles>  (13) 
NC(=O)c1ccc2[nH]c(-c3ccc(C(=O)N4CCN(Cc5ccccc5F)CC4)cc3)nc2c1

>  <score_type>  (13) 
oracle

>  <origin>  (13) 
adg

>  <m_score__min__energy>  (13) 
-10.51

>  <m_primary>  (13) 
energy

$$$$
13:0
     RDKit          3D

 54 58  0  0  0  0  0  0  0  0999 V2000
   55.9608   25.4307   46.6147 H   0  0  0  0  0  0  0  0  0  0  0  0
   56.5310   26.3390   46.3700 C   0  0  0  0  0  0  0  0  0  0  0  0
   55.9530   27.3280   45.6380 N   0  0  0  0  0  0  0  0  0  0  0  0
   56.6100   28.4720   45.3020 C   0  0  0  0  0  0  0  0  0  0  0  0
   55.9540   29.3800   44.6260 N   0  0  0  0  0  0  0  0  0  0  0  0
   56.3990   30.2630   43.5790 C   0  0  0  0  0  0  0  0  0  0  0  0
   56.2150   29.9870   42.3650 O   0  0  0  0  0  0  0  0  0  0  0  0
   57.1640   31.4690   43.9280 C   0  0  0  0  0  0  0  0  0  0  0  0
   58.1430   32.3400   42.8780 S   0  0  0  0  0  0  0  0  0  0  0  0
   58.5920   33.5300   43.9790 C   0  0  0  0  0  0  0  0  0  0  0  0
   59.2599   34.3788   43.7706 H   0  0  0  0  0  0  0  0  0  0  0  0
   57.9760   33.2600   45.1990 C   0  0  0  0  0  0  0  0  0  0  0  0
   58.1910   34.1650   46.3890 C   0  0  0  0  0  0  0  0  0  0  0  0
   57.3285   34.8071   46.1571 H   0  0  0  0  0  0  0  0  0  0  0  0
   58.7580   33.4680   47.6180 C   0  0  0  0  0  0  0  0  0  0  0  0
   58.3896   33.7340   48.6198 H   0  0  0  0  0  0  0  0  0  0  0  0
   58.8680   32.4208   47.9361 H   0  0  0  0  0  0  0  0  0  0  0  0
   59.6200   34.4520   46.8380 C   0  0  0  0  0  0  0  0  0  0  0  0
   59.8735   35.4287   47.2759 H   0  0  0  0  0  0  0  0  0  0  0  0
   60.6094   34.4103   46.3592 H   0  0  0  0  0  0  0  0  0  0  0  0
   57.1600   32.1120   45.1600 C   0  0  0  0  0  0  0  0  0  0  0  0
   56.5756   31.7585   46.0223 H   0  0  0  0  0  0  0  0  0  0  0  0
   57.9600   28.6170   45.6930 C   0  0  0  0  0  0  0  0  0  0  0  0
   58.5316   29.5050   45.3852 H   0  0  0  0  0  0  0  0  0  0  0  0
   58.5670   27.6270   46.4730 C   0  0  0  0  0  0  0  0  0  0  0  0
   59.8990   27.7970   46.8730 O   0  0  0  0  0  0  0  0  0  0  0  0
   60.4540   29.0080   47.3100 C   0  0  0  0  0  0  0  0  0  0  0  0
   60.6180   29.2990   48.6770 C   0  0  0  0  0  0  0  0  0  0  0  0
   60.3549   28.5446   49.4331 H   0  0  0  0  0  0  0  0  0  0  0  0
   61.1140   30.5430   49.0780 C   0  0  0  0  0  0  0  0  0  0  0  0
   61.2228   30.7690   50.1490 H   0  0  0  0  0  0  0  0  0  0  0  0
   61.4750   31.5080   48.1190 C   0  0  0  0  0  0  0  0  0  0  0  0
   61.9180   32.8160   48.5050 N   0  0  0  0  0  0  0  0  0  0  0  0
   63.1050   33.0950   49.2560 C   0  0  0  0  0  0  0  0  0  0  0  0
   63.0740   33.9840   50.1470 O   0  0  0  0  0  0  0  0  0  0  0  0
   64.3400   32.4400   48.9400 N   0  0  0  0  0  0  0  0  0  0  0  0
   64.4840   32.1230   47.9540 H   0  0  0  0  0  0  0  0  0  0  0  0
   65.3990   32.2300   49.8900 C   0  0  0  0  0  0  0  0  0  0  0  0
   66.5310   33.0640   49.9250 C   0  0  0  0  0  0  0  0  0  0  0  0
   66.6383   33.8717   49.1860 H   0  0  0  0  0  0  0  0  0  0  0  0
   67.5220   32.8720   50.8950 C   0  0  0  0  0  0  0  0  0  0  0  0
   68.4062   33.5261   50.9133 H   0  0  0  0  0  0  0  0  0  0  0  0
   67.3900   31.8490   51.8420 C   0  0  0  0  0  0  0  0  0  0  0  0
   68.6270   31.6150   53.0670 Cl  0  0  0  0  0  0  0  0  0  0  0  0
   66.2670   31.0200   51.8170 C   0  0  0  0  0  0  0  0  0  0  0  0
   66.1633   30.2141   52.5585 H   0  0  0  0  0  0  0  0  0  0  0  0
   65.2720   31.2120   50.8500 C   0  0  0  0  0  0  0  0  0  0  0  0
   64.3851   30.5613   50.8421 H   0  0  0  0  0  0  0  0  0  0  0  0
   61.2930   31.2230   46.7600 C   0  0  0  0  0  0  0  0  0  0  0  0
   61.5460   31.9803   46.0033 H   0  0  0  0  0  0  0  0  0  0  0  0
   60.7910   29.9800   46.3600 C   0  0  0  0  0  0  0  0  0  0  0  0
   60.6598   29.7642   45.2894 H   0  0  0  0  0  0  0  0  0  0  0  0
   57.8450   26.4760   46.8100 C   0  0  0  0  0  0  0  0  0  0  0  0
   58.3117   25.6865   47.4173 H   0  0  0  0  0  0  0  0  0  0  0  0
  1  2  1  0
  2  3  1  0
  3  4  1  0
  4  5  2  0
  5  6  1  0
  6  7  2  0
  6  8  1  0
  8  9  1  0
  9 10  1  0
 10 11  1  0
 10 12  2  0
 12 13  1  0
 13 14  1  0
 13 15  1  0
 15 16  1  0
 15 17  1  0
 15 18  1  0
 18 19  1  0
 18 20  1  0
 12 21  1  0
 21 22  1  0
  4 23  1  0
 23 24  1  0
 23 25  2  0
 25 26  1  0
 26 27  1  0
 27 28  2  0
 28 29  1  0
 28 30  1  0
 30 31  1  0
 30 32  2  0
 32 33  1  0
 33 34  1  0
 34 35  2  0
 34 36  1  0
 36 37  1  0
 36 38  1  0
 38 39  2  0
 39 40  1  0
 39 41  1  0
 41 42  1  0
 41 43  2  0
 43 44  1  0
 43 45  1  0
 45 46  1  0
 45 47  2  0
 47 48  1  0
 32 49  1  0
 49 50  1  0
 49 51  2  0
 51 52  1  0
 25 53  1  0
 53 54  1  0
 53  2  2  0
 21  8  2  0
 51 27  1  0
 18 13  1  0
 47 38  1  0
M  CHG  2   3  -1  33  -1
M  END
>  <UniqueID>  (14) 
13

>  <SMILES>  (14) 
O=C([N-]c1ccc(Oc2cc[n-]/c(=N/C(=O)c3cc(C4CC4)cs3)c2)cc1)Nc1ccc(Cl)cc1

>  <Energy>  (14) 
373.3089060534887

>  <Genealogy>  (14) 
O=C([N-]c1ccc(Oc2cc[n-]c(=NC(=O)c3cc(C4CC4)cs3)c2)cc1)Nc1ccc(Cl)cc1 (protonated)
O=C([N-]c1ccc(Oc2cc[n-]/c(=N/C(=O)c3cc(C4CC4)cs3)c2)cc1)Nc1ccc(Cl)cc1 (cis-trans isomerization)
O=C([N-]c1ccc(Oc2cc[n-]/c(=N/C(=O)c3cc(C4CC4)cs3)c2)cc1)Nc1ccc(Cl)cc1 (3D coordinates assigned)
O=C([N-]c1ccc(Oc2cc[n-]/c(=N/C(=O)c3cc(C4CC4)cs3)c2)cc1)Nc1ccc(Cl)cc1 (nonaromatic ring conformer: 373.3089060534887 kcal/mol)

>  <smiles>  (14) 
O=C(Nc1ccc(Cl)cc1)Nc1ccc(Oc2cc[nH]c(=NC(=O)c3cc(C4CC4)cs3)c2)cc1

>  <score_type>  (14) 
oracle

>  <origin>  (14) 
adg

>  <m_score__min__energy>  (14) 
-11.98

>  <m_primary>  (14) 
energy

$$$$
14:0
     RDKit          3D

 38 39  0  0  0  0  0  0  0  0999 V2000
   57.1540   32.1770   41.6890 O   0  0  0  0  0  0  0  0  0  0  0  0
   57.0560   31.4750   42.7320 C   0  0  0  0  0  0  0  0  0  0  0  0
   56.6290   30.0420   42.6220 C   0  0  0  0  0  0  0  0  0  0  0  0
   55.5200   29.7330   43.6280 C   0  0  0  0  0  0  0  0  0  0  0  0
   56.0400   29.8340   44.9920 N   0  0  0  0  0  0  0  0  0  0  0  0
   57.1360   28.5260   45.3070 S   0  0  0  0  0  0  0  0  0  0  0  0
   57.6520   27.9890   44.0020 O   0  0  0  0  0  0  0  0  0  0  0  0
   56.4120   27.4190   46.0230 O   0  0  0  0  0  0  0  0  0  0  0  0
   58.4960   29.0860   46.2770 C   0  0  0  0  0  0  0  0  0  0  0  0
   58.5200   28.8670   47.6630 C   0  0  0  0  0  0  0  0  0  0  0  0
   59.5940   29.3320   48.4280 C   0  0  0  0  0  0  0  0  0  0  0  0
   60.6450   30.0210   47.8150 C   0  0  0  0  0  0  0  0  0  0  0  0
   61.6860   30.4720   48.5580 F   0  0  0  0  0  0  0  0  0  0  0  0
   60.6220   30.2470   46.4350 C   0  0  0  0  0  0  0  0  0  0  0  0
   59.5490   29.7830   45.6670 C   0  0  0  0  0  0  0  0  0  0  0  0
   57.4280   32.0190   44.0060 N   0  0  0  0  0  0  0  0  0  0  0  0
   58.2590   33.2130   44.1270 C   0  0  0  0  0  0  0  0  0  0  0  0
   58.6480   33.4180   45.5610 C   0  0  0  0  0  0  0  0  0  0  0  0
   59.5130   34.4610   45.9210 C   0  0  0  0  0  0  0  0  0  0  0  0
   59.8170   34.6630   47.2690 C   0  0  0  0  0  0  0  0  0  0  0  0
   59.2520   33.8340   48.2400 C   0  0  0  0  0  0  0  0  0  0  0  0
   58.3870   32.8110   47.8460 C   0  0  0  0  0  0  0  0  0  0  0  0
   58.1010   32.6300   46.5280 N   0  0  0  0  0  0  0  0  0  0  0  0
   56.2571   29.8526   41.6043 H   0  0  0  0  0  0  0  0  0  0  0  0
   57.4934   29.3966   42.8372 H   0  0  0  0  0  0  0  0  0  0  0  0
   54.6984   30.4526   43.4970 H   0  0  0  0  0  0  0  0  0  0  0  0
   55.1512   28.7109   43.4567 H   0  0  0  0  0  0  0  0  0  0  0  0
   57.6925   28.3287   48.1483 H   0  0  0  0  0  0  0  0  0  0  0  0
   59.6122   29.1556   49.5136 H   0  0  0  0  0  0  0  0  0  0  0  0
   61.4484   30.7901   45.9532 H   0  0  0  0  0  0  0  0  0  0  0  0
   59.5311   29.9652   44.5823 H   0  0  0  0  0  0  0  0  0  0  0  0
   57.2120   31.4760   44.8730 H   0  0  0  0  0  0  0  0  0  0  0  0
   59.1658   33.0902   43.5166 H   0  0  0  0  0  0  0  0  0  0  0  0
   57.6916   34.0875   43.7760 H   0  0  0  0  0  0  0  0  0  0  0  0
   59.9478   35.1136   45.1495 H   0  0  0  0  0  0  0  0  0  0  0  0
   60.4998   35.4731   47.5650 H   0  0  0  0  0  0  0  0  0  0  0  0
   59.4858   33.9851   49.3042 H   0  0  0  0  0  0  0  0  0  0  0  0
   57.9364   32.1509   48.6018 H   0  0  0  0  0  0  0  0  0  0  0  0
  1  2  2  0
  2  3  1  0
  3  4  1  0
  4  5  1  0
  5  6  1  0
  6  7  2  0
  6  8  2  0
  6  9  1  0
  9 10  2  0
 10 11  1  0
 11 12  2  0
 12 13  1  0
 12 14  1  0
 14 15  2  0
  2 16  1  0
 16 17  1  0
 17 18  1  0
 18 19  2  0
 19 20  1  0
 20 21  2  0
 21 22  1  0
 22 23  2  0
 15  9  1  0
 23 18  1  0
  3 24  1  0
  3 25  1  0
  4 26  1  0
  4 27  1  0
 10 28  1  0
 11 29  1  0
 14 30  1  0
 15 31  1  0
 16 32  1  0
 17 33  1  0
 17 34  1  0
 19 35  1  0
 20 36  1  0
 21 37  1  0
 22 38  1  0
M  CHG  1   5  -1
M  END
>  <UniqueID>  (15) 
14

>  <SMILES>  (15) 
O=C(CC[N-]S(=O)(=O)c1ccc(F)cc1)NCc1ccccn1

>  <Energy>  (15) 
28.979546085559807

>  <Genealogy>  (15) 
O=C(CC[N-]S(=O)(=O)c1ccc(F)cc1)NCc1ccccn1 (protonated)
O=C(CC[N-]S(=O)(=O)c1ccc(F)cc1)NCc1ccccn1 (3D coordinates assigned)
O=C(CC[N-]S(=O)(=O)c1ccc(F)cc1)NCc1ccccn1 (optimized conformer: 28.979546085559807 kcal/mol)

>  <smiles>  (15) 
O=C(CCNS(=O)(=O)c1ccc(F)cc1)NCc1ccccn1

>  <score_type>  (15) 
oracle

>  <origin>  (15) 
adg

>  <m_score__min__energy>  (15) 
-8.2799999999999994

>  <m_primary>  (15) 
energy

$$$$
15:0
     RDKit          3D

 54 56  0  0  0  0  0  0  0  0999 V2000
   58.3270   22.1720   44.4740 C   0  0  0  0  0  0  0  0  0  0  0  0
   57.3980   21.5560   43.4290 C   0  0  0  0  0  0  0  0  0  0  0  0
   56.2760   22.5240   43.0010 C   0  0  0  0  0  0  0  0  0  0  0  0
   56.2500   23.8440   43.7950 C   0  0  0  0  0  0  0  0  0  0  0  0
   55.0460   23.9810   44.7470 C   0  0  0  0  0  0  0  0  0  0  0  0
   55.2410   25.0150   45.8180 C   0  0  0  0  0  0  0  0  0  0  0  0
   54.4250   25.9680   45.9440 O   0  0  0  0  0  0  0  0  0  0  0  0
   56.3140   24.8600   46.7510 N   0  0  0  0  0  0  0  0  0  0  0  0
   57.4570   25.7620   46.8260 C   0  0  0  0  0  0  0  0  0  0  0  0
   57.4750   26.7360   45.6720 C   0  0  0  0  0  0  0  0  0  0  0  0
   58.0740   26.3660   44.4580 C   0  0  0  0  0  0  0  0  0  0  0  0
   58.1600   27.2800   43.4070 C   0  0  0  0  0  0  0  0  0  0  0  0
   57.6520   28.5730   43.5600 C   0  0  0  0  0  0  0  0  0  0  0  0
   57.0450   28.9630   44.7600 C   0  0  0  0  0  0  0  0  0  0  0  0
   56.5500   30.3050   44.8630 N   0  0  0  0  0  0  0  0  0  0  0  0
   57.4620   31.7780   44.7340 S   0  0  0  0  0  0  0  0  0  0  0  0
   57.7740   32.1090   43.3020 O   0  0  0  0  0  0  0  0  0  0  0  0
   56.6170   32.8910   45.2890 O   0  0  0  0  0  0  0  0  0  0  0  0
   58.9470   31.6440   45.6760 C   0  0  0  0  0  0  0  0  0  0  0  0
   59.4500   30.3820   46.0320 C   0  0  0  0  0  0  0  0  0  0  0  0
   60.6360   30.2750   46.7610 C   0  0  0  0  0  0  0  0  0  0  0  0
   61.3390   31.4250   47.1300 C   0  0  0  0  0  0  0  0  0  0  0  0
   60.8480   32.6960   46.7750 C   0  0  0  0  0  0  0  0  0  0  0  0
   59.6420   32.7990   46.0630 C   0  0  0  0  0  0  0  0  0  0  0  0
   61.5580   33.9360   47.2670 C   0  0  0  0  0  0  0  0  0  0  0  0
   63.0780   33.7380   47.3620 C   0  0  0  0  0  0  0  0  0  0  0  0
   63.4050   32.4470   48.0520 C   0  0  0  0  0  0  0  0  0  0  0  0
   64.4510   32.3450   48.7460 O   0  0  0  0  0  0  0  0  0  0  0  0
   62.5680   31.3070   47.8550 N   0  0  0  0  0  0  0  0  0  0  0  0
   56.9750   28.0430   45.8220 C   0  0  0  0  0  0  0  0  0  0  0  0
   57.9588   21.9278   45.4814 H   0  0  0  0  0  0  0  0  0  0  0  0
   59.3419   21.7673   44.3465 H   0  0  0  0  0  0  0  0  0  0  0  0
   58.3492   23.2644   44.3465 H   0  0  0  0  0  0  0  0  0  0  0  0
   57.9912   21.2877   42.5424 H   0  0  0  0  0  0  0  0  0  0  0  0
   56.9254   20.6704   43.8787 H   0  0  0  0  0  0  0  0  0  0  0  0
   56.4134   22.7636   41.9362 H   0  0  0  0  0  0  0  0  0  0  0  0
   55.3222   22.0137   43.2009 H   0  0  0  0  0  0  0  0  0  0  0  0
   57.1716   23.9063   44.3922 H   0  0  0  0  0  0  0  0  0  0  0  0
   56.1661   24.6563   43.0580 H   0  0  0  0  0  0  0  0  0  0  0  0
   54.1627   24.2581   44.1529 H   0  0  0  0  0  0  0  0  0  0  0  0
   54.9229   23.0120   45.2528 H   0  0  0  0  0  0  0  0  0  0  0  0
   57.4046   26.3266   47.7686 H   0  0  0  0  0  0  0  0  0  0  0  0
   58.3750   25.1577   46.7797 H   0  0  0  0  0  0  0  0  0  0  0  0
   58.4778   25.3503   44.3343 H   0  0  0  0  0  0  0  0  0  0  0  0
   58.6281   26.9825   42.4571 H   0  0  0  0  0  0  0  0  0  0  0  0
   57.7297   29.2908   42.7301 H   0  0  0  0  0  0  0  0  0  0  0  0
   58.9066   29.4729   45.7349 H   0  0  0  0  0  0  0  0  0  0  0  0
   61.0178   29.2834   47.0455 H   0  0  0  0  0  0  0  0  0  0  0  0
   59.2404   33.7907   45.8075 H   0  0  0  0  0  0  0  0  0  0  0  0
   61.3517   34.7618   46.5702 H   0  0  0  0  0  0  0  0  0  0  0  0
   61.1839   34.1597   48.2769 H   0  0  0  0  0  0  0  0  0  0  0  0
   63.5037   33.7228   46.3478 H   0  0  0  0  0  0  0  0  0  0  0  0
   63.5058   34.5673   47.9445 H   0  0  0  0  0  0  0  0  0  0  0  0
   56.5253   28.3480   46.7784 H   0  0  0  0  0  0  0  0  0  0  0  0
  1  2  1  0
  2  3  1  0
  3  4  1  0
  4  5  1  0
  5  6  1  0
  6  7  2  0
  6  8  1  0
  8  9  1  0
  9 10  1  0
 10 11  2  0
 11 12  1  0
 12 13  2  0
 13 14  1  0
 14 15  1  0
 15 16  1  0
 16 17  2  0
 16 18  2  0
 16 19  1  0
 19 20  2  0
 20 21  1  0
 21 22  2  0
 22 23  1  0
 23 24  2  0
 23 25  1  0
 25 26  1  0
 26 27  1  0
 27 28  2  0
 27 29  1  0
 14 30  2  0
 30 10  1  0
 24 19  1  0
 29 22  1  0
  1 31  1  0
  1 32  1  0
  1 33  1  0
  2 34  1  0
  2 35  1  0
  3 36  1  0
  3 37  1  0
  4 38  1  0
  4 39  1  0
  5 40  1  0
  5 41  1  0
  9 42  1  0
  9 43  1  0
 11 44  1  0
 12 45  1  0
 13 46  1  0
 20 47  1  0
 21 48  1  0
 24 49  1  0
 25 50  1  0
 25 51  1  0
 26 52  1  0
 26 53  1  0
 30 54  1  0
M  CHG  3   8  -1  15  -1  29  -1
M  END
>  <UniqueID>  (16) 
15

>  <SMILES>  (16) 
CCCCCC(=O)[N-]Cc1cccc([N-]S(=O)(=O)c2ccc3c(c2)CCC(=O)[N-]3)c1

>  <Energy>  (16) 
52.033229968893366

>  <Genealogy>  (16) 
CCCCCC(=O)[N-]Cc1cccc([N-]S(=O)(=O)c2ccc3c(c2)CCC(=O)[N-]3)c1 (protonated)
CCCCCC(=O)[N-]Cc1cccc([N-]S(=O)(=O)c2ccc3c(c2)CCC(=O)[N-]3)c1 (3D coordinates assigned)
CCCCCC(=O)[N-]Cc1cccc([N-]S(=O)(=O)c2ccc3c(c2)CCC(=O)[N-]3)c1 (nonaromatic ring conformer: 52.033229968893366 kcal/mol)

>  <smiles>  (16) 
CCCCCC(=O)NCc1cccc(NS(=O)(=O)c2ccc3c(c2)CCC(=O)N3)c1

>  <score_type>  (16) 
oracle

>  <origin>  (16) 
adg

>  <m_score__min__energy>  (16) 
-13.32

>  <m_primary>  (16) 
energy

$$$$
16:0
     RDKit          3D

 60 64  0  0  0  0  0  0  0  0999 V2000
   62.0010   33.2220   47.5500 C   0  0  0  0  0  0  0  0  0  0  0  0
   60.6320   33.7350   48.5670 S   0  0  0  0  0  0  0  0  0  0  0  0
   61.0420   34.9600   49.3330 O   0  0  0  0  0  0  0  0  0  0  0  0
   60.2680   32.6540   49.5440 O   0  0  0  0  0  0  0  0  0  0  0  0
   59.2640   34.1270   47.5710 N   0  0  0  0  0  0  0  0  0  0  0  0
   58.7120   33.2500   46.5720 C   0  0  0  0  0  0  0  0  0  0  0  0
   58.2920   33.7230   45.3160 C   0  0  0  0  0  0  0  0  0  0  0  0
   57.7300   32.8490   44.3810 C   0  0  0  0  0  0  0  0  0  0  0  0
   57.5930   31.4860   44.6760 C   0  0  0  0  0  0  0  0  0  0  0  0
   58.0890   30.9860   45.9030 C   0  0  0  0  0  0  0  0  0  0  0  0
   58.5990   31.8820   46.8590 C   0  0  0  0  0  0  0  0  0  0  0  0
   57.9190   29.5360   46.1610 C   0  0  0  0  0  0  0  0  0  0  0  0
   57.0590   28.7800   45.4110 C   0  0  0  0  0  0  0  0  0  0  0  0
   57.0530   27.5330   46.0180 C   0  0  0  0  0  0  0  0  0  0  0  0
   56.2390   26.3620   45.6580 C   0  0  0  0  0  0  0  0  0  0  0  0
   54.8530   26.3380   45.9890 N   0  0  0  0  0  0  0  0  0  0  0  0
   56.7500   25.3860   45.0500 O   0  0  0  0  0  0  0  0  0  0  0  0
   57.9240   27.5430   47.0520 N   0  0  0  0  0  0  0  0  0  0  0  0
   58.4540   28.7550   47.1280 N   0  0  0  0  0  0  0  0  0  0  0  0
   59.5040   29.0870   48.0430 C   0  0  0  0  0  0  0  0  0  0  0  0
   59.4410   28.6500   49.3700 C   0  0  0  0  0  0  0  0  0  0  0  0
   60.3970   29.0780   50.2960 C   0  0  0  0  0  0  0  0  0  0  0  0
   61.4330   29.9400   49.8990 C   0  0  0  0  0  0  0  0  0  0  0  0
   62.4100   30.4840   50.9200 C   0  0  0  0  0  0  0  0  0  0  0  0
   63.2560   31.5890   50.4120 N   0  0  0  0  0  0  0  0  0  0  0  0
   64.7030   31.3210   50.5170 C   0  0  0  0  0  0  0  0  0  0  0  0
   65.5170   32.5520   50.0690 C   0  0  0  0  0  0  0  0  0  0  0  0
   64.6970   33.4800   49.3870 O   0  0  0  0  0  0  0  0  0  0  0  0
   63.7270   34.0100   50.2740 C   0  0  0  0  0  0  0  0  0  0  0  0
   62.9200   32.9020   50.9870 C   0  0  0  0  0  0  0  0  0  0  0  0
   61.5380   30.3070   48.5470 C   0  0  0  0  0  0  0  0  0  0  0  0
   60.5750   29.8910   47.6260 C   0  0  0  0  0  0  0  0  0  0  0  0
   56.2530   29.3420   44.2780 C   0  0  0  0  0  0  0  0  0  0  0  0
   56.9930   30.5430   43.6420 C   0  0  0  0  0  0  0  0  0  0  0  0
   62.8374   32.9086   48.1920 H   0  0  0  0  0  0  0  0  0  0  0  0
   61.6904   32.3793   46.9149 H   0  0  0  0  0  0  0  0  0  0  0  0
   62.3207   34.0613   46.9149 H   0  0  0  0  0  0  0  0  0  0  0  0
   58.9160   35.1080   47.6250 H   0  0  0  0  0  0  0  0  0  0  0  0
   58.4066   34.7884   45.0676 H   0  0  0  0  0  0  0  0  0  0  0  0
   57.3930   33.2338   43.4071 H   0  0  0  0  0  0  0  0  0  0  0  0
   58.9131   31.5055   47.8437 H   0  0  0  0  0  0  0  0  0  0  0  0
   54.4410   27.0570   46.6250 H   0  0  0  0  0  0  0  0  0  0  0  0
   58.6377   27.9682   49.6858 H   0  0  0  0  0  0  0  0  0  0  0  0
   60.3378   28.7382   51.3405 H   0  0  0  0  0  0  0  0  0  0  0  0
   61.8381   30.8545   51.7835 H   0  0  0  0  0  0  0  0  0  0  0  0
   63.0876   29.6589   51.1848 H   0  0  0  0  0  0  0  0  0  0  0  0
   64.9518   31.0838   51.5619 H   0  0  0  0  0  0  0  0  0  0  0  0
   64.9548   30.4725   49.8638 H   0  0  0  0  0  0  0  0  0  0  0  0
   65.9509   33.0384   50.9551 H   0  0  0  0  0  0  0  0  0  0  0  0
   66.3114   32.2174   49.3857 H   0  0  0  0  0  0  0  0  0  0  0  0
   64.2375   34.6206   51.0333 H   0  0  0  0  0  0  0  0  0  0  0  0
   63.0225   34.6130   49.6824 H   0  0  0  0  0  0  0  0  0  0  0  0
   63.1657   32.9044   52.0592 H   0  0  0  0  0  0  0  0  0  0  0  0
   61.8451   33.0925   50.8516 H   0  0  0  0  0  0  0  0  0  0  0  0
   62.3837   30.9256   48.2123 H   0  0  0  0  0  0  0  0  0  0  0  0
   60.6562   30.1942   46.5717 H   0  0  0  0  0  0  0  0  0  0  0  0
   56.1033   28.5625   43.5165 H   0  0  0  0  0  0  0  0  0  0  0  0
   55.2801   29.6819   44.6627 H   0  0  0  0  0  0  0  0  0  0  0  0
   57.8038   30.1584   43.0058 H   0  0  0  0  0  0  0  0  0  0  0  0
   56.2540   31.1162   43.0628 H   0  0  0  0  0  0  0  0  0  0  0  0
  1  2  1  0
  2  3  2  0
  2  4  2  0
  2  5  1  0
  5  6  1  0
  6  7  2  0
  7  8  1  0
  8  9  2  0
  9 10  1  0
 10 11  2  0
 10 12  1  0
 12 13  2  0
 13 14  1  0
 14 15  1  0
 15 16  1  0
 15 17  2  0
 14 18  2  0
 18 19  1  0
 19 20  1  0
 20 21  2  0
 21 22  1  0
 22 23  2  0
 23 24  1  0
 24 25  1  0
 25 26  1  0
 26 27  1  0
 27 28  1  0
 28 29  1  0
 29 30  1  0
 23 31  1  0
 31 32  2  0
 13 33  1  0
 33 34  1  0
 11  6  1  0
 19 12  1  0
 32 20  1  0
 34  9  1  0
 30 25  1  0
  1 35  1  0
  1 36  1  0
  1 37  1  0
  5 38  1  0
  7 39  1  0
  8 40  1  0
 11 41  1  0
 16 42  1  0
 21 43  1  0
 22 44  1  0
 24 45  1  0
 24 46  1  0
 26 47  1  0
 26 48  1  0
 27 49  1  0
 27 50  1  0
 29 51  1  0
 29 52  1  0
 30 53  1  0
 30 54  1  0
 31 55  1  0
 32 56  1  0
 33 57  1  0
 33 58  1  0
 34 59  1  0
 34 60  1  0
M  CHG  1  16  -1
M  END
>  <UniqueID>  (17) 
16

>  <SMILES>  (17) 
CS(=O)(=O)Nc1ccc2c(c1)-c1c(c(C([NH-])=O)nn1-c1ccc(CN3CCOCC3)cc1)CC2

>  <Energy>  (17) 
117.45255585386535

>  <Genealogy>  (17) 
CS(=O)(=O)Nc1ccc2c(c1)-c1c(c(C([NH-])=O)nn1-c1ccc(CN3CCOCC3)cc1)CC2 (protonated)
CS(=O)(=O)Nc1ccc2c(c1)-c1c(c(C([NH-])=O)nn1-c1ccc(CN3CCOCC3)cc1)CC2 (3D coordinates assigned)
CS(=O)(=O)Nc1ccc2c(c1)-c1c(c(C([NH-])=O)nn1-c1ccc(CN3CCOCC3)cc1)CC2 (nonaromatic ring conformer: 117.45255585386535 kcal/mol)

>  <smiles>  (17) 
CS(=O)(=O)Nc1ccc2c(c1)-c1c(c(C(N)=O)nn1-c1ccc(CN3CCOCC3)cc1)CC2

>  <score_type>  (17) 
oracle

>  <origin>  (17) 
adg

>  <m_score__min__energy>  (17) 
-12.199999999999999

>  <m_primary>  (17) 
energy

$$$$
17:0
     RDKit          3D

 62 65  0  0  0  0  0  0  0  0999 V2000
   60.1465   24.9939   46.5686 H   0  0  0  0  0  0  0  0  0  0  0  0
   59.2240   25.5610   46.3750 C   0  0  0  0  0  0  0  0  0  0  0  0
   58.0160   25.0160   46.6800 N   0  0  0  0  0  0  0  0  0  0  0  0
   56.8490   25.6870   46.4680 C   0  0  0  0  0  0  0  0  0  0  0  0
   55.6960   25.1430   46.7290 N   0  0  0  0  0  0  0  0  0  0  0  0
   54.6560   24.8220   45.7890 C   0  0  0  0  0  0  0  0  0  0  0  0
   53.6730   25.5940   45.6160 O   0  0  0  0  0  0  0  0  0  0  0  0
   54.7590   23.5770   44.9610 C   0  0  0  0  0  0  0  0  0  0  0  0
   54.3015   23.7622   43.9779 H   0  0  0  0  0  0  0  0  0  0  0  0
   54.2356   22.7661   45.4888 H   0  0  0  0  0  0  0  0  0  0  0  0
   56.1630   23.1740   44.7680 N   0  0  0  0  0  0  0  0  0  0  0  0
   56.7390   23.7370   45.4370 H   0  0  0  0  0  0  0  0  0  0  0  0
   56.6680   23.4730   43.4180 C   0  0  0  0  0  0  0  0  0  0  0  0
   55.8268   23.4561   42.7094 H   0  0  0  0  0  0  0  0  0  0  0  0
   57.4174   22.7128   43.1526 H   0  0  0  0  0  0  0  0  0  0  0  0
   57.3350   24.8440   43.3640 C   0  0  0  0  0  0  0  0  0  0  0  0
   57.5114   25.2065   44.3875 H   0  0  0  0  0  0  0  0  0  0  0  0
   58.2949   24.7641   42.8328 H   0  0  0  0  0  0  0  0  0  0  0  0
   56.6796   25.5499   42.8328 H   0  0  0  0  0  0  0  0  0  0  0  0
   56.8850   26.9740   45.9230 C   0  0  0  0  0  0  0  0  0  0  0  0
   55.9490   27.5260   45.7522 H   0  0  0  0  0  0  0  0  0  0  0  0
   58.1170   27.5610   45.5940 C   0  0  0  0  0  0  0  0  0  0  0  0
   58.1670   28.8880   44.9470 C   0  0  0  0  0  0  0  0  0  0  0  0
   57.4240   29.2590   43.4780 S   0  0  0  0  0  0  0  0  0  0  0  0
   57.7920   30.8960   43.5720 C   0  0  0  0  0  0  0  0  0  0  0  0
   57.3580   31.9240   42.5830 C   0  0  0  0  0  0  0  0  0  0  0  0
   56.9837   32.8105   43.1159 H   0  0  0  0  0  0  0  0  0  0  0  0
   58.2125   32.2093   41.9517 H   0  0  0  0  0  0  0  0  0  0  0  0
   56.5576   31.5106   41.9517 H   0  0  0  0  0  0  0  0  0  0  0  0
   58.4540   31.1810   44.7150 N   0  0  0  0  0  0  0  0  0  0  0  0
   58.7740   32.1420   44.9730 H   0  0  0  0  0  0  0  0  0  0  0  0
   58.6850   30.0770   45.4790 C   0  0  0  0  0  0  0  0  0  0  0  0
   59.4830   30.1520   46.7150 C   0  0  0  0  0  0  0  0  0  0  0  0
   59.0480   29.4950   47.8760 C   0  0  0  0  0  0  0  0  0  0  0  0
   58.0928   28.9495   47.8736 H   0  0  0  0  0  0  0  0  0  0  0  0
   59.8270   29.5330   49.0350 C   0  0  0  0  0  0  0  0  0  0  0  0
   59.4942   29.0002   49.9380 H   0  0  0  0  0  0  0  0  0  0  0  0
   61.0270   30.2460   49.0490 C   0  0  0  0  0  0  0  0  0  0  0  0
   61.6433   30.2613   49.9600 H   0  0  0  0  0  0  0  0  0  0  0  0
   61.4510   30.9420   47.9100 C   0  0  0  0  0  0  0  0  0  0  0  0
   62.6350   31.7430   47.9940 N   0  0  0  0  0  0  0  0  0  0  0  0
   62.6720   33.4540   47.7120 S   0  0  0  0  0  0  0  0  0  0  0  0
   63.9080   34.0230   48.3510 O   0  0  0  0  0  0  0  0  0  0  0  0
   62.7170   33.7320   46.2360 O   0  0  0  0  0  0  0  0  0  0  0  0
   61.2350   34.2260   48.4440 C   0  0  0  0  0  0  0  0  0  0  0  0
   60.9908   33.7161   49.3876 H   0  0  0  0  0  0  0  0  0  0  0  0
   61.4576   35.2864   48.6338 H   0  0  0  0  0  0  0  0  0  0  0  0
   60.0580   34.1340   47.5120 C   0  0  0  0  0  0  0  0  0  0  0  0
   60.0890   34.7820   46.2660 C   0  0  0  0  0  0  0  0  0  0  0  0
   60.9936   35.3236   45.9524 H   0  0  0  0  0  0  0  0  0  0  0  0
   58.9730   34.7410   45.4220 C   0  0  0  0  0  0  0  0  0  0  0  0
   59.0040   35.2465   44.4455 H   0  0  0  0  0  0  0  0  0  0  0  0
   57.8200   34.0590   45.8180 C   0  0  0  0  0  0  0  0  0  0  0  0
   56.9438   34.0287   45.1537 H   0  0  0  0  0  0  0  0  0  0  0  0
   57.7790   33.4150   47.0580 C   0  0  0  0  0  0  0  0  0  0  0  0
   56.8703   32.8788   47.3691 H   0  0  0  0  0  0  0  0  0  0  0  0
   58.8920   33.4520   47.9030 C   0  0  0  0  0  0  0  0  0  0  0  0
   58.8556   32.9451   48.8786 H   0  0  0  0  0  0  0  0  0  0  0  0
   60.6860   30.8700   46.7320 C   0  0  0  0  0  0  0  0  0  0  0  0
   61.0334   31.3791   45.8209 H   0  0  0  0  0  0  0  0  0  0  0  0
   59.2960   26.8380   45.8170 C   0  0  0  0  0  0  0  0  0  0  0  0
   60.2713   27.2737   45.5542 H   0  0  0  0  0  0  0  0  0  0  0  0
  1  2  1  0
  2  3  1  0
  3  4  1  0
  4  5  2  0
  5  6  1  0
  6  7  2  0
  6  8  1  0
  8  9  1  0
  8 10  1  0
  8 11  1  0
 11 12  1  0
 11 13  1  0
 13 14  1  0
 13 15  1  0
 13 16  1  0
 16 17  1  0
 16 18  1  0
 16 19  1  0
  4 20  1  0
 20 21  1  0
 20 22  2  0
 22 23  1  0
 23 24  1  0
 24 25  1  0
 25 26  1  0
 26 27  1  0
 26 28  1  0
 26 29  1  0
 25 30  2  0
 30 31  1  0
 30 32  1  0
 32 33  1  0
 33 34  2  0
 34 35  1  0
 34 36  1  0
 36 37  1  0
 36 38  2  0
 38 39  1  0
 38 40  1  0
 40 41  1  0
 41 42  1  0
 42 43  2  0
 42 44  2  0
 42 45  1  0
 45 46  1  0
 45 47  1  0
 45 48  1  0
 48 49  2  0
 49 50  1  0
 49 51  1  0
 51 52  1  0
 51 53  2  0
 53 54  1  0
 53 55  1  0
 55 56  1  0
 55 57  2  0
 57 58  1  0
 40 59  2  0
 59 60  1  0
 22 61  1  0
 61 62  1  0
 61  2  2  0
 32 23  2  0
 59 33  1  0
 57 48  1  0
M  CHG  3   3  -1  30   1  41  -1
M  END
>  <UniqueID>  (18) 
17

>  <SMILES>  (18) 
CCNCC(=O)/N=c1/cc(-c2sc(C)[nH+]c2-c2cccc([N-]S(=O)(=O)Cc3ccccc3)c2)cc[n-]1

>  <Energy>  (18) 
96.56340124279393

>  <Genealogy>  (18) 
CCNCC(=O)N=c1cc(-c2sc(C)[nH+]c2-c2cccc([N-]S(=O)(=O)Cc3ccccc3)c2)cc[n-]1 (protonated)
CCNCC(=O)/N=c1/cc(-c2sc(C)[nH+]c2-c2cccc([N-]S(=O)(=O)Cc3ccccc3)c2)cc[n-]1 (cis-trans isomerization)
CCNCC(=O)/N=c1/cc(-c2sc(C)[nH+]c2-c2cccc([N-]S(=O)(=O)Cc3ccccc3)c2)cc[n-]1 (3D coordinates assigned)
CCNCC(=O)/N=c1/cc(-c2sc(C)[nH+]c2-c2cccc([N-]S(=O)(=O)Cc3ccccc3)c2)cc[n-]1 (optimized conformer: 96.56340124279393 kcal/mol)

>  <smiles>  (18) 
CCNCC(=O)N=c1cc(-c2sc(C)nc2-c2cccc(NS(=O)(=O)Cc3ccccc3)c2)cc[nH]1

>  <score_type>  (18) 
oracle

>  <origin>  (18) 
adg

>  <m_score__min__energy>  (18) 
-11.6

>  <m_primary>  (18) 
energy

$$$$
18:0
     RDKit          3D

 26 27  0  0  0  0  0  0  0  0999 V2000
   58.9430   29.9860   51.3600 C   0  0  0  0  0  0  0  0  0  0  0  0
   58.1650   29.6650   52.5080 O   0  0  0  0  0  0  0  0  0  0  0  0
   56.7880   29.8990   52.6220 C   0  0  0  0  0  0  0  0  0  0  0  0
   55.9860   29.2430   53.5760 C   0  0  0  0  0  0  0  0  0  0  0  0
   54.6160   29.5100   53.6500 C   0  0  0  0  0  0  0  0  0  0  0  0
   54.0230   30.4270   52.7680 C   0  0  0  0  0  0  0  0  0  0  0  0
   52.5580   30.7420   52.8710 C   0  0  0  0  0  0  0  0  0  0  0  0
   51.9580   30.8530   51.5030 C   0  0  0  0  0  0  0  0  0  0  0  0
   52.0570   29.9130   50.5480 N   0  0  0  0  0  0  0  0  0  0  0  0
   51.4520   30.4580   49.4740 C   0  0  0  0  0  0  0  0  0  0  0  0
   51.3450   29.8600   48.3700 O   0  0  0  0  0  0  0  0  0  0  0  0
   50.9750   31.7050   49.6820 N   0  0  0  0  0  0  0  0  0  0  0  0
   51.3090   31.9410   50.9640 C   0  0  0  0  0  0  0  0  0  0  0  0
   51.0330   33.1300   51.6270 O   0  0  0  0  0  0  0  0  0  0  0  0
   54.8250   31.0880   51.8240 C   0  0  0  0  0  0  0  0  0  0  0  0
   56.1940   30.8210   51.7520 C   0  0  0  0  0  0  0  0  0  0  0  0
   59.9166   30.3877   51.6775 H   0  0  0  0  0  0  0  0  0  0  0  0
   59.0994   29.0789   50.7577 H   0  0  0  0  0  0  0  0  0  0  0  0
   58.4143   30.7394   50.7577 H   0  0  0  0  0  0  0  0  0  0  0  0
   56.4401   28.5169   54.2663 H   0  0  0  0  0  0  0  0  0  0  0  0
   53.9991   28.9987   54.4036 H   0  0  0  0  0  0  0  0  0  0  0  0
   52.0514   29.9390   53.4264 H   0  0  0  0  0  0  0  0  0  0  0  0
   52.4317   31.6991   53.3983 H   0  0  0  0  0  0  0  0  0  0  0  0
   52.5130   28.9770   50.6170 H   0  0  0  0  0  0  0  0  0  0  0  0
   54.3730   31.8195   51.1380 H   0  0  0  0  0  0  0  0  0  0  0  0
   56.8116   31.3403   51.0043 H   0  0  0  0  0  0  0  0  0  0  0  0
  1  2  1  0
  2  3  1  0
  3  4  2  0
  4  5  1  0
  5  6  2  0
  6  7  1  0
  7  8  1  0
  8  9  1  0
  9 10  1  0
 10 11  2  0
 10 12  1  0
 12 13  1  0
 13 14  1  0
  6 15  1  0
 15 16  2  0
 16  3  1  0
 13  8  2  0
  1 17  1  0
  1 18  1  0
  1 19  1  0
  4 20  1  0
  5 21  1  0
  7 22  1  0
  7 23  1  0
  9 24  1  0
 15 25  1  0
 16 26  1  0
M  CHG  2  12  -1  14  -1
M  END
>  <UniqueID>  (19) 
18

>  <SMILES>  (19) 
COc1ccc(Cc2[nH]c(=O)[n-]c2[O-])cc1

>  <Energy>  (19) 
54.59753232069741

>  <Genealogy>  (19) 
COc1ccc(Cc2[nH]c(=O)[n-]c2[O-])cc1 (protonated)
COc1ccc(Cc2[nH]c(=O)[n-]c2[O-])cc1 (3D coordinates assigned)
COc1ccc(Cc2[nH]c(=O)[n-]c2[O-])cc1 (optimized conformer: 54.59753232069741 kcal/mol)

>  <smiles>  (19) 
COc1ccc(Cc2[nH]c(=O)[nH]c2O)cc1

>  <score_type>  (19) 
oracle

>  <origin>  (19) 
adg

>  <m_score__min__energy>  (19) 
-12.49

>  <m_primary>  (19) 
energy

$$$$
19:0
     RDKit          3D

 53 56  0  0  0  0  0  0  0  0999 V2000
   60.1090   27.5960   48.9510 O   0  0  0  0  0  0  0  0  0  0  0  0
   59.6010   27.4950   47.8030 C   0  0  0  0  0  0  0  0  0  0  0  0
   59.2030   28.7410   47.0650 C   0  0  0  0  0  0  0  0  0  0  0  0
   60.6780   29.7410   46.6810 S   0  0  0  0  0  0  0  0  0  0  0  0
   60.2410   31.0390   47.8500 C   0  0  0  0  0  0  0  0  0  0  0  0
   60.4720   30.7930   49.1730 N   0  0  0  0  0  0  0  0  0  0  0  0
   60.1550   31.7240   50.1000 C   0  0  0  0  0  0  0  0  0  0  0  0
   60.3450   31.5880   51.4770 C   0  0  0  0  0  0  0  0  0  0  0  0
   59.9120   32.7100   52.1830 C   0  0  0  0  0  0  0  0  0  0  0  0
   59.2990   33.8510   51.0900 S   0  0  0  0  0  0  0  0  0  0  0  0
   59.5900   32.9160   49.7250 C   0  0  0  0  0  0  0  0  0  0  0  0
   59.3390   33.1840   48.3870 C   0  0  0  0  0  0  0  0  0  0  0  0
   58.7990   34.2760   48.0580 O   0  0  0  0  0  0  0  0  0  0  0  0
   59.6830   32.2410   47.4430 N   0  0  0  0  0  0  0  0  0  0  0  0
   59.3900   32.4980   46.0190 C   0  0  0  0  0  0  0  0  0  0  0  0
   58.0050   31.9530   45.6540 C   0  0  0  0  0  0  0  0  0  0  0  0
   57.6790   32.2030   44.1770 C   0  0  0  0  0  0  0  0  0  0  0  0
   57.8710   30.9570   43.3990 N   0  0  0  0  0  0  0  0  0  0  0  0
   56.6610   30.5820   42.6420 C   0  0  0  0  0  0  0  0  0  0  0  0
   55.5330   30.0860   43.5780 C   0  0  0  0  0  0  0  0  0  0  0  0
   55.9940   29.7310   44.8710 O   0  0  0  0  0  0  0  0  0  0  0  0
   57.1750   28.9650   44.7720 C   0  0  0  0  0  0  0  0  0  0  0  0
   58.3390   29.8300   44.2410 C   0  0  0  0  0  0  0  0  0  0  0  0
   59.4520   26.1920   47.2250 N   0  0  0  0  0  0  0  0  0  0  0  0
   58.2670   25.6590   46.6170 C   0  0  0  0  0  0  0  0  0  0  0  0
   58.2720   24.4220   45.9490 C   0  0  0  0  0  0  0  0  0  0  0  0
   57.1060   23.9450   45.3420 C   0  0  0  0  0  0  0  0  0  0  0  0
   55.9350   24.7060   45.3790 C   0  0  0  0  0  0  0  0  0  0  0  0
   55.9310   25.9510   46.0150 C   0  0  0  0  0  0  0  0  0  0  0  0
   54.7700   26.7130   46.0410 O   0  0  0  0  0  0  0  0  0  0  0  0
   57.0960   26.4290   46.6250 C   0  0  0  0  0  0  0  0  0  0  0  0
   58.6980   28.4631   46.1281 H   0  0  0  0  0  0  0  0  0  0  0  0
   58.5227   29.3313   47.6965 H   0  0  0  0  0  0  0  0  0  0  0  0
   60.7856   30.6981   51.9503 H   0  0  0  0  0  0  0  0  0  0  0  0
   59.9606   32.8345   53.2748 H   0  0  0  0  0  0  0  0  0  0  0  0
   59.4138   33.5820   45.8336 H   0  0  0  0  0  0  0  0  0  0  0  0
   60.1473   31.9932   45.4012 H   0  0  0  0  0  0  0  0  0  0  0  0
   57.9837   30.8703   45.8473 H   0  0  0  0  0  0  0  0  0  0  0  0
   57.2547   32.4730   46.2678 H   0  0  0  0  0  0  0  0  0  0  0  0
   56.6336   32.5326   44.0852 H   0  0  0  0  0  0  0  0  0  0  0  0
   58.3506   32.9811   43.7852 H   0  0  0  0  0  0  0  0  0  0  0  0
   56.3022   31.4601   42.0851 H   0  0  0  0  0  0  0  0  0  0  0  0
   56.9244   29.7625   41.9572 H   0  0  0  0  0  0  0  0  0  0  0  0
   54.7868   30.8876   43.6810 H   0  0  0  0  0  0  0  0  0  0  0  0
   55.1067   29.1796   43.1233 H   0  0  0  0  0  0  0  0  0  0  0  0
   57.4381   28.5755   45.7665 H   0  0  0  0  0  0  0  0  0  0  0  0
   57.0019   28.1340   44.0724 H   0  0  0  0  0  0  0  0  0  0  0  0
   58.8953   30.2374   45.0981 H   0  0  0  0  0  0  0  0  0  0  0  0
   58.9748   29.1867   43.6149 H   0  0  0  0  0  0  0  0  0  0  0  0
   59.1963   23.8273   45.9036 H   0  0  0  0  0  0  0  0  0  0  0  0
   57.1108   22.9690   44.8346 H   0  0  0  0  0  0  0  0  0  0  0  0
   55.0166   24.3258   44.9079 H   0  0  0  0  0  0  0  0  0  0  0  0
   57.0928   27.4146   47.1135 H   0  0  0  0  0  0  0  0  0  0  0  0
  1  2  2  0
  2  3  1  0
  3  4  1  0
  4  5  1  0
  5  6  2  0
  6  7  1  0
  7  8  1  0
  8  9  2  0
  9 10  1  0
 10 11  1  0
 11 12  1  0
 12 13  2  0
 12 14  1  0
 14 15  1  0
 15 16  1  0
 16 17  1  0
 17 18  1  0
 18 19  1  0
 19 20  1  0
 20 21  1  0
 21 22  1  0
 22 23  1  0
  2 24  1  0
 24 25  1  0
 25 26  2  0
 26 27  1  0
 27 28  2  0
 28 29  1  0
 29 30  1  0
 29 31  2  0
 14  5  1  0
 23 18  1  0
 31 25  1  0
 11  7  2  0
  3 32  1  0
  3 33  1  0
  8 34  1  0
  9 35  1  0
 15 36  1  0
 15 37  1  0
 16 38  1  0
 16 39  1  0
 17 40  1  0
 17 41  1  0
 19 42  1  0
 19 43  1  0
 20 44  1  0
 20 45  1  0
 22 46  1  0
 22 47  1  0
 23 48  1  0
 23 49  1  0
 26 50  1  0
 27 51  1  0
 28 52  1  0
 31 53  1  0
M  CHG  2  24  -1  30  -1
M  END
>  <UniqueID>  (20) 
19

>  <SMILES>  (20) 
O=C(CSc1nc2ccsc2c(=O)n1CCCN1CCOCC1)[N-]c1cccc([O-])c1

>  <Energy>  (20) 
101.40279073734615

>  <Genealogy>  (20) 
O=C(CSc1nc2ccsc2c(=O)n1CCCN1CCOCC1)[N-]c1cccc([O-])c1 (protonated)
O=C(CSc1nc2ccsc2c(=O)n1CCCN1CCOCC1)[N-]c1cccc([O-])c1 (3D coordinates assigned)
O=C(CSc1nc2ccsc2c(=O)n1CCCN1CCOCC1)[N-]c1cccc([O-])c1 (nonaromatic ring conformer: 101.40279073734615 kcal/mol)

>  <smiles>  (20) 
O=C(CSc1nc2ccsc2c(=O)n1CCCN1CCOCC1)Nc1cccc(O)c1

>  <score_type>  (20) 
oracle

>  <origin>  (20) 
adg

>  <m_score__min__energy>  (20) 
-13.73

>  <m_primary>  (20) 
energy

$$$$
20:0
     RDKit          3D

 60 62  0  0  0  0  0  0  0  0999 V2000
   59.1080   28.7060   44.7490 C   0  0  0  0  0  0  0  0  0  0  0  0
   58.0170   28.4120   43.7490 C   0  0  0  0  0  0  0  0  0  0  0  0
   58.0210   27.0930   43.0230 C   0  0  0  0  0  0  0  0  0  0  0  0
   57.0600   29.3090   43.4390 C   0  0  0  0  0  0  0  0  0  0  0  0
   56.1270   29.9300   44.4070 C   0  0  0  0  0  0  0  0  0  0  0  0
   55.1750   29.2630   44.8910 O   0  0  0  0  0  0  0  0  0  0  0  0
   56.2560   31.3080   44.7770 N   0  0  0  0  0  0  0  0  0  0  0  0
   57.6720   32.2650   44.4800 S   0  0  0  0  0  0  0  0  0  0  0  0
   57.2570   33.6580   44.0940 O   0  0  0  0  0  0  0  0  0  0  0  0
   58.4640   31.6680   43.3480 O   0  0  0  0  0  0  0  0  0  0  0  0
   58.6380   32.3470   45.9520 C   0  0  0  0  0  0  0  0  0  0  0  0
   59.6450   31.3980   46.1720 C   0  0  0  0  0  0  0  0  0  0  0  0
   60.4640   31.4900   47.3000 C   0  0  0  0  0  0  0  0  0  0  0  0
   60.3020   32.5510   48.2110 C   0  0  0  0  0  0  0  0  0  0  0  0
   61.2220   32.6820   49.3970 C   0  0  0  0  0  0  0  0  0  0  0  0
   61.6620   31.3280   49.8690 C   0  0  0  0  0  0  0  0  0  0  0  0
   62.8860   31.0210   49.8020 O   0  0  0  0  0  0  0  0  0  0  0  0
   60.6850   30.3620   50.2920 N   0  0  0  0  0  0  0  0  0  0  0  0
   61.0090   29.0240   50.7040 C   0  0  0  0  0  0  0  0  0  0  0  0
   61.8260   28.7920   51.8240 C   0  0  0  0  0  0  0  0  0  0  0  0
   62.1170   27.4870   52.2290 C   0  0  0  0  0  0  0  0  0  0  0  0
   61.5950   26.4020   51.5240 C   0  0  0  0  0  0  0  0  0  0  0  0
   62.0090   24.6190   52.0700 Br  0  0  0  0  0  0  0  0  0  0  0  0
   60.7630   26.6190   50.4230 C   0  0  0  0  0  0  0  0  0  0  0  0
   60.4490   27.9280   50.0180 C   0  0  0  0  0  0  0  0  0  0  0  0
   59.6250   28.1640   48.9070 O   0  0  0  0  0  0  0  0  0  0  0  0
   59.3800   27.2460   47.8740 C   0  0  0  0  0  0  0  0  0  0  0  0
   60.4570   26.7810   47.1130 C   0  0  0  0  0  0  0  0  0  0  0  0
   60.2480   25.8750   46.0680 C   0  0  0  0  0  0  0  0  0  0  0  0
   58.9550   25.4360   45.7700 C   0  0  0  0  0  0  0  0  0  0  0  0
   57.8610   25.9080   46.5120 C   0  0  0  0  0  0  0  0  0  0  0  0
   56.2290   25.3630   46.1420 S   0  0  0  0  0  0  0  0  0  0  0  0
   55.1440   26.7120   46.1370 N   0  0  0  0  0  0  0  0  0  0  0  0
   55.7880   24.3640   47.1770 O   0  0  0  0  0  0  0  0  0  0  0  0
   56.1990   24.7160   44.7840 O   0  0  0  0  0  0  0  0  0  0  0  0
   58.0760   26.8160   47.5610 C   0  0  0  0  0  0  0  0  0  0  0  0
   59.2840   33.4940   47.9930 C   0  0  0  0  0  0  0  0  0  0  0  0
   58.4510   33.3870   46.8750 C   0  0  0  0  0  0  0  0  0  0  0  0
   58.7095   28.5986   45.7686 H   0  0  0  0  0  0  0  0  0  0  0  0
   59.9386   27.9997   44.6037 H   0  0  0  0  0  0  0  0  0  0  0  0
   59.4713   29.7341   44.6037 H   0  0  0  0  0  0  0  0  0  0  0  0
   58.0235   26.2717   43.7548 H   0  0  0  0  0  0  0  0  0  0  0  0
   57.1231   27.0191   42.3919 H   0  0  0  0  0  0  0  0  0  0  0  0
   58.9194   27.0245   42.3919 H   0  0  0  0  0  0  0  0  0  0  0  0
   56.9644   29.6031   42.3834 H   0  0  0  0  0  0  0  0  0  0  0  0
   59.7912   30.5776   45.4540 H   0  0  0  0  0  0  0  0  0  0  0  0
   61.2391   30.7299   47.4772 H   0  0  0  0  0  0  0  0  0  0  0  0
   62.1055   33.2697   49.1072 H   0  0  0  0  0  0  0  0  0  0  0  0
   60.6834   33.1867   50.2126 H   0  0  0  0  0  0  0  0  0  0  0  0
   59.6770   30.6060   50.1620 H   0  0  0  0  0  0  0  0  0  0  0  0
   62.2388   29.6433   52.3851 H   0  0  0  0  0  0  0  0  0  0  0  0
   62.7589   27.3145   53.1054 H   0  0  0  0  0  0  0  0  0  0  0  0
   60.3516   25.7615   49.8703 H   0  0  0  0  0  0  0  0  0  0  0  0
   61.4756   27.1301   47.3377 H   0  0  0  0  0  0  0  0  0  0  0  0
   61.1021   25.5077   45.4802 H   0  0  0  0  0  0  0  0  0  0  0  0
   58.7943   24.7186   44.9517 H   0  0  0  0  0  0  0  0  0  0  0  0
   55.1410   27.1050   45.1700 H   0  0  0  0  0  0  0  0  0  0  0  0
   57.2213   27.1936   48.1415 H   0  0  0  0  0  0  0  0  0  0  0  0
   59.1415   34.3203   48.7050 H   0  0  0  0  0  0  0  0  0  0  0  0
   57.6464   34.1206   46.7186 H   0  0  0  0  0  0  0  0  0  0  0  0
  1  2  1  0
  2  3  1  0
  2  4  2  3
  4  5  1  0
  5  6  2  0
  5  7  1  0
  7  8  1  0
  8  9  2  0
  8 10  2  0
  8 11  1  0
 11 12  2  0
 12 13  1  0
 13 14  2  0
 14 15  1  0
 15 16  1  0
 16 17  2  0
 16 18  1  0
 18 19  1  0
 19 20  2  0
 20 21  1  0
 21 22  2  0
 22 23  1  0
 22 24  1  0
 24 25  2  0
 25 26  1  0
 26 27  1  0
 27 28  2  0
 28 29  1  0
 29 30  2  0
 30 31  1  0
 31 32  1  0
 32 33  1  0
 32 34  2  0
 32 35  2  0
 31 36  2  0
 14 37  1  0
 37 38  2  0
 38 11  1  0
 25 19  1  0
 36 27  1  0
  1 39  1  0
  1 40  1  0
  1 41  1  0
  3 42  1  0
  3 43  1  0
  3 44  1  0
  4 45  1  0
 12 46  1  0
 13 47  1  0
 15 48  1  0
 15 49  1  0
 18 50  1  0
 20 51  1  0
 21 52  1  0
 24 53  1  0
 28 54  1  0
 29 55  1  0
 30 56  1  0
 33 57  1  0
 36 58  1  0
 37 59  1  0
 38 60  1  0
M  CHG  2   7  -1  33  -1
M  END
>  <UniqueID>  (21) 
20

>  <SMILES>  (21) 
CC(C)=CC(=O)[N-]S(=O)(=O)c1ccc(CC(=O)Nc2ccc(Br)cc2Oc2cccc(S([NH-])(=O)=O)c2)cc1

>  <Energy>  (21) 
71.2047382978529

>  <Genealogy>  (21) 
CC(C)=CC(=O)[N-]S(=O)(=O)c1ccc(CC(=O)Nc2ccc(Br)cc2Oc2cccc(S([NH-])(=O)=O)c2)cc1 (protonated)
CC(C)=CC(=O)[N-]S(=O)(=O)c1ccc(CC(=O)Nc2ccc(Br)cc2Oc2cccc(S([NH-])(=O)=O)c2)cc1 (3D coordinates assigned)
CC(C)=CC(=O)[N-]S(=O)(=O)c1ccc(CC(=O)Nc2ccc(Br)cc2Oc2cccc(S([NH-])(=O)=O)c2)cc1 (optimized conformer: 71.2047382978529 kcal/mol)

>  <smiles>  (21) 
CC(C)=CC(=O)NS(=O)(=O)c1ccc(CC(=O)Nc2ccc(Br)cc2Oc2cccc(S(N)(=O)=O)c2)cc1

>  <score_type>  (21) 
oracle

>  <origin>  (21) 
adg

>  <m_score__min__energy>  (21) 
-14.880000000000001

>  <m_primary>  (21) 
energy

$$$$
21:0
     RDKit          3D

 38 40  0  0  0  0  0  0  0  0999 V2000
   56.5040   25.5360   44.0060 H   0  0  0  0  0  0  0  0  0  0  0  0
   56.9160   24.8320   43.4050 O   0  0  0  0  0  0  0  0  0  0  0  0
   56.9520   23.4800   43.7530 C   0  0  0  0  0  0  0  0  0  0  0  0
   56.6380   22.5220   42.7840 C   0  0  0  0  0  0  0  0  0  0  0  0
   56.3672   22.8382   41.7658 H   0  0  0  0  0  0  0  0  0  0  0  0
   56.6680   21.1650   43.1080 C   0  0  0  0  0  0  0  0  0  0  0  0
   56.4236   20.4072   42.3491 H   0  0  0  0  0  0  0  0  0  0  0  0
   57.0110   20.7790   44.4040 C   0  0  0  0  0  0  0  0  0  0  0  0
   57.0378   19.7125   44.6720 H   0  0  0  0  0  0  0  0  0  0  0  0
   57.3120   21.7220   45.3350 N   0  0  0  0  0  0  0  0  0  0  0  0
   57.2940   23.0560   45.0520 C   0  0  0  0  0  0  0  0  0  0  0  0
   57.5880   23.9400   45.9630 N   0  0  0  0  0  0  0  0  0  0  0  0
   56.7150   24.9380   46.5180 C   0  0  0  0  0  0  0  0  0  0  0  0
   55.9320   24.6650   47.4680 O   0  0  0  0  0  0  0  0  0  0  0  0
   56.7310   26.3010   45.9700 C   0  0  0  0  0  0  0  0  0  0  0  0
   55.6150   27.0310   45.7640 N   0  0  0  0  0  0  0  0  0  0  0  0
   56.0510   28.1930   45.2460 C   0  0  0  0  0  0  0  0  0  0  0  0
   55.2010   29.2260   44.8690 O   0  0  0  0  0  0  0  0  0  0  0  0
   57.4250   28.2160   45.1300 C   0  0  0  0  0  0  0  0  0  0  0  0
   58.2670   29.3000   44.5230 C   0  0  0  0  0  0  0  0  0  0  0  0
   59.0138   28.8411   43.8584 H   0  0  0  0  0  0  0  0  0  0  0  0
   57.6038   29.9764   43.9638 H   0  0  0  0  0  0  0  0  0  0  0  0
   58.9940   30.1220   45.5950 C   0  0  0  0  0  0  0  0  0  0  0  0
   58.8170   29.6616   46.5782 H   0  0  0  0  0  0  0  0  0  0  0  0
   60.0666   30.1311   45.3512 H   0  0  0  0  0  0  0  0  0  0  0  0
   58.5080   31.5480   45.6290 C   0  0  0  0  0  0  0  0  0  0  0  0
   58.0340   32.1670   44.4590 C   0  0  0  0  0  0  0  0  0  0  0  0
   58.0492   31.6196   43.5050 H   0  0  0  0  0  0  0  0  0  0  0  0
   57.5440   33.4740   44.5030 C   0  0  0  0  0  0  0  0  0  0  0  0
   57.1771   33.9541   43.5838 H   0  0  0  0  0  0  0  0  0  0  0  0
   57.5190   34.1730   45.7130 C   0  0  0  0  0  0  0  0  0  0  0  0
   57.1346   35.2032   45.7449 H   0  0  0  0  0  0  0  0  0  0  0  0
   57.9820   33.5640   46.8820 C   0  0  0  0  0  0  0  0  0  0  0  0
   57.9620   34.1154   47.8336 H   0  0  0  0  0  0  0  0  0  0  0  0
   58.4710   32.2540   46.8440 C   0  0  0  0  0  0  0  0  0  0  0  0
   58.8277   31.7748   47.7677 H   0  0  0  0  0  0  0  0  0  0  0  0
   57.8680   26.9940   45.5860 C   0  0  0  0  0  0  0  0  0  0  0  0
   58.9088   26.6413   45.6352 H   0  0  0  0  0  0  0  0  0  0  0  0
  1  2  1  0
  2  3  1  0
  3  4  2  0
  4  5  1  0
  4  6  1  0
  6  7  1  0
  6  8  2  0
  8  9  1  0
  8 10  1  0
 10 11  1  0
 11 12  2  0
 12 13  1  0
 13 14  2  0
 13 15  1  0
 15 16  1  0
 16 17  1  0
 17 18  1  0
 17 19  2  0
 19 20  1  0
 20 21  1  0
 20 22  1  0
 20 23  1  0
 23 24  1  0
 23 25  1  0
 23 26  1  0
 26 27  2  0
 27 28  1  0
 27 29  1  0
 29 30  1  0
 29 31  2  0
 31 32  1  0
 31 33  1  0
 33 34  1  0
 33 35  2  0
 35 36  1  0
 19 37  1  0
 37 38  1  0
 11  3  1  0
 37 15  2  0
 35 26  1  0
M  CHG  3  10  -1  16  -1  18  -1
M  END
>  <UniqueID>  (22) 
21

>  <SMILES>  (22) 
O=C(/N=c1\[n-]cccc1O)c1cc(CCc2ccccc2)c([O-])[n-]1

>  <Energy>  (22) 
64.66084943106472

>  <Genealogy>  (22) 
O=C(N=c1[n-]cccc1O)c1cc(CCc2ccccc2)c([O-])[n-]1 (protonated)
O=C(/N=c1\[n-]cccc1O)c1cc(CCc2ccccc2)c([O-])[n-]1 (cis-trans isomerization)
O=C(/N=c1\[n-]cccc1O)c1cc(CCc2ccccc2)c([O-])[n-]1 (3D coordinates assigned)
O=C(/N=c1\[n-]cccc1O)c1cc(CCc2ccccc2)c([O-])[n-]1 (optimized conformer: 64.66084943106472 kcal/mol)

>  <smiles>  (22) 
O=C(N=c1[nH]cccc1O)c1cc(CCc2ccccc2)c(O)[nH]1

>  <score_type>  (22) 
oracle

>  <origin>  (22) 
adg

>  <m_score__min__energy>  (22) 
-15.039999999999999

>  <m_primary>  (22) 
energy

$$$$
22:0
     RDKit          3D

 59 62  0  0  0  0  0  0  0  0999 V2000
   57.6640   33.8480   52.4160 C   0  0  0  0  0  0  0  0  0  0  0  0
   56.6150   32.7440   52.3420 C   0  0  0  0  0  0  0  0  0  0  0  0
   57.2370   31.4260   52.4970 N   0  0  0  0  0  0  0  0  0  0  0  0
   58.6180   31.1510   52.2740 C   0  0  0  0  0  0  0  0  0  0  0  0
   59.4410   32.0090   51.8540 O   0  0  0  0  0  0  0  0  0  0  0  0
   58.9710   29.8150   52.5780 N   0  0  0  0  0  0  0  0  0  0  0  0
   60.1950   29.1200   52.1820 C   0  0  0  0  0  0  0  0  0  0  0  0
   60.1410   28.7630   50.7220 C   0  0  0  0  0  0  0  0  0  0  0  0
   60.4770   27.4700   50.2880 C   0  0  0  0  0  0  0  0  0  0  0  0
   60.3970   27.1410   48.9310 C   0  0  0  0  0  0  0  0  0  0  0  0
   59.9740   28.0960   48.0000 C   0  0  0  0  0  0  0  0  0  0  0  0
   59.8790   27.6730   46.2590 S   0  0  0  0  0  0  0  0  0  0  0  0
   59.9450   29.4070   45.7090 C   0  0  0  0  0  0  0  0  0  0  0  0
   59.6380   29.3850   48.4270 C   0  0  0  0  0  0  0  0  0  0  0  0
   59.7150   29.7170   49.7840 C   0  0  0  0  0  0  0  0  0  0  0  0
   57.7470   29.2150   52.9840 C   0  0  0  0  0  0  0  0  0  0  0  0
   57.6500   27.9980   53.2990 O   0  0  0  0  0  0  0  0  0  0  0  0
   56.5930   30.1980   52.9990 C   0  0  0  0  0  0  0  0  0  0  0  0
   56.0730   30.3940   54.4510 C   0  0  0  0  0  0  0  0  0  0  0  0
   54.5410   30.4640   54.5070 C   0  0  0  0  0  0  0  0  0  0  0  0
   53.9280   29.2260   53.9750 N   0  0  0  0  0  0  0  0  0  0  0  0
   52.4610   29.3850   53.8820 C   0  0  0  0  0  0  0  0  0  0  0  0
   52.0990   30.2650   52.7140 C   0  0  0  0  0  0  0  0  0  0  0  0
   52.3030   29.8260   51.3960 C   0  0  0  0  0  0  0  0  0  0  0  0
   51.9510   30.6450   50.3180 C   0  0  0  0  0  0  0  0  0  0  0  0
   51.3960   31.9090   50.5470 C   0  0  0  0  0  0  0  0  0  0  0  0
   51.0490   32.7180   49.4710 O   0  0  0  0  0  0  0  0  0  0  0  0
   51.1890   32.3530   51.8580 C   0  0  0  0  0  0  0  0  0  0  0  0
   50.6360   33.6070   52.0920 O   0  0  0  0  0  0  0  0  0  0  0  0
   51.5400   31.5350   52.9380 C   0  0  0  0  0  0  0  0  0  0  0  0
   54.5210   28.7400   52.6970 C   0  0  0  0  0  0  0  0  0  0  0  0
   55.4750   29.7440   52.0300 C   0  0  0  0  0  0  0  0  0  0  0  0
   57.8816   34.0770   53.4697 H   0  0  0  0  0  0  0  0  0  0  0  0
   58.5847   33.5131   51.9159 H   0  0  0  0  0  0  0  0  0  0  0  0
   57.2825   34.7504   51.9159 H   0  0  0  0  0  0  0  0  0  0  0  0
   55.8780   32.8920   53.1451 H   0  0  0  0  0  0  0  0  0  0  0  0
   56.1233   32.7892   51.3591 H   0  0  0  0  0  0  0  0  0  0  0  0
   61.0598   29.7750   52.3641 H   0  0  0  0  0  0  0  0  0  0  0  0
   60.2911   28.1976   52.7735 H   0  0  0  0  0  0  0  0  0  0  0  0
   60.8039   26.7142   51.0173 H   0  0  0  0  0  0  0  0  0  0  0  0
   60.6673   26.1291   48.5949 H   0  0  0  0  0  0  0  0  0  0  0  0
   59.9702   30.0694   46.5868 H   0  0  0  0  0  0  0  0  0  0  0  0
   60.8498   29.5656   45.1039 H   0  0  0  0  0  0  0  0  0  0  0  0
   59.0548   29.6339   45.1039 H   0  0  0  0  0  0  0  0  0  0  0  0
   59.3128   30.1387   47.6948 H   0  0  0  0  0  0  0  0  0  0  0  0
   59.4409   30.7289   50.1171 H   0  0  0  0  0  0  0  0  0  0  0  0
   56.4129   29.5487   55.0674 H   0  0  0  0  0  0  0  0  0  0  0  0
   56.4713   31.3470   54.8294 H   0  0  0  0  0  0  0  0  0  0  0  0
   54.2261   30.5996   55.5522 H   0  0  0  0  0  0  0  0  0  0  0  0
   54.2085   31.3106   53.8884 H   0  0  0  0  0  0  0  0  0  0  0  0
   51.9975   28.3965   53.7479 H   0  0  0  0  0  0  0  0  0  0  0  0
   52.0944   29.8532   54.8074 H   0  0  0  0  0  0  0  0  0  0  0  0
   52.7413   28.8343   51.2104 H   0  0  0  0  0  0  0  0  0  0  0  0
   52.1109   30.2945   49.2877 H   0  0  0  0  0  0  0  0  0  0  0  0
   51.3776   31.8877   53.9672 H   0  0  0  0  0  0  0  0  0  0  0  0
   55.0807   27.8161   52.9045 H   0  0  0  0  0  0  0  0  0  0  0  0
   53.6863   28.5811   51.9984 H   0  0  0  0  0  0  0  0  0  0  0  0
   55.9355   29.2691   51.1511 H   0  0  0  0  0  0  0  0  0  0  0  0
   54.8924   30.6301   51.7377 H   0  0  0  0  0  0  0  0  0  0  0  0
  1  2  1  0
  2  3  1  0
  3  4  1  0
  4  5  2  0
  4  6  1  0
  6  7  1  0
  7  8  1  0
  8  9  2  0
  9 10  1  0
 10 11  2  0
 11 12  1  0
 12 13  1  0
 11 14  1  0
 14 15  2  0
  6 16  1  0
 16 17  2  0
 16 18  1  0
 18 19  1  0
 19 20  1  0
 20 21  1  0
 21 22  1  0
 22 23  1  0
 23 24  2  0
 24 25  1  0
 25 26  2  0
 26 27  1  0
 26 28  1  0
 28 29  1  0
 28 30  2  0
 21 31  1  0
 31 32  1  0
 18  3  1  0
 30 23  1  0
 15  8  1  0
 32 18  1  0
  1 33  1  0
  1 34  1  0
  1 35  1  0
  2 36  1  0
  2 37  1  0
  7 38  1  0
  7 39  1  0
  9 40  1  0
 10 41  1  0
 13 42  1  0
 13 43  1  0
 13 44  1  0
 14 45  1  0
 15 46  1  0
 19 47  1  0
 19 48  1  0
 20 49  1  0
 20 50  1  0
 22 51  1  0
 22 52  1  0
 24 53  1  0
 25 54  1  0
 30 55  1  0
 31 56  1  0
 31 57  1  0
 32 58  1  0
 32 59  1  0
M  CHG  2  27  -1  29  -1
M  END
>  <UniqueID>  (23) 
22

>  <SMILES>  (23) 
CCN1C(=O)N(Cc2ccc(SC)cc2)C(=O)C12CCN(Cc1ccc([O-])c([O-])c1)CC2

>  <Energy>  (23) 
81.26678339304829

>  <Genealogy>  (23) 
CCN1C(=O)N(Cc2ccc(SC)cc2)C(=O)C12CCN(Cc1ccc([O-])c([O-])c1)CC2 (protonated)
CCN1C(=O)N(Cc2ccc(SC)cc2)C(=O)C12CCN(Cc1ccc([O-])c([O-])c1)CC2 (3D coordinates assigned)
CCN1C(=O)N(Cc2ccc(SC)cc2)C(=O)C12CCN(Cc1ccc([O-])c([O-])c1)CC2 (nonaromatic ring conformer: 81.26678339304829 kcal/mol)

>  <smiles>  (23) 
CCN1C(=O)N(Cc2ccc(SC)cc2)C(=O)C12CCN(Cc1ccc(O)c(O)c1)CC2

>  <score_type>  (23) 
oracle

>  <origin>  (23) 
adg

>  <m_score__min__energy>  (23) 
-17.760000000000002

>  <m_primary>  (23) 
energy

$$$$
23:0
     RDKit          3D

 46 49  0  0  0  0  0  0  0  0999 V2000
   54.7250   24.8530   44.5090 H   0  0  0  0  0  0  0  0  0  0  0  0
   54.7560   23.9320   44.0870 O   0  0  0  0  0  0  0  0  0  0  0  0
   55.8930   23.1280   44.1640 C   0  0  0  0  0  0  0  0  0  0  0  0
   56.2610   22.3290   43.0710 C   0  0  0  0  0  0  0  0  0  0  0  0
   55.6460   22.3318   42.1590 H   0  0  0  0  0  0  0  0  0  0  0  0
   57.4050   21.5300   43.1360 C   0  0  0  0  0  0  0  0  0  0  0  0
   57.6878   20.9042   42.2767 H   0  0  0  0  0  0  0  0  0  0  0  0
   58.1900   21.5250   44.2910 C   0  0  0  0  0  0  0  0  0  0  0  0
   59.0912   20.8962   44.3399 H   0  0  0  0  0  0  0  0  0  0  0  0
   57.8320   22.3180   45.3850 C   0  0  0  0  0  0  0  0  0  0  0  0
   58.4577   22.3161   46.2897 H   0  0  0  0  0  0  0  0  0  0  0  0
   56.6770   23.1180   45.3360 C   0  0  0  0  0  0  0  0  0  0  0  0
   56.3210   23.9900   46.5110 C   0  0  0  0  0  0  0  0  0  0  0  0
   56.8867   23.6579   47.3940 H   0  0  0  0  0  0  0  0  0  0  0  0
   55.2409   23.9084   46.7029 H   0  0  0  0  0  0  0  0  0  0  0  0
   56.6570   25.4190   46.2180 C   0  0  0  0  0  0  0  0  0  0  0  0
   57.9080   25.9120   46.2060 N   0  0  0  0  0  0  0  0  0  0  0  0
   57.7270   27.2310   45.9610 C   0  0  0  0  0  0  0  0  0  0  0  0
   58.6990   28.0940   45.8930 N   0  0  0  0  0  0  0  0  0  0  0  0
   58.5710   29.5230   45.7990 C   0  0  0  0  0  0  0  0  0  0  0  0
   58.8820   30.3750   46.8740 C   0  0  0  0  0  0  0  0  0  0  0  0
   59.2076   29.9487   47.8343 H   0  0  0  0  0  0  0  0  0  0  0  0
   58.7790   31.7610   46.7270 C   0  0  0  0  0  0  0  0  0  0  0  0
   59.0257   32.4188   47.5734 H   0  0  0  0  0  0  0  0  0  0  0  0
   58.3650   32.3190   45.5130 C   0  0  0  0  0  0  0  0  0  0  0  0
   58.2940   33.7470   45.4010 N   0  0  0  0  0  0  0  0  0  0  0  0
   59.3440   34.6820   45.6910 C   0  0  0  0  0  0  0  0  0  0  0  0
   59.3810   35.7950   45.0980 O   0  0  0  0  0  0  0  0  0  0  0  0
   60.3520   34.3660   46.7300 C   0  0  0  0  0  0  0  0  0  0  0  0
   61.6150   33.8580   46.3720 C   0  0  0  0  0  0  0  0  0  0  0  0
   61.8544   33.6880   45.3119 H   0  0  0  0  0  0  0  0  0  0  0  0
   62.5670   33.5680   47.3530 C   0  0  0  0  0  0  0  0  0  0  0  0
   63.5528   33.1755   47.0630 H   0  0  0  0  0  0  0  0  0  0  0  0
   62.2680   33.7760   48.7010 C   0  0  0  0  0  0  0  0  0  0  0  0
   63.0179   33.5457   49.4721 H   0  0  0  0  0  0  0  0  0  0  0  0
   61.0180   34.2760   49.0710 C   0  0  0  0  0  0  0  0  0  0  0  0
   60.7830   34.4358   50.1336 H   0  0  0  0  0  0  0  0  0  0  0  0
   60.0640   34.5740   48.0920 C   0  0  0  0  0  0  0  0  0  0  0  0
   59.0828   34.9733   48.3885 H   0  0  0  0  0  0  0  0  0  0  0  0
   58.1040   31.4700   44.4220 C   0  0  0  0  0  0  0  0  0  0  0  0
   57.8141   31.8981   43.4511 H   0  0  0  0  0  0  0  0  0  0  0  0
   58.2120   30.0840   44.5680 C   0  0  0  0  0  0  0  0  0  0  0  0
   58.0130   29.4282   43.7076 H   0  0  0  0  0  0  0  0  0  0  0  0
   56.4350   27.6040   45.8440 N   0  0  0  0  0  0  0  0  0  0  0  0
   55.7730   26.4470   46.0090 C   0  0  0  0  0  0  0  0  0  0  0  0
   54.3870   26.3370   45.9770 O   0  0  0  0  0  0  0  0  0  0  0  0
  1  2  1  0
  2  3  1  0
  3  4  2  0
  4  5  1  0
  4  6  1  0
  6  7  1  0
  6  8  2  0
  8  9  1  0
  8 10  1  0
 10 11  1  0
 10 12  2  0
 12 13  1  0
 13 14  1  0
 13 15  1  0
 13 16  1  0
 16 17  1  0
 17 18  1  0
 18 19  2  0
 19 20  1  0
 20 21  2  0
 21 22  1  0
 21 23  1  0
 23 24  1  0
 23 25  2  0
 25 26  1  0
 26 27  1  0
 27 28  2  0
 27 29  1  0
 29 30  2  0
 30 31  1  0
 30 32  1  0
 32 33  1  0
 32 34  2  0
 34 35  1  0
 34 36  1  0
 36 37  1  0
 36 38  2  0
 38 39  1  0
 25 40  1  0
 40 41  1  0
 40 42  2  0
 42 43  1  0
 18 44  1  0
 44 45  1  0
 45 46  1  0
 12  3  1  0
 45 16  2  0
 42 20  1  0
 38 29  1  0
M  CHG  4  17  -1  26  -1  44  -1  46  -1
M  END
>  <UniqueID>  (24) 
23

>  <SMILES>  (24) 
O=C([N-]c1ccc(/N=c2/[n-]c([O-])c(Cc3ccccc3O)[n-]2)cc1)c1ccccc1

>  <Energy>  (24) 
88.46492718602569

>  <Genealogy>  (24) 
O=C([N-]c1ccc(N=c2[n-]c([O-])c(Cc3ccccc3O)[n-]2)cc1)c1ccccc1 (protonated)
O=C([N-]c1ccc(/N=c2/[n-]c([O-])c(Cc3ccccc3O)[n-]2)cc1)c1ccccc1 (cis-trans isomerization)
O=C([N-]c1ccc(/N=c2/[n-]c([O-])c(Cc3ccccc3O)[n-]2)cc1)c1ccccc1 (3D coordinates assigned)
O=C([N-]c1ccc(/N=c2/[n-]c([O-])c(Cc3ccccc3O)[n-]2)cc1)c1ccccc1 (optimized conformer: 88.46492718602569 kcal/mol)

>  <smiles>  (24) 
O=C(Nc1ccc(N=c2[nH]c(O)c(Cc3ccccc3O)[nH]2)cc1)c1ccccc1

>  <score_type>  (24) 
oracle

>  <origin>  (24) 
adg

>  <m_score__min__energy>  (24) 
-16.34

>  <m_primary>  (24) 
energy

$$$$
24:0
     RDKit          3D

 44 46  0  0  0  0  0  0  0  0999 V2000
   56.8120   23.2350   45.1830 C   0  0  0  0  0  0  0  0  0  0  0  0
   56.3740   23.8230   46.8070 S   0  0  0  0  0  0  0  0  0  0  0  0
   57.0240   22.9700   47.8580 O   0  0  0  0  0  0  0  0  0  0  0  0
   54.8820   23.7230   46.9540 O   0  0  0  0  0  0  0  0  0  0  0  0
   56.8390   25.4830   47.0190 N   0  0  0  0  0  0  0  0  0  0  0  0
   56.3850   26.5780   46.2150 C   0  0  0  0  0  0  0  0  0  0  0  0
   55.1530   26.6960   45.9880 O   0  0  0  0  0  0  0  0  0  0  0  0
   57.3170   27.5530   45.6280 C   0  0  0  0  0  0  0  0  0  0  0  0
   58.6950   27.3060   45.6810 C   0  0  0  0  0  0  0  0  0  0  0  0
   59.5950   28.2290   45.1500 C   0  0  0  0  0  0  0  0  0  0  0  0
   59.1260   29.4040   44.5620 C   0  0  0  0  0  0  0  0  0  0  0  0
   57.7480   29.6760   44.5060 C   0  0  0  0  0  0  0  0  0  0  0  0
   57.2820   30.9570   43.8490 C   0  0  0  0  0  0  0  0  0  0  0  0
   56.7430   31.9180   44.8090 N   0  0  0  0  0  0  0  0  0  0  0  0
   57.3540   33.1260   45.2920 C   0  0  0  0  0  0  0  0  0  0  0  0
   57.1090   34.1990   44.6820 O   0  0  0  0  0  0  0  0  0  0  0  0
   58.2260   33.1750   46.4840 C   0  0  0  0  0  0  0  0  0  0  0  0
   57.7900   33.0800   47.7970 C   0  0  0  0  0  0  0  0  0  0  0  0
   58.9570   33.1080   48.5270 C   0  0  0  0  0  0  0  0  0  0  0  0
   59.0250   33.0640   49.7840 O   0  0  0  0  0  0  0  0  0  0  0  0
   60.0160   33.2130   47.7000 N   0  0  0  0  0  0  0  0  0  0  0  0
   61.4150   33.2180   48.0340 C   0  0  0  0  0  0  0  0  0  0  0  0
   62.3220   32.4770   47.2560 C   0  0  0  0  0  0  0  0  0  0  0  0
   63.6780   32.4380   47.5920 C   0  0  0  0  0  0  0  0  0  0  0  0
   64.1410   33.1310   48.7130 C   0  0  0  0  0  0  0  0  0  0  0  0
   65.4560   33.0900   49.0400 F   0  0  0  0  0  0  0  0  0  0  0  0
   63.2480   33.8590   49.5030 C   0  0  0  0  0  0  0  0  0  0  0  0
   61.8900   33.9010   49.1700 C   0  0  0  0  0  0  0  0  0  0  0  0
   59.5710   33.2670   46.4540 N   0  0  0  0  0  0  0  0  0  0  0  0
   56.8400   28.7200   45.0060 C   0  0  0  0  0  0  0  0  0  0  0  0
   55.5010   28.9070   44.8670 F   0  0  0  0  0  0  0  0  0  0  0  0
   57.4668   22.3560   45.2756 H   0  0  0  0  0  0  0  0  0  0  0  0
   55.8995   22.9565   44.6354 H   0  0  0  0  0  0  0  0  0  0  0  0
   57.3401   24.0295   44.6354 H   0  0  0  0  0  0  0  0  0  0  0  0
   59.0683   26.3803   46.1433 H   0  0  0  0  0  0  0  0  0  0  0  0
   60.6760   28.0305   45.1947 H   0  0  0  0  0  0  0  0  0  0  0  0
   59.8412   30.1243   44.1382 H   0  0  0  0  0  0  0  0  0  0  0  0
   58.1359   31.4179   43.3310 H   0  0  0  0  0  0  0  0  0  0  0  0
   56.4743   30.6973   43.1489 H   0  0  0  0  0  0  0  0  0  0  0  0
   56.7572   33.0010   48.1673 H   0  0  0  0  0  0  0  0  0  0  0  0
   61.9615   31.9238   46.3762 H   0  0  0  0  0  0  0  0  0  0  0  0
   64.3812   31.8612   46.9733 H   0  0  0  0  0  0  0  0  0  0  0  0
   63.6133   34.4001   50.3883 H   0  0  0  0  0  0  0  0  0  0  0  0
   61.1897   34.4704   49.7987 H   0  0  0  0  0  0  0  0  0  0  0  0
  1  2  1  0
  2  3  2  0
  2  4  2  0
  2  5  1  0
  5  6  1  0
  6  7  2  0
  6  8  1  0
  8  9  2  0
  9 10  1  0
 10 11  2  0
 11 12  1  0
 12 13  1  0
 13 14  1  0
 14 15  1  0
 15 16  2  0
 15 17  1  0
 17 18  2  0
 18 19  1  0
 19 20  2  0
 19 21  1  0
 21 22  1  0
 22 23  2  0
 23 24  1  0
 24 25  2  0
 25 26  1  0
 25 27  1  0
 27 28  2  0
 21 29  1  0
 12 30  2  0
 30 31  1  0
 30  8  1  0
 29 17  1  0
 28 22  1  0
  1 32  1  0
  1 33  1  0
  1 34  1  0
  9 35  1  0
 10 36  1  0
 11 37  1  0
 13 38  1  0
 13 39  1  0
 18 40  1  0
 23 41  1  0
 24 42  1  0
 27 43  1  0
 28 44  1  0
M  CHG  3   5  -1  14  -1  29  -1
M  END
>  <UniqueID>  (25) 
24

>  <SMILES>  (25) 
CS(=O)(=O)[N-]C(=O)c1cccc(C[N-]C(=O)c2cc(=O)n(-c3ccc(F)cc3)[n-]2)c1F

>  <Energy>  (25) 
82.84850819379365

>  <Genealogy>  (25) 
CS(=O)(=O)[N-]C(=O)c1cccc(C[N-]C(=O)c2cc(=O)n(-c3ccc(F)cc3)[n-]2)c1F (protonated)
CS(=O)(=O)[N-]C(=O)c1cccc(C[N-]C(=O)c2cc(=O)n(-c3ccc(F)cc3)[n-]2)c1F (3D coordinates assigned)
CS(=O)(=O)[N-]C(=O)c1cccc(C[N-]C(=O)c2cc(=O)n(-c3ccc(F)cc3)[n-]2)c1F (optimized conformer: 82.84850819379365 kcal/mol)

>  <smiles>  (25) 
CS(=O)(=O)NC(=O)c1cccc(CNC(=O)c2cc(=O)n(-c3ccc(F)cc3)[nH]2)c1F

>  <score_type>  (25) 
oracle

>  <origin>  (25) 
adg

>  <m_score__min__energy>  (25) 
-13.279999999999999

>  <m_primary>  (25) 
energy

$$$$
25:0
     RDKit          3D

 51 53  0  0  0  0  0  0  0  0999 V2000
   58.1610   21.5200   43.5720 C   0  0  0  0  0  0  0  0  0  0  0  0
   58.0210   22.0760   44.9560 C   0  0  0  0  0  0  0  0  0  0  0  0
   58.6400   21.5100   45.8980 O   0  0  0  0  0  0  0  0  0  0  0  0
   57.1930   23.2760   45.2390 C   0  0  0  0  0  0  0  0  0  0  0  0
   55.8220   23.2720   44.9150 C   0  0  0  0  0  0  0  0  0  0  0  0
   55.2350   22.1620   44.3170 O   0  0  0  0  0  0  0  0  0  0  0  0
   55.0330   24.3920   45.1760 C   0  0  0  0  0  0  0  0  0  0  0  0
   55.5890   25.5350   45.7520 C   0  0  0  0  0  0  0  0  0  0  0  0
   54.7710   26.6350   45.9880 O   0  0  0  0  0  0  0  0  0  0  0  0
   56.9580   25.5660   46.0840 C   0  0  0  0  0  0  0  0  0  0  0  0
   57.5730   26.8030   46.7130 C   0  0  0  0  0  0  0  0  0  0  0  0
   58.9480   27.1790   46.1020 C   0  0  2  0  0  0  0  0  0  0  0  0
   59.8700   27.6640   47.2110 C   0  0  0  0  0  0  0  0  0  0  0  0
   60.0480   28.9500   47.5480 C   0  0  0  0  0  0  0  0  0  0  0  0
   59.7830   30.1040   46.6640 C   0  0  0  0  0  0  0  0  0  0  0  0
   60.8490   30.9960   46.4610 O   0  0  0  0  0  0  0  0  0  0  0  0
   61.4120   31.8440   47.4590 C   0  0  0  0  0  0  0  0  0  0  0  0
   61.2470   33.3010   47.0380 C   0  0  0  0  0  0  0  0  0  0  0  0
   59.8460   33.5580   46.5520 C   0  0  0  0  0  0  0  0  0  0  0  0
   58.7450   33.2330   47.3630 C   0  0  0  0  0  0  0  0  0  0  0  0
   57.4420   33.4440   46.8980 C   0  0  0  0  0  0  0  0  0  0  0  0
   57.2310   33.9700   45.6210 C   0  0  0  0  0  0  0  0  0  0  0  0
   58.3210   34.2840   44.8040 C   0  0  0  0  0  0  0  0  0  0  0  0
   59.6250   34.0760   45.2640 C   0  0  0  0  0  0  0  0  0  0  0  0
   58.5630   30.3170   46.1290 C   0  0  0  0  0  0  0  0  0  0  0  0
   57.9760   29.4190   45.0810 C   0  0  0  0  0  0  0  0  0  0  0  0
   58.8200   28.1830   44.9590 C   0  0  0  0  0  0  0  0  0  0  0  0
   59.5120   28.0490   43.9610 O   0  0  0  0  0  0  0  0  0  0  0  0
   57.7520   24.4250   45.8420 C   0  0  0  0  0  0  0  0  0  0  0  0
   59.0900   24.4280   46.2320 O   0  0  0  0  0  0  0  0  0  0  0  0
   58.4292   20.4548   43.6302 H   0  0  0  0  0  0  0  0  0  0  0  0
   57.2073   21.6292   43.0348 H   0  0  0  0  0  0  0  0  0  0  0  0
   58.9492   22.0678   43.0348 H   0  0  0  0  0  0  0  0  0  0  0  0
   53.9621   24.3742   44.9254 H   0  0  0  0  0  0  0  0  0  0  0  0
   56.8836   27.6480   46.5692 H   0  0  0  0  0  0  0  0  0  0  0  0
   57.7378   26.5811   47.7777 H   0  0  0  0  0  0  0  0  0  0  0  0
   59.3931   26.2828   45.6451 H   0  0  0  0  0  0  0  0  0  0  0  0
   60.4308   26.9056   47.7769 H   0  0  0  0  0  0  0  0  0  0  0  0
   60.4202   29.1621   48.5612 H   0  0  0  0  0  0  0  0  0  0  0  0
   60.8955   31.6777   48.4158 H   0  0  0  0  0  0  0  0  0  0  0  0
   62.4814   31.6142   47.5758 H   0  0  0  0  0  0  0  0  0  0  0  0
   61.4555   33.9519   47.8999 H   0  0  0  0  0  0  0  0  0  0  0  0
   61.9504   33.5149   46.2198 H   0  0  0  0  0  0  0  0  0  0  0  0
   58.9079   32.8117   48.3659 H   0  0  0  0  0  0  0  0  0  0  0  0
   56.5830   33.1954   47.5386 H   0  0  0  0  0  0  0  0  0  0  0  0
   56.2061   34.1372   45.2581 H   0  0  0  0  0  0  0  0  0  0  0  0
   58.1526   34.6953   43.7978 H   0  0  0  0  0  0  0  0  0  0  0  0
   60.4803   34.3184   44.6162 H   0  0  0  0  0  0  0  0  0  0  0  0
   57.9770   31.1815   46.4743 H   0  0  0  0  0  0  0  0  0  0  0  0
   56.9522   29.1382   45.3689 H   0  0  0  0  0  0  0  0  0  0  0  0
   57.9511   29.9456   44.1156 H   0  0  0  0  0  0  0  0  0  0  0  0
  1  2  1  0
  2  3  2  0
  2  4  1  0
  4  5  2  0
  5  6  1  0
  5  7  1  0
  7  8  2  0
  8  9  1  0
  8 10  1  0
 10 11  1  0
 11 12  1  0
 12 13  1  0
 13 14  2  0
 14 15  1  0
 15 16  1  0
 16 17  1  0
 17 18  1  0
 18 19  1  0
 19 20  2  0
 20 21  1  0
 21 22  2  0
 22 23  1  0
 23 24  2  0
 15 25  2  0
 25 26  1  0
 26 27  1  0
 27 28  2  0
 10 29  2  0
 29 30  1  0
 29  4  1  0
 27 12  1  0
 24 19  1  0
  1 31  1  0
  1 32  1  0
  1 33  1  0
  7 34  1  0
 11 35  1  0
 11 36  1  0
 12 37  1  6
 13 38  1  0
 14 39  1  0
 17 40  1  0
 17 41  1  0
 18 42  1  0
 18 43  1  0
 20 44  1  0
 21 45  1  0
 22 46  1  0
 23 47  1  0
 24 48  1  0
 25 49  1  0
 26 50  1  0
 26 51  1  0
M  CHG  3   6  -1   9  -1  30  -1
M  END
>  <UniqueID>  (26) 
25

>  <SMILES>  (26) 
CC(=O)c1c([O-])cc([O-])c(C[C@@H]2C=CC(OCCc3ccccc3)=CCC2=O)c1[O-]

>  <Energy>  (26) 
63.461337084466315

>  <Genealogy>  (26) 
CC(=O)c1c([O-])cc([O-])c(CC2C=CC(OCCc3ccccc3)=CCC2=O)c1[O-] (protonated)
CC(=O)c1c([O-])cc([O-])c(C[C@@H]2C=CC(OCCc3ccccc3)=CCC2=O)c1[O-] (chirality)
CC(=O)c1c([O-])cc([O-])c(C[C@@H]2C=CC(OCCc3ccccc3)=CCC2=O)c1[O-] (3D coordinates assigned)
CC(=O)c1c([O-])cc([O-])c(C[C@@H]2C=CC(OCCc3ccccc3)=CCC2=O)c1[O-] (nonaromatic ring conformer: 63.461337084466315 kcal/mol)

>  <smiles>  (26) 
CC(=O)c1c(O)cc(O)c(CC2C=CC(OCCc3ccccc3)=CCC2=O)c1O

>  <score_type>  (26) 
oracle

>  <origin>  (26) 
adg

>  <m_score__min__energy>  (26) 
-14.35

>  <m_primary>  (26) 
energy

$$$$
26:0
     RDKit          3D

 47 50  0  0  0  0  0  0  0  0999 V2000
   59.9480   31.3420   49.5500 O   0  0  0  0  0  0  0  0  0  0  0  0
   59.2340   30.9970   48.5700 C   0  0  0  0  0  0  0  0  0  0  0  0
   59.4120   29.6260   47.9930 C   0  0  0  0  0  0  0  0  0  0  0  0
   59.7180   29.6750   46.5050 C   0  0  0  0  0  0  0  0  0  0  0  0
   58.5460   30.1410   45.7710 N   0  0  0  0  0  0  0  0  0  0  0  0
   57.4280   28.9920   45.0980 S   0  0  0  0  0  0  0  0  0  0  0  0
   57.7210   28.8040   43.6350 O   0  0  0  0  0  0  0  0  0  0  0  0
   56.0200   29.5010   45.2360 O   0  0  0  0  0  0  0  0  0  0  0  0
   57.5720   27.4610   45.9420 C   0  0  0  0  0  0  0  0  0  0  0  0
   58.7470   26.9200   46.3210 N   0  0  0  0  0  0  0  0  0  0  0  0
   58.4040   25.7250   46.8530 C   0  0  0  0  0  0  0  0  0  0  0  0
   57.0720   25.4910   46.8030 N   0  0  0  0  0  0  0  0  0  0  0  0
   56.3650   24.3080   47.2910 C   0  0  0  0  0  0  0  0  0  0  0  0
   55.8140   23.5070   46.1430 C   0  0  0  0  0  0  0  0  0  0  0  0
   54.5640   23.4490   45.9840 O   0  0  0  0  0  0  0  0  0  0  0  0
   56.6840   22.8400   45.2100 N   0  0  0  0  0  0  0  0  0  0  0  0
   56.2130   22.1590   44.0120 C   0  0  0  0  0  0  0  0  0  0  0  0
   57.4570   21.5920   43.4250 C   0  0  0  0  0  0  0  0  0  0  0  0
   58.5170   21.8930   44.1680 C   0  0  0  0  0  0  0  0  0  0  0  0
   58.1300   22.7120   45.3500 C   0  0  0  0  0  0  0  0  0  0  0  0
   56.5490   26.5930   46.2420 C   0  0  0  0  0  0  0  0  0  0  0  0
   55.1950   26.7920   45.9950 O   0  0  0  0  0  0  0  0  0  0  0  0
   58.3000   31.5460   45.6280 C   0  0  0  0  0  0  0  0  0  0  0  0
   58.2020   32.0960   44.3400 C   0  0  0  0  0  0  0  0  0  0  0  0
   57.9230   33.4540   44.1640 C   0  0  0  0  0  0  0  0  0  0  0  0
   57.7360   34.2760   45.2750 C   0  0  0  0  0  0  0  0  0  0  0  0
   57.8420   33.7430   46.5640 C   0  0  0  0  0  0  0  0  0  0  0  0
   58.1360   32.3810   46.7600 C   0  0  0  0  0  0  0  0  0  0  0  0
   58.2030   31.8830   48.1070 N   0  0  0  0  0  0  0  0  0  0  0  0
   60.2440   29.1269   48.5113 H   0  0  0  0  0  0  0  0  0  0  0  0
   58.4714   29.0725   48.1305 H   0  0  0  0  0  0  0  0  0  0  0  0
   60.5569   30.3641   46.3278 H   0  0  0  0  0  0  0  0  0  0  0  0
   59.9851   28.6662   46.1572 H   0  0  0  0  0  0  0  0  0  0  0  0
   59.1304   25.0184   47.2809 H   0  0  0  0  0  0  0  0  0  0  0  0
   57.0629   23.6818   47.8662 H   0  0  0  0  0  0  0  0  0  0  0  0
   55.5297   24.6330   47.9287 H   0  0  0  0  0  0  0  0  0  0  0  0
   55.4995   21.3617   44.2674 H   0  0  0  0  0  0  0  0  0  0  0  0
   55.6782   22.8271   43.3209 H   0  0  0  0  0  0  0  0  0  0  0  0
   57.4945   21.0013   42.4978 H   0  0  0  0  0  0  0  0  0  0  0  0
   59.5460   21.5782   43.9397 H   0  0  0  0  0  0  0  0  0  0  0  0
   58.3914   22.1992   46.2874 H   0  0  0  0  0  0  0  0  0  0  0  0
   58.6464   23.6824   45.3892 H   0  0  0  0  0  0  0  0  0  0  0  0
   58.3463   31.4514   43.4604 H   0  0  0  0  0  0  0  0  0  0  0  0
   57.8509   33.8742   43.1500 H   0  0  0  0  0  0  0  0  0  0  0  0
   57.5053   35.3428   45.1378 H   0  0  0  0  0  0  0  0  0  0  0  0
   57.6936   34.3972   47.4358 H   0  0  0  0  0  0  0  0  0  0  0  0
   57.7570   32.4700   48.8500 H   0  0  0  0  0  0  0  0  0  0  0  0
  1  2  2  0
  2  3  1  0
  3  4  1  0
  4  5  1  0
  5  6  1  0
  6  7  2  0
  6  8  2  0
  6  9  1  0
  9 10  1  0
 10 11  2  0
 11 12  1  0
 12 13  1  0
 13 14  1  0
 14 15  2  0
 14 16  1  0
 16 17  1  0
 17 18  1  0
 18 19  2  0
 19 20  1  0
 12 21  1  0
 21 22  1  0
  5 23  1  0
 23 24  2  0
 24 25  1  0
 25 26  2  0
 26 27  1  0
 27 28  2  0
 28 29  1  0
 29  2  1  0
 21  9  2  0
 28 23  1  0
 20 16  1  0
  3 30  1  0
  3 31  1  0
  4 32  1  0
  4 33  1  0
 11 34  1  0
 13 35  1  0
 13 36  1  0
 17 37  1  0
 17 38  1  0
 18 39  1  0
 19 40  1  0
 20 41  1  0
 20 42  1  0
 24 43  1  0
 25 44  1  0
 26 45  1  0
 27 46  1  0
 29 47  1  0
M  CHG  1  22  -1
M  END
>  <UniqueID>  (27) 
26

>  <SMILES>  (27) 
O=C1CCN(S(=O)(=O)c2ncn(CC(=O)N3CC=CC3)c2[O-])c2ccccc2N1

>  <Energy>  (27) 
97.58803912020656

>  <Genealogy>  (27) 
O=C1CCN(S(=O)(=O)c2ncn(CC(=O)N3CC=CC3)c2[O-])c2ccccc2N1 (protonated)
O=C1CCN(S(=O)(=O)c2ncn(CC(=O)N3CC=CC3)c2[O-])c2ccccc2N1 (3D coordinates assigned)
O=C1CCN(S(=O)(=O)c2ncn(CC(=O)N3CC=CC3)c2[O-])c2ccccc2N1 (nonaromatic ring conformer: 97.58803912020656 kcal/mol)

>  <smiles>  (27) 
O=C1CCN(S(=O)(=O)c2ncn(CC(=O)N3CC=CC3)c2O)c2ccccc2N1

>  <score_type>  (27) 
oracle

>  <origin>  (27) 
adg

>  <m_score__min__energy>  (27) 
-11.82

>  <m_primary>  (27) 
energy

$$$$
27:0
     RDKit          3D

 54 57  0  0  0  0  0  0  0  0999 V2000
   64.9750   31.1370   52.8230 H   0  0  0  0  0  0  0  0  0  0  0  0
   65.0340   30.6880   51.8820 N   0  0  0  0  0  0  0  0  0  0  0  0
   64.9160   31.9550   50.7120 S   0  0  0  0  0  0  0  0  0  0  0  0
   64.6570   33.2590   51.4140 O   0  0  0  0  0  0  0  0  0  0  0  0
   66.2100   32.0640   49.9560 O   0  0  0  0  0  0  0  0  0  0  0  0
   63.6000   31.6040   49.5960 C   0  0  0  0  0  0  0  0  0  0  0  0
   63.6410   32.0850   48.2820 C   0  0  0  0  0  0  0  0  0  0  0  0
   64.5036   32.6771   47.9423 H   0  0  0  0  0  0  0  0  0  0  0  0
   62.5900   31.8160   47.3990 C   0  0  0  0  0  0  0  0  0  0  0  0
   62.6352   32.1909   46.3659 H   0  0  0  0  0  0  0  0  0  0  0  0
   61.4750   31.0690   47.8230 C   0  0  0  0  0  0  0  0  0  0  0  0
   60.3520   30.7640   46.9000 C   0  0  0  0  0  0  0  0  0  0  0  0
   59.9160   31.7220   46.0440 N   0  0  0  0  0  0  0  0  0  0  0  0
   58.9030   31.5470   45.1540 C   0  0  0  0  0  0  0  0  0  0  0  0
   58.6390   32.5660   44.3770 N   0  0  0  0  0  0  0  0  0  0  0  0
   57.4210   33.3210   44.0750 C   0  0  0  0  0  0  0  0  0  0  0  0
   57.5796   33.9048   43.1563 H   0  0  0  0  0  0  0  0  0  0  0  0
   56.5935   32.6082   43.9445 H   0  0  0  0  0  0  0  0  0  0  0  0
   57.0610   34.2780   45.2200 C   0  0  0  0  0  0  0  0  0  0  0  0
   57.1030   35.3095   44.8402 H   0  0  0  0  0  0  0  0  0  0  0  0
   56.0533   34.0076   45.5684 H   0  0  0  0  0  0  0  0  0  0  0  0
   57.9890   34.1640   46.4000 C   0  0  0  0  0  0  0  0  0  0  0  0
   57.7180   33.2520   47.4330 C   0  0  0  0  0  0  0  0  0  0  0  0
   56.8218   32.6164   47.3799 H   0  0  0  0  0  0  0  0  0  0  0  0
   58.5800   33.1470   48.5280 C   0  0  0  0  0  0  0  0  0  0  0  0
   58.3626   32.4276   49.3312 H   0  0  0  0  0  0  0  0  0  0  0  0
   59.7210   33.9570   48.6040 C   0  0  0  0  0  0  0  0  0  0  0  0
   60.5900   33.8610   49.6880 O   0  0  0  0  0  0  0  0  0  0  0  0
   60.8270   32.9650   50.0980 H   0  0  0  0  0  0  0  0  0  0  0  0
   59.9970   34.8670   47.5770 C   0  0  0  0  0  0  0  0  0  0  0  0
   60.8935   35.5020   47.6329 H   0  0  0  0  0  0  0  0  0  0  0  0
   59.1360   34.9710   46.4800 C   0  0  0  0  0  0  0  0  0  0  0  0
   59.3580   35.6881   45.6760 H   0  0  0  0  0  0  0  0  0  0  0  0
   58.2310   30.2860   45.1290 C   0  0  0  0  0  0  0  0  0  0  0  0
   57.0300   30.0420   44.3620 C   0  0  0  0  0  0  0  0  0  0  0  0
   56.0820   29.8290   43.7300 N   0  0  0  0  0  0  0  0  0  0  0  0
   58.6910   29.2550   45.9860 C   0  0  0  0  0  0  0  0  0  0  0  0
   58.0770   27.9020   45.9950 C   0  0  0  0  0  0  0  0  0  0  0  0
   58.8890   26.7550   45.9720 C   0  0  0  0  0  0  0  0  0  0  0  0
   59.9840   26.8592   45.9579 H   0  0  0  0  0  0  0  0  0  0  0  0
   58.3100   25.4810   45.9670 C   0  0  0  0  0  0  0  0  0  0  0  0
   58.9505   24.5868   45.9560 H   0  0  0  0  0  0  0  0  0  0  0  0
   56.9190   25.3430   45.9760 C   0  0  0  0  0  0  0  0  0  0  0  0
   56.4656   24.3408   45.9736 H   0  0  0  0  0  0  0  0  0  0  0  0
   56.1040   26.4790   45.9880 C   0  0  0  0  0  0  0  0  0  0  0  0
   54.7220   26.3410   45.9910 O   0  0  0  0  0  0  0  0  0  0  0  0
   56.6800   27.7530   45.9940 C   0  0  0  0  0  0  0  0  0  0  0  0
   56.0353   28.6443   45.9980 H   0  0  0  0  0  0  0  0  0  0  0  0
   59.7510   29.5030   46.8660 C   0  0  0  0  0  0  0  0  0  0  0  0
   60.1112   28.7045   47.5313 H   0  0  0  0  0  0  0  0  0  0  0  0
   61.4450   30.5860   49.1440 C   0  0  0  0  0  0  0  0  0  0  0  0
   60.5866   29.9898   49.4871 H   0  0  0  0  0  0  0  0  0  0  0  0
   62.4960   30.8570   50.0240 C   0  0  0  0  0  0  0  0  0  0  0  0
   62.4558   30.4819   51.0573 H   0  0  0  0  0  0  0  0  0  0  0  0
  1  2  1  0
  2  3  1  0
  3  4  2  0
  3  5  2  0
  3  6  1  0
  6  7  2  0
  7  8  1  0
  7  9  1  0
  9 10  1  0
  9 11  2  0
 11 12  1  0
 12 13  1  0
 13 14  1  0
 14 15  2  0
 15 16  1  0
 16 17  1  0
 16 18  1  0
 16 19  1  0
 19 20  1  0
 19 21  1  0
 19 22  1  0
 22 23  2  0
 23 24  1  0
 23 25  1  0
 25 26  1  0
 25 27  2  0
 27 28  1  0
 28 29  1  0
 27 30  1  0
 30 31  1  0
 30 32  2  0
 32 33  1  0
 14 34  1  0
 34 35  1  0
 35 36  3  0
 34 37  2  0
 37 38  1  0
 38 39  2  0
 39 40  1  0
 39 41  1  0
 41 42  1  0
 41 43  2  0
 43 44  1  0
 43 45  1  0
 45 46  1  0
 45 47  2  0
 47 48  1  0
 37 49  1  0
 49 50  1  0
 11 51  1  0
 51 52  1  0
 51 53  2  0
 53 54  1  0
 53  6  1  0
 49 12  2  0
 32 22  1  0
 47 38  1  0
M  CHG  3   2  -1  13  -1  46  -1
M  END
>  <UniqueID>  (28) 
27

>  <SMILES>  (28) 
N#Cc1c(-c2cccc([O-])c2)cc(-c2ccc(S([NH-])(=O)=O)cc2)[n-]/c1=N/CCc1ccc(O)cc1

>  <Energy>  (28) 
77.63420337935001

>  <Genealogy>  (28) 
N#Cc1c(-c2cccc([O-])c2)cc(-c2ccc(S([NH-])(=O)=O)cc2)[n-]c1=NCCc1ccc(O)cc1 (protonated)
N#Cc1c(-c2cccc([O-])c2)cc(-c2ccc(S([NH-])(=O)=O)cc2)[n-]/c1=N/CCc1ccc(O)cc1 (cis-trans isomerization)
N#Cc1c(-c2cccc([O-])c2)cc(-c2ccc(S([NH-])(=O)=O)cc2)[n-]/c1=N/CCc1ccc(O)cc1 (3D coordinates assigned)
N#Cc1c(-c2cccc([O-])c2)cc(-c2ccc(S([NH-])(=O)=O)cc2)[n-]/c1=N/CCc1ccc(O)cc1 (optimized conformer: 77.63420337935001 kcal/mol)

>  <smiles>  (28) 
N#Cc1c(-c2cccc(O)c2)cc(-c2ccc(S(N)(=O)=O)cc2)[nH]c1=NCCc1ccc(O)cc1

>  <score_type>  (28) 
oracle

>  <origin>  (28) 
adg

>  <m_score__min__energy>  (28) 
-13.470000000000001

>  <m_primary>  (28) 
energy

$$$$
28:0
     RDKit          3D

 41 42  0  0  0  0  0  0  0  0999 V2000
   58.1860   33.1730   46.6470 C   0  0  0  0  0  0  0  0  0  0  0  0
   57.8800   32.5110   45.3790 N   0  0  0  0  0  0  0  0  0  0  0  0
   57.0450   31.4670   45.3870 N   0  0  0  0  0  0  0  0  0  0  0  0
   56.6820   30.8140   44.2510 C   0  0  0  0  0  0  0  0  0  0  0  0
   55.7480   29.6650   44.3080 C   0  0  0  0  0  0  0  0  0  0  0  0
   54.7710   29.6330   43.5140 O   0  0  0  0  0  0  0  0  0  0  0  0
   55.8900   28.5870   45.2470 N   0  0  0  0  0  0  0  0  0  0  0  0
   57.0610   27.7340   45.4470 C   0  0  0  0  0  0  0  0  0  0  0  0
   58.2320   28.5190   45.9830 C   0  0  0  0  0  0  0  0  0  0  0  0
   59.3250   28.8120   45.1520 C   0  0  0  0  0  0  0  0  0  0  0  0
   60.3960   29.5690   45.6320 C   0  0  0  0  0  0  0  0  0  0  0  0
   60.3990   30.0290   46.9570 C   0  0  0  0  0  0  0  0  0  0  0  0
   61.5230   30.8940   47.4630 C   0  0  0  0  0  0  0  0  0  0  0  0
   61.5650   32.1780   46.7550 N   0  0  0  0  0  0  0  0  0  0  0  0
   62.6570   33.3030   47.5200 S   0  0  0  0  0  0  0  0  0  0  0  0
   63.8660   32.4660   48.5270 C   0  0  0  0  0  0  0  0  0  0  0  0
   61.8590   34.2240   48.3990 O   0  0  0  0  0  0  0  0  0  0  0  0
   63.3600   34.1230   46.4760 O   0  0  0  0  0  0  0  0  0  0  0  0
   59.3310   29.6970   47.8040 C   0  0  0  0  0  0  0  0  0  0  0  0
   58.2580   28.9410   47.3230 C   0  0  0  0  0  0  0  0  0  0  0  0
   57.2220   31.2350   43.0320 C   0  0  0  0  0  0  0  0  0  0  0  0
   58.0910   32.3210   43.0090 C   0  0  0  0  0  0  0  0  0  0  0  0
   58.4110   32.9660   44.2040 C   0  0  0  0  0  0  0  0  0  0  0  0
   59.1850   33.9620   44.1860 O   0  0  0  0  0  0  0  0  0  0  0  0
   57.8855   32.5229   47.4819 H   0  0  0  0  0  0  0  0  0  0  0  0
   59.2666   33.3701   46.7063 H   0  0  0  0  0  0  0  0  0  0  0  0
   57.6360   34.1238   46.7063 H   0  0  0  0  0  0  0  0  0  0  0  0
   56.8059   26.9390   46.1631 H   0  0  0  0  0  0  0  0  0  0  0  0
   57.3476   27.3079   44.4742 H   0  0  0  0  0  0  0  0  0  0  0  0
   59.3379   28.4428   44.1159 H   0  0  0  0  0  0  0  0  0  0  0  0
   61.2407   29.8054   44.9682 H   0  0  0  0  0  0  0  0  0  0  0  0
   61.3760   31.0812   48.5369 H   0  0  0  0  0  0  0  0  0  0  0  0
   62.4731   30.3683   47.2871 H   0  0  0  0  0  0  0  0  0  0  0  0
   60.6110   32.6010   46.8110 H   0  0  0  0  0  0  0  0  0  0  0  0
   63.6329   32.6273   49.5899 H   0  0  0  0  0  0  0  0  0  0  0  0
   63.8444   31.3886   48.3063 H   0  0  0  0  0  0  0  0  0  0  0  0
   64.8669   32.8655   48.3063 H   0  0  0  0  0  0  0  0  0  0  0  0
   59.3380   30.0331   48.8514 H   0  0  0  0  0  0  0  0  0  0  0  0
   57.4301   28.6752   47.9967 H   0  0  0  0  0  0  0  0  0  0  0  0
   56.9621   30.7123   42.0997 H   0  0  0  0  0  0  0  0  0  0  0  0
   58.5216   32.6678   42.0580 H   0  0  0  0  0  0  0  0  0  0  0  0
  1  2  1  0
  2  3  1  0
  3  4  2  0
  4  5  1  0
  5  6  2  0
  5  7  1  0
  7  8  1  0
  8  9  1  0
  9 10  2  0
 10 11  1  0
 11 12  2  0
 12 13  1  0
 13 14  1  0
 14 15  1  0
 15 16  1  0
 15 17  2  0
 15 18  2  0
 12 19  1  0
 19 20  2  0
  4 21  1  0
 21 22  2  0
 22 23  1  0
 23 24  2  0
 23  2  1  0
 20  9  1  0
  1 25  1  0
  1 26  1  0
  1 27  1  0
  8 28  1  0
  8 29  1  0
 10 30  1  0
 11 31  1  0
 13 32  1  0
 13 33  1  0
 14 34  1  0
 16 35  1  0
 16 36  1  0
 16 37  1  0
 19 38  1  0
 20 39  1  0
 21 40  1  0
 22 41  1  0
M  CHG  1   7  -1
M  END
>  <UniqueID>  (29) 
28

>  <SMILES>  (29) 
Cn1nc(C(=O)[N-]Cc2ccc(CNS(C)(=O)=O)cc2)ccc1=O

>  <Energy>  (29) 
34.2265699069948

>  <Genealogy>  (29) 
Cn1nc(C(=O)[N-]Cc2ccc(CNS(C)(=O)=O)cc2)ccc1=O (protonated)
Cn1nc(C(=O)[N-]Cc2ccc(CNS(C)(=O)=O)cc2)ccc1=O (3D coordinates assigned)
Cn1nc(C(=O)[N-]Cc2ccc(CNS(C)(=O)=O)cc2)ccc1=O (optimized conformer: 34.2265699069948 kcal/mol)

>  <smiles>  (29) 
Cn1nc(C(=O)NCc2ccc(CNS(C)(=O)=O)cc2)ccc1=O

>  <score_type>  (29) 
oracle

>  <origin>  (29) 
adg

>  <m_score__min__energy>  (29) 
-9.6099999999999994

>  <m_primary>  (29) 
energy

$$$$
29:0
     RDKit          3D

 56 60  0  0  0  0  0  0  0  0999 V2000
   58.0600   26.6880   43.2600 O   0  0  0  0  0  0  0  0  0  0  0  0
   57.8060   27.5480   44.1490 C   0  0  0  0  0  0  0  0  0  0  0  0
   58.0590   28.9940   43.8780 C   0  0  0  0  0  0  0  0  0  0  0  0
   56.6690   30.0050   44.4880 S   0  0  0  0  0  0  0  0  0  0  0  0
   57.5550   31.5620   44.3710 C   0  0  0  0  0  0  0  0  0  0  0  0
   57.4690   32.4040   43.3210 N   0  0  0  0  0  0  0  0  0  0  0  0
   58.2190   33.4610   43.6100 N   0  0  0  0  0  0  0  0  0  0  0  0
   58.7650   33.2390   44.8240 C   0  0  0  0  0  0  0  0  0  0  0  0
   59.5460   34.2550   45.5890 C   0  0  0  0  0  0  0  0  0  0  0  0
   60.9050   33.8340   45.6550 O   0  0  0  0  0  0  0  0  0  0  0  0
   61.6620   33.7840   46.8330 C   0  0  0  0  0  0  0  0  0  0  0  0
   61.1680   34.2390   48.0700 C   0  0  0  0  0  0  0  0  0  0  0  0
   61.9640   34.1650   49.2170 C   0  0  0  0  0  0  0  0  0  0  0  0
   63.2580   33.6460   49.1380 C   0  0  0  0  0  0  0  0  0  0  0  0
   63.7550   33.1930   47.9140 C   0  0  0  0  0  0  0  0  0  0  0  0
   62.9590   33.2620   46.7670 C   0  0  0  0  0  0  0  0  0  0  0  0
   58.3610   32.0610   45.3190 N   0  0  0  0  0  0  0  0  0  0  0  0
   58.6190   31.5420   46.5950 N   0  0  0  0  0  0  0  0  0  0  0  0
   58.3070   32.2360   47.8040 C   0  0  0  0  0  0  0  0  0  0  0  0
   57.3870   33.0900   47.9090 O   0  0  0  0  0  0  0  0  0  0  0  0
   59.2220   31.8370   48.8670 C   0  0  0  0  0  0  0  0  0  0  0  0
   59.3060   32.2430   50.1970 C   0  0  0  0  0  0  0  0  0  0  0  0
   60.3260   31.6880   50.9900 C   0  0  0  0  0  0  0  0  0  0  0  0
   61.2350   30.7590   50.4420 C   0  0  0  0  0  0  0  0  0  0  0  0
   61.1400   30.3800   49.0900 C   0  0  0  0  0  0  0  0  0  0  0  0
   60.1150   30.9370   48.3290 C   0  0  0  0  0  0  0  0  0  0  0  0
   59.7710   30.7640   46.9230 C   0  0  0  0  0  0  0  0  0  0  0  0
   60.3920   30.0420   46.1000 O   0  0  0  0  0  0  0  0  0  0  0  0
   57.2910   27.1600   45.3890 O   0  0  0  0  0  0  0  0  0  0  0  0
   58.1140   26.7380   46.4760 C   0  0  0  0  0  0  0  0  0  0  0  0
   58.3290   27.8560   47.4830 C   0  0  0  0  0  0  0  0  0  0  0  0
   59.6550   27.5380   48.1500 C   0  0  0  0  0  0  0  0  0  0  0  0
   60.4570   26.7140   47.1440 C   0  0  0  0  0  0  0  0  0  0  0  0
   59.5100   26.3830   45.9900 C   0  0  0  0  0  0  0  0  0  0  0  0
   58.9834   29.3025   44.3882 H   0  0  0  0  0  0  0  0  0  0  0  0
   58.1601   29.1423   42.7927 H   0  0  0  0  0  0  0  0  0  0  0  0
   59.4847   35.2284   45.0803 H   0  0  0  0  0  0  0  0  0  0  0  0
   59.1357   34.3550   46.6047 H   0  0  0  0  0  0  0  0  0  0  0  0
   60.1515   34.6545   48.1345 H   0  0  0  0  0  0  0  0  0  0  0  0
   61.5706   34.5159   50.1825 H   0  0  0  0  0  0  0  0  0  0  0  0
   63.8858   33.5940   50.0398 H   0  0  0  0  0  0  0  0  0  0  0  0
   64.7734   32.7817   47.8525 H   0  0  0  0  0  0  0  0  0  0  0  0
   63.3549   32.9034   45.8054 H   0  0  0  0  0  0  0  0  0  0  0  0
   58.5973   32.9741   50.6133 H   0  0  0  0  0  0  0  0  0  0  0  0
   60.4158   31.9808   52.0465 H   0  0  0  0  0  0  0  0  0  0  0  0
   62.0237   30.3277   51.0759 H   0  0  0  0  0  0  0  0  0  0  0  0
   61.8520   29.6671   48.6486 H   0  0  0  0  0  0  0  0  0  0  0  0
   57.5942   25.8797   46.9266 H   0  0  0  0  0  0  0  0  0  0  0  0
   58.3765   28.8301   46.9742 H   0  0  0  0  0  0  0  0  0  0  0  0
   57.5064   27.9191   48.2106 H   0  0  0  0  0  0  0  0  0  0  0  0
   60.1908   28.4673   48.3938 H   0  0  0  0  0  0  0  0  0  0  0  0
   59.5065   26.9858   49.0897 H   0  0  0  0  0  0  0  0  0  0  0  0
   61.3143   27.2963   46.7753 H   0  0  0  0  0  0  0  0  0  0  0  0
   60.8495   25.7972   47.6081 H   0  0  0  0  0  0  0  0  0  0  0  0
   59.7679   26.9782   45.1016 H   0  0  0  0  0  0  0  0  0  0  0  0
   59.5790   25.3229   45.7046 H   0  0  0  0  0  0  0  0  0  0  0  0
  1  2  2  0
  2  3  1  0
  3  4  1  0
  4  5  1  0
  5  6  2  0
  6  7  1  0
  7  8  2  0
  8  9  1  0
  9 10  1  0
 10 11  1  0
 11 12  2  0
 12 13  1  0
 13 14  2  0
 14 15  1  0
 15 16  2  0
  8 17  1  0
 17 18  1  0
 18 19  1  0
 19 20  2  0
 19 21  1  0
 21 22  2  0
 22 23  1  0
 23 24  2  0
 24 25  1  0
 25 26  2  0
 26 27  1  0
 27 28  2  0
  2 29  1  0
 29 30  1  0
 30 31  1  0
 31 32  1  0
 32 33  1  0
 33 34  1  0
 17  5  1  0
 27 18  1  0
 34 30  1  0
 16 11  1  0
 26 21  1  0
  3 35  1  0
  3 36  1  0
  9 37  1  0
  9 38  1  0
 12 39  1  0
 13 40  1  0
 14 41  1  0
 15 42  1  0
 16 43  1  0
 22 44  1  0
 23 45  1  0
 24 46  1  0
 25 47  1  0
 30 48  1  0
 31 49  1  0
 31 50  1  0
 32 51  1  0
 32 52  1  0
 33 53  1  0
 33 54  1  0
 34 55  1  0
 34 56  1  0
M  END
>  <UniqueID>  (30) 
29

>  <SMILES>  (30) 
O=C(CSc1nnc(COc2ccccc2)n1N1C(=O)c2ccccc2C1=O)OC1CCCC1

>  <Energy>  (30) 
127.51939447066891

>  <Genealogy>  (30) 
O=C(CSc1nnc(COc2ccccc2)n1N1C(=O)c2ccccc2C1=O)OC1CCCC1 (3D coordinates assigned)
O=C(CSc1nnc(COc2ccccc2)n1N1C(=O)c2ccccc2C1=O)OC1CCCC1 (nonaromatic ring conformer: 127.51939447066891 kcal/mol)

>  <smiles>  (30) 
O=C(CSc1nnc(COc2ccccc2)n1N1C(=O)c2ccccc2C1=O)OC1CCCC1

>  <score_type>  (30) 
oracle

>  <origin>  (30) 
adg

>  <m_score__min__energy>  (30) 
-9.6400000000000006

>  <m_primary>  (30) 
energy

$$$$
30:0
     RDKit          3D

 36 37  0  0  0  0  0  0  0  0999 V2000
   58.1450   26.7330   43.2270 C   0  0  0  0  0  0  0  0  0  0  0  0
   57.6090   27.0200   44.6270 C   0  0  0  0  0  0  0  0  0  0  0  0
   58.2150   28.2840   45.1880 C   0  0  0  0  0  0  0  0  0  0  0  0
   59.4580   28.3010   45.8370 C   0  0  0  0  0  0  0  0  0  0  0  0
   60.3390   27.1240   46.1120 C   0  0  0  0  0  0  0  0  0  0  0  0
   59.7820   29.8600   46.3740 S   0  0  0  0  0  0  0  0  0  0  0  0
   58.3840   30.5460   45.7560 C   0  0  0  0  0  0  0  0  0  0  0  0
   58.0800   31.9430   45.8540 N   0  0  0  0  0  0  0  0  0  0  0  0
   58.1420   32.8260   44.7250 C   0  0  0  0  0  0  0  0  0  0  0  0
   58.5170   32.4000   43.6000 O   0  0  0  0  0  0  0  0  0  0  0  0
   57.7550   34.2640   44.8750 C   0  0  0  0  0  0  0  0  0  0  0  0
   59.2430   35.3030   45.0740 S   0  0  0  0  0  0  0  0  0  0  0  0
   59.9100   34.3480   46.4350 C   0  0  0  0  0  0  0  0  0  0  0  0
   61.1900   33.8910   46.3800 N   0  0  0  0  0  0  0  0  0  0  0  0
   61.7160   33.1680   47.4040 C   0  0  0  0  0  0  0  0  0  0  0  0
   60.9390   32.8850   48.5270 C   0  0  0  0  0  0  0  0  0  0  0  0
   59.6270   33.3590   48.5630 C   0  0  0  0  0  0  0  0  0  0  0  0
   59.1380   34.0780   47.5200 N   0  0  0  0  0  0  0  0  0  0  0  0
   57.6040   29.5630   45.1370 C   0  0  0  0  0  0  0  0  0  0  0  0
   56.2510   29.8270   44.6000 C   0  0  0  0  0  0  0  0  0  0  0  0
   56.0440   30.8430   43.8870 O   0  0  0  0  0  0  0  0  0  0  0  0
   55.1960   28.9640   44.8670 O   0  0  0  0  0  0  0  0  0  0  0  0
   59.1124   26.2150   43.3038 H   0  0  0  0  0  0  0  0  0  0  0  0
   57.4305   26.0968   42.6841 H   0  0  0  0  0  0  0  0  0  0  0  0
   58.2784   27.6804   42.6841 H   0  0  0  0  0  0  0  0  0  0  0  0
   56.5162   27.1359   44.5774 H   0  0  0  0  0  0  0  0  0  0  0  0
   57.8772   26.1801   45.2847 H   0  0  0  0  0  0  0  0  0  0  0  0
   60.4407   26.9881   47.1988 H   0  0  0  0  0  0  0  0  0  0  0  0
   59.8931   26.2209   45.6697 H   0  0  0  0  0  0  0  0  0  0  0  0
   61.3311   27.2973   45.6697 H   0  0  0  0  0  0  0  0  0  0  0  0
   58.0130   32.3610   46.8090 H   0  0  0  0  0  0  0  0  0  0  0  0
   57.2041   34.5869   43.9793 H   0  0  0  0  0  0  0  0  0  0  0  0
   57.1207   34.3727   45.7671 H   0  0  0  0  0  0  0  0  0  0  0  0
   62.7534   32.8066   47.3469 H   0  0  0  0  0  0  0  0  0  0  0  0
   61.3505   32.3022   49.3643 H   0  0  0  0  0  0  0  0  0  0  0  0
   58.9898   33.1505   49.4351 H   0  0  0  0  0  0  0  0  0  0  0  0
  1  2  1  0
  2  3  1  0
  3  4  2  0
  4  5  1  0
  4  6  1  0
  6  7  1  0
  7  8  1  0
  8  9  1  0
  9 10  2  0
  9 11  1  0
 11 12  1  0
 12 13  1  0
 13 14  2  0
 14 15  1  0
 15 16  2  0
 16 17  1  0
 17 18  2  0
  7 19  2  0
 19 20  1  0
 20 21  2  0
 20 22  1  0
 19  3  1  0
 18 13  1  0
  1 23  1  0
  1 24  1  0
  1 25  1  0
  2 26  1  0
  2 27  1  0
  5 28  1  0
  5 29  1  0
  5 30  1  0
  8 31  1  0
 11 32  1  0
 11 33  1  0
 15 34  1  0
 16 35  1  0
 17 36  1  0
M  CHG  1  22  -1
M  END
>  <UniqueID>  (31) 
30

>  <SMILES>  (31) 
CCc1c(C)sc(NC(=O)CSc2ncccn2)c1C(=O)[O-]

>  <Energy>  (31) 
62.42297344299512

>  <Genealogy>  (31) 
CCc1c(C)sc(NC(=O)CSc2ncccn2)c1C(=O)[O-] (protonated)
CCc1c(C)sc(NC(=O)CSc2ncccn2)c1C(=O)[O-] (3D coordinates assigned)
CCc1c(C)sc(NC(=O)CSc2ncccn2)c1C(=O)[O-] (optimized conformer: 62.42297344299512 kcal/mol)

>  <smiles>  (31) 
CCc1c(C)sc(NC(=O)CSc2ncccn2)c1C(=O)O

>  <score_type>  (31) 
oracle

>  <origin>  (31) 
adg

>  <m_score__min__energy>  (31) 
-9.4900000000000002

>  <m_primary>  (31) 
energy

$$$$
31:0
     RDKit          3D

 51 55  0  0  1  0  0  0  0  0999 V2000
   59.7230   27.9370   49.7100 O   0  0  0  0  0  0  0  0  0  0  0  0
   59.6580   28.7340   48.7170 C   0  0  0  0  0  0  0  0  0  0  0  0
   60.0870   28.3330   47.3510 C   0  0  0  0  0  0  0  0  0  0  0  0
   59.0830   27.3340   46.8720 C   0  0  0  0  0  0  0  0  0  0  0  0
   59.6020   26.0950   46.5040 C   0  0  0  0  0  0  0  0  0  0  0  0
   58.7720   25.0940   46.0450 C   0  0  0  0  0  0  0  0  0  0  0  0
   57.4020   25.3600   45.9630 C   0  0  0  0  0  0  0  0  0  0  0  0
   56.8980   26.5950   46.3320 C   0  0  0  0  0  0  0  0  0  0  0  0
   55.5170   26.8200   46.2320 O   0  0  0  0  0  0  0  0  0  0  0  0
   57.7340   27.6160   46.7970 C   0  0  0  0  0  0  0  0  0  0  0  0
   59.1410   30.0440   49.0020 N   0  0  0  0  0  0  0  0  0  0  0  0
   59.3460   31.0310   48.1960 C   0  0  0  0  0  0  0  0  0  0  0  0
   60.3030   31.9810   48.4370 C   0  0  0  0  0  0  0  0  0  0  0  0
   60.5580   33.0520   47.6060 C   0  0  0  0  0  0  0  0  0  0  0  0
   61.5750   34.0260   47.9010 N   0  0  0  0  0  0  0  0  0  0  0  0
   62.9540   33.8460   47.4700 C   0  0  0  0  0  0  0  0  0  0  0  0
   63.3100   32.3910   47.1780 C   0  0  0  0  0  0  0  0  0  0  0  0
   63.9270   33.1510   48.3300 C   0  0  0  0  0  0  0  0  0  0  0  0
   59.7980   33.1410   46.4910 N   0  0  0  0  0  0  0  0  0  0  0  0
   59.7620   34.0090   45.4950 N   0  0  0  0  0  0  0  0  0  0  0  0
   58.8250   33.6870   44.5950 C   0  0  0  0  0  0  0  0  0  0  0  0
   58.2060   32.5330   45.0300 C   0  0  0  0  0  0  0  0  0  0  0  0
   57.2170   31.8850   44.4160 C   0  0  0  0  0  0  0  0  0  0  0  0
   57.3690   30.4550   44.2590 C   0  0  0  0  0  0  0  0  0  0  0  0
   58.5220   29.8980   43.7900 N   0  0  0  0  0  0  0  0  0  0  0  0
   58.3760   28.5600   43.7490 C   0  0  0  0  0  0  0  0  0  0  0  0
   59.2390   27.7100   43.3680 O   0  0  0  0  0  0  0  0  0  0  0  0
   57.1250   28.2850   44.1960 N   0  0  0  0  0  0  0  0  0  0  0  0
   56.4860   29.4260   44.5140 C   0  0  0  0  0  0  0  0  0  0  0  0
   55.2080   29.6040   45.0020 O   0  0  0  0  0  0  0  0  0  0  0  0
   58.8340   32.2140   46.2170 C   0  0  0  0  0  0  0  0  0  0  0  0
   58.6160   31.1750   47.0650 N   0  0  0  0  0  0  0  0  0  0  0  0
   60.1018   29.2078   46.6843 H   0  0  0  0  0  0  0  0  0  0  0  0
   61.1014   27.9078   47.3593 H   0  0  0  0  0  0  0  0  0  0  0  0
   60.6842   25.9132   46.5802 H   0  0  0  0  0  0  0  0  0  0  0  0
   59.1764   24.1140   45.7517 H   0  0  0  0  0  0  0  0  0  0  0  0
   56.7170   24.5791   45.6012 H   0  0  0  0  0  0  0  0  0  0  0  0
   55.1520   27.5070   45.5850 H   0  0  0  0  0  0  0  0  0  0  0  0
   57.3345   28.5983   47.0894 H   0  0  0  0  0  0  0  0  0  0  0  0
   60.9066   31.8836   49.3515 H   0  0  0  0  0  0  0  0  0  0  0  0
   61.2640   34.8640   48.4400 H   0  0  0  0  0  0  0  0  0  0  0  0
   62.9938   34.8177   46.9560 H   0  0  0  0  0  0  0  0  0  0  0  0
   62.5790   31.5914   47.3682 H   0  0  0  0  0  0  0  0  0  0  0  0
   63.6872   31.8294   46.3106 H   0  0  0  0  0  0  0  0  0  0  0  0
   63.6543   32.8914   49.3636 H   0  0  0  0  0  0  0  0  0  0  0  0
   64.9589   33.3601   48.6484 H   0  0  0  0  0  0  0  0  0  0  0  0
   58.5907   34.2421   43.6747 H   0  0  0  0  0  0  0  0  0  0  0  0
   56.3260   32.4130   44.0455 H   0  0  0  0  0  0  0  0  0  0  0  0
   59.3960   30.4050   43.5010 H   0  0  0  0  0  0  0  0  0  0  0  0
   56.7040   27.3150   44.2840 H   0  0  0  0  0  0  0  0  0  0  0  0
   54.7330   28.9520   45.5950 H   0  0  0  0  0  0  0  0  0  0  0  0
  1  2  2  0
  2  3  1  0
  3  4  1  0
  4  5  2  0
  5  6  1  0
  6  7  2  0
  7  8  1  0
  8  9  1  0
  8 10  2  0
  2 11  1  0
 11 12  2  0
 12 13  1  0
 13 14  2  0
 14 15  1  0
 15 16  1  0
 16 17  1  0
 17 18  1  0
 14 19  1  0
 19 20  1  0
 20 21  2  0
 21 22  1  0
 22 23  2  0
 23 24  1  0
 24 25  1  0
 25 26  1  0
 26 27  2  0
 26 28  1  0
 28 29  1  0
 29 30  1  0
 22 31  1  0
 31 32  2  0
 10  4  1  0
 32 12  1  0
 18 16  1  0
 31 19  1  0
 29 24  2  0
  3 33  1  0
  3 34  1  0
  5 35  1  0
  6 36  1  0
  7 37  1  0
  9 38  1  0
 10 39  1  0
 13 40  1  0
 15 41  1  0
 16 42  1  0
 17 43  1  0
 17 44  1  0
 18 45  1  0
 18 46  1  0
 21 47  1  0
 23 48  1  0
 25 49  1  0
 28 50  1  0
 30 51  1  0
M  END
>  <smiles>  (32) 
O=C(Cc1cccc(O)c1)N=c1cc(NC2CC2)n2ncc(=Cc3[nH]c(=O)[nH]c3O)c2n1

>  <score_type>  (32) 
oracle

>  <origin>  (32) 
adg

>  <m_score__min__energy>  (32) 
-10.630000000000001

>  <m_primary>  (32) 
energy

$$$$
32:0
     RDKit          3D

 62 64  0  0  0  0  0  0  0  0999 V2000
   60.6412   27.9904   49.2774 H   0  0  0  0  0  0  0  0  0  0  0  0
   60.1300   28.3060   48.3560 C   0  0  0  0  0  0  0  0  0  0  0  0
   59.1670   27.5140   47.8060 N   0  0  0  0  0  0  0  0  0  0  0  0
   58.5020   27.8600   46.6690 C   0  0  0  0  0  0  0  0  0  0  0  0
   57.5810   27.0530   46.2130 N   0  0  0  0  0  0  0  0  0  0  0  0
   56.2690   27.4150   45.7560 C   0  0  0  0  0  0  0  0  0  0  0  0
   55.2970   26.6470   45.9840 O   0  0  0  0  0  0  0  0  0  0  0  0
   56.0570   28.6660   45.1000 N   0  0  0  0  0  0  0  0  0  0  0  0
   56.6380   29.0250   43.8170 C   0  0  0  0  0  0  0  0  0  0  0  0
   56.0276   28.6053   43.0038 H   0  0  0  0  0  0  0  0  0  0  0  0
   57.6589   28.6223   43.7421 H   0  0  0  0  0  0  0  0  0  0  0  0
   56.6690   30.5140   43.7050 C   0  0  0  0  0  0  0  0  0  0  0  0
   56.8350   31.0600   42.5820 O   0  0  0  0  0  0  0  0  0  0  0  0
   56.5150   31.2810   44.8650 O   0  0  0  0  0  0  0  0  0  0  0  0
   57.5220   32.1680   45.3530 C   0  0  0  0  0  0  0  0  0  0  0  0
   58.4241   32.0788   44.7299 H   0  0  0  0  0  0  0  0  0  0  0  0
   57.7710   31.9081   46.3925 H   0  0  0  0  0  0  0  0  0  0  0  0
   57.0010   33.6000   45.2940 C   0  0  0  0  0  0  0  0  0  0  0  0
   56.8620   33.9820   46.3161 H   0  0  0  0  0  0  0  0  0  0  0  0
   57.7266   34.2325   44.7617 H   0  0  0  0  0  0  0  0  0  0  0  0
   56.0386   33.6184   44.7617 H   0  0  0  0  0  0  0  0  0  0  0  0
   58.8490   29.0600   46.0140 C   0  0  0  0  0  0  0  0  0  0  0  0
   58.3447   29.3457   45.0791 H   0  0  0  0  0  0  0  0  0  0  0  0
   59.8360   29.8830   46.5590 C   0  0  0  0  0  0  0  0  0  0  0  0
   60.1151   30.8175   46.0502 H   0  0  0  0  0  0  0  0  0  0  0  0
   60.4690   29.5210   47.7490 C   0  0  0  0  0  0  0  0  0  0  0  0
   61.7440   30.5760   48.4500 S   0  0  0  0  0  0  0  0  0  0  0  0
   60.6460   31.2940   49.6900 C   0  0  0  0  0  0  0  0  0  0  0  0
   59.2950   31.4330   49.3570 C   0  0  0  0  0  0  0  0  0  0  0  0
   58.9414   31.1093   48.3669 H   0  0  0  0  0  0  0  0  0  0  0  0
   58.3910   31.9790   50.2700 C   0  0  0  0  0  0  0  0  0  0  0  0
   57.3263   32.0627   50.0065 H   0  0  0  0  0  0  0  0  0  0  0  0
   58.8370   32.4180   51.5150 C   0  0  0  0  0  0  0  0  0  0  0  0
   58.1243   32.8509   52.2324 H   0  0  0  0  0  0  0  0  0  0  0  0
   60.1900   32.3090   51.8540 C   0  0  0  0  0  0  0  0  0  0  0  0
   60.5396   32.6832   52.8275 H   0  0  0  0  0  0  0  0  0  0  0  0
   61.1080   31.7250   50.9610 C   0  0  0  0  0  0  0  0  0  0  0  0
   62.5650   31.6590   51.3610 C   0  0  0  0  0  0  0  0  0  0  0  0
   62.6359   31.7019   52.4579 H   0  0  0  0  0  0  0  0  0  0  0  0
   62.9843   30.7179   50.9756 H   0  0  0  0  0  0  0  0  0  0  0  0
   63.3330   32.7680   50.7920 N   0  0  0  0  0  0  0  0  0  0  0  0
   64.3570   32.4950   49.8290 C   0  0  0  0  0  0  0  0  0  0  0  0
   65.5380   32.2940   50.2150 O   0  0  0  0  0  0  0  0  0  0  0  0
   64.0200   32.4220   48.4400 N   0  0  0  0  0  0  0  0  0  0  0  0
   63.7180   33.5710   47.5960 C   0  0  0  0  0  0  0  0  0  0  0  0
   64.2382   34.4536   47.9965 H   0  0  0  0  0  0  0  0  0  0  0  0
   64.0557   33.3430   46.5742 H   0  0  0  0  0  0  0  0  0  0  0  0
   62.2420   33.8560   47.5480 C   0  0  0  0  0  0  0  0  0  0  0  0
   61.5670   34.2830   48.7060 C   0  0  0  0  0  0  0  0  0  0  0  0
   62.1249   34.4205   49.6440 H   0  0  0  0  0  0  0  0  0  0  0  0
   60.1910   34.5340   48.6730 C   0  0  0  0  0  0  0  0  0  0  0  0
   59.6663   34.8468   49.5878 H   0  0  0  0  0  0  0  0  0  0  0  0
   59.4840   34.3870   47.4770 C   0  0  0  0  0  0  0  0  0  0  0  0
   58.4043   34.5952   47.4473 H   0  0  0  0  0  0  0  0  0  0  0  0
   60.1490   33.9750   46.3170 C   0  0  0  0  0  0  0  0  0  0  0  0
   59.5917   33.8607   45.3755 H   0  0  0  0  0  0  0  0  0  0  0  0
   61.5230   33.7080   46.3530 C   0  0  0  0  0  0  0  0  0  0  0  0
   62.0410   33.3806   45.4395 H   0  0  0  0  0  0  0  0  0  0  0  0
   63.2690   34.0940   51.3980 C   0  0  0  0  0  0  0  0  0  0  0  0
   63.2737   33.9970   52.4937 H   0  0  0  0  0  0  0  0  0  0  0  0
   64.1396   34.6856   51.0785 H   0  0  0  0  0  0  0  0  0  0  0  0
   62.3454   34.5990   51.0785 H   0  0  0  0  0  0  0  0  0  0  0  0
  1  2  1  0
  2  3  1  0
  3  4  1  0
  4  5  2  0
  5  6  1  0
  6  7  2  0
  6  8  1  0
  8  9  1  0
  9 10  1  0
  9 11  1  0
  9 12  1  0
 12 13  2  0
 12 14  1  0
 14 15  1  0
 15 16  1  0
 15 17  1  0
 15 18  1  0
 18 19  1  0
 18 20  1  0
 18 21  1  0
  4 22  1  0
 22 23  1  0
 22 24  2  0
 24 25  1  0
 24 26  1  0
 26 27  1  0
 27 28  1  0
 28 29  2  0
 29 30  1  0
 29 31  1  0
 31 32  1  0
 31 33  2  0
 33 34  1  0
 33 35  1  0
 35 36  1  0
 35 37  2  0
 37 38  1  0
 38 39  1  0
 38 40  1  0
 38 41  1  0
 41 42  1  0
 42 43  2  0
 42 44  1  0
 44 45  1  0
 45 46  1  0
 45 47  1  0
 45 48  1  0
 48 49  2  0
 49 50  1  0
 49 51  1  0
 51 52  1  0
 51 53  2  0
 53 54  1  0
 53 55  1  0
 55 56  1  0
 55 57  2  0
 57 58  1  0
 41 59  1  0
 59 60  1  0
 59 61  1  0
 59 62  1  0
 26  2  2  0
 37 28  1  0
 57 48  1  0
M  CHG  3   3  -1   8  -1  44  -1
M  END
>  <UniqueID>  (33) 
31

>  <SMILES>  (33) 
CCOC(=O)C[N-]C(=O)/N=c1\ccc(Sc2ccccc2CN(C)C(=O)[N-]Cc2ccccc2)c[n-]1

>  <Energy>  (33) 
61.110706209737735

>  <Genealogy>  (33) 
CCOC(=O)C[N-]C(=O)N=c1ccc(Sc2ccccc2CN(C)C(=O)[N-]Cc2ccccc2)c[n-]1 (protonated)
CCOC(=O)C[N-]C(=O)/N=c1\ccc(Sc2ccccc2CN(C)C(=O)[N-]Cc2ccccc2)c[n-]1 (cis-trans isomerization)
CCOC(=O)C[N-]C(=O)/N=c1\ccc(Sc2ccccc2CN(C)C(=O)[N-]Cc2ccccc2)c[n-]1 (3D coordinates assigned)
CCOC(=O)C[N-]C(=O)/N=c1\ccc(Sc2ccccc2CN(C)C(=O)[N-]Cc2ccccc2)c[n-]1 (optimized conformer: 61.110706209737735 kcal/mol)

>  <smiles>  (33) 
CCOC(=O)CNC(=O)N=c1ccc(Sc2ccccc2CN(C)C(=O)NCc2ccccc2)c[nH]1

>  <score_type>  (33) 
oracle

>  <origin>  (33) 
adg

>  <m_score__min__energy>  (33) 
-13.130000000000001

>  <m_primary>  (33) 
energy

$$$$
33:0
     RDKit          3D

 45 48  0  0  0  0  0  0  0  0999 V2000
   56.4500   29.7110   42.7140 C   0  0  0  0  0  0  0  0  0  0  0  0
   56.3920   29.4460   44.1870 C   0  0  0  0  0  0  0  0  0  0  0  0
   55.2660   29.3580   44.7490 O   0  0  0  0  0  0  0  0  0  0  0  0
   57.6240   29.3740   45.0050 C   0  0  0  0  0  0  0  0  0  0  0  0
   58.4120   28.1830   45.1150 C   0  0  0  0  0  0  0  0  0  0  0  0
   57.9830   26.8830   44.5600 C   0  0  0  0  0  0  0  0  0  0  0  0
   57.7390   26.7910   43.3270 O   0  0  0  0  0  0  0  0  0  0  0  0
   57.9550   25.7130   45.3890 N   0  0  0  0  0  0  0  0  0  0  0  0
   56.8510   24.8100   45.5600 C   0  0  0  0  0  0  0  0  0  0  0  0
   57.0390   23.4160   45.5670 C   0  0  0  0  0  0  0  0  0  0  0  0
   55.9470   22.5560   45.7050 C   0  0  0  0  0  0  0  0  0  0  0  0
   54.6490   23.0720   45.8090 C   0  0  0  0  0  0  0  0  0  0  0  0
   53.4820   22.1480   45.9940 C   0  0  0  0  0  0  0  0  0  0  0  0
   54.4570   24.4610   45.7950 C   0  0  0  0  0  0  0  0  0  0  0  0
   55.5450   25.3290   45.6570 C   0  0  0  0  0  0  0  0  0  0  0  0
   55.3080   26.7030   45.6260 O   0  0  0  0  0  0  0  0  0  0  0  0
   59.5970   28.2170   45.7970 N   0  0  0  0  0  0  0  0  0  0  0  0
   59.9970   29.3660   46.3860 C   0  0  0  0  0  0  0  0  0  0  0  0
   61.1300   29.5360   47.0880 N   0  0  0  0  0  0  0  0  0  0  0  0
   61.0180   30.8460   47.4450 C   0  0  0  0  0  0  0  0  0  0  0  0
   62.0300   31.5590   48.2530 C   0  0  0  0  0  0  0  0  0  0  0  0
   62.1650   31.2910   49.6270 C   0  0  0  0  0  0  0  0  0  0  0  0
   63.1240   31.9650   50.3890 C   0  0  0  0  0  0  0  0  0  0  0  0
   63.9580   32.9130   49.7890 C   0  0  0  0  0  0  0  0  0  0  0  0
   65.1590   33.7590   50.7470 Cl  0  0  0  0  0  0  0  0  0  0  0  0
   63.8330   33.1870   48.4240 C   0  0  0  0  0  0  0  0  0  0  0  0
   62.8750   32.5140   47.6580 C   0  0  0  0  0  0  0  0  0  0  0  0
   59.8820   31.4300   46.9840 N   0  0  0  0  0  0  0  0  0  0  0  0
   59.2620   30.4720   46.3250 N   0  0  0  0  0  0  0  0  0  0  0  0
   58.0860   30.5390   45.6580 C   0  0  0  0  0  0  0  0  0  0  0  0
   57.4420   31.6220   45.6110 O   0  0  0  0  0  0  0  0  0  0  0  0
   56.6823   30.7722   42.5412 H   0  0  0  0  0  0  0  0  0  0  0  0
   57.2325   29.0857   42.2595 H   0  0  0  0  0  0  0  0  0  0  0  0
   55.4778   29.4697   42.2595 H   0  0  0  0  0  0  0  0  0  0  0  0
   58.0522   23.0006   45.4632 H   0  0  0  0  0  0  0  0  0  0  0  0
   56.1072   21.4681   45.7321 H   0  0  0  0  0  0  0  0  0  0  0  0
   53.2970   22.0015   47.0684 H   0  0  0  0  0  0  0  0  0  0  0  0
   52.5891   22.5866   45.5246 H   0  0  0  0  0  0  0  0  0  0  0  0
   53.7041   21.1783   45.5246 H   0  0  0  0  0  0  0  0  0  0  0  0
   53.4413   24.8717   45.8935 H   0  0  0  0  0  0  0  0  0  0  0  0
   55.8980   27.3450   45.1110 H   0  0  0  0  0  0  0  0  0  0  0  0
   61.5118   30.5463   50.1052 H   0  0  0  0  0  0  0  0  0  0  0  0
   63.2225   31.7489   51.4631 H   0  0  0  0  0  0  0  0  0  0  0  0
   64.4889   33.9329   47.9513 H   0  0  0  0  0  0  0  0  0  0  0  0
   62.7818   32.7328   46.5840 H   0  0  0  0  0  0  0  0  0  0  0  0
  1  2  1  0
  2  3  2  0
  2  4  1  0
  4  5  2  0
  5  6  1  0
  6  7  2  0
  6  8  1  0
  8  9  1  0
  9 10  2  0
 10 11  1  0
 11 12  2  0
 12 13  1  0
 12 14  1  0
 14 15  2  0
 15 16  1  0
  5 17  1  0
 17 18  1  0
 18 19  2  0
 19 20  1  0
 20 21  1  0
 21 22  2  0
 22 23  1  0
 23 24  2  0
 24 25  1  0
 24 26  1  0
 26 27  2  0
 20 28  2  0
 28 29  1  0
 29 30  1  0
 30 31  2  0
 30  4  1  0
 15  9  1  0
 29 18  1  0
 27 21  1  0
  1 32  1  0
  1 33  1  0
  1 34  1  0
 10 35  1  0
 11 36  1  0
 13 37  1  0
 13 38  1  0
 13 39  1  0
 14 40  1  0
 16 41  1  0
 22 42  1  0
 23 43  1  0
 26 44  1  0
 27 45  1  0
M  CHG  2   8  -1  17  -1
M  END
>  <UniqueID>  (34) 
32

>  <SMILES>  (34) 
CC(=O)c1c(C(=O)[N-]c2ccc(C)cc2O)[n-]c2nc(-c3ccc(Cl)cc3)nn2c1=O

>  <Energy>  (34) 
102.11477330233126

>  <Genealogy>  (34) 
CC(=O)c1c(C(=O)[N-]c2ccc(C)cc2O)[n-]c2nc(-c3ccc(Cl)cc3)nn2c1=O (protonated)
CC(=O)c1c(C(=O)[N-]c2ccc(C)cc2O)[n-]c2nc(-c3ccc(Cl)cc3)nn2c1=O (3D coordinates assigned)
CC(=O)c1c(C(=O)[N-]c2ccc(C)cc2O)[n-]c2nc(-c3ccc(Cl)cc3)nn2c1=O (optimized conformer: 102.11477330233126 kcal/mol)

>  <smiles>  (34) 
CC(=O)c1c(C(=O)Nc2ccc(C)cc2O)[nH]c2nc(-c3ccc(Cl)cc3)nn2c1=O

>  <score_type>  (34) 
oracle

>  <origin>  (34) 
adg

>  <m_score__min__energy>  (34) 
-12.26

>  <m_primary>  (34) 
energy

$$$$
34:0
     RDKit          3D

 54 57  0  0  0  0  0  0  0  0999 V2000
   61.2250   28.9590   44.9150 C   0  0  0  0  0  0  0  0  0  0  0  0
   60.2650   29.0610   46.0130 N   0  0  0  0  0  0  0  0  0  0  0  0
   60.6590   29.1240   47.2780 N   0  0  0  0  0  0  0  0  0  0  0  0
   59.5630   29.2930   48.0490 C   0  0  0  0  0  0  0  0  0  0  0  0
   59.5990   29.4120   49.5120 C   0  0  0  0  0  0  0  0  0  0  0  0
   60.7120   29.5550   50.0960 O   0  0  0  0  0  0  0  0  0  0  0  0
   58.3700   29.3720   50.2590 N   0  0  0  0  0  0  0  0  0  0  0  0
   57.9580   30.2680   51.1070 C   0  0  0  0  0  0  0  0  0  0  0  0
   56.7060   30.3210   51.6170 N   0  0  0  0  0  0  0  0  0  0  0  0
   56.5620   31.3680   52.4710 C   0  0  0  0  0  0  0  0  0  0  0  0
   57.6990   32.1510   52.6430 C   0  0  0  0  0  0  0  0  0  0  0  0
   58.9280   31.5080   51.6880 S   0  0  0  0  0  0  0  0  0  0  0  0
   58.4320   29.3470   47.2580 C   0  0  0  0  0  0  0  0  0  0  0  0
   58.9110   29.1770   45.9770 C   0  0  0  0  0  0  0  0  0  0  0  0
   58.1420   29.1870   44.9250 N   0  0  0  0  0  0  0  0  0  0  0  0
   57.0450   30.0540   44.6310 C   0  0  0  0  0  0  0  0  0  0  0  0
   55.9380   29.9030   45.2220 O   0  0  0  0  0  0  0  0  0  0  0  0
   57.2660   31.2500   43.7560 C   0  0  0  0  0  0  0  0  0  0  0  0
   58.0960   32.2840   44.4690 C   0  0  0  0  0  0  0  0  0  0  0  0
   58.4790   33.4630   43.8080 C   0  0  0  0  0  0  0  0  0  0  0  0
   59.2010   34.4470   44.4890 C   0  0  0  0  0  0  0  0  0  0  0  0
   59.5400   34.2670   45.8330 C   0  0  0  0  0  0  0  0  0  0  0  0
   59.1570   33.0970   46.5050 C   0  0  0  0  0  0  0  0  0  0  0  0
   59.5330   32.8760   48.2130 S   0  0  0  0  0  0  0  0  0  0  0  0
   58.3990   32.1600   48.8920 O   0  0  0  0  0  0  0  0  0  0  0  0
   59.6910   34.2310   48.8450 O   0  0  0  0  0  0  0  0  0  0  0  0
   61.0220   31.9620   48.3580 N   0  0  0  0  0  0  0  0  0  0  0  0
   61.7680   32.3240   49.5870 C   0  0  0  0  0  0  0  0  0  0  0  0
   62.8860   33.3530   49.3240 C   0  0  0  0  0  0  0  0  0  0  0  0
   62.5350   34.2030   48.2550 O   0  0  0  0  0  0  0  0  0  0  0  0
   62.5260   33.4780   47.0360 C   0  0  0  0  0  0  0  0  0  0  0  0
   61.8560   32.0850   47.1450 C   0  0  0  0  0  0  0  0  0  0  0  0
   58.4310   32.1120   45.8230 C   0  0  0  0  0  0  0  0  0  0  0  0
   62.2402   28.8511   45.3244 H   0  0  0  0  0  0  0  0  0  0  0  0
   60.9836   28.0814   44.2972 H   0  0  0  0  0  0  0  0  0  0  0  0
   61.1734   29.8677   44.2972 H   0  0  0  0  0  0  0  0  0  0  0  0
   55.6152   31.5810   52.9888 H   0  0  0  0  0  0  0  0  0  0  0  0
   57.7810   33.0365   53.2905 H   0  0  0  0  0  0  0  0  0  0  0  0
   57.3893   29.4922   47.5770 H   0  0  0  0  0  0  0  0  0  0  0  0
   57.7885   30.9361   42.8403 H   0  0  0  0  0  0  0  0  0  0  0  0
   56.2897   31.6908   43.5058 H   0  0  0  0  0  0  0  0  0  0  0  0
   58.2100   33.6120   42.7519 H   0  0  0  0  0  0  0  0  0  0  0  0
   59.5034   35.3660   43.9656 H   0  0  0  0  0  0  0  0  0  0  0  0
   60.1083   35.0444   46.3647 H   0  0  0  0  0  0  0  0  0  0  0  0
   60.7360   30.9570   48.4380 H   0  0  0  0  0  0  0  0  0  0  0  0
   61.0616   32.7502   50.3146 H   0  0  0  0  0  0  0  0  0  0  0  0
   62.2429   31.4082   49.9689 H   0  0  0  0  0  0  0  0  0  0  0  0
   63.0423   33.9569   50.2300 H   0  0  0  0  0  0  0  0  0  0  0  0
   63.8092   32.8153   49.0619 H   0  0  0  0  0  0  0  0  0  0  0  0
   61.9803   34.0681   46.2850 H   0  0  0  0  0  0  0  0  0  0  0  0
   63.5759   33.3088   46.7547 H   0  0  0  0  0  0  0  0  0  0  0  0
   61.2212   31.9268   46.2607 H   0  0  0  0  0  0  0  0  0  0  0  0
   62.6535   31.3297   47.2047 H   0  0  0  0  0  0  0  0  0  0  0  0
   58.1211   31.1979   46.3507 H   0  0  0  0  0  0  0  0  0  0  0  0
  1  2  1  0
  2  3  1  0
  3  4  1  0
  4  5  1  0
  5  6  2  0
  5  7  1  0
  7  8  2  3
  8  9  1  0
  9 10  1  0
 10 11  2  0
 11 12  1  0
  4 13  2  0
 13 14  1  0
 14 15  2  3
 15 16  1  0
 16 17  2  0
 16 18  1  0
 18 19  1  0
 19 20  2  0
 20 21  1  0
 21 22  2  0
 22 23  1  0
 23 24  1  0
 24 25  2  0
 24 26  2  0
 24 27  1  0
 27 28  1  0
 28 29  1  0
 29 30  1  0
 30 31  1  0
 31 32  1  0
 23 33  2  0
 14  2  1  0
 33 19  1  0
 12  8  1  0
 32 27  1  0
  1 34  1  0
  1 35  1  0
  1 36  1  0
 10 37  1  0
 11 38  1  0
 13 39  1  0
 18 40  1  0
 18 41  1  0
 20 42  1  0
 21 43  1  0
 22 44  1  0
 27 45  1  0
 28 46  1  0
 28 47  1  0
 29 48  1  0
 29 49  1  0
 31 50  1  0
 31 51  1  0
 32 52  1  0
 32 53  1  0
 33 54  1  0
M  CHG  3   3  -1   9  -1  27   1
M  END
>  <UniqueID>  (35) 
33

>  <SMILES>  (35) 
Cn1[n-]c(C(=O)N=c2[n-]ccs2)cc1=NC(=O)Cc1cccc(S(=O)(=O)[NH+]2CCOCC2)c1

>  <Energy>  (35) 
138.2169882698399

>  <Genealogy>  (35) 
Cn1[n-]c(C(=O)N=c2[n-]ccs2)cc1=NC(=O)Cc1cccc(S(=O)(=O)[NH+]2CCOCC2)c1 (protonated)
Cn1[n-]c(C(=O)N=c2[n-]ccs2)cc1=NC(=O)Cc1cccc(S(=O)(=O)[NH+]2CCOCC2)c1 (3D coordinates assigned)
Cn1[n-]c(C(=O)N=c2[n-]ccs2)cc1=NC(=O)Cc1cccc(S(=O)(=O)[NH+]2CCOCC2)c1 (nonaromatic ring conformer: 138.2169882698399 kcal/mol)

>  <smiles>  (35) 
Cn1[nH]c(C(=O)N=c2[nH]ccs2)cc1=NC(=O)Cc1cccc(S(=O)(=O)N2CCOCC2)c1

>  <score_type>  (35) 
oracle

>  <origin>  (35) 
adg

>  <m_score__min__energy>  (35) 
-12.220000000000001

>  <m_primary>  (35) 
energy

$$$$
35:0
     RDKit          3D

 45 47  0  0  0  0  0  0  0  0999 V2000
   57.2730   25.3090   44.8630 C   0  0  0  0  0  0  0  0  0  0  0  0
   56.3350   25.9500   45.8390 C   0  0  0  0  0  0  0  0  0  0  0  0
   55.9730   25.2980   46.8540 O   0  0  0  0  0  0  0  0  0  0  0  0
   55.8040   27.2660   45.6350 N   0  0  0  0  0  0  0  0  0  0  0  0
   56.5390   28.4370   45.2520 C   0  0  0  0  0  0  0  0  0  0  0  0
   57.7500   28.7830   45.8720 C   0  0  0  0  0  0  0  0  0  0  0  0
   58.4280   29.9470   45.4970 C   0  0  0  0  0  0  0  0  0  0  0  0
   57.8920   30.7930   44.5060 C   0  0  0  0  0  0  0  0  0  0  0  0
   58.5330   31.9700   44.0920 O   0  0  0  0  0  0  0  0  0  0  0  0
   58.0820   33.2850   44.4020 C   0  0  0  0  0  0  0  0  0  0  0  0
   58.5610   33.6590   45.7740 C   0  0  0  0  0  0  0  0  0  0  0  0
   59.1030   34.9280   46.0180 C   0  0  0  0  0  0  0  0  0  0  0  0
   59.5720   35.2460   47.2540 N   0  0  0  0  0  0  0  0  0  0  0  0
   59.5410   34.3540   48.2810 C   0  0  0  0  0  0  0  0  0  0  0  0
   59.0190   33.0660   48.0860 C   0  0  0  0  0  0  0  0  0  0  0  0
   59.0070   32.1110   49.1660 N   0  0  0  0  0  0  0  0  0  0  0  0
   58.6060   32.5350   50.5130 C   0  0  0  0  0  0  0  0  0  0  0  0
   58.3790   31.3150   51.4090 C   0  0  0  0  0  0  0  0  0  0  0  0
   57.7670   30.2900   50.6570 O   0  0  0  0  0  0  0  0  0  0  0  0
   58.7050   29.7120   49.7640 C   0  0  0  0  0  0  0  0  0  0  0  0
   59.5250   30.7510   48.9620 C   0  0  0  0  0  0  0  0  0  0  0  0
   58.5390   32.7210   46.8150 C   0  0  0  0  0  0  0  0  0  0  0  0
   56.6690   30.4570   43.9120 C   0  0  0  0  0  0  0  0  0  0  0  0
   55.9930   29.2940   44.2890 C   0  0  0  0  0  0  0  0  0  0  0  0
   58.0606   24.7708   45.4107 H   0  0  0  0  0  0  0  0  0  0  0  0
   56.7169   24.6012   44.2307 H   0  0  0  0  0  0  0  0  0  0  0  0
   57.7304   26.0843   44.2307 H   0  0  0  0  0  0  0  0  0  0  0  0
   58.1677   28.1352   46.6568 H   0  0  0  0  0  0  0  0  0  0  0  0
   59.3837   30.2032   45.9776 H   0  0  0  0  0  0  0  0  0  0  0  0
   58.4847   33.9955   43.6651 H   0  0  0  0  0  0  0  0  0  0  0  0
   56.9828   33.3158   44.3726 H   0  0  0  0  0  0  0  0  0  0  0  0
   59.1492   35.6695   45.2068 H   0  0  0  0  0  0  0  0  0  0  0  0
   59.9740   36.1960   47.4170 H   0  0  0  0  0  0  0  0  0  0  0  0
   59.9271   34.6440   49.2693 H   0  0  0  0  0  0  0  0  0  0  0  0
   59.3991   33.1615   50.9472 H   0  0  0  0  0  0  0  0  0  0  0  0
   57.6690   33.1070   50.4437 H   0  0  0  0  0  0  0  0  0  0  0  0
   59.3450   30.9593   51.7967 H   0  0  0  0  0  0  0  0  0  0  0  0
   57.7276   31.5928   52.2507 H   0  0  0  0  0  0  0  0  0  0  0  0
   59.4036   29.0938   50.3469 H   0  0  0  0  0  0  0  0  0  0  0  0
   58.1313   29.1231   49.0333 H   0  0  0  0  0  0  0  0  0  0  0  0
   60.5733   30.7132   49.2931 H   0  0  0  0  0  0  0  0  0  0  0  0
   59.4461   30.5057   47.8926 H   0  0  0  0  0  0  0  0  0  0  0  0
   58.1437   31.7106   46.6341 H   0  0  0  0  0  0  0  0  0  0  0  0
   56.2373   31.1140   43.1426 H   0  0  0  0  0  0  0  0  0  0  0  0
   55.0254   29.0500   43.8262 H   0  0  0  0  0  0  0  0  0  0  0  0
  1  2  1  0
  2  3  2  0
  2  4  1  0
  4  5  1  0
  5  6  2  0
  6  7  1  0
  7  8  2  0
  8  9  1  0
  9 10  1  0
 10 11  1  0
 11 12  2  0
 12 13  1  0
 13 14  2  0
 14 15  1  0
 15 16  1  0
 16 17  1  0
 17 18  1  0
 18 19  1  0
 19 20  1  0
 20 21  1  0
 15 22  2  0
  8 23  1  0
 23 24  2  0
 24  5  1  0
 22 11  1  0
 21 16  1  0
  1 25  1  0
  1 26  1  0
  1 27  1  0
  6 28  1  0
  7 29  1  0
 10 30  1  0
 10 31  1  0
 12 32  1  0
 13 33  1  0
 14 34  1  0
 17 35  1  0
 17 36  1  0
 18 37  1  0
 18 38  1  0
 20 39  1  0
 20 40  1  0
 21 41  1  0
 21 42  1  0
 22 43  1  0
 23 44  1  0
 24 45  1  0
M  CHG  2   4  -1  13   1
M  END
>  <UniqueID>  (36) 
34

>  <SMILES>  (36) 
CC(=O)[N-]c1ccc(OCc2c[nH+]cc(N3CCOCC3)c2)cc1

>  <Energy>  (36) 
59.2136436304418

>  <Genealogy>  (36) 
CC(=O)[N-]c1ccc(OCc2c[nH+]cc(N3CCOCC3)c2)cc1 (protonated)
CC(=O)[N-]c1ccc(OCc2c[nH+]cc(N3CCOCC3)c2)cc1 (3D coordinates assigned)
CC(=O)[N-]c1ccc(OCc2c[nH+]cc(N3CCOCC3)c2)cc1 (nonaromatic ring conformer: 59.2136436304418 kcal/mol)

>  <smiles>  (36) 
CC(=O)Nc1ccc(OCc2cncc(N3CCOCC3)c2)cc1

>  <score_type>  (36) 
oracle

>  <origin>  (36) 
adg

>  <m_score__min__energy>  (36) 
-8.1199999999999992

>  <m_primary>  (36) 
energy

$$$$
36:0
     RDKit          3D

 41 43  0  0  0  0  0  0  0  0999 V2000
   55.0680   26.7230   44.9190 H   0  0  0  0  0  0  0  0  0  0  0  0
   55.7240   26.5590   45.7150 N   0  0  0  0  0  0  0  0  0  0  0  0
   56.6500   27.4100   46.0140 C   0  0  0  0  0  0  0  0  0  0  0  0
   56.6000   28.6790   45.5200 N   0  0  0  0  0  0  0  0  0  0  0  0
   57.5560   29.6000   45.8140 C   0  0  0  0  0  0  0  0  0  0  0  0
   57.4860   30.6164   45.3991 H   0  0  0  0  0  0  0  0  0  0  0  0
   58.6290   29.2560   46.6440 C   0  0  0  0  0  0  0  0  0  0  0  0
   59.6430   30.2260   46.9620 C   0  0  0  0  0  0  0  0  0  0  0  0
   60.4950   31.0370   47.2260 C   0  0  0  0  0  0  0  0  0  0  0  0
   61.5160   32.0050   47.5470 C   0  0  0  0  0  0  0  0  0  0  0  0
   62.8590   31.6010   47.4930 C   0  0  0  0  0  0  0  0  0  0  0  0
   63.1098   30.5769   47.1793 H   0  0  0  0  0  0  0  0  0  0  0  0
   63.8780   32.4910   47.8350 C   0  0  0  0  0  0  0  0  0  0  0  0
   64.9284   32.1676   47.7890 H   0  0  0  0  0  0  0  0  0  0  0  0
   63.5660   33.7900   48.2350 C   0  0  0  0  0  0  0  0  0  0  0  0
   64.3713   34.4891   48.5048 H   0  0  0  0  0  0  0  0  0  0  0  0
   62.2340   34.2060   48.2940 C   0  0  0  0  0  0  0  0  0  0  0  0
   61.9968   35.2327   48.6097 H   0  0  0  0  0  0  0  0  0  0  0  0
   61.1930   33.3230   47.9530 C   0  0  0  0  0  0  0  0  0  0  0  0
   59.7920   33.8120   48.0080 C   0  0  0  0  0  0  0  0  0  0  0  0
   59.2870   34.1360   49.1180 O   0  0  0  0  0  0  0  0  0  0  0  0
   58.9830   33.8760   46.8180 N   0  0  0  0  0  0  0  0  0  0  0  0
   57.5290   33.7190   46.9220 C   0  0  0  0  0  0  0  0  0  0  0  0
   57.2928   33.0669   47.7758 H   0  0  0  0  0  0  0  0  0  0  0  0
   57.0679   34.7068   47.0694 H   0  0  0  0  0  0  0  0  0  0  0  0
   56.9780   33.0920   45.6360 C   0  0  0  0  0  0  0  0  0  0  0  0
   57.3269   32.0512   45.5655 H   0  0  0  0  0  0  0  0  0  0  0  0
   55.8792   33.1295   45.6717 H   0  0  0  0  0  0  0  0  0  0  0  0
   57.4330   33.8330   44.4490 N   0  0  0  0  0  0  0  0  0  0  0  0
   57.0670   34.8130   44.4800 H   0  0  0  0  0  0  0  0  0  0  0  0
   57.0520   33.3650   43.5940 H   0  0  0  0  0  0  0  0  0  0  0  0
   58.9010   33.8500   44.3630 C   0  0  0  0  0  0  0  0  0  0  0  0
   59.2690   32.8164   44.2841 H   0  0  0  0  0  0  0  0  0  0  0  0
   59.1942   34.4313   43.4763 H   0  0  0  0  0  0  0  0  0  0  0  0
   59.5140   34.5070   45.6030 C   0  0  0  0  0  0  0  0  0  0  0  0
   60.6070   34.3858   45.5771 H   0  0  0  0  0  0  0  0  0  0  0  0
   59.2581   35.5768   45.6095 H   0  0  0  0  0  0  0  0  0  0  0  0
   58.7020   27.9590   47.1600 C   0  0  0  0  0  0  0  0  0  0  0  0
   59.5401   27.6716   47.8119 H   0  0  0  0  0  0  0  0  0  0  0  0
   57.7080   27.0280   46.8460 C   0  0  0  0  0  0  0  0  0  0  0  0
   57.7570   26.0056   47.2488 H   0  0  0  0  0  0  0  0  0  0  0  0
  1  2  1  0
  2  3  2  0
  3  4  1  0
  4  5  1  0
  5  6  1  0
  5  7  2  0
  7  8  1  0
  8  9  3  0
  9 10  1  0
 10 11  2  0
 11 12  1  0
 11 13  1  0
 13 14  1  0
 13 15  2  0
 15 16  1  0
 15 17  1  0
 17 18  1  0
 17 19  2  0
 19 20  1  0
 20 21  2  0
 20 22  1  0
 22 23  1  0
 23 24  1  0
 23 25  1  0
 23 26  1  0
 26 27  1  0
 26 28  1  0
 26 29  1  0
 29 30  1  0
 29 31  1  0
 29 32  1  0
 32 33  1  0
 32 34  1  0
 32 35  1  0
 35 36  1  0
 35 37  1  0
  7 38  1  0
 38 39  1  0
 38 40  2  0
 40 41  1  0
 40  3  1  0
 19 10  1  0
 35 22  1  0
M  CHG  2   4  -1  29   1
M  END
>  <UniqueID>  (37) 
35

>  <SMILES>  (37) 
[H]/N=c1/ccc(C#Cc2ccccc2C(=O)N2CC[NH2+]CC2)c[n-]1

>  <Energy>  (37) 
44.11925912276326

>  <Genealogy>  (37) 
N=c1ccc(C#Cc2ccccc2C(=O)N2CC[NH2+]CC2)c[n-]1 (protonated)
[H]/N=c1/ccc(C#Cc2ccccc2C(=O)N2CC[NH2+]CC2)c[n-]1 (cis-trans isomerization)
[H]/N=c1/ccc(C#Cc2ccccc2C(=O)N2CC[NH2+]CC2)c[n-]1 (3D coordinates assigned)
[H]/N=c1/ccc(C#Cc2ccccc2C(=O)N2CC[NH2+]CC2)c[n-]1 (nonaromatic ring conformer: 44.11925912276326 kcal/mol)

>  <smiles>  (37) 
N=c1ccc(C#Cc2ccccc2C(=O)N2CCNCC2)c[nH]1

>  <score_type>  (37) 
oracle

>  <origin>  (37) 
adg

>  <m_score__min__energy>  (37) 
-7.3700000000000001

>  <m_primary>  (37) 
energy

$$$$
37:0
     RDKit          3D

 48 50  0  0  0  0  0  0  0  0999 V2000
   57.7257   32.4999   41.9070 H   0  0  0  0  0  0  0  0  0  0  0  0
   57.3670   31.8910   42.7500 C   0  0  0  0  0  0  0  0  0  0  0  0
   56.6640   30.3660   42.6400 S   0  0  0  0  0  0  0  0  0  0  0  0
   56.4610   30.2310   44.3010 C   0  0  0  0  0  0  0  0  0  0  0  0
   55.9360   29.1900   44.8770 N   0  0  0  0  0  0  0  0  0  0  0  0
   56.6430   28.1770   45.6120 C   0  0  0  0  0  0  0  0  0  0  0  0
   56.1190   27.0450   45.8060 O   0  0  0  0  0  0  0  0  0  0  0  0
   57.9980   28.4600   46.1410 C   0  0  0  0  0  0  0  0  0  0  0  0
   59.1180   28.4420   45.2880 C   0  0  0  0  0  0  0  0  0  0  0  0
   58.9877   28.2121   44.2202 H   0  0  0  0  0  0  0  0  0  0  0  0
   60.3930   28.7140   45.7880 C   0  0  0  0  0  0  0  0  0  0  0  0
   61.2609   28.6987   45.1123 H   0  0  0  0  0  0  0  0  0  0  0  0
   60.5710   29.0050   47.1400 C   0  0  0  0  0  0  0  0  0  0  0  0
   61.5776   29.2216   47.5270 H   0  0  0  0  0  0  0  0  0  0  0  0
   59.4710   29.0220   48.0060 C   0  0  0  0  0  0  0  0  0  0  0  0
   59.7160   29.3970   49.7070 S   0  0  0  0  0  0  0  0  0  0  0  0
   58.4800   29.0860   50.5040 O   0  0  0  0  0  0  0  0  0  0  0  0
   60.8580   28.5660   50.2210 O   0  0  0  0  0  0  0  0  0  0  0  0
   60.0900   31.0830   49.8600 N   0  0  0  0  0  0  0  0  0  0  0  0
   59.6780   31.5940   50.6730 H   0  0  0  0  0  0  0  0  0  0  0  0
   60.8620   31.7970   48.8790 C   0  0  0  0  0  0  0  0  0  0  0  0
   62.2460   31.5980   48.8130 C   0  0  0  0  0  0  0  0  0  0  0  0
   62.7225   30.8664   49.4821 H   0  0  0  0  0  0  0  0  0  0  0  0
   63.0250   32.3140   47.9120 C   0  0  0  0  0  0  0  0  0  0  0  0
   64.1072   32.1243   47.8582 H   0  0  0  0  0  0  0  0  0  0  0  0
   62.4480   33.2740   47.0720 C   0  0  0  0  0  0  0  0  0  0  0  0
   63.3450   34.0270   46.1220 C   0  0  0  0  0  0  0  0  0  0  0  0
   64.0635   34.6301   46.6964 H   0  0  0  0  0  0  0  0  0  0  0  0
   63.8904   33.3122   45.4883 H   0  0  0  0  0  0  0  0  0  0  0  0
   62.7354   34.6880   45.4883 H   0  0  0  0  0  0  0  0  0  0  0  0
   61.0560   33.5360   47.1570 C   0  0  0  0  0  0  0  0  0  0  0  0
   60.4290   34.6200   46.3050 C   0  0  0  0  0  0  0  0  0  0  0  0
   59.9851   35.3874   46.9562 H   0  0  0  0  0  0  0  0  0  0  0  0
   61.2007   35.0796   45.6700 H   0  0  0  0  0  0  0  0  0  0  0  0
   59.6458   34.1802   45.6700 H   0  0  0  0  0  0  0  0  0  0  0  0
   60.2480   32.7350   48.0130 C   0  0  0  0  0  0  0  0  0  0  0  0
   58.7410   32.8820   48.0180 C   0  0  0  0  0  0  0  0  0  0  0  0
   58.3795   32.9173   49.0563 H   0  0  0  0  0  0  0  0  0  0  0  0
   58.4616   33.8117   47.5007 H   0  0  0  0  0  0  0  0  0  0  0  0
   58.2872   32.0239   47.5007 H   0  0  0  0  0  0  0  0  0  0  0  0
   58.1880   28.7530   47.5060 C   0  0  0  0  0  0  0  0  0  0  0  0
   57.3231   28.7710   48.1854 H   0  0  0  0  0  0  0  0  0  0  0  0
   56.9160   31.3210   44.9580 N   0  0  0  0  0  0  0  0  0  0  0  0
   57.4150   32.2470   44.0960 C   0  0  0  0  0  0  0  0  0  0  0  0
   58.0080   33.5310   44.5720 C   0  0  0  0  0  0  0  0  0  0  0  0
   58.0150   33.5462   45.6719 H   0  0  0  0  0  0  0  0  0  0  0  0
   59.0384   33.6201   44.1975 H   0  0  0  0  0  0  0  0  0  0  0  0
   57.4077   34.3732   44.1975 H   0  0  0  0  0  0  0  0  0  0  0  0
  1  2  1  0
  2  3  1  0
  3  4  1  0
  4  5  2  0
  5  6  1  0
  6  7  2  0
  6  8  1  0
  8  9  2  0
  9 10  1  0
  9 11  1  0
 11 12  1  0
 11 13  2  0
 13 14  1  0
 13 15  1  0
 15 16  1  0
 16 17  2  0
 16 18  2  0
 16 19  1  0
 19 20  1  0
 19 21  1  0
 21 22  2  0
 22 23  1  0
 22 24  1  0
 24 25  1  0
 24 26  2  0
 26 27  1  0
 27 28  1  0
 27 29  1  0
 27 30  1  0
 26 31  1  0
 31 32  1  0
 32 33  1  0
 32 34  1  0
 32 35  1  0
 31 36  2  0
 36 37  1  0
 37 38  1  0
 37 39  1  0
 37 40  1  0
 15 41  2  0
 41 42  1  0
  4 43  1  0
 43 44  1  0
 44 45  1  0
 45 46  1  0
 45 47  1  0
 45 48  1  0
 44  2  2  0
 41  8  1  0
 36 21  1  0
M  CHG  1  43  -1
M  END
>  <UniqueID>  (38) 
36

>  <SMILES>  (38) 
Cc1cs/c(=N/C(=O)c2cccc(S(=O)(=O)Nc3ccc(C)c(C)c3C)c2)[n-]1

>  <Energy>  (38) 
91.07244336203846

>  <Genealogy>  (38) 
Cc1csc(=NC(=O)c2cccc(S(=O)(=O)Nc3ccc(C)c(C)c3C)c2)[n-]1 (protonated)
Cc1cs/c(=N/C(=O)c2cccc(S(=O)(=O)Nc3ccc(C)c(C)c3C)c2)[n-]1 (cis-trans isomerization)
Cc1cs/c(=N/C(=O)c2cccc(S(=O)(=O)Nc3ccc(C)c(C)c3C)c2)[n-]1 (3D coordinates assigned)
Cc1cs/c(=N/C(=O)c2cccc(S(=O)(=O)Nc3ccc(C)c(C)c3C)c2)[n-]1 (optimized conformer: 91.07244336203846 kcal/mol)

>  <smiles>  (38) 
Cc1csc(=NC(=O)c2cccc(S(=O)(=O)Nc3ccc(C)c(C)c3C)c2)[nH]1

>  <score_type>  (38) 
oracle

>  <origin>  (38) 
adg

>  <m_score__min__energy>  (38) 
-11.029999999999999

>  <m_primary>  (38) 
energy

$$$$
38:0
     RDKit          3D

 45 48  0  0  1  0  0  0  0  0999 V2000
   57.4710   28.2730   44.6570 C   0  0  0  0  0  0  0  0  0  0  0  0
   56.8460   29.7790   43.9510 S   0  0  0  0  0  0  0  0  0  0  0  0
   56.2460   29.5330   42.5950 O   0  0  0  0  0  0  0  0  0  0  0  0
   55.8220   30.3410   44.8730 O   0  0  0  0  0  0  0  0  0  0  0  0
   58.1250   30.9120   43.7900 N   0  0  0  0  0  0  0  0  0  0  0  0
   58.2180   32.0770   44.6030 C   0  0  0  0  0  0  0  0  0  0  0  0
   57.3040   33.0890   44.4950 C   0  0  0  0  0  0  0  0  0  0  0  0
   57.4060   34.2230   45.2950 C   0  0  0  0  0  0  0  0  0  0  0  0
   58.4580   34.3050   46.2050 C   0  0  0  0  0  0  0  0  0  0  0  0
   59.3900   33.3070   46.3370 C   0  0  0  0  0  0  0  0  0  0  0  0
   60.4950   33.3710   47.2800 C   0  0  0  0  0  0  0  0  0  0  0  0
   61.7470   33.1090   46.8730 N   0  0  0  0  0  0  0  0  0  0  0  0
   62.8330   33.1380   47.6580 C   0  0  0  0  0  0  0  0  0  0  0  0
   64.1370   32.9180   47.4650 N   0  0  0  0  0  0  0  0  0  0  0  0
   64.7810   33.0930   48.6210 N   0  0  0  0  0  0  0  0  0  0  0  0
   63.8810   33.4330   49.5800 C   0  0  0  0  0  0  0  0  0  0  0  0
   64.1240   33.6760   50.7970 O   0  0  0  0  0  0  0  0  0  0  0  0
   62.6550   33.4650   48.9910 C   0  0  0  0  0  0  0  0  0  0  0  0
   61.3780   33.7420   49.4440 C   0  0  0  0  0  0  0  0  0  0  0  0
   61.1670   34.0510   50.6800 N   0  0  0  0  0  0  0  0  0  0  0  0
   60.1740   33.3380   51.4450 C   0  0  0  0  0  0  0  0  0  0  0  0
   58.9030   33.8230   51.6280 C   0  0  0  0  0  0  0  0  0  0  0  0
   58.0380   33.0490   52.3820 C   0  0  0  0  0  0  0  0  0  0  0  0
   58.4110   31.8420   52.9350 C   0  0  0  0  0  0  0  0  0  0  0  0
   59.7090   31.3630   52.7370 C   0  0  0  0  0  0  0  0  0  0  0  0
   60.5860   32.1340   51.9810 C   0  0  0  0  0  0  0  0  0  0  0  0
   61.8880   31.6610   51.7790 O   0  0  0  0  0  0  0  0  0  0  0  0
   60.3300   33.6870   48.5750 N   0  0  0  0  0  0  0  0  0  0  0  0
   59.2500   32.2010   45.5240 C   0  0  0  0  0  0  0  0  0  0  0  0
   57.4420   28.3428   45.7544 H   0  0  0  0  0  0  0  0  0  0  0  0
   56.8494   27.4277   44.3268 H   0  0  0  0  0  0  0  0  0  0  0  0
   58.5085   28.1162   44.3268 H   0  0  0  0  0  0  0  0  0  0  0  0
   58.8940   30.7860   43.0780 H   0  0  0  0  0  0  0  0  0  0  0  0
   56.4813   33.0057   43.7695 H   0  0  0  0  0  0  0  0  0  0  0  0
   56.6716   35.0376   45.2108 H   0  0  0  0  0  0  0  0  0  0  0  0
   58.5441   35.1999   46.8388 H   0  0  0  0  0  0  0  0  0  0  0  0
   64.5590   32.6580   46.5690 H   0  0  0  0  0  0  0  0  0  0  0  0
   65.8220   32.9880   48.7830 H   0  0  0  0  0  0  0  0  0  0  0  0
   58.5862   34.7833   51.1950 H   0  0  0  0  0  0  0  0  0  0  0  0
   57.0124   33.4110   52.5466 H   0  0  0  0  0  0  0  0  0  0  0  0
   57.6910   31.2595   53.5286 H   0  0  0  0  0  0  0  0  0  0  0  0
   60.0284   30.4024   53.1673 H   0  0  0  0  0  0  0  0  0  0  0  0
   62.5680   32.2740   51.3470 H   0  0  0  0  0  0  0  0  0  0  0  0
   59.4070   33.8990   48.9590 H   0  0  0  0  0  0  0  0  0  0  0  0
   59.9841   31.3861   45.6086 H   0  0  0  0  0  0  0  0  0  0  0  0
  1  2  1  0
  2  3  2  0
  2  4  2  0
  2  5  1  0
  5  6  1  0
  6  7  2  0
  7  8  1  0
  8  9  2  0
  9 10  1  0
 10 11  1  0
 11 12  2  0
 12 13  1  0
 13 14  1  0
 14 15  1  0
 15 16  1  0
 16 17  2  0
 16 18  1  0
 18 19  1  0
 19 20  2  0
 20 21  1  0
 21 22  2  0
 22 23  1  0
 23 24  2  0
 24 25  1  0
 25 26  2  0
 26 27  1  0
 19 28  1  0
 10 29  2  0
 29  6  1  0
 28 11  1  0
 18 13  2  0
 26 21  1  0
  1 30  1  0
  1 31  1  0
  1 32  1  0
  5 33  1  0
  7 34  1  0
  8 35  1  0
  9 36  1  0
 14 37  1  0
 15 38  1  0
 22 39  1  0
 23 40  1  0
 24 41  1  0
 25 42  1  0
 27 43  1  0
 28 44  1  0
 29 45  1  0
M  END
>  <smiles>  (39) 
CS(=O)(=O)Nc1cccc(-c2nc3[nH][nH]c(=O)c3c(=Nc3ccccc3O)[nH]2)c1

>  <score_type>  (39) 
oracle

>  <origin>  (39) 
adg

>  <m_score__min__energy>  (39) 
-9.5099999999999998

>  <m_primary>  (39) 
energy

$$$$
39:0
     RDKit          3D

 55 57  0  0  0  0  0  0  0  0999 V2000
   58.1570   30.8350   50.7930 C   0  0  0  0  0  0  0  0  0  0  0  0
   58.4370   32.2880   51.1740 C   0  0  0  0  0  0  0  0  0  0  0  0
   59.3340   33.0000   50.1540 C   0  0  0  0  0  0  0  0  0  0  0  0
   58.9940   32.4870   48.4280 S   0  0  0  0  0  0  0  0  0  0  0  0
   60.7140   32.5310   47.8900 C   0  0  0  0  0  0  0  0  0  0  0  0
   61.2460   33.7550   47.4590 C   0  0  0  0  0  0  0  0  0  0  0  0
   62.5810   33.8450   47.0640 C   0  0  0  0  0  0  0  0  0  0  0  0
   63.3950   32.7120   47.0880 C   0  0  0  0  0  0  0  0  0  0  0  0
   62.8740   31.4840   47.5000 C   0  0  0  0  0  0  0  0  0  0  0  0
   61.5310   31.3770   47.9010 C   0  0  0  0  0  0  0  0  0  0  0  0
   61.0090   30.0560   48.3120 C   0  0  0  0  0  0  0  0  0  0  0  0
   61.2770   29.6250   49.4670 O   0  0  0  0  0  0  0  0  0  0  0  0
   60.1610   29.2800   47.4420 N   0  0  0  0  0  0  0  0  0  0  0  0
   60.3560   29.2860   45.9860 C   0  0  0  0  0  0  0  0  0  0  0  0
   59.0000   29.3990   45.2840 C   0  0  0  0  0  0  0  0  0  0  0  0
   58.0130   28.4690   45.8560 N   0  0  0  0  0  0  0  0  0  0  0  0
   56.7090   28.3700   45.2510 C   0  0  0  0  0  0  0  0  0  0  0  0
   55.9010   27.4790   45.6290 O   0  0  0  0  0  0  0  0  0  0  0  0
   56.3500   29.2550   44.1790 N   0  0  0  0  0  0  0  0  0  0  0  0
   56.8880   30.5630   43.9380 C   0  0  0  0  0  0  0  0  0  0  0  0
   57.3360   30.8800   42.6490 C   0  0  0  0  0  0  0  0  0  0  0  0
   57.8850   32.1370   42.3790 C   0  0  0  0  0  0  0  0  0  0  0  0
   58.0030   33.0830   43.3980 C   0  0  0  0  0  0  0  0  0  0  0  0
   57.5760   32.7720   44.6950 C   0  0  0  0  0  0  0  0  0  0  0  0
   57.7560   33.9770   46.0120 S   0  0  0  0  0  0  0  0  0  0  0  0
   59.1320   34.8430   45.1960 C   0  0  0  0  0  0  0  0  0  0  0  0
   57.0300   31.5110   44.9680 C   0  0  0  0  0  0  0  0  0  0  0  0
   58.3950   27.5880   46.9720 C   0  0  0  0  0  0  0  0  0  0  0  0
   59.1650   28.3770   48.0390 C   0  0  0  0  0  0  0  0  0  0  0  0
   58.0409   30.2324   51.7059 H   0  0  0  0  0  0  0  0  0  0  0  0
   57.2324   30.7832   50.1994 H   0  0  0  0  0  0  0  0  0  0  0  0
   58.9962   30.4433   50.1994 H   0  0  0  0  0  0  0  0  0  0  0  0
   57.4800   32.8265   51.2387 H   0  0  0  0  0  0  0  0  0  0  0  0
   58.9652   32.2848   52.1389 H   0  0  0  0  0  0  0  0  0  0  0  0
   59.1687   34.0843   50.2373 H   0  0  0  0  0  0  0  0  0  0  0  0
   60.3750   32.7269   50.3814 H   0  0  0  0  0  0  0  0  0  0  0  0
   60.6066   34.6497   47.4322 H   0  0  0  0  0  0  0  0  0  0  0  0
   62.9923   34.8101   46.7333 H   0  0  0  0  0  0  0  0  0  0  0  0
   64.4489   32.7864   46.7818 H   0  0  0  0  0  0  0  0  0  0  0  0
   63.5194   30.5933   47.5109 H   0  0  0  0  0  0  0  0  0  0  0  0
   60.9857   30.1430   45.7050 H   0  0  0  0  0  0  0  0  0  0  0  0
   60.8474   28.3505   45.6805 H   0  0  0  0  0  0  0  0  0  0  0  0
   58.6262   30.4277   45.3937 H   0  0  0  0  0  0  0  0  0  0  0  0
   59.1398   29.1420   44.2236 H   0  0  0  0  0  0  0  0  0  0  0  0
   57.2552   30.1348   41.8439 H   0  0  0  0  0  0  0  0  0  0  0  0
   58.2246   32.3808   41.3615 H   0  0  0  0  0  0  0  0  0  0  0  0
   58.4314   34.0730   43.1825 H   0  0  0  0  0  0  0  0  0  0  0  0
   59.8031   35.2653   45.9584 H   0  0  0  0  0  0  0  0  0  0  0  0
   59.6909   34.1335   44.5681 H   0  0  0  0  0  0  0  0  0  0  0  0
   58.7341   35.6538   44.5681 H   0  0  0  0  0  0  0  0  0  0  0  0
   56.7113   31.2613   45.9908 H   0  0  0  0  0  0  0  0  0  0  0  0
   57.4874   27.1601   47.4227 H   0  0  0  0  0  0  0  0  0  0  0  0
   59.0413   26.7854   46.5870 H   0  0  0  0  0  0  0  0  0  0  0  0
   58.4502   28.9736   48.6249 H   0  0  0  0  0  0  0  0  0  0  0  0
   59.6976   27.6566   48.6772 H   0  0  0  0  0  0  0  0  0  0  0  0
  1  2  1  0
  2  3  1  0
  3  4  1  0
  4  5  1  0
  5  6  2  0
  6  7  1  0
  7  8  2  0
  8  9  1  0
  9 10  2  0
 10 11  1  0
 11 12  2  0
 11 13  1  0
 13 14  1  0
 14 15  1  0
 15 16  1  0
 16 17  1  0
 17 18  2  0
 17 19  1  0
 19 20  1  0
 20 21  2  0
 21 22  1  0
 22 23  2  0
 23 24  1  0
 24 25  1  0
 25 26  1  0
 24 27  2  0
 16 28  1  0
 28 29  1  0
 10  5  1  0
 29 13  1  0
 27 20  1  0
  1 30  1  0
  1 31  1  0
  1 32  1  0
  2 33  1  0
  2 34  1  0
  3 35  1  0
  3 36  1  0
  6 37  1  0
  7 38  1  0
  8 39  1  0
  9 40  1  0
 14 41  1  0
 14 42  1  0
 15 43  1  0
 15 44  1  0
 21 45  1  0
 22 46  1  0
 23 47  1  0
 26 48  1  0
 26 49  1  0
 26 50  1  0
 27 51  1  0
 28 52  1  0
 28 53  1  0
 29 54  1  0
 29 55  1  0
M  CHG  1  19  -1
M  END
>  <UniqueID>  (40) 
37

>  <SMILES>  (40) 
CCCSc1ccccc1C(=O)N1CCN(C(=O)[N-]c2cccc(SC)c2)CC1

>  <Energy>  (40) 
53.493435522518055

>  <Genealogy>  (40) 
CCCSc1ccccc1C(=O)N1CCN(C(=O)[N-]c2cccc(SC)c2)CC1 (protonated)
CCCSc1ccccc1C(=O)N1CCN(C(=O)[N-]c2cccc(SC)c2)CC1 (3D coordinates assigned)
CCCSc1ccccc1C(=O)N1CCN(C(=O)[N-]c2cccc(SC)c2)CC1 (nonaromatic ring conformer: 53.493435522518055 kcal/mol)

>  <smiles>  (40) 
CCCSc1ccccc1C(=O)N1CCN(C(=O)Nc2cccc(SC)c2)CC1

>  <score_type>  (40) 
oracle

>  <origin>  (40) 
adg

>  <m_score__min__energy>  (40) 
-10.26

>  <m_primary>  (40) 
energy

$$$$
40:0
     RDKit          3D

 44 46  0  0  0  0  0  0  0  0999 V2000
   57.6390   20.6660   46.2730 C   0  0  0  0  0  0  0  0  0  0  0  0
   57.4900   21.8330   45.3440 C   0  0  0  0  0  0  0  0  0  0  0  0
   57.0750   21.6260   44.0020 C   0  0  0  0  0  0  0  0  0  0  0  0
   56.9120   22.7130   43.1240 C   0  0  0  0  0  0  0  0  0  0  0  0
   57.1570   23.9880   43.6230 C   0  0  0  0  0  0  0  0  0  0  0  0
   57.0900   25.1390   42.9980 O   0  0  0  0  0  0  0  0  0  0  0  0
   57.3970   26.1020   43.8240 N   0  0  0  0  0  0  0  0  0  0  0  0
   57.6670   25.5640   45.0360 C   0  0  0  0  0  0  0  0  0  0  0  0
   58.1320   26.3430   46.2310 C   0  0  0  0  0  0  0  0  0  0  0  0
   57.6950   27.8030   46.1300 C   0  0  0  0  0  0  0  0  0  0  0  0
   58.2630   28.4110   44.9250 N   0  0  0  0  0  0  0  0  0  0  0  0
   57.1070   29.4600   44.1630 S   0  0  0  0  0  0  0  0  0  0  0  0
   56.8800   29.0300   42.7400 O   0  0  0  0  0  0  0  0  0  0  0  0
   55.8000   29.3770   44.9000 O   0  0  0  0  0  0  0  0  0  0  0  0
   57.7020   31.1180   44.2280 C   0  0  0  0  0  0  0  0  0  0  0  0
   57.7850   32.0460   43.2000 C   0  0  0  0  0  0  0  0  0  0  0  0
   57.3400   31.8670   41.7850 C   0  0  0  0  0  0  0  0  0  0  0  0
   58.2880   33.2020   43.6770 N   0  0  0  0  0  0  0  0  0  0  0  0
   58.5340   33.0320   44.9670 N   0  0  0  0  0  0  0  0  0  0  0  0
   59.0740   34.0800   45.8260 C   0  0  0  0  0  0  0  0  0  0  0  0
   58.2070   31.7750   45.3350 C   0  0  0  0  0  0  0  0  0  0  0  0
   58.2640   31.2430   46.7360 C   0  0  0  0  0  0  0  0  0  0  0  0
   57.5300   24.1960   44.9230 C   0  0  0  0  0  0  0  0  0  0  0  0
   57.7070   23.1460   45.8200 C   0  0  0  0  0  0  0  0  0  0  0  0
   57.5940   21.0181   47.3142 H   0  0  0  0  0  0  0  0  0  0  0  0
   56.8252   19.9480   46.0933 H   0  0  0  0  0  0  0  0  0  0  0  0
   58.6071   20.1755   46.0933 H   0  0  0  0  0  0  0  0  0  0  0  0
   56.8788   20.6043   43.6449 H   0  0  0  0  0  0  0  0  0  0  0  0
   56.6018   22.5600   42.0798 H   0  0  0  0  0  0  0  0  0  0  0  0
   57.4370   27.1140   43.5690 H   0  0  0  0  0  0  0  0  0  0  0  0
   57.7009   25.8996   47.1407 H   0  0  0  0  0  0  0  0  0  0  0  0
   59.2307   26.3057   46.2706 H   0  0  0  0  0  0  0  0  0  0  0  0
   56.5972   27.8526   46.0808 H   0  0  0  0  0  0  0  0  0  0  0  0
   58.0526   28.3501   47.0147 H   0  0  0  0  0  0  0  0  0  0  0  0
   56.3196   31.4565   41.7707 H   0  0  0  0  0  0  0  0  0  0  0  0
   57.3512   32.8396   41.2713 H   0  0  0  0  0  0  0  0  0  0  0  0
   58.0216   31.1731   41.2713 H   0  0  0  0  0  0  0  0  0  0  0  0
   58.9300   33.8005   46.8801 H   0  0  0  0  0  0  0  0  0  0  0  0
   60.1480   34.2035   45.6228 H   0  0  0  0  0  0  0  0  0  0  0  0
   58.5512   35.0263   45.6228 H   0  0  0  0  0  0  0  0  0  0  0  0
   58.1747   32.0763   47.4485 H   0  0  0  0  0  0  0  0  0  0  0  0
   57.4365   30.5356   46.8935 H   0  0  0  0  0  0  0  0  0  0  0  0
   59.2226   30.7269   46.8935 H   0  0  0  0  0  0  0  0  0  0  0  0
   58.0052   23.3318   46.8624 H   0  0  0  0  0  0  0  0  0  0  0  0
  1  2  1  0
  2  3  2  0
  3  4  1  0
  4  5  2  0
  5  6  1  0
  6  7  1  0
  7  8  2  0
  8  9  1  0
  9 10  1  0
 10 11  1  0
 11 12  1  0
 12 13  2  0
 12 14  2  0
 12 15  1  0
 15 16  1  0
 16 17  1  0
 16 18  2  0
 18 19  1  0
 19 20  1  0
 19 21  1  0
 21 22  1  0
  8 23  1  0
 23 24  2  0
 24  2  1  0
 23  5  1  0
 21 15  2  0
  1 25  1  0
  1 26  1  0
  1 27  1  0
  3 28  1  0
  4 29  1  0
  7 30  1  0
  9 31  1  0
  9 32  1  0
 10 33  1  0
 10 34  1  0
 17 35  1  0
 17 36  1  0
 17 37  1  0
 20 38  1  0
 20 39  1  0
 20 40  1  0
 22 41  1  0
 22 42  1  0
 22 43  1  0
 24 44  1  0
M  CHG  2   7   1  11  -1
M  END
>  <UniqueID>  (41) 
38

>  <SMILES>  (41) 
Cc1ccc2o[nH+]c(CC[N-]S(=O)(=O)c3c(C)nn(C)c3C)c2c1

>  <Energy>  (41) 
103.26778867053994

>  <Genealogy>  (41) 
Cc1ccc2o[nH+]c(CC[N-]S(=O)(=O)c3c(C)nn(C)c3C)c2c1 (protonated)
Cc1ccc2o[nH+]c(CC[N-]S(=O)(=O)c3c(C)nn(C)c3C)c2c1 (3D coordinates assigned)
Cc1ccc2o[nH+]c(CC[N-]S(=O)(=O)c3c(C)nn(C)c3C)c2c1 (optimized conformer: 103.26778867053994 kcal/mol)

>  <smiles>  (41) 
Cc1ccc2onc(CCNS(=O)(=O)c3c(C)nn(C)c3C)c2c1

>  <score_type>  (41) 
oracle

>  <origin>  (41) 
adg

>  <m_score__min__energy>  (41) 
-8.5899999999999999

>  <m_primary>  (41) 
energy

$$$$
41:0
     RDKit          3D

 42 44  0  0  0  0  0  0  0  0999 V2000
   57.7750   27.0360   44.3790 C   0  0  0  0  0  0  0  0  0  0  0  0
   56.6780   27.7410   45.5850 S   0  0  0  0  0  0  0  0  0  0  0  0
   57.4860   28.1700   46.7780 O   0  0  0  0  0  0  0  0  0  0  0  0
   55.6620   26.7140   45.9960 O   0  0  0  0  0  0  0  0  0  0  0  0
   55.8790   29.1140   44.8890 N   0  0  0  0  0  0  0  0  0  0  0  0
   56.5190   30.1450   44.1200 C   0  0  0  0  0  0  0  0  0  0  0  0
   56.3470   30.2450   42.7280 C   0  0  0  0  0  0  0  0  0  0  0  0
   56.9630   31.2730   42.0120 C   0  0  0  0  0  0  0  0  0  0  0  0
   57.7580   32.2130   42.6690 C   0  0  0  0  0  0  0  0  0  0  0  0
   57.9540   32.1250   44.0590 C   0  0  0  0  0  0  0  0  0  0  0  0
   58.7570   33.0470   44.7550 C   0  0  0  0  0  0  0  0  0  0  0  0
   59.3250   33.9980   44.1520 O   0  0  0  0  0  0  0  0  0  0  0  0
   58.9350   32.9090   46.1350 C   0  0  0  0  0  0  0  0  0  0  0  0
   58.3140   31.8500   46.8160 C   0  0  0  0  0  0  0  0  0  0  0  0
   58.5370   31.6320   48.2600 C   0  0  0  0  0  0  0  0  0  0  0  0
   58.5660   32.6130   49.0520 O   0  0  0  0  0  0  0  0  0  0  0  0
   58.7740   30.3070   48.7590 N   0  0  0  0  0  0  0  0  0  0  0  0
   59.5270   30.0540   49.9870 C   0  0  0  0  0  0  0  0  0  0  0  0
   60.2110   28.7110   49.9510 C   0  0  0  0  0  0  0  0  0  0  0  0
   60.1830   27.8510   48.9200 C   0  0  0  0  0  0  0  0  0  0  0  0
   60.3320   28.2170   47.5010 C   0  0  0  0  0  0  0  0  0  0  0  0
   60.4330   27.3590   46.4200 C   0  0  0  0  0  0  0  0  0  0  0  0
   60.5700   28.1690   45.3140 C   0  0  0  0  0  0  0  0  0  0  0  0
   60.5540   29.4650   45.7840 C   0  0  0  0  0  0  0  0  0  0  0  0
   60.4210   29.4600   47.0890 O   0  0  0  0  0  0  0  0  0  0  0  0
   57.5360   30.9770   46.1220 N   0  0  0  0  0  0  0  0  0  0  0  0
   57.3330   31.0800   44.7810 C   0  0  0  0  0  0  0  0  0  0  0  0
   58.5938   26.5098   44.8914 H   0  0  0  0  0  0  0  0  0  0  0  0
   57.2197   26.3252   43.7493 H   0  0  0  0  0  0  0  0  0  0  0  0
   58.1908   27.8364   43.7493 H   0  0  0  0  0  0  0  0  0  0  0  0
   55.7232   29.5087   42.2000 H   0  0  0  0  0  0  0  0  0  0  0  0
   56.8209   31.3424   40.9234 H   0  0  0  0  0  0  0  0  0  0  0  0
   58.2326   33.0249   42.0984 H   0  0  0  0  0  0  0  0  0  0  0  0
   59.5597   33.6280   46.6853 H   0  0  0  0  0  0  0  0  0  0  0  0
   58.4800   29.4850   48.1860 H   0  0  0  0  0  0  0  0  0  0  0  0
   60.2879   30.8392   50.1075 H   0  0  0  0  0  0  0  0  0  0  0  0
   58.8213   30.0585   50.8308 H   0  0  0  0  0  0  0  0  0  0  0  0
   60.7801   28.4107   50.8431 H   0  0  0  0  0  0  0  0  0  0  0  0
   60.0368   26.7862   49.1543 H   0  0  0  0  0  0  0  0  0  0  0  0
   60.4089   26.2594   46.4397 H   0  0  0  0  0  0  0  0  0  0  0  0
   60.6716   27.8467   44.2672 H   0  0  0  0  0  0  0  0  0  0  0  0
   60.6398   30.3664   45.1594 H   0  0  0  0  0  0  0  0  0  0  0  0
  1  2  1  0
  2  3  2  0
  2  4  2  0
  2  5  1  0
  5  6  1  0
  6  7  2  0
  7  8  1  0
  8  9  2  0
  9 10  1  0
 10 11  1  0
 11 12  2  0
 11 13  1  0
 13 14  2  0
 14 15  1  0
 15 16  2  0
 15 17  1  0
 17 18  1  0
 18 19  1  0
 19 20  2  3
 20 21  1  0
 21 22  2  0
 22 23  1  0
 23 24  2  0
 24 25  1  0
 14 26  1  0
 26 27  1  0
 27  6  1  0
 27 10  2  0
 25 21  1  0
  1 28  1  0
  1 29  1  0
  1 30  1  0
  7 31  1  0
  8 32  1  0
  9 33  1  0
 13 34  1  0
 17 35  1  0
 18 36  1  0
 18 37  1  0
 19 38  1  0
 20 39  1  0
 22 40  1  0
 23 41  1  0
 24 42  1  0
M  CHG  2   5  -1  26  -1
M  END
>  <UniqueID>  (42) 
39

>  <SMILES>  (42) 
CS(=O)(=O)[N-]c1cccc2c(=O)cc(C(=O)NCC=Cc3ccco3)[n-]c12

>  <Energy>  (42) 
73.55928146195522

>  <Genealogy>  (42) 
CS(=O)(=O)[N-]c1cccc2c(=O)cc(C(=O)NCC=Cc3ccco3)[n-]c12 (protonated)
CS(=O)(=O)[N-]c1cccc2c(=O)cc(C(=O)NCC=Cc3ccco3)[n-]c12 (3D coordinates assigned)
CS(=O)(=O)[N-]c1cccc2c(=O)cc(C(=O)NCC=Cc3ccco3)[n-]c12 (optimized conformer: 73.55928146195522 kcal/mol)

>  <smiles>  (42) 
CS(=O)(=O)Nc1cccc2c(=O)cc(C(=O)NCC=Cc3ccco3)[nH]c12

>  <score_type>  (42) 
oracle

>  <origin>  (42) 
adg

>  <m_score__min__energy>  (42) 
-10.58

>  <m_primary>  (42) 
energy

$$$$
42:0
     RDKit          3D

 38 40  0  0  0  0  0  0  0  0999 V2000
   57.4610   32.3010   41.3600 C   0  0  0  0  0  0  0  0  0  0  0  0
   57.9310   32.0120   42.5770 C   0  0  0  0  0  0  0  0  0  0  0  0
   57.0420   31.4730   43.6610 C   0  0  0  0  0  0  0  0  0  0  0  0
   57.6190   31.7420   44.9870 N   0  0  0  0  0  0  0  0  0  0  0  0
   58.1220   30.7590   45.7950 C   0  0  0  0  0  0  0  0  0  0  0  0
   58.1490   29.3880   45.3820 N   0  0  0  0  0  0  0  0  0  0  0  0
   57.0180   28.5140   45.4630 C   0  0  0  0  0  0  0  0  0  0  0  0
   55.8720   28.9630   45.1860 O   0  0  0  0  0  0  0  0  0  0  0  0
   57.2000   27.0900   45.8460 C   0  0  0  0  0  0  0  0  0  0  0  0
   58.5010   26.5620   45.9660 C   0  0  0  0  0  0  0  0  0  0  0  0
   58.6990   25.2310   46.3430 C   0  0  0  0  0  0  0  0  0  0  0  0
   57.6040   24.4070   46.6040 C   0  0  0  0  0  0  0  0  0  0  0  0
   56.3090   24.9110   46.4860 C   0  0  0  0  0  0  0  0  0  0  0  0
   56.0980   26.2440   46.1140 C   0  0  0  0  0  0  0  0  0  0  0  0
   54.7910   26.7100   46.0210 O   0  0  0  0  0  0  0  0  0  0  0  0
   58.6740   31.2130   46.9990 C   0  0  0  0  0  0  0  0  0  0  0  0
   59.4270   30.4100   48.0200 C   0  0  0  0  0  0  0  0  0  0  0  0
   58.8920   30.6470   49.3970 C   0  0  0  0  0  0  0  0  0  0  0  0
   58.1500   29.7450   50.0780 N   0  0  0  0  0  0  0  0  0  0  0  0
   57.7420   30.2400   51.2770 C   0  0  0  0  0  0  0  0  0  0  0  0
   56.9710   29.4860   52.1510 O   0  0  0  0  0  0  0  0  0  0  0  0
   58.1380   31.5410   51.5600 C   0  0  0  0  0  0  0  0  0  0  0  0
   59.0320   32.0940   50.2460 S   0  0  0  0  0  0  0  0  0  0  0  0
   58.4980   32.8860   47.0540 S   0  0  0  0  0  0  0  0  0  0  0  0
   57.7440   32.9730   45.5570 C   0  0  0  0  0  0  0  0  0  0  0  0
   57.2580   34.3860   44.8810 S   0  0  0  0  0  0  0  0  0  0  0  0
   58.1385   32.6945   40.5879 H   0  0  0  0  0  0  0  0  0  0  0  0
   56.3966   32.1454   41.1303 H   0  0  0  0  0  0  0  0  0  0  0  0
   58.9979   32.1732   42.7908 H   0  0  0  0  0  0  0  0  0  0  0  0
   56.0554   31.9545   43.5919 H   0  0  0  0  0  0  0  0  0  0  0  0
   56.9451   30.3850   43.5311 H   0  0  0  0  0  0  0  0  0  0  0  0
   59.3700   27.2044   45.7607 H   0  0  0  0  0  0  0  0  0  0  0  0
   59.7202   24.8323   46.4341 H   0  0  0  0  0  0  0  0  0  0  0  0
   57.7619   23.3602   46.9027 H   0  0  0  0  0  0  0  0  0  0  0  0
   55.4477   24.2568   46.6865 H   0  0  0  0  0  0  0  0  0  0  0  0
   59.3319   29.3414   47.7772 H   0  0  0  0  0  0  0  0  0  0  0  0
   60.4820   30.7205   47.9981 H   0  0  0  0  0  0  0  0  0  0  0  0
   57.9091   32.1063   52.4755 H   0  0  0  0  0  0  0  0  0  0  0  0
  1  2  2  0
  2  3  1  0
  3  4  1  0
  4  5  1  0
  5  6  1  0
  6  7  1  0
  7  8  2  0
  7  9  1  0
  9 10  2  0
 10 11  1  0
 11 12  2  0
 12 13  1  0
 13 14  2  0
 14 15  1  0
  5 16  2  0
 16 17  1  0
 17 18  1  0
 18 19  2  0
 19 20  1  0
 20 21  1  0
 20 22  2  0
 22 23  1  0
 16 24  1  0
 24 25  1  0
 25 26  2  0
 25  4  1  0
 14  9  1  0
 23 18  1  0
  1 27  1  0
  1 28  1  0
  2 29  1  0
  3 30  1  0
  3 31  1  0
 10 32  1  0
 11 33  1  0
 12 34  1  0
 13 35  1  0
 17 36  1  0
 17 37  1  0
 22 38  1  0
M  CHG  3   6  -1  15  -1  21  -1
M  END
>  <UniqueID>  (43) 
40

>  <SMILES>  (43) 
C=CCn1c([N-]C(=O)c2ccccc2[O-])c(Cc2nc([O-])cs2)sc1=S

>  <Energy>  (43) 
104.74262674925649

>  <Genealogy>  (43) 
C=CCn1c([N-]C(=O)c2ccccc2[O-])c(Cc2nc([O-])cs2)sc1=S (protonated)
C=CCn1c([N-]C(=O)c2ccccc2[O-])c(Cc2nc([O-])cs2)sc1=S (3D coordinates assigned)
C=CCn1c([N-]C(=O)c2ccccc2[O-])c(Cc2nc([O-])cs2)sc1=S (optimized conformer: 104.74262674925649 kcal/mol)

>  <smiles>  (43) 
C=CCn1c(NC(=O)c2ccccc2O)c(Cc2nc(O)cs2)sc1=S

>  <score_type>  (43) 
oracle

>  <origin>  (43) 
adg

>  <m_score__min__energy>  (43) 
-14.970000000000001

>  <m_primary>  (43) 
energy

$$$$
43:0
     RDKit          3D

 48 50  0  0  0  0  0  0  0  0999 V2000
   60.6040   29.4980   48.8370 O   0  0  0  0  0  0  0  0  0  0  0  0
   59.6550   30.1720   48.3490 C   0  0  0  0  0  0  0  0  0  0  0  0
   59.5320   30.3230   46.9290 N   0  0  0  0  0  0  0  0  0  0  0  0
   60.4910   29.7360   45.9940 C   0  0  0  0  0  0  0  0  0  0  0  0
   59.7750   29.2270   44.7400 C   0  0  0  0  0  0  0  0  0  0  0  0
   58.5830   28.4510   45.1130 N   0  0  0  0  0  0  0  0  0  0  0  0
   58.6870   27.0940   45.2420 C   0  0  0  0  0  0  0  0  0  0  0  0
   57.5710   26.3250   45.5700 C   0  0  0  0  0  0  0  0  0  0  0  0
   56.3510   26.9690   45.7510 C   0  0  0  0  0  0  0  0  0  0  0  0
   55.3220   26.3080   46.0490 O   0  0  0  0  0  0  0  0  0  0  0  0
   56.2690   28.3150   45.6010 N   0  0  0  0  0  0  0  0  0  0  0  0
   57.3630   29.0570   45.2830 C   0  0  0  0  0  0  0  0  0  0  0  0
   57.2380   30.3040   45.1450 O   0  0  0  0  0  0  0  0  0  0  0  0
   58.6310   30.7890   49.2660 C   0  0  1  0  0  0  0  0  0  0  0  0
   58.8410   30.3450   50.7160 C   0  0  0  0  0  0  0  0  0  0  0  0
   58.6380   31.5970   51.5640 C   0  0  0  0  0  0  0  0  0  0  0  0
   58.8750   32.7750   50.6290 C   0  0  0  0  0  0  0  0  0  0  0  0
   58.7500   32.2400   49.2830 N   0  0  0  0  0  0  0  0  0  0  0  0
   58.5980   33.0560   48.1070 C   0  0  0  0  0  0  0  0  0  0  0  0
   57.8270   32.6780   47.1820 O   0  0  0  0  0  0  0  0  0  0  0  0
   59.4120   34.3010   47.9070 C   0  0  0  0  0  0  0  0  0  0  0  0
   60.8750   33.9540   47.9280 C   0  0  0  0  0  0  0  0  0  0  0  0
   61.5770   33.9280   49.1460 C   0  0  0  0  0  0  0  0  0  0  0  0
   62.9480   33.6570   49.1620 C   0  0  0  0  0  0  0  0  0  0  0  0
   63.6310   33.4240   47.9650 C   0  0  0  0  0  0  0  0  0  0  0  0
   62.9430   33.4620   46.7490 C   0  0  0  0  0  0  0  0  0  0  0  0
   61.5710   33.7300   46.7290 C   0  0  0  0  0  0  0  0  0  0  0  0
   58.7660   30.9190   46.5430 H   0  0  0  0  0  0  0  0  0  0  0  0
   61.2284   30.4994   45.7050 H   0  0  0  0  0  0  0  0  0  0  0  0
   60.9937   28.8896   46.4848 H   0  0  0  0  0  0  0  0  0  0  0  0
   59.4710   30.0849   44.1222 H   0  0  0  0  0  0  0  0  0  0  0  0
   60.4610   28.5796   44.1740 H   0  0  0  0  0  0  0  0  0  0  0  0
   59.6596   26.6045   45.0857 H   0  0  0  0  0  0  0  0  0  0  0  0
   57.6533   25.2339   45.6831 H   0  0  0  0  0  0  0  0  0  0  0  0
   57.6515   30.4652   48.8842 H   0  0  0  0  0  0  0  0  0  0  0  0
   58.1077   29.5725   50.9907 H   0  0  0  0  0  0  0  0  0  0  0  0
   59.8398   29.9096   50.8670 H   0  0  0  0  0  0  0  0  0  0  0  0
   57.6140   31.6262   51.9648 H   0  0  0  0  0  0  0  0  0  0  0  0
   59.3235   31.6187   52.4240 H   0  0  0  0  0  0  0  0  0  0  0  0
   58.1229   33.5590   50.8015 H   0  0  0  0  0  0  0  0  0  0  0  0
   59.8617   33.2324   50.7942 H   0  0  0  0  0  0  0  0  0  0  0  0
   59.1567   34.7538   46.9376 H   0  0  0  0  0  0  0  0  0  0  0  0
   59.1935   35.0148   48.7149 H   0  0  0  0  0  0  0  0  0  0  0  0
   61.0454   34.1216   50.0894 H   0  0  0  0  0  0  0  0  0  0  0  0
   63.4905   33.6270   50.1184 H   0  0  0  0  0  0  0  0  0  0  0  0
   64.7100   33.2107   47.9800 H   0  0  0  0  0  0  0  0  0  0  0  0
   63.4814   33.2809   45.8070 H   0  0  0  0  0  0  0  0  0  0  0  0
   61.0341   33.7656   45.7696 H   0  0  0  0  0  0  0  0  0  0  0  0
  1  2  2  0
  2  3  1  0
  3  4  1  0
  4  5  1  0
  5  6  1  0
  6  7  1  0
  7  8  2  0
  8  9  1  0
  9 10  2  0
  9 11  1  0
 11 12  1  0
 12 13  2  0
  2 14  1  0
 14 15  1  0
 15 16  1  0
 16 17  1  0
 17 18  1  0
 18 19  1  0
 19 20  2  0
 19 21  1  0
 21 22  1  0
 22 23  2  0
 23 24  1  0
 24 25  2  0
 25 26  1  0
 26 27  2  0
 12  6  1  0
 18 14  1  0
 27 22  1  0
  3 28  1  0
  4 29  1  0
  4 30  1  0
  5 31  1  0
  5 32  1  0
  7 33  1  0
  8 34  1  0
 14 35  1  6
 15 36  1  0
 15 37  1  0
 16 38  1  0
 16 39  1  0
 17 40  1  0
 17 41  1  0
 21 42  1  0
 21 43  1  0
 23 44  1  0
 24 45  1  0
 25 46  1  0
 26 47  1  0
 27 48  1  0
M  CHG  1  11  -1
M  END
>  <UniqueID>  (44) 
41

>  <SMILES>  (44) 
O=C(NCCn1ccc(=O)[n-]c1=O)[C@H]1CCCN1C(=O)Cc1ccccc1

>  <Energy>  (44) 
45.17787786246727

>  <Genealogy>  (44) 
O=C(NCCn1ccc(=O)[n-]c1=O)C1CCCN1C(=O)Cc1ccccc1 (protonated)
O=C(NCCn1ccc(=O)[n-]c1=O)[C@H]1CCCN1C(=O)Cc1ccccc1 (chirality)
O=C(NCCn1ccc(=O)[n-]c1=O)[C@H]1CCCN1C(=O)Cc1ccccc1 (3D coordinates assigned)
O=C(NCCn1ccc(=O)[n-]c1=O)[C@H]1CCCN1C(=O)Cc1ccccc1 (nonaromatic ring conformer: 45.17787786246727 kcal/mol)

>  <smiles>  (44) 
O=C(NCCn1ccc(=O)[nH]c1=O)C1CCCN1C(=O)Cc1ccccc1

>  <score_type>  (44) 
oracle

>  <origin>  (44) 
adg

>  <m_score__min__energy>  (44) 
-9.9000000000000004

>  <m_primary>  (44) 
energy

$$$$
44:0
     RDKit          3D

 58 62  0  0  0  0  0  0  0  0999 V2000
   62.2590   28.1870   51.2620 C   0  0  0  0  0  0  0  0  0  0  0  0
   61.2330   28.9450   50.5390 N   0  0  0  0  0  0  0  0  0  0  0  0
   60.4670   28.5220   49.5040 C   0  0  0  0  0  0  0  0  0  0  0  0
   60.4770   27.2560   48.9020 C   0  0  0  0  0  0  0  0  0  0  0  0
   59.6420   27.0320   47.8000 C   0  0  0  0  0  0  0  0  0  0  0  0
   58.8310   28.0670   47.2990 C   0  0  0  0  0  0  0  0  0  0  0  0
   57.7360   27.7520   45.7640 Br  0  0  0  0  0  0  0  0  0  0  0  0
   58.8370   29.3350   47.9020 C   0  0  0  0  0  0  0  0  0  0  0  0
   59.6500   29.5390   49.0300 C   0  0  0  0  0  0  0  0  0  0  0  0
   59.9290   30.6520   49.8310 C   0  0  0  0  0  0  0  0  0  0  0  0
   60.9140   30.2530   50.7060 C   0  0  0  0  0  0  0  0  0  0  0  0
   61.4920   31.1810   51.5690 C   0  0  0  0  0  0  0  0  0  0  0  0
   62.4290   30.8390   52.3410 O   0  0  0  0  0  0  0  0  0  0  0  0
   61.0420   32.4770   51.5460 N   0  0  0  0  0  0  0  0  0  0  0  0
   61.7150   33.4950   52.3820 C   0  0  0  0  0  0  0  0  0  0  0  0
   63.0520   33.9290   51.7630 C   0  0  0  0  0  0  0  0  0  0  0  0
   63.1620   33.5050   50.3200 C   0  0  0  0  0  0  0  0  0  0  0  0
   63.9630   32.4080   49.9640 C   0  0  0  0  0  0  0  0  0  0  0  0
   64.1030   32.0440   48.6210 C   0  0  0  0  0  0  0  0  0  0  0  0
   63.4520   32.7770   47.6260 C   0  0  0  0  0  0  0  0  0  0  0  0
   62.6650   33.8800   47.9700 C   0  0  0  0  0  0  0  0  0  0  0  0
   62.5180   34.2430   49.3120 C   0  0  0  0  0  0  0  0  0  0  0  0
   60.0160   32.8460   50.6960 C   0  0  0  0  0  0  0  0  0  0  0  0
   59.6180   34.0460   50.6870 O   0  0  0  0  0  0  0  0  0  0  0  0
   59.4290   31.9300   49.8460 N   0  0  0  0  0  0  0  0  0  0  0  0
   58.3070   32.3610   48.9940 C   0  0  0  0  0  0  0  0  0  0  0  0
   58.7570   32.5140   47.5680 C   0  0  0  0  0  0  0  0  0  0  0  0
   59.8630   33.0640   47.3150 O   0  0  0  0  0  0  0  0  0  0  0  0
   57.9310   32.0410   46.4950 N   0  0  0  0  0  0  0  0  0  0  0  0
   58.3350   32.1950   45.0990 C   0  0  0  0  0  0  0  0  0  0  0  0
   57.4930   31.3380   44.2070 C   0  0  0  0  0  0  0  0  0  0  0  0
   57.6050   31.2490   42.8340 C   0  0  0  0  0  0  0  0  0  0  0  0
   56.6250   30.3640   42.4400 C   0  0  0  0  0  0  0  0  0  0  0  0
   55.9760   29.9720   43.5940 C   0  0  0  0  0  0  0  0  0  0  0  0
   56.5150   30.5710   44.6300 O   0  0  0  0  0  0  0  0  0  0  0  0
   62.1043   28.3013   52.3450 H   0  0  0  0  0  0  0  0  0  0  0  0
   62.1875   27.1231   50.9917 H   0  0  0  0  0  0  0  0  0  0  0  0
   63.2549   28.5679   50.9917 H   0  0  0  0  0  0  0  0  0  0  0  0
   61.1265   26.4559   49.2867 H   0  0  0  0  0  0  0  0  0  0  0  0
   59.6201   26.0409   47.3233 H   0  0  0  0  0  0  0  0  0  0  0  0
   58.2186   30.1512   47.5001 H   0  0  0  0  0  0  0  0  0  0  0  0
   61.0600   34.3740   52.4732 H   0  0  0  0  0  0  0  0  0  0  0  0
   61.9158   33.0557   53.3703 H   0  0  0  0  0  0  0  0  0  0  0  0
   63.1322   35.0246   51.8198 H   0  0  0  0  0  0  0  0  0  0  0  0
   63.8637   33.4447   52.3256 H   0  0  0  0  0  0  0  0  0  0  0  0
   64.4824   31.8327   50.7445 H   0  0  0  0  0  0  0  0  0  0  0  0
   64.7263   31.1797   48.3480 H   0  0  0  0  0  0  0  0  0  0  0  0
   63.5587   32.4860   46.5706 H   0  0  0  0  0  0  0  0  0  0  0  0
   62.1613   34.4624   47.1845 H   0  0  0  0  0  0  0  0  0  0  0  0
   61.8959   35.1096   49.5801 H   0  0  0  0  0  0  0  0  0  0  0  0
   57.5062   31.6084   49.0421 H   0  0  0  0  0  0  0  0  0  0  0  0
   57.9376   33.3317   49.3565 H   0  0  0  0  0  0  0  0  0  0  0  0
   57.0180   31.5840   46.7240 H   0  0  0  0  0  0  0  0  0  0  0  0
   58.2181   33.2481   44.8033 H   0  0  0  0  0  0  0  0  0  0  0  0
   59.3856   31.8847   44.9986 H   0  0  0  0  0  0  0  0  0  0  0  0
   58.3254   31.7743   42.1897 H   0  0  0  0  0  0  0  0  0  0  0  0
   56.4043   30.0361   41.4135 H   0  0  0  0  0  0  0  0  0  0  0  0
   55.1346   29.2648   43.6383 H   0  0  0  0  0  0  0  0  0  0  0  0
  1  2  1  0
  2  3  1  0
  3  4  2  0
  4  5  1  0
  5  6  2  0
  6  7  1  0
  6  8  1  0
  8  9  2  0
  9 10  1  0
 10 11  2  0
 11 12  1  0
 12 13  2  0
 12 14  1  0
 14 15  1  0
 15 16  1  0
 16 17  1  0
 17 18  2  0
 18 19  1  0
 19 20  2  0
 20 21  1  0
 21 22  2  0
 14 23  1  0
 23 24  2  0
 23 25  1  0
 25 26  1  0
 26 27  1  0
 27 28  2  0
 27 29  1  0
 29 30  1  0
 30 31  1  0
 31 32  2  0
 32 33  1  0
 33 34  2  0
 34 35  1  0
 11  2  1  0
 22 17  1  0
 35 31  1  0
  9  3  1  0
 25 10  1  0
  1 36  1  0
  1 37  1  0
  1 38  1  0
  4 39  1  0
  5 40  1  0
  8 41  1  0
 15 42  1  0
 15 43  1  0
 16 44  1  0
 16 45  1  0
 18 46  1  0
 19 47  1  0
 20 48  1  0
 21 49  1  0
 22 50  1  0
 26 51  1  0
 26 52  1  0
 29 53  1  0
 30 54  1  0
 30 55  1  0
 32 56  1  0
 33 57  1  0
 34 58  1  0
M  END
>  <UniqueID>  (45) 
42

>  <SMILES>  (45) 
Cn1c2ccc(Br)cc2c2c1c(=O)n(CCc1ccccc1)c(=O)n2CC(=O)NCc1ccco1

>  <Energy>  (45) 
136.3310549668662

>  <Genealogy>  (45) 
Cn1c2ccc(Br)cc2c2c1c(=O)n(CCc1ccccc1)c(=O)n2CC(=O)NCc1ccco1 (3D coordinates assigned)
Cn1c2ccc(Br)cc2c2c1c(=O)n(CCc1ccccc1)c(=O)n2CC(=O)NCc1ccco1 (optimized conformer: 136.3310549668662 kcal/mol)

>  <smiles>  (45) 
Cn1c2ccc(Br)cc2c2c1c(=O)n(CCc1ccccc1)c(=O)n2CC(=O)NCc1ccco1

>  <score_type>  (45) 
oracle

>  <origin>  (45) 
adg

>  <m_score__min__energy>  (45) 
-9.1999999999999993

>  <m_primary>  (45) 
energy

$$$$
45:0
     RDKit          3D

 53 55  0  0  0  0  0  0  0  0999 V2000
   63.7030   32.0620   51.1720 C   0  0  0  0  0  0  0  0  0  0  0  0
   62.9240   31.3430   50.1670 N   0  0  0  0  0  0  0  0  0  0  0  0
   62.8170   31.5990   48.8420 C   0  0  0  0  0  0  0  0  0  0  0  0
   63.5370   32.6970   48.1170 C   0  0  0  0  0  0  0  0  0  0  0  0
   62.5820   33.4840   47.2700 C   0  0  0  0  0  0  0  0  0  0  0  0
   63.0330   34.2260   46.3570 O   0  0  0  0  0  0  0  0  0  0  0  0
   61.1670   33.3790   47.4880 N   0  0  0  0  0  0  0  0  0  0  0  0
   60.1820   34.1310   46.7150 C   0  0  0  0  0  0  0  0  0  0  0  0
   59.2000   33.1830   46.0880 C   0  0  0  0  0  0  0  0  0  0  0  0
   58.0200   33.6700   45.5130 C   0  0  0  0  0  0  0  0  0  0  0  0
   57.1240   32.7960   44.8990 C   0  0  0  0  0  0  0  0  0  0  0  0
   57.3970   31.4250   44.8400 C   0  0  0  0  0  0  0  0  0  0  0  0
   56.2210   30.3810   44.0470 Cl  0  0  0  0  0  0  0  0  0  0  0  0
   58.5910   30.9160   45.4010 C   0  0  0  0  0  0  0  0  0  0  0  0
   58.9040   29.4360   45.3380 C   0  0  0  0  0  0  0  0  0  0  0  0
   60.1620   29.2050   45.8660 F   0  0  0  0  0  0  0  0  0  0  0  0
   58.8860   28.9590   44.0380 F   0  0  0  0  0  0  0  0  0  0  0  0
   57.9670   28.7300   46.0700 F   0  0  0  0  0  0  0  0  0  0  0  0
   59.4890   31.8120   46.0150 C   0  0  0  0  0  0  0  0  0  0  0  0
   61.8790   30.8210   48.2560 N   0  0  0  0  0  0  0  0  0  0  0  0
   61.3890   30.0510   49.2160 N   0  0  0  0  0  0  0  0  0  0  0  0
   60.2740   29.1270   49.0390 C   0  0  0  0  0  0  0  0  0  0  0  0
   59.0210   29.8950   48.6120 C   0  0  0  0  0  0  0  0  0  0  0  0
   59.1970   31.2980   48.8140 O   0  0  0  0  0  0  0  0  0  0  0  0
   58.9650   31.9830   50.0180 C   0  0  0  0  0  0  0  0  0  0  0  0
   59.5390   33.2370   50.3050 C   0  0  0  0  0  0  0  0  0  0  0  0
   59.2680   33.8750   51.5190 C   0  0  0  0  0  0  0  0  0  0  0  0
   58.4250   33.2730   52.4560 C   0  0  0  0  0  0  0  0  0  0  0  0
   57.8500   32.0270   52.1810 C   0  0  0  0  0  0  0  0  0  0  0  0
   56.9870   31.4030   53.1490 C   0  0  0  0  0  0  0  0  0  0  0  0
   56.2930   30.8990   53.9260 N   0  0  0  0  0  0  0  0  0  0  0  0
   58.1190   31.3880   50.9640 C   0  0  0  0  0  0  0  0  0  0  0  0
   61.9990   30.3880   50.3670 C   0  0  0  0  0  0  0  0  0  0  0  0
   61.7170   29.8940   51.4930 O   0  0  0  0  0  0  0  0  0  0  0  0
   63.3742   31.7585   52.1769 H   0  0  0  0  0  0  0  0  0  0  0  0
   64.7699   31.8245   51.0480 H   0  0  0  0  0  0  0  0  0  0  0  0
   63.5515   33.1444   51.0480 H   0  0  0  0  0  0  0  0  0  0  0  0
   64.0065   33.3680   48.8514 H   0  0  0  0  0  0  0  0  0  0  0  0
   64.3030   32.2499   47.4663 H   0  0  0  0  0  0  0  0  0  0  0  0
   60.8150   32.6950   48.1970 H   0  0  0  0  0  0  0  0  0  0  0  0
   59.6470   34.8245   47.3804 H   0  0  0  0  0  0  0  0  0  0  0  0
   60.6952   34.6991   45.9252 H   0  0  0  0  0  0  0  0  0  0  0  0
   57.7989   34.7470   45.5458 H   0  0  0  0  0  0  0  0  0  0  0  0
   56.1955   33.1872   44.4576 H   0  0  0  0  0  0  0  0  0  0  0  0
   60.4285   31.4316   46.4424 H   0  0  0  0  0  0  0  0  0  0  0  0
   60.5312   28.3898   48.2642 H   0  0  0  0  0  0  0  0  0  0  0  0
   60.0758   28.6133   49.9913 H   0  0  0  0  0  0  0  0  0  0  0  0
   58.8264   29.7050   47.5461 H   0  0  0  0  0  0  0  0  0  0  0  0
   58.1713   29.5533   49.2212 H   0  0  0  0  0  0  0  0  0  0  0  0
   60.2033   33.7162   49.5708 H   0  0  0  0  0  0  0  0  0  0  0  0
   59.7199   34.8539   51.7370 H   0  0  0  0  0  0  0  0  0  0  0  0
   58.2131   33.7781   53.4099 H   0  0  0  0  0  0  0  0  0  0  0  0
   57.6624   30.4107   50.7487 H   0  0  0  0  0  0  0  0  0  0  0  0
  1  2  1  0
  2  3  1  0
  3  4  1  0
  4  5  1  0
  5  6  2  0
  5  7  1  0
  7  8  1  0
  8  9  1  0
  9 10  2  0
 10 11  1  0
 11 12  2  0
 12 13  1  0
 12 14  1  0
 14 15  1  0
 15 16  1  0
 15 17  1  0
 15 18  1  0
 14 19  2  0
  3 20  2  0
 20 21  1  0
 21 22  1  0
 22 23  1  0
 23 24  1  0
 24 25  1  0
 25 26  2  0
 26 27  1  0
 27 28  2  0
 28 29  1  0
 29 30  1  0
 30 31  3  0
 29 32  2  0
 21 33  1  0
 33 34  2  0
 33  2  1  0
 19  9  1  0
 32 25  1  0
  1 35  1  0
  1 36  1  0
  1 37  1  0
  4 38  1  0
  4 39  1  0
  7 40  1  0
  8 41  1  0
  8 42  1  0
 10 43  1  0
 11 44  1  0
 19 45  1  0
 22 46  1  0
 22 47  1  0
 23 48  1  0
 23 49  1  0
 26 50  1  0
 27 51  1  0
 28 52  1  0
 32 53  1  0
M  END
>  <UniqueID>  (46) 
43

>  <SMILES>  (46) 
Cn1c(CC(=O)NCc2ccc(Cl)c(C(F)(F)F)c2)nn(CCOc2cccc(C#N)c2)c1=O

>  <Energy>  (46) 
86.6217964176122

>  <Genealogy>  (46) 
Cn1c(CC(=O)NCc2ccc(Cl)c(C(F)(F)F)c2)nn(CCOc2cccc(C#N)c2)c1=O (3D coordinates assigned)
Cn1c(CC(=O)NCc2ccc(Cl)c(C(F)(F)F)c2)nn(CCOc2cccc(C#N)c2)c1=O (optimized conformer: 86.6217964176122 kcal/mol)

>  <smiles>  (46) 
Cn1c(CC(=O)NCc2ccc(Cl)c(C(F)(F)F)c2)nn(CCOc2cccc(C#N)c2)c1=O

>  <score_type>  (46) 
oracle

>  <origin>  (46) 
adg

>  <m_score__min__energy>  (46) 
-8.0899999999999999

>  <m_primary>  (46) 
energy

$$$$
46:0
     RDKit          3D

 67 71  0  0  0  0  0  0  0  0999 V2000
   59.3550   22.5240   45.6360 O   0  0  0  0  0  0  0  0  0  0  0  0
   58.8170   23.6480   45.4560 C   0  0  0  0  0  0  0  0  0  0  0  0
   57.7460   23.8250   44.4210 C   0  0  0  0  0  0  0  0  0  0  0  0
   57.7860   25.2400   43.8270 C   0  0  0  0  0  0  0  0  0  0  0  0
   57.8950   26.3040   44.8930 C   0  0  0  0  0  0  0  0  0  0  0  0
   57.3830   27.5920   44.6660 C   0  0  0  0  0  0  0  0  0  0  0  0
   57.5460   28.6020   45.6250 C   0  0  0  0  0  0  0  0  0  0  0  0
   57.0580   29.9200   45.3430 N   0  0  0  0  0  0  0  0  0  0  0  0
   57.7740   30.8440   44.5120 C   0  0  0  0  0  0  0  0  0  0  0  0
   58.7980   30.4630   43.8790 O   0  0  0  0  0  0  0  0  0  0  0  0
   57.2430   32.2380   44.3280 C   0  0  0  0  0  0  0  0  0  0  0  0
   58.0160   33.2460   45.1400 C   0  0  0  0  0  0  0  0  0  0  0  0
   58.8270   34.2010   44.5020 C   0  0  0  0  0  0  0  0  0  0  0  0
   59.5170   35.1550   45.2540 C   0  0  0  0  0  0  0  0  0  0  0  0
   59.3950   35.1680   46.6490 C   0  0  0  0  0  0  0  0  0  0  0  0
   58.5790   34.2290   47.2890 C   0  0  0  0  0  0  0  0  0  0  0  0
   57.8900   33.2720   46.5390 C   0  0  0  0  0  0  0  0  0  0  0  0
   58.1940   28.3060   46.8460 C   0  0  0  0  0  0  0  0  0  0  0  0
   58.2760   29.2430   47.8850 O   0  0  0  0  0  0  0  0  0  0  0  0
   59.4380   29.5060   48.6330 C   0  0  0  0  0  0  0  0  0  0  0  0
   59.6360   28.9950   49.9310 C   0  0  0  0  0  0  0  0  0  0  0  0
   60.8280   29.2420   50.6120 C   0  0  0  0  0  0  0  0  0  0  0  0
   61.8450   29.9780   50.0010 C   0  0  0  0  0  0  0  0  0  0  0  0
   61.6610   30.5020   48.7070 C   0  0  0  0  0  0  0  0  0  0  0  0
   62.6920   31.2230   48.0190 N   0  0  0  0  0  0  0  0  0  0  0  0
   62.5970   32.8760   47.5040 S   0  0  0  0  0  0  0  0  0  0  0  0
   61.3460   33.0430   46.6860 O   0  0  0  0  0  0  0  0  0  0  0  0
   63.7860   33.2030   46.6430 O   0  0  0  0  0  0  0  0  0  0  0  0
   62.5310   33.9660   48.9260 C   0  0  0  0  0  0  0  0  0  0  0  0
   61.0990   34.4050   49.2610 C   0  0  0  0  0  0  0  0  0  0  0  0
   60.4580   33.5200   50.3000 C   0  0  0  0  0  0  0  0  0  0  0  0
   61.1220   33.2410   51.5080 C   0  0  0  0  0  0  0  0  0  0  0  0
   60.5400   32.3890   52.4530 C   0  0  0  0  0  0  0  0  0  0  0  0
   59.2860   31.8240   52.2070 C   0  0  0  0  0  0  0  0  0  0  0  0
   58.6160   32.0990   51.0110 C   0  0  0  0  0  0  0  0  0  0  0  0
   59.2000   32.9410   50.0570 C   0  0  0  0  0  0  0  0  0  0  0  0
   60.4510   30.2700   48.0410 C   0  0  0  0  0  0  0  0  0  0  0  0
   58.7630   27.0430   47.0410 C   0  0  0  0  0  0  0  0  0  0  0  0
   58.6170   26.0450   46.0730 C   0  0  0  0  0  0  0  0  0  0  0  0
   59.1630   24.7430   46.3070 N   0  0  0  0  0  0  0  0  0  0  0  0
   57.8992   23.0919   43.6154 H   0  0  0  0  0  0  0  0  0  0  0  0
   56.7671   23.6722   44.8989 H   0  0  0  0  0  0  0  0  0  0  0  0
   58.6555   25.3187   43.1579 H   0  0  0  0  0  0  0  0  0  0  0  0
   56.8447   25.4038   43.2818 H   0  0  0  0  0  0  0  0  0  0  0  0
   56.8501   27.8101   43.7288 H   0  0  0  0  0  0  0  0  0  0  0  0
   56.0740   30.1510   45.6050 H   0  0  0  0  0  0  0  0  0  0  0  0
   57.3146   32.5082   43.2641 H   0  0  0  0  0  0  0  0  0  0  0  0
   56.1981   32.2528   44.6715 H   0  0  0  0  0  0  0  0  0  0  0  0
   58.9186   34.1970   43.4058 H   0  0  0  0  0  0  0  0  0  0  0  0
   60.1558   35.8956   44.7506 H   0  0  0  0  0  0  0  0  0  0  0  0
   59.9409   35.9167   47.2417 H   0  0  0  0  0  0  0  0  0  0  0  0
   58.4795   34.2440   48.3844 H   0  0  0  0  0  0  0  0  0  0  0  0
   57.2472   32.5370   47.0455 H   0  0  0  0  0  0  0  0  0  0  0  0
   58.8461   28.3979   50.4101 H   0  0  0  0  0  0  0  0  0  0  0  0
   60.9671   28.8561   51.6326 H   0  0  0  0  0  0  0  0  0  0  0  0
   62.7930   30.1491   50.5321 H   0  0  0  0  0  0  0  0  0  0  0  0
   62.9512   33.4386   49.7951 H   0  0  0  0  0  0  0  0  0  0  0  0
   63.1104   34.8690   48.6835 H   0  0  0  0  0  0  0  0  0  0  0  0
   61.1252   35.4365   49.6422 H   0  0  0  0  0  0  0  0  0  0  0  0
   60.5005   34.3321   48.3410 H   0  0  0  0  0  0  0  0  0  0  0  0
   62.1034   33.6947   51.7108 H   0  0  0  0  0  0  0  0  0  0  0  0
   61.0700   32.1638   53.3902 H   0  0  0  0  0  0  0  0  0  0  0  0
   58.8253   31.1621   52.9551 H   0  0  0  0  0  0  0  0  0  0  0  0
   57.6288   31.6532   50.8194 H   0  0  0  0  0  0  0  0  0  0  0  0
   58.6730   33.1502   49.1144 H   0  0  0  0  0  0  0  0  0  0  0  0
   60.2942   30.6942   47.0383 H   0  0  0  0  0  0  0  0  0  0  0  0
   59.3284   26.8340   47.9611 H   0  0  0  0  0  0  0  0  0  0  0  0
  1  2  2  0
  2  3  1  0
  3  4  1  0
  4  5  1  0
  5  6  2  0
  6  7  1  0
  7  8  1  0
  8  9  1  0
  9 10  2  0
  9 11  1  0
 11 12  1  0
 12 13  2  0
 13 14  1  0
 14 15  2  0
 15 16  1  0
 16 17  2  0
  7 18  2  0
 18 19  1  0
 19 20  1  0
 20 21  2  0
 21 22  1  0
 22 23  2  0
 23 24  1  0
 24 25  1  0
 25 26  1  0
 26 27  2  0
 26 28  2  0
 26 29  1  0
 29 30  1  0
 30 31  1  0
 31 32  2  0
 32 33  1  0
 33 34  2  0
 34 35  1  0
 35 36  2  0
 24 37  2  0
 18 38  1  0
 38 39  2  0
 39 40  1  0
 40  2  1  0
 39  5  1  0
 17 12  1  0
 37 20  1  0
 36 31  1  0
  3 41  1  0
  3 42  1  0
  4 43  1  0
  4 44  1  0
  6 45  1  0
  8 46  1  0
 11 47  1  0
 11 48  1  0
 13 49  1  0
 14 50  1  0
 15 51  1  0
 16 52  1  0
 17 53  1  0
 21 54  1  0
 22 55  1  0
 23 56  1  0
 29 57  1  0
 29 58  1  0
 30 59  1  0
 30 60  1  0
 32 61  1  0
 33 62  1  0
 34 63  1  0
 35 64  1  0
 36 65  1  0
 37 66  1  0
 38 67  1  0
M  CHG  2  25  -1  40  -1
M  END
>  <UniqueID>  (47) 
44

>  <SMILES>  (47) 
O=C1CCc2cc(NC(=O)Cc3ccccc3)c(Oc3cccc([N-]S(=O)(=O)CCc4ccccc4)c3)cc2[N-]1

>  <Energy>  (47) 
79.74599669404775

>  <Genealogy>  (47) 
O=C1CCc2cc(NC(=O)Cc3ccccc3)c(Oc3cccc([N-]S(=O)(=O)CCc4ccccc4)c3)cc2[N-]1 (protonated)
O=C1CCc2cc(NC(=O)Cc3ccccc3)c(Oc3cccc([N-]S(=O)(=O)CCc4ccccc4)c3)cc2[N-]1 (3D coordinates assigned)
O=C1CCc2cc(NC(=O)Cc3ccccc3)c(Oc3cccc([N-]S(=O)(=O)CCc4ccccc4)c3)cc2[N-]1 (nonaromatic ring conformer: 79.74599669404775 kcal/mol)

>  <smiles>  (47) 
O=C1CCc2cc(NC(=O)Cc3ccccc3)c(Oc3cccc(NS(=O)(=O)CCc4ccccc4)c3)cc2N1

>  <score_type>  (47) 
oracle

>  <origin>  (47) 
adg

>  <m_score__min__energy>  (47) 
-13.119999999999999

>  <m_primary>  (47) 
energy

$$$$
47:0
     RDKit          3D

 85 90  0  0  0  0  0  0  0  0999 V2000
   57.0620   32.1660   52.6980 C   0  0  0  0  0  0  0  0  0  0  0  0
   57.4390   31.2970   51.5490 C   0  0  0  0  0  0  0  0  0  0  0  0
   57.0670   30.0910   51.5270 O   0  0  0  0  0  0  0  0  0  0  0  0
   58.1560   31.8460   50.4820 O   0  0  0  0  0  0  0  0  0  0  0  0
   59.5680   31.6990   50.3170 C   0  0  2  0  0  0  0  0  0  0  0  0
   59.9700   31.0700   48.9670 C   0  0  2  0  0  0  0  0  0  0  0  0
   58.8100   30.7540   48.0000 C   0  0  0  0  0  0  0  0  0  0  0  0
   58.5210   29.3170   47.9250 N   0  0  0  0  0  0  0  0  0  0  0  0
   58.4080   28.7230   46.2900 S   0  0  0  0  0  0  0  0  0  0  0  0
   59.5950   29.1470   45.4650 O   0  0  0  0  0  0  0  0  0  0  0  0
   57.1580   29.2640   45.6580 O   0  0  0  0  0  0  0  0  0  0  0  0
   58.3080   26.9670   46.3290 C   0  0  0  0  0  0  0  0  0  0  0  0
   57.1180   26.3470   46.7250 C   0  0  0  0  0  0  0  0  0  0  0  0
   57.0290   24.9540   46.7700 C   0  0  0  0  0  0  0  0  0  0  0  0
   58.1280   24.1570   46.3890 C   0  0  0  0  0  0  0  0  0  0  0  0
   58.0840   22.7520   46.3770 O   0  0  0  0  0  0  0  0  0  0  0  0
   57.6000   21.9280   45.3130 C   0  0  0  0  0  0  0  0  0  0  0  0
   57.7320   22.6230   43.9510 C   0  0  0  0  0  0  0  0  0  0  0  0
   56.7880   23.8220   43.7940 C   0  0  0  0  0  0  0  0  0  0  0  0
   55.3200   23.3940   43.6850 C   0  0  0  0  0  0  0  0  0  0  0  0
   54.7550   23.0940   45.0040 N   0  0  0  0  0  0  0  0  0  0  0  0
   54.6110   21.8780   45.5680 C   0  0  0  0  0  0  0  0  0  0  0  0
   55.0090   20.6890   44.9680 O   0  0  0  0  0  0  0  0  0  0  0  0
   54.0190   21.9750   46.8100 C   0  0  0  0  0  0  0  0  0  0  0  0
   53.7820   23.3240   47.0170 C   0  0  0  0  0  0  0  0  0  0  0  0
   54.2460   23.9720   45.8890 C   0  0  0  0  0  0  0  0  0  0  0  0
   54.1980   25.3460   45.6860 O   0  0  0  0  0  0  0  0  0  0  0  0
   59.3200   24.7860   46.0000 C   0  0  0  0  0  0  0  0  0  0  0  0
   60.4220   24.0200   45.6350 O   0  0  0  0  0  0  0  0  0  0  0  0
   59.4090   26.1820   45.9680 C   0  0  0  0  0  0  0  0  0  0  0  0
   60.7370   29.9050   49.1950 O   0  0  0  0  0  0  0  0  0  0  0  0
   61.0920   29.8740   50.5590 C   0  0  1  0  0  0  0  0  0  0  0  0
   62.4810   30.3180   50.7330 N   0  0  0  0  0  0  0  0  0  0  0  0
   63.4510   29.7990   51.5350 C   0  0  0  0  0  0  0  0  0  0  0  0
   64.6510   30.4310   51.4170 N   0  0  0  0  0  0  0  0  0  0  0  0
   64.3960   31.3740   50.4920 C   0  0  0  0  0  0  0  0  0  0  0  0
   65.2460   32.3150   49.9380 C   0  0  0  0  0  0  0  0  0  0  0  0
   66.4500   32.4030   50.2960 O   0  0  0  0  0  0  0  0  0  0  0  0
   64.7390   33.1500   48.9850 N   0  0  0  0  0  0  0  0  0  0  0  0
   63.4280   33.0630   48.5730 C   0  0  0  0  0  0  0  0  0  0  0  0
   62.9540   33.8740   47.6720 N   0  0  0  0  0  0  0  0  0  0  0  0
   61.5690   34.0520   47.3320 C   0  0  0  0  0  0  0  0  0  0  0  0
   61.0930   33.8330   46.0230 C   0  0  0  0  0  0  0  0  0  0  0  0
   59.7330   33.9860   45.7340 C   0  0  0  0  0  0  0  0  0  0  0  0
   58.8370   34.3410   46.7450 C   0  0  0  0  0  0  0  0  0  0  0  0
   59.2960   34.5270   48.0530 C   0  0  0  0  0  0  0  0  0  0  0  0
   60.6560   34.3730   48.3460 C   0  0  0  0  0  0  0  0  0  0  0  0
   62.5980   32.1320   49.1360 N   0  0  0  0  0  0  0  0  0  0  0  0
   63.1090   31.3090   50.0860 C   0  0  0  0  0  0  0  0  0  0  0  0
   60.1030   30.7300   51.3440 C   0  0  1  0  0  0  0  0  0  0  0  0
   60.7330   31.4040   52.4350 O   0  0  0  0  0  0  0  0  0  0  0  0
   60.8440   32.7940   52.5250 C   0  0  0  0  0  0  0  0  0  0  0  0
   62.1750   33.4310   52.3260 C   0  0  0  0  0  0  0  0  0  0  0  0
   59.8460   33.5050   52.8210 O   0  0  0  0  0  0  0  0  0  0  0  0
   57.2877   31.6459   53.6406 H   0  0  0  0  0  0  0  0  0  0  0  0
   57.6339   33.1045   52.6511 H   0  0  0  0  0  0  0  0  0  0  0  0
   55.9860   32.3896   52.6511 H   0  0  0  0  0  0  0  0  0  0  0  0
   59.9701   32.7193   50.4027 H   0  0  0  0  0  0  0  0  0  0  0  0
   60.5571   31.8466   48.4549 H   0  0  0  0  0  0  0  0  0  0  0  0
   57.9075   31.2784   48.3473 H   0  0  0  0  0  0  0  0  0  0  0  0
   59.1091   31.0892   46.9959 H   0  0  0  0  0  0  0  0  0  0  0  0
   56.2478   26.9600   47.0024 H   0  0  0  0  0  0  0  0  0  0  0  0
   56.0965   24.4760   47.1045 H   0  0  0  0  0  0  0  0  0  0  0  0
   58.1799   20.9935   45.2939 H   0  0  0  0  0  0  0  0  0  0  0  0
   56.5336   21.7269   45.4932 H   0  0  0  0  0  0  0  0  0  0  0  0
   58.7677   22.9754   43.8366 H   0  0  0  0  0  0  0  0  0  0  0  0
   57.4599   21.8877   43.1795 H   0  0  0  0  0  0  0  0  0  0  0  0
   56.9013   24.4788   44.6691 H   0  0  0  0  0  0  0  0  0  0  0  0
   57.0572   24.3437   42.8638 H   0  0  0  0  0  0  0  0  0  0  0  0
   54.7422   24.2087   43.2242 H   0  0  0  0  0  0  0  0  0  0  0  0
   55.2677   22.4842   43.0690 H   0  0  0  0  0  0  0  0  0  0  0  0
   53.7830   21.1488   47.4968 H   0  0  0  0  0  0  0  0  0  0  0  0
   53.3181   23.7858   47.9010 H   0  0  0  0  0  0  0  0  0  0  0  0
   60.3478   26.6643   45.6580 H   0  0  0  0  0  0  0  0  0  0  0  0
   61.0390   28.8462   50.9472 H   0  0  0  0  0  0  0  0  0  0  0  0
   63.2813   28.9500   52.2136 H   0  0  0  0  0  0  0  0  0  0  0  0
   61.7933   33.5409   45.2266 H   0  0  0  0  0  0  0  0  0  0  0  0
   59.3684   33.8264   44.7085 H   0  0  0  0  0  0  0  0  0  0  0  0
   57.7702   34.4743   46.5124 H   0  0  0  0  0  0  0  0  0  0  0  0
   58.5882   34.7943   48.8515 H   0  0  0  0  0  0  0  0  0  0  0  0
   61.0107   34.5048   49.3789 H   0  0  0  0  0  0  0  0  0  0  0  0
   59.3069   30.1317   51.8111 H   0  0  0  0  0  0  0  0  0  0  0  0
   62.6278   33.6477   53.3048 H   0  0  0  0  0  0  0  0  0  0  0  0
   62.8280   32.7478   51.7631 H   0  0  0  0  0  0  0  0  0  0  0  0
   62.0525   34.3681   51.7631 H   0  0  0  0  0  0  0  0  0  0  0  0
  1  2  1  0
  2  3  2  0
  2  4  1  0
  4  5  1  0
  5  6  1  0
  6  7  1  0
  7  8  1  0
  8  9  1  0
  9 10  2  0
  9 11  2  0
  9 12  1  0
 12 13  2  0
 13 14  1  0
 14 15  2  0
 15 16  1  0
 16 17  1  0
 17 18  1  0
 18 19  1  0
 19 20  1  0
 20 21  1  0
 21 22  1  0
 22 23  1  0
 22 24  2  0
 24 25  1  0
 25 26  2  0
 26 27  1  0
 15 28  1  0
 28 29  1  0
 28 30  2  0
  6 31  1  0
 31 32  1  0
 32 33  1  0
 33 34  1  0
 34 35  2  0
 35 36  1  0
 36 37  1  0
 37 38  2  0
 37 39  1  0
 39 40  1  0
 40 41  2  3
 41 42  1  0
 42 43  2  0
 43 44  1  0
 44 45  2  0
 45 46  1  0
 46 47  2  0
 40 48  1  0
 48 49  1  0
 32 50  1  0
 50 51  1  0
 51 52  1  0
 52 53  1  0
 52 54  2  0
 50  5  1  0
 30 12  1  0
 49 33  1  0
 26 21  1  0
 49 36  2  0
 47 42  1  0
  1 55  1  0
  1 56  1  0
  1 57  1  0
  5 58  1  1
  6 59  1  6
  7 60  1  0
  7 61  1  0
 13 62  1  0
 14 63  1  0
 17 64  1  0
 17 65  1  0
 18 66  1  0
 18 67  1  0
 19 68  1  0
 19 69  1  0
 20 70  1  0
 20 71  1  0
 24 72  1  0
 25 73  1  0
 30 74  1  0
 32 75  1  1
 34 76  1  0
 43 77  1  0
 44 78  1  0
 45 79  1  0
 46 80  1  0
 47 81  1  0
 50 82  1  1
 53 83  1  0
 53 84  1  0
 53 85  1  0
M  CHG  6   8  -1  23  -1  27  -1  29  -1  39  -1  48  -1
M  END
>  <UniqueID>  (48) 
45

>  <SMILES>  (48) 
CC(=O)OC1C(n2cnc3c(=O)[n-]c(=Nc4ccccc4)[n-]c32)O[C@@H](C[N-]S(=O)(=O)c2ccc(OCCCCn3c([O-])ccc3[O-])c([O-])c2)[C@H]1OC(C)=O

>  <Energy>  (48) 
159.31682510404767

>  <Genealogy>  (48) 
CC(=O)OC1C(C[N-]S(=O)(=O)c2ccc(OCCCCn3c([O-])ccc3[O-])c([O-])c2)OC(n2cnc3c(=O)[n-]c(=Nc4ccccc4)[n-]c32)C1OC(C)=O (protonated)
CC(=O)OC1C(n2cnc3c(=O)[n-]c(=Nc4ccccc4)[n-]c32)O[C@@H](C[N-]S(=O)(=O)c2ccc(OCCCCn3c([O-])ccc3[O-])c([O-])c2)[C@H]1OC(C)=O (chirality)
CC(=O)OC1C(n2cnc3c(=O)[n-]c(=Nc4ccccc4)[n-]c32)O[C@@H](C[N-]S(=O)(=O)c2ccc(OCCCCn3c([O-])ccc3[O-])c([O-])c2)[C@H]1OC(C)=O (3D coordinates assigned)
CC(=O)OC1C(n2cnc3c(=O)[n-]c(=Nc4ccccc4)[n-]c32)O[C@@H](C[N-]S(=O)(=O)c2ccc(OCCCCn3c([O-])ccc3[O-])c([O-])c2)[C@H]1OC(C)=O (nonaromatic ring conformer: 159.31682510404767 kcal/mol)

>  <smiles>  (48) 
CC(=O)OC1C(CNS(=O)(=O)c2ccc(OCCCCn3c(O)ccc3O)c(O)c2)OC(n2cnc3c(=O)[nH]c(=Nc4ccccc4)[nH]c32)C1OC(C)=O

>  <score_type>  (48) 
oracle

>  <origin>  (48) 
adg

>  <m_score__min__energy>  (48) 
-19.960000000000001

>  <m_primary>  (48) 
energy

$$$$
48:0
     RDKit          3D

 31 32  0  0  0  0  0  0  0  0999 V2000
   54.8240   26.1010   45.9670 N   0  0  0  0  0  0  0  0  0  0  0  0
   56.0620   25.5460   46.4020 C   0  0  0  0  0  0  0  0  0  0  0  0
   56.1030   24.8460   47.4490 O   0  0  0  0  0  0  0  0  0  0  0  0
   57.3040   25.7620   45.5990 C   0  0  0  0  0  0  0  0  0  0  0  0
   58.2950   27.1250   46.2970 S   0  0  0  0  0  0  0  0  0  0  0  0
   57.2870   28.4270   45.5800 C   0  0  0  0  0  0  0  0  0  0  0  0
   55.9920   28.2590   45.2400 N   0  0  0  0  0  0  0  0  0  0  0  0
   55.5590   29.4190   44.7680 N   0  0  0  0  0  0  0  0  0  0  0  0
   56.5990   30.2680   44.8350 C   0  0  0  0  0  0  0  0  0  0  0  0
   56.5360   31.4760   44.4790 O   0  0  0  0  0  0  0  0  0  0  0  0
   57.7040   29.6860   45.3330 N   0  0  0  0  0  0  0  0  0  0  0  0
   58.9940   30.3090   45.6380 C   0  0  0  0  0  0  0  0  0  0  0  0
   58.9100   31.1630   46.9090 C   0  0  0  0  0  0  0  0  0  0  0  0
   59.1050   32.6250   46.6040 C   0  0  0  0  0  0  0  0  0  0  0  0
   58.8010   33.1280   45.3280 C   0  0  0  0  0  0  0  0  0  0  0  0
   59.0270   34.4750   45.0280 C   0  0  0  0  0  0  0  0  0  0  0  0
   59.5620   35.3270   46.0000 C   0  0  0  0  0  0  0  0  0  0  0  0
   59.8720   34.8340   47.2690 C   0  0  0  0  0  0  0  0  0  0  0  0
   59.6460   33.4870   47.5720 C   0  0  0  0  0  0  0  0  0  0  0  0
   54.7740   26.6960   45.1100 H   0  0  0  0  0  0  0  0  0  0  0  0
   57.9033   24.8396   45.6059 H   0  0  0  0  0  0  0  0  0  0  0  0
   57.0182   26.0240   44.5696 H   0  0  0  0  0  0  0  0  0  0  0  0
   59.7475   29.5210   45.7842 H   0  0  0  0  0  0  0  0  0  0  0  0
   59.2735   30.9613   44.7976 H   0  0  0  0  0  0  0  0  0  0  0  0
   57.9210   31.0225   47.3696 H   0  0  0  0  0  0  0  0  0  0  0  0
   59.7092   30.8431   47.5938 H   0  0  0  0  0  0  0  0  0  0  0  0
   58.3832   32.4591   44.5612 H   0  0  0  0  0  0  0  0  0  0  0  0
   58.7842   34.8644   44.0283 H   0  0  0  0  0  0  0  0  0  0  0  0
   59.7387   36.3868   45.7642 H   0  0  0  0  0  0  0  0  0  0  0  0
   60.2943   35.5053   48.0312 H   0  0  0  0  0  0  0  0  0  0  0  0
   59.8930   33.1015   48.5722 H   0  0  0  0  0  0  0  0  0  0  0  0
  1  2  1  0
  2  3  2  0
  2  4  1  0
  4  5  1  0
  5  6  1  0
  6  7  2  0
  7  8  1  0
  8  9  1  0
  9 10  2  0
  9 11  1  0
 11 12  1  0
 12 13  1  0
 13 14  1  0
 14 15  2  0
 15 16  1  0
 16 17  2  0
 17 18  1  0
 18 19  2  0
 11  6  1  0
 19 14  1  0
  1 20  1  0
  4 21  1  0
  4 22  1  0
 12 23  1  0
 12 24  1  0
 13 25  1  0
 13 26  1  0
 15 27  1  0
 16 28  1  0
 17 29  1  0
 18 30  1  0
 19 31  1  0
M  CHG  2   1  -1   8  -1
M  END
>  <UniqueID>  (49) 
46

>  <SMILES>  (49) 
[NH-]C(=O)CSc1n[n-]c(=O)n1CCc1ccccc1

>  <Energy>  (49) 
56.702359592501224

>  <Genealogy>  (49) 
[NH-]C(=O)CSc1n[n-]c(=O)n1CCc1ccccc1 (protonated)
[NH-]C(=O)CSc1n[n-]c(=O)n1CCc1ccccc1 (3D coordinates assigned)
[NH-]C(=O)CSc1n[n-]c(=O)n1CCc1ccccc1 (optimized conformer: 56.702359592501224 kcal/mol)

>  <smiles>  (49) 
NC(=O)CSc1n[nH]c(=O)n1CCc1ccccc1

>  <score_type>  (49) 
oracle

>  <origin>  (49) 
adg

>  <m_score__min__energy>  (49) 
-12.300000000000001

>  <m_primary>  (49) 
energy

$$$$
49:0
     RDKit          3D

 50 52  0  0  0  0  0  0  0  0999 V2000
   56.1140   30.6670   52.4020 C   0  0  0  0  0  0  0  0  0  0  0  0
   57.2530   30.9930   51.4960 C   0  0  0  0  0  0  0  0  0  0  0  0
   57.7600   32.2560   51.2580 C   0  0  0  0  0  0  0  0  0  0  0  0
   58.7440   32.0510   50.3110 C   0  0  0  0  0  0  0  0  0  0  0  0
   59.5990   33.1170   49.6980 C   0  0  0  0  0  0  0  0  0  0  0  0
   58.7870   30.7350   50.0050 N   0  0  0  0  0  0  0  0  0  0  0  0
   59.6910   30.0680   49.0670 C   0  0  0  0  0  0  0  0  0  0  0  0
   58.8980   29.4360   47.9120 C   0  0  1  0  0  0  0  0  0  0  0  0
   59.3320   30.0170   46.5380 C   0  0  0  0  0  0  0  0  0  0  0  0
   59.0550   29.0670   45.4460 N   0  0  0  0  0  0  0  0  0  0  0  0
   57.6020   28.9290   45.1970 C   0  0  0  0  0  0  0  0  0  0  0  0
   57.1030   30.1180   44.4320 C   0  0  0  0  0  0  0  0  0  0  0  0
   55.9000   30.4740   44.5620 O   0  0  0  0  0  0  0  0  0  0  0  0
   57.9980   30.8790   43.6090 N   0  0  0  0  0  0  0  0  0  0  0  0
   57.7590   32.2890   43.3140 C   0  0  0  0  0  0  0  0  0  0  0  0
   58.1170   33.1200   44.5150 C   0  0  0  0  0  0  0  0  0  0  0  0
   59.2480   33.9490   44.4930 C   0  0  0  0  0  0  0  0  0  0  0  0
   59.6130   34.6610   45.6340 C   0  0  0  0  0  0  0  0  0  0  0  0
   58.8480   34.5320   46.7950 C   0  0  0  0  0  0  0  0  0  0  0  0
   57.7610   33.7160   46.8080 N   0  0  0  0  0  0  0  0  0  0  0  0
   57.3840   33.0120   45.7070 C   0  0  0  0  0  0  0  0  0  0  0  0
   59.7180   27.7600   45.6850 C   0  0  0  0  0  0  0  0  0  0  0  0
   59.9960   27.4960   47.1770 C   0  0  0  0  0  0  0  0  0  0  0  0
   58.9560   28.0150   47.9800 O   0  0  0  0  0  0  0  0  0  0  0  0
   57.8800   30.0860   50.7210 N   0  0  0  0  0  0  0  0  0  0  0  0
   56.4397   30.7602   53.4485 H   0  0  0  0  0  0  0  0  0  0  0  0
   55.2840   31.3637   52.2128 H   0  0  0  0  0  0  0  0  0  0  0  0
   55.7783   29.6367   52.2128 H   0  0  0  0  0  0  0  0  0  0  0  0
   57.4509   33.2065   51.7173 H   0  0  0  0  0  0  0  0  0  0  0  0
   60.0739   33.7091   50.4942 H   0  0  0  0  0  0  0  0  0  0  0  0
   60.3762   32.6505   49.0748 H   0  0  0  0  0  0  0  0  0  0  0  0
   58.9749   33.7744   49.0748 H   0  0  0  0  0  0  0  0  0  0  0  0
   60.3983   30.8054   48.6596 H   0  0  0  0  0  0  0  0  0  0  0  0
   60.2353   29.2749   49.6006 H   0  0  0  0  0  0  0  0  0  0  0  0
   57.8372   29.7061   48.0200 H   0  0  0  0  0  0  0  0  0  0  0  0
   58.7785   30.9491   46.3516 H   0  0  0  0  0  0  0  0  0  0  0  0
   60.4149   30.2080   46.5671 H   0  0  0  0  0  0  0  0  0  0  0  0
   57.4166   28.0152   44.6134 H   0  0  0  0  0  0  0  0  0  0  0  0
   57.0726   28.8678   46.1593 H   0  0  0  0  0  0  0  0  0  0  0  0
   58.9430   30.4900   43.3980 H   0  0  0  0  0  0  0  0  0  0  0  0
   58.3791   32.5948   42.4584 H   0  0  0  0  0  0  0  0  0  0  0  0
   56.6970   32.4374   43.0688 H   0  0  0  0  0  0  0  0  0  0  0  0
   59.8472   34.0372   43.5748 H   0  0  0  0  0  0  0  0  0  0  0  0
   60.4950   35.3181   45.6202 H   0  0  0  0  0  0  0  0  0  0  0  0
   59.1254   35.0916   47.7005 H   0  0  0  0  0  0  0  0  0  0  0  0
   56.5020   32.3561   45.7509 H   0  0  0  0  0  0  0  0  0  0  0  0
   59.0670   26.9604   45.3019 H   0  0  0  0  0  0  0  0  0  0  0  0
   60.6876   27.7805   45.1659 H   0  0  0  0  0  0  0  0  0  0  0  0
   60.0731   26.4114   47.3432 H   0  0  0  0  0  0  0  0  0  0  0  0
   60.9373   27.9933   47.4539 H   0  0  0  0  0  0  0  0  0  0  0  0
  1  2  1  0
  2  3  1  0
  3  4  2  0
  4  5  1  0
  4  6  1  0
  6  7  1  0
  7  8  1  0
  8  9  1  0
  9 10  1  0
 10 11  1  0
 11 12  1  0
 12 13  2  0
 12 14  1  0
 14 15  1  0
 15 16  1  0
 16 17  2  0
 17 18  1  0
 18 19  2  0
 19 20  1  0
 20 21  2  0
 10 22  1  0
 22 23  1  0
 23 24  1  0
  6 25  1  0
 25  2  2  0
 24  8  1  0
 21 16  1  0
  1 26  1  0
  1 27  1  0
  1 28  1  0
  3 29  1  0
  5 30  1  0
  5 31  1  0
  5 32  1  0
  7 33  1  0
  7 34  1  0
  8 35  1  1
  9 36  1  0
  9 37  1  0
 11 38  1  0
 11 39  1  0
 14 40  1  0
 15 41  1  0
 15 42  1  0
 17 43  1  0
 18 44  1  0
 19 45  1  0
 21 46  1  0
 22 47  1  0
 22 48  1  0
 23 49  1  0
 23 50  1  0
M  END
>  <UniqueID>  (50) 
47

>  <SMILES>  (50) 
Cc1cc(C)n(C[C@H]2CN(CC(=O)NCc3cccnc3)CCO2)n1

>  <Energy>  (50) 
85.20145862290155

>  <Genealogy>  (50) 
Cc1cc(C)n(C[C@H]2CN(CC(=O)NCc3cccnc3)CCO2)n1 (chirality)
Cc1cc(C)n(C[C@H]2CN(CC(=O)NCc3cccnc3)CCO2)n1 (3D coordinates assigned)
Cc1cc(C)n(C[C@H]2CN(CC(=O)NCc3cccnc3)CCO2)n1 (nonaromatic ring conformer: 85.20145862290155 kcal/mol)

>  <smiles>  (50) 
Cc1cc(C)n(CC2CN(CC(=O)NCc3cccnc3)CCO2)n1

>  <score_type>  (50) 
oracle

>  <origin>  (50) 
adg

>  <m_score__min__energy>  (50) 
-7.7000000000000002

>  <m_primary>  (50) 
energy

$$$$
50:0
     RDKit          3D

 54 57  0  0  0  0  0  0  0  0999 V2000
   59.0250   22.2180   44.6090 C   0  0  0  0  0  0  0  0  0  0  0  0
   58.6800   23.2890   45.6320 C   0  0  0  0  0  0  0  0  0  0  0  0
   57.6990   22.7820   46.5130 O   0  0  0  0  0  0  0  0  0  0  0  0
   57.3740   23.7350   47.5050 C   0  0  0  0  0  0  0  0  0  0  0  0
   57.5720   25.1210   46.9560 C   0  0  0  0  0  0  0  0  0  0  0  0
   56.7490   25.5810   45.9230 C   0  0  0  0  0  0  0  0  0  0  0  0
   56.9560   26.8400   45.3590 C   0  0  0  0  0  0  0  0  0  0  0  0
   58.0030   27.6670   45.8140 C   0  0  0  0  0  0  0  0  0  0  0  0
   58.2620   28.9400   45.2580 C   0  0  0  0  0  0  0  0  0  0  0  0
   57.4930   29.5150   44.0960 C   0  0  0  0  0  0  0  0  0  0  0  0
   56.1440   29.9780   44.5500 C   0  0  0  0  0  0  0  0  0  0  0  0
   55.8790   31.2100   44.5790 O   0  0  0  0  0  0  0  0  0  0  0  0
   55.1560   29.0590   44.8680 O   0  0  0  0  0  0  0  0  0  0  0  0
   59.2940   29.6750   45.7490 N   0  0  0  0  0  0  0  0  0  0  0  0
   60.0770   29.2590   46.7470 N   0  0  0  0  0  0  0  0  0  0  0  0
   61.1290   30.1660   47.2240 C   0  0  0  0  0  0  0  0  0  0  0  0
   60.5190   31.3350   47.9760 C   0  0  0  0  0  0  0  0  0  0  0  0
   60.6760   32.6170   47.4270 C   0  0  0  0  0  0  0  0  0  0  0  0
   60.2120   33.7440   48.0960 C   0  0  0  0  0  0  0  0  0  0  0  0
   59.5890   33.6220   49.3320 C   0  0  0  0  0  0  0  0  0  0  0  0
   59.4050   32.3550   49.9250 C   0  0  0  0  0  0  0  0  0  0  0  0
   58.7710   32.2220   51.1910 C   0  0  0  0  0  0  0  0  0  0  0  0
   58.2850   33.4180   51.9710 C   0  0  0  0  0  0  0  0  0  0  0  0
   58.5900   30.9450   51.7390 C   0  0  0  0  0  0  0  0  0  0  0  0
   59.0240   29.8130   51.0590 C   0  0  0  0  0  0  0  0  0  0  0  0
   59.6520   29.9300   49.8230 C   0  0  0  0  0  0  0  0  0  0  0  0
   59.8650   31.1940   49.2340 C   0  0  0  0  0  0  0  0  0  0  0  0
   59.8780   28.0320   47.3200 C   0  0  0  0  0  0  0  0  0  0  0  0
   60.6320   27.6400   48.2560 O   0  0  0  0  0  0  0  0  0  0  0  0
   58.8360   27.2080   46.8620 C   0  0  0  0  0  0  0  0  0  0  0  0
   58.6130   25.9340   47.4230 C   0  0  0  0  0  0  0  0  0  0  0  0
   59.3221   21.2957   45.1297 H   0  0  0  0  0  0  0  0  0  0  0  0
   58.1463   22.0164   43.9787 H   0  0  0  0  0  0  0  0  0  0  0  0
   59.8561   22.5672   43.9787 H   0  0  0  0  0  0  0  0  0  0  0  0
   59.5817   23.5606   46.2005 H   0  0  0  0  0  0  0  0  0  0  0  0
   58.2944   24.1828   45.1198 H   0  0  0  0  0  0  0  0  0  0  0  0
   56.3237   23.6068   47.8059 H   0  0  0  0  0  0  0  0  0  0  0  0
   58.0270   23.5909   48.3784 H   0  0  0  0  0  0  0  0  0  0  0  0
   55.9318   24.9448   45.5522 H   0  0  0  0  0  0  0  0  0  0  0  0
   56.2961   27.1907   44.5518 H   0  0  0  0  0  0  0  0  0  0  0  0
   58.0486   30.3675   43.6783 H   0  0  0  0  0  0  0  0  0  0  0  0
   57.3670   28.7377   43.3280 H   0  0  0  0  0  0  0  0  0  0  0  0
   61.8047   29.6160   47.8955 H   0  0  0  0  0  0  0  0  0  0  0  0
   61.6876   30.5512   46.3582 H   0  0  0  0  0  0  0  0  0  0  0  0
   61.1736   32.7319   46.4528 H   0  0  0  0  0  0  0  0  0  0  0  0
   60.3389   34.7387   47.6439 H   0  0  0  0  0  0  0  0  0  0  0  0
   59.2353   34.5233   49.8540 H   0  0  0  0  0  0  0  0  0  0  0  0
   58.3688   33.2119   53.0483 H   0  0  0  0  0  0  0  0  0  0  0  0
   58.8980   34.2953   51.7168 H   0  0  0  0  0  0  0  0  0  0  0  0
   57.2338   33.6191   51.7168 H   0  0  0  0  0  0  0  0  0  0  0  0
   58.0993   30.8373   52.7176 H   0  0  0  0  0  0  0  0  0  0  0  0
   58.8698   28.8177   51.5012 H   0  0  0  0  0  0  0  0  0  0  0  0
   59.9873   29.0237   49.2975 H   0  0  0  0  0  0  0  0  0  0  0  0
   59.2624   25.5749   48.2350 H   0  0  0  0  0  0  0  0  0  0  0  0
  1  2  1  0
  2  3  1  0
  3  4  1  0
  4  5  1  0
  5  6  2  0
  6  7  1  0
  7  8  2  0
  8  9  1  0
  9 10  1  0
 10 11  1  0
 11 12  2  0
 11 13  1  0
  9 14  2  0
 14 15  1  0
 15 16  1  0
 16 17  1  0
 17 18  2  0
 18 19  1  0
 19 20  2  0
 20 21  1  0
 21 22  2  0
 22 23  1  0
 22 24  1  0
 24 25  2  0
 25 26  1  0
 26 27  2  0
 15 28  1  0
 28 29  2  0
 28 30  1  0
 30 31  2  0
 31  5  1  0
 30  8  1  0
 27 17  1  0
 27 21  1  0
  1 32  1  0
  1 33  1  0
  1 34  1  0
  2 35  1  0
  2 36  1  0
  4 37  1  0
  4 38  1  0
  6 39  1  0
  7 40  1  0
 10 41  1  0
 10 42  1  0
 16 43  1  0
 16 44  1  0
 18 45  1  0
 19 46  1  0
 20 47  1  0
 23 48  1  0
 23 49  1  0
 23 50  1  0
 24 51  1  0
 25 52  1  0
 26 53  1  0
 31 54  1  0
M  CHG  1  13  -1
M  END
>  <UniqueID>  (51) 
48

>  <SMILES>  (51) 
CCOCc1ccc2c(CC(=O)[O-])nn(Cc3cccc4c(C)cccc34)c(=O)c2c1

>  <Energy>  (51) 
71.15541818774935

>  <Genealogy>  (51) 
CCOCc1ccc2c(CC(=O)[O-])nn(Cc3cccc4c(C)cccc34)c(=O)c2c1 (protonated)
CCOCc1ccc2c(CC(=O)[O-])nn(Cc3cccc4c(C)cccc34)c(=O)c2c1 (3D coordinates assigned)
CCOCc1ccc2c(CC(=O)[O-])nn(Cc3cccc4c(C)cccc34)c(=O)c2c1 (optimized conformer: 71.15541818774935 kcal/mol)

>  <smiles>  (51) 
CCOCc1ccc2c(CC(=O)O)nn(Cc3cccc4c(C)cccc34)c(=O)c2c1

>  <score_type>  (51) 
oracle

>  <origin>  (51) 
adg

>  <m_score__min__energy>  (51) 
-11.869999999999999

>  <m_primary>  (51) 
energy

$$$$
51:0
     RDKit          3D

 54 57  0  0  0  0  0  0  0  0999 V2000
   57.1620   31.1790   53.8930 C   0  0  0  0  0  0  0  0  0  0  0  0
   57.3530   30.8300   52.4460 C   0  0  0  0  0  0  0  0  0  0  0  0
   56.6940   29.8650   51.9720 O   0  0  0  0  0  0  0  0  0  0  0  0
   58.2850   31.5880   51.5700 C   0  0  0  0  0  0  0  0  0  0  0  0
   58.9560   30.9640   50.5000 C   0  0  0  0  0  0  0  0  0  0  0  0
   59.8280   31.6920   49.6860 C   0  0  0  0  0  0  0  0  0  0  0  0
   60.0450   33.0550   49.9230 C   0  0  0  0  0  0  0  0  0  0  0  0
   61.1750   33.9590   48.9190 S   0  0  0  0  0  0  0  0  0  0  0  0
   61.9080   34.9630   49.7650 O   0  0  0  0  0  0  0  0  0  0  0  0
   62.1810   33.0030   48.3410 O   0  0  0  0  0  0  0  0  0  0  0  0
   60.3760   34.7850   47.6200 N   0  0  0  0  0  0  0  0  0  0  0  0
   59.6530   34.1210   46.5810 C   0  0  0  0  0  0  0  0  0  0  0  0
   59.0800   34.8380   45.5230 C   0  0  0  0  0  0  0  0  0  0  0  0
   58.3590   34.1710   44.5320 C   0  0  0  0  0  0  0  0  0  0  0  0
   58.1880   32.7860   44.5980 C   0  0  0  0  0  0  0  0  0  0  0  0
   58.7360   32.0490   45.6670 C   0  0  0  0  0  0  0  0  0  0  0  0
   58.5400   30.5800   45.7770 C   0  0  0  0  0  0  0  0  0  0  0  0
   59.5760   29.7220   46.1740 C   0  0  0  0  0  0  0  0  0  0  0  0
   59.3480   28.3470   46.2600 C   0  0  0  0  0  0  0  0  0  0  0  0
   60.2880   27.5960   46.6370 O   0  0  0  0  0  0  0  0  0  0  0  0
   58.0760   27.8160   45.9490 C   0  0  0  0  0  0  0  0  0  0  0  0
   57.8120   26.3540   46.0220 C   0  0  0  0  0  0  0  0  0  0  0  0
   58.2060   25.6890   47.0180 O   0  0  0  0  0  0  0  0  0  0  0  0
   57.0610   25.7050   44.9880 N   0  0  0  0  0  0  0  0  0  0  0  0
   56.0600   24.6990   45.1930 C   0  0  0  0  0  0  0  0  0  0  0  0
   56.4060   23.3570   44.9840 C   0  0  0  0  0  0  0  0  0  0  0  0
   55.4610   22.3450   45.1760 C   0  0  0  0  0  0  0  0  0  0  0  0
   54.1680   22.6640   45.5960 C   0  0  0  0  0  0  0  0  0  0  0  0
   53.8220   23.9970   45.8410 C   0  0  0  0  0  0  0  0  0  0  0  0
   54.7650   25.0140   45.6560 C   0  0  0  0  0  0  0  0  0  0  0  0
   54.4160   26.3240   45.9670 O   0  0  0  0  0  0  0  0  0  0  0  0
   57.0580   28.7180   45.5710 C   0  0  0  0  0  0  0  0  0  0  0  0
   55.7830   28.2600   45.2480 O   0  0  0  0  0  0  0  0  0  0  0  0
   57.3190   30.0500   45.4990 N   0  0  0  0  0  0  0  0  0  0  0  0
   59.4550   32.7370   46.6640 C   0  0  0  0  0  0  0  0  0  0  0  0
   59.3830   33.6840   50.9840 C   0  0  0  0  0  0  0  0  0  0  0  0
   58.5130   32.9590   51.8020 C   0  0  0  0  0  0  0  0  0  0  0  0
   57.5954   30.3871   54.5215 H   0  0  0  0  0  0  0  0  0  0  0  0
   57.6632   32.1341   54.1091 H   0  0  0  0  0  0  0  0  0  0  0  0
   56.0874   31.2717   54.1091 H   0  0  0  0  0  0  0  0  0  0  0  0
   58.7921   29.8942   50.3035 H   0  0  0  0  0  0  0  0  0  0  0  0
   60.3466   31.1918   48.8548 H   0  0  0  0  0  0  0  0  0  0  0  0
   59.1988   35.9304   45.4732 H   0  0  0  0  0  0  0  0  0  0  0  0
   57.9237   34.7377   43.6957 H   0  0  0  0  0  0  0  0  0  0  0  0
   57.6219   32.2673   43.8103 H   0  0  0  0  0  0  0  0  0  0  0  0
   60.5673   30.1319   46.4174 H   0  0  0  0  0  0  0  0  0  0  0  0
   57.4272   23.0986   44.6670 H   0  0  0  0  0  0  0  0  0  0  0  0
   55.7364   21.2954   44.9959 H   0  0  0  0  0  0  0  0  0  0  0  0
   53.4220   21.8675   45.7341 H   0  0  0  0  0  0  0  0  0  0  0  0
   52.8057   24.2464   46.1801 H   0  0  0  0  0  0  0  0  0  0  0  0
   55.6340   27.3050   44.9430 H   0  0  0  0  0  0  0  0  0  0  0  0
   59.8663   32.1800   47.5188 H   0  0  0  0  0  0  0  0  0  0  0  0
   59.5487   34.7546   51.1746 H   0  0  0  0  0  0  0  0  0  0  0  0
   58.0012   33.4631   52.6350 H   0  0  0  0  0  0  0  0  0  0  0  0
  1  2  1  0
  2  3  2  0
  2  4  1  0
  4  5  2  0
  5  6  1  0
  6  7  2  0
  7  8  1  0
  8  9  2  0
  8 10  2  0
  8 11  1  0
 11 12  1  0
 12 13  2  0
 13 14  1  0
 14 15  2  0
 15 16  1  0
 16 17  1  0
 17 18  2  0
 18 19  1  0
 19 20  2  0
 19 21  1  0
 21 22  1  0
 22 23  2  0
 22 24  1  0
 24 25  1  0
 25 26  2  0
 26 27  1  0
 27 28  2  0
 28 29  1  0
 29 30  2  0
 30 31  1  0
 21 32  2  0
 32 33  1  0
 32 34  1  0
 16 35  2  0
  7 36  1  0
 36 37  2  0
 37  4  1  0
 35 12  1  0
 34 17  1  0
 30 25  1  0
  1 38  1  0
  1 39  1  0
  1 40  1  0
  5 41  1  0
  6 42  1  0
 13 43  1  0
 14 44  1  0
 15 45  1  0
 18 46  1  0
 26 47  1  0
 27 48  1  0
 28 49  1  0
 29 50  1  0
 33 51  1  0
 35 52  1  0
 36 53  1  0
 37 54  1  0
M  CHG  4  11  -1  24  -1  31  -1  34  -1
M  END
>  <UniqueID>  (52) 
49

>  <SMILES>  (52) 
CC(=O)c1ccc(S(=O)(=O)[N-]c2cccc(-c3cc(=O)c(C(=O)[N-]c4ccccc4[O-])c(O)[n-]3)c2)cc1

>  <Energy>  (52) 
82.84198146478911

>  <Genealogy>  (52) 
CC(=O)c1ccc(S(=O)(=O)[N-]c2cccc(-c3cc(=O)c(C(=O)[N-]c4ccccc4[O-])c(O)[n-]3)c2)cc1 (protonated)
CC(=O)c1ccc(S(=O)(=O)[N-]c2cccc(-c3cc(=O)c(C(=O)[N-]c4ccccc4[O-])c(O)[n-]3)c2)cc1 (3D coordinates assigned)
CC(=O)c1ccc(S(=O)(=O)[N-]c2cccc(-c3cc(=O)c(C(=O)[N-]c4ccccc4[O-])c(O)[n-]3)c2)cc1 (optimized conformer: 82.84198146478911 kcal/mol)

>  <smiles>  (52) 
CC(=O)c1ccc(S(=O)(=O)Nc2cccc(-c3cc(=O)c(C(=O)Nc4ccccc4O)c(O)[nH]3)c2)cc1

>  <score_type>  (52) 
oracle

>  <origin>  (52) 
adg

>  <m_score__min__energy>  (52) 
-18.609999999999999

>  <m_primary>  (52) 
energy

$$$$
52:0
     RDKit          3D

 43 45  0  0  0  0  0  0  0  0999 V2000
   57.4879   30.9724   44.5018 H   0  0  0  0  0  0  0  0  0  0  0  0
   57.9810   30.4300   45.3220 C   0  0  0  0  0  0  0  0  0  0  0  0
   59.0390   31.1260   46.0880 C   0  0  0  0  0  0  0  0  0  0  0  0
   59.3150   32.4930   46.1250 C   0  0  0  0  0  0  0  0  0  0  0  0
   58.5710   33.6420   45.4420 C   0  0  0  0  0  0  0  0  0  0  0  0
   59.3270   34.9750   45.6220 C   0  0  0  0  0  0  0  0  0  0  0  0
   59.4470   35.1865   46.6948 H   0  0  0  0  0  0  0  0  0  0  0  0
   60.3177   34.9013   45.1498 H   0  0  0  0  0  0  0  0  0  0  0  0
   58.7552   35.7875   45.1498 H   0  0  0  0  0  0  0  0  0  0  0  0
   58.4620   33.3630   43.9250 C   0  0  0  0  0  0  0  0  0  0  0  0
   58.0659   32.3491   43.7662 H   0  0  0  0  0  0  0  0  0  0  0  0
   57.7847   34.0975   43.4648 H   0  0  0  0  0  0  0  0  0  0  0  0
   59.4578   33.4439   43.4648 H   0  0  0  0  0  0  0  0  0  0  0  0
   57.1460   33.7540   46.0150 C   0  0  0  0  0  0  0  0  0  0  0  0
   57.1914   33.7504   47.1141 H   0  0  0  0  0  0  0  0  0  0  0  0
   56.6847   34.6912   45.6701 H   0  0  0  0  0  0  0  0  0  0  0  0
   56.5440   32.9004   45.6701 H   0  0  0  0  0  0  0  0  0  0  0  0
   60.4220   32.6830   46.8770 N   0  0  0  0  0  0  0  0  0  0  0  0
   60.7870   31.4500   47.2820 C   0  0  0  0  0  0  0  0  0  0  0  0
   61.6595   31.2525   47.9221 H   0  0  0  0  0  0  0  0  0  0  0  0
   59.9710   30.4890   46.8200 N   0  0  0  0  0  0  0  0  0  0  0  0
   60.0830   29.4610   46.9650 H   0  0  0  0  0  0  0  0  0  0  0  0
   57.5910   29.1660   45.5780 C   0  0  0  0  0  0  0  0  0  0  0  0
   58.4660   28.2740   46.1180 N   0  0  0  0  0  0  0  0  0  0  0  0
   58.1150   26.9940   46.4100 C   0  0  0  0  0  0  0  0  0  0  0  0
   58.9760   26.2180   46.9050 O   0  0  0  0  0  0  0  0  0  0  0  0
   56.7970   26.5660   46.1570 C   0  0  0  0  0  0  0  0  0  0  0  0
   56.4020   25.3060   46.4180 C   0  0  0  0  0  0  0  0  0  0  0  0
   55.8608   25.1100   47.3554 H   0  0  0  0  0  0  0  0  0  0  0  0
   56.6610   24.1740   45.5050 C   0  0  0  0  0  0  0  0  0  0  0  0
   57.9740   23.6890   45.3930 C   0  0  0  0  0  0  0  0  0  0  0  0
   58.7802   24.1541   45.9793 H   0  0  0  0  0  0  0  0  0  0  0  0
   58.2630   22.6200   44.5420 C   0  0  0  0  0  0  0  0  0  0  0  0
   59.2964   22.2543   44.4508 H   0  0  0  0  0  0  0  0  0  0  0  0
   57.2420   22.0150   43.8070 C   0  0  0  0  0  0  0  0  0  0  0  0
   57.4732   21.1792   43.1303 H   0  0  0  0  0  0  0  0  0  0  0  0
   55.9270   22.4700   43.9300 C   0  0  0  0  0  0  0  0  0  0  0  0
   55.1240   21.9844   43.3561 H   0  0  0  0  0  0  0  0  0  0  0  0
   55.6260   23.5410   44.7800 C   0  0  0  0  0  0  0  0  0  0  0  0
   53.9390   24.0130   44.9650 Cl  0  0  0  0  0  0  0  0  0  0  0  0
   55.9200   27.4570   45.6170 N   0  0  0  0  0  0  0  0  0  0  0  0
   56.2720   28.7360   45.3260 C   0  0  0  0  0  0  0  0  0  0  0  0
   55.4090   29.5130   44.8320 O   0  0  0  0  0  0  0  0  0  0  0  0
  1  2  1  0
  2  3  1  0
  3  4  2  0
  4  5  1  0
  5  6  1  0
  6  7  1  0
  6  8  1  0
  6  9  1  0
  5 10  1  0
 10 11  1  0
 10 12  1  0
 10 13  1  0
  5 14  1  0
 14 15  1  0
 14 16  1  0
 14 17  1  0
  4 18  1  0
 18 19  2  0
 19 20  1  0
 19 21  1  0
 21 22  1  0
  2 23  2  3
 23 24  1  0
 24 25  1  0
 25 26  2  0
 25 27  1  0
 27 28  2  0
 28 29  1  0
 28 30  1  0
 30 31  2  0
 31 32  1  0
 31 33  1  0
 33 34  1  0
 33 35  2  0
 35 36  1  0
 35 37  1  0
 37 38  1  0
 37 39  2  0
 39 40  1  0
 27 41  1  0
 41 42  1  0
 42 43  2  0
 21  3  1  0
 42 23  1  0
 39 30  1  0
M  CHG  2  24  -1  41  -1
M  END
>  <UniqueID>  (53) 
50

>  <SMILES>  (53) 
CC(C)(C)c1nc[nH]c1C=c1[n-]c(=O)/c(=C/c2ccccc2Cl)[n-]c1=O

>  <Energy>  (53) 
90.25842907472489

>  <Genealogy>  (53) 
CC(C)(C)c1nc[nH]c1C=c1[n-]c(=O)c(=Cc2ccccc2Cl)[n-]c1=O (protonated)
CC(C)(C)c1nc[nH]c1C=c1[n-]c(=O)/c(=C/c2ccccc2Cl)[n-]c1=O (cis-trans isomerization)
CC(C)(C)c1nc[nH]c1C=c1[n-]c(=O)/c(=C/c2ccccc2Cl)[n-]c1=O (3D coordinates assigned)
CC(C)(C)c1nc[nH]c1C=c1[n-]c(=O)/c(=C/c2ccccc2Cl)[n-]c1=O (optimized conformer: 90.25842907472489 kcal/mol)

>  <smiles>  (53) 
CC(C)(C)c1nc[nH]c1C=c1[nH]c(=O)c(=Cc2ccccc2Cl)[nH]c1=O

>  <score_type>  (53) 
oracle

>  <origin>  (53) 
adg

>  <m_score__min__energy>  (53) 
-12.06

>  <m_primary>  (53) 
energy

$$$$
53:0
     RDKit          3D

 62 66  0  0  0  0  0  0  0  0999 V2000
   60.1760   31.9544   46.7201 H   0  0  0  0  0  0  0  0  0  0  0  0
   59.1940   32.1920   46.2850 C   0  0  0  0  0  0  0  0  0  0  0  0
   58.4840   31.2990   45.5460 N   0  0  0  0  0  0  0  0  0  0  0  0
   57.3110   31.8260   45.1260 C   0  0  0  0  0  0  0  0  0  0  0  0
   56.4740   31.2160   44.3420 N   0  0  0  0  0  0  0  0  0  0  0  0
   56.2270   29.8020   44.3180 C   0  0  0  0  0  0  0  0  0  0  0  0
   55.2120   29.3140   44.8880 O   0  0  0  0  0  0  0  0  0  0  0  0
   57.1580   28.8970   43.5680 C   0  0  0  0  0  0  0  0  0  0  0  0
   57.8917   29.5089   43.0229 H   0  0  0  0  0  0  0  0  0  0  0  0
   56.5651   28.2887   42.8692 H   0  0  0  0  0  0  0  0  0  0  0  0
   57.8910   27.9690   44.5070 C   0  0  0  0  0  0  0  0  0  0  0  0
   57.7690   26.5780   44.3710 C   0  0  0  0  0  0  0  0  0  0  0  0
   57.1248   26.1596   43.5837 H   0  0  0  0  0  0  0  0  0  0  0  0
   58.4620   25.7210   45.2310 C   0  0  0  0  0  0  0  0  0  0  0  0
   58.3546   24.6316   45.1234 H   0  0  0  0  0  0  0  0  0  0  0  0
   59.2900   26.2440   46.2260 C   0  0  0  0  0  0  0  0  0  0  0  0
   59.8374   25.5647   46.8961 H   0  0  0  0  0  0  0  0  0  0  0  0
   59.4270   27.6340   46.3750 C   0  0  0  0  0  0  0  0  0  0  0  0
   60.3390   28.2090   47.4350 C   0  0  0  0  0  0  0  0  0  0  0  0
   61.3770   28.1589   47.0744 H   0  0  0  0  0  0  0  0  0  0  0  0
   60.2049   27.6176   48.3527 H   0  0  0  0  0  0  0  0  0  0  0  0
   60.0110   29.6200   47.7510 N   0  0  0  0  0  0  0  0  0  0  0  0
   59.6600   30.0720   46.8710 H   0  0  0  0  0  0  0  0  0  0  0  0
   58.9210   29.7000   48.7600 C   0  0  0  0  0  0  0  0  0  0  0  0
   59.0506   28.8871   49.4897 H   0  0  0  0  0  0  0  0  0  0  0  0
   57.9596   29.6083   48.2334 H   0  0  0  0  0  0  0  0  0  0  0  0
   58.9320   31.0440   49.5050 C   0  0  0  0  0  0  0  0  0  0  0  0
   58.1001   31.0566   50.2245 H   0  0  0  0  0  0  0  0  0  0  0  0
   58.8283   31.8443   48.7575 H   0  0  0  0  0  0  0  0  0  0  0  0
   60.2030   31.2700   50.2400 N   0  0  0  0  0  0  0  0  0  0  0  0
   60.0510   30.9980   51.6770 C   0  0  0  0  0  0  0  0  0  0  0  0
   60.5075   31.8149   52.2551 H   0  0  0  0  0  0  0  0  0  0  0  0
   58.9819   30.9259   51.9255 H   0  0  0  0  0  0  0  0  0  0  0  0
   60.5499   30.0497   51.9255 H   0  0  0  0  0  0  0  0  0  0  0  0
   61.3480   30.5070   49.6880 C   0  0  0  0  0  0  0  0  0  0  0  0
   61.3634   29.5045   50.1406 H   0  0  0  0  0  0  0  0  0  0  0  0
   62.2753   31.0507   49.9213 H   0  0  0  0  0  0  0  0  0  0  0  0
   61.2350   30.3670   48.1620 C   0  0  0  0  0  0  0  0  0  0  0  0
   62.1193   29.8291   47.7897 H   0  0  0  0  0  0  0  0  0  0  0  0
   61.1709   31.3788   47.7351 H   0  0  0  0  0  0  0  0  0  0  0  0
   58.7060   28.4900   45.5270 C   0  0  0  0  0  0  0  0  0  0  0  0
   58.7797   29.5792   45.6622 H   0  0  0  0  0  0  0  0  0  0  0  0
   57.1070   33.4150   45.6310 S   0  0  0  0  0  0  0  0  0  0  0  0
   58.5800   33.4320   46.4480 C   0  0  0  0  0  0  0  0  0  0  0  0
   59.2040   34.6480   47.0550 C   0  0  0  0  0  0  0  0  0  0  0  0
   59.7282   35.2192   46.2746 H   0  0  0  0  0  0  0  0  0  0  0  0
   58.4207   35.2751   47.5057 H   0  0  0  0  0  0  0  0  0  0  0  0
   60.1830   34.2340   48.1140 C   0  0  0  0  0  0  0  0  0  0  0  0
   60.0000   34.3250   49.4920 C   0  0  0  0  0  0  0  0  0  0  0  0
   59.0612   34.6233   49.9815 H   0  0  0  0  0  0  0  0  0  0  0  0
   61.1390   33.9950   50.1440 N   0  0  0  0  0  0  0  0  0  0  0  0
   61.2910   33.9940   51.1790 H   0  0  0  0  0  0  0  0  0  0  0  0
   62.0440   33.7160   49.1900 C   0  0  0  0  0  0  0  0  0  0  0  0
   63.3810   33.3600   49.3760 C   0  0  0  0  0  0  0  0  0  0  0  0
   63.8070   33.2566   50.3849 H   0  0  0  0  0  0  0  0  0  0  0  0
   64.1650   33.1380   48.2290 C   0  0  0  0  0  0  0  0  0  0  0  0
   65.2204   32.8476   48.3375 H   0  0  0  0  0  0  0  0  0  0  0  0
   63.6080   33.2850   46.9390 C   0  0  0  0  0  0  0  0  0  0  0  0
   64.2331   33.1106   46.0508 H   0  0  0  0  0  0  0  0  0  0  0  0
   62.2590   33.6530   46.7830 C   0  0  0  0  0  0  0  0  0  0  0  0
   61.8160   33.7775   45.7839 H   0  0  0  0  0  0  0  0  0  0  0  0
   61.5010   33.8550   47.9380 C   0  0  0  0  0  0  0  0  0  0  0  0
  1  2  1  0
  2  3  1  0
  3  4  1  0
  4  5  2  0
  5  6  1  0
  6  7  2  0
  6  8  1  0
  8  9  1  0
  8 10  1  0
  8 11  1  0
 11 12  2  0
 12 13  1  0
 12 14  1  0
 14 15  1  0
 14 16  2  0
 16 17  1  0
 16 18  1  0
 18 19  1  0
 19 20  1  0
 19 21  1  0
 19 22  1  0
 22 23  1  0
 22 24  1  0
 24 25  1  0
 24 26  1  0
 24 27  1  0
 27 28  1  0
 27 29  1  0
 27 30  1  0
 30 31  1  0
 31 32  1  0
 31 33  1  0
 31 34  1  0
 30 35  1  0
 35 36  1  0
 35 37  1  0
 35 38  1  0
 38 39  1  0
 38 40  1  0
 18 41  2  0
 41 42  1  0
  4 43  1  0
 43 44  1  0
 44 45  1  0
 45 46  1  0
 45 47  1  0
 45 48  1  0
 48 49  2  0
 49 50  1  0
 49 51  1  0
 51 52  1  0
 51 53  1  0
 53 54  2  0
 54 55  1  0
 54 56  1  0
 56 57  1  0
 56 58  2  0
 58 59  1  0
 58 60  1  0
 60 61  1  0
 60 62  2  0
 44  2  2  0
 62 48  1  0
 41 11  1  0
 62 53  1  0
 38 22  1  0
M  CHG  2   3  -1  22   1
M  END
>  <UniqueID>  (54) 
51

>  <SMILES>  (54) 
CN1CC[NH+](Cc2cccc(CC(=O)/N=c3\[n-]cc(Cc4c[nH]c5ccccc45)s3)c2)CC1

>  <Energy>  (54) 
141.6058516958924

>  <Genealogy>  (54) 
CN1CC[NH+](Cc2cccc(CC(=O)N=c3[n-]cc(Cc4c[nH]c5ccccc45)s3)c2)CC1 (protonated)
CN1CC[NH+](Cc2cccc(CC(=O)/N=c3\[n-]cc(Cc4c[nH]c5ccccc45)s3)c2)CC1 (cis-trans isomerization)
CN1CC[NH+](Cc2cccc(CC(=O)/N=c3\[n-]cc(Cc4c[nH]c5ccccc45)s3)c2)CC1 (3D coordinates assigned)
CN1CC[NH+](Cc2cccc(CC(=O)/N=c3\[n-]cc(Cc4c[nH]c5ccccc45)s3)c2)CC1 (nonaromatic ring conformer: 141.6058516958924 kcal/mol)

>  <smiles>  (54) 
CN1CCN(Cc2cccc(CC(=O)N=c3[nH]cc(Cc4c[nH]c5ccccc45)s3)c2)CC1

>  <score_type>  (54) 
oracle

>  <origin>  (54) 
adg

>  <m_score__min__energy>  (54) 
-10.119999999999999

>  <m_primary>  (54) 
energy

$$$$
54:0
     RDKit          3D

 36 38  0  0  0  0  0  0  0  0999 V2000
   58.5300   31.9370   45.7180 C   0  0  0  0  0  0  0  0  0  0  0  0
   57.7820   31.2320   44.6200 C   0  0  0  0  0  0  0  0  0  0  0  0
   57.7500   31.8220   43.3450 C   0  0  0  0  0  0  0  0  0  0  0  0
   57.0050   31.2500   42.3120 C   0  0  0  0  0  0  0  0  0  0  0  0
   56.2780   30.0830   42.5410 C   0  0  0  0  0  0  0  0  0  0  0  0
   56.3140   29.4720   43.7950 C   0  0  0  0  0  0  0  0  0  0  0  0
   57.0860   30.0090   44.8340 C   0  0  0  0  0  0  0  0  0  0  0  0
   57.1060   29.3000   46.0470 O   0  0  0  0  0  0  0  0  0  0  0  0
   58.1480   28.4820   46.5080 C   0  0  0  0  0  0  0  0  0  0  0  0
   58.8790   28.9250   47.6180 C   0  0  0  0  0  0  0  0  0  0  0  0
   59.9400   28.1710   48.1180 C   0  0  0  0  0  0  0  0  0  0  0  0
   60.2680   26.9510   47.5280 C   0  0  0  0  0  0  0  0  0  0  0  0
   59.5250   26.4750   46.4460 C   0  0  0  0  0  0  0  0  0  0  0  0
   58.4570   27.2260   45.9220 C   0  0  0  0  0  0  0  0  0  0  0  0
   57.6030   26.5990   44.8460 C   0  0  0  0  0  0  0  0  0  0  0  0
   56.8000   25.4710   45.4200 C   0  0  0  0  0  0  0  0  0  0  0  0
   57.1810   24.1840   45.4240 N   0  0  0  0  0  0  0  0  0  0  0  0
   56.1370   23.5230   45.9620 C   0  0  0  0  0  0  0  0  0  0  0  0
   56.1290   22.2760   46.1350 O   0  0  0  0  0  0  0  0  0  0  0  0
   55.0950   24.3160   46.2970 N   0  0  0  0  0  0  0  0  0  0  0  0
   55.5270   25.5420   45.9430 C   0  0  0  0  0  0  0  0  0  0  0  0
   54.7730   26.6980   46.0880 O   0  0  0  0  0  0  0  0  0  0  0  0
   58.1614   31.5896   46.6944 H   0  0  0  0  0  0  0  0  0  0  0  0
   59.6039   31.7149   45.6313 H   0  0  0  0  0  0  0  0  0  0  0  0
   58.3718   33.0221   45.6313 H   0  0  0  0  0  0  0  0  0  0  0  0
   58.3185   32.7451   43.1587 H   0  0  0  0  0  0  0  0  0  0  0  0
   56.9918   31.7202   41.3176 H   0  0  0  0  0  0  0  0  0  0  0  0
   55.6754   29.6433   41.7325 H   0  0  0  0  0  0  0  0  0  0  0  0
   55.7289   28.5571   43.9702 H   0  0  0  0  0  0  0  0  0  0  0  0
   58.6132   29.8774   48.1000 H   0  0  0  0  0  0  0  0  0  0  0  0
   60.5185   28.5388   48.9783 H   0  0  0  0  0  0  0  0  0  0  0  0
   61.1130   26.3629   47.9154 H   0  0  0  0  0  0  0  0  0  0  0  0
   59.7774   25.5024   45.9985 H   0  0  0  0  0  0  0  0  0  0  0  0
   56.9218   27.3578   44.4335 H   0  0  0  0  0  0  0  0  0  0  0  0
   58.2544   26.2094   44.0498 H   0  0  0  0  0  0  0  0  0  0  0  0
   58.0790   23.7810   45.0800 H   0  0  0  0  0  0  0  0  0  0  0  0
  1  2  1  0
  2  3  2  0
  3  4  1  0
  4  5  2  0
  5  6  1  0
  6  7  2  0
  7  8  1  0
  8  9  1  0
  9 10  2  0
 10 11  1  0
 11 12  2  0
 12 13  1  0
 13 14  2  0
 14 15  1  0
 15 16  1  0
 16 17  1  0
 17 18  1  0
 18 19  2  0
 18 20  1  0
 20 21  1  0
 21 22  1  0
  7  2  1  0
 14  9  1  0
 21 16  2  0
  1 23  1  0
  1 24  1  0
  1 25  1  0
  3 26  1  0
  4 27  1  0
  5 28  1  0
  6 29  1  0
 10 30  1  0
 11 31  1  0
 12 32  1  0
 13 33  1  0
 15 34  1  0
 15 35  1  0
 17 36  1  0
M  CHG  2  20  -1  22  -1
M  END
>  <UniqueID>  (55) 
52

>  <SMILES>  (55) 
Cc1ccccc1Oc1ccccc1Cc1[nH]c(=O)[n-]c1[O-]

>  <Energy>  (55) 
79.84178815184796

>  <Genealogy>  (55) 
Cc1ccccc1Oc1ccccc1Cc1[nH]c(=O)[n-]c1[O-] (protonated)
Cc1ccccc1Oc1ccccc1Cc1[nH]c(=O)[n-]c1[O-] (3D coordinates assigned)
Cc1ccccc1Oc1ccccc1Cc1[nH]c(=O)[n-]c1[O-] (optimized conformer: 79.84178815184796 kcal/mol)

>  <smiles>  (55) 
Cc1ccccc1Oc1ccccc1Cc1[nH]c(=O)[nH]c1O

>  <score_type>  (55) 
oracle

>  <origin>  (55) 
adg

>  <m_score__min__energy>  (55) 
-13.710000000000001

>  <m_primary>  (55) 
energy

$$$$
55:0
     RDKit          3D

 71 74  0  0  0  0  0  0  0  0999 V2000
   58.1430   31.1610   43.7320 C   0  0  0  0  0  0  0  0  0  0  0  0
   57.6670   29.9220   44.3710 N   0  0  0  0  0  0  0  0  0  0  0  0
   56.3420   29.7480   44.6590 C   0  0  0  0  0  0  0  0  0  0  0  0
   55.4960   30.6420   44.3820 O   0  0  0  0  0  0  0  0  0  0  0  0
   55.9210   28.6070   45.2480 N   0  0  0  0  0  0  0  0  0  0  0  0
   56.7940   27.6290   45.5740 C   0  0  0  0  0  0  0  0  0  0  0  0
   56.3550   26.5790   46.1170 O   0  0  0  0  0  0  0  0  0  0  0  0
   58.1310   27.7880   45.3220 N   0  0  0  0  0  0  0  0  0  0  0  0
   59.0990   26.7210   45.6570 C   0  0  0  0  0  0  0  0  0  0  0  0
   59.2090   26.5160   47.1740 C   0  0  0  0  0  0  0  0  0  0  0  0
   60.3570   27.1710   47.7110 O   0  0  0  0  0  0  0  0  0  0  0  0
   60.3680   28.4480   48.2980 C   0  0  0  0  0  0  0  0  0  0  0  0
   60.7460   28.6610   49.6350 C   0  0  0  0  0  0  0  0  0  0  0  0
   60.7900   29.9550   50.1550 C   0  0  0  0  0  0  0  0  0  0  0  0
   60.4520   31.0600   49.3560 C   0  0  0  0  0  0  0  0  0  0  0  0
   60.5160   32.4600   49.9280 C   0  0  0  0  0  0  0  0  0  0  0  0
   61.8630   33.0880   49.8260 N   0  0  2  0  0  0  0  0  0  0  0  0
   62.2490   33.7870   51.0870 C   0  0  0  0  0  0  0  0  0  0  0  0
   63.6830   34.4140   51.1120 C   0  0  0  0  0  0  0  0  0  0  0  0
   64.1450   34.7920   52.5270 C   0  0  0  0  0  0  0  0  0  0  0  0
   64.8970   33.5810   53.0790 C   0  0  0  0  0  0  0  0  0  0  0  0
   65.1810   32.6600   51.8930 C   0  0  0  0  0  0  0  0  0  0  0  0
   64.7420   33.4130   50.6470 C   0  0  0  0  0  0  0  0  0  0  0  0
   62.1250   33.8350   48.5460 C   0  0  1  0  0  0  0  0  0  0  0  0
   63.4060   33.4060   47.7720 C   0  0  0  0  0  0  0  0  0  0  0  0
   63.6050   31.9200   47.8240 C   0  0  0  0  0  0  0  0  0  0  0  0
   63.7590   31.2620   46.7580 O   0  0  0  0  0  0  0  0  0  0  0  0
   63.5570   31.2520   49.0430 O   0  0  0  0  0  0  0  0  0  0  0  0
   60.8750   33.9120   47.6610 C   0  0  0  0  0  0  0  0  0  0  0  0
   60.8070   33.3030   46.3870 C   0  0  0  0  0  0  0  0  0  0  0  0
   59.6370   33.3760   45.6230 C   0  0  0  0  0  0  0  0  0  0  0  0
   58.5170   34.0470   46.1200 C   0  0  0  0  0  0  0  0  0  0  0  0
   57.0480   34.1410   45.1630 Cl  0  0  0  0  0  0  0  0  0  0  0  0
   58.5630   34.6330   47.3900 C   0  0  0  0  0  0  0  0  0  0  0  0
   59.7280   34.5610   48.1580 C   0  0  0  0  0  0  0  0  0  0  0  0
   60.0580   30.8430   48.0270 C   0  0  0  0  0  0  0  0  0  0  0  0
   60.0020   29.5450   47.5100 C   0  0  0  0  0  0  0  0  0  0  0  0
   58.5620   28.9480   44.7300 C   0  0  0  0  0  0  0  0  0  0  0  0
   59.7960   29.1180   44.5060 O   0  0  0  0  0  0  0  0  0  0  0  0
   58.4228   31.8893   44.5074 H   0  0  0  0  0  0  0  0  0  0  0  0
   59.0192   30.9373   43.1057 H   0  0  0  0  0  0  0  0  0  0  0  0
   57.3424   31.5815   43.1057 H   0  0  0  0  0  0  0  0  0  0  0  0
   58.7687   25.7802   45.1924 H   0  0  0  0  0  0  0  0  0  0  0  0
   60.0870   27.0202   45.2771 H   0  0  0  0  0  0  0  0  0  0  0  0
   58.3078   26.9234   47.6555 H   0  0  0  0  0  0  0  0  0  0  0  0
   59.3056   25.4378   47.3692 H   0  0  0  0  0  0  0  0  0  0  0  0
   61.0080   27.8045   50.2736 H   0  0  0  0  0  0  0  0  0  0  0  0
   61.0924   30.1115   51.2010 H   0  0  0  0  0  0  0  0  0  0  0  0
   59.7969   33.0904   49.3843 H   0  0  0  0  0  0  0  0  0  0  0  0
   60.2788   32.3806   50.9992 H   0  0  0  0  0  0  0  0  0  0  0  0
   62.5270   32.2770   49.7890 H   0  0  0  0  0  0  0  0  0  0  0  0
   61.5245   34.5968   51.2584 H   0  0  0  0  0  0  0  0  0  0  0  0
   62.2503   33.0119   51.8675 H   0  0  0  0  0  0  0  0  0  0  0  0
   63.5992   35.2942   50.4576 H   0  0  0  0  0  0  0  0  0  0  0  0
   64.8108   35.6667   52.4879 H   0  0  0  0  0  0  0  0  0  0  0  0
   63.2894   35.0532   53.1671 H   0  0  0  0  0  0  0  0  0  0  0  0
   65.8409   33.9012   53.5445 H   0  0  0  0  0  0  0  0  0  0  0  0
   64.3032   33.0640   53.8472 H   0  0  0  0  0  0  0  0  0  0  0  0
   66.2553   32.4299   51.8392 H   0  0  0  0  0  0  0  0  0  0  0  0
   64.6421   31.7062   51.9920 H   0  0  0  0  0  0  0  0  0  0  0  0
   65.5964   33.9409   50.1983 H   0  0  0  0  0  0  0  0  0  0  0  0
   64.3433   32.7300   49.8824 H   0  0  0  0  0  0  0  0  0  0  0  0
   62.3616   34.8611   48.8641 H   0  0  0  0  0  0  0  0  0  0  0  0
   63.3106   33.7178   46.7214 H   0  0  0  0  0  0  0  0  0  0  0  0
   64.2741   33.8883   48.2450 H   0  0  0  0  0  0  0  0  0  0  0  0
   61.6825   32.7665   45.9924 H   0  0  0  0  0  0  0  0  0  0  0  0
   59.5991   32.9045   44.6299 H   0  0  0  0  0  0  0  0  0  0  0  0
   57.6779   35.1527   47.7855 H   0  0  0  0  0  0  0  0  0  0  0  0
   59.7496   35.0152   49.1596 H   0  0  0  0  0  0  0  0  0  0  0  0
   59.7918   31.6983   47.3885 H   0  0  0  0  0  0  0  0  0  0  0  0
   59.6672   29.3847   46.4745 H   0  0  0  0  0  0  0  0  0  0  0  0
  1  2  1  0
  2  3  1  0
  3  4  2  0
  3  5  1  0
  5  6  1  0
  6  7  2  0
  6  8  1  0
  8  9  1  0
  9 10  1  0
 10 11  1  0
 11 12  1  0
 12 13  2  0
 13 14  1  0
 14 15  2  0
 15 16  1  0
 16 17  1  0
 17 18  1  0
 18 19  1  0
 19 20  1  0
 20 21  1  0
 21 22  1  0
 22 23  1  0
 17 24  1  0
 24 25  1  0
 25 26  1  0
 26 27  2  0
 26 28  1  0
 24 29  1  0
 29 30  2  0
 30 31  1  0
 31 32  2  0
 32 33  1  0
 32 34  1  0
 34 35  2  0
 15 36  1  0
 36 37  2  0
  8 38  1  0
 38 39  2  0
 38  2  1  0
 37 12  1  0
 23 19  1  0
 35 29  1  0
  1 40  1  0
  1 41  1  0
  1 42  1  0
  9 43  1  0
  9 44  1  0
 10 45  1  0
 10 46  1  0
 13 47  1  0
 14 48  1  0
 16 49  1  0
 16 50  1  0
 17 51  1  6
 18 52  1  0
 18 53  1  0
 19 54  1  0
 20 55  1  0
 20 56  1  0
 21 57  1  0
 21 58  1  0
 22 59  1  0
 22 60  1  0
 23 61  1  0
 23 62  1  0
 24 63  1  1
 25 64  1  0
 25 65  1  0
 30 66  1  0
 31 67  1  0
 34 68  1  0
 35 69  1  0
 36 70  1  0
 37 71  1  0
M  CHG  3   5  -1  17   1  28  -1
M  END
>  <UniqueID>  (56) 
53

>  <SMILES>  (56) 
Cn1c(=O)[n-]c(=O)n(CCOc2ccc(C[N@H+](CC3CCCC3)[C@@H](CC(=O)[O-])c3ccc(Cl)cc3)cc2)c1=O

>  <Energy>  (56) 
98.24404229854463

>  <Genealogy>  (56) 
Cn1c(=O)[n-]c(=O)n(CCOc2ccc(C[NH+](CC3CCCC3)C(CC(=O)[O-])c3ccc(Cl)cc3)cc2)c1=O (protonated)
Cn1c(=O)[n-]c(=O)n(CCOc2ccc(C[N@H+](CC3CCCC3)[C@@H](CC(=O)[O-])c3ccc(Cl)cc3)cc2)c1=O (chirality)
Cn1c(=O)[n-]c(=O)n(CCOc2ccc(C[N@H+](CC3CCCC3)[C@@H](CC(=O)[O-])c3ccc(Cl)cc3)cc2)c1=O (3D coordinates assigned)
Cn1c(=O)[n-]c(=O)n(CCOc2ccc(C[N@H+](CC3CCCC3)[C@@H](CC(=O)[O-])c3ccc(Cl)cc3)cc2)c1=O (nonaromatic ring conformer: 98.24404229854463 kcal/mol)

>  <smiles>  (56) 
Cn1c(=O)[nH]c(=O)n(CCOc2ccc(CN(CC3CCCC3)C(CC(=O)O)c3ccc(Cl)cc3)cc2)c1=O

>  <score_type>  (56) 
oracle

>  <origin>  (56) 
adg

>  <m_score__min__energy>  (56) 
-10.779999999999999

>  <m_primary>  (56) 
energy

$$$$
56:0
     RDKit          3D

 31 32  0  0  0  0  0  0  0  0999 V2000
   58.0240   26.9930   42.8050 C   0  0  0  0  0  0  0  0  0  0  0  0
   58.5510   27.0280   44.0320 C   0  0  0  0  0  0  0  0  0  0  0  0
   58.1270   26.0690   45.1060 C   0  0  0  0  0  0  0  0  0  0  0  0
   57.8040   26.9490   46.6740 S   0  0  0  0  0  0  0  0  0  0  0  0
   57.3700   28.5140   45.8960 C   0  0  0  0  0  0  0  0  0  0  0  0
   56.3120   28.5460   45.1390 N   0  0  0  0  0  0  0  0  0  0  0  0
   55.8840   29.7490   44.4950 C   0  0  0  0  0  0  0  0  0  0  0  0
   54.7750   29.7890   43.9020 O   0  0  0  0  0  0  0  0  0  0  0  0
   56.7210   30.9020   44.5330 N   0  0  0  0  0  0  0  0  0  0  0  0
   58.0810   30.7810   45.0490 C   0  0  1  0  0  0  0  0  0  0  0  0
   58.5960   32.1500   45.4360 C   0  0  0  0  0  0  0  0  0  0  0  0
   57.8530   33.2970   45.1170 C   0  0  0  0  0  0  0  0  0  0  0  0
   58.3530   34.5550   45.4560 C   0  0  0  0  0  0  0  0  0  0  0  0
   59.5840   34.6630   46.1000 C   0  0  0  0  0  0  0  0  0  0  0  0
   60.3050   33.5040   46.3960 C   0  0  0  0  0  0  0  0  0  0  0  0
   61.9990   33.6370   47.2690 Br  0  0  0  0  0  0  0  0  0  0  0  0
   59.8050   32.2820   46.0590 N   0  0  0  0  0  0  0  0  0  0  0  0
   58.1040   29.8020   46.2480 C   0  0  2  0  0  0  0  0  0  0  0  0
   59.4910   29.5460   46.6760 C   0  0  0  0  0  0  0  0  0  0  0  0
   60.5790   29.3420   47.0180 N   0  0  0  0  0  0  0  0  0  0  0  0
   58.3584   27.7114   42.0421 H   0  0  0  0  0  0  0  0  0  0  0  0
   57.2556   26.2458   42.5576 H   0  0  0  0  0  0  0  0  0  0  0  0
   59.3183   27.7819   44.2621 H   0  0  0  0  0  0  0  0  0  0  0  0
   57.2094   25.5532   44.7867 H   0  0  0  0  0  0  0  0  0  0  0  0
   58.9376   25.3438   45.2701 H   0  0  0  0  0  0  0  0  0  0  0  0
   58.7434   30.3727   44.2714 H   0  0  0  0  0  0  0  0  0  0  0  0
   56.8843   33.2052   44.6039 H   0  0  0  0  0  0  0  0  0  0  0  0
   57.7762   35.4601   45.2152 H   0  0  0  0  0  0  0  0  0  0  0  0
   59.9838   35.6509   46.3724 H   0  0  0  0  0  0  0  0  0  0  0  0
   60.3680   31.4310   46.2860 H   0  0  0  0  0  0  0  0  0  0  0  0
   57.5763   30.2610   47.0971 H   0  0  0  0  0  0  0  0  0  0  0  0
  1  2  2  0
  2  3  1  0
  3  4  1  0
  4  5  1  0
  5  6  2  0
  6  7  1  0
  7  8  2  0
  7  9  1  0
  9 10  1  0
 10 11  1  0
 11 12  2  0
 12 13  1  0
 13 14  2  0
 14 15  1  0
 15 16  1  0
 15 17  2  0
 10 18  1  0
 18 19  1  0
 19 20  3  0
 18  5  1  0
 17 11  1  0
  1 21  1  0
  1 22  1  0
  2 23  1  0
  3 24  1  0
  3 25  1  0
 10 26  1  6
 12 27  1  0
 13 28  1  0
 14 29  1  0
 17 30  1  0
 18 31  1  1
M  CHG  2   9  -1  17   1
M  END
>  <UniqueID>  (57) 
54

>  <SMILES>  (57) 
C=CCSC1=NC(=O)[N-][C@@H](c2cccc(Br)[nH+]2)[C@@H]1C#N

>  <Energy>  (57) 
25.05028309429717

>  <Genealogy>  (57) 
C=CCSC1=NC(=O)[N-]C(c2cccc(Br)[nH+]2)C1C#N (protonated)
C=CCSC1=NC(=O)[N-][C@@H](c2cccc(Br)[nH+]2)[C@@H]1C#N (chirality)
C=CCSC1=NC(=O)[N-][C@@H](c2cccc(Br)[nH+]2)[C@@H]1C#N (3D coordinates assigned)
C=CCSC1=NC(=O)[N-][C@@H](c2cccc(Br)[nH+]2)[C@@H]1C#N (nonaromatic ring conformer: 25.05028309429717 kcal/mol)

>  <smiles>  (57) 
C=CCSC1=NC(=O)NC(c2cccc(Br)n2)C1C#N

>  <score_type>  (57) 
oracle

>  <origin>  (57) 
adg

>  <m_score__min__energy>  (57) 
-7.54

>  <m_primary>  (57) 
energy

$$$$
57:0
     RDKit          3D

 31 32  0  0  0  0  0  0  0  0999 V2000
   60.0273   26.4729   46.5462 H   0  0  0  0  0  0  0  0  0  0  0  0
   58.9370   26.5010   46.4030 C   0  0  0  0  0  0  0  0  0  0  0  0
   58.3740   27.4890   45.6580 N   0  0  0  0  0  0  0  0  0  0  0  0
   57.0320   27.5760   45.4410 C   0  0  0  0  0  0  0  0  0  0  0  0
   56.6040   28.5600   44.7000 N   0  0  0  0  0  0  0  0  0  0  0  0
   56.6930   29.9750   44.9230 C   0  0  0  0  0  0  0  0  0  0  0  0
   55.6840   30.7080   44.7440 O   0  0  0  0  0  0  0  0  0  0  0  0
   57.9230   30.5820   45.3430 N   0  0  0  0  0  0  0  0  0  0  0  0
   58.1970   31.8450   45.5180 C   0  0  0  0  0  0  0  0  0  0  0  0
   58.9570   32.1930   46.5930 N   0  0  0  0  0  0  0  0  0  0  0  0
   59.2930   33.4830   46.8700 C   0  0  0  0  0  0  0  0  0  0  0  0
   60.0960   33.7980   48.0080 N   0  0  0  0  0  0  0  0  0  0  0  0
   61.8150   33.5780   48.0360 S   0  0  0  0  0  0  0  0  0  0  0  0
   62.1200   32.1770   48.4830 O   0  0  0  0  0  0  0  0  0  0  0  0
   62.4340   34.5470   49.0030 O   0  0  0  0  0  0  0  0  0  0  0  0
   62.4830   33.8290   46.4060 C   0  0  0  0  0  0  0  0  0  0  0  0
   63.5100   34.2149   46.4860 H   0  0  0  0  0  0  0  0  0  0  0  0
   62.4919   32.8729   45.8621 H   0  0  0  0  0  0  0  0  0  0  0  0
   61.8601   34.5544   45.8621 H   0  0  0  0  0  0  0  0  0  0  0  0
   58.8460   34.5080   46.0350 C   0  0  0  0  0  0  0  0  0  0  0  0
   59.1205   35.5529   46.2419 H   0  0  0  0  0  0  0  0  0  0  0  0
   58.0480   34.1940   44.9360 C   0  0  0  0  0  0  0  0  0  0  0  0
   57.6824   34.9947   44.2764 H   0  0  0  0  0  0  0  0  0  0  0  0
   57.7120   32.8650   44.6710 C   0  0  0  0  0  0  0  0  0  0  0  0
   57.0750   32.6149   43.8098 H   0  0  0  0  0  0  0  0  0  0  0  0
   56.1820   26.6220   46.0610 C   0  0  0  0  0  0  0  0  0  0  0  0
   54.7970   26.7030   45.9980 O   0  0  0  0  0  0  0  0  0  0  0  0
   56.7510   25.5900   46.8150 C   0  0  0  0  0  0  0  0  0  0  0  0
   56.1053   24.8277   47.2754 H   0  0  0  0  0  0  0  0  0  0  0  0
   58.1320   25.5240   46.9850 C   0  0  0  0  0  0  0  0  0  0  0  0
   58.5819   24.7098   47.5721 H   0  0  0  0  0  0  0  0  0  0  0  0
  1  2  1  0
  2  3  1  0
  3  4  1  0
  4  5  2  0
  5  6  1  0
  6  7  2  0
  6  8  1  0
  8  9  2  3
  9 10  1  0
 10 11  1  0
 11 12  1  0
 12 13  1  0
 13 14  2  0
 13 15  2  0
 13 16  1  0
 16 17  1  0
 16 18  1  0
 16 19  1  0
 11 20  2  0
 20 21  1  0
 20 22  1  0
 22 23  1  0
 22 24  2  0
 24 25  1  0
  4 26  1  0
 26 27  1  0
 26 28  2  0
 28 29  1  0
 28 30  1  0
 30 31  1  0
 30  2  2  0
 24  9  1  0
M  CHG  4   3  -1  10  -1  12  -1  27  -1
M  END
>  <UniqueID>  (58) 
55

>  <SMILES>  (58) 
CS(=O)(=O)[N-]c1cccc(=NC(=O)/N=c2/[n-]cccc2[O-])[n-]1

>  <Energy>  (58) 
50.18855201507849

>  <Genealogy>  (58) 
CS(=O)(=O)[N-]c1cccc(=NC(=O)N=c2[n-]cccc2[O-])[n-]1 (protonated)
CS(=O)(=O)[N-]c1cccc(=NC(=O)/N=c2/[n-]cccc2[O-])[n-]1 (cis-trans isomerization)
CS(=O)(=O)[N-]c1cccc(=NC(=O)/N=c2/[n-]cccc2[O-])[n-]1 (3D coordinates assigned)
CS(=O)(=O)[N-]c1cccc(=NC(=O)/N=c2/[n-]cccc2[O-])[n-]1 (optimized conformer: 50.18855201507849 kcal/mol)

>  <smiles>  (58) 
CS(=O)(=O)Nc1cccc(=NC(=O)N=c2[nH]cccc2O)[nH]1

>  <score_type>  (58) 
oracle

>  <origin>  (58) 
adg

>  <m_score__min__energy>  (58) 
-14.59

>  <m_primary>  (58) 
energy

$$$$
58:0
     RDKit          3D

 36 38  0  0  0  0  0  0  0  0999 V2000
   56.7419   30.7165   52.8426 H   0  0  0  0  0  0  0  0  0  0  0  0
   57.3860   30.9140   51.9730 C   0  0  0  0  0  0  0  0  0  0  0  0
   57.7420   30.0210   51.0780 O   0  0  0  0  0  0  0  0  0  0  0  0
   58.5090   30.6050   50.1880 C   0  0  0  0  0  0  0  0  0  0  0  0
   59.0930   29.9110   49.0360 C   0  0  0  0  0  0  0  0  0  0  0  0
   60.3210   29.6230   49.0300 O   0  0  0  0  0  0  0  0  0  0  0  0
   58.2560   29.5290   47.9820 O   0  0  0  0  0  0  0  0  0  0  0  0
   58.4910   28.4790   47.0830 C   0  0  0  0  0  0  0  0  0  0  0  0
   59.5190   27.5390   47.3000 C   0  0  0  0  0  0  0  0  0  0  0  0
   60.1769   27.6417   48.1755 H   0  0  0  0  0  0  0  0  0  0  0  0
   59.7080   26.4790   46.4120 C   0  0  0  0  0  0  0  0  0  0  0  0
   60.5112   25.7490   46.5911 H   0  0  0  0  0  0  0  0  0  0  0  0
   58.8800   26.3440   45.2980 C   0  0  0  0  0  0  0  0  0  0  0  0
   59.0177   25.4966   44.6103 H   0  0  0  0  0  0  0  0  0  0  0  0
   57.8770   27.2830   45.0550 C   0  0  0  0  0  0  0  0  0  0  0  0
   57.2227   27.1674   44.1784 H   0  0  0  0  0  0  0  0  0  0  0  0
   57.6960   28.3720   45.9180 C   0  0  0  0  0  0  0  0  0  0  0  0
   56.6630   29.3200   45.6070 N   0  0  0  0  0  0  0  0  0  0  0  0
   56.6060   30.1770   44.4580 C   0  0  0  0  0  0  0  0  0  0  0  0
   56.5080   29.6570   43.3170 O   0  0  0  0  0  0  0  0  0  0  0  0
   56.6120   31.6080   44.5730 N   0  0  0  0  0  0  0  0  0  0  0  0
   57.4530   32.3510   45.2390 C   0  0  0  0  0  0  0  0  0  0  0  0
   57.7150   33.6930   44.8900 C   0  0  0  0  0  0  0  0  0  0  0  0
   57.1993   34.1529   44.0341 H   0  0  0  0  0  0  0  0  0  0  0  0
   58.6320   34.4330   45.6370 C   0  0  0  0  0  0  0  0  0  0  0  0
   58.8495   35.4765   45.3653 H   0  0  0  0  0  0  0  0  0  0  0  0
   59.2720   33.8480   46.7280 C   0  0  0  0  0  0  0  0  0  0  0  0
   60.0027   34.4217   47.3171 H   0  0  0  0  0  0  0  0  0  0  0  0
   58.9760   32.5270   47.0650 C   0  0  0  0  0  0  0  0  0  0  0  0
   59.4692   32.0582   47.9293 H   0  0  0  0  0  0  0  0  0  0  0  0
   58.0790   31.8160   46.3280 N   0  0  0  0  0  0  0  0  0  0  0  0
   57.8820   30.8270   46.6030 H   0  0  0  0  0  0  0  0  0  0  0  0
   58.6700   31.9400   50.5030 C   0  0  0  0  0  0  0  0  0  0  0  0
   59.2558   32.6884   49.9492 H   0  0  0  0  0  0  0  0  0  0  0  0
   57.9420   32.1380   51.6580 C   0  0  0  0  0  0  0  0  0  0  0  0
   57.8277   33.0797   52.2149 H   0  0  0  0  0  0  0  0  0  0  0  0
  1  2  1  0
  2  3  1  0
  3  4  1  0
  4  5  1  0
  5  6  2  0
  5  7  1  0
  7  8  1  0
  8  9  2  0
  9 10  1  0
  9 11  1  0
 11 12  1  0
 11 13  2  0
 13 14  1  0
 13 15  1  0
 15 16  1  0
 15 17  2  0
 17 18  1  0
 18 19  1  0
 19 20  2  0
 19 21  1  0
 21 22  2  0
 22 23  1  0
 23 24  1  0
 23 25  2  0
 25 26  1  0
 25 27  1  0
 27 28  1  0
 27 29  2  0
 29 30  1  0
 29 31  1  0
 31 32  1  0
  4 33  2  0
 33 34  1  0
 33 35  1  0
 35 36  1  0
 35  2  2  0
 17  8  1  0
 31 22  1  0
M  CHG  1  18  -1
M  END
>  <UniqueID>  (59) 
56

>  <SMILES>  (59) 
O=C(/N=c1\cccc[nH]1)[N-]c1ccccc1OC(=O)c1ccco1

>  <Energy>  (59) 
80.57310730613511

>  <Genealogy>  (59) 
O=C(N=c1cccc[nH]1)[N-]c1ccccc1OC(=O)c1ccco1 (protonated)
O=C(/N=c1\cccc[nH]1)[N-]c1ccccc1OC(=O)c1ccco1 (cis-trans isomerization)
O=C(/N=c1\cccc[nH]1)[N-]c1ccccc1OC(=O)c1ccco1 (3D coordinates assigned)
O=C(/N=c1\cccc[nH]1)[N-]c1ccccc1OC(=O)c1ccco1 (optimized conformer: 80.57310730613511 kcal/mol)

>  <smiles>  (59) 
O=C(N=c1cccc[nH]1)Nc1ccccc1OC(=O)c1ccco1

>  <score_type>  (59) 
oracle

>  <origin>  (59) 
adg

>  <m_score__min__energy>  (59) 
-9.1699999999999999

>  <m_primary>  (59) 
energy

$$$$
59:0
     RDKit          3D

 40 41  0  0  0  0  0  0  0  0999 V2000
   58.8300   22.4370   44.4920 C   0  0  0  0  0  0  0  0  0  0  0  0
   57.3290   22.4190   44.1660 C   0  0  0  0  0  0  0  0  0  0  0  0
   57.0410   21.2440   43.2120 C   0  0  0  0  0  0  0  0  0  0  0  0
   56.9470   23.7590   43.5080 C   0  0  0  0  0  0  0  0  0  0  0  0
   56.6270   22.2470   45.4070 O   0  0  0  0  0  0  0  0  0  0  0  0
   57.1790   22.3340   46.6930 C   0  0  0  0  0  0  0  0  0  0  0  0
   57.3720   21.2970   47.3820 O   0  0  0  0  0  0  0  0  0  0  0  0
   57.4350   23.6370   47.2380 N   0  0  0  0  0  0  0  0  0  0  0  0
   57.1940   24.8090   46.7180 C   0  0  0  0  0  0  0  0  0  0  0  0
   58.2110   25.6930   46.3010 C   0  0  0  0  0  0  0  0  0  0  0  0
   57.8650   26.9280   45.7490 C   0  0  0  0  0  0  0  0  0  0  0  0
   56.5230   27.2950   45.6210 C   0  0  0  0  0  0  0  0  0  0  0  0
   56.2010   28.5590   45.0150 N   0  0  0  0  0  0  0  0  0  0  0  0
   56.7900   29.7000   45.2240 C   0  0  0  0  0  0  0  0  0  0  0  0
   56.4100   30.7820   44.4990 N   0  0  0  0  0  0  0  0  0  0  0  0
   57.0140   31.9870   44.6620 C   0  0  0  0  0  0  0  0  0  0  0  0
   58.0650   32.1350   45.5770 C   0  0  0  0  0  0  0  0  0  0  0  0
   58.7200   33.4550   45.7400 C   0  0  0  0  0  0  0  0  0  0  0  0
   59.9870   33.5840   46.3910 N   0  0  0  0  0  0  0  0  0  0  0  0
   58.1680   34.4850   45.2670 O   0  0  0  0  0  0  0  0  0  0  0  0
   58.4380   31.0020   46.3260 C   0  0  0  0  0  0  0  0  0  0  0  0
   59.3400   31.0710   47.2040 O   0  0  0  0  0  0  0  0  0  0  0  0
   57.8020   29.8190   46.1260 N   0  0  0  0  0  0  0  0  0  0  0  0
   55.5380   26.3690   45.9990 C   0  0  0  0  0  0  0  0  0  0  0  0
   55.8950   25.1710   46.5310 N   0  0  0  0  0  0  0  0  0  0  0  0
   58.9682   22.4387   45.5833 H   0  0  0  0  0  0  0  0  0  0  0  0
   59.3091   21.5445   44.0631 H   0  0  0  0  0  0  0  0  0  0  0  0
   59.2876   23.3407   44.0631 H   0  0  0  0  0  0  0  0  0  0  0  0
   56.8196   20.3407   43.7993 H   0  0  0  0  0  0  0  0  0  0  0  0
   56.1766   21.4900   42.5778 H   0  0  0  0  0  0  0  0  0  0  0  0
   57.9212   21.0624   42.5778 H   0  0  0  0  0  0  0  0  0  0  0  0
   56.7347   24.5037   44.2892 H   0  0  0  0  0  0  0  0  0  0  0  0
   57.7805   24.1111   42.8825 H   0  0  0  0  0  0  0  0  0  0  0  0
   56.0531   23.6187   42.8825 H   0  0  0  0  0  0  0  0  0  0  0  0
   59.2688   25.4115   46.4099 H   0  0  0  0  0  0  0  0  0  0  0  0
   58.6542   27.6165   45.4127 H   0  0  0  0  0  0  0  0  0  0  0  0
   56.6764   32.8521   44.0724 H   0  0  0  0  0  0  0  0  0  0  0  0
   60.5630   32.7470   46.6300 H   0  0  0  0  0  0  0  0  0  0  0  0
   60.3990   34.5300   46.5460 H   0  0  0  0  0  0  0  0  0  0  0  0
   54.4742   26.6141   45.8641 H   0  0  0  0  0  0  0  0  0  0  0  0
  1  2  1  0
  2  3  1  0
  2  4  1  0
  2  5  1  0
  5  6  1  0
  6  7  2  0
  6  8  1  0
  8  9  2  3
  9 10  1  0
 10 11  2  0
 11 12  1  0
 12 13  1  0
 13 14  2  3
 14 15  1  0
 15 16  1  0
 16 17  2  0
 17 18  1  0
 18 19  1  0
 18 20  2  0
 17 21  1  0
 21 22  2  0
 21 23  1  0
 12 24  2  0
 24 25  1  0
 25  9  1  0
 23 14  1  0
  1 26  1  0
  1 27  1  0
  1 28  1  0
  3 29  1  0
  3 30  1  0
  3 31  1  0
  4 32  1  0
  4 33  1  0
  4 34  1  0
 10 35  1  0
 11 36  1  0
 16 37  1  0
 19 38  1  0
 19 39  1  0
 24 40  1  0
M  CHG  3  15  -1  23  -1  25  -1
M  END
>  <UniqueID>  (60) 
57

>  <SMILES>  (60) 
CC(C)(C)OC(=O)N=c1ccc(N=c2[n-]cc(C(N)=O)c(=O)[n-]2)c[n-]1

>  <Energy>  (60) 
54.852333835527965

>  <Genealogy>  (60) 
CC(C)(C)OC(=O)N=c1ccc(N=c2[n-]cc(C(N)=O)c(=O)[n-]2)c[n-]1 (protonated)
CC(C)(C)OC(=O)N=c1ccc(N=c2[n-]cc(C(N)=O)c(=O)[n-]2)c[n-]1 (3D coordinates assigned)
CC(C)(C)OC(=O)N=c1ccc(N=c2[n-]cc(C(N)=O)c(=O)[n-]2)c[n-]1 (optimized conformer: 54.852333835527965 kcal/mol)

>  <smiles>  (60) 
CC(C)(C)OC(=O)N=c1ccc(N=c2[nH]cc(C(N)=O)c(=O)[nH]2)c[nH]1

>  <score_type>  (60) 
oracle

>  <origin>  (60) 
adg

>  <m_score__min__energy>  (60) 
-11.720000000000001

>  <m_primary>  (60) 
energy

$$$$
60:0
     RDKit          3D

 32 34  0  0  0  0  0  0  0  0999 V2000
   56.0900   30.0670   42.9950 O   0  0  0  0  0  0  0  0  0  0  0  0
   56.2960   30.0100   44.2370 C   0  0  0  0  0  0  0  0  0  0  0  0
   55.6520   28.9740   44.9890 N   0  0  0  0  0  0  0  0  0  0  0  0
   56.3070   27.8550   45.5980 C   0  0  0  0  0  0  0  0  0  0  0  0
   57.6640   27.7420   45.7870 C   0  0  0  0  0  0  0  0  0  0  0  0
   57.8440   26.4930   46.3510 C   0  0  0  0  0  0  0  0  0  0  0  0
   59.0720   25.9600   46.7240 O   0  0  0  0  0  0  0  0  0  0  0  0
   56.6790   25.8260   46.5000 N   0  0  0  0  0  0  0  0  0  0  0  0
   55.7420   26.6690   46.0260 C   0  0  0  0  0  0  0  0  0  0  0  0
   54.3940   26.3400   45.9550 O   0  0  0  0  0  0  0  0  0  0  0  0
   57.2340   30.9710   44.8630 C   0  0  0  0  0  0  0  0  0  0  0  0
   56.9730   32.3500   44.8050 C   0  0  0  0  0  0  0  0  0  0  0  0
   57.8580   33.2630   45.3840 C   0  0  0  0  0  0  0  0  0  0  0  0
   59.0140   32.8120   46.0250 C   0  0  0  0  0  0  0  0  0  0  0  0
   59.2920   31.4380   46.0930 C   0  0  0  0  0  0  0  0  0  0  0  0
   60.5570   30.9520   46.7430 C   0  0  0  0  0  0  0  0  0  0  0  0
   60.2390   29.9180   47.7780 C   0  0  0  0  0  0  0  0  0  0  0  0
   59.5790   30.1390   48.9660 C   0  0  0  0  0  0  0  0  0  0  0  0
   59.4160   28.9640   49.5990 N   0  0  0  0  0  0  0  0  0  0  0  0
   59.9790   28.0730   48.7590 C   0  0  0  0  0  0  0  0  0  0  0  0
   60.0220   26.8390   49.0070 O   0  0  0  0  0  0  0  0  0  0  0  0
   60.4880   28.6050   47.6300 N   0  0  0  0  0  0  0  0  0  0  0  0
   58.4090   30.5240   45.4950 C   0  0  0  0  0  0  0  0  0  0  0  0
   58.4382   28.4842   45.5425 H   0  0  0  0  0  0  0  0  0  0  0  0
   59.7810   26.5410   47.1560 H   0  0  0  0  0  0  0  0  0  0  0  0
   56.0657   32.7135   44.3003 H   0  0  0  0  0  0  0  0  0  0  0  0
   57.6436   34.3408   45.3348 H   0  0  0  0  0  0  0  0  0  0  0  0
   59.7082   33.5354   46.4776 H   0  0  0  0  0  0  0  0  0  0  0  0
   61.2131   30.5113   45.9779 H   0  0  0  0  0  0  0  0  0  0  0  0
   61.0630   31.8011   47.2258 H   0  0  0  0  0  0  0  0  0  0  0  0
   59.2402   31.1176   49.3369 H   0  0  0  0  0  0  0  0  0  0  0  0
   58.6382   29.4485   45.5210 H   0  0  0  0  0  0  0  0  0  0  0  0
  1  2  2  0
  2  3  1  0
  3  4  1  0
  4  5  1  0
  5  6  2  0
  6  7  1  0
  6  8  1  0
  8  9  1  0
  9 10  1  0
  2 11  1  0
 11 12  2  0
 12 13  1  0
 13 14  2  0
 14 15  1  0
 15 16  1  0
 16 17  1  0
 17 18  2  0
 18 19  1  0
 19 20  1  0
 20 21  2  0
 20 22  1  0
 15 23  2  0
  9  4  2  0
 23 11  1  0
 22 17  1  0
  5 24  1  0
  7 25  1  0
 12 26  1  0
 13 27  1  0
 14 28  1  0
 16 29  1  0
 16 30  1  0
 18 31  1  0
 23 32  1  0
M  CHG  5   3  -1   8  -1  10  -1  19  -1  22  -1
M  END
>  <UniqueID>  (61) 
58

>  <SMILES>  (61) 
O=C([N-]c1cc(O)[n-]c1[O-])c1cccc(Cc2c[n-]c(=O)[n-]2)c1

>  <Energy>  (61) 
94.1441872821172

>  <Genealogy>  (61) 
O=C([N-]c1cc(O)[n-]c1[O-])c1cccc(Cc2c[n-]c(=O)[n-]2)c1 (protonated)
O=C([N-]c1cc(O)[n-]c1[O-])c1cccc(Cc2c[n-]c(=O)[n-]2)c1 (3D coordinates assigned)
O=C([N-]c1cc(O)[n-]c1[O-])c1cccc(Cc2c[n-]c(=O)[n-]2)c1 (optimized conformer: 94.1441872821172 kcal/mol)

>  <smiles>  (61) 
O=C(Nc1cc(O)[nH]c1O)c1cccc(Cc2c[nH]c(=O)[nH]2)c1

>  <score_type>  (61) 
oracle

>  <origin>  (61) 
adg

>  <m_score__min__energy>  (61) 
-16.239999999999998

>  <m_primary>  (61) 
energy

$$$$
61:0
     RDKit          3D

 43 44  0  0  0  0  0  0  0  0999 V2000
   64.5040   33.2810   48.9450 C   0  0  0  0  0  0  0  0  0  0  0  0
   63.7790   33.4710   47.6170 C   0  0  0  0  0  0  0  0  0  0  0  0
   62.6100   32.5390   47.5150 C   0  0  0  0  0  0  0  0  0  0  0  0
   61.7510   32.7230   46.6120 O   0  0  0  0  0  0  0  0  0  0  0  0
   62.5250   31.3990   48.3860 N   0  0  0  0  0  0  0  0  0  0  0  0
   61.3740   30.5420   48.4840 C   0  0  0  0  0  0  0  0  0  0  0  0
   60.8070   30.2150   49.7280 C   0  0  0  0  0  0  0  0  0  0  0  0
   59.6970   29.3710   49.7950 C   0  0  0  0  0  0  0  0  0  0  0  0
   59.1560   28.8280   48.6280 C   0  0  0  0  0  0  0  0  0  0  0  0
   59.7330   29.1070   47.3810 C   0  0  0  0  0  0  0  0  0  0  0  0
   59.1550   28.5410   46.1920 N   0  0  0  0  0  0  0  0  0  0  0  0
   58.3350   29.2790   45.2730 C   0  0  0  0  0  0  0  0  0  0  0  0
   57.4180   28.4440   44.1970 S   0  0  0  0  0  0  0  0  0  0  0  0
   58.5270   30.6950   45.1150 N   0  0  0  0  0  0  0  0  0  0  0  0
   57.5010   31.6060   44.6910 C   0  0  0  0  0  0  0  0  0  0  0  0
   56.3180   31.2080   44.5140 O   0  0  0  0  0  0  0  0  0  0  0  0
   57.8350   33.0470   44.4490 C   0  0  0  0  0  0  0  0  0  0  0  0
   57.3330   33.9140   45.6060 C   0  0  0  0  0  0  0  0  0  0  0  0
   58.2960   33.8710   46.7500 C   0  0  0  0  0  0  0  0  0  0  0  0
   59.2540   34.8330   47.0440 C   0  0  0  0  0  0  0  0  0  0  0  0
   59.9620   34.5610   48.2200 C   0  0  0  0  0  0  0  0  0  0  0  0
   59.5560   33.3960   48.8590 C   0  0  0  0  0  0  0  0  0  0  0  0
   58.3130   32.7060   47.9620 S   0  0  0  0  0  0  0  0  0  0  0  0
   60.8380   29.9770   47.3170 C   0  0  0  0  0  0  0  0  0  0  0  0
   63.8046   33.4643   49.7740 H   0  0  0  0  0  0  0  0  0  0  0  0
   64.8875   32.2520   49.0095 H   0  0  0  0  0  0  0  0  0  0  0  0
   65.3429   33.9896   49.0095 H   0  0  0  0  0  0  0  0  0  0  0  0
   63.4210   34.5087   47.5460 H   0  0  0  0  0  0  0  0  0  0  0  0
   64.4788   33.2524   46.7970 H   0  0  0  0  0  0  0  0  0  0  0  0
   63.3850   31.1280   48.9160 H   0  0  0  0  0  0  0  0  0  0  0  0
   61.2396   30.6257   50.6522 H   0  0  0  0  0  0  0  0  0  0  0  0
   59.2472   29.1330   50.7702 H   0  0  0  0  0  0  0  0  0  0  0  0
   58.2713   28.1770   48.6873 H   0  0  0  0  0  0  0  0  0  0  0  0
   59.3610   27.5400   45.9750 H   0  0  0  0  0  0  0  0  0  0  0  0
   59.4510   31.0950   45.3920 H   0  0  0  0  0  0  0  0  0  0  0  0
   58.9261   33.1562   44.3615 H   0  0  0  0  0  0  0  0  0  0  0  0
   57.3459   33.3749   43.5199 H   0  0  0  0  0  0  0  0  0  0  0  0
   57.2278   34.9530   45.2604 H   0  0  0  0  0  0  0  0  0  0  0  0
   56.3609   33.5264   45.9449 H   0  0  0  0  0  0  0  0  0  0  0  0
   59.4373   35.7178   46.4167 H   0  0  0  0  0  0  0  0  0  0  0  0
   60.7646   35.2087   48.6026 H   0  0  0  0  0  0  0  0  0  0  0  0
   59.9762   32.9938   49.7926 H   0  0  0  0  0  0  0  0  0  0  0  0
   61.2861   30.2164   46.3413 H   0  0  0  0  0  0  0  0  0  0  0  0
  1  2  1  0
  2  3  1  0
  3  4  2  0
  3  5  1  0
  5  6  1  0
  6  7  2  0
  7  8  1  0
  8  9  2  0
  9 10  1  0
 10 11  1  0
 11 12  1  0
 12 13  2  0
 12 14  1  0
 14 15  1  0
 15 16  2  0
 15 17  1  0
 17 18  1  0
 18 19  1  0
 19 20  2  0
 20 21  1  0
 21 22  2  0
 22 23  1  0
 10 24  2  0
 24  6  1  0
 23 19  1  0
  1 25  1  0
  1 26  1  0
  1 27  1  0
  2 28  1  0
  2 29  1  0
  5 30  1  0
  7 31  1  0
  8 32  1  0
  9 33  1  0
 11 34  1  0
 14 35  1  0
 17 36  1  0
 17 37  1  0
 18 38  1  0
 18 39  1  0
 20 40  1  0
 21 41  1  0
 22 42  1  0
 24 43  1  0
M  END
>  <UniqueID>  (62) 
59

>  <SMILES>  (62) 
CCC(=O)Nc1cccc(NC(=S)NC(=O)CCc2cccs2)c1

>  <Energy>  (62) 
68.07487330433545

>  <Genealogy>  (62) 
CCC(=O)Nc1cccc(NC(=S)NC(=O)CCc2cccs2)c1 (3D coordinates assigned)
CCC(=O)Nc1cccc(NC(=S)NC(=O)CCc2cccs2)c1 (optimized conformer: 68.07487330433545 kcal/mol)

>  <smiles>  (62) 
CCC(=O)Nc1cccc(NC(=S)NC(=O)CCc2cccs2)c1

>  <score_type>  (62) 
oracle

>  <origin>  (62) 
adg

>  <m_score__min__energy>  (62) 
-8.6300000000000008

>  <m_primary>  (62) 
energy

$$$$
62:0
     RDKit          3D

 61 64  0  0  0  0  0  0  0  0999 V2000
   56.1270   30.7340   54.0590 H   0  0  0  0  0  0  0  0  0  0  0  0
   56.6510   31.5590   53.7900 O   0  0  0  0  0  0  0  0  0  0  0  0
   57.3870   31.5990   52.6080 C   0  0  0  0  0  0  0  0  0  0  0  0
   58.1240   32.7430   52.2670 C   0  0  0  0  0  0  0  0  0  0  0  0
   58.1182   33.6183   52.9332 H   0  0  0  0  0  0  0  0  0  0  0  0
   58.8660   32.7730   51.0820 C   0  0  0  0  0  0  0  0  0  0  0  0
   59.4335   33.6762   50.8134 H   0  0  0  0  0  0  0  0  0  0  0  0
   58.8890   31.6570   50.2360 C   0  0  0  0  0  0  0  0  0  0  0  0
   59.6660   31.7030   48.9840 C   0  0  0  0  0  0  0  0  0  0  0  0
   59.3723   32.4485   48.2303 H   0  0  0  0  0  0  0  0  0  0  0  0
   60.7060   30.9030   48.6940 C   0  0  0  0  0  0  0  0  0  0  0  0
   61.5509   30.9078   49.3984 H   0  0  0  0  0  0  0  0  0  0  0  0
   60.8200   30.0170   47.5160 C   0  0  0  0  0  0  0  0  0  0  0  0
   61.0490   30.5390   46.3920 O   0  0  0  0  0  0  0  0  0  0  0  0
   60.7460   28.5900   47.6460 N   0  0  0  0  0  0  0  0  0  0  0  0
   60.0200   27.6580   46.7760 C   0  0  2  0  0  0  0  0  0  0  0  0
   60.7497   26.9637   46.3340 H   0  0  0  0  0  0  0  0  0  0  0  0
   59.3990   28.3560   45.5890 C   0  0  0  0  0  0  0  0  0  0  0  0
   59.8500   28.1390   44.4310 O   0  0  0  0  0  0  0  0  0  0  0  0
   58.2630   29.2090   45.7710 N   0  0  0  0  0  0  0  0  0  0  0  0
   58.1220   30.5570   45.3060 C   0  0  0  0  0  0  0  0  0  0  0  0
   57.9170   30.8580   43.9490 C   0  0  0  0  0  0  0  0  0  0  0  0
   57.8888   30.0484   43.2048 H   0  0  0  0  0  0  0  0  0  0  0  0
   57.7490   32.1840   43.5440 C   0  0  0  0  0  0  0  0  0  0  0  0
   57.5973   32.4172   42.4798 H   0  0  0  0  0  0  0  0  0  0  0  0
   57.7730   33.2150   44.4860 C   0  0  0  0  0  0  0  0  0  0  0  0
   57.6451   34.2571   44.1578 H   0  0  0  0  0  0  0  0  0  0  0  0
   57.9590   32.9320   45.8480 C   0  0  0  0  0  0  0  0  0  0  0  0
   57.9690   34.0170   46.7980 N   0  0  0  0  0  0  0  0  0  0  0  0
   57.1980   34.0720   47.5010 H   0  0  0  0  0  0  0  0  0  0  0  0
   58.9750   35.0800   46.8300 C   0  0  0  0  0  0  0  0  0  0  0  0
   59.0411   35.5441   45.8349 H   0  0  0  0  0  0  0  0  0  0  0  0
   58.6761   35.8259   47.5812 H   0  0  0  0  0  0  0  0  0  0  0  0
   60.3170   34.5310   47.2060 C   0  0  0  0  0  0  0  0  0  0  0  0
   60.9840   34.5710   48.7490 S   0  0  0  0  0  0  0  0  0  0  0  0
   62.3930   33.7380   48.3600 C   0  0  0  0  0  0  0  0  0  0  0  0
   63.2108   33.4961   49.0547 H   0  0  0  0  0  0  0  0  0  0  0  0
   62.3470   33.4080   47.0120 C   0  0  0  0  0  0  0  0  0  0  0  0
   63.1489   32.8555   46.5004 H   0  0  0  0  0  0  0  0  0  0  0  0
   61.1850   33.8440   46.3650 C   0  0  0  0  0  0  0  0  0  0  0  0
   60.9795   33.6617   45.2998 H   0  0  0  0  0  0  0  0  0  0  0  0
   58.1280   31.5930   46.2470 C   0  0  0  0  0  0  0  0  0  0  0  0
   58.2666   31.3576   47.3125 H   0  0  0  0  0  0  0  0  0  0  0  0
   59.0530   26.7540   47.5820 C   0  0  0  0  0  0  0  0  0  0  0  0
   59.6522   25.9920   48.1019 H   0  0  0  0  0  0  0  0  0  0  0  0
   58.5063   27.4212   48.2646 H   0  0  0  0  0  0  0  0  0  0  0  0
   58.0040   26.0430   46.7570 C   0  0  0  0  0  0  0  0  0  0  0  0
   58.3250   24.8850   46.0270 C   0  0  0  0  0  0  0  0  0  0  0  0
   59.3508   24.4889   46.0544 H   0  0  0  0  0  0  0  0  0  0  0  0
   57.3500   24.2340   45.2670 C   0  0  0  0  0  0  0  0  0  0  0  0
   57.6125   23.3349   44.6902 H   0  0  0  0  0  0  0  0  0  0  0  0
   56.0420   24.7240   45.2390 C   0  0  0  0  0  0  0  0  0  0  0  0
   55.2780   24.2170   44.6313 H   0  0  0  0  0  0  0  0  0  0  0  0
   55.7040   25.8570   45.9820 C   0  0  0  0  0  0  0  0  0  0  0  0
   54.4000   26.3380   45.9630 O   0  0  0  0  0  0  0  0  0  0  0  0
   56.6780   26.5090   46.7460 C   0  0  0  0  0  0  0  0  0  0  0  0
   56.4042   27.3921   47.3420 H   0  0  0  0  0  0  0  0  0  0  0  0
   58.1260   30.5250   50.5630 C   0  0  0  0  0  0  0  0  0  0  0  0
   58.1077   29.6613   49.8821 H   0  0  0  0  0  0  0  0  0  0  0  0
   57.3890   30.4910   51.7510 C   0  0  0  0  0  0  0  0  0  0  0  0
   56.6570   29.3550   52.0770 O   0  0  0  0  0  0  0  0  0  0  0  0
  1  2  1  0
  2  3  1  0
  3  4  2  0
  4  5  1  0
  4  6  1  0
  6  7  1  0
  6  8  2  0
  8  9  1  0
  9 10  1  0
  9 11  2  0
 11 12  1  0
 11 13  1  0
 13 14  2  0
 13 15  1  0
 15 16  1  0
 16 17  1  6
 16 18  1  0
 18 19  2  0
 18 20  1  0
 20 21  1  0
 21 22  2  0
 22 23  1  0
 22 24  1  0
 24 25  1  0
 24 26  2  0
 26 27  1  0
 26 28  1  0
 28 29  1  0
 29 30  1  0
 29 31  1  0
 31 32  1  0
 31 33  1  0
 31 34  1  0
 34 35  1  0
 35 36  1  0
 36 37  1  0
 36 38  2  0
 38 39  1  0
 38 40  1  0
 40 41  1  0
 28 42  2  0
 42 43  1  0
 16 44  1  0
 44 45  1  0
 44 46  1  0
 44 47  1  0
 47 48  2  0
 48 49  1  0
 48 50  1  0
 50 51  1  0
 50 52  2  0
 52 53  1  0
 52 54  1  0
 54 55  1  0
 54 56  2  0
 56 57  1  0
  8 58  1  0
 58 59  1  0
 58 60  2  0
 60 61  1  0
 60  3  1  0
 42 21  1  0
 56 47  1  0
 40 34  2  0
M  CHG  4  15  -1  20  -1  55  -1  61  -1
M  END
>  <UniqueID>  (63) 
60

>  <SMILES>  (63) 
O=C(/C=C\c1ccc(O)c([O-])c1)[N-][C@@H](Cc1cccc([O-])c1)C(=O)[N-]c1cccc(NCc2cccs2)c1

>  <Energy>  (63) 
100.10938121629293

>  <Genealogy>  (63) 
O=C(C=Cc1ccc(O)c([O-])c1)[N-]C(Cc1cccc([O-])c1)C(=O)[N-]c1cccc(NCc2cccs2)c1 (protonated)
O=C(C=Cc1ccc(O)c([O-])c1)[N-][C@@H](Cc1cccc([O-])c1)C(=O)[N-]c1cccc(NCc2cccs2)c1 (chirality)
O=C(/C=C\c1ccc(O)c([O-])c1)[N-][C@@H](Cc1cccc([O-])c1)C(=O)[N-]c1cccc(NCc2cccs2)c1 (cis-trans isomerization)
O=C(/C=C\c1ccc(O)c([O-])c1)[N-][C@@H](Cc1cccc([O-])c1)C(=O)[N-]c1cccc(NCc2cccs2)c1 (3D coordinates assigned)
O=C(/C=C\c1ccc(O)c([O-])c1)[N-][C@@H](Cc1cccc([O-])c1)C(=O)[N-]c1cccc(NCc2cccs2)c1 (optimized conformer: 100.10938121629293 kcal/mol)

>  <smiles>  (63) 
O=C(C=Cc1ccc(O)c(O)c1)NC(Cc1cccc(O)c1)C(=O)Nc1cccc(NCc2cccs2)c1

>  <score_type>  (63) 
oracle

>  <origin>  (63) 
adg

>  <m_score__min__energy>  (63) 
-17.48

>  <m_primary>  (63) 
energy

$$$$
63:0
     RDKit          3D

 70 73  0  0  0  0  0  0  0  0999 V2000
   57.1810   31.5940   51.0010 N   0  0  0  0  0  0  0  0  0  0  0  0
   58.2490   32.3510   51.5830 C   0  0  0  0  0  0  0  0  0  0  0  0
   57.9300   33.4670   52.3730 C   0  0  0  0  0  0  0  0  0  0  0  0
   58.9320   34.1890   53.0220 C   0  0  0  0  0  0  0  0  0  0  0  0
   60.2670   33.8070   52.8910 C   0  0  0  0  0  0  0  0  0  0  0  0
   60.6050   32.7060   52.1050 C   0  0  0  0  0  0  0  0  0  0  0  0
   59.6110   31.9730   51.4280 C   0  0  0  0  0  0  0  0  0  0  0  0
   60.0370   30.8390   50.5780 C   0  0  0  0  0  0  0  0  0  0  0  0
   59.1800   30.1400   49.9700 O   0  0  0  0  0  0  0  0  0  0  0  0
   61.4010   30.5810   50.4140 O   0  0  0  0  0  0  0  0  0  0  0  0
   62.2880   31.4400   49.7020 C   0  0  0  0  0  0  0  0  0  0  0  0
   61.5600   32.0840   48.5400 C   0  0  0  0  0  0  0  0  0  0  0  0
   61.3020   33.3620   48.4920 N   0  0  0  0  0  0  0  0  0  0  0  0
   60.0270   34.0160   48.5140 C   0  0  0  0  0  0  0  0  0  0  0  0
   59.6310   34.5970   49.5610 O   0  0  0  0  0  0  0  0  0  0  0  0
   59.2050   34.0650   47.2840 C   0  0  0  0  0  0  0  0  0  0  0  0
   59.6570   34.7640   46.1490 C   0  0  0  0  0  0  0  0  0  0  0  0
   58.8630   34.8340   44.9980 C   0  0  0  0  0  0  0  0  0  0  0  0
   57.6130   34.2120   44.9690 C   0  0  0  0  0  0  0  0  0  0  0  0
   57.1530   33.5180   46.0900 C   0  0  0  0  0  0  0  0  0  0  0  0
   57.9450   33.4380   47.2410 C   0  0  0  0  0  0  0  0  0  0  0  0
   60.9600   31.2330   47.4850 C   0  0  0  0  0  0  0  0  0  0  0  0
   60.7280   31.7430   46.3540 O   0  0  0  0  0  0  0  0  0  0  0  0
   60.5990   29.8620   47.7360 N   0  0  0  0  0  0  0  0  0  0  0  0
   59.7150   29.1060   46.8380 C   0  0  2  0  0  0  0  0  0  0  0  0
   58.3010   29.7190   46.8560 C   0  0  0  0  0  0  0  0  0  0  0  0
   57.8090   30.0020   45.4590 C   0  0  0  0  0  0  0  0  0  0  0  0
   58.4950   30.9190   44.6430 C   0  0  0  0  0  0  0  0  0  0  0  0
   58.0090   31.2300   43.3680 C   0  0  0  0  0  0  0  0  0  0  0  0
   56.8370   30.6280   42.9010 C   0  0  0  0  0  0  0  0  0  0  0  0
   56.1500   29.7130   43.7060 C   0  0  0  0  0  0  0  0  0  0  0  0
   56.6310   29.4010   44.9830 C   0  0  0  0  0  0  0  0  0  0  0  0
   59.6690   27.6520   47.2320 C   0  0  0  0  0  0  0  0  0  0  0  0
   60.3400   27.2390   48.2170 O   0  0  0  0  0  0  0  0  0  0  0  0
   58.8330   26.7510   46.4840 N   0  0  0  0  0  0  0  0  0  0  0  0
   57.5900   26.4390   46.7240 C   0  0  0  0  0  0  0  0  0  0  0  0
   56.8500   25.3830   46.0030 C   0  0  0  0  0  0  0  0  0  0  0  0
   57.4840   24.1540   45.7570 C   0  0  0  0  0  0  0  0  0  0  0  0
   56.7990   23.1250   45.1050 C   0  0  0  0  0  0  0  0  0  0  0  0
   55.4710   23.3100   44.7140 C   0  0  0  0  0  0  0  0  0  0  0  0
   54.8150   24.5070   45.0030 C   0  0  0  0  0  0  0  0  0  0  0  0
   55.4920   25.5400   45.6620 C   0  0  0  0  0  0  0  0  0  0  0  0
   54.8030   26.6970   46.0020 O   0  0  0  0  0  0  0  0  0  0  0  0
   57.2830   30.5630   50.8640 H   0  0  0  0  0  0  0  0  0  0  0  0
   56.3760   32.0570   50.5320 H   0  0  0  0  0  0  0  0  0  0  0  0
   56.8796   33.7751   52.4813 H   0  0  0  0  0  0  0  0  0  0  0  0
   58.6686   35.0613   53.6382 H   0  0  0  0  0  0  0  0  0  0  0  0
   61.0542   34.3750   53.4084 H   0  0  0  0  0  0  0  0  0  0  0  0
   61.6595   32.4067   52.0127 H   0  0  0  0  0  0  0  0  0  0  0  0
   62.6591   32.2234   50.3792 H   0  0  0  0  0  0  0  0  0  0  0  0
   63.1330   30.8499   49.3177 H   0  0  0  0  0  0  0  0  0  0  0  0
   60.6396   35.2581   46.1664 H   0  0  0  0  0  0  0  0  0  0  0  0
   59.2246   35.3803   44.1144 H   0  0  0  0  0  0  0  0  0  0  0  0
   56.9910   34.2687   44.0635 H   0  0  0  0  0  0  0  0  0  0  0  0
   56.1659   33.0331   46.0683 H   0  0  0  0  0  0  0  0  0  0  0  0
   57.5810   32.8819   48.1175 H   0  0  0  0  0  0  0  0  0  0  0  0
   60.7690   29.4560   48.6800 H   0  0  0  0  0  0  0  0  0  0  0  0
   60.1156   29.1668   45.8154 H   0  0  0  0  0  0  0  0  0  0  0  0
   57.6110   29.0142   47.3430 H   0  0  0  0  0  0  0  0  0  0  0  0
   58.3413   30.6690   47.4091 H   0  0  0  0  0  0  0  0  0  0  0  0
   59.4175   31.3939   45.0084 H   0  0  0  0  0  0  0  0  0  0  0  0
   58.5492   31.9480   42.7334 H   0  0  0  0  0  0  0  0  0  0  0  0
   56.4545   30.8740   41.8994 H   0  0  0  0  0  0  0  0  0  0  0  0
   55.2300   29.2378   43.3347 H   0  0  0  0  0  0  0  0  0  0  0  0
   56.0861   28.6843   45.6150 H   0  0  0  0  0  0  0  0  0  0  0  0
   57.0602   26.9958   47.5110 H   0  0  0  0  0  0  0  0  0  0  0  0
   58.5246   24.0007   46.0790 H   0  0  0  0  0  0  0  0  0  0  0  0
   57.3053   22.1702   44.8999 H   0  0  0  0  0  0  0  0  0  0  0  0
   54.9408   22.5098   44.1768 H   0  0  0  0  0  0  0  0  0  0  0  0
   53.7625   24.6394   44.7121 H   0  0  0  0  0  0  0  0  0  0  0  0
  1  2  1  0
  2  3  2  0
  3  4  1  0
  4  5  2  0
  5  6  1  0
  6  7  2  0
  7  8  1  0
  8  9  2  0
  8 10  1  0
 10 11  1  0
 11 12  1  0
 12 13  2  3
 13 14  1  0
 14 15  2  0
 14 16  1  0
 16 17  2  0
 17 18  1  0
 18 19  2  0
 19 20  1  0
 20 21  2  0
 12 22  1  0
 22 23  2  0
 22 24  1  0
 24 25  1  0
 25 26  1  0
 26 27  1  0
 27 28  2  0
 28 29  1  0
 29 30  2  0
 30 31  1  0
 31 32  2  0
 25 33  1  0
 33 34  2  0
 33 35  1  0
 35 36  2  3
 36 37  1  0
 37 38  2  0
 38 39  1  0
 39 40  2  0
 40 41  1  0
 41 42  2  0
 42 43  1  0
  7  2  1  0
 21 16  1  0
 32 27  1  0
 42 37  1  0
  1 44  1  0
  1 45  1  0
  3 46  1  0
  4 47  1  0
  5 48  1  0
  6 49  1  0
 11 50  1  0
 11 51  1  0
 17 52  1  0
 18 53  1  0
 19 54  1  0
 20 55  1  0
 21 56  1  0
 24 57  1  0
 25 58  1  6
 26 59  1  0
 26 60  1  0
 28 61  1  0
 29 62  1  0
 30 63  1  0
 31 64  1  0
 32 65  1  0
 36 66  1  0
 38 67  1  0
 39 68  1  0
 40 69  1  0
 41 70  1  0
M  CHG  1  43  -1
M  END
>  <UniqueID>  (64) 
61

>  <SMILES>  (64) 
Nc1ccccc1C(=O)OCC(=NC(=O)c1ccccc1)C(=O)N[C@H](Cc1ccccc1)C(=O)N=Cc1ccccc1[O-]

>  <Energy>  (64) 
88.48208830101366

>  <Genealogy>  (64) 
Nc1ccccc1C(=O)OCC(=NC(=O)c1ccccc1)C(=O)NC(Cc1ccccc1)C(=O)N=Cc1ccccc1[O-] (protonated)
Nc1ccccc1C(=O)OCC(=NC(=O)c1ccccc1)C(=O)N[C@H](Cc1ccccc1)C(=O)N=Cc1ccccc1[O-] (chirality)
Nc1ccccc1C(=O)OCC(=NC(=O)c1ccccc1)C(=O)N[C@H](Cc1ccccc1)C(=O)N=Cc1ccccc1[O-] (3D coordinates assigned)
Nc1ccccc1C(=O)OCC(=NC(=O)c1ccccc1)C(=O)N[C@H](Cc1ccccc1)C(=O)N=Cc1ccccc1[O-] (optimized conformer: 88.48208830101366 kcal/mol)

>  <smiles>  (64) 
Nc1ccccc1C(=O)OCC(=NC(=O)c1ccccc1)C(=O)NC(Cc1ccccc1)C(=O)N=Cc1ccccc1O

>  <score_type>  (64) 
oracle

>  <origin>  (64) 
adg

>  <m_score__min__energy>  (64) 
-13.800000000000001

>  <m_primary>  (64) 
energy

$$$$
64:0
     RDKit          3D

 63 67  0  0  0  0  0  0  0  0999 V2000
   60.1880   31.3570   52.3520 C   0  0  0  0  0  0  0  0  0  0  0  0
   59.4760   32.5260   51.8130 N   0  0  0  0  0  0  0  0  0  0  0  0
   58.2680   32.1210   51.0520 C   0  0  0  0  0  0  0  0  0  0  0  0
   58.5210   32.0160   49.5410 C   0  0  0  0  0  0  0  0  0  0  0  0
   59.0760   33.2740   49.0200 N   0  0  0  0  0  0  0  0  0  0  0  0
   59.0230   33.5720   47.6060 C   0  0  0  0  0  0  0  0  0  0  0  0
   59.7220   34.6760   47.0810 C   0  0  0  0  0  0  0  0  0  0  0  0
   59.6360   34.9860   45.7220 C   0  0  0  0  0  0  0  0  0  0  0  0
   58.8560   34.2050   44.8700 C   0  0  0  0  0  0  0  0  0  0  0  0
   58.1440   33.1070   45.3730 C   0  0  0  0  0  0  0  0  0  0  0  0
   57.2810   32.2820   44.4600 C   0  0  0  0  0  0  0  0  0  0  0  0
   57.4070   30.8160   44.7840 C   0  0  0  0  0  0  0  0  0  0  0  0
   56.3880   30.1460   44.8770 O   0  0  0  0  0  0  0  0  0  0  0  0
   58.7190   30.1990   44.9160 N   0  0  2  0  0  0  0  0  0  0  0  0
   58.7460   28.9130   44.1700 C   0  0  0  0  0  0  0  0  0  0  0  0
   58.2890   27.7590   45.0010 C   0  0  0  0  0  0  0  0  0  0  0  0
   57.9660   26.2060   44.4490 S   0  0  0  0  0  0  0  0  0  0  0  0
   57.7080   25.5360   45.9730 C   0  0  0  0  0  0  0  0  0  0  0  0
   57.8970   26.5270   46.9290 C   0  0  0  0  0  0  0  0  0  0  0  0
   58.2410   27.7660   46.3790 C   0  0  0  0  0  0  0  0  0  0  0  0
   58.4530   29.0140   47.1700 C   0  0  0  0  0  0  0  0  0  0  0  0
   59.1690   30.1180   46.3440 C   0  0  1  0  0  0  0  0  0  0  0  0
   60.6770   29.9410   46.4570 C   0  0  0  0  0  0  0  0  0  0  0  0
   61.3200   29.3920   45.5230 O   0  0  0  0  0  0  0  0  0  0  0  0
   61.3550   30.1880   47.6970 N   0  0  0  0  0  0  0  0  0  0  0  0
   62.0400   31.2460   48.0300 C   0  0  0  0  0  0  0  0  0  0  0  0
   62.1310   32.2960   47.1090 C   0  0  0  0  0  0  0  0  0  0  0  0
   62.8420   33.4520   47.4400 C   0  0  0  0  0  0  0  0  0  0  0  0
   63.4330   33.5630   48.6590 N   0  0  0  0  0  0  0  0  0  0  0  0
   63.3530   32.5670   49.5790 C   0  0  0  0  0  0  0  0  0  0  0  0
   62.6510   31.3930   49.2890 C   0  0  0  0  0  0  0  0  0  0  0  0
   58.2470   32.7820   46.7360 C   0  0  0  0  0  0  0  0  0  0  0  0
   59.7180   34.2030   49.9590 C   0  0  0  0  0  0  0  0  0  0  0  0
   60.4100   33.4100   51.0710 C   0  0  0  0  0  0  0  0  0  0  0  0
   60.1678   31.3902   53.4513 H   0  0  0  0  0  0  0  0  0  0  0  0
   59.6972   30.4362   52.0039 H   0  0  0  0  0  0  0  0  0  0  0  0
   61.2314   31.3705   52.0039 H   0  0  0  0  0  0  0  0  0  0  0  0
   57.9333   31.1402   51.4208 H   0  0  0  0  0  0  0  0  0  0  0  0
   57.5050   32.8983   51.2057 H   0  0  0  0  0  0  0  0  0  0  0  0
   59.2335   31.2000   49.3497 H   0  0  0  0  0  0  0  0  0  0  0  0
   57.5655   31.8137   49.0349 H   0  0  0  0  0  0  0  0  0  0  0  0
   60.3396   35.2981   47.7455 H   0  0  0  0  0  0  0  0  0  0  0  0
   60.1862   35.8504   45.3218 H   0  0  0  0  0  0  0  0  0  0  0  0
   58.7991   34.4512   43.7994 H   0  0  0  0  0  0  0  0  0  0  0  0
   56.2317   32.5891   44.5809 H   0  0  0  0  0  0  0  0  0  0  0  0
   57.6104   32.4432   43.4229 H   0  0  0  0  0  0  0  0  0  0  0  0
   59.3910   30.8350   44.4260 H   0  0  0  0  0  0  0  0  0  0  0  0
   58.0865   28.9997   43.2939 H   0  0  0  0  0  0  0  0  0  0  0  0
   59.7880   28.7200   43.8749 H   0  0  0  0  0  0  0  0  0  0  0  0
   57.4357   24.4900   46.1772 H   0  0  0  0  0  0  0  0  0  0  0  0
   57.7870   26.3542   48.0098 H   0  0  0  0  0  0  0  0  0  0  0  0
   57.4750   29.3956   47.4985 H   0  0  0  0  0  0  0  0  0  0  0  0
   59.0945   28.7649   48.0282 H   0  0  0  0  0  0  0  0  0  0  0  0
   58.8813   31.0868   46.7784 H   0  0  0  0  0  0  0  0  0  0  0  0
   61.6436   32.2111   46.1265 H   0  0  0  0  0  0  0  0  0  0  0  0
   62.9237   34.2736   46.7131 H   0  0  0  0  0  0  0  0  0  0  0  0
   63.8428   32.6845   50.5569 H   0  0  0  0  0  0  0  0  0  0  0  0
   62.5770   30.5913   50.0386 H   0  0  0  0  0  0  0  0  0  0  0  0
   57.7162   31.9017   47.1275 H   0  0  0  0  0  0  0  0  0  0  0  0
   60.4632   34.8091   49.4230 H   0  0  0  0  0  0  0  0  0  0  0  0
   58.9561   34.8628   50.3997 H   0  0  0  0  0  0  0  0  0  0  0  0
   61.1991   32.7894   50.6214 H   0  0  0  0  0  0  0  0  0  0  0  0
   60.8209   34.1351   51.7888 H   0  0  0  0  0  0  0  0  0  0  0  0
  1  2  1  0
  2  3  1  0
  3  4  1  0
  4  5  1  0
  5  6  1  0
  6  7  2  0
  7  8  1  0
  8  9  2  0
  9 10  1  0
 10 11  1  0
 11 12  1  0
 12 13  2  0
 12 14  1  0
 14 15  1  0
 15 16  1  0
 16 17  1  0
 17 18  1  0
 18 19  2  0
 19 20  1  0
 20 21  1  0
 21 22  1  0
 22 23  1  0
 23 24  2  0
 23 25  1  0
 25 26  2  3
 26 27  1  0
 27 28  2  0
 28 29  1  0
 29 30  1  0
 30 31  2  0
 10 32  2  0
  5 33  1  0
 33 34  1  0
 34  2  1  0
 32  6  1  0
 22 14  1  0
 31 26  1  0
 20 16  2  0
  1 35  1  0
  1 36  1  0
  1 37  1  0
  3 38  1  0
  3 39  1  0
  4 40  1  0
  4 41  1  0
  7 42  1  0
  8 43  1  0
  9 44  1  0
 11 45  1  0
 11 46  1  0
 14 47  1  6
 15 48  1  0
 15 49  1  0
 18 50  1  0
 19 51  1  0
 21 52  1  0
 21 53  1  0
 22 54  1  1
 27 55  1  0
 28 56  1  0
 30 57  1  0
 31 58  1  0
 32 59  1  0
 33 60  1  0
 33 61  1  0
 34 62  1  0
 34 63  1  0
M  CHG  2  14   1  29  -1
M  END
>  <UniqueID>  (65) 
62

>  <SMILES>  (65) 
CN1CCN(c2cccc(CC(=O)[N@@H+]3Cc4sccc4C[C@H]3C(=O)N=c3cc[n-]cc3)c2)CC1

>  <Energy>  (65) 
121.51078600886498

>  <Genealogy>  (65) 
CN1CCN(c2cccc(CC(=O)[NH+]3Cc4sccc4CC3C(=O)N=c3cc[n-]cc3)c2)CC1 (protonated)
CN1CCN(c2cccc(CC(=O)[N@@H+]3Cc4sccc4C[C@H]3C(=O)N=c3cc[n-]cc3)c2)CC1 (chirality)
CN1CCN(c2cccc(CC(=O)[N@@H+]3Cc4sccc4C[C@H]3C(=O)N=c3cc[n-]cc3)c2)CC1 (3D coordinates assigned)
CN1CCN(c2cccc(CC(=O)[N@@H+]3Cc4sccc4C[C@H]3C(=O)N=c3cc[n-]cc3)c2)CC1 (nonaromatic ring conformer: 121.51078600886498 kcal/mol)

>  <smiles>  (65) 
CN1CCN(c2cccc(CC(=O)N3Cc4sccc4CC3C(=O)N=c3cc[nH]cc3)c2)CC1

>  <score_type>  (65) 
oracle

>  <origin>  (65) 
adg

>  <m_score__min__energy>  (65) 
-9.6199999999999992

>  <m_primary>  (65) 
energy

$$$$
65:0
     RDKit          3D

 28 29  0  0  0  0  0  0  0  0999 V2000
   57.0380   30.5900   43.5220 C   0  0  0  0  0  0  0  0  0  0  0  0
   56.9270   31.0240   44.8730 O   0  0  0  0  0  0  0  0  0  0  0  0
   57.5770   32.1500   45.3980 C   0  0  0  0  0  0  0  0  0  0  0  0
   57.3900   33.4550   44.8600 C   0  0  0  0  0  0  0  0  0  0  0  0
   58.0560   34.5620   45.4160 C   0  0  0  0  0  0  0  0  0  0  0  0
   58.9010   34.3390   46.4990 C   0  0  0  0  0  0  0  0  0  0  0  0
   59.6090   35.2560   47.1830 N   0  0  0  0  0  0  0  0  0  0  0  0
   60.2560   34.5780   48.1570 C   0  0  0  0  0  0  0  0  0  0  0  0
   59.9630   33.2190   48.0800 C   0  0  0  0  0  0  0  0  0  0  0  0
   60.4160   32.1520   49.0320 C   0  0  0  0  0  0  0  0  0  0  0  0
   61.3360   31.1450   48.3390 C   0  0  0  0  0  0  0  0  0  0  0  0
   62.6960   31.6680   48.2630 N   0  0  0  0  0  0  0  0  0  0  0  0
   63.0030   32.6250   47.4830 C   0  0  0  0  0  0  0  0  0  0  0  0
   63.3920   33.8420   46.5020 S   0  0  0  0  0  0  0  0  0  0  0  0
   59.0890   33.0870   47.0200 C   0  0  0  0  0  0  0  0  0  0  0  0
   58.4390   31.9680   46.4970 C   0  0  0  0  0  0  0  0  0  0  0  0
   57.3105   29.5245   43.5004 H   0  0  0  0  0  0  0  0  0  0  0  0
   56.0745   30.7325   43.0108 H   0  0  0  0  0  0  0  0  0  0  0  0
   57.8148   31.1776   43.0108 H   0  0  0  0  0  0  0  0  0  0  0  0
   56.7180   33.5988   44.0011 H   0  0  0  0  0  0  0  0  0  0  0  0
   57.9133   35.5732   45.0073 H   0  0  0  0  0  0  0  0  0  0  0  0
   59.6410   36.2860   47.0120 H   0  0  0  0  0  0  0  0  0  0  0  0
   60.9203   35.0354   48.9050 H   0  0  0  0  0  0  0  0  0  0  0  0
   60.9607   32.6217   49.8643 H   0  0  0  0  0  0  0  0  0  0  0  0
   59.5292   31.6161   49.4014 H   0  0  0  0  0  0  0  0  0  0  0  0
   61.3404   30.2050   48.9103 H   0  0  0  0  0  0  0  0  0  0  0  0
   60.9650   30.9653   47.3192 H   0  0  0  0  0  0  0  0  0  0  0  0
   58.5959   30.9698   46.9318 H   0  0  0  0  0  0  0  0  0  0  0  0
  1  2  1  0
  2  3  1  0
  3  4  2  0
  4  5  1  0
  5  6  2  0
  6  7  1  0
  7  8  1  0
  8  9  2  0
  9 10  1  0
 10 11  1  0
 11 12  1  0
 12 13  2  0
 13 14  2  0
  9 15  1  0
 15 16  2  0
 16  3  1  0
 15  6  1  0
  1 17  1  0
  1 18  1  0
  1 19  1  0
  4 20  1  0
  5 21  1  0
  7 22  1  0
  8 23  1  0
 10 24  1  0
 10 25  1  0
 11 26  1  0
 11 27  1  0
 16 28  1  0
M  END
>  <UniqueID>  (66) 
63

>  <SMILES>  (66) 
COc1ccc2[nH]cc(CCN=C=S)c2c1

>  <Energy>  (66) 
54.86250525813178

>  <Genealogy>  (66) 
COc1ccc2[nH]cc(CCN=C=S)c2c1 (3D coordinates assigned)
COc1ccc2[nH]cc(CCN=C=S)c2c1 (optimized conformer: 54.86250525813178 kcal/mol)

>  <smiles>  (66) 
COc1ccc2[nH]cc(CCN=C=S)c2c1

>  <score_type>  (66) 
oracle

>  <origin>  (66) 
adg

>  <m_score__min__energy>  (66) 
-5.71

>  <m_primary>  (66) 
energy

$$$$
66:0
     RDKit          3D

 82 84  0  0  0  0  0  0  0  0999 V2000
   61.4360   30.5090   46.6910 C   0  0  0  0  0  0  0  0  0  0  0  0
   62.2410   31.1840   47.8000 C   0  0  0  0  0  0  0  0  0  0  0  0
   63.3420   32.1160   47.2600 C   0  0  0  0  0  0  0  0  0  0  0  0
   63.9210   33.0970   48.2970 C   0  0  0  0  0  0  0  0  0  0  0  0
   63.3440   32.9580   49.7180 C   0  0  0  0  0  0  0  0  0  0  0  0
   61.9060   33.5030   49.8600 C   0  0  0  0  0  0  0  0  0  0  0  0
   61.5560   34.5230   48.7640 C   0  0  0  0  0  0  0  0  0  0  0  0
   60.0700   34.5980   48.5140 C   0  0  0  0  0  0  0  0  0  0  0  0
   59.3290   35.1670   49.3620 O   0  0  0  0  0  0  0  0  0  0  0  0
   59.4760   34.0070   47.3390 N   0  0  0  0  0  0  0  0  0  0  0  0
   60.3030   33.5940   46.1940 C   0  0  0  0  0  0  0  0  0  0  0  0
   59.6360   33.9280   44.8460 C   0  0  0  0  0  0  0  0  0  0  0  0
   58.1190   34.1650   44.9450 C   0  0  0  0  0  0  0  0  0  0  0  0
   57.4560   33.2890   46.0200 C   0  0  1  0  0  0  0  0  0  0  0  0
   57.5070   31.8250   45.6390 C   0  0  0  0  0  0  0  0  0  0  0  0
   56.9600   31.4220   44.5770 O   0  0  0  0  0  0  0  0  0  0  0  0
   58.1720   30.8920   46.5000 N   0  0  0  0  0  0  0  0  0  0  0  0
   58.0020   29.4660   46.4020 C   0  0  0  0  0  0  0  0  0  0  0  0
   57.1950   28.9240   45.3860 C   0  0  0  0  0  0  0  0  0  0  0  0
   56.9830   27.5470   45.3050 C   0  0  0  0  0  0  0  0  0  0  0  0
   57.5730   26.6840   46.2380 C   0  0  0  0  0  0  0  0  0  0  0  0
   57.3100   25.2070   46.1790 C   0  0  0  0  0  0  0  0  0  0  0  0
   55.9260   24.9450   46.5550 N   0  0  0  0  0  0  0  0  0  0  0  0
   54.8310   24.9630   45.6330 C   0  0  0  0  0  0  0  0  0  0  0  0
   54.5920   23.8330   44.6770 C   0  0  0  0  0  0  0  0  0  0  0  0
   54.0540   25.9540   45.6300 O   0  0  0  0  0  0  0  0  0  0  0  0
   58.3540   27.2180   47.2710 C   0  0  0  0  0  0  0  0  0  0  0  0
   58.5850   28.6010   47.3580 C   0  0  0  0  0  0  0  0  0  0  0  0
   59.4240   29.1320   48.4900 C   0  0  0  0  0  0  0  0  0  0  0  0
   58.5550   29.6620   49.5320 N   0  0  0  0  0  0  0  0  0  0  0  0
   58.5180   31.0450   49.8860 C   0  0  0  0  0  0  0  0  0  0  0  0
   59.2580   31.8720   49.2860 O   0  0  0  0  0  0  0  0  0  0  0  0
   57.6080   31.4810   50.9010 N   0  0  0  0  0  0  0  0  0  0  0  0
   57.9510   31.8410   52.2480 C   0  0  0  0  0  0  0  0  0  0  0  0
   57.6170   31.0040   53.3310 C   0  0  0  0  0  0  0  0  0  0  0  0
   57.9220   31.3850   54.6390 C   0  0  0  0  0  0  0  0  0  0  0  0
   58.5560   32.6040   54.8830 C   0  0  0  0  0  0  0  0  0  0  0  0
   58.8720   33.4530   53.8200 C   0  0  0  0  0  0  0  0  0  0  0  0
   58.5650   33.0860   52.5010 C   0  0  0  0  0  0  0  0  0  0  0  0
   58.8930   33.9790   51.4280 N   0  0  0  0  0  0  0  0  0  0  0  0
   58.0640   33.5900   47.4100 C   0  0  0  0  0  0  0  0  0  0  0  0
   60.6659   29.8632   47.1380 H   0  0  0  0  0  0  0  0  0  0  0  0
   60.9542   31.2771   46.0682 H   0  0  0  0  0  0  0  0  0  0  0  0
   62.1083   29.9006   46.0682 H   0  0  0  0  0  0  0  0  0  0  0  0
   61.5536   31.7764   48.4217 H   0  0  0  0  0  0  0  0  0  0  0  0
   62.7356   30.3899   48.3786 H   0  0  0  0  0  0  0  0  0  0  0  0
   64.1650   31.4913   46.8825 H   0  0  0  0  0  0  0  0  0  0  0  0
   62.8722   32.7315   46.4787 H   0  0  0  0  0  0  0  0  0  0  0  0
   65.0073   32.9331   48.3523 H   0  0  0  0  0  0  0  0  0  0  0  0
   63.6483   34.1052   47.9519 H   0  0  0  0  0  0  0  0  0  0  0  0
   63.3396   31.8917   49.9883 H   0  0  0  0  0  0  0  0  0  0  0  0
   63.9822   33.5571   50.3842 H   0  0  0  0  0  0  0  0  0  0  0  0
   61.2011   32.6609   49.7973 H   0  0  0  0  0  0  0  0  0  0  0  0
   61.8354   34.0156   50.8307 H   0  0  0  0  0  0  0  0  0  0  0  0
   61.9141   35.5154   49.0753 H   0  0  0  0  0  0  0  0  0  0  0  0
   62.0410   34.1989   47.8314 H   0  0  0  0  0  0  0  0  0  0  0  0
   61.2705   34.1144   46.2494 H   0  0  0  0  0  0  0  0  0  0  0  0
   60.4327   32.5029   46.2463 H   0  0  0  0  0  0  0  0  0  0  0  0
   60.1037   34.8389   44.4440 H   0  0  0  0  0  0  0  0  0  0  0  0
   59.7817   33.0557   44.1919 H   0  0  0  0  0  0  0  0  0  0  0  0
   57.9424   35.2221   45.1929 H   0  0  0  0  0  0  0  0  0  0  0  0
   57.6747   33.8978   43.9749 H   0  0  0  0  0  0  0  0  0  0  0  0
   56.3873   33.5414   46.0853 H   0  0  0  0  0  0  0  0  0  0  0  0
   58.8140   31.2700   47.2320 H   0  0  0  0  0  0  0  0  0  0  0  0
   56.7264   29.5917   44.6481 H   0  0  0  0  0  0  0  0  0  0  0  0
   56.3495   27.1370   44.5046 H   0  0  0  0  0  0  0  0  0  0  0  0
   57.4873   24.8435   45.1561 H   0  0  0  0  0  0  0  0  0  0  0  0
   57.9842   24.6862   46.8749 H   0  0  0  0  0  0  0  0  0  0  0  0
   54.3967   22.9097   45.2421 H   0  0  0  0  0  0  0  0  0  0  0  0
   53.7233   24.0660   44.0437 H   0  0  0  0  0  0  0  0  0  0  0  0
   55.4807   23.6943   44.0437 H   0  0  0  0  0  0  0  0  0  0  0  0
   58.7920   26.5459   48.0236 H   0  0  0  0  0  0  0  0  0  0  0  0
   60.0385   28.3188   48.9036 H   0  0  0  0  0  0  0  0  0  0  0  0
   60.0788   29.9330   48.1164 H   0  0  0  0  0  0  0  0  0  0  0  0
   57.1127   30.0443   53.1448 H   0  0  0  0  0  0  0  0  0  0  0  0
   57.6622   30.7234   55.4785 H   0  0  0  0  0  0  0  0  0  0  0  0
   58.8070   32.8964   55.9133 H   0  0  0  0  0  0  0  0  0  0  0  0
   59.3650   34.4161   54.0182 H   0  0  0  0  0  0  0  0  0  0  0  0
   58.8930   35.0140   51.5590 H   0  0  0  0  0  0  0  0  0  0  0  0
   59.1540   33.6070   50.4860 H   0  0  0  0  0  0  0  0  0  0  0  0
   57.4827   34.3968   47.8804 H   0  0  0  0  0  0  0  0  0  0  0  0
   58.0228   32.6607   47.9972 H   0  0  0  0  0  0  0  0  0  0  0  0
  1  2  1  0
  2  3  1  0
  3  4  1  0
  4  5  1  0
  5  6  1  0
  6  7  1  0
  7  8  1  0
  8  9  2  0
  8 10  1  0
 10 11  1  0
 11 12  1  0
 12 13  1  0
 13 14  1  0
 14 15  1  0
 15 16  2  0
 15 17  1  0
 17 18  1  0
 18 19  2  0
 19 20  1  0
 20 21  2  0
 21 22  1  0
 22 23  1  0
 23 24  1  0
 24 25  1  0
 24 26  2  0
 21 27  1  0
 27 28  2  0
 28 29  1  0
 29 30  1  0
 30 31  1  0
 31 32  2  0
 31 33  1  0
 33 34  1  0
 34 35  2  0
 35 36  1  0
 36 37  2  0
 37 38  1  0
 38 39  2  0
 39 40  1  0
 14 41  1  0
 41 10  1  0
 28 18  1  0
 39 34  1  0
  1 42  1  0
  1 43  1  0
  1 44  1  0
  2 45  1  0
  2 46  1  0
  3 47  1  0
  3 48  1  0
  4 49  1  0
  4 50  1  0
  5 51  1  0
  5 52  1  0
  6 53  1  0
  6 54  1  0
  7 55  1  0
  7 56  1  0
 11 57  1  0
 11 58  1  0
 12 59  1  0
 12 60  1  0
 13 61  1  0
 13 62  1  0
 14 63  1  1
 17 64  1  0
 19 65  1  0
 20 66  1  0
 22 67  1  0
 22 68  1  0
 25 69  1  0
 25 70  1  0
 25 71  1  0
 27 72  1  0
 29 73  1  0
 29 74  1  0
 35 75  1  0
 36 76  1  0
 37 77  1  0
 38 78  1  0
 40 79  1  0
 40 80  1  0
 41 81  1  0
 41 82  1  0
M  CHG  3  23  -1  30  -1  33  -1
M  END
>  <UniqueID>  (67) 
64

>  <SMILES>  (67) 
CCCCCCCC(=O)N1CCC[C@@H](C(=O)Nc2ccc(C[N-]C(C)=O)cc2C[N-]C(=O)[N-]c2ccccc2N)C1

>  <Energy>  (67) 
81.925815705719

>  <Genealogy>  (67) 
CCCCCCCC(=O)N1CCCC(C(=O)Nc2ccc(C[N-]C(C)=O)cc2C[N-]C(=O)[N-]c2ccccc2N)C1 (protonated)
CCCCCCCC(=O)N1CCC[C@@H](C(=O)Nc2ccc(C[N-]C(C)=O)cc2C[N-]C(=O)[N-]c2ccccc2N)C1 (chirality)
CCCCCCCC(=O)N1CCC[C@@H](C(=O)Nc2ccc(C[N-]C(C)=O)cc2C[N-]C(=O)[N-]c2ccccc2N)C1 (3D coordinates assigned)
CCCCCCCC(=O)N1CCC[C@@H](C(=O)Nc2ccc(C[N-]C(C)=O)cc2C[N-]C(=O)[N-]c2ccccc2N)C1 (nonaromatic ring conformer: 81.925815705719 kcal/mol)

>  <smiles>  (67) 
CCCCCCCC(=O)N1CCCC(C(=O)Nc2ccc(CNC(C)=O)cc2CNC(=O)Nc2ccccc2N)C1

>  <score_type>  (67) 
oracle

>  <origin>  (67) 
adg

>  <m_score__min__energy>  (67) 
-13.09

>  <m_primary>  (67) 
energy

$$$$
67:0
     RDKit          3D

 29 30  0  0  0  0  0  0  0  0999 V2000
   59.5300   32.7860   47.9190 C   0  0  0  0  0  0  0  0  0  0  0  0
   58.5560   33.7300   46.7660 S   0  0  0  0  0  0  0  0  0  0  0  0
   57.1040   33.5380   47.1020 O   0  0  0  0  0  0  0  0  0  0  0  0
   58.8860   35.1930   46.8730 O   0  0  0  0  0  0  0  0  0  0  0  0
   58.8350   33.1740   45.1460 N   0  0  0  0  0  0  0  0  0  0  0  0
   58.1630   32.0530   44.5420 C   0  0  0  0  0  0  0  0  0  0  0  0
   57.6790   32.1770   43.2310 C   0  0  0  0  0  0  0  0  0  0  0  0
   57.0190   31.1130   42.6160 C   0  0  0  0  0  0  0  0  0  0  0  0
   56.8410   29.9080   43.2960 C   0  0  0  0  0  0  0  0  0  0  0  0
   57.3340   29.7490   44.6030 C   0  0  0  0  0  0  0  0  0  0  0  0
   57.1510   28.4770   45.3490 C   0  0  0  0  0  0  0  0  0  0  0  0
   58.1940   27.8950   46.0880 C   0  0  0  0  0  0  0  0  0  0  0  0
   57.9500   26.7010   46.7680 C   0  0  0  0  0  0  0  0  0  0  0  0
   58.8660   26.1550   47.4390 O   0  0  0  0  0  0  0  0  0  0  0  0
   56.7220   26.1260   46.7130 N   0  0  0  0  0  0  0  0  0  0  0  0
   55.7160   26.6990   46.0030 C   0  0  0  0  0  0  0  0  0  0  0  0
   54.5520   26.1360   45.9670 N   0  0  0  0  0  0  0  0  0  0  0  0
   55.9360   27.8630   45.3340 N   0  0  0  0  0  0  0  0  0  0  0  0
   57.9910   30.8310   45.2190 C   0  0  0  0  0  0  0  0  0  0  0  0
   59.2483   33.0590   48.9467 H   0  0  0  0  0  0  0  0  0  0  0  0
   59.3467   31.7129   47.7614 H   0  0  0  0  0  0  0  0  0  0  0  0
   60.5968   33.0028   47.7614 H   0  0  0  0  0  0  0  0  0  0  0  0
   59.4750   33.7540   44.5570 H   0  0  0  0  0  0  0  0  0  0  0  0
   57.8211   33.1206   42.6838 H   0  0  0  0  0  0  0  0  0  0  0  0
   56.6373   31.2246   41.5904 H   0  0  0  0  0  0  0  0  0  0  0  0
   56.3117   29.0772   42.8066 H   0  0  0  0  0  0  0  0  0  0  0  0
   59.1846   28.3714   46.1300 H   0  0  0  0  0  0  0  0  0  0  0  0
   53.7050   26.6090   46.3530 H   0  0  0  0  0  0  0  0  0  0  0  0
   58.3753   30.7199   46.2437 H   0  0  0  0  0  0  0  0  0  0  0  0
  1  2  1  0
  2  3  2  0
  2  4  2  0
  2  5  1  0
  5  6  1  0
  6  7  2  0
  7  8  1  0
  8  9  2  0
  9 10  1  0
 10 11  1  0
 11 12  2  0
 12 13  1  0
 13 14  2  0
 13 15  1  0
 15 16  1  0
 16 17  2  3
 16 18  1  0
 10 19  2  0
 19  6  1  0
 18 11  1  0
  1 20  1  0
  1 21  1  0
  1 22  1  0
  5 23  1  0
  7 24  1  0
  8 25  1  0
  9 26  1  0
 12 27  1  0
 17 28  1  0
 19 29  1  0
M  CHG  2  15  -1  18  -1
M  END
>  <UniqueID>  (68) 
65

>  <SMILES>  (68) 
CS(=O)(=O)Nc1cccc(-c2cc(=O)[n-]c(=N)[n-]2)c1

>  <Energy>  (68) 
32.89634645388357

>  <Genealogy>  (68) 
CS(=O)(=O)Nc1cccc(-c2cc(=O)[n-]c(=N)[n-]2)c1 (protonated)
CS(=O)(=O)Nc1cccc(-c2cc(=O)[n-]c(=N)[n-]2)c1 (3D coordinates assigned)
CS(=O)(=O)Nc1cccc(-c2cc(=O)[n-]c(=N)[n-]2)c1 (optimized conformer: 32.89634645388357 kcal/mol)

>  <smiles>  (68) 
CS(=O)(=O)Nc1cccc(-c2cc(=O)[nH]c(=N)[nH]2)c1

>  <score_type>  (68) 
oracle

>  <origin>  (68) 
adg

>  <m_score__min__energy>  (68) 
-11.92

>  <m_primary>  (68) 
energy

$$$$
68:0
     RDKit          3D

 34 36  0  0  0  0  0  0  0  0999 V2000
   55.1400   29.3500   44.8150 N   0  0  0  0  0  0  0  0  0  0  0  0
   56.5010   29.2000   44.4160 C   0  0  0  0  0  0  0  0  0  0  0  0
   56.7880   29.1770   43.1910 O   0  0  0  0  0  0  0  0  0  0  0  0
   57.5430   29.0310   45.4440 C   0  0  0  0  0  0  0  0  0  0  0  0
   58.4050   30.0130   45.7650 N   0  0  0  0  0  0  0  0  0  0  0  0
   59.1320   29.4990   46.7780 C   0  0  0  0  0  0  0  0  0  0  0  0
   60.1980   30.2410   47.4600 C   0  0  0  0  0  0  0  0  0  0  0  0
   60.8260   29.8730   48.6450 C   0  0  0  0  0  0  0  0  0  0  0  0
   61.7920   30.7330   49.0660 N   0  0  0  0  0  0  0  0  0  0  0  0
   61.9430   31.7830   48.2260 C   0  0  0  0  0  0  0  0  0  0  0  0
   62.9230   32.8560   48.4500 C   0  0  0  0  0  0  0  0  0  0  0  0
   64.2240   32.8070   47.8600 N   0  0  0  0  0  0  0  0  0  0  0  0
   62.6100   33.8390   49.1750 O   0  0  0  0  0  0  0  0  0  0  0  0
   60.8770   31.6840   46.9240 S   0  0  0  0  0  0  0  0  0  0  0  0
   58.7790   28.2430   47.1170 N   0  0  0  0  0  0  0  0  0  0  0  0
   57.7730   27.9430   46.2760 C   0  0  0  0  0  0  0  0  0  0  0  0
   57.1160   26.6210   46.2640 C   0  0  0  0  0  0  0  0  0  0  0  0
   55.8620   26.5440   46.3380 O   0  0  0  0  0  0  0  0  0  0  0  0
   57.8650   25.4180   46.0500 N   0  0  0  0  0  0  0  0  0  0  0  0
   57.4860   24.3220   45.2040 C   0  0  0  0  0  0  0  0  0  0  0  0
   57.7100   23.0120   45.6500 C   0  0  0  0  0  0  0  0  0  0  0  0
   57.3650   21.9240   44.8420 C   0  0  0  0  0  0  0  0  0  0  0  0
   56.8070   22.1380   43.5790 C   0  0  0  0  0  0  0  0  0  0  0  0
   56.6060   23.4410   43.1150 C   0  0  0  0  0  0  0  0  0  0  0  0
   56.9510   24.5310   43.9200 C   0  0  0  0  0  0  0  0  0  0  0  0
   54.8730   29.3360   45.8240 H   0  0  0  0  0  0  0  0  0  0  0  0
   60.5625   28.9592   49.1978 H   0  0  0  0  0  0  0  0  0  0  0  0
   64.5170   32.0090   47.2550 H   0  0  0  0  0  0  0  0  0  0  0  0
   64.9040   33.5800   48.0320 H   0  0  0  0  0  0  0  0  0  0  0  0
   58.1588   22.8392   46.6393 H   0  0  0  0  0  0  0  0  0  0  0  0
   57.5332   20.8980   45.2013 H   0  0  0  0  0  0  0  0  0  0  0  0
   56.5258   21.2807   42.9497 H   0  0  0  0  0  0  0  0  0  0  0  0
   56.1763   23.6090   42.1164 H   0  0  0  0  0  0  0  0  0  0  0  0
   56.8035   25.5556   43.5478 H   0  0  0  0  0  0  0  0  0  0  0  0
  1  2  1  0
  2  3  2  0
  2  4  1  0
  4  5  1  0
  5  6  1  0
  6  7  1  0
  7  8  2  0
  8  9  1  0
  9 10  2  0
 10 11  1  0
 11 12  1  0
 11 13  2  0
 10 14  1  0
  6 15  2  0
 15 16  1  0
 16 17  1  0
 17 18  2  0
 17 19  1  0
 19 20  1  0
 20 21  2  0
 21 22  1  0
 22 23  2  0
 23 24  1  0
 24 25  2  0
 16  4  2  0
 25 20  1  0
 14  7  1  0
  1 26  1  0
  8 27  1  0
 12 28  1  0
 12 29  1  0
 21 30  1  0
 22 31  1  0
 23 32  1  0
 24 33  1  0
 25 34  1  0
M  CHG  3   1  -1   5  -1  19  -1
M  END
>  <UniqueID>  (69) 
66

>  <SMILES>  (69) 
[NH-]C(=O)c1[n-]c(-c2cnc(C(N)=O)s2)nc1C(=O)[N-]c1ccccc1

>  <Energy>  (69) 
97.76423965540239

>  <Genealogy>  (69) 
[NH-]C(=O)c1[n-]c(-c2cnc(C(N)=O)s2)nc1C(=O)[N-]c1ccccc1 (protonated)
[NH-]C(=O)c1[n-]c(-c2cnc(C(N)=O)s2)nc1C(=O)[N-]c1ccccc1 (3D coordinates assigned)
[NH-]C(=O)c1[n-]c(-c2cnc(C(N)=O)s2)nc1C(=O)[N-]c1ccccc1 (optimized conformer: 97.76423965540239 kcal/mol)

>  <smiles>  (69) 
NC(=O)c1ncc(-c2nc(C(=O)Nc3ccccc3)c(C(N)=O)[nH]2)s1

>  <score_type>  (69) 
oracle

>  <origin>  (69) 
adg

>  <m_score__min__energy>  (69) 
-13.050000000000001

>  <m_primary>  (69) 
energy

$$$$
69:0
     RDKit          3D

 43 45  0  0  0  0  0  0  0  0999 V2000
   58.8170   34.6080   46.9260 C   0  0  0  0  0  0  0  0  0  0  0  0
   58.4730   33.6000   45.8820 C   0  0  0  0  0  0  0  0  0  0  0  0
   58.4280   33.8370   44.5140 C   0  0  0  0  0  0  0  0  0  0  0  0
   58.0680   32.7070   43.7710 C   0  0  0  0  0  0  0  0  0  0  0  0
   57.8210   31.5890   44.5600 C   0  0  0  0  0  0  0  0  0  0  0  0
   57.4980   30.2160   44.0560 C   0  0  0  0  0  0  0  0  0  0  0  0
   56.1890   29.7520   44.6130 C   0  0  0  0  0  0  0  0  0  0  0  0
   55.1590   30.4650   44.4700 O   0  0  0  0  0  0  0  0  0  0  0  0
   56.1110   28.4980   45.2970 N   0  0  0  0  0  0  0  0  0  0  0  0
   57.0160   27.3920   45.0230 C   0  0  0  0  0  0  0  0  0  0  0  0
   56.5660   26.1820   45.7840 C   0  0  0  0  0  0  0  0  0  0  0  0
   55.2670   25.8540   45.9310 N   0  0  0  0  0  0  0  0  0  0  0  0
   55.2200   24.7850   46.7130 N   0  0  0  0  0  0  0  0  0  0  0  0
   56.4900   24.4830   47.0350 C   0  0  0  0  0  0  0  0  0  0  0  0
   56.8870   23.2350   48.0200 S   0  0  0  0  0  0  0  0  0  0  0  0
   57.3690   25.3410   46.4740 N   0  0  0  0  0  0  0  0  0  0  0  0
   58.8300   25.3820   46.6280 C   0  0  0  0  0  0  0  0  0  0  0  0
   59.2540   26.3480   47.7410 C   0  0  0  0  0  0  0  0  0  0  0  0
   59.7520   27.6580   47.1880 C   0  0  0  0  0  0  0  0  0  0  0  0
   59.8250   28.7930   48.0140 C   0  0  0  0  0  0  0  0  0  0  0  0
   60.3020   30.0050   47.5050 C   0  0  0  0  0  0  0  0  0  0  0  0
   60.7150   30.0890   46.1730 C   0  0  0  0  0  0  0  0  0  0  0  0
   60.6580   28.9620   45.3500 C   0  0  0  0  0  0  0  0  0  0  0  0
   60.1830   27.7480   45.8550 C   0  0  0  0  0  0  0  0  0  0  0  0
   58.0510   31.9980   46.1760 S   0  0  0  0  0  0  0  0  0  0  0  0
   58.6671   34.1688   47.9233 H   0  0  0  0  0  0  0  0  0  0  0  0
   59.8688   34.9093   46.8124 H   0  0  0  0  0  0  0  0  0  0  0  0
   58.1688   35.4894   46.8124 H   0  0  0  0  0  0  0  0  0  0  0  0
   58.6526   34.8138   44.0607 H   0  0  0  0  0  0  0  0  0  0  0  0
   57.9885   32.7036   42.6739 H   0  0  0  0  0  0  0  0  0  0  0  0
   57.4377   30.2376   42.9579 H   0  0  0  0  0  0  0  0  0  0  0  0
   58.2890   29.5222   44.3768 H   0  0  0  0  0  0  0  0  0  0  0  0
   57.0103   27.1712   43.9454 H   0  0  0  0  0  0  0  0  0  0  0  0
   58.0351   27.6646   45.3345 H   0  0  0  0  0  0  0  0  0  0  0  0
   59.1913   24.3727   46.8746 H   0  0  0  0  0  0  0  0  0  0  0  0
   59.2657   25.7352   45.6817 H   0  0  0  0  0  0  0  0  0  0  0  0
   58.3888   26.5426   48.3918 H   0  0  0  0  0  0  0  0  0  0  0  0
   60.0759   25.8807   48.3033 H   0  0  0  0  0  0  0  0  0  0  0  0
   59.5058   28.7276   49.0646 H   0  0  0  0  0  0  0  0  0  0  0  0
   60.3520   30.8922   48.1534 H   0  0  0  0  0  0  0  0  0  0  0  0
   61.0855   31.0439   45.7719 H   0  0  0  0  0  0  0  0  0  0  0  0
   60.9874   29.0297   44.3027 H   0  0  0  0  0  0  0  0  0  0  0  0
   60.1469   26.8607   45.2059 H   0  0  0  0  0  0  0  0  0  0  0  0
  1  2  1  0
  2  3  2  0
  3  4  1  0
  4  5  2  0
  5  6  1  0
  6  7  1  0
  7  8  2  0
  7  9  1  0
  9 10  1  0
 10 11  1  0
 11 12  2  0
 12 13  1  0
 13 14  1  0
 14 15  2  0
 14 16  1  0
 16 17  1  0
 17 18  1  0
 18 19  1  0
 19 20  2  0
 20 21  1  0
 21 22  2  0
 22 23  1  0
 23 24  2  0
  5 25  1  0
 25  2  1  0
 16 11  1  0
 24 19  1  0
  1 26  1  0
  1 27  1  0
  1 28  1  0
  3 29  1  0
  4 30  1  0
  6 31  1  0
  6 32  1  0
 10 33  1  0
 10 34  1  0
 17 35  1  0
 17 36  1  0
 18 37  1  0
 18 38  1  0
 20 39  1  0
 21 40  1  0
 22 41  1  0
 23 42  1  0
 24 43  1  0
M  CHG  2   9  -1  13  -1
M  END
>  <UniqueID>  (70) 
67

>  <SMILES>  (70) 
Cc1ccc(CC(=O)[N-]Cc2n[n-]c(=S)n2CCc2ccccc2)s1

>  <Energy>  (70) 
89.98199067290795

>  <Genealogy>  (70) 
Cc1ccc(CC(=O)[N-]Cc2n[n-]c(=S)n2CCc2ccccc2)s1 (protonated)
Cc1ccc(CC(=O)[N-]Cc2n[n-]c(=S)n2CCc2ccccc2)s1 (3D coordinates assigned)
Cc1ccc(CC(=O)[N-]Cc2n[n-]c(=S)n2CCc2ccccc2)s1 (optimized conformer: 89.98199067290795 kcal/mol)

>  <smiles>  (70) 
Cc1ccc(CC(=O)NCc2n[nH]c(=S)n2CCc2ccccc2)s1

>  <score_type>  (70) 
oracle

>  <origin>  (70) 
adg

>  <m_score__min__energy>  (70) 
-12.710000000000001

>  <m_primary>  (70) 
energy

$$$$
70:0
     RDKit          3D

 39 41  0  0  0  0  0  0  0  0999 V2000
   63.4850   33.8230   49.2900 C   0  0  0  0  0  0  0  0  0  0  0  0
   62.0860   33.7310   48.7870 C   0  0  0  0  0  0  0  0  0  0  0  0
   61.6600   32.7640   47.9480 N   0  0  0  0  0  0  0  0  0  0  0  0
   60.3640   33.0790   47.7430 C   0  0  0  0  0  0  0  0  0  0  0  0
   59.4540   32.2940   46.8740 C   0  0  0  0  0  0  0  0  0  0  0  0
   59.0300   32.7860   45.6240 C   0  0  0  0  0  0  0  0  0  0  0  0
   58.1760   32.0300   44.8160 C   0  0  0  0  0  0  0  0  0  0  0  0
   57.7300   30.7730   45.2430 C   0  0  0  0  0  0  0  0  0  0  0  0
   56.6810   29.7930   44.2210 S   0  0  0  0  0  0  0  0  0  0  0  0
   56.5560   30.3960   42.8500 O   0  0  0  0  0  0  0  0  0  0  0  0
   55.3200   29.7260   44.8550 O   0  0  0  0  0  0  0  0  0  0  0  0
   57.3320   28.1920   44.0830 N   0  0  0  0  0  0  0  0  0  0  0  0
   58.3330   27.6920   44.9860 C   0  0  0  0  0  0  0  0  0  0  0  0
   59.6750   28.0760   44.8140 C   0  0  0  0  0  0  0  0  0  0  0  0
   60.6750   27.5510   45.6320 C   0  0  0  0  0  0  0  0  0  0  0  0
   60.3530   26.6290   46.6260 C   0  0  0  0  0  0  0  0  0  0  0  0
   59.0270   26.2370   46.8140 C   0  0  0  0  0  0  0  0  0  0  0  0
   57.9990   26.7680   46.0120 C   0  0  0  0  0  0  0  0  0  0  0  0
   56.5970   26.3830   46.3050 C   0  0  0  0  0  0  0  0  0  0  0  0
   55.5180   27.0580   45.6620 N   0  0  0  0  0  0  0  0  0  0  0  0
   56.3430   25.4320   47.0930 O   0  0  0  0  0  0  0  0  0  0  0  0
   58.1440   30.2790   46.4850 C   0  0  0  0  0  0  0  0  0  0  0  0
   58.9990   31.0310   47.2940 C   0  0  0  0  0  0  0  0  0  0  0  0
   60.0590   34.2220   48.4600 C   0  0  0  0  0  0  0  0  0  0  0  0
   61.1450   34.5960   49.0890 O   0  0  0  0  0  0  0  0  0  0  0  0
   63.4799   33.8227   50.3900 H   0  0  0  0  0  0  0  0  0  0  0  0
   64.0631   32.9609   48.9257 H   0  0  0  0  0  0  0  0  0  0  0  0
   63.9452   34.7533   48.9257 H   0  0  0  0  0  0  0  0  0  0  0  0
   59.3737   33.7730   45.2810 H   0  0  0  0  0  0  0  0  0  0  0  0
   57.8530   32.4239   43.8410 H   0  0  0  0  0  0  0  0  0  0  0  0
   56.9270   27.5650   43.3540 H   0  0  0  0  0  0  0  0  0  0  0  0
   59.9384   28.7975   44.0266 H   0  0  0  0  0  0  0  0  0  0  0  0
   61.7199   27.8653   45.4923 H   0  0  0  0  0  0  0  0  0  0  0  0
   61.1453   26.2095   47.2634 H   0  0  0  0  0  0  0  0  0  0  0  0
   58.7822   25.5049   47.5976 H   0  0  0  0  0  0  0  0  0  0  0  0
   55.5180   28.0980   45.5620 H   0  0  0  0  0  0  0  0  0  0  0  0
   57.7943   29.2934   46.8260 H   0  0  0  0  0  0  0  0  0  0  0  0
   59.3192   30.6321   48.2678 H   0  0  0  0  0  0  0  0  0  0  0  0
   59.0816   34.7254   48.4954 H   0  0  0  0  0  0  0  0  0  0  0  0
  1  2  1  0
  2  3  2  0
  3  4  1  0
  4  5  1  0
  5  6  2  0
  6  7  1  0
  7  8  2  0
  8  9  1  0
  9 10  2  0
  9 11  2  0
  9 12  1  0
 12 13  1  0
 13 14  2  0
 14 15  1  0
 15 16  2  0
 16 17  1  0
 17 18  2  0
 18 19  1  0
 19 20  1  0
 19 21  2  0
  8 22  1  0
 22 23  2  0
  4 24  2  0
 24 25  1  0
 25  2  1  0
 23  5  1  0
 18 13  1  0
  1 26  1  0
  1 27  1  0
  1 28  1  0
  6 29  1  0
  7 30  1  0
 12 31  1  0
 14 32  1  0
 15 33  1  0
 16 34  1  0
 17 35  1  0
 20 36  1  0
 22 37  1  0
 23 38  1  0
 24 39  1  0
M  CHG  1  20  -1
M  END
>  <UniqueID>  (71) 
68

>  <SMILES>  (71) 
Cc1nc(-c2ccc(S(=O)(=O)Nc3ccccc3C([NH-])=O)cc2)co1

>  <Energy>  (71) 
78.33944629359326

>  <Genealogy>  (71) 
Cc1nc(-c2ccc(S(=O)(=O)Nc3ccccc3C([NH-])=O)cc2)co1 (protonated)
Cc1nc(-c2ccc(S(=O)(=O)Nc3ccccc3C([NH-])=O)cc2)co1 (3D coordinates assigned)
Cc1nc(-c2ccc(S(=O)(=O)Nc3ccccc3C([NH-])=O)cc2)co1 (optimized conformer: 78.33944629359326 kcal/mol)

>  <smiles>  (71) 
Cc1nc(-c2ccc(S(=O)(=O)Nc3ccccc3C(N)=O)cc2)co1

>  <score_type>  (71) 
oracle

>  <origin>  (71) 
adg

>  <m_score__min__energy>  (71) 
-11.9

>  <m_primary>  (71) 
energy

$$$$
71:0
     RDKit          3D

 44 45  0  0  0  0  0  0  0  0999 V2000
   64.4080   28.8180   52.2770 C   0  0  0  0  0  0  0  0  0  0  0  0
   63.0570   29.2560   52.3160 O   0  0  0  0  0  0  0  0  0  0  0  0
   62.5830   30.3300   51.5550 C   0  0  0  0  0  0  0  0  0  0  0  0
   61.2510   30.7250   51.6890 C   0  0  0  0  0  0  0  0  0  0  0  0
   60.8020   31.8240   50.9570 C   0  0  0  0  0  0  0  0  0  0  0  0
   59.4750   32.2430   51.0900 O   0  0  0  0  0  0  0  0  0  0  0  0
   59.1170   33.4750   51.7060 C   0  0  0  0  0  0  0  0  0  0  0  0
   61.6610   32.4750   50.1270 N   0  0  0  0  0  0  0  0  0  0  0  0
   62.9470   32.0630   49.9780 C   0  0  0  0  0  0  0  0  0  0  0  0
   63.8460   32.8210   49.0930 C   0  0  0  0  0  0  0  0  0  0  0  0
   63.6850   32.9850   47.7720 C   0  0  0  0  0  0  0  0  0  0  0  0
   62.4340   32.7630   47.0170 C   0  0  0  0  0  0  0  0  0  0  0  0
   62.2180   33.4740   46.0000 O   0  0  0  0  0  0  0  0  0  0  0  0
   61.4180   31.8640   47.4970 N   0  0  0  0  0  0  0  0  0  0  0  0
   60.2750   31.4490   46.7200 C   0  0  0  0  0  0  0  0  0  0  0  0
   60.2110   30.1440   46.2010 C   0  0  0  0  0  0  0  0  0  0  0  0
   59.0900   29.7020   45.4940 C   0  0  0  0  0  0  0  0  0  0  0  0
   59.0860   28.0470   44.8910 Cl  0  0  0  0  0  0  0  0  0  0  0  0
   58.0010   30.5680   45.2950 C   0  0  0  0  0  0  0  0  0  0  0  0
   56.5620   30.0380   44.4150 S   0  0  0  0  0  0  0  0  0  0  0  0
   55.9230   28.6100   45.1520 N   0  0  0  0  0  0  0  0  0  0  0  0
   55.5060   31.1090   44.4380 O   0  0  0  0  0  0  0  0  0  0  0  0
   56.9250   29.7490   42.9860 O   0  0  0  0  0  0  0  0  0  0  0  0
   58.0540   31.8680   45.8150 C   0  0  0  0  0  0  0  0  0  0  0  0
   59.1770   32.3190   46.5250 C   0  0  0  0  0  0  0  0  0  0  0  0
   59.1920   33.9800   47.1360 S   0  0  0  0  0  0  0  0  0  0  0  0
   59.7650   33.9950   48.7670 N   0  0  0  0  0  0  0  0  0  0  0  0
   60.1030   34.8360   46.3020 O   0  0  0  0  0  0  0  0  0  0  0  0
   57.8010   34.5470   47.0790 O   0  0  0  0  0  0  0  0  0  0  0  0
   63.4040   31.0030   50.7010 N   0  0  0  0  0  0  0  0  0  0  0  0
   64.7837   28.6962   53.3036 H   0  0  0  0  0  0  0  0  0  0  0  0
   64.4661   27.8550   51.7486 H   0  0  0  0  0  0  0  0  0  0  0  0
   65.0201   29.5637   51.7486 H   0  0  0  0  0  0  0  0  0  0  0  0
   60.5690   30.1804   52.3586 H   0  0  0  0  0  0  0  0  0  0  0  0
   59.1500   33.3613   52.7996 H   0  0  0  0  0  0  0  0  0  0  0  0
   59.8246   34.2586   51.3973 H   0  0  0  0  0  0  0  0  0  0  0  0
   58.0997   33.7573   51.3973 H   0  0  0  0  0  0  0  0  0  0  0  0
   64.7254   33.2935   49.5549 H   0  0  0  0  0  0  0  0  0  0  0  0
   64.5637   33.3147   47.1982 H   0  0  0  0  0  0  0  0  0  0  0  0
   61.4800   31.5610   48.4920 H   0  0  0  0  0  0  0  0  0  0  0  0
   61.0581   29.4592   46.3542 H   0  0  0  0  0  0  0  0  0  0  0  0
   55.1870   28.2390   44.5090 H   0  0  0  0  0  0  0  0  0  0  0  0
   57.2012   32.5462   45.6641 H   0  0  0  0  0  0  0  0  0  0  0  0
   59.8410   32.9990   49.0720 H   0  0  0  0  0  0  0  0  0  0  0  0
  1  2  1  0
  2  3  1  0
  3  4  2  0
  4  5  1  0
  5  6  1  0
  6  7  1  0
  5  8  2  0
  8  9  1  0
  9 10  1  0
 10 11  2  3
 11 12  1  0
 12 13  2  0
 12 14  1  0
 14 15  1  0
 15 16  2  0
 16 17  1  0
 17 18  1  0
 17 19  2  0
 19 20  1  0
 20 21  1  0
 20 22  2  0
 20 23  2  0
 19 24  1  0
 24 25  2  0
 25 26  1  0
 26 27  1  0
 26 28  2  0
 26 29  2  0
  9 30  2  0
 30  3  1  0
 25 15  1  0
  1 31  1  0
  1 32  1  0
  1 33  1  0
  4 34  1  0
  7 35  1  0
  7 36  1  0
  7 37  1  0
 10 38  1  0
 11 39  1  0
 14 40  1  0
 16 41  1  0
 21 42  1  0
 24 43  1  0
 27 44  1  0
M  CHG  2  21  -1  27  -1
M  END
>  <UniqueID>  (72) 
69

>  <SMILES>  (72) 
COc1cc(OC)nc(C=CC(=O)Nc2cc(Cl)c(S([NH-])(=O)=O)cc2S([NH-])(=O)=O)n1

>  <Energy>  (72) 
51.50666056181754

>  <Genealogy>  (72) 
COc1cc(OC)nc(C=CC(=O)Nc2cc(Cl)c(S([NH-])(=O)=O)cc2S([NH-])(=O)=O)n1 (protonated)
COc1cc(OC)nc(C=CC(=O)Nc2cc(Cl)c(S([NH-])(=O)=O)cc2S([NH-])(=O)=O)n1 (3D coordinates assigned)
COc1cc(OC)nc(C=CC(=O)Nc2cc(Cl)c(S([NH-])(=O)=O)cc2S([NH-])(=O)=O)n1 (optimized conformer: 51.50666056181754 kcal/mol)

>  <smiles>  (72) 
COc1cc(OC)nc(C=CC(=O)Nc2cc(Cl)c(S(N)(=O)=O)cc2S(N)(=O)=O)n1

>  <score_type>  (72) 
oracle

>  <origin>  (72) 
adg

>  <m_score__min__energy>  (72) 
-11.99

>  <m_primary>  (72) 
energy

$$$$
72:0
     RDKit          3D

 68 71  0  0  0  0  0  0  0  0999 V2000
   55.8100   30.3400   43.2470 O   0  0  0  0  0  0  0  0  0  0  0  0
   56.7100   30.6870   44.0570 C   0  0  0  0  0  0  0  0  0  0  0  0
   57.8870   29.7840   44.2660 C   0  0  0  0  0  0  0  0  0  0  0  0
   57.4610   28.4570   44.7090 N   0  0  0  0  0  0  0  0  0  0  0  0
   57.8270   27.9250   45.9950 C   0  0  0  0  0  0  0  0  0  0  0  0
   58.6060   28.5790   46.7410 O   0  0  0  0  0  0  0  0  0  0  0  0
   57.3100   26.6150   46.4580 C   0  0  0  0  0  0  0  0  0  0  0  0
   57.9890   25.8660   47.4380 C   0  0  0  0  0  0  0  0  0  0  0  0
   57.4950   24.6250   47.8510 C   0  0  0  0  0  0  0  0  0  0  0  0
   56.3170   24.1120   47.2930 C   0  0  0  0  0  0  0  0  0  0  0  0
   55.6940   22.5430   47.7950 S   0  0  0  0  0  0  0  0  0  0  0  0
   54.9680   22.6650   49.1060 O   0  0  0  0  0  0  0  0  0  0  0  0
   54.7240   22.0510   46.7580 O   0  0  0  0  0  0  0  0  0  0  0  0
   57.0010   21.4040   47.9380 N   0  0  0  0  0  0  0  0  0  0  0  0
   56.6590   20.1230   47.3160 C   0  0  0  0  0  0  0  0  0  0  0  0
   57.3920   19.9710   45.9820 C   0  0  0  0  0  0  0  0  0  0  0  0
   57.3200   21.2490   45.1900 C   0  0  0  0  0  0  0  0  0  0  0  0
   58.3250   22.2220   45.3190 C   0  0  0  0  0  0  0  0  0  0  0  0
   58.2690   23.3960   44.5620 C   0  0  0  0  0  0  0  0  0  0  0  0
   57.2200   23.6000   43.6620 C   0  0  0  0  0  0  0  0  0  0  0  0
   56.2240   22.6290   43.5170 C   0  0  0  0  0  0  0  0  0  0  0  0
   56.2750   21.4550   44.2750 C   0  0  0  0  0  0  0  0  0  0  0  0
   55.6440   24.8440   46.3090 C   0  0  0  0  0  0  0  0  0  0  0  0
   56.1360   26.0840   45.8940 C   0  0  0  0  0  0  0  0  0  0  0  0
   56.5580   31.8690   44.8560 N   0  0  0  0  0  0  0  0  0  0  0  0
   57.6010   32.7260   45.3400 C   0  0  0  0  0  0  0  0  0  0  0  0
   58.0670   33.7500   44.5070 C   0  0  0  0  0  0  0  0  0  0  0  0
   59.0790   34.6100   44.9410 C   0  0  0  0  0  0  0  0  0  0  0  0
   59.6290   34.4590   46.2150 C   0  0  0  0  0  0  0  0  0  0  0  0
   59.1620   33.4500   47.0670 C   0  0  0  0  0  0  0  0  0  0  0  0
   59.8680   33.2440   48.6710 S   0  0  0  0  0  0  0  0  0  0  0  0
   60.2270   34.5930   49.2310 O   0  0  0  0  0  0  0  0  0  0  0  0
   58.8370   32.6310   49.5800 O   0  0  0  0  0  0  0  0  0  0  0  0
   61.2940   32.2240   48.6540 N   0  0  0  0  0  0  0  0  0  0  0  0
   61.8890   32.0900   47.3060 C   0  0  0  0  0  0  0  0  0  0  0  0
   63.1330   32.9740   47.1090 C   0  0  0  0  0  0  0  0  0  0  0  0
   63.0470   34.1320   47.9060 O   0  0  0  0  0  0  0  0  0  0  0  0
   63.1780   33.7820   49.2700 C   0  0  0  0  0  0  0  0  0  0  0  0
   62.2720   32.6010   49.6920 C   0  0  0  0  0  0  0  0  0  0  0  0
   58.1350   32.5980   46.6350 C   0  0  0  0  0  0  0  0  0  0  0  0
   58.4378   29.6868   43.3188 H   0  0  0  0  0  0  0  0  0  0  0  0
   58.5295   30.2222   45.0439 H   0  0  0  0  0  0  0  0  0  0  0  0
   56.9940   27.8400   44.0060 H   0  0  0  0  0  0  0  0  0  0  0  0
   58.9150   26.2602   47.8820 H   0  0  0  0  0  0  0  0  0  0  0  0
   58.0338   24.0488   48.6176 H   0  0  0  0  0  0  0  0  0  0  0  0
   56.9531   19.3030   47.9876 H   0  0  0  0  0  0  0  0  0  0  0  0
   55.5744   20.0900   47.1354 H   0  0  0  0  0  0  0  0  0  0  0  0
   58.4464   19.7240   46.1749 H   0  0  0  0  0  0  0  0  0  0  0  0
   56.9129   19.1674   45.4034 H   0  0  0  0  0  0  0  0  0  0  0  0
   59.1587   22.0596   46.0179 H   0  0  0  0  0  0  0  0  0  0  0  0
   59.0520   24.1603   44.6751 H   0  0  0  0  0  0  0  0  0  0  0  0
   57.1775   24.5245   43.0674 H   0  0  0  0  0  0  0  0  0  0  0  0
   55.3999   22.7889   42.8062 H   0  0  0  0  0  0  0  0  0  0  0  0
   55.4937   20.6902   44.1540 H   0  0  0  0  0  0  0  0  0  0  0  0
   54.7238   24.4417   45.8602 H   0  0  0  0  0  0  0  0  0  0  0  0
   55.5999   26.6507   45.1185 H   0  0  0  0  0  0  0  0  0  0  0  0
   57.6336   33.8784   43.5042 H   0  0  0  0  0  0  0  0  0  0  0  0
   59.4432   35.4079   44.2772 H   0  0  0  0  0  0  0  0  0  0  0  0
   60.4305   35.1335   46.5505 H   0  0  0  0  0  0  0  0  0  0  0  0
   62.1772   31.0396   47.1526 H   0  0  0  0  0  0  0  0  0  0  0  0
   61.1327   32.4180   46.5777 H   0  0  0  0  0  0  0  0  0  0  0  0
   64.0302   32.4047   47.3934 H   0  0  0  0  0  0  0  0  0  0  0  0
   63.1927   33.2733   46.0522 H   0  0  0  0  0  0  0  0  0  0  0  0
   64.2251   33.5029   49.4592 H   0  0  0  0  0  0  0  0  0  0  0  0
   62.8671   34.6564   49.8605 H   0  0  0  0  0  0  0  0  0  0  0  0
   62.9088   31.7300   49.9062 H   0  0  0  0  0  0  0  0  0  0  0  0
   61.7040   32.9227   50.5774 H   0  0  0  0  0  0  0  0  0  0  0  0
   57.7447   31.8249   47.3132 H   0  0  0  0  0  0  0  0  0  0  0  0
  1  2  2  0
  2  3  1  0
  3  4  1  0
  4  5  1  0
  5  6  2  0
  5  7  1  0
  7  8  2  0
  8  9  1  0
  9 10  2  0
 10 11  1  0
 11 12  2  0
 11 13  2  0
 11 14  1  0
 14 15  1  0
 15 16  1  0
 16 17  1  0
 17 18  2  0
 18 19  1  0
 19 20  2  0
 20 21  1  0
 21 22  2  0
 10 23  1  0
 23 24  2  0
  2 25  1  0
 25 26  1  0
 26 27  2  0
 27 28  1  0
 28 29  2  0
 29 30  1  0
 30 31  1  0
 31 32  2  0
 31 33  2  0
 31 34  1  0
 34 35  1  0
 35 36  1  0
 36 37  1  0
 37 38  1  0
 38 39  1  0
 30 40  2  0
 24  7  1  0
 40 26  1  0
 22 17  1  0
 39 34  1  0
  3 41  1  0
  3 42  1  0
  4 43  1  0
  8 44  1  0
  9 45  1  0
 15 46  1  0
 15 47  1  0
 16 48  1  0
 16 49  1  0
 18 50  1  0
 19 51  1  0
 20 52  1  0
 21 53  1  0
 22 54  1  0
 23 55  1  0
 24 56  1  0
 27 57  1  0
 28 58  1  0
 29 59  1  0
 35 60  1  0
 35 61  1  0
 36 62  1  0
 36 63  1  0
 38 64  1  0
 38 65  1  0
 39 66  1  0
 39 67  1  0
 40 68  1  0
M  CHG  2  14  -1  25  -1
M  END
>  <UniqueID>  (73) 
70

>  <SMILES>  (73) 
O=C(CNC(=O)c1ccc(S(=O)(=O)[N-]CCc2ccccc2)cc1)[N-]c1cccc(S(=O)(=O)N2CCOCC2)c1

>  <Energy>  (73) 
81.99251234031517

>  <Genealogy>  (73) 
O=C(CNC(=O)c1ccc(S(=O)(=O)[N-]CCc2ccccc2)cc1)[N-]c1cccc(S(=O)(=O)N2CCOCC2)c1 (protonated)
O=C(CNC(=O)c1ccc(S(=O)(=O)[N-]CCc2ccccc2)cc1)[N-]c1cccc(S(=O)(=O)N2CCOCC2)c1 (3D coordinates assigned)
O=C(CNC(=O)c1ccc(S(=O)(=O)[N-]CCc2ccccc2)cc1)[N-]c1cccc(S(=O)(=O)N2CCOCC2)c1 (nonaromatic ring conformer: 81.99251234031517 kcal/mol)

>  <smiles>  (73) 
O=C(CNC(=O)c1ccc(S(=O)(=O)NCCc2ccccc2)cc1)Nc1cccc(S(=O)(=O)N2CCOCC2)c1

>  <score_type>  (73) 
oracle

>  <origin>  (73) 
adg

>  <m_score__min__energy>  (73) 
-12.609999999999999

>  <m_primary>  (73) 
energy

$$$$
73:0
     RDKit          3D

 41 44  0  0  0  0  0  0  0  0999 V2000
   53.4900   25.2120   44.7300 H   0  0  0  0  0  0  0  0  0  0  0  0
   53.8060   24.3040   44.4210 O   0  0  0  0  0  0  0  0  0  0  0  0
   55.1380   23.9040   44.5080 C   0  0  0  0  0  0  0  0  0  0  0  0
   55.5370   22.6810   43.9390 C   0  0  0  0  0  0  0  0  0  0  0  0
   54.7936   22.0501   43.4297 H   0  0  0  0  0  0  0  0  0  0  0  0
   56.8800   22.2540   44.0140 C   0  0  0  0  0  0  0  0  0  0  0  0
   57.1702   21.2889   43.5731 H   0  0  0  0  0  0  0  0  0  0  0  0
   57.8540   23.0530   44.6490 C   0  0  0  0  0  0  0  0  0  0  0  0
   59.2760   22.5960   44.7690 C   0  0  0  0  0  0  0  0  0  0  0  0
   59.5449   22.5096   45.8321 H   0  0  0  0  0  0  0  0  0  0  0  0
   59.3887   21.6164   44.2815 H   0  0  0  0  0  0  0  0  0  0  0  0
   59.9383   23.3265   44.2815 H   0  0  0  0  0  0  0  0  0  0  0  0
   57.4310   24.2560   45.2210 C   0  0  0  0  0  0  0  0  0  0  0  0
   58.1660   25.1320   45.8700 O   0  0  0  0  0  0  0  0  0  0  0  0
   57.3790   26.1250   46.2390 C   0  0  0  0  0  0  0  0  0  0  0  0
   57.8530   27.3390   46.9700 C   0  0  0  0  0  0  0  0  0  0  0  0
   57.0869   27.6516   47.6948 H   0  0  0  0  0  0  0  0  0  0  0  0
   58.7882   27.1034   47.4991 H   0  0  0  0  0  0  0  0  0  0  0  0
   58.1000   28.4480   45.9990 C   0  0  0  0  0  0  0  0  0  0  0  0
   57.0340   29.7110   45.6760 S   0  0  0  0  0  0  0  0  0  0  0  0
   58.1250   30.4770   44.6540 C   0  0  0  0  0  0  0  0  0  0  0  0
   57.8600   31.5790   44.0190 N   0  0  0  0  0  0  0  0  0  0  0  0
   57.9250   32.9010   44.5780 C   0  0  0  0  0  0  0  0  0  0  0  0
   57.1770   33.7930   44.0990 O   0  0  0  0  0  0  0  0  0  0  0  0
   58.7980   33.2290   45.7310 C   0  0  0  0  0  0  0  0  0  0  0  0
   58.4420   32.8110   47.0260 C   0  0  0  0  0  0  0  0  0  0  0  0
   57.5098   32.2483   47.1823 H   0  0  0  0  0  0  0  0  0  0  0  0
   59.2670   33.1070   48.1160 C   0  0  0  0  0  0  0  0  0  0  0  0
   58.9772   32.7851   49.1271 H   0  0  0  0  0  0  0  0  0  0  0  0
   60.4590   33.8110   47.9230 C   0  0  0  0  0  0  0  0  0  0  0  0
   61.5830   34.2140   49.4130 Br  0  0  0  0  0  0  0  0  0  0  0  0
   60.8300   34.2150   46.6370 C   0  0  0  0  0  0  0  0  0  0  0  0
   61.7702   34.7651   46.4841 H   0  0  0  0  0  0  0  0  0  0  0  0
   60.0080   33.9210   45.5450 C   0  0  0  0  0  0  0  0  0  0  0  0
   60.3096   34.2329   44.5342 H   0  0  0  0  0  0  0  0  0  0  0  0
   59.2910   29.8000   44.5460 N   0  0  0  0  0  0  0  0  0  0  0  0
   59.2850   28.6740   45.3060 C   0  0  0  0  0  0  0  0  0  0  0  0
   60.1482   27.9951   45.3685 H   0  0  0  0  0  0  0  0  0  0  0  0
   56.0830   25.8830   45.8060 C   0  0  0  0  0  0  0  0  0  0  0  0
   54.9830   26.7090   45.9960 O   0  0  0  0  0  0  0  0  0  0  0  0
   56.1200   24.6710   45.1500 C   0  0  0  0  0  0  0  0  0  0  0  0
  1  2  1  0
  2  3  1  0
  3  4  2  0
  4  5  1  0
  4  6  1  0
  6  7  1  0
  6  8  2  0
  8  9  1  0
  9 10  1  0
  9 11  1  0
  9 12  1  0
  8 13  1  0
 13 14  1  0
 14 15  1  0
 15 16  1  0
 16 17  1  0
 16 18  1  0
 16 19  1  0
 19 20  1  0
 20 21  1  0
 21 22  2  0
 22 23  1  0
 23 24  2  0
 23 25  1  0
 25 26  2  0
 26 27  1  0
 26 28  1  0
 28 29  1  0
 28 30  2  0
 30 31  1  0
 30 32  1  0
 32 33  1  0
 32 34  2  0
 34 35  1  0
 21 36  1  0
 36 37  1  0
 37 38  1  0
 15 39  2  0
 39 40  1  0
 39 41  1  0
 41  3  1  0
 41 13  2  0
 37 19  2  0
 34 25  1  0
M  CHG  2  36  -1  40  -1
M  END
>  <UniqueID>  (74) 
71

>  <SMILES>  (74) 
Cc1ccc(O)c2c([O-])c(Cc3c[n-]/c(=N\C(=O)c4ccc(Br)cc4)s3)oc12

>  <Energy>  (74) 
116.04663470608335

>  <Genealogy>  (74) 
Cc1ccc(O)c2c([O-])c(Cc3c[n-]c(=NC(=O)c4ccc(Br)cc4)s3)oc12 (protonated)
Cc1ccc(O)c2c([O-])c(Cc3c[n-]/c(=N\C(=O)c4ccc(Br)cc4)s3)oc12 (cis-trans isomerization)
Cc1ccc(O)c2c([O-])c(Cc3c[n-]/c(=N\C(=O)c4ccc(Br)cc4)s3)oc12 (3D coordinates assigned)
Cc1ccc(O)c2c([O-])c(Cc3c[n-]/c(=N\C(=O)c4ccc(Br)cc4)s3)oc12 (optimized conformer: 116.04663470608335 kcal/mol)

>  <smiles>  (74) 
Cc1ccc(O)c2c(O)c(Cc3c[nH]c(=NC(=O)c4ccc(Br)cc4)s3)oc12

>  <score_type>  (74) 
oracle

>  <origin>  (74) 
adg

>  <m_score__min__energy>  (74) 
-14.550000000000001

>  <m_primary>  (74) 
energy

$$$$
74:0
     RDKit          3D

 55 59  0  0  0  0  0  0  0  0999 V2000
   64.7740   35.5260   52.4350 C   0  0  0  0  0  0  0  0  0  0  0  0
   65.5010   34.3410   51.8720 C   0  0  0  0  0  0  0  0  0  0  0  0
   66.8040   34.0040   52.3000 C   0  0  0  0  0  0  0  0  0  0  0  0
   67.4850   32.9010   51.7350 C   0  0  0  0  0  0  0  0  0  0  0  0
   66.8770   32.1260   50.7310 C   0  0  0  0  0  0  0  0  0  0  0  0
   65.5960   32.4900   50.3210 C   0  0  0  0  0  0  0  0  0  0  0  0
   64.8460   31.9140   49.3700 N   0  0  0  0  0  0  0  0  0  0  0  0
   63.7240   32.6810   49.3740 C   0  0  0  0  0  0  0  0  0  0  0  0
   62.5980   32.4470   48.4610 C   0  0  0  0  0  0  0  0  0  0  0  0
   62.1260   31.2050   48.0550 C   0  0  0  0  0  0  0  0  0  0  0  0
   61.0150   31.2850   47.2050 C   0  0  0  0  0  0  0  0  0  0  0  0
   60.6080   32.5930   46.9370 C   0  0  0  0  0  0  0  0  0  0  0  0
   59.4620   33.0050   46.0900 C   0  0  0  0  0  0  0  0  0  0  0  0
   59.3280   34.3430   45.6780 C   0  0  0  0  0  0  0  0  0  0  0  0
   58.2450   34.7360   44.8880 C   0  0  0  0  0  0  0  0  0  0  0  0
   57.2850   33.8030   44.4940 C   0  0  0  0  0  0  0  0  0  0  0  0
   57.4070   32.4590   44.8840 C   0  0  0  0  0  0  0  0  0  0  0  0
   56.4200   31.4760   44.5430 N   0  0  0  0  0  0  0  0  0  0  0  0
   56.5700   30.0520   44.6090 C   0  0  0  0  0  0  0  0  0  0  0  0
   55.7340   29.3490   45.2360 O   0  0  0  0  0  0  0  0  0  0  0  0
   57.6570   29.4310   43.9150 N   0  0  0  0  0  0  0  0  0  0  0  0
   57.8430   27.9810   43.8720 C   0  0  0  0  0  0  0  0  0  0  0  0
   59.2780   27.6200   44.2590 C   0  0  0  0  0  0  0  0  0  0  0  0
   59.4700   27.7130   45.7500 C   0  0  0  0  0  0  0  0  0  0  0  0
   60.3520   26.8390   46.4110 C   0  0  0  0  0  0  0  0  0  0  0  0
   60.5160   26.9220   47.7980 C   0  0  0  0  0  0  0  0  0  0  0  0
   59.7880   27.8620   48.5350 C   0  0  0  0  0  0  0  0  0  0  0  0
   58.8930   28.7200   47.8870 C   0  0  0  0  0  0  0  0  0  0  0  0
   58.7330   28.6480   46.5000 C   0  0  0  0  0  0  0  0  0  0  0  0
   58.4850   32.0730   45.6920 C   0  0  0  0  0  0  0  0  0  0  0  0
   61.6420   33.6400   47.7660 S   0  0  0  0  0  0  0  0  0  0  0  0
   63.7400   33.7000   50.2740 N   0  0  0  0  0  0  0  0  0  0  0  0
   64.9370   33.5540   50.8620 C   0  0  0  0  0  0  0  0  0  0  0  0
   64.7998   35.4839   53.5339 H   0  0  0  0  0  0  0  0  0  0  0  0
   65.2601   36.4513   52.0920 H   0  0  0  0  0  0  0  0  0  0  0  0
   63.7289   35.5119   52.0920 H   0  0  0  0  0  0  0  0  0  0  0  0
   67.2937   34.6052   53.0802 H   0  0  0  0  0  0  0  0  0  0  0  0
   68.4972   32.6473   52.0831 H   0  0  0  0  0  0  0  0  0  0  0  0
   67.3942   31.2635   50.2854 H   0  0  0  0  0  0  0  0  0  0  0  0
   62.5794   30.2534   48.3696 H   0  0  0  0  0  0  0  0  0  0  0  0
   60.5111   30.4005   46.7882 H   0  0  0  0  0  0  0  0  0  0  0  0
   60.0814   35.0854   45.9800 H   0  0  0  0  0  0  0  0  0  0  0  0
   58.1485   35.7861   44.5750 H   0  0  0  0  0  0  0  0  0  0  0  0
   56.4314   34.1205   43.8771 H   0  0  0  0  0  0  0  0  0  0  0  0
   58.3770   30.0400   43.4680 H   0  0  0  0  0  0  0  0  0  0  0  0
   57.1459   27.5043   44.5769 H   0  0  0  0  0  0  0  0  0  0  0  0
   57.6467   27.6245   42.8501 H   0  0  0  0  0  0  0  0  0  0  0  0
   59.4920   26.5920   43.9314 H   0  0  0  0  0  0  0  0  0  0  0  0
   59.9634   28.3283   43.7706 H   0  0  0  0  0  0  0  0  0  0  0  0
   60.9142   26.0884   45.8360 H   0  0  0  0  0  0  0  0  0  0  0  0
   61.2182   26.2473   48.3095 H   0  0  0  0  0  0  0  0  0  0  0  0
   59.9194   27.9266   49.6252 H   0  0  0  0  0  0  0  0  0  0  0  0
   58.3145   29.4522   48.4695 H   0  0  0  0  0  0  0  0  0  0  0  0
   58.0288   29.3244   45.9935 H   0  0  0  0  0  0  0  0  0  0  0  0
   58.5689   31.0264   46.0200 H   0  0  0  0  0  0  0  0  0  0  0  0
  1  2  1  0
  2  3  2  0
  3  4  1  0
  4  5  2  0
  5  6  1  0
  6  7  1  0
  7  8  1  0
  8  9  1  0
  9 10  2  0
 10 11  1  0
 11 12  2  0
 12 13  1  0
 13 14  2  0
 14 15  1  0
 15 16  2  0
 16 17  1  0
 17 18  1  0
 18 19  1  0
 19 20  2  0
 19 21  1  0
 21 22  1  0
 22 23  1  0
 23 24  1  0
 24 25  2  0
 25 26  1  0
 26 27  2  0
 27 28  1  0
 28 29  2  0
 17 30  2  0
 12 31  1  0
  8 32  2  0
 32 33  1  0
 33  2  1  0
 33  6  2  0
 31  9  1  0
 30 13  1  0
 29 24  1  0
  1 34  1  0
  1 35  1  0
  1 36  1  0
  3 37  1  0
  4 38  1  0
  5 39  1  0
 10 40  1  0
 11 41  1  0
 14 42  1  0
 15 43  1  0
 16 44  1  0
 21 45  1  0
 22 46  1  0
 22 47  1  0
 23 48  1  0
 23 49  1  0
 25 50  1  0
 26 51  1  0
 27 52  1  0
 28 53  1  0
 29 54  1  0
 30 55  1  0
M  CHG  2   7  -1  18  -1
M  END
>  <UniqueID>  (75) 
72

>  <SMILES>  (75) 
Cc1cccc2[n-]c(-c3ccc(-c4cccc([N-]C(=O)NCCc5ccccc5)c4)s3)nc12

>  <Energy>  (75) 
121.82806892641044

>  <Genealogy>  (75) 
Cc1cccc2[n-]c(-c3ccc(-c4cccc([N-]C(=O)NCCc5ccccc5)c4)s3)nc12 (protonated)
Cc1cccc2[n-]c(-c3ccc(-c4cccc([N-]C(=O)NCCc5ccccc5)c4)s3)nc12 (3D coordinates assigned)
Cc1cccc2[n-]c(-c3ccc(-c4cccc([N-]C(=O)NCCc5ccccc5)c4)s3)nc12 (optimized conformer: 121.82806892641044 kcal/mol)

>  <smiles>  (75) 
Cc1cccc2[nH]c(-c3ccc(-c4cccc(NC(=O)NCCc5ccccc5)c4)s3)nc12

>  <score_type>  (75) 
oracle

>  <origin>  (75) 
adg

>  <m_score__min__energy>  (75) 
-12.09

>  <m_primary>  (75) 
energy

$$$$
75:0
     RDKit          3D

 39 42  0  0  0  0  0  0  0  0999 V2000
   58.1410   26.8930   44.0610 C   0  0  0  0  0  0  0  0  0  0  0  0
   58.1770   28.2740   44.6050 C   0  0  0  0  0  0  0  0  0  0  0  0
   58.3060   28.5650   45.9030 N   0  0  0  0  0  0  0  0  0  0  0  0
   58.3410   29.7920   46.4000 C   0  0  0  0  0  0  0  0  0  0  0  0
   58.4650   29.9310   47.6360 O   0  0  0  0  0  0  0  0  0  0  0  0
   58.2360   30.9180   45.5380 C   0  0  0  0  0  0  0  0  0  0  0  0
   58.2510   32.1940   45.8570 C   0  0  0  0  0  0  0  0  0  0  0  0
   58.1310   33.1670   44.8270 C   0  0  0  0  0  0  0  0  0  0  0  0
   57.9880   32.1380   43.2890 S   0  0  0  0  0  0  0  0  0  0  0  0
   58.1050   30.5270   44.2090 C   0  0  0  0  0  0  0  0  0  0  0  0
   58.0750   29.2990   43.7470 N   0  0  0  0  0  0  0  0  0  0  0  0
   58.1310   34.5770   45.0410 C   0  0  0  0  0  0  0  0  0  0  0  0
   59.0970   34.9650   46.1030 C   0  0  0  0  0  0  0  0  0  0  0  0
   59.2180   34.0170   47.1220 N   0  0  0  0  0  0  0  0  0  0  0  0
   60.0090   34.3550   48.2540 C   0  0  0  0  0  0  0  0  0  0  0  0
   61.4190   33.9230   48.0640 C   0  0  0  0  0  0  0  0  0  0  0  0
   62.2170   33.6120   49.1620 C   0  0  0  0  0  0  0  0  0  0  0  0
   63.5190   33.2090   49.0510 C   0  0  0  0  0  0  0  0  0  0  0  0
   64.1000   33.0930   47.7950 C   0  0  0  0  0  0  0  0  0  0  0  0
   63.3310   33.3960   46.6850 C   0  0  0  0  0  0  0  0  0  0  0  0
   62.0150   33.8010   46.8290 C   0  0  0  0  0  0  0  0  0  0  0  0
   58.3900   32.8930   47.2040 C   0  0  0  0  0  0  0  0  0  0  0  0
   58.1222   26.1721   44.8916 H   0  0  0  0  0  0  0  0  0  0  0  0
   57.2392   26.7653   43.4442 H   0  0  0  0  0  0  0  0  0  0  0  0
   59.0349   26.7185   43.4442 H   0  0  0  0  0  0  0  0  0  0  0  0
   57.9740   29.1200   42.7410 H   0  0  0  0  0  0  0  0  0  0  0  0
   58.4083   35.0812   44.1035 H   0  0  0  0  0  0  0  0  0  0  0  0
   57.1232   34.8781   45.3631 H   0  0  0  0  0  0  0  0  0  0  0  0
   60.0848   35.1060   45.6400 H   0  0  0  0  0  0  0  0  0  0  0  0
   58.7159   35.8879   46.5644 H   0  0  0  0  0  0  0  0  0  0  0  0
   59.9827   35.4451   48.3992 H   0  0  0  0  0  0  0  0  0  0  0  0
   59.5993   33.8400   49.1355 H   0  0  0  0  0  0  0  0  0  0  0  0
   61.7787   33.6945   50.1675 H   0  0  0  0  0  0  0  0  0  0  0  0
   64.1040   32.9775   49.9533 H   0  0  0  0  0  0  0  0  0  0  0  0
   65.1453   32.7684   47.6851 H   0  0  0  0  0  0  0  0  0  0  0  0
   63.7693   33.3143   45.6794 H   0  0  0  0  0  0  0  0  0  0  0  0
   61.4272   34.0325   45.9285 H   0  0  0  0  0  0  0  0  0  0  0  0
   58.8195   32.1863   47.9294 H   0  0  0  0  0  0  0  0  0  0  0  0
   57.3909   33.2263   47.5213 H   0  0  0  0  0  0  0  0  0  0  0  0
  1  2  1  0
  2  3  2  0
  3  4  1  0
  4  5  2  0
  4  6  1  0
  6  7  1  0
  7  8  2  0
  8  9  1  0
  9 10  1  0
 10 11  1  0
  8 12  1  0
 12 13  1  0
 13 14  1  0
 14 15  1  0
 15 16  1  0
 16 17  2  0
 17 18  1  0
 18 19  2  0
 19 20  1  0
 20 21  2  0
 14 22  1  0
 11  2  1  0
 21 16  1  0
 10  6  2  0
 22  7  1  0
  1 23  1  0
  1 24  1  0
  1 25  1  0
 11 26  1  0
 12 27  1  0
 12 28  1  0
 13 29  1  0
 13 30  1  0
 15 31  1  0
 15 32  1  0
 17 33  1  0
 18 34  1  0
 19 35  1  0
 20 36  1  0
 21 37  1  0
 22 38  1  0
 22 39  1  0
M  END
>  <smiles>  (76) 
Cc1nc(=O)c2c3c(sc2[nH]1)CCN(Cc1ccccc1)C3

>  <score_type>  (76) 
oracle

>  <origin>  (76) 
adg

>  <m_score__min__energy>  (76) 
-8.4399999999999995

>  <m_primary>  (76) 
energy

$$$$
76:0
     RDKit          3D

 26 27  0  0  0  0  0  0  0  0999 V2000
   56.4250   31.2320   44.2790 H   0  0  0  0  0  0  0  0  0  0  0  0
   57.3200   30.7890   44.4500 O   0  0  0  0  0  0  0  0  0  0  0  0
   57.4080   29.4790   44.9180 C   0  0  0  0  0  0  0  0  0  0  0  0
   58.6590   28.8880   45.1370 C   0  0  0  0  0  0  0  0  0  0  0  0
   59.5780   29.4592   44.9392 H   0  0  0  0  0  0  0  0  0  0  0  0
   58.7420   27.5750   45.6060 C   0  0  0  0  0  0  0  0  0  0  0  0
   59.7271   27.1223   45.7920 H   0  0  0  0  0  0  0  0  0  0  0  0
   57.5740   26.8280   45.8420 C   0  0  0  0  0  0  0  0  0  0  0  0
   57.6510   25.4460   46.3670 C   0  0  0  0  0  0  0  0  0  0  0  0
   58.5575   24.8627   46.1478 H   0  0  0  0  0  0  0  0  0  0  0  0
   56.7150   24.8750   47.0720 N   0  0  0  0  0  0  0  0  0  0  0  0
   55.8780   23.7730   46.6820 C   0  0  0  0  0  0  0  0  0  0  0  0
   54.6880   23.9790   45.9590 C   0  0  0  0  0  0  0  0  0  0  0  0
   54.3990   24.9968   45.6580 H   0  0  0  0  0  0  0  0  0  0  0  0
   53.8720   22.8950   45.6220 C   0  0  0  0  0  0  0  0  0  0  0  0
   52.9536   23.0594   45.0394 H   0  0  0  0  0  0  0  0  0  0  0  0
   54.2210   21.6030   46.0240 C   0  0  0  0  0  0  0  0  0  0  0  0
   53.4100   20.5260   45.6880 O   0  0  0  0  0  0  0  0  0  0  0  0
   55.3850   21.3950   46.7710 C   0  0  0  0  0  0  0  0  0  0  0  0
   55.6558   20.3788   47.0936 H   0  0  0  0  0  0  0  0  0  0  0  0
   56.2060   22.4770   47.1090 C   0  0  0  0  0  0  0  0  0  0  0  0
   57.3560   22.2580   47.8610 O   0  0  0  0  0  0  0  0  0  0  0  0
   56.3200   27.4340   45.6450 C   0  0  0  0  0  0  0  0  0  0  0  0
   55.1500   26.7260   45.9020 O   0  0  0  0  0  0  0  0  0  0  0  0
   56.2400   28.7530   45.1770 C   0  0  0  0  0  0  0  0  0  0  0  0
   54.9980   29.3420   44.9710 O   0  0  0  0  0  0  0  0  0  0  0  0
  1  2  1  0
  2  3  1  0
  3  4  2  0
  4  5  1  0
  4  6  1  0
  6  7  1  0
  6  8  2  0
  8  9  1  0
  9 10  1  0
  9 11  2  0
 11 12  1  0
 12 13  2  0
 13 14  1  0
 13 15  1  0
 15 16  1  0
 15 17  2  0
 17 18  1  0
 17 19  1  0
 19 20  1  0
 19 21  2  0
 21 22  1  0
  8 23  1  0
 23 24  1  0
 23 25  2  0
 25 26  1  0
 25  3  1  0
 21 12  1  0
M  CHG  4  18  -1  22  -1  24  -1  26  -1
M  END
>  <UniqueID>  (77) 
73

>  <SMILES>  (77) 
[O-]c1ccc(/N=C\c2ccc(O)c([O-])c2[O-])c([O-])c1

>  <Energy>  (77) 
39.38116216127787

>  <Genealogy>  (77) 
[O-]c1ccc(N=Cc2ccc(O)c([O-])c2[O-])c([O-])c1 (protonated)
[O-]c1ccc(/N=C\c2ccc(O)c([O-])c2[O-])c([O-])c1 (cis-trans isomerization)
[O-]c1ccc(/N=C\c2ccc(O)c([O-])c2[O-])c([O-])c1 (3D coordinates assigned)
[O-]c1ccc(/N=C\c2ccc(O)c([O-])c2[O-])c([O-])c1 (optimized conformer: 39.38116216127787 kcal/mol)

>  <smiles>  (77) 
Oc1ccc(N=Cc2ccc(O)c(O)c2O)c(O)c1

>  <score_type>  (77) 
oracle

>  <origin>  (77) 
adg

>  <m_score__min__energy>  (77) 
-16.039999999999999

>  <m_primary>  (77) 
energy

$$$$
77:0
     RDKit          3D

 59 62  0  0  0  0  0  0  0  0999 V2000
   64.5940   33.0800   49.8310 C   0  0  0  0  0  0  0  0  0  0  0  0
   63.4180   33.1670   50.7940 C   0  0  0  0  0  0  0  0  0  0  0  0
   62.4720   34.1370   50.3460 O   0  0  0  0  0  0  0  0  0  0  0  0
   61.6340   34.0140   49.2220 C   0  0  0  0  0  0  0  0  0  0  0  0
   62.1320   34.0410   47.9020 C   0  0  0  0  0  0  0  0  0  0  0  0
   61.2610   33.9230   46.8160 C   0  0  0  0  0  0  0  0  0  0  0  0
   59.8850   33.7720   47.0270 C   0  0  0  0  0  0  0  0  0  0  0  0
   58.9970   33.6460   45.9140 N   0  0  0  0  0  0  0  0  0  0  0  0
   57.5780   33.3210   45.6860 C   0  0  0  0  0  0  0  0  0  0  0  0
   57.6280   33.4510   44.1960 C   0  0  0  0  0  0  0  0  0  0  0  0
   57.4800   32.2010   43.5180 O   0  0  0  0  0  0  0  0  0  0  0  0
   57.4890   30.9500   44.1520 C   0  0  0  0  0  0  0  0  0  0  0  0
   56.2930   30.2300   44.2200 C   0  0  0  0  0  0  0  0  0  0  0  0
   56.2440   28.9870   44.8560 C   0  0  0  0  0  0  0  0  0  0  0  0
   57.4040   28.4340   45.4230 C   0  0  0  0  0  0  0  0  0  0  0  0
   57.3520   27.0790   46.0930 C   0  0  2  0  0  0  0  0  0  0  0  0
   58.5320   26.8920   47.0530 C   0  0  0  0  0  0  0  0  0  0  0  0
   57.3490   26.0220   45.0780 N   0  0  0  0  0  0  0  0  0  0  0  0
   57.5950   24.6430   45.4070 C   0  0  0  0  0  0  0  0  0  0  0  0
   58.1070   24.3450   46.5210 O   0  0  0  0  0  0  0  0  0  0  0  0
   57.2780   23.5630   44.4460 C   0  0  0  0  0  0  0  0  0  0  0  0
   58.1170   22.4440   44.3000 C   0  0  0  0  0  0  0  0  0  0  0  0
   57.8030   21.4480   43.3710 C   0  0  0  0  0  0  0  0  0  0  0  0
   56.6490   21.5760   42.5940 C   0  0  0  0  0  0  0  0  0  0  0  0
   55.8460   22.6650   42.7400 N   0  0  0  0  0  0  0  0  0  0  0  0
   56.1330   23.6500   43.6330 C   0  0  0  0  0  0  0  0  0  0  0  0
   58.6120   29.1500   45.3380 C   0  0  0  0  0  0  0  0  0  0  0  0
   58.6550   30.4000   44.7170 C   0  0  0  0  0  0  0  0  0  0  0  0
   59.0630   33.7750   44.4460 C   0  0  0  0  0  0  0  0  0  0  0  0
   59.3810   33.7450   48.3330 C   0  0  0  0  0  0  0  0  0  0  0  0
   60.2480   33.8680   49.4270 C   0  0  0  0  0  0  0  0  0  0  0  0
   59.7050   33.8490   50.7630 C   0  0  0  0  0  0  0  0  0  0  0  0
   59.2670   33.8320   51.8340 N   0  0  0  0  0  0  0  0  0  0  0  0
   65.5314   33.0107   50.4023 H   0  0  0  0  0  0  0  0  0  0  0  0
   64.4839   32.1875   49.1974 H   0  0  0  0  0  0  0  0  0  0  0  0
   64.6164   33.9789   49.1974 H   0  0  0  0  0  0  0  0  0  0  0  0
   62.9271   32.1845   50.8546 H   0  0  0  0  0  0  0  0  0  0  0  0
   63.7920   33.4675   51.7839 H   0  0  0  0  0  0  0  0  0  0  0  0
   63.2119   34.1556   47.7271 H   0  0  0  0  0  0  0  0  0  0  0  0
   61.6580   33.9488   45.7905 H   0  0  0  0  0  0  0  0  0  0  0  0
   57.3160   32.3048   46.0158 H   0  0  0  0  0  0  0  0  0  0  0  0
   56.8313   33.9280   46.2189 H   0  0  0  0  0  0  0  0  0  0  0  0
   56.9339   34.0772   43.6162 H   0  0  0  0  0  0  0  0  0  0  0  0
   55.3807   30.6464   43.7680 H   0  0  0  0  0  0  0  0  0  0  0  0
   55.2921   28.4386   44.9130 H   0  0  0  0  0  0  0  0  0  0  0  0
   56.4247   27.0182   46.6816 H   0  0  0  0  0  0  0  0  0  0  0  0
   58.1727   26.9489   48.0911 H   0  0  0  0  0  0  0  0  0  0  0  0
   58.9945   25.9093   46.8785 H   0  0  0  0  0  0  0  0  0  0  0  0
   59.2757   27.6835   46.8785 H   0  0  0  0  0  0  0  0  0  0  0  0
   57.0680   26.2740   44.1000 H   0  0  0  0  0  0  0  0  0  0  0  0
   59.0223   22.3523   44.9182 H   0  0  0  0  0  0  0  0  0  0  0  0
   58.4579   20.5722   43.2528 H   0  0  0  0  0  0  0  0  0  0  0  0
   56.3892   20.7957   41.8635 H   0  0  0  0  0  0  0  0  0  0  0  0
   55.4657   24.5201   43.7201 H   0  0  0  0  0  0  0  0  0  0  0  0
   59.5309   28.7214   45.7645 H   0  0  0  0  0  0  0  0  0  0  0  0
   59.6027   30.9564   44.6692 H   0  0  0  0  0  0  0  0  0  0  0  0
   59.7490   33.0485   43.9860 H   0  0  0  0  0  0  0  0  0  0  0  0
   59.4403   34.7262   44.0424 H   0  0  0  0  0  0  0  0  0  0  0  0
   58.3003   33.6268   48.5009 H   0  0  0  0  0  0  0  0  0  0  0  0
  1  2  1  0
  2  3  1  0
  3  4  1  0
  4  5  2  0
  5  6  1  0
  6  7  2  0
  7  8  1  0
  8  9  1  0
  9 10  1  0
 10 11  1  0
 11 12  1  0
 12 13  2  0
 13 14  1  0
 14 15  2  0
 15 16  1  0
 16 17  1  0
 16 18  1  0
 18 19  1  0
 19 20  2  0
 19 21  1  0
 21 22  2  0
 22 23  1  0
 23 24  2  0
 24 25  1  0
 25 26  2  0
 15 27  1  0
 27 28  2  0
 10 29  1  0
  7 30  1  0
 30 31  2  0
 31 32  1  0
 32 33  3  0
 31  4  1  0
 29  8  1  0
 28 12  1  0
 26 21  1  0
  1 34  1  0
  1 35  1  0
  1 36  1  0
  2 37  1  0
  2 38  1  0
  5 39  1  0
  6 40  1  0
  9 41  1  0
  9 42  1  0
 10 43  1  0
 13 44  1  0
 14 45  1  0
 16 46  1  1
 17 47  1  0
 17 48  1  0
 17 49  1  0
 18 50  1  0
 22 51  1  0
 23 52  1  0
 24 53  1  0
 26 54  1  0
 27 55  1  0
 28 56  1  0
 29 57  1  0
 29 58  1  0
 30 59  1  0
M  END
>  <UniqueID>  (78) 
74

>  <SMILES>  (78) 
CCOc1ccc(N2CC(Oc3ccc([C@H](C)NC(=O)c4cccnc4)cc3)C2)cc1C#N

>  <Energy>  (78) 
104.35516728516417

>  <Genealogy>  (78) 
CCOc1ccc(N2CC(Oc3ccc([C@H](C)NC(=O)c4cccnc4)cc3)C2)cc1C#N (chirality)
CCOc1ccc(N2CC(Oc3ccc([C@H](C)NC(=O)c4cccnc4)cc3)C2)cc1C#N (3D coordinates assigned)
CCOc1ccc(N2CC(Oc3ccc([C@H](C)NC(=O)c4cccnc4)cc3)C2)cc1C#N (nonaromatic ring conformer: 104.35516728516417 kcal/mol)

>  <smiles>  (78) 
CCOc1ccc(N2CC(Oc3ccc(C(C)NC(=O)c4cccnc4)cc3)C2)cc1C#N

>  <score_type>  (78) 
oracle

>  <origin>  (78) 
adg

>  <m_score__min__energy>  (78) 
-8.8000000000000007

>  <m_primary>  (78) 
energy

$$$$
78:0
     RDKit          3D

 65 69  0  0  0  0  0  0  0  0999 V2000
   57.3620   28.6980   45.2860 C   0  0  0  0  0  0  0  0  0  0  0  0
   58.1790   29.8480   45.7060 N   0  0  0  0  0  0  0  0  0  0  0  0
   59.6180   29.5180   45.6470 C   0  0  0  0  0  0  0  0  0  0  0  0
   60.1780   29.4380   47.0470 C   0  0  0  0  0  0  0  0  0  0  0  0
   60.8070   30.5610   47.6110 C   0  0  0  0  0  0  0  0  0  0  0  0
   61.3970   30.4870   48.8820 C   0  0  0  0  0  0  0  0  0  0  0  0
   62.0160   31.7080   49.5030 C   0  0  0  0  0  0  0  0  0  0  0  0
   62.6600   32.5130   48.4720 N   0  0  0  0  0  0  0  0  0  0  0  0
   62.8650   33.8410   48.4950 C   0  0  0  0  0  0  0  0  0  0  0  0
   63.5560   34.2440   47.4110 N   0  0  0  0  0  0  0  0  0  0  0  0
   63.7580   33.0830   46.7480 C   0  0  0  0  0  0  0  0  0  0  0  0
   63.2260   32.0230   47.3860 N   0  0  0  0  0  0  0  0  0  0  0  0
   61.3450   29.2830   49.5990 C   0  0  0  0  0  0  0  0  0  0  0  0
   60.7230   28.1620   49.0470 C   0  0  0  0  0  0  0  0  0  0  0  0
   60.1360   28.2280   47.7760 C   0  0  0  0  0  0  0  0  0  0  0  0
   59.4410   27.0800   47.2610 N   0  0  0  0  0  0  0  0  0  0  0  0
   58.1230   26.9120   47.5790 C   0  0  0  0  0  0  0  0  0  0  0  0
   57.4130   25.8240   47.0790 C   0  0  0  0  0  0  0  0  0  0  0  0
   58.0780   24.9120   46.2650 C   0  0  0  0  0  0  0  0  0  0  0  0
   57.4640   23.9200   45.7940 O   0  0  0  0  0  0  0  0  0  0  0  0
   59.3930   25.0950   45.9780 N   0  0  0  0  0  0  0  0  0  0  0  0
   60.0770   26.1630   46.4650 C   0  0  0  0  0  0  0  0  0  0  0  0
   61.2950   26.3020   46.1720 O   0  0  0  0  0  0  0  0  0  0  0  0
   57.7750   31.2620   44.7440 S   0  0  0  0  0  0  0  0  0  0  0  0
   56.2840   31.4150   44.6060 O   0  0  0  0  0  0  0  0  0  0  0  0
   58.3680   31.1690   43.3640 O   0  0  0  0  0  0  0  0  0  0  0  0
   58.4150   32.6900   45.5570 C   0  0  0  0  0  0  0  0  0  0  0  0
   58.6760   33.8530   44.8170 C   0  0  0  0  0  0  0  0  0  0  0  0
   59.2210   34.9770   45.4400 C   0  0  0  0  0  0  0  0  0  0  0  0
   59.5050   34.9530   46.8050 C   0  0  0  0  0  0  0  0  0  0  0  0
   59.2120   33.8130   47.5720 C   0  0  0  0  0  0  0  0  0  0  0  0
   59.5320   33.7740   49.0160 C   0  0  0  0  0  0  0  0  0  0  0  0
   60.3750   34.5950   49.4730 O   0  0  0  0  0  0  0  0  0  0  0  0
   58.9010   32.8380   49.9110 N   0  0  0  0  0  0  0  0  0  0  0  0
   58.4830   31.4980   49.5280 C   0  0  0  0  0  0  0  0  0  0  0  0
   57.9810   30.8370   50.8050 C   0  0  0  0  0  0  0  0  0  0  0  0
   58.5010   31.6950   51.9550 C   0  0  0  0  0  0  0  0  0  0  0  0
   58.8590   33.0460   51.3500 C   0  0  0  0  0  0  0  0  0  0  0  0
   58.6840   32.6750   46.9360 C   0  0  0  0  0  0  0  0  0  0  0  0
   56.9871   28.1703   46.1753 H   0  0  0  0  0  0  0  0  0  0  0  0
   56.5120   29.0523   44.6844 H   0  0  0  0  0  0  0  0  0  0  0  0
   57.9763   28.0120   44.6844 H   0  0  0  0  0  0  0  0  0  0  0  0
   59.7509   28.5489   45.1438 H   0  0  0  0  0  0  0  0  0  0  0  0
   60.1492   30.3007   45.0856 H   0  0  0  0  0  0  0  0  0  0  0  0
   60.8371   31.5071   47.0507 H   0  0  0  0  0  0  0  0  0  0  0  0
   61.2336   32.3037   49.9960 H   0  0  0  0  0  0  0  0  0  0  0  0
   62.7673   31.3977   50.2441 H   0  0  0  0  0  0  0  0  0  0  0  0
   62.5146   34.5109   49.2940 H   0  0  0  0  0  0  0  0  0  0  0  0
   64.2978   33.0121   45.7922 H   0  0  0  0  0  0  0  0  0  0  0  0
   61.7962   29.2217   50.6004 H   0  0  0  0  0  0  0  0  0  0  0  0
   60.6933   27.2197   49.6138 H   0  0  0  0  0  0  0  0  0  0  0  0
   57.6205   27.6398   48.2331 H   0  0  0  0  0  0  0  0  0  0  0  0
   56.3489   25.6880   47.3222 H   0  0  0  0  0  0  0  0  0  0  0  0
   58.4501   33.8792   43.7408 H   0  0  0  0  0  0  0  0  0  0  0  0
   59.4270   35.8840   44.8527 H   0  0  0  0  0  0  0  0  0  0  0  0
   59.9612   35.8319   47.2841 H   0  0  0  0  0  0  0  0  0  0  0  0
   57.6776   31.5473   48.7805 H   0  0  0  0  0  0  0  0  0  0  0  0
   59.3102   30.9300   49.0772 H   0  0  0  0  0  0  0  0  0  0  0  0
   56.8814   30.8104   50.8148 H   0  0  0  0  0  0  0  0  0  0  0  0
   58.3330   29.7980   50.8862 H   0  0  0  0  0  0  0  0  0  0  0  0
   57.7227   31.8154   52.7229 H   0  0  0  0  0  0  0  0  0  0  0  0
   59.3719   31.2298   52.4398 H   0  0  0  0  0  0  0  0  0  0  0  0
   58.0952   33.7949   51.6065 H   0  0  0  0  0  0  0  0  0  0  0  0
   59.8204   33.4189   51.7331 H   0  0  0  0  0  0  0  0  0  0  0  0
   58.4802   31.7669   47.5223 H   0  0  0  0  0  0  0  0  0  0  0  0
  1  2  1  0
  2  3  1  0
  3  4  1  0
  4  5  2  0
  5  6  1  0
  6  7  1  0
  7  8  1  0
  8  9  1  0
  9 10  2  0
 10 11  1  0
 11 12  2  0
  6 13  2  0
 13 14  1  0
 14 15  2  0
 15 16  1  0
 16 17  1  0
 17 18  2  0
 18 19  1  0
 19 20  2  0
 19 21  1  0
 21 22  1  0
 22 23  2  0
  2 24  1  0
 24 25  2  0
 24 26  2  0
 24 27  1  0
 27 28  2  0
 28 29  1  0
 29 30  2  0
 30 31  1  0
 31 32  1  0
 32 33  2  0
 32 34  1  0
 34 35  1  0
 35 36  1  0
 36 37  1  0
 37 38  1  0
 31 39  2  0
 15  4  1  0
 22 16  1  0
 39 27  1  0
 12  8  1  0
 38 34  1  0
  1 40  1  0
  1 41  1  0
  1 42  1  0
  3 43  1  0
  3 44  1  0
  5 45  1  0
  7 46  1  0
  7 47  1  0
  9 48  1  0
 11 49  1  0
 13 50  1  0
 14 51  1  0
 17 52  1  0
 18 53  1  0
 28 54  1  0
 29 55  1  0
 30 56  1  0
 35 57  1  0
 35 58  1  0
 36 59  1  0
 36 60  1  0
 37 61  1  0
 37 62  1  0
 38 63  1  0
 38 64  1  0
 39 65  1  0
M  CHG  1  21  -1
M  END
>  <UniqueID>  (79) 
75

>  <SMILES>  (79) 
CN(Cc1cc(Cn2cncn2)ccc1-n1ccc(=O)[n-]c1=O)S(=O)(=O)c1cccc(C(=O)N2CCCC2)c1

>  <Energy>  (79) 
113.93743955487597

>  <Genealogy>  (79) 
CN(Cc1cc(Cn2cncn2)ccc1-n1ccc(=O)[n-]c1=O)S(=O)(=O)c1cccc(C(=O)N2CCCC2)c1 (protonated)
CN(Cc1cc(Cn2cncn2)ccc1-n1ccc(=O)[n-]c1=O)S(=O)(=O)c1cccc(C(=O)N2CCCC2)c1 (3D coordinates assigned)
CN(Cc1cc(Cn2cncn2)ccc1-n1ccc(=O)[n-]c1=O)S(=O)(=O)c1cccc(C(=O)N2CCCC2)c1 (nonaromatic ring conformer: 113.93743955487597 kcal/mol)

>  <smiles>  (79) 
CN(Cc1cc(Cn2cncn2)ccc1-n1ccc(=O)[nH]c1=O)S(=O)(=O)c1cccc(C(=O)N2CCCC2)c1

>  <score_type>  (79) 
oracle

>  <origin>  (79) 
adg

>  <m_score__min__energy>  (79) 
-13.17

>  <m_primary>  (79) 
energy

$$$$
79:0
     RDKit          3D

 58 62  0  0  0  0  0  0  0  0999 V2000
   60.0420   28.5250   49.5270 C   0  0  0  0  0  0  0  0  0  0  0  0
   59.4310   29.8700   49.8080 C   0  0  0  0  0  0  0  0  0  0  0  0
   58.9680   30.1750   51.0960 C   0  0  0  0  0  0  0  0  0  0  0  0
   58.4140   31.4250   51.3660 C   0  0  0  0  0  0  0  0  0  0  0  0
   58.2940   32.3750   50.3520 C   0  0  0  0  0  0  0  0  0  0  0  0
   58.7290   32.0880   49.0470 C   0  0  0  0  0  0  0  0  0  0  0  0
   58.5060   33.0950   47.9850 C   0  0  0  0  0  0  0  0  0  0  0  0
   57.3890   33.1680   47.4030 O   0  0  0  0  0  0  0  0  0  0  0  0
   59.5550   33.9480   47.6170 O   0  0  0  0  0  0  0  0  0  0  0  0
   60.9110   33.7510   47.9170 C   0  0  0  0  0  0  0  0  0  0  0  0
   61.7770   33.3550   46.8700 C   0  0  0  0  0  0  0  0  0  0  0  0
   63.1450   33.1330   47.1130 C   0  0  0  0  0  0  0  0  0  0  0  0
   63.6080   33.3030   48.4140 C   0  0  0  0  0  0  0  0  0  0  0  0
   62.7830   33.6660   49.4270 C   0  0  0  0  0  0  0  0  0  0  0  0
   61.4250   33.8950   49.2290 C   0  0  0  0  0  0  0  0  0  0  0  0
   63.5070   33.7490   50.6010 O   0  0  0  0  0  0  0  0  0  0  0  0
   64.8710   33.4220   50.3050 C   0  0  0  0  0  0  0  0  0  0  0  0
   64.8910   33.1420   48.8980 O   0  0  0  0  0  0  0  0  0  0  0  0
   59.3310   30.8310   48.7830 C   0  0  0  0  0  0  0  0  0  0  0  0
   59.8410   30.5170   47.5160 O   0  0  0  0  0  0  0  0  0  0  0  0
   59.1880   29.6590   46.6220 C   0  0  0  0  0  0  0  0  0  0  0  0
   59.2900   28.4100   46.7630 O   0  0  0  0  0  0  0  0  0  0  0  0
   58.4040   30.2330   45.5000 C   0  0  0  0  0  0  0  0  0  0  0  0
   58.7220   31.5290   45.0510 C   0  0  0  0  0  0  0  0  0  0  0  0
   58.0460   32.0980   43.9710 C   0  0  0  0  0  0  0  0  0  0  0  0
   57.0380   31.3850   43.3240 C   0  0  0  0  0  0  0  0  0  0  0  0
   56.6990   30.1040   43.7590 C   0  0  0  0  0  0  0  0  0  0  0  0
   57.3750   29.5100   44.8400 C   0  0  0  0  0  0  0  0  0  0  0  0
   56.9450   28.2250   45.3190 N   0  0  0  0  0  0  0  0  0  0  0  0
   57.4720   26.9860   44.8130 C   0  0  0  0  0  0  0  0  0  0  0  0
   58.4120   26.9980   43.9720 O   0  0  0  0  0  0  0  0  0  0  0  0
   56.9100   25.6870   45.2440 C   0  0  0  0  0  0  0  0  0  0  0  0
   57.6950   24.5280   45.1200 C   0  0  0  0  0  0  0  0  0  0  0  0
   57.1910   23.2840   45.5100 C   0  0  0  0  0  0  0  0  0  0  0  0
   55.9010   23.1860   46.0360 C   0  0  0  0  0  0  0  0  0  0  0  0
   55.1180   24.3320   46.1830 C   0  0  0  0  0  0  0  0  0  0  0  0
   55.6170   25.5830   45.8010 C   0  0  0  0  0  0  0  0  0  0  0  0
   54.8320   26.7120   46.0090 O   0  0  0  0  0  0  0  0  0  0  0  0
   60.2711   28.0206   50.4773 H   0  0  0  0  0  0  0  0  0  0  0  0
   59.3332   27.9138   48.9491 H   0  0  0  0  0  0  0  0  0  0  0  0
   60.9686   28.6567   48.9491 H   0  0  0  0  0  0  0  0  0  0  0  0
   59.0424   29.4244   51.8967 H   0  0  0  0  0  0  0  0  0  0  0  0
   58.0699   31.6633   52.3832 H   0  0  0  0  0  0  0  0  0  0  0  0
   57.8547   33.3583   50.5759 H   0  0  0  0  0  0  0  0  0  0  0  0
   61.3761   33.2192   45.8547 H   0  0  0  0  0  0  0  0  0  0  0  0
   63.8255   32.8351   46.3017 H   0  0  0  0  0  0  0  0  0  0  0  0
   60.7703   34.1793   50.0660 H   0  0  0  0  0  0  0  0  0  0  0  0
   65.5311   34.2701   50.5395 H   0  0  0  0  0  0  0  0  0  0  0  0
   65.2290   32.5691   50.9002 H   0  0  0  0  0  0  0  0  0  0  0  0
   59.5135   32.1003   45.5581 H   0  0  0  0  0  0  0  0  0  0  0  0
   58.3088   33.1102   43.6299 H   0  0  0  0  0  0  0  0  0  0  0  0
   56.5095   31.8331   42.4696 H   0  0  0  0  0  0  0  0  0  0  0  0
   55.8942   29.5522   43.2512 H   0  0  0  0  0  0  0  0  0  0  0  0
   56.1710   28.2030   46.0200 H   0  0  0  0  0  0  0  0  0  0  0  0
   58.7143   24.6004   44.7127 H   0  0  0  0  0  0  0  0  0  0  0  0
   57.8108   22.3816   45.4026 H   0  0  0  0  0  0  0  0  0  0  0  0
   55.5019   22.2054   46.3345 H   0  0  0  0  0  0  0  0  0  0  0  0
   54.1037   24.2518   46.6011 H   0  0  0  0  0  0  0  0  0  0  0  0
  1  2  1  0
  2  3  2  0
  3  4  1  0
  4  5  2  0
  5  6  1  0
  6  7  1  0
  7  8  2  0
  7  9  1  0
  9 10  1  0
 10 11  2  0
 11 12  1  0
 12 13  2  0
 13 14  1  0
 14 15  2  0
 14 16  1  0
 16 17  1  0
 17 18  1  0
  6 19  2  0
 19 20  1  0
 20 21  1  0
 21 22  2  0
 21 23  1  0
 23 24  2  0
 24 25  1  0
 25 26  2  0
 26 27  1  0
 27 28  2  0
 28 29  1  0
 29 30  1  0
 30 31  2  0
 30 32  1  0
 32 33  2  0
 33 34  1  0
 34 35  2  0
 35 36  1  0
 36 37  2  0
 37 38  1  0
 19  2  1  0
 28 23  1  0
 37 32  1  0
 15 10  1  0
 18 13  1  0
  1 39  1  0
  1 40  1  0
  1 41  1  0
  3 42  1  0
  4 43  1  0
  5 44  1  0
 11 45  1  0
 12 46  1  0
 15 47  1  0
 17 48  1  0
 17 49  1  0
 24 50  1  0
 25 51  1  0
 26 52  1  0
 27 53  1  0
 29 54  1  0
 33 55  1  0
 34 56  1  0
 35 57  1  0
 36 58  1  0
M  CHG  1  38  -1
M  END
>  <UniqueID>  (80) 
76

>  <SMILES>  (80) 
Cc1cccc(C(=O)Oc2ccc3c(c2)OCO3)c1OC(=O)c1ccccc1NC(=O)c1ccccc1[O-]

>  <Energy>  (80) 
118.73727028210646

>  <Genealogy>  (80) 
Cc1cccc(C(=O)Oc2ccc3c(c2)OCO3)c1OC(=O)c1ccccc1NC(=O)c1ccccc1[O-] (protonated)
Cc1cccc(C(=O)Oc2ccc3c(c2)OCO3)c1OC(=O)c1ccccc1NC(=O)c1ccccc1[O-] (3D coordinates assigned)
Cc1cccc(C(=O)Oc2ccc3c(c2)OCO3)c1OC(=O)c1ccccc1NC(=O)c1ccccc1[O-] (nonaromatic ring conformer: 118.73727028210646 kcal/mol)

>  <smiles>  (80) 
Cc1cccc(C(=O)Oc2ccc3c(c2)OCO3)c1OC(=O)c1ccccc1NC(=O)c1ccccc1O

>  <score_type>  (80) 
oracle

>  <origin>  (80) 
adg

>  <m_score__min__energy>  (80) 
-13.6

>  <m_primary>  (80) 
energy

$$$$
80:0
     RDKit          3D

 52 55  0  0  0  0  0  0  0  0999 V2000
   55.1800   26.7090   46.0640 N   0  0  0  0  0  0  0  0  0  0  0  0
   56.2610   27.5220   45.6090 C   0  0  0  0  0  0  0  0  0  0  0  0
   56.0080   28.5920   44.9950 O   0  0  0  0  0  0  0  0  0  0  0  0
   57.6690   27.0950   45.8040 C   0  0  0  0  0  0  0  0  0  0  0  0
   57.9520   25.7160   45.8380 C   0  0  0  0  0  0  0  0  0  0  0  0
   59.2450   25.2570   46.0950 C   0  0  0  0  0  0  0  0  0  0  0  0
   60.2760   26.1650   46.3210 C   0  0  0  0  0  0  0  0  0  0  0  0
   60.0240   27.5370   46.2740 C   0  0  0  0  0  0  0  0  0  0  0  0
   58.7310   28.0190   46.0030 C   0  0  0  0  0  0  0  0  0  0  0  0
   58.5490   29.4830   45.8680 C   0  0  0  0  0  0  0  0  0  0  0  0
   58.3850   30.2860   47.0070 C   0  0  0  0  0  0  0  0  0  0  0  0
   58.1970   31.6640   46.8780 C   0  0  0  0  0  0  0  0  0  0  0  0
   58.1470   32.2600   45.6060 C   0  0  0  0  0  0  0  0  0  0  0  0
   57.9590   33.7230   45.4610 C   0  0  0  0  0  0  0  0  0  0  0  0
   56.9040   34.1570   44.9260 O   0  0  0  0  0  0  0  0  0  0  0  0
   58.9650   34.6680   45.8560 N   0  0  0  0  0  0  0  0  0  0  0  0
   60.0070   34.4120   46.5940 C   0  0  0  0  0  0  0  0  0  0  0  0
   59.8850   34.4500   47.9890 C   0  0  0  0  0  0  0  0  0  0  0  0
   61.0040   34.1630   48.7940 C   0  0  0  0  0  0  0  0  0  0  0  0
   60.9600   34.1890   50.1980 O   0  0  0  0  0  0  0  0  0  0  0  0
   61.0060   33.0430   51.0560 C   0  0  0  0  0  0  0  0  0  0  0  0
   60.6910   31.7560   50.2620 C   0  0  0  0  0  0  0  0  0  0  0  0
   59.1780   31.4820   50.1890 C   0  0  0  0  0  0  0  0  0  0  0  0
   58.4440   32.6840   50.3100 O   0  0  0  0  0  0  0  0  0  0  0  0
   58.5330   33.1800   51.6370 C   0  0  0  0  0  0  0  0  0  0  0  0
   59.9800   33.2270   52.1800 C   0  0  0  0  0  0  0  0  0  0  0  0
   62.2150   33.8330   48.1790 C   0  0  0  0  0  0  0  0  0  0  0  0
   62.2960   33.7930   46.7860 C   0  0  0  0  0  0  0  0  0  0  0  0
   61.2030   34.0770   46.0330 N   0  0  0  0  0  0  0  0  0  0  0  0
   58.3150   31.4530   44.4670 C   0  0  0  0  0  0  0  0  0  0  0  0
   58.5040   30.0750   44.5970 C   0  0  0  0  0  0  0  0  0  0  0  0
   54.4870   27.0750   46.7540 H   0  0  0  0  0  0  0  0  0  0  0  0
   57.1439   24.9913   45.6598 H   0  0  0  0  0  0  0  0  0  0  0  0
   59.4496   24.1765   46.1190 H   0  0  0  0  0  0  0  0  0  0  0  0
   61.2911   25.8004   46.5370 H   0  0  0  0  0  0  0  0  0  0  0  0
   60.8445   28.2480   46.4506 H   0  0  0  0  0  0  0  0  0  0  0  0
   58.4046   29.8278   48.0068 H   0  0  0  0  0  0  0  0  0  0  0  0
   58.0873   32.2870   47.7779 H   0  0  0  0  0  0  0  0  0  0  0  0
   58.9202   34.7027   48.4530 H   0  0  0  0  0  0  0  0  0  0  0  0
   62.0164   32.9460   51.4799 H   0  0  0  0  0  0  0  0  0  0  0  0
   61.0825   31.8641   49.2397 H   0  0  0  0  0  0  0  0  0  0  0  0
   61.1658   30.9105   50.7813 H   0  0  0  0  0  0  0  0  0  0  0  0
   58.9429   31.0115   49.2229 H   0  0  0  0  0  0  0  0  0  0  0  0
   58.9001   30.8141   51.0177 H   0  0  0  0  0  0  0  0  0  0  0  0
   58.1201   34.1994   51.6565 H   0  0  0  0  0  0  0  0  0  0  0  0
   57.9675   32.4896   52.2800 H   0  0  0  0  0  0  0  0  0  0  0  0
   60.1494   34.2006   52.6632 H   0  0  0  0  0  0  0  0  0  0  0  0
   60.1058   32.4059   52.9011 H   0  0  0  0  0  0  0  0  0  0  0  0
   63.1008   33.6057   48.7903 H   0  0  0  0  0  0  0  0  0  0  0  0
   63.2465   33.5311   46.2981 H   0  0  0  0  0  0  0  0  0  0  0  0
   58.2975   31.9099   43.4665 H   0  0  0  0  0  0  0  0  0  0  0  0
   58.6181   29.4511   43.6983 H   0  0  0  0  0  0  0  0  0  0  0  0
  1  2  1  0
  2  3  2  0
  2  4  1  0
  4  5  2  0
  5  6  1  0
  6  7  2  0
  7  8  1  0
  8  9  2  0
  9 10  1  0
 10 11  2  0
 11 12  1  0
 12 13  2  0
 13 14  1  0
 14 15  2  0
 14 16  1  0
 16 17  2  3
 17 18  1  0
 18 19  2  0
 19 20  1  0
 20 21  1  0
 21 22  1  0
 22 23  1  0
 23 24  1  0
 24 25  1  0
 25 26  1  0
 19 27  1  0
 27 28  2  0
 28 29  1  0
 13 30  1  0
 30 31  2  0
  9  4  1  0
 31 10  1  0
 29 17  1  0
 26 21  1  0
  1 32  1  0
  5 33  1  0
  6 34  1  0
  7 35  1  0
  8 36  1  0
 11 37  1  0
 12 38  1  0
 18 39  1  0
 21 40  1  0
 22 41  1  0
 22 42  1  0
 23 43  1  0
 23 44  1  0
 25 45  1  0
 25 46  1  0
 26 47  1  0
 26 48  1  0
 27 49  1  0
 28 50  1  0
 30 51  1  0
 31 52  1  0
M  CHG  2   1  -1  29  -1
M  END
>  <UniqueID>  (81) 
77

>  <SMILES>  (81) 
[NH-]C(=O)c1ccccc1-c1ccc(C(=O)N=c2cc(OC3CCOCC3)cc[n-]2)cc1

>  <Energy>  (81) 
81.87336434246362

>  <Genealogy>  (81) 
[NH-]C(=O)c1ccccc1-c1ccc(C(=O)N=c2cc(OC3CCOCC3)cc[n-]2)cc1 (protonated)
[NH-]C(=O)c1ccccc1-c1ccc(C(=O)N=c2cc(OC3CCOCC3)cc[n-]2)cc1 (3D coordinates assigned)
[NH-]C(=O)c1ccccc1-c1ccc(C(=O)N=c2cc(OC3CCOCC3)cc[n-]2)cc1 (nonaromatic ring conformer: 81.87336434246362 kcal/mol)

>  <smiles>  (81) 
NC(=O)c1ccccc1-c1ccc(C(=O)N=c2cc(OC3CCOCC3)cc[nH]2)cc1

>  <score_type>  (81) 
oracle

>  <origin>  (81) 
adg

>  <m_score__min__energy>  (81) 
-13.5

>  <m_primary>  (81) 
energy

$$$$
81:0
     RDKit          3D

 61 65  0  0  0  0  0  0  0  0999 V2000
   57.8070   26.3130   43.1810 C   0  0  0  0  0  0  0  0  0  0  0  0
   57.6380   27.0390   44.4490 N   0  0  0  0  0  0  0  0  0  0  0  0
   57.5820   26.2580   45.6990 C   0  0  0  0  0  0  0  0  0  0  0  0
   58.5150   26.8320   46.7430 C   0  0  0  0  0  0  0  0  0  0  0  0
   58.1420   27.9040   47.4620 C   0  0  0  0  0  0  0  0  0  0  0  0
   59.0450   28.5100   48.4520 C   0  0  0  0  0  0  0  0  0  0  0  0
   58.6960   29.6830   49.1360 C   0  0  0  0  0  0  0  0  0  0  0  0
   59.5560   30.2130   50.1130 C   0  0  0  0  0  0  0  0  0  0  0  0
   59.2040   31.4680   50.8090 C   0  0  0  0  0  0  0  0  0  0  0  0
   59.9440   32.6310   50.5350 C   0  0  0  0  0  0  0  0  0  0  0  0
   59.6470   33.8300   51.1890 C   0  0  0  0  0  0  0  0  0  0  0  0
   58.6020   33.8840   52.1140 C   0  0  0  0  0  0  0  0  0  0  0  0
   57.8510   32.7370   52.3870 C   0  0  0  0  0  0  0  0  0  0  0  0
   58.1460   31.5270   51.7440 C   0  0  0  0  0  0  0  0  0  0  0  0
   57.1340   30.1260   52.0920 Cl  0  0  0  0  0  0  0  0  0  0  0  0
   60.7700   29.5610   50.3910 C   0  0  0  0  0  0  0  0  0  0  0  0
   61.1150   28.3900   49.7080 C   0  0  0  0  0  0  0  0  0  0  0  0
   60.2570   27.8710   48.7350 C   0  0  0  0  0  0  0  0  0  0  0  0
   60.5910   26.7010   48.0500 O   0  0  0  0  0  0  0  0  0  0  0  0
   59.9300   26.3040   46.8410 C   0  0  0  0  0  0  0  0  0  0  0  0
   57.6580   28.4930   44.4590 C   0  0  0  0  0  0  0  0  0  0  0  0
   56.4620   29.2380   44.4190 C   0  0  0  0  0  0  0  0  0  0  0  0
   56.4850   30.6350   44.4510 C   0  0  0  0  0  0  0  0  0  0  0  0
   57.7040   31.3240   44.5140 C   0  0  0  0  0  0  0  0  0  0  0  0
   57.7160   32.8020   44.5480 C   0  0  0  0  0  0  0  0  0  0  0  0
   58.3040   33.4320   43.6280 O   0  0  0  0  0  0  0  0  0  0  0  0
   57.0690   33.5480   45.5890 N   0  0  0  0  0  0  0  0  0  0  0  0
   57.6110   33.8020   46.9220 C   0  0  0  0  0  0  0  0  0  0  0  0
   59.0590   33.3870   46.9890 C   0  0  0  0  0  0  0  0  0  0  0  0
   60.0870   34.3010   46.7060 C   0  0  0  0  0  0  0  0  0  0  0  0
   61.4210   33.8870   46.7550 C   0  0  0  0  0  0  0  0  0  0  0  0
   61.7150   32.5600   47.0920 C   0  0  0  0  0  0  0  0  0  0  0  0
   60.7100   31.6820   47.3530 N   0  0  0  0  0  0  0  0  0  0  0  0
   59.4030   32.0590   47.3060 C   0  0  0  0  0  0  0  0  0  0  0  0
   58.9010   30.5950   44.5040 C   0  0  0  0  0  0  0  0  0  0  0  0
   58.8800   29.1980   44.4860 C   0  0  0  0  0  0  0  0  0  0  0  0
   58.0518   25.2613   43.3905 H   0  0  0  0  0  0  0  0  0  0  0  0
   56.8730   26.3638   42.6021 H   0  0  0  0  0  0  0  0  0  0  0  0
   58.6225   26.7710   42.6021 H   0  0  0  0  0  0  0  0  0  0  0  0
   56.5532   26.2760   46.0879 H   0  0  0  0  0  0  0  0  0  0  0  0
   57.8950   25.2264   45.4804 H   0  0  0  0  0  0  0  0  0  0  0  0
   57.1425   28.3365   47.3072 H   0  0  0  0  0  0  0  0  0  0  0  0
   57.7468   30.1897   48.9074 H   0  0  0  0  0  0  0  0  0  0  0  0
   60.7625   32.5974   49.8009 H   0  0  0  0  0  0  0  0  0  0  0  0
   60.2375   34.7330   50.9747 H   0  0  0  0  0  0  0  0  0  0  0  0
   58.3700   34.8287   52.6275 H   0  0  0  0  0  0  0  0  0  0  0  0
   57.0238   32.7843   53.1106 H   0  0  0  0  0  0  0  0  0  0  0  0
   61.4519   29.9736   51.1492 H   0  0  0  0  0  0  0  0  0  0  0  0
   62.0613   27.8780   49.9368 H   0  0  0  0  0  0  0  0  0  0  0  0
   60.5065   26.6839   45.9847 H   0  0  0  0  0  0  0  0  0  0  0  0
   59.8733   25.2055   46.8411 H   0  0  0  0  0  0  0  0  0  0  0  0
   55.4973   28.7126   44.3618 H   0  0  0  0  0  0  0  0  0  0  0  0
   55.5401   31.1976   44.4266 H   0  0  0  0  0  0  0  0  0  0  0  0
   57.5310   34.8757   47.1472 H   0  0  0  0  0  0  0  0  0  0  0  0
   57.0382   33.2177   47.6572 H   0  0  0  0  0  0  0  0  0  0  0  0
   59.8426   35.3415   46.4461 H   0  0  0  0  0  0  0  0  0  0  0  0
   62.2315   34.5962   46.5312 H   0  0  0  0  0  0  0  0  0  0  0  0
   62.7620   32.2269   47.1457 H   0  0  0  0  0  0  0  0  0  0  0  0
   58.6126   31.3235   47.5164 H   0  0  0  0  0  0  0  0  0  0  0  0
   59.8640   31.1265   44.5104 H   0  0  0  0  0  0  0  0  0  0  0  0
   59.8283   28.6406   44.4930 H   0  0  0  0  0  0  0  0  0  0  0  0
  1  2  1  0
  2  3  1  0
  3  4  1  0
  4  5  2  0
  5  6  1  0
  6  7  2  0
  7  8  1  0
  8  9  1  0
  9 10  2  0
 10 11  1  0
 11 12  2  0
 12 13  1  0
 13 14  2  0
 14 15  1  0
  8 16  2  0
 16 17  1  0
 17 18  2  0
 18 19  1  0
 19 20  1  0
  2 21  1  0
 21 22  2  0
 22 23  1  0
 23 24  2  0
 24 25  1  0
 25 26  2  0
 25 27  1  0
 27 28  1  0
 28 29  1  0
 29 30  2  0
 30 31  1  0
 31 32  2  0
 32 33  1  0
 33 34  2  0
 24 35  1  0
 35 36  2  0
 20  4  1  0
 36 21  1  0
 18  6  1  0
 34 29  1  0
 14  9  1  0
  1 37  1  0
  1 38  1  0
  1 39  1  0
  3 40  1  0
  3 41  1  0
  5 42  1  0
  7 43  1  0
 10 44  1  0
 11 45  1  0
 12 46  1  0
 13 47  1  0
 16 48  1  0
 17 49  1  0
 20 50  1  0
 20 51  1  0
 22 52  1  0
 23 53  1  0
 28 54  1  0
 28 55  1  0
 30 56  1  0
 31 57  1  0
 32 58  1  0
 34 59  1  0
 35 60  1  0
 36 61  1  0
M  CHG  1  27  -1
M  END
>  <UniqueID>  (82) 
78

>  <SMILES>  (82) 
CN(CC1=Cc2cc(-c3ccccc3Cl)ccc2OC1)c1ccc(C(=O)[N-]Cc2cccnc2)cc1

>  <Energy>  (82) 
83.90309956300628

>  <Genealogy>  (82) 
CN(CC1=Cc2cc(-c3ccccc3Cl)ccc2OC1)c1ccc(C(=O)[N-]Cc2cccnc2)cc1 (protonated)
CN(CC1=Cc2cc(-c3ccccc3Cl)ccc2OC1)c1ccc(C(=O)[N-]Cc2cccnc2)cc1 (3D coordinates assigned)
CN(CC1=Cc2cc(-c3ccccc3Cl)ccc2OC1)c1ccc(C(=O)[N-]Cc2cccnc2)cc1 (nonaromatic ring conformer: 83.90309956300628 kcal/mol)

>  <smiles>  (82) 
CN(CC1=Cc2cc(-c3ccccc3Cl)ccc2OC1)c1ccc(C(=O)NCc2cccnc2)cc1

>  <score_type>  (82) 
oracle

>  <origin>  (82) 
adg

>  <m_score__min__energy>  (82) 
-12.529999999999999

>  <m_primary>  (82) 
energy

$$$$
82:0
     RDKit          3D

 57 61  0  0  0  0  0  0  0  0999 V2000
   63.2430   34.1860   49.2570 C   0  0  0  0  0  0  0  0  0  0  0  0
   63.7110   32.7670   49.1780 C   0  0  0  0  0  0  0  0  0  0  0  0
   64.9140   32.5060   49.4500 O   0  0  0  0  0  0  0  0  0  0  0  0
   62.7730   31.6820   48.8150 C   0  0  0  0  0  0  0  0  0  0  0  0
   62.1100   31.4580   47.2800 S   0  0  0  0  0  0  0  0  0  0  0  0
   61.2170   30.0920   47.7010 C   0  0  0  0  0  0  0  0  0  0  0  0
   60.3440   29.3200   46.7680 C   0  0  0  0  0  0  0  0  0  0  0  0
   60.3620   27.9130   46.7890 C   0  0  0  0  0  0  0  0  0  0  0  0
   59.5360   27.1740   45.9380 C   0  0  0  0  0  0  0  0  0  0  0  0
   59.5520   25.2660   46.0150 Br  0  0  0  0  0  0  0  0  0  0  0  0
   58.6850   27.8250   45.0460 C   0  0  0  0  0  0  0  0  0  0  0  0
   58.6700   29.2280   44.9840 C   0  0  0  0  0  0  0  0  0  0  0  0
   57.7890   29.9370   44.0990 N   0  0  0  0  0  0  0  0  0  0  0  0
   56.8740   30.9830   44.4590 C   0  0  0  0  0  0  0  0  0  0  0  0
   55.6450   30.7340   44.6010 O   0  0  0  0  0  0  0  0  0  0  0  0
   57.3560   32.3220   44.6700 N   0  0  0  0  0  0  0  0  0  0  0  0
   58.6480   32.7610   44.1340 C   0  0  0  0  0  0  0  0  0  0  0  0
   59.6150   33.0730   45.2850 C   0  0  0  0  0  0  0  0  0  0  0  0
   58.9440   33.8410   46.4660 C   0  0  0  0  0  0  0  0  0  0  0  0
   57.5160   34.3340   46.1210 C   0  0  0  0  0  0  0  0  0  0  0  0
   56.6140   33.2220   45.5610 C   0  0  0  0  0  0  0  0  0  0  0  0
   59.7340   34.9900   46.7720 O   0  0  0  0  0  0  0  0  0  0  0  0
   60.1100   34.9380   48.1460 C   0  0  0  0  0  0  0  0  0  0  0  0
   59.6020   33.6690   48.6860 C   0  0  0  0  0  0  0  0  0  0  0  0
   59.7830   33.1300   49.9670 C   0  0  0  0  0  0  0  0  0  0  0  0
   59.2550   31.8540   50.2280 C   0  0  0  0  0  0  0  0  0  0  0  0
   58.5820   31.1470   49.2070 C   0  0  0  0  0  0  0  0  0  0  0  0
   58.4220   31.7220   47.9320 C   0  0  0  0  0  0  0  0  0  0  0  0
   58.9350   33.0070   47.7100 C   0  0  0  0  0  0  0  0  0  0  0  0
   59.4830   29.9660   45.8560 C   0  0  0  0  0  0  0  0  0  0  0  0
   61.4170   29.7990   49.0130 N   0  0  0  0  0  0  0  0  0  0  0  0
   62.2700   30.6620   49.6360 C   0  0  0  0  0  0  0  0  0  0  0  0
   62.6080   30.5120   51.0900 C   0  0  0  0  0  0  0  0  0  0  0  0
   63.1455   34.4817   50.3120 H   0  0  0  0  0  0  0  0  0  0  0  0
   63.9727   34.8410   48.7585 H   0  0  0  0  0  0  0  0  0  0  0  0
   62.2668   34.2784   48.7585 H   0  0  0  0  0  0  0  0  0  0  0  0
   61.0345   27.3886   47.4838 H   0  0  0  0  0  0  0  0  0  0  0  0
   58.0245   27.2391   44.3900 H   0  0  0  0  0  0  0  0  0  0  0  0
   59.0727   31.9628   43.5076 H   0  0  0  0  0  0  0  0  0  0  0  0
   58.4992   33.6689   43.5311 H   0  0  0  0  0  0  0  0  0  0  0  0
   60.0172   32.1242   45.6696 H   0  0  0  0  0  0  0  0  0  0  0  0
   60.4033   33.7244   44.8798 H   0  0  0  0  0  0  0  0  0  0  0  0
   57.0529   34.7335   47.0353 H   0  0  0  0  0  0  0  0  0  0  0  0
   57.6136   35.1023   45.3399 H   0  0  0  0  0  0  0  0  0  0  0  0
   56.2054   32.6379   46.3988 H   0  0  0  0  0  0  0  0  0  0  0  0
   55.8073   33.6931   44.9802 H   0  0  0  0  0  0  0  0  0  0  0  0
   61.2054   34.9759   48.2390 H   0  0  0  0  0  0  0  0  0  0  0  0
   59.6931   35.7930   48.6983 H   0  0  0  0  0  0  0  0  0  0  0  0
   60.3226   33.6894   50.7454 H   0  0  0  0  0  0  0  0  0  0  0  0
   59.3657   31.4062   51.2266 H   0  0  0  0  0  0  0  0  0  0  0  0
   58.1812   30.1427   49.4090 H   0  0  0  0  0  0  0  0  0  0  0  0
   57.9063   31.1753   47.1287 H   0  0  0  0  0  0  0  0  0  0  0  0
   59.4490   31.0651   45.8286 H   0  0  0  0  0  0  0  0  0  0  0  0
   60.9720   29.0010   49.5140 H   0  0  0  0  0  0  0  0  0  0  0  0
   61.7719   30.8830   51.7010 H   0  0  0  0  0  0  0  0  0  0  0  0
   62.7856   29.4506   51.3175 H   0  0  0  0  0  0  0  0  0  0  0  0
   63.5143   31.0924   51.3175 H   0  0  0  0  0  0  0  0  0  0  0  0
  1  2  1  0
  2  3  2  0
  2  4  1  0
  4  5  1  0
  5  6  1  0
  6  7  1  0
  7  8  2  0
  8  9  1  0
  9 10  1  0
  9 11  2  0
 11 12  1  0
 12 13  1  0
 13 14  1  0
 14 15  2  0
 14 16  1  0
 16 17  1  0
 17 18  1  0
 18 19  1  0
 19 20  1  0
 20 21  1  0
 19 22  1  0
 22 23  1  0
 23 24  1  0
 24 25  2  0
 25 26  1  0
 26 27  2  0
 27 28  1  0
 28 29  2  0
 12 30  2  0
  6 31  2  0
 31 32  1  0
 32 33  1  0
 32  4  2  0
 30  7  1  0
 21 16  1  0
 29 24  1  0
 29 19  1  0
  1 34  1  0
  1 35  1  0
  1 36  1  0
  8 37  1  0
 11 38  1  0
 17 39  1  0
 17 40  1  0
 18 41  1  0
 18 42  1  0
 20 43  1  0
 20 44  1  0
 21 45  1  0
 21 46  1  0
 23 47  1  0
 23 48  1  0
 25 49  1  0
 26 50  1  0
 27 51  1  0
 28 52  1  0
 30 53  1  0
 31 54  1  0
 33 55  1  0
 33 56  1  0
 33 57  1  0
M  CHG  2  13  -1  31   1
M  END
>  <UniqueID>  (83) 
79

>  <SMILES>  (83) 
CC(=O)c1sc(-c2cc(Br)cc([N-]C(=O)N3CCC4(CC3)OCc3ccccc34)c2)[nH+]c1C

>  <Energy>  (83) 
111.83308962584493

>  <Genealogy>  (83) 
CC(=O)c1sc(-c2cc(Br)cc([N-]C(=O)N3CCC4(CC3)OCc3ccccc34)c2)[nH+]c1C (protonated)
CC(=O)c1sc(-c2cc(Br)cc([N-]C(=O)N3CCC4(CC3)OCc3ccccc34)c2)[nH+]c1C (3D coordinates assigned)
CC(=O)c1sc(-c2cc(Br)cc([N-]C(=O)N3CCC4(CC3)OCc3ccccc34)c2)[nH+]c1C (nonaromatic ring conformer: 111.83308962584493 kcal/mol)

>  <smiles>  (83) 
CC(=O)c1sc(-c2cc(Br)cc(NC(=O)N3CCC4(CC3)OCc3ccccc34)c2)nc1C

>  <score_type>  (83) 
oracle

>  <origin>  (83) 
adg

>  <m_score__min__energy>  (83) 
-9.5399999999999991

>  <m_primary>  (83) 
energy

$$$$
83:0
     RDKit          3D

 27 27  0  0  0  0  0  0  0  0999 V2000
   57.2120   22.6140   43.7330 C   0  0  0  0  0  0  0  0  0  0  0  0
   55.9850   23.5230   43.8320 C   0  0  0  0  0  0  0  0  0  0  0  0
   56.3150   24.8440   44.3930 N   0  0  0  0  0  0  0  0  0  0  0  0
   55.5170   25.1360   45.5560 C   0  0  0  0  0  0  0  0  0  0  0  0
   54.5950   24.3460   45.8920 O   0  0  0  0  0  0  0  0  0  0  0  0
   55.7700   26.2880   46.3690 N   0  0  0  0  0  0  0  0  0  0  0  0
   57.3830   26.8410   46.8410 S   0  0  0  0  0  0  0  0  0  0  0  0
   57.6360   27.6830   45.2750 C   0  0  0  0  0  0  0  0  0  0  0  0
   57.7610   26.9840   44.2340 O   0  0  0  0  0  0  0  0  0  0  0  0
   57.7060   29.1600   45.1880 C   0  0  0  0  0  0  0  0  0  0  0  0
   58.4870   29.9040   46.0920 C   0  0  0  0  0  0  0  0  0  0  0  0
   58.5440   31.2980   45.9970 C   0  0  0  0  0  0  0  0  0  0  0  0
   57.8180   31.9650   45.0080 C   0  0  0  0  0  0  0  0  0  0  0  0
   57.8990   33.8690   44.8820 Br  0  0  0  0  0  0  0  0  0  0  0  0
   57.0290   31.2370   44.1130 C   0  0  0  0  0  0  0  0  0  0  0  0
   56.9700   29.8430   44.2030 C   0  0  0  0  0  0  0  0  0  0  0  0
   57.5599   22.3563   44.7442 H   0  0  0  0  0  0  0  0  0  0  0  0
   56.9444   21.6945   43.1918 H   0  0  0  0  0  0  0  0  0  0  0  0
   58.0137   23.1378   43.1918 H   0  0  0  0  0  0  0  0  0  0  0  0
   55.5641   23.6609   42.8251 H   0  0  0  0  0  0  0  0  0  0  0  0
   55.2614   23.0412   44.5059 H   0  0  0  0  0  0  0  0  0  0  0  0
   56.1720   25.5860   43.6680 H   0  0  0  0  0  0  0  0  0  0  0  0
   57.3240   24.8610   44.6550 H   0  0  0  0  0  0  0  0  0  0  0  0
   59.0560   29.3859   46.8780 H   0  0  0  0  0  0  0  0  0  0  0  0
   59.1626   31.8709   46.7035 H   0  0  0  0  0  0  0  0  0  0  0  0
   56.4534   31.7618   43.3363 H   0  0  0  0  0  0  0  0  0  0  0  0
   56.3435   29.2763   43.4984 H   0  0  0  0  0  0  0  0  0  0  0  0
  1  2  1  0
  2  3  1  0
  3  4  1  0
  4  5  2  0
  4  6  1  0
  6  7  1  0
  7  8  1  0
  8  9  2  0
  8 10  1  0
 10 11  2  0
 11 12  1  0
 12 13  2  0
 13 14  1  0
 13 15  1  0
 15 16  2  0
 16 10  1  0
  1 17  1  0
  1 18  1  0
  1 19  1  0
  2 20  1  0
  2 21  1  0
  3 22  1  0
  3 23  1  0
 11 24  1  0
 12 25  1  0
 15 26  1  0
 16 27  1  0
M  CHG  2   3   1   6  -1
M  END
>  <UniqueID>  (84) 
80

>  <SMILES>  (84) 
CC[NH2+]C(=O)[N-]SC(=O)c1ccc(Br)cc1

>  <Energy>  (84) 
21.465252486731842

>  <Genealogy>  (84) 
CC[NH2+]C(=O)[N-]SC(=O)c1ccc(Br)cc1 (protonated)
CC[NH2+]C(=O)[N-]SC(=O)c1ccc(Br)cc1 (3D coordinates assigned)
CC[NH2+]C(=O)[N-]SC(=O)c1ccc(Br)cc1 (optimized conformer: 21.465252486731842 kcal/mol)

>  <smiles>  (84) 
CCNC(=O)NSC(=O)c1ccc(Br)cc1

>  <score_type>  (84) 
oracle

>  <origin>  (84) 
adg

>  <m_score__min__energy>  (84) 
-7.2300000000000004

>  <m_primary>  (84) 
energy

$$$$
84:0
     RDKit          3D

 46 49  0  0  0  0  0  0  0  0999 V2000
   57.0020   29.2530   43.2340 O   0  0  0  0  0  0  0  0  0  0  0  0
   56.4030   29.6590   44.2650 C   0  0  0  0  0  0  0  0  0  0  0  0
   56.2650   31.0680   44.4790 N   0  0  0  0  0  0  0  0  0  0  0  0
   57.1730   31.9030   45.2120 C   0  0  0  0  0  0  0  0  0  0  0  0
   56.8930   33.2710   45.3240 C   0  0  0  0  0  0  0  0  0  0  0  0
   57.7660   34.1190   46.0120 C   0  0  0  0  0  0  0  0  0  0  0  0
   58.9430   33.6110   46.5830 C   0  0  0  0  0  0  0  0  0  0  0  0
   59.8590   34.5030   47.3770 C   0  0  0  0  0  0  0  0  0  0  0  0
   60.3890   33.7730   48.5380 N   0  0  0  0  0  0  0  0  0  0  0  0
   59.4920   33.4320   49.6550 C   0  0  0  0  0  0  0  0  0  0  0  0
   60.0990   33.8520   50.9600 C   0  0  0  0  0  0  0  0  0  0  0  0
   59.3600   34.1530   51.9350 O   0  0  0  0  0  0  0  0  0  0  0  0
   61.5210   33.8440   51.1140 N   0  0  0  0  0  0  0  0  0  0  0  0
   62.3670   33.5900   49.9870 C   0  0  0  0  0  0  0  0  0  0  0  0
   63.7460   33.4130   50.1630 C   0  0  0  0  0  0  0  0  0  0  0  0
   64.5680   33.1670   49.0610 C   0  0  0  0  0  0  0  0  0  0  0  0
   64.0190   33.1030   47.7790 C   0  0  0  0  0  0  0  0  0  0  0  0
   62.6470   33.2920   47.5920 C   0  0  0  0  0  0  0  0  0  0  0  0
   61.8080   33.5420   48.6950 C   0  0  0  0  0  0  0  0  0  0  0  0
   59.2340   32.2450   46.4550 C   0  0  0  0  0  0  0  0  0  0  0  0
   58.3650   31.3990   45.7610 C   0  0  0  0  0  0  0  0  0  0  0  0
   55.8650   28.7220   45.2070 N   0  0  0  0  0  0  0  0  0  0  0  0
   56.5250   27.5450   45.6910 C   0  0  0  0  0  0  0  0  0  0  0  0
   57.9150   27.5840   45.8700 C   0  0  0  0  0  0  0  0  0  0  0  0
   58.6000   26.4630   46.3470 C   0  0  0  0  0  0  0  0  0  0  0  0
   57.8970   25.2980   46.6680 C   0  0  0  0  0  0  0  0  0  0  0  0
   56.5060   25.2590   46.5250 C   0  0  0  0  0  0  0  0  0  0  0  0
   55.8130   26.3810   46.0550 C   0  0  0  0  0  0  0  0  0  0  0  0
   54.4250   26.3400   45.9900 O   0  0  0  0  0  0  0  0  0  0  0  0
   55.9800   33.6808   44.8675 H   0  0  0  0  0  0  0  0  0  0  0  0
   57.5293   35.1891   46.1062 H   0  0  0  0  0  0  0  0  0  0  0  0
   60.6939   34.8283   46.7390 H   0  0  0  0  0  0  0  0  0  0  0  0
   59.2947   35.3795   47.7282 H   0  0  0  0  0  0  0  0  0  0  0  0
   58.5310   33.9496   49.5191 H   0  0  0  0  0  0  0  0  0  0  0  0
   59.3365   32.3431   49.6680 H   0  0  0  0  0  0  0  0  0  0  0  0
   61.9380   34.0260   52.0540 H   0  0  0  0  0  0  0  0  0  0  0  0
   64.1820   33.4679   51.1714 H   0  0  0  0  0  0  0  0  0  0  0  0
   65.6493   33.0235   49.2033 H   0  0  0  0  0  0  0  0  0  0  0  0
   64.6681   32.9033   46.9137 H   0  0  0  0  0  0  0  0  0  0  0  0
   62.2207   33.2453   46.5790 H   0  0  0  0  0  0  0  0  0  0  0  0
   60.1518   31.8372   46.9036 H   0  0  0  0  0  0  0  0  0  0  0  0
   58.6147   30.3341   45.6438 H   0  0  0  0  0  0  0  0  0  0  0  0
   58.4704   28.5035   45.6333 H   0  0  0  0  0  0  0  0  0  0  0  0
   59.6926   26.4974   46.4699 H   0  0  0  0  0  0  0  0  0  0  0  0
   58.4376   24.4122   47.0329 H   0  0  0  0  0  0  0  0  0  0  0  0
   55.9544   24.3429   46.7829 H   0  0  0  0  0  0  0  0  0  0  0  0
  1  2  2  0
  2  3  1  0
  3  4  1  0
  4  5  2  0
  5  6  1  0
  6  7  2  0
  7  8  1  0
  8  9  1  0
  9 10  1  0
 10 11  1  0
 11 12  2  0
 11 13  1  0
 13 14  1  0
 14 15  2  0
 15 16  1  0
 16 17  2  0
 17 18  1  0
 18 19  2  0
  7 20  1  0
 20 21  2  0
  2 22  1  0
 22 23  1  0
 23 24  2  0
 24 25  1  0
 25 26  2  0
 26 27  1  0
 27 28  2  0
 28 29  1  0
 21  4  1  0
 28 23  1  0
 19  9  1  0
 19 14  1  0
  5 30  1  0
  6 31  1  0
  8 32  1  0
  8 33  1  0
 10 34  1  0
 10 35  1  0
 13 36  1  0
 15 37  1  0
 16 38  1  0
 17 39  1  0
 18 40  1  0
 20 41  1  0
 21 42  1  0
 24 43  1  0
 25 44  1  0
 26 45  1  0
 27 46  1  0
M  CHG  3   3  -1  22  -1  29  -1
M  END
>  <UniqueID>  (85) 
81

>  <SMILES>  (85) 
O=C([N-]c1ccc(CN2CC(=O)Nc3ccccc32)cc1)[N-]c1ccccc1[O-]

>  <Energy>  (85) 
60.701625311029446

>  <Genealogy>  (85) 
O=C([N-]c1ccc(CN2CC(=O)Nc3ccccc32)cc1)[N-]c1ccccc1[O-] (protonated)
O=C([N-]c1ccc(CN2CC(=O)Nc3ccccc32)cc1)[N-]c1ccccc1[O-] (3D coordinates assigned)
O=C([N-]c1ccc(CN2CC(=O)Nc3ccccc32)cc1)[N-]c1ccccc1[O-] (nonaromatic ring conformer: 60.701625311029446 kcal/mol)

>  <smiles>  (85) 
O=C1CN(Cc2ccc(NC(=O)Nc3ccccc3O)cc2)c2ccccc2N1

>  <score_type>  (85) 
oracle

>  <origin>  (85) 
adg

>  <m_score__min__energy>  (85) 
-16.850000000000001

>  <m_primary>  (85) 
energy

$$$$
85:0
     RDKit          3D

 56 59  0  0  1  0  0  0  0  0999 V2000
   57.2070   21.3600   43.1210 C   0  0  0  0  0  0  0  0  0  0  0  0
   55.9270   21.9590   42.9980 O   0  0  0  0  0  0  0  0  0  0  0  0
   55.5010   22.9020   43.9310 C   0  0  0  0  0  0  0  0  0  0  0  0
   56.0910   23.2430   45.1060 N   0  0  0  0  0  0  0  0  0  0  0  0
   55.3410   24.2050   45.7020 C   0  0  0  0  0  0  0  0  0  0  0  0
   55.5750   24.7940   46.8470 N   0  0  0  0  0  0  0  0  0  0  0  0
   56.7910   25.5320   46.9120 C   0  0  0  0  0  0  0  0  0  0  0  0
   57.6020   25.2360   47.8200 O   0  0  0  0  0  0  0  0  0  0  0  0
   57.0800   26.6270   45.9180 C   0  0  1  0  0  0  0  0  0  0  0  0
   55.8720   27.2400   45.6210 F   0  0  0  0  0  0  0  0  0  0  0  0
   58.0060   27.6030   46.6030 C   0  0  0  0  0  0  0  0  0  0  0  0
   59.3220   27.6030   45.8750 C   0  0  0  0  0  0  0  0  0  0  0  0
   59.1100   28.0730   44.4560 C   0  0  2  0  0  0  0  0  0  0  0  0
   58.7570   29.5180   44.4980 C   0  0  0  0  0  0  0  0  0  0  0  0
   59.2890   30.3590   45.3980 N   0  0  0  0  0  0  0  0  0  0  0  0
   58.8430   31.5910   45.2340 C   0  0  0  0  0  0  0  0  0  0  0  0
   59.1070   32.8380   45.9380 C   0  0  0  0  0  0  0  0  0  0  0  0
   59.0230   34.0370   45.2200 C   0  0  0  0  0  0  0  0  0  0  0  0
   59.2760   35.2600   45.7910 C   0  0  0  0  0  0  0  0  0  0  0  0
   59.6230   35.2780   47.1210 C   0  0  0  0  0  0  0  0  0  0  0  0
   59.7210   34.1060   47.8850 C   0  0  0  0  0  0  0  0  0  0  0  0
   60.1180   34.2900   49.2640 C   0  0  0  0  0  0  0  0  0  0  0  0
   59.2850   34.2160   50.4020 N   0  0  0  0  0  0  0  0  0  0  0  0
   61.3430   34.5460   49.5080 O   0  0  0  0  0  0  0  0  0  0  0  0
   59.4600   32.8900   47.2900 C   0  0  0  0  0  0  0  0  0  0  0  0
   59.5080   31.6510   48.0710 C   0  0  0  0  0  0  0  0  0  0  0  0
   57.9640   31.5040   44.1440 C   0  0  0  0  0  0  0  0  0  0  0  0
   57.9370   30.2310   43.7210 N   0  0  0  0  0  0  0  0  0  0  0  0
   58.1170   27.2070   43.7790 C   0  0  0  0  0  0  0  0  0  0  0  0
   57.7030   26.0360   44.6660 C   0  0  0  0  0  0  0  0  0  0  0  0
   54.3040   24.4280   44.8640 N   0  0  0  0  0  0  0  0  0  0  0  0
   54.4000   23.6480   43.8050 N   0  0  0  0  0  0  0  0  0  0  0  0
   57.4564   21.2433   44.1860 H   0  0  0  0  0  0  0  0  0  0  0  0
   57.1979   20.3726   42.6362 H   0  0  0  0  0  0  0  0  0  0  0  0
   57.9593   21.9996   42.6362 H   0  0  0  0  0  0  0  0  0  0  0  0
   57.5674   28.6115   46.5769 H   0  0  0  0  0  0  0  0  0  0  0  0
   58.1555   27.3081   47.6521 H   0  0  0  0  0  0  0  0  0  0  0  0
   60.0235   28.2798   46.3848 H   0  0  0  0  0  0  0  0  0  0  0  0
   59.7373   26.5844   45.8666 H   0  0  0  0  0  0  0  0  0  0  0  0
   60.0224   27.9836   43.8481 H   0  0  0  0  0  0  0  0  0  0  0  0
   58.7434   33.9978   44.1569 H   0  0  0  0  0  0  0  0  0  0  0  0
   59.2038   36.1892   45.2068 H   0  0  0  0  0  0  0  0  0  0  0  0
   59.8310   36.2449   47.6026 H   0  0  0  0  0  0  0  0  0  0  0  0
   59.0870   35.0650   50.9990 H   0  0  0  0  0  0  0  0  0  0  0  0
   58.8650   33.2680   50.6340 H   0  0  0  0  0  0  0  0  0  0  0  0
   59.4986   31.8933   49.1439 H   0  0  0  0  0  0  0  0  0  0  0  0
   58.6332   31.0301   47.8277 H   0  0  0  0  0  0  0  0  0  0  0  0
   60.4282   31.0996   47.8277 H   0  0  0  0  0  0  0  0  0  0  0  0
   57.3935   32.3382   43.7097 H   0  0  0  0  0  0  0  0  0  0  0  0
   57.3740   29.8790   42.9200 H   0  0  0  0  0  0  0  0  0  0  0  0
   57.2262   27.8053   43.5372 H   0  0  0  0  0  0  0  0  0  0  0  0
   58.5760   26.8033   42.8645 H   0  0  0  0  0  0  0  0  0  0  0  0
   56.9706   25.4049   44.1412 H   0  0  0  0  0  0  0  0  0  0  0  0
   58.5703   25.4080   44.9177 H   0  0  0  0  0  0  0  0  0  0  0  0
   53.5270   25.1220   45.0290 H   0  0  0  0  0  0  0  0  0  0  0  0
   53.7110   23.6420   43.0190 H   0  0  0  0  0  0  0  0  0  0  0  0
  1  2  1  0
  2  3  1  0
  3  4  2  0
  4  5  1  0
  5  6  2  0
  6  7  1  0
  7  8  2  0
  7  9  1  0
  9 10  1  6
  9 11  1  0
 11 12  1  0
 12 13  1  0
 13 14  1  0
 14 15  2  0
 15 16  1  0
 16 17  1  0
 17 18  2  0
 18 19  1  0
 19 20  2  0
 20 21  1  0
 21 22  1  0
 22 23  1  0
 22 24  2  0
 21 25  2  0
 25 26  1  0
 16 27  2  0
 27 28  1  0
 13 29  1  0
 29 30  1  0
  5 31  1  0
 31 32  1  0
 32  3  1  0
 30  9  1  0
 28 14  1  0
 25 17  1  0
  1 33  1  0
  1 34  1  0
  1 35  1  0
 11 36  1  0
 11 37  1  0
 12 38  1  0
 12 39  1  0
 13 40  1  6
 18 41  1  0
 19 42  1  0
 20 43  1  0
 23 44  1  0
 23 45  1  0
 26 46  1  0
 26 47  1  0
 26 48  1  0
 27 49  1  0
 28 50  1  0
 29 51  1  0
 29 52  1  0
 30 53  1  0
 30 54  1  0
 31 55  1  0
 32 56  1  0
M  END
>  <smiles>  (86) 
COc1nc(=NC(=O)C2(F)CCC(c3nc(-c4cccc(C(N)=O)c4C)c[nH]3)CC2)[nH][nH]1

>  <score_type>  (86) 
oracle

>  <origin>  (86) 
adg

>  <m_score__min__energy>  (86) 
-9.9800000000000004

>  <m_primary>  (86) 
energy

$$$$
86:0
     RDKit          3D

 44 46  0  0  0  0  0  0  0  0999 V2000
   59.9600   35.2050   48.3950 H   0  0  0  0  0  0  0  0  0  0  0  0
   60.4110   34.5650   49.0390 O   0  0  0  0  0  0  0  0  0  0  0  0
   61.6590   34.0080   48.7690 C   0  0  0  0  0  0  0  0  0  0  0  0
   62.4500   33.5610   49.8370 C   0  0  0  0  0  0  0  0  0  0  0  0
   62.1119   33.7192   50.8717 H   0  0  0  0  0  0  0  0  0  0  0  0
   63.6610   32.9180   49.5950 C   0  0  0  0  0  0  0  0  0  0  0  0
   64.2824   32.5694   50.4330 H   0  0  0  0  0  0  0  0  0  0  0  0
   64.0770   32.7210   48.2810 C   0  0  0  0  0  0  0  0  0  0  0  0
   65.0227   32.1982   48.0755 H   0  0  0  0  0  0  0  0  0  0  0  0
   63.3140   33.1750   47.2530 N   0  0  0  0  0  0  0  0  0  0  0  0
   62.1360   33.8320   47.4430 C   0  0  0  0  0  0  0  0  0  0  0  0
   61.4920   34.2310   46.3790 N   0  0  0  0  0  0  0  0  0  0  0  0
   60.0810   34.4350   46.1970 C   0  0  0  0  0  0  0  0  0  0  0  0
   59.5950   35.5940   46.3150 O   0  0  0  0  0  0  0  0  0  0  0  0
   59.2190   33.3110   45.7650 C   0  0  0  0  0  0  0  0  0  0  0  0
   59.0800   32.1660   46.5710 C   0  0  0  0  0  0  0  0  0  0  0  0
   59.6077   32.1091   47.5345 H   0  0  0  0  0  0  0  0  0  0  0  0
   58.2760   31.1000   46.1560 C   0  0  0  0  0  0  0  0  0  0  0  0
   58.1753   30.2095   46.7938 H   0  0  0  0  0  0  0  0  0  0  0  0
   57.5990   31.1610   44.9330 C   0  0  0  0  0  0  0  0  0  0  0  0
   56.6090   29.7970   44.4170 S   0  0  0  0  0  0  0  0  0  0  0  0
   56.9760   29.3860   43.0180 O   0  0  0  0  0  0  0  0  0  0  0  0
   55.1650   30.2090   44.4390 O   0  0  0  0  0  0  0  0  0  0  0  0
   56.8400   28.4560   45.5020 N   0  0  0  0  0  0  0  0  0  0  0  0
   57.7260   27.4420   44.9160 C   0  0  0  0  0  0  0  0  0  0  0  0
   57.3111   27.0474   43.9768 H   0  0  0  0  0  0  0  0  0  0  0  0
   59.0830   28.1030   44.5790 C   0  0  0  0  0  0  0  0  0  0  0  0
   58.8965   29.1263   44.2212 H   0  0  0  0  0  0  0  0  0  0  0  0
   59.5712   27.4855   43.8106 H   0  0  0  0  0  0  0  0  0  0  0  0
   60.0270   28.1700   45.7880 C   0  0  0  0  0  0  0  0  0  0  0  0
   59.6046   28.8542   46.5386 H   0  0  0  0  0  0  0  0  0  0  0  0
   61.0089   28.5332   45.4506 H   0  0  0  0  0  0  0  0  0  0  0  0
   60.2000   26.8080   46.4030 C   0  0  0  0  0  0  0  0  0  0  0  0
   61.0920   26.6140   47.2140 O   0  0  0  0  0  0  0  0  0  0  0  0
   59.2790   25.6860   46.0100 C   0  0  0  0  0  0  0  0  0  0  0  0
   59.3061   24.9016   46.7807 H   0  0  0  0  0  0  0  0  0  0  0  0
   59.6034   25.2636   45.0475 H   0  0  0  0  0  0  0  0  0  0  0  0
   57.8490   26.2250   45.8780 C   0  0  0  0  0  0  0  0  0  0  0  0
   57.5007   26.5335   46.8747 H   0  0  0  0  0  0  0  0  0  0  0  0
   57.2381   25.4154   45.4522 H   0  0  0  0  0  0  0  0  0  0  0  0
   57.7300   32.2980   44.1250 C   0  0  0  0  0  0  0  0  0  0  0  0
   57.1977   32.3516   43.1639 H   0  0  0  0  0  0  0  0  0  0  0  0
   58.5350   33.3650   44.5360 C   0  0  0  0  0  0  0  0  0  0  0  0
   58.6344   34.2529   43.8943 H   0  0  0  0  0  0  0  0  0  0  0  0
  1  2  1  0
  2  3  1  0
  3  4  2  0
  4  5  1  0
  4  6  1  0
  6  7  1  0
  6  8  2  0
  8  9  1  0
  8 10  1  0
 10 11  1  0
 11 12  2  0
 12 13  1  0
 13 14  2  0
 13 15  1  0
 15 16  2  0
 16 17  1  0
 16 18  1  0
 18 19  1  0
 18 20  2  0
 20 21  1  0
 21 22  2  0
 21 23  2  0
 21 24  1  0
 24 25  1  0
 25 26  1  0
 25 27  1  0
 27 28  1  0
 27 29  1  0
 27 30  1  0
 30 31  1  0
 30 32  1  0
 30 33  1  0
 33 34  2  0
 33 35  1  0
 35 36  1  0
 35 37  1  0
 35 38  1  0
 38 39  1  0
 38 40  1  0
 20 41  1  0
 41 42  1  0
 41 43  2  0
 43 44  1  0
 11  3  1  0
 43 15  1  0
 38 25  1  0
M  CHG  2  10  -1  24  -1
M  END
>  <UniqueID>  (87) 
82

>  <SMILES>  (87) 
O=C1CCC([N-]S(=O)(=O)c2ccc(C(=O)/N=c3/[n-]cccc3O)cc2)CC1

>  <Energy>  (87) 
59.05138432964644

>  <Genealogy>  (87) 
O=C1CCC([N-]S(=O)(=O)c2ccc(C(=O)N=c3[n-]cccc3O)cc2)CC1 (protonated)
O=C1CCC([N-]S(=O)(=O)c2ccc(C(=O)/N=c3/[n-]cccc3O)cc2)CC1 (cis-trans isomerization)
O=C1CCC([N-]S(=O)(=O)c2ccc(C(=O)/N=c3/[n-]cccc3O)cc2)CC1 (3D coordinates assigned)
O=C1CCC([N-]S(=O)(=O)c2ccc(C(=O)/N=c3/[n-]cccc3O)cc2)CC1 (nonaromatic ring conformer: 59.05138432964644 kcal/mol)

>  <smiles>  (87) 
O=C1CCC(NS(=O)(=O)c2ccc(C(=O)N=c3[nH]cccc3O)cc2)CC1

>  <score_type>  (87) 
oracle

>  <origin>  (87) 
adg

>  <m_score__min__energy>  (87) 
-12.27

>  <m_primary>  (87) 
energy

$$$$
87:0
     RDKit          3D

 43 44  0  0  0  0  0  0  0  0999 V2000
   55.0240   26.1800   45.9900 N   0  0  0  0  0  0  0  0  0  0  0  0
   56.7350   25.9990   46.1520 S   0  0  0  0  0  0  0  0  0  0  0  0
   57.0460   25.3240   47.4580 O   0  0  0  0  0  0  0  0  0  0  0  0
   57.2510   25.1420   45.0280 O   0  0  0  0  0  0  0  0  0  0  0  0
   57.4990   27.5840   46.1130 C   0  0  0  0  0  0  0  0  0  0  0  0
   58.0640   28.1110   47.2800 C   0  0  0  0  0  0  0  0  0  0  0  0
   58.6560   29.3790   47.2660 C   0  0  0  0  0  0  0  0  0  0  0  0
   58.6750   30.1430   46.0890 C   0  0  0  0  0  0  0  0  0  0  0  0
   59.3060   31.4360   46.0990 N   0  0  0  0  0  0  0  0  0  0  0  0
   60.6190   31.6920   46.6230 C   0  0  0  0  0  0  0  0  0  0  0  0
   61.4000   30.7380   46.8900 O   0  0  0  0  0  0  0  0  0  0  0  0
   61.1030   33.1070   46.7610 C   0  0  1  0  0  0  0  0  0  0  0  0
   59.9860   33.9780   46.9440 O   0  0  0  0  0  0  0  0  0  0  0  0
   59.6280   34.9750   46.0290 C   0  0  0  0  0  0  0  0  0  0  0  0
   59.9080   36.1860   46.2500 O   0  0  0  0  0  0  0  0  0  0  0  0
   58.9480   34.5880   44.7560 C   0  0  0  0  0  0  0  0  0  0  0  0
   57.4980   34.3020   45.0180 C   0  0  0  0  0  0  0  0  0  0  0  0
   56.6200   35.0580   44.5210 O   0  0  0  0  0  0  0  0  0  0  0  0
   57.0750   33.1260   45.7980 C   0  0  0  0  0  0  0  0  0  0  0  0
   57.1650   33.1230   47.0550 O   0  0  0  0  0  0  0  0  0  0  0  0
   56.5760   32.0050   45.1460 O   0  0  0  0  0  0  0  0  0  0  0  0
   62.0600   33.2030   47.9250 C   0  0  0  0  0  0  0  0  0  0  0  0
   63.3980   32.7850   47.7910 C   0  0  0  0  0  0  0  0  0  0  0  0
   64.2870   32.9120   48.8620 C   0  0  0  0  0  0  0  0  0  0  0  0
   63.8520   33.4590   50.0730 C   0  0  0  0  0  0  0  0  0  0  0  0
   62.5300   33.8880   50.2110 C   0  0  0  0  0  0  0  0  0  0  0  0
   61.6360   33.7670   49.1420 C   0  0  0  0  0  0  0  0  0  0  0  0
   58.1260   29.5990   44.9120 C   0  0  0  0  0  0  0  0  0  0  0  0
   57.5330   28.3330   44.9280 C   0  0  0  0  0  0  0  0  0  0  0  0
   54.7710   27.0860   46.4450 H   0  0  0  0  0  0  0  0  0  0  0  0
   58.0427   27.5264   48.2116 H   0  0  0  0  0  0  0  0  0  0  0  0
   59.1098   29.7798   48.1844 H   0  0  0  0  0  0  0  0  0  0  0  0
   58.8160   32.2220   45.6160 H   0  0  0  0  0  0  0  0  0  0  0  0
   61.6354   33.4111   45.8477 H   0  0  0  0  0  0  0  0  0  0  0  0
   59.0323   35.4121   44.0323 H   0  0  0  0  0  0  0  0  0  0  0  0
   59.4274   33.6855   44.3491 H   0  0  0  0  0  0  0  0  0  0  0  0
   63.7451   32.3566   46.8392 H   0  0  0  0  0  0  0  0  0  0  0  0
   65.3303   32.5812   48.7520 H   0  0  0  0  0  0  0  0  0  0  0  0
   64.5511   33.5515   50.9172 H   0  0  0  0  0  0  0  0  0  0  0  0
   62.1909   34.3223   51.1631 H   0  0  0  0  0  0  0  0  0  0  0  0
   60.5981   34.1140   49.2533 H   0  0  0  0  0  0  0  0  0  0  0  0
   58.1639   30.1733   43.9746 H   0  0  0  0  0  0  0  0  0  0  0  0
   57.0915   27.9230   44.0077 H   0  0  0  0  0  0  0  0  0  0  0  0
  1  2  1  0
  2  3  2  0
  2  4  2  0
  2  5  1  0
  5  6  2  0
  6  7  1  0
  7  8  2  0
  8  9  1  0
  9 10  1  0
 10 11  2  0
 10 12  1  0
 12 13  1  0
 13 14  1  0
 14 15  2  0
 14 16  1  0
 16 17  1  0
 17 18  2  0
 17 19  1  0
 19 20  2  0
 19 21  1  0
 12 22  1  0
 22 23  2  0
 23 24  1  0
 24 25  2  0
 25 26  1  0
 26 27  2  0
  8 28  1  0
 28 29  2  0
 29  5  1  0
 27 22  1  0
  1 30  1  0
  6 31  1  0
  7 32  1  0
  9 33  1  0
 12 34  1  6
 16 35  1  0
 16 36  1  0
 23 37  1  0
 24 38  1  0
 25 39  1  0
 26 40  1  0
 27 41  1  0
 28 42  1  0
 29 43  1  0
M  CHG  2   1  -1  21  -1
M  END
>  <UniqueID>  (88) 
83

>  <SMILES>  (88) 
[NH-]S(=O)(=O)c1ccc(NC(=O)[C@@H](OC(=O)CC(=O)C(=O)[O-])c2ccccc2)cc1

>  <Energy>  (88) 
40.475067003854974

>  <Genealogy>  (88) 
[NH-]S(=O)(=O)c1ccc(NC(=O)C(OC(=O)CC(=O)C(=O)[O-])c2ccccc2)cc1 (protonated)
[NH-]S(=O)(=O)c1ccc(NC(=O)[C@@H](OC(=O)CC(=O)C(=O)[O-])c2ccccc2)cc1 (chirality)
[NH-]S(=O)(=O)c1ccc(NC(=O)[C@@H](OC(=O)CC(=O)C(=O)[O-])c2ccccc2)cc1 (3D coordinates assigned)
[NH-]S(=O)(=O)c1ccc(NC(=O)[C@@H](OC(=O)CC(=O)C(=O)[O-])c2ccccc2)cc1 (optimized conformer: 40.475067003854974 kcal/mol)

>  <smiles>  (88) 
NS(=O)(=O)c1ccc(NC(=O)C(OC(=O)CC(=O)C(=O)O)c2ccccc2)cc1

>  <score_type>  (88) 
oracle

>  <origin>  (88) 
adg

>  <m_score__min__energy>  (88) 
-12.35

>  <m_primary>  (88) 
energy

$$$$
88:0
     RDKit          3D

 68 71  0  0  0  0  0  0  0  0999 V2000
   58.5550   32.3290   49.9390 C   0  0  0  0  0  0  0  0  0  0  0  0
   59.6090   33.1130   50.7170 C   0  0  0  0  0  0  0  0  0  0  0  0
   58.9500   33.8760   51.8720 C   0  0  0  0  0  0  0  0  0  0  0  0
   60.2520   34.0250   49.8260 O   0  0  0  0  0  0  0  0  0  0  0  0
   61.4680   33.8090   49.1520 C   0  0  0  0  0  0  0  0  0  0  0  0
   62.6950   33.6830   49.8360 C   0  0  0  0  0  0  0  0  0  0  0  0
   63.8800   33.4610   49.1310 C   0  0  0  0  0  0  0  0  0  0  0  0
   63.8630   33.3670   47.7450 C   0  0  0  0  0  0  0  0  0  0  0  0
   62.6550   33.4750   47.0550 C   0  0  0  0  0  0  0  0  0  0  0  0
   61.4520   33.6930   47.7460 C   0  0  0  0  0  0  0  0  0  0  0  0
   60.2130   33.7550   47.0130 N   0  0  0  0  0  0  0  0  0  0  0  0
   59.4650   32.5230   46.7460 C   0  0  0  0  0  0  0  0  0  0  0  0
   58.0160   32.8480   46.3560 C   0  0  0  0  0  0  0  0  0  0  0  0
   57.9280   33.7900   45.2120 N   0  0  0  0  0  0  0  0  0  0  0  0
   57.8220   33.0620   43.9280 C   0  0  0  0  0  0  0  0  0  0  0  0
   57.7070   31.5800   44.1580 C   0  0  0  0  0  0  0  0  0  0  0  0
   56.4520   30.9640   44.2430 C   0  0  0  0  0  0  0  0  0  0  0  0
   56.3900   29.5890   44.4570 C   0  0  0  0  0  0  0  0  0  0  0  0
   55.2720   29.0170   44.5360 O   0  0  0  0  0  0  0  0  0  0  0  0
   57.5700   28.8500   44.5860 C   0  0  0  0  0  0  0  0  0  0  0  0
   57.4860   27.4620   44.7950 O   0  0  0  0  0  0  0  0  0  0  0  0
   57.5390   26.8180   46.0700 C   0  0  0  0  0  0  0  0  0  0  0  0
   56.2430   26.1320   46.3680 C   0  0  0  0  0  0  0  0  0  0  0  0
   55.1560   26.6600   46.0020 O   0  0  0  0  0  0  0  0  0  0  0  0
   56.2450   24.9020   47.1080 N   0  0  0  0  0  0  0  0  0  0  0  0
   55.4990   23.7130   46.7040 C   0  0  0  0  0  0  0  0  0  0  0  0
   56.0540   23.1640   45.4160 C   0  0  0  0  0  0  0  0  0  0  0  0
   55.4620   23.5120   44.1880 C   0  0  0  0  0  0  0  0  0  0  0  0
   55.9450   22.9650   42.9930 C   0  0  0  0  0  0  0  0  0  0  0  0
   57.0160   22.0660   43.0160 C   0  0  0  0  0  0  0  0  0  0  0  0
   57.6020   21.7080   44.2350 C   0  0  0  0  0  0  0  0  0  0  0  0
   57.1230   22.2520   45.4320 C   0  0  0  0  0  0  0  0  0  0  0  0
   58.7940   29.5410   44.4960 C   0  0  0  0  0  0  0  0  0  0  0  0
   58.8160   30.8550   44.2910 O   0  0  0  0  0  0  0  0  0  0  0  0
   59.0060   34.8180   45.1770 C   0  0  0  0  0  0  0  0  0  0  0  0
   59.6790   35.0330   46.5370 C   0  0  0  0  0  0  0  0  0  0  0  0
   57.8778   31.8253   50.6445 H   0  0  0  0  0  0  0  0  0  0  0  0
   57.9778   33.0191   49.3060 H   0  0  0  0  0  0  0  0  0  0  0  0
   59.0499   31.5778   49.3060 H   0  0  0  0  0  0  0  0  0  0  0  0
   60.3529   32.4214   51.1392 H   0  0  0  0  0  0  0  0  0  0  0  0
   59.3031   33.4672   52.8302 H   0  0  0  0  0  0  0  0  0  0  0  0
   59.2168   34.9412   51.8072 H   0  0  0  0  0  0  0  0  0  0  0  0
   57.8573   33.7671   51.8072 H   0  0  0  0  0  0  0  0  0  0  0  0
   62.7188   33.7602   50.9330 H   0  0  0  0  0  0  0  0  0  0  0  0
   64.8306   33.3602   49.6753 H   0  0  0  0  0  0  0  0  0  0  0  0
   64.8006   33.2076   47.1923 H   0  0  0  0  0  0  0  0  0  0  0  0
   62.6449   33.3885   45.9585 H   0  0  0  0  0  0  0  0  0  0  0  0
   59.9481   31.9775   45.9220 H   0  0  0  0  0  0  0  0  0  0  0  0
   59.4587   31.9060   47.6566 H   0  0  0  0  0  0  0  0  0  0  0  0
   57.5072   31.9122   46.0812 H   0  0  0  0  0  0  0  0  0  0  0  0
   57.5394   33.3312   47.2216 H   0  0  0  0  0  0  0  0  0  0  0  0
   56.9302   33.4127   43.3879 H   0  0  0  0  0  0  0  0  0  0  0  0
   58.7300   33.2563   43.3383 H   0  0  0  0  0  0  0  0  0  0  0  0
   55.5305   31.5563   44.1424 H   0  0  0  0  0  0  0  0  0  0  0  0
   58.3492   26.0740   46.0658 H   0  0  0  0  0  0  0  0  0  0  0  0
   57.7240   27.5778   46.8436 H   0  0  0  0  0  0  0  0  0  0  0  0
   55.5808   22.9481   47.4903 H   0  0  0  0  0  0  0  0  0  0  0  0
   54.4439   23.9851   46.5533 H   0  0  0  0  0  0  0  0  0  0  0  0
   54.6171   24.2160   44.1667 H   0  0  0  0  0  0  0  0  0  0  0  0
   55.4814   23.2427   42.0349 H   0  0  0  0  0  0  0  0  0  0  0  0
   57.3975   21.6405   42.0761 H   0  0  0  0  0  0  0  0  0  0  0  0
   58.4413   20.9972   44.2525 H   0  0  0  0  0  0  0  0  0  0  0  0
   57.5846   21.9649   46.3883 H   0  0  0  0  0  0  0  0  0  0  0  0
   59.7402   28.9890   44.5961 H   0  0  0  0  0  0  0  0  0  0  0  0
   59.7714   34.4976   44.4548 H   0  0  0  0  0  0  0  0  0  0  0  0
   58.5395   35.7715   44.8886 H   0  0  0  0  0  0  0  0  0  0  0  0
   60.4988   35.7589   46.4320 H   0  0  0  0  0  0  0  0  0  0  0  0
   58.9439   35.4199   47.2580 H   0  0  0  0  0  0  0  0  0  0  0  0
  1  2  1  0
  2  3  1  0
  2  4  1  0
  4  5  1  0
  5  6  2  0
  6  7  1  0
  7  8  2  0
  8  9  1  0
  9 10  2  0
 10 11  1  0
 11 12  1  0
 12 13  1  0
 13 14  1  0
 14 15  1  0
 15 16  1  0
 16 17  2  0
 17 18  1  0
 18 19  2  0
 18 20  1  0
 20 21  1  0
 21 22  1  0
 22 23  1  0
 23 24  2  0
 23 25  1  0
 25 26  1  0
 26 27  1  0
 27 28  2  0
 28 29  1  0
 29 30  2  0
 30 31  1  0
 31 32  2  0
 20 33  2  0
 33 34  1  0
 14 35  1  0
 35 36  1  0
 10  5  1  0
 36 11  1  0
 34 16  1  0
 32 27  1  0
  1 37  1  0
  1 38  1  0
  1 39  1  0
  2 40  1  0
  3 41  1  0
  3 42  1  0
  3 43  1  0
  6 44  1  0
  7 45  1  0
  8 46  1  0
  9 47  1  0
 12 48  1  0
 12 49  1  0
 13 50  1  0
 13 51  1  0
 15 52  1  0
 15 53  1  0
 17 54  1  0
 22 55  1  0
 22 56  1  0
 26 57  1  0
 26 58  1  0
 28 59  1  0
 29 60  1  0
 30 61  1  0
 31 62  1  0
 32 63  1  0
 33 64  1  0
 35 65  1  0
 35 66  1  0
 36 67  1  0
 36 68  1  0
M  CHG  1  25  -1
M  END
>  <UniqueID>  (89) 
84

>  <SMILES>  (89) 
CC(C)Oc1ccccc1N1CCN(Cc2cc(=O)c(OCC(=O)[N-]Cc3ccccc3)co2)CC1

>  <Energy>  (89) 
75.98719828579611

>  <Genealogy>  (89) 
CC(C)Oc1ccccc1N1CCN(Cc2cc(=O)c(OCC(=O)[N-]Cc3ccccc3)co2)CC1 (protonated)
CC(C)Oc1ccccc1N1CCN(Cc2cc(=O)c(OCC(=O)[N-]Cc3ccccc3)co2)CC1 (3D coordinates assigned)
CC(C)Oc1ccccc1N1CCN(Cc2cc(=O)c(OCC(=O)[N-]Cc3ccccc3)co2)CC1 (nonaromatic ring conformer: 75.98719828579611 kcal/mol)

>  <smiles>  (89) 
CC(C)Oc1ccccc1N1CCN(Cc2cc(=O)c(OCC(=O)NCc3ccccc3)co2)CC1

>  <score_type>  (89) 
oracle

>  <origin>  (89) 
adg

>  <m_score__min__energy>  (89) 
-12.140000000000001

>  <m_primary>  (89) 
energy

$$$$
89:0
     RDKit          3D

 38 40  0  0  0  0  0  0  0  0999 V2000
   51.0080   32.3410   50.7760 N   0  0  0  0  0  0  0  0  0  0  0  0
   51.7620   31.1380   50.6430 C   0  0  0  0  0  0  0  0  0  0  0  0
   51.5630   30.3950   49.6450 O   0  0  0  0  0  0  0  0  0  0  0  0
   52.7670   30.7630   51.6660 C   0  0  0  0  0  0  0  0  0  0  0  0
   52.3950   30.5670   53.0060 C   0  0  0  0  0  0  0  0  0  0  0  0
   53.3250   30.2140   53.9310 N   0  0  0  0  0  0  0  0  0  0  0  0
   54.6340   30.0500   53.6080 C   0  0  0  0  0  0  0  0  0  0  0  0
   55.0640   30.2530   52.2870 C   0  0  0  0  0  0  0  0  0  0  0  0
   56.4010   30.0770   51.9000 O   0  0  0  0  0  0  0  0  0  0  0  0
   57.3050   31.1080   51.6050 C   0  0  0  0  0  0  0  0  0  0  0  0
   57.3170   32.3150   52.3260 C   0  0  0  0  0  0  0  0  0  0  0  0
   58.2200   33.3240   51.9900 C   0  0  0  0  0  0  0  0  0  0  0  0
   59.1100   33.1470   50.9280 C   0  0  0  0  0  0  0  0  0  0  0  0
   59.1020   31.9530   50.1820 C   0  0  0  0  0  0  0  0  0  0  0  0
   60.0350   31.7670   49.0460 C   0  0  0  0  0  0  0  0  0  0  0  0
   61.2780   31.8730   49.2300 O   0  0  0  0  0  0  0  0  0  0  0  0
   59.5240   31.5810   47.7180 N   0  0  0  0  0  0  0  0  0  0  0  0
   58.9970   32.4590   46.9070 C   0  0  0  0  0  0  0  0  0  0  0  0
   57.9020   32.0760   46.1930 N   0  0  0  0  0  0  0  0  0  0  0  0
   57.2610   32.9040   45.3300 C   0  0  0  0  0  0  0  0  0  0  0  0
   57.7200   34.2050   45.1420 C   0  0  0  0  0  0  0  0  0  0  0  0
   58.8540   34.6320   45.8280 C   0  0  0  0  0  0  0  0  0  0  0  0
   59.5220   33.7630   46.7030 C   0  0  0  0  0  0  0  0  0  0  0  0
   60.7050   34.1880   47.3050 O   0  0  0  0  0  0  0  0  0  0  0  0
   58.1850   30.9420   50.5280 C   0  0  0  0  0  0  0  0  0  0  0  0
   54.1180   30.5930   51.3170 C   0  0  0  0  0  0  0  0  0  0  0  0
   51.4040   33.2590   50.4730 H   0  0  0  0  0  0  0  0  0  0  0  0
   51.3456   30.7000   53.3079 H   0  0  0  0  0  0  0  0  0  0  0  0
   55.3583   29.7577   54.3825 H   0  0  0  0  0  0  0  0  0  0  0  0
   56.6124   32.4642   53.1574 H   0  0  0  0  0  0  0  0  0  0  0  0
   58.2312   34.2626   52.5636 H   0  0  0  0  0  0  0  0  0  0  0  0
   59.8219   33.9458   50.6728 H   0  0  0  0  0  0  0  0  0  0  0  0
   56.3785   32.5473   44.7788 H   0  0  0  0  0  0  0  0  0  0  0  0
   57.1928   34.8877   44.4594 H   0  0  0  0  0  0  0  0  0  0  0  0
   59.2279   35.6563   45.6829 H   0  0  0  0  0  0  0  0  0  0  0  0
   61.2210   33.5960   47.9450 H   0  0  0  0  0  0  0  0  0  0  0  0
   58.1594   30.0096   49.9449 H   0  0  0  0  0  0  0  0  0  0  0  0
   54.4328   30.7288   50.2718 H   0  0  0  0  0  0  0  0  0  0  0  0
  1  2  1  0
  2  3  2  0
  2  4  1  0
  4  5  2  0
  5  6  1  0
  6  7  2  0
  7  8  1  0
  8  9  1  0
  9 10  1  0
 10 11  2  0
 11 12  1  0
 12 13  2  0
 13 14  1  0
 14 15  1  0
 15 16  2  0
 15 17  1  0
 17 18  2  3
 18 19  1  0
 19 20  1  0
 20 21  2  0
 21 22  1  0
 22 23  2  0
 23 24  1  0
 14 25  2  0
  8 26  2  0
 26  4  1  0
 25 10  1  0
 23 18  1  0
  1 27  1  0
  5 28  1  0
  7 29  1  0
 11 30  1  0
 12 31  1  0
 13 32  1  0
 20 33  1  0
 21 34  1  0
 22 35  1  0
 24 36  1  0
 25 37  1  0
 26 38  1  0
M  CHG  2   1  -1  19  -1
M  END
>  <UniqueID>  (90) 
85

>  <SMILES>  (90) 
[NH-]C(=O)c1cncc(Oc2cccc(C(=O)N=c3[n-]cccc3O)c2)c1

>  <Energy>  (90) 
61.82408421965953

>  <Genealogy>  (90) 
[NH-]C(=O)c1cncc(Oc2cccc(C(=O)N=c3[n-]cccc3O)c2)c1 (protonated)
[NH-]C(=O)c1cncc(Oc2cccc(C(=O)N=c3[n-]cccc3O)c2)c1 (3D coordinates assigned)
[NH-]C(=O)c1cncc(Oc2cccc(C(=O)N=c3[n-]cccc3O)c2)c1 (optimized conformer: 61.82408421965953 kcal/mol)

>  <smiles>  (90) 
NC(=O)c1cncc(Oc2cccc(C(=O)N=c3[nH]cccc3O)c2)c1

>  <score_type>  (90) 
oracle

>  <origin>  (90) 
adg

>  <m_score__min__energy>  (90) 
-12.27

>  <m_primary>  (90) 
energy

$$$$
90:0
     RDKit          3D

 40 42  0  0  0  0  0  0  0  0999 V2000
   61.5460   31.1620   49.2330 O   0  0  0  0  0  0  0  0  0  0  0  0
   61.5700   30.9300   47.9940 C   0  0  0  0  0  0  0  0  0  0  0  0
   62.7180   31.4830   47.1900 C   0  0  0  0  0  0  0  0  0  0  0  0
   63.1280   33.1830   47.7130 S   0  0  0  0  0  0  0  0  0  0  0  0
   61.4730   33.8370   47.4850 C   0  0  0  0  0  0  0  0  0  0  0  0
   60.6290   34.0450   48.5780 C   0  0  0  0  0  0  0  0  0  0  0  0
   59.3960   34.5800   48.3760 N   0  0  0  0  0  0  0  0  0  0  0  0
   58.9670   34.9090   47.1290 C   0  0  0  0  0  0  0  0  0  0  0  0
   59.8040   34.6860   46.0330 C   0  0  0  0  0  0  0  0  0  0  0  0
   61.0390   34.1550   46.2350 N   0  0  0  0  0  0  0  0  0  0  0  0
   60.4310   30.2100   47.3700 C   0  0  0  0  0  0  0  0  0  0  0  0
   60.3830   30.0640   45.9720 C   0  0  0  0  0  0  0  0  0  0  0  0
   59.3480   29.3460   45.3690 C   0  0  0  0  0  0  0  0  0  0  0  0
   58.3400   28.7710   46.1500 C   0  0  0  0  0  0  0  0  0  0  0  0
   57.0030   27.9030   45.3980 S   0  0  0  0  0  0  0  0  0  0  0  0
   56.5420   26.8240   46.3360 O   0  0  0  0  0  0  0  0  0  0  0  0
   57.4530   27.2560   44.1160 O   0  0  0  0  0  0  0  0  0  0  0  0
   55.6790   28.9920   45.0890 N   0  0  0  0  0  0  0  0  0  0  0  0
   55.8700   29.7280   43.8390 C   0  0  0  0  0  0  0  0  0  0  0  0
   56.7130   30.9480   44.0520 C   0  0  0  0  0  0  0  0  0  0  0  0
   57.5590   31.5220   43.1240 C   0  0  0  0  0  0  0  0  0  0  0  0
   58.0980   32.6270   43.7500 C   0  0  0  0  0  0  0  0  0  0  0  0
   57.5590   32.6510   45.0190 C   0  0  0  0  0  0  0  0  0  0  0  0
   56.7390   31.6350   45.1720 O   0  0  0  0  0  0  0  0  0  0  0  0
   58.3640   28.9330   47.5390 C   0  0  0  0  0  0  0  0  0  0  0  0
   59.4000   29.6470   48.1450 C   0  0  0  0  0  0  0  0  0  0  0  0
   63.5993   30.8406   47.3334 H   0  0  0  0  0  0  0  0  0  0  0  0
   62.4238   31.5049   46.1303 H   0  0  0  0  0  0  0  0  0  0  0  0
   60.9590   33.7783   49.5929 H   0  0  0  0  0  0  0  0  0  0  0  0
   57.9686   35.3474   46.9839 H   0  0  0  0  0  0  0  0  0  0  0  0
   59.4671   34.9376   45.0166 H   0  0  0  0  0  0  0  0  0  0  0  0
   61.1669   30.5189   45.3486 H   0  0  0  0  0  0  0  0  0  0  0  0
   59.3254   29.2321   44.2751 H   0  0  0  0  0  0  0  0  0  0  0  0
   56.3662   29.0720   43.1086 H   0  0  0  0  0  0  0  0  0  0  0  0
   54.8845   30.0460   43.4680 H   0  0  0  0  0  0  0  0  0  0  0  0
   57.7608   31.1720   42.1009 H   0  0  0  0  0  0  0  0  0  0  0  0
   58.8138   33.3446   43.3227 H   0  0  0  0  0  0  0  0  0  0  0  0
   57.7816   33.4062   45.7872 H   0  0  0  0  0  0  0  0  0  0  0  0
   57.5645   28.4968   48.1559 H   0  0  0  0  0  0  0  0  0  0  0  0
   59.4103   29.7705   49.2380 H   0  0  0  0  0  0  0  0  0  0  0  0
  1  2  2  0
  2  3  1  0
  3  4  1  0
  4  5  1  0
  5  6  2  0
  6  7  1  0
  7  8  2  0
  8  9  1  0
  9 10  2  0
  2 11  1  0
 11 12  2  0
 12 13  1  0
 13 14  2  0
 14 15  1  0
 15 16  2  0
 15 17  2  0
 15 18  1  0
 18 19  1  0
 19 20  1  0
 20 21  2  0
 21 22  1  0
 22 23  2  0
 23 24  1  0
 14 25  1  0
 25 26  2  0
 10  5  1  0
 26 11  1  0
 24 20  1  0
  3 27  1  0
  3 28  1  0
  6 29  1  0
  8 30  1  0
  9 31  1  0
 12 32  1  0
 13 33  1  0
 19 34  1  0
 19 35  1  0
 21 36  1  0
 22 37  1  0
 23 38  1  0
 25 39  1  0
 26 40  1  0
M  CHG  1  18  -1
M  END
>  <UniqueID>  (91) 
86

>  <SMILES>  (91) 
O=C(CSc1cnccn1)c1ccc(S(=O)(=O)[N-]Cc2ccco2)cc1

>  <Energy>  (91) 
63.13565637852635

>  <Genealogy>  (91) 
O=C(CSc1cnccn1)c1ccc(S(=O)(=O)[N-]Cc2ccco2)cc1 (protonated)
O=C(CSc1cnccn1)c1ccc(S(=O)(=O)[N-]Cc2ccco2)cc1 (3D coordinates assigned)
O=C(CSc1cnccn1)c1ccc(S(=O)(=O)[N-]Cc2ccco2)cc1 (optimized conformer: 63.13565637852635 kcal/mol)

>  <smiles>  (91) 
O=C(CSc1cnccn1)c1ccc(S(=O)(=O)NCc2ccco2)cc1

>  <score_type>  (91) 
oracle

>  <origin>  (91) 
adg

>  <m_score__min__energy>  (91) 
-10.539999999999999

>  <m_primary>  (91) 
energy

$$$$
91:0
     RDKit          3D

 49 51  0  0  1  0  0  0  0  0999 V2000
   60.4140   29.3270   47.3480 C   0  0  0  0  0  0  0  0  0  0  0  0
   60.1480   28.4650   46.3640 C   0  0  0  0  0  0  0  0  0  0  0  0
   60.4380   28.8060   44.9480 C   0  0  0  0  0  0  0  0  0  0  0  0
   59.2440   28.5740   44.1410 N   0  0  0  0  0  0  0  0  0  0  0  0
   58.2000   29.3180   44.2330 C   0  0  0  0  0  0  0  0  0  0  0  0
   58.3600   30.5830   44.7460 C   0  0  0  0  0  0  0  0  0  0  0  0
   57.2660   31.4510   44.8760 C   0  0  0  0  0  0  0  0  0  0  0  0
   57.5050   32.6780   45.3890 O   0  0  0  0  0  0  0  0  0  0  0  0
   58.5140   33.1160   46.2090 C   0  0  0  0  0  0  0  0  0  0  0  0
   58.7070   32.4020   47.3970 C   0  0  0  0  0  0  0  0  0  0  0  0
   59.6970   32.7660   48.2880 C   0  0  0  0  0  0  0  0  0  0  0  0
   60.5190   33.8460   48.0210 C   0  0  0  0  0  0  0  0  0  0  0  0
   61.5170   34.1600   48.9870 N   0  0  0  0  0  0  0  0  0  0  0  0
   62.6480   33.3230   49.2170 C   0  0  0  0  0  0  0  0  0  0  0  0
   62.7700   32.2700   48.5430 O   0  0  0  0  0  0  0  0  0  0  0  0
   63.5780   33.7170   50.1900 N   0  0  0  0  0  0  0  0  0  0  0  0
   64.7500   32.9790   50.5230 C   0  0  0  0  0  0  0  0  0  0  0  0
   65.9770   33.6360   50.4500 C   0  0  0  0  0  0  0  0  0  0  0  0
   67.1550   32.9860   50.7570 C   0  0  0  0  0  0  0  0  0  0  0  0
   68.6800   33.8470   50.6540 Cl  0  0  0  0  0  0  0  0  0  0  0  0
   67.1290   31.6540   51.1460 C   0  0  0  0  0  0  0  0  0  0  0  0
   65.8970   31.0100   51.2140 C   0  0  0  0  0  0  0  0  0  0  0  0
   65.8920   29.5890   51.6310 C   0  0  0  0  0  0  0  0  0  0  0  0
   66.1780   29.5440   52.9640 F   0  0  0  0  0  0  0  0  0  0  0  0
   66.8430   28.8870   50.9280 F   0  0  0  0  0  0  0  0  0  0  0  0
   64.6580   29.0690   51.3250 F   0  0  0  0  0  0  0  0  0  0  0  0
   64.7350   31.6670   50.9070 C   0  0  0  0  0  0  0  0  0  0  0  0
   60.3440   34.5620   46.8560 C   0  0  0  0  0  0  0  0  0  0  0  0
   59.3410   34.1850   45.9650 C   0  0  0  0  0  0  0  0  0  0  0  0
   56.0890   30.9530   44.4700 N   0  0  0  0  0  0  0  0  0  0  0  0
   55.9600   29.7130   43.9730 C   0  0  0  0  0  0  0  0  0  0  0  0
   56.9960   28.8670   43.8390 N   0  0  0  0  0  0  0  0  0  0  0  0
   60.1922   29.0566   48.3909 H   0  0  0  0  0  0  0  0  0  0  0  0
   60.8550   30.3077   47.1159 H   0  0  0  0  0  0  0  0  0  0  0  0
   59.7070   27.4867   46.6058 H   0  0  0  0  0  0  0  0  0  0  0  0
   60.7292   29.8644   44.8773 H   0  0  0  0  0  0  0  0  0  0  0  0
   61.2604   28.1758   44.5785 H   0  0  0  0  0  0  0  0  0  0  0  0
   59.3595   30.9192   45.0588 H   0  0  0  0  0  0  0  0  0  0  0  0
   58.0621   31.5402   47.6238 H   0  0  0  0  0  0  0  0  0  0  0  0
   59.8330   32.1929   49.2170 H   0  0  0  0  0  0  0  0  0  0  0  0
   61.3600   35.0590   49.5240 H   0  0  0  0  0  0  0  0  0  0  0  0
   63.4350   34.6140   50.7350 H   0  0  0  0  0  0  0  0  0  0  0  0
   66.0070   34.6916   50.1421 H   0  0  0  0  0  0  0  0  0  0  0  0
   68.0585   31.1208   51.3943 H   0  0  0  0  0  0  0  0  0  0  0  0
   63.7763   31.1314   50.9703 H   0  0  0  0  0  0  0  0  0  0  0  0
   60.9904   35.4233   46.6317 H   0  0  0  0  0  0  0  0  0  0  0  0
   59.2075   34.7614   45.0377 H   0  0  0  0  0  0  0  0  0  0  0  0
   54.9612   29.3736   43.6612 H   0  0  0  0  0  0  0  0  0  0  0  0
   56.8680   27.9050   43.4490 H   0  0  0  0  0  0  0  0  0  0  0  0
  1  2  2  0
  2  3  1  0
  3  4  1  0
  4  5  2  0
  5  6  1  0
  6  7  2  0
  7  8  1  0
  8  9  1  0
  9 10  2  0
 10 11  1  0
 11 12  2  0
 12 13  1  0
 13 14  1  0
 14 15  2  0
 14 16  1  0
 16 17  1  0
 17 18  2  0
 18 19  1  0
 19 20  1  0
 19 21  2  0
 21 22  1  0
 22 23  1  0
 23 24  1  0
 23 25  1  0
 23 26  1  0
 22 27  2  0
 12 28  1  0
 28 29  2  0
  7 30  1  0
 30 31  2  0
 31 32  1  0
 32  5  1  0
 29  9  1  0
 27 17  1  0
  1 33  1  0
  1 34  1  0
  2 35  1  0
  3 36  1  0
  3 37  1  0
  6 38  1  0
 10 39  1  0
 11 40  1  0
 13 41  1  0
 16 42  1  0
 18 43  1  0
 21 44  1  0
 27 45  1  0
 28 46  1  0
 29 47  1  0
 31 48  1  0
 32 49  1  0
M  END
>  <smiles>  (92) 
C=CCN=c1cc(Oc2ccc(NC(=O)Nc3cc(Cl)cc(C(F)(F)F)c3)cc2)nc[nH]1

>  <score_type>  (92) 
oracle

>  <origin>  (92) 
adg

>  <m_score__min__energy>  (92) 
-7.6200000000000001

>  <m_primary>  (92) 
energy

$$$$
92:0
     RDKit          3D

 40 41  0  0  0  0  0  0  0  0999 V2000
   59.2450   24.9560   45.9880 C   0  0  0  0  0  0  0  0  0  0  0  0
   59.3910   26.0520   46.7380 C   0  0  0  0  0  0  0  0  0  0  0  0
   60.1400   27.2630   46.2430 C   0  0  0  0  0  0  0  0  0  0  0  0
   59.1910   28.3730   45.7010 C   0  0  2  0  0  0  0  0  0  0  0  0
   60.0080   29.3940   44.8770 C   0  0  0  0  0  0  0  0  0  0  0  0
   58.6070   29.0530   46.7890 O   0  0  0  0  0  0  0  0  0  0  0  0
   58.0820   27.7720   44.8160 C   0  0  0  0  0  0  0  0  0  0  0  0
   58.4020   27.2220   43.5160 S   0  0  0  0  0  0  0  0  0  0  0  0
   56.6310   27.7400   45.2570 C   0  0  0  0  0  0  0  0  0  0  0  0
   56.0510   29.0810   45.1610 N   0  0  0  0  0  0  0  0  0  0  0  0
   56.5850   30.1030   44.5630 C   0  0  0  0  0  0  0  0  0  0  0  0
   57.1720   31.1110   45.2690 N   0  0  0  0  0  0  0  0  0  0  0  0
   57.7530   32.1760   44.6470 C   0  0  0  0  0  0  0  0  0  0  0  0
   58.4050   33.2370   45.4630 C   0  0  0  0  0  0  0  0  0  0  0  0
   59.0270   34.3500   44.8630 C   0  0  0  0  0  0  0  0  0  0  0  0
   59.6430   35.3300   45.6490 C   0  0  0  0  0  0  0  0  0  0  0  0
   59.6510   35.2100   47.0400 C   0  0  0  0  0  0  0  0  0  0  0  0
   59.0500   34.1060   47.6480 C   0  0  0  0  0  0  0  0  0  0  0  0
   58.4350   33.1240   46.8650 C   0  0  0  0  0  0  0  0  0  0  0  0
   57.7130   32.2440   43.2450 C   0  0  0  0  0  0  0  0  0  0  0  0
   57.1110   31.2060   42.5390 C   0  0  0  0  0  0  0  0  0  0  0  0
   56.5670   30.1570   43.2070 N   0  0  0  0  0  0  0  0  0  0  0  0
   58.6921   24.0902   46.3812 H   0  0  0  0  0  0  0  0  0  0  0  0
   59.6777   24.9195   44.9774 H   0  0  0  0  0  0  0  0  0  0  0  0
   58.9518   26.0713   47.7463 H   0  0  0  0  0  0  0  0  0  0  0  0
   60.7286   27.6777   47.0746 H   0  0  0  0  0  0  0  0  0  0  0  0
   60.7843   26.9400   45.4120 H   0  0  0  0  0  0  0  0  0  0  0  0
   60.5473   30.0679   45.5589 H   0  0  0  0  0  0  0  0  0  0  0  0
   60.7304   28.8592   44.2428 H   0  0  0  0  0  0  0  0  0  0  0  0
   59.3278   29.9815   44.2428 H   0  0  0  0  0  0  0  0  0  0  0  0
   57.7460   29.4460   46.4860 H   0  0  0  0  0  0  0  0  0  0  0  0
   56.0680   27.0520   44.6092 H   0  0  0  0  0  0  0  0  0  0  0  0
   56.5773   27.3962   46.3005 H   0  0  0  0  0  0  0  0  0  0  0  0
   59.0283   34.4492   43.7675 H   0  0  0  0  0  0  0  0  0  0  0  0
   60.1219   36.1967   45.1701 H   0  0  0  0  0  0  0  0  0  0  0  0
   60.1304   35.9846   47.6565 H   0  0  0  0  0  0  0  0  0  0  0  0
   59.0603   34.0086   48.7436 H   0  0  0  0  0  0  0  0  0  0  0  0
   57.9696   32.2536   47.3506 H   0  0  0  0  0  0  0  0  0  0  0  0
   58.1497   33.1025   42.7138 H   0  0  0  0  0  0  0  0  0  0  0  0
   57.0762   31.2359   41.4400 H   0  0  0  0  0  0  0  0  0  0  0  0
  1  2  2  0
  2  3  1  0
  3  4  1  0
  4  5  1  0
  4  6  1  1
  4  7  1  0
  7  8  2  0
  7  9  1  0
  9 10  1  0
 10 11  2  3
 11 12  1  0
 12 13  2  0
 13 14  1  0
 14 15  2  0
 15 16  1  0
 16 17  2  0
 17 18  1  0
 18 19  2  0
 13 20  1  0
 20 21  2  0
 21 22  1  0
 22 11  1  0
 19 14  1  0
  1 23  1  0
  1 24  1  0
  2 25  1  0
  3 26  1  0
  3 27  1  0
  5 28  1  0
  5 29  1  0
  5 30  1  0
  6 31  1  0
  9 32  1  0
  9 33  1  0
 15 34  1  0
 16 35  1  0
 17 36  1  0
 18 37  1  0
 19 38  1  0
 20 39  1  0
 21 40  1  0
M  CHG  1  22  -1
M  END
>  <UniqueID>  (93) 
87

>  <SMILES>  (93) 
C=CC[C@](C)(O)C(=S)CN=c1nc(-c2ccccc2)cc[n-]1

>  <Energy>  (93) 
42.48337105044208

>  <Genealogy>  (93) 
C=CCC(C)(O)C(=S)CN=c1nc(-c2ccccc2)cc[n-]1 (protonated)
C=CC[C@](C)(O)C(=S)CN=c1nc(-c2ccccc2)cc[n-]1 (chirality)
C=CC[C@](C)(O)C(=S)CN=c1nc(-c2ccccc2)cc[n-]1 (3D coordinates assigned)
C=CC[C@](C)(O)C(=S)CN=c1nc(-c2ccccc2)cc[n-]1 (optimized conformer: 42.48337105044208 kcal/mol)

>  <smiles>  (93) 
C=CCC(C)(O)C(=S)CN=c1nc(-c2ccccc2)cc[nH]1

>  <score_type>  (93) 
oracle

>  <origin>  (93) 
adg

>  <m_score__min__energy>  (93) 
-9.6199999999999992

>  <m_primary>  (93) 
energy

$$$$
93:0
     RDKit          3D

 55 58  0  0  0  0  0  0  0  0999 V2000
   57.6120   24.4000   47.3760 H   0  0  0  0  0  0  0  0  0  0  0  0
   58.3100   25.1310   47.4210 O   0  0  0  0  0  0  0  0  0  0  0  0
   58.1300   26.3900   46.8440 C   0  0  0  0  0  0  0  0  0  0  0  0
   59.2140   27.2720   46.8220 C   0  0  0  0  0  0  0  0  0  0  0  0
   60.1628   26.9804   47.2962 H   0  0  0  0  0  0  0  0  0  0  0  0
   59.1050   28.5180   46.2050 C   0  0  0  0  0  0  0  0  0  0  0  0
   59.9738   29.1923   46.1817 H   0  0  0  0  0  0  0  0  0  0  0  0
   57.8960   28.9200   45.6130 C   0  0  0  0  0  0  0  0  0  0  0  0
   57.8220   30.2330   44.9170 C   0  0  0  0  0  0  0  0  0  0  0  0
   58.2460   30.3300   43.7350 O   0  0  0  0  0  0  0  0  0  0  0  0
   57.3460   31.4210   45.5740 N   0  0  0  0  0  0  0  0  0  0  0  0
   57.9830   32.5460   45.7400 C   0  0  0  0  0  0  0  0  0  0  0  0
   58.5080   32.8170   46.9660 N   0  0  0  0  0  0  0  0  0  0  0  0
   59.1630   33.9790   47.2410 C   0  0  0  0  0  0  0  0  0  0  0  0
   59.6710   34.2380   48.6230 C   0  0  0  0  0  0  0  0  0  0  0  0
   58.9415   33.8661   49.3575 H   0  0  0  0  0  0  0  0  0  0  0  0
   60.6306   33.7191   48.7642 H   0  0  0  0  0  0  0  0  0  0  0  0
   59.8147   35.3194   48.7642 H   0  0  0  0  0  0  0  0  0  0  0  0
   59.3100   34.9450   46.2410 C   0  0  0  0  0  0  0  0  0  0  0  0
   59.8198   35.8954   46.4576 H   0  0  0  0  0  0  0  0  0  0  0  0
   58.8040   34.6920   44.9660 C   0  0  0  0  0  0  0  0  0  0  0  0
   58.9252   35.4389   44.1676 H   0  0  0  0  0  0  0  0  0  0  0  0
   58.1440   33.4910   44.7040 C   0  0  0  0  0  0  0  0  0  0  0  0
   57.7521   33.2822   43.6976 H   0  0  0  0  0  0  0  0  0  0  0  0
   56.7800   28.0610   45.6930 C   0  0  0  0  0  0  0  0  0  0  0  0
   55.5370   28.4820   45.2300 O   0  0  0  0  0  0  0  0  0  0  0  0
   56.9030   26.7840   46.2710 C   0  0  0  0  0  0  0  0  0  0  0  0
   55.7460   25.8760   46.2290 C   0  0  0  0  0  0  0  0  0  0  0  0
   54.6140   26.3310   45.9070 O   0  0  0  0  0  0  0  0  0  0  0  0
   55.8950   24.4950   46.5730 N   0  0  0  0  0  0  0  0  0  0  0  0
   56.4130   23.5060   45.6730 C   0  0  0  0  0  0  0  0  0  0  0  0
   56.2510   23.7010   44.2960 C   0  0  0  0  0  0  0  0  0  0  0  0
   55.7528   24.6098   43.9274 H   0  0  0  0  0  0  0  0  0  0  0  0
   56.7180   22.7490   43.3880 C   0  0  0  0  0  0  0  0  0  0  0  0
   56.5764   22.9036   42.3082 H   0  0  0  0  0  0  0  0  0  0  0  0
   57.3640   21.6020   43.8490 C   0  0  0  0  0  0  0  0  0  0  0  0
   57.7175   20.8456   43.1328 H   0  0  0  0  0  0  0  0  0  0  0  0
   57.5630   21.4120   45.2190 C   0  0  0  0  0  0  0  0  0  0  0  0
   58.0801   20.5090   45.5756 H   0  0  0  0  0  0  0  0  0  0  0  0
   57.1060   22.3690   46.1470 C   0  0  0  0  0  0  0  0  0  0  0  0
   57.3570   22.2530   47.5270 O   0  0  0  0  0  0  0  0  0  0  0  0
   56.3870   21.9880   48.5410 C   0  0  0  0  0  0  0  0  0  0  0  0
   56.7310   21.1459   49.1594 H   0  0  0  0  0  0  0  0  0  0  0  0
   56.2651   22.8891   49.1600 H   0  0  0  0  0  0  0  0  0  0  0  0
   55.0590   21.6390   47.9240 C   0  0  0  0  0  0  0  0  0  0  0  0
   54.8830   20.3930   47.3000 C   0  0  0  0  0  0  0  0  0  0  0  0
   55.7181   19.6782   47.2595 H   0  0  0  0  0  0  0  0  0  0  0  0
   53.6510   20.0570   46.7300 C   0  0  0  0  0  0  0  0  0  0  0  0
   53.5175   19.0772   46.2481 H   0  0  0  0  0  0  0  0  0  0  0  0
   52.5900   20.9640   46.7720 C   0  0  0  0  0  0  0  0  0  0  0  0
   51.6213   20.6985   46.3234 H   0  0  0  0  0  0  0  0  0  0  0  0
   52.7590   22.2090   47.3840 C   0  0  0  0  0  0  0  0  0  0  0  0
   51.9228   22.9230   47.4158 H   0  0  0  0  0  0  0  0  0  0  0  0
   53.9890   22.5490   47.9560 C   0  0  0  0  0  0  0  0  0  0  0  0
   54.1192   23.5319   48.4324 H   0  0  0  0  0  0  0  0  0  0  0  0
  1  2  1  0
  2  3  1  0
  3  4  2  0
  4  5  1  0
  4  6  1  0
  6  7  1  0
  6  8  2  0
  8  9  1  0
  9 10  2  0
  9 11  1  0
 11 12  2  0
 12 13  1  0
 13 14  1  0
 14 15  1  0
 15 16  1  0
 15 17  1  0
 15 18  1  0
 14 19  2  0
 19 20  1  0
 19 21  1  0
 21 22  1  0
 21 23  2  0
 23 24  1  0
  8 25  1  0
 25 26  1  0
 25 27  2  0
 27 28  1  0
 28 29  2  0
 28 30  1  0
 30 31  1  0
 31 32  2  0
 32 33  1  0
 32 34  1  0
 34 35  1  0
 34 36  2  0
 36 37  1  0
 36 38  1  0
 38 39  1  0
 38 40  2  0
 40 41  1  0
 41 42  1  0
 42 43  1  0
 42 44  1  0
 42 45  1  0
 45 46  2  0
 46 47  1  0
 46 48  1  0
 48 49  1  0
 48 50  2  0
 50 51  1  0
 50 52  1  0
 52 53  1  0
 52 54  2  0
 54 55  1  0
 27  3  1  0
 40 31  1  0
 54 45  1  0
 23 12  1  0
M  CHG  3  13  -1  26  -1  30  -1
M  END
>  <UniqueID>  (94) 
88

>  <SMILES>  (94) 
Cc1ccc/c(=N\C(=O)c2ccc(O)c(C(=O)[N-]c3ccccc3OCc3ccccc3)c2[O-])[n-]1

>  <Energy>  (94) 
81.5675447809453

>  <Genealogy>  (94) 
Cc1cccc(=NC(=O)c2ccc(O)c(C(=O)[N-]c3ccccc3OCc3ccccc3)c2[O-])[n-]1 (protonated)
Cc1ccc/c(=N\C(=O)c2ccc(O)c(C(=O)[N-]c3ccccc3OCc3ccccc3)c2[O-])[n-]1 (cis-trans isomerization)
Cc1ccc/c(=N\C(=O)c2ccc(O)c(C(=O)[N-]c3ccccc3OCc3ccccc3)c2[O-])[n-]1 (3D coordinates assigned)
Cc1ccc/c(=N\C(=O)c2ccc(O)c(C(=O)[N-]c3ccccc3OCc3ccccc3)c2[O-])[n-]1 (optimized conformer: 81.5675447809453 kcal/mol)

>  <smiles>  (94) 
Cc1cccc(=NC(=O)c2ccc(O)c(C(=O)Nc3ccccc3OCc3ccccc3)c2O)[nH]1

>  <score_type>  (94) 
oracle

>  <origin>  (94) 
adg

>  <m_score__min__energy>  (94) 
-16.23

>  <m_primary>  (94) 
energy

$$$$
94:0
     RDKit          3D

 52 55  0  0  1  0  0  0  0  0999 V2000
   63.3450   32.8270   47.1490 C   0  0  0  0  0  0  0  0  0  0  0  0
   62.0290   33.2990   46.9970 O   0  0  0  0  0  0  0  0  0  0  0  0
   60.9730   32.3980   47.1640 C   0  0  0  0  0  0  0  0  0  0  0  0
   61.0470   31.0880   46.7540 C   0  0  0  0  0  0  0  0  0  0  0  0
   59.9680   30.2050   46.9360 C   0  0  0  0  0  0  0  0  0  0  0  0
   60.1530   28.8880   46.5340 N   0  0  0  0  0  0  0  0  0  0  0  0
   59.3470   28.1950   45.8850 C   0  0  0  0  0  0  0  0  0  0  0  0
   59.1290   26.9120   46.3120 N   0  0  0  0  0  0  0  0  0  0  0  0
   58.2790   26.0860   45.6840 C   0  0  0  0  0  0  0  0  0  0  0  0
   58.1220   24.8950   46.1390 N   0  0  0  0  0  0  0  0  0  0  0  0
   58.9900   23.8530   45.5940 C   0  0  0  0  0  0  0  0  0  0  0  0
   58.1550   23.1340   44.5840 C   0  0  0  0  0  0  0  0  0  0  0  0
   57.1760   23.7030   43.8490 N   0  0  0  0  0  0  0  0  0  0  0  0
   56.6280   22.7750   43.0400 C   0  0  0  0  0  0  0  0  0  0  0  0
   57.3030   21.6000   43.2960 C   0  0  0  0  0  0  0  0  0  0  0  0
   58.2310   21.8170   44.2330 N   0  0  0  0  0  0  0  0  0  0  0  0
   57.6180   26.5110   44.6130 N   0  0  0  0  0  0  0  0  0  0  0  0
   57.8090   27.7610   44.1690 C   0  0  0  0  0  0  0  0  0  0  0  0
   58.6890   28.6550   44.7960 C   0  0  0  0  0  0  0  0  0  0  0  0
   58.7760   29.9340   44.2140 N   0  0  0  0  0  0  0  0  0  0  0  0
   57.7910   30.9660   44.4220 C   0  0  0  0  0  0  0  0  0  0  0  0
   56.8300   30.6550   45.1660 O   0  0  0  0  0  0  0  0  0  0  0  0
   57.9180   32.3060   43.7890 C   0  0  0  0  0  0  0  0  0  0  0  0
   58.8650   33.2270   44.5460 C   0  0  0  0  0  0  0  0  0  0  0  0
   57.4020   33.4720   44.5450 C   0  0  0  0  0  0  0  0  0  0  0  0
   58.8610   30.7450   47.5430 C   0  0  0  0  0  0  0  0  0  0  0  0
   58.7760   32.0570   47.9590 C   0  0  0  0  0  0  0  0  0  0  0  0
   59.8380   32.9150   47.7760 C   0  0  0  0  0  0  0  0  0  0  0  0
   59.7120   34.3030   48.2310 C   0  0  0  0  0  0  0  0  0  0  0  0
   63.5826   32.7418   48.2196 H   0  0  0  0  0  0  0  0  0  0  0  0
   63.4377   31.8396   46.6731 H   0  0  0  0  0  0  0  0  0  0  0  0
   64.0441   33.5304   46.6731 H   0  0  0  0  0  0  0  0  0  0  0  0
   61.9676   30.7237   46.2746 H   0  0  0  0  0  0  0  0  0  0  0  0
   59.6430   26.5450   47.1640 H   0  0  0  0  0  0  0  0  0  0  0  0
   59.8744   24.2992   45.1157 H   0  0  0  0  0  0  0  0  0  0  0  0
   59.3603   23.1757   46.3777 H   0  0  0  0  0  0  0  0  0  0  0  0
   55.8087   22.9244   42.3214 H   0  0  0  0  0  0  0  0  0  0  0  0
   57.1081   20.6349   42.8056 H   0  0  0  0  0  0  0  0  0  0  0  0
   58.8910   21.1150   44.6280 H   0  0  0  0  0  0  0  0  0  0  0  0
   56.9670   25.8690   44.1360 H   0  0  0  0  0  0  0  0  0  0  0  0
   57.2553   28.0981   43.2803 H   0  0  0  0  0  0  0  0  0  0  0  0
   59.5900   30.2490   43.6050 H   0  0  0  0  0  0  0  0  0  0  0  0
   57.7821   31.9524   42.7563 H   0  0  0  0  0  0  0  0  0  0  0  0
   59.3656   32.8745   45.4599 H   0  0  0  0  0  0  0  0  0  0  0  0
   59.7578   33.8155   44.2882 H   0  0  0  0  0  0  0  0  0  0  0  0
   56.8218   33.3112   45.4656 H   0  0  0  0  0  0  0  0  0  0  0  0
   56.7686   34.3338   44.2878 H   0  0  0  0  0  0  0  0  0  0  0  0
   57.9907   30.0926   47.7071 H   0  0  0  0  0  0  0  0  0  0  0  0
   57.8555   32.4202   48.4394 H   0  0  0  0  0  0  0  0  0  0  0  0
   59.7096   34.3296   49.3307 H   0  0  0  0  0  0  0  0  0  0  0  0
   60.5604   34.8916   47.8519 H   0  0  0  0  0  0  0  0  0  0  0  0
   58.7715   34.7292   47.8519 H   0  0  0  0  0  0  0  0  0  0  0  0
  1  2  1  0
  2  3  1  0
  3  4  2  0
  4  5  1  0
  5  6  1  0
  6  7  2  0
  7  8  1  0
  8  9  1  0
  9 10  2  0
 10 11  1  0
 11 12  1  0
 12 13  2  0
 13 14  1  0
 14 15  2  0
 15 16  1  0
  9 17  1  0
 17 18  1  0
 18 19  2  0
 19 20  1  0
 20 21  1  0
 21 22  2  0
 21 23  1  0
 23 24  1  0
 24 25  1  0
  5 26  2  0
 26 27  1  0
 27 28  2  0
 28 29  1  0
 28  3  1  0
 19  7  1  0
 25 23  1  0
 16 12  1  0
  1 30  1  0
  1 31  1  0
  1 32  1  0
  4 33  1  0
  8 34  1  0
 11 35  1  0
 11 36  1  0
 14 37  1  0
 15 38  1  0
 16 39  1  0
 17 40  1  0
 18 41  1  0
 20 42  1  0
 23 43  1  0
 24 44  1  0
 24 45  1  0
 25 46  1  0
 25 47  1  0
 26 48  1  0
 27 49  1  0
 29 50  1  0
 29 51  1  0
 29 52  1  0
M  END
>  <smiles>  (95) 
COc1cc(N=c2[nH]c(=NCc3ncc[nH]3)[nH]cc2NC(=O)C2CC2)ccc1C

>  <score_type>  (95) 
oracle

>  <origin>  (95) 
adg

>  <m_score__min__energy>  (95) 
-8.4900000000000002

>  <m_primary>  (95) 
energy

$$$$
95:0
     RDKit          3D

 50 54  0  0  0  0  0  0  0  0999 V2000
   62.7310   33.1270   46.4580 O   0  0  0  0  0  0  0  0  0  0  0  0
   62.2950   32.7520   47.5810 C   0  0  0  0  0  0  0  0  0  0  0  0
   60.8990   32.4590   47.7490 N   0  0  0  0  0  0  0  0  0  0  0  0
   59.8720   32.9110   46.8490 C   0  0  0  0  0  0  0  0  0  0  0  0
   59.2970   34.1870   46.9780 C   0  0  0  0  0  0  0  0  0  0  0  0
   58.2820   34.5930   46.1090 C   0  0  0  0  0  0  0  0  0  0  0  0
   57.8270   33.7320   45.1090 C   0  0  0  0  0  0  0  0  0  0  0  0
   58.3850   32.4500   44.9680 C   0  0  0  0  0  0  0  0  0  0  0  0
   57.8780   31.5140   43.8990 C   0  0  0  0  0  0  0  0  0  0  0  0
   57.3820   30.2220   44.4940 C   0  0  0  0  0  0  0  0  0  0  0  0
   56.0420   29.9930   44.5000 N   0  0  0  0  0  0  0  0  0  0  0  0
   55.5170   28.8710   44.9940 N   0  0  0  0  0  0  0  0  0  0  0  0
   56.2950   27.8890   45.5100 C   0  0  0  0  0  0  0  0  0  0  0  0
   55.7540   26.8510   45.9760 O   0  0  0  0  0  0  0  0  0  0  0  0
   57.6900   28.0390   45.5180 C   0  0  0  0  0  0  0  0  0  0  0  0
   58.2470   29.2350   45.0190 C   0  0  0  0  0  0  0  0  0  0  0  0
   59.6770   29.4090   45.0310 N   0  0  0  0  0  0  0  0  0  0  0  0
   60.5450   28.4810   45.7520 C   0  0  0  0  0  0  0  0  0  0  0  0
   60.0180   27.0570   45.6030 C   0  0  0  0  0  0  0  0  0  0  0  0
   58.5770   26.9690   46.1190 C   0  0  0  0  0  0  0  0  0  0  0  0
   59.3930   32.0410   45.8580 C   0  0  0  0  0  0  0  0  0  0  0  0
   63.2430   32.5760   48.6970 C   0  0  0  0  0  0  0  0  0  0  0  0
   62.8910   32.1560   49.9800 C   0  0  0  0  0  0  0  0  0  0  0  0
   64.0760   32.1180   50.6810 C   0  0  0  0  0  0  0  0  0  0  0  0
   64.3370   31.7680   52.0040 C   0  0  0  0  0  0  0  0  0  0  0  0
   65.6720   31.8190   52.4450 C   0  0  0  0  0  0  0  0  0  0  0  0
   66.7020   32.2120   51.5620 C   0  0  0  0  0  0  0  0  0  0  0  0
   66.4070   32.5580   50.2300 C   0  0  0  0  0  0  0  0  0  0  0  0
   65.0740   32.5000   49.8230 C   0  0  0  0  0  0  0  0  0  0  0  0
   64.5800   32.7820   48.6060 N   0  0  0  0  0  0  0  0  0  0  0  0
   60.6230   31.7900   48.5040 H   0  0  0  0  0  0  0  0  0  0  0  0
   59.6479   34.8687   47.7668 H   0  0  0  0  0  0  0  0  0  0  0  0
   57.8396   35.5947   46.2129 H   0  0  0  0  0  0  0  0  0  0  0  0
   57.0275   34.0587   44.4278 H   0  0  0  0  0  0  0  0  0  0  0  0
   57.0522   32.0003   43.3590 H   0  0  0  0  0  0  0  0  0  0  0  0
   58.7085   31.2853   43.2150 H   0  0  0  0  0  0  0  0  0  0  0  0
   60.1320   30.1860   44.5070 H   0  0  0  0  0  0  0  0  0  0  0  0
   61.5632   28.5384   45.3397 H   0  0  0  0  0  0  0  0  0  0  0  0
   60.5604   28.7524   46.8179 H   0  0  0  0  0  0  0  0  0  0  0  0
   60.0420   26.7699   44.5414 H   0  0  0  0  0  0  0  0  0  0  0  0
   60.6518   26.3764   46.1905 H   0  0  0  0  0  0  0  0  0  0  0  0
   58.1671   25.9817   45.8596 H   0  0  0  0  0  0  0  0  0  0  0  0
   58.5978   27.1191   47.2085 H   0  0  0  0  0  0  0  0  0  0  0  0
   59.8113   31.0269   45.7766 H   0  0  0  0  0  0  0  0  0  0  0  0
   61.8854   31.9089   50.3511 H   0  0  0  0  0  0  0  0  0  0  0  0
   63.5261   31.4619   52.6814 H   0  0  0  0  0  0  0  0  0  0  0  0
   65.9151   31.5512   53.4838 H   0  0  0  0  0  0  0  0  0  0  0  0
   67.7422   32.2479   51.9179 H   0  0  0  0  0  0  0  0  0  0  0  0
   67.2012   32.8640   49.5331 H   0  0  0  0  0  0  0  0  0  0  0  0
   65.1280   33.0790   47.7690 H   0  0  0  0  0  0  0  0  0  0  0  0
  1  2  2  0
  2  3  1  0
  3  4  1  0
  4  5  2  0
  5  6  1  0
  6  7  2  0
  7  8  1  0
  8  9  1  0
  9 10  1  0
 10 11  2  0
 11 12  1  0
 12 13  1  0
 13 14  2  0
 13 15  1  0
 15 16  2  0
 16 17  1  0
 17 18  1  0
 18 19  1  0
 19 20  1  0
  8 21  2  0
  2 22  1  0
 22 23  2  0
 23 24  1  0
 24 25  2  0
 25 26  1  0
 26 27  2  0
 27 28  1  0
 28 29  2  0
 29 30  1  0
 21  4  1  0
 30 22  1  0
 16 10  1  0
 29 24  1  0
 20 15  1  0
  3 31  1  0
  5 32  1  0
  6 33  1  0
  7 34  1  0
  9 35  1  0
  9 36  1  0
 17 37  1  0
 18 38  1  0
 18 39  1  0
 19 40  1  0
 19 41  1  0
 20 42  1  0
 20 43  1  0
 21 44  1  0
 23 45  1  0
 25 46  1  0
 26 47  1  0
 27 48  1  0
 28 49  1  0
 30 50  1  0
M  CHG  1  12  -1
M  END
>  <UniqueID>  (96) 
89

>  <SMILES>  (96) 
O=C(Nc1cccc(Cc2n[n-]c(=O)c3c2NCCC3)c1)c1cc2ccccc2[nH]1

>  <Energy>  (96) 
93.24180621369442

>  <Genealogy>  (96) 
O=C(Nc1cccc(Cc2n[n-]c(=O)c3c2NCCC3)c1)c1cc2ccccc2[nH]1 (protonated)
O=C(Nc1cccc(Cc2n[n-]c(=O)c3c2NCCC3)c1)c1cc2ccccc2[nH]1 (3D coordinates assigned)
O=C(Nc1cccc(Cc2n[n-]c(=O)c3c2NCCC3)c1)c1cc2ccccc2[nH]1 (nonaromatic ring conformer: 93.24180621369442 kcal/mol)

>  <smiles>  (96) 
O=C(Nc1cccc(Cc2n[nH]c(=O)c3c2NCCC3)c1)c1cc2ccccc2[nH]1

>  <score_type>  (96) 
oracle

>  <origin>  (96) 
adg

>  <m_score__min__energy>  (96) 
-12.23

>  <m_primary>  (96) 
energy

$$$$
96:0
     RDKit          3D

 44 46  0  0  0  0  0  0  0  0999 V2000
   59.0090   33.1230   51.1400 C   0  0  0  0  0  0  0  0  0  0  0  0
   58.1240   31.9850   51.5740 C   0  0  0  0  0  0  0  0  0  0  0  0
   57.4400   32.1350   52.7940 C   0  0  0  0  0  0  0  0  0  0  0  0
   56.7380   31.0710   53.3530 C   0  0  0  0  0  0  0  0  0  0  0  0
   56.7210   29.8480   52.6940 C   0  0  0  0  0  0  0  0  0  0  0  0
   57.3440   29.7150   51.4970 N   0  0  0  0  0  0  0  0  0  0  0  0
   58.0100   30.7360   50.8860 C   0  0  0  0  0  0  0  0  0  0  0  0
   58.5130   30.4820   49.7070 N   0  0  0  0  0  0  0  0  0  0  0  0
   59.7510   29.8670   49.3310 C   0  0  0  0  0  0  0  0  0  0  0  0
   60.0300   28.7070   49.7390 O   0  0  0  0  0  0  0  0  0  0  0  0
   60.7670   30.6870   48.5870 C   0  0  0  0  0  0  0  0  0  0  0  0
   60.1410   31.7440   47.6940 C   0  0  0  0  0  0  0  0  0  0  0  0
   60.0950   33.0680   48.1610 C   0  0  0  0  0  0  0  0  0  0  0  0
   59.5690   34.0870   47.3680 C   0  0  0  0  0  0  0  0  0  0  0  0
   59.0850   33.8050   46.0880 C   0  0  0  0  0  0  0  0  0  0  0  0
   58.5540   34.8200   45.2950 O   0  0  0  0  0  0  0  0  0  0  0  0
   59.1340   32.4950   45.5990 C   0  0  0  0  0  0  0  0  0  0  0  0
   58.6400   32.2290   44.3240 O   0  0  0  0  0  0  0  0  0  0  0  0
   59.6690   31.4560   46.3860 C   0  0  0  0  0  0  0  0  0  0  0  0
   59.7340   30.0880   45.8200 C   0  0  0  0  0  0  0  0  0  0  0  0
   60.8280   29.6930   45.3330 O   0  0  0  0  0  0  0  0  0  0  0  0
   58.5410   29.1860   45.8220 C   0  0  0  0  0  0  0  0  0  0  0  0
   57.3210   29.6600   45.2980 C   0  0  0  0  0  0  0  0  0  0  0  0
   56.1930   28.8370   45.2420 C   0  0  0  0  0  0  0  0  0  0  0  0
   55.0060   29.3280   44.7120 O   0  0  0  0  0  0  0  0  0  0  0  0
   56.2610   27.5260   45.7130 C   0  0  0  0  0  0  0  0  0  0  0  0
   55.1420   26.7040   45.6570 O   0  0  0  0  0  0  0  0  0  0  0  0
   57.4560   27.0370   46.2430 C   0  0  0  0  0  0  0  0  0  0  0  0
   58.5960   27.8500   46.3040 C   0  0  0  0  0  0  0  0  0  0  0  0
   59.7890   27.2900   46.8940 C   0  0  0  0  0  0  0  0  0  0  0  0
   60.7440   26.8420   47.3700 N   0  0  0  0  0  0  0  0  0  0  0  0
   59.4081   33.6362   52.0274 H   0  0  0  0  0  0  0  0  0  0  0  0
   59.8418   32.7308   50.5378 H   0  0  0  0  0  0  0  0  0  0  0  0
   58.4238   33.8335   50.5378 H   0  0  0  0  0  0  0  0  0  0  0  0
   57.4601   33.1049   53.3125 H   0  0  0  0  0  0  0  0  0  0  0  0
   56.2028   31.1970   54.3057 H   0  0  0  0  0  0  0  0  0  0  0  0
   56.2024   28.9881   53.1430 H   0  0  0  0  0  0  0  0  0  0  0  0
   61.4170   31.1878   49.3195 H   0  0  0  0  0  0  0  0  0  0  0  0
   61.3305   30.0008   47.9377 H   0  0  0  0  0  0  0  0  0  0  0  0
   60.4787   33.3037   49.1646 H   0  0  0  0  0  0  0  0  0  0  0  0
   59.5349   35.1173   47.7517 H   0  0  0  0  0  0  0  0  0  0  0  0
   58.2070   34.6360   44.3600 H   0  0  0  0  0  0  0  0  0  0  0  0
   57.2560   30.6937   44.9275 H   0  0  0  0  0  0  0  0  0  0  0  0
   57.5035   26.0034   46.6165 H   0  0  0  0  0  0  0  0  0  0  0  0
  1  2  1  0
  2  3  2  0
  3  4  1  0
  4  5  2  0
  5  6  1  0
  6  7  1  0
  7  8  2  3
  8  9  1  0
  9 10  2  0
  9 11  1  0
 11 12  1  0
 12 13  2  0
 13 14  1  0
 14 15  2  0
 15 16  1  0
 15 17  1  0
 17 18  1  0
 17 19  2  0
 19 20  1  0
 20 21  2  0
 20 22  1  0
 22 23  2  0
 23 24  1  0
 24 25  1  0
 24 26  2  0
 26 27  1  0
 26 28  1  0
 28 29  2  0
 29 30  1  0
 30 31  3  0
  7  2  1  0
 19 12  1  0
 29 22  1  0
  1 32  1  0
  1 33  1  0
  1 34  1  0
  3 35  1  0
  4 36  1  0
  5 37  1  0
 11 38  1  0
 11 39  1  0
 13 40  1  0
 14 41  1  0
 16 42  1  0
 23 43  1  0
 28 44  1  0
M  CHG  4   6  -1  18  -1  25  -1  27  -1
M  END
>  <UniqueID>  (97) 
90

>  <SMILES>  (97) 
Cc1ccc[n-]c1=NC(=O)Cc1ccc(O)c([O-])c1C(=O)c1cc([O-])c([O-])cc1C#N

>  <Energy>  (97) 
74.02118859669541

>  <Genealogy>  (97) 
Cc1ccc[n-]c1=NC(=O)Cc1ccc(O)c([O-])c1C(=O)c1cc([O-])c([O-])cc1C#N (protonated)
Cc1ccc[n-]c1=NC(=O)Cc1ccc(O)c([O-])c1C(=O)c1cc([O-])c([O-])cc1C#N (3D coordinates assigned)
Cc1ccc[n-]c1=NC(=O)Cc1ccc(O)c([O-])c1C(=O)c1cc([O-])c([O-])cc1C#N (optimized conformer: 74.02118859669541 kcal/mol)

>  <smiles>  (97) 
Cc1ccc[nH]c1=NC(=O)Cc1ccc(O)c(O)c1C(=O)c1cc(O)c(O)cc1C#N

>  <score_type>  (97) 
oracle

>  <origin>  (97) 
adg

>  <m_score__min__energy>  (97) 
-17.010000000000002

>  <m_primary>  (97) 
energy

$$$$
97:0
     RDKit          3D

 33 35  0  0  1  0  0  0  0  0999 V2000
   59.0170   27.2160   44.1740 O   0  0  0  0  0  0  0  0  0  0  0  0
   58.4150   28.2950   44.3940 C   0  0  0  0  0  0  0  0  0  0  0  0
   57.0360   28.5760   44.1870 N   0  0  0  0  0  0  0  0  0  0  0  0
   56.7710   29.9160   44.5640 C   0  0  0  0  0  0  0  0  0  0  0  0
   55.6220   30.4690   44.4960 O   0  0  0  0  0  0  0  0  0  0  0  0
   57.9770   30.5390   45.0240 N   0  0  0  0  0  0  0  0  0  0  0  0
   58.0840   31.8800   45.4820 C   0  0  0  0  0  0  0  0  0  0  0  0
   57.8220   32.9780   44.6910 C   0  0  0  0  0  0  0  0  0  0  0  0
   57.9420   34.2720   45.1910 C   0  0  0  0  0  0  0  0  0  0  0  0
   58.3240   34.4430   46.4770 N   0  0  0  0  0  0  0  0  0  0  0  0
   58.5820   33.3760   47.2550 C   0  0  0  0  0  0  0  0  0  0  0  0
   58.9500   33.4670   48.4890 N   0  0  0  0  0  0  0  0  0  0  0  0
   60.0230   34.3840   48.8150 C   0  0  0  0  0  0  0  0  0  0  0  0
   61.3230   33.9450   48.2700 C   0  0  0  0  0  0  0  0  0  0  0  0
   61.5750   33.9550   46.8930 C   0  0  0  0  0  0  0  0  0  0  0  0
   62.7890   33.5450   46.3810 C   0  0  0  0  0  0  0  0  0  0  0  0
   63.7750   33.1120   47.2630 C   0  0  0  0  0  0  0  0  0  0  0  0
   63.5370   33.0970   48.6350 C   0  0  0  0  0  0  0  0  0  0  0  0
   64.7650   32.5570   49.7610 Cl  0  0  0  0  0  0  0  0  0  0  0  0
   62.3200   33.5100   49.1420 C   0  0  0  0  0  0  0  0  0  0  0  0
   58.4600   32.1320   46.7550 N   0  0  0  0  0  0  0  0  0  0  0  0
   58.9740   29.5540   44.9210 C   0  0  0  0  0  0  0  0  0  0  0  0
   60.1860   29.6600   45.2150 O   0  0  0  0  0  0  0  0  0  0  0  0
   56.2990   27.9080   43.8130 H   0  0  0  0  0  0  0  0  0  0  0  0
   57.5125   32.8293   43.6460 H   0  0  0  0  0  0  0  0  0  0  0  0
   57.7296   35.1408   44.5506 H   0  0  0  0  0  0  0  0  0  0  0  0
   58.4200   35.4050   46.8710 H   0  0  0  0  0  0  0  0  0  0  0  0
   59.7812   35.3731   48.3988 H   0  0  0  0  0  0  0  0  0  0  0  0
   60.1131   34.4191   49.9107 H   0  0  0  0  0  0  0  0  0  0  0  0
   60.7884   34.2970   46.2044 H   0  0  0  0  0  0  0  0  0  0  0  0
   62.9740   33.5600   45.2968 H   0  0  0  0  0  0  0  0  0  0  0  0
   64.7486   32.7795   46.8737 H   0  0  0  0  0  0  0  0  0  0  0  0
   62.1388   33.4957   50.2269 H   0  0  0  0  0  0  0  0  0  0  0  0
  1  2  2  0
  2  3  1  0
  3  4  1  0
  4  5  2  0
  4  6  1  0
  6  7  1  0
  7  8  1  0
  8  9  2  0
  9 10  1  0
 10 11  1  0
 11 12  2  0
 12 13  1  0
 13 14  1  0
 14 15  2  0
 15 16  1  0
 16 17  2  0
 17 18  1  0
 18 19  1  0
 18 20  2  0
 11 21  1  0
  6 22  1  0
 22 23  2  0
 22  2  1  0
 21  7  2  0
 20 14  1  0
  3 24  1  0
  8 25  1  0
  9 26  1  0
 10 27  1  0
 13 28  1  0
 13 29  1  0
 15 30  1  0
 16 31  1  0
 17 32  1  0
 20 33  1  0
M  END
>  <smiles>  (98) 
O=C1NC(=O)N(c2cc[nH]c(=NCc3cccc(Cl)c3)n2)C1=O

>  <score_type>  (98) 
oracle

>  <origin>  (98) 
adg

>  <m_score__min__energy>  (98) 
-8.0700000000000003

>  <m_primary>  (98) 
energy

$$$$
