0:0
     RDKit          3D

 59 62  0  0  0  0  0  0  0  0999 V2000
   58.1400   33.2270   45.1560 C   0  0  0  0  0  0  0  0  0  0  0  0
   57.0530   32.1940   44.8470 C   0  0  0  0  0  0  0  0  0  0  0  0
   57.5270   31.1060   43.8690 C   0  0  0  0  0  0  0  0  0  0  0  0
   56.6550   29.8470   43.8960 C   0  0  0  0  0  0  0  0  0  0  0  0
   56.4750   29.4090   45.2420 O   0  0  0  0  0  0  0  0  0  0  0  0
   57.4860   28.8700   46.0570 C   0  0  0  0  0  0  0  0  0  0  0  0
   58.4650   29.6950   46.6470 C   0  0  0  0  0  0  0  0  0  0  0  0
   59.4740   29.1490   47.4570 C   0  0  0  0  0  0  0  0  0  0  0  0
   60.4470   29.9510   48.0700 O   0  0  0  0  0  0  0  0  0  0  0  0
   60.5690   31.3380   47.8940 C   0  0  0  0  0  0  0  0  0  0  0  0
   61.6510   31.8900   47.1890 C   0  0  0  0  0  0  0  0  0  0  0  0
   61.7590   33.2780   47.0250 C   0  0  0  0  0  0  0  0  0  0  0  0
   62.9350   33.8610   46.2960 C   0  0  0  0  0  0  0  0  0  0  0  0
   60.8030   34.1180   47.6140 C   0  0  0  0  0  0  0  0  0  0  0  0
   59.7290   33.5750   48.3250 C   0  0  0  0  0  0  0  0  0  0  0  0
   59.5990   32.1820   48.4560 C   0  0  0  0  0  0  0  0  0  0  0  0
   58.5010   31.5920   49.1580 N   0  0  0  0  0  0  0  0  0  0  0  0
   58.5510   31.0300   50.7980 S   0  0  0  0  0  0  0  0  0  0  0  0
   57.4050   30.0920   51.0610 O   0  0  0  0  0  0  0  0  0  0  0  0
   58.4640   32.2110   51.7250 O   0  0  0  0  0  0  0  0  0  0  0  0
   60.0610   30.1560   51.0710 C   0  0  0  0  0  0  0  0  0  0  0  0
   60.0350   28.7700   51.3040 C   0  0  0  0  0  0  0  0  0  0  0  0
   61.2190   28.0670   51.5550 C   0  0  0  0  0  0  0  0  0  0  0  0
   62.4440   28.7380   51.5760 C   0  0  0  0  0  0  0  0  0  0  0  0
   62.4870   30.1180   51.3480 C   0  0  0  0  0  0  0  0  0  0  0  0
   63.6720   30.7830   51.3770 N   0  0  0  0  0  0  0  0  0  0  0  0
   63.7290   32.1240   51.1700 C   0  0  0  0  0  0  0  0  0  0  0  0
   62.5520   32.8350   50.9230 C   0  0  0  0  0  0  0  0  0  0  0  0
   61.3640   32.1770   50.8920 N   0  0  0  0  0  0  0  0  0  0  0  0
   61.2950   30.8330   51.0950 C   0  0  0  0  0  0  0  0  0  0  0  0
   59.4890   27.7770   47.7010 C   0  0  0  0  0  0  0  0  0  0  0  0
   58.5310   26.9450   47.1190 C   0  0  0  0  0  0  0  0  0  0  0  0
   57.5220   27.4730   46.2920 C   0  0  0  0  0  0  0  0  0  0  0  0
   56.5040   26.5570   45.7100 C   0  0  0  0  0  0  0  0  0  0  0  0
   56.8600   25.6190   44.9480 O   0  0  0  0  0  0  0  0  0  0  0  0
   55.1500   26.7060   45.9950 O   0  0  0  0  0  0  0  0  0  0  0  0
   58.2486   33.3302   46.2457 H   0  0  0  0  0  0  0  0  0  0  0  0
   59.0949   32.8954   44.7221 H   0  0  0  0  0  0  0  0  0  0  0  0
   57.8575   34.1975   44.7221 H   0  0  0  0  0  0  0  0  0  0  0  0
   56.7479   31.7125   45.7878 H   0  0  0  0  0  0  0  0  0  0  0  0
   56.2158   32.7257   44.3712 H   0  0  0  0  0  0  0  0  0  0  0  0
   57.5104   31.5207   42.8503 H   0  0  0  0  0  0  0  0  0  0  0  0
   58.5398   30.8081   44.1782 H   0  0  0  0  0  0  0  0  0  0  0  0
   55.6744   30.0731   43.4519 H   0  0  0  0  0  0  0  0  0  0  0  0
   57.1500   29.0515   43.3197 H   0  0  0  0  0  0  0  0  0  0  0  0
   58.4383   30.7804   46.4707 H   0  0  0  0  0  0  0  0  0  0  0  0
   62.4193   31.2284   46.7624 H   0  0  0  0  0  0  0  0  0  0  0  0
   63.6733   34.2270   47.0246 H   0  0  0  0  0  0  0  0  0  0  0  0
   63.3955   33.0869   45.6646 H   0  0  0  0  0  0  0  0  0  0  0  0
   62.5977   34.6962   45.6646 H   0  0  0  0  0  0  0  0  0  0  0  0
   60.8987   35.2094   47.5160 H   0  0  0  0  0  0  0  0  0  0  0  0
   58.9829   34.2406   48.7836 H   0  0  0  0  0  0  0  0  0  0  0  0
   59.0752   28.2329   51.2889 H   0  0  0  0  0  0  0  0  0  0  0  0
   61.1848   26.9826   51.7363 H   0  0  0  0  0  0  0  0  0  0  0  0
   63.3732   28.1826   51.7714 H   0  0  0  0  0  0  0  0  0  0  0  0
   64.6962   32.6473   51.1967 H   0  0  0  0  0  0  0  0  0  0  0  0
   62.5871   33.9215   50.7546 H   0  0  0  0  0  0  0  0  0  0  0  0
   60.2607   27.3469   48.3564 H   0  0  0  0  0  0  0  0  0  0  0  0
   58.5652   25.8621   47.3093 H   0  0  0  0  0  0  0  0  0  0  0  0
  1  2  1  0
  2  3  1  0
  3  4  1  0
  4  5  1  0
  5  6  1  0
  6  7  2  0
  7  8  1  0
  8  9  1  0
  9 10  1  0
 10 11  2  0
 11 12  1  0
 12 13  1  0
 12 14  2  0
 14 15  1  0
 15 16  2  0
 16 17  1  0
 17 18  1  0
 18 19  2  0
 18 20  2  0
 18 21  1  0
 21 22  2  0
 22 23  1  0
 23 24  2  0
 24 25  1  0
 25 26  2  0
 26 27  1  0
 27 28  2  0
 28 29  1  0
 29 30  2  0
  8 31  2  0
 31 32  1  0
 32 33  2  0
 33 34  1  0
 34 35  2  0
 34 36  1  0
 33  6  1  0
 16 10  1  0
 30 21  1  0
 30 25  1  0
  1 37  1  0
  1 38  1  0
  1 39  1  0
  2 40  1  0
  2 41  1  0
  3 42  1  0
  3 43  1  0
  4 44  1  0
  4 45  1  0
  7 46  1  0
 11 47  1  0
 13 48  1  0
 13 49  1  0
 13 50  1  0
 14 51  1  0
 15 52  1  0
 22 53  1  0
 23 54  1  0
 24 55  1  0
 27 56  1  0
 28 57  1  0
 31 58  1  0
 32 59  1  0
M  CHG  2  17  -1  36  -1
M  END
>  <UniqueID>  (1) 
1

>  <SMILES>  (1) 
CCCCOc1cc(Oc2cc(C)ccc2[N-]S(=O)(=O)c2cccc3nccnc23)ccc1C(=O)[O-]

>  <Energy>  (1) 
75.90605913401066

>  <Genealogy>  (1) 
CCCCOc1cc(Oc2cc(C)ccc2[N-]S(=O)(=O)c2cccc3nccnc23)ccc1C(=O)[O-] (protonated)
CCCCOc1cc(Oc2cc(C)ccc2[N-]S(=O)(=O)c2cccc3nccnc23)ccc1C(=O)[O-] (3D coordinates assigned)
CCCCOc1cc(Oc2cc(C)ccc2[N-]S(=O)(=O)c2cccc3nccnc23)ccc1C(=O)[O-] (optimized conformer: 75.90605913401066 kcal/mol)

>  <smiles>  (1) 
CCCCOc1cc(Oc2cc(C)ccc2NS(=O)(=O)c2cccc3nccnc23)ccc1C(=O)O

>  <score_type>  (1) 
oracle

>  <origin>  (1) 
adg

>  <m_score__min__energy>  (1) 
-13.42

>  <m_primary>  (1) 
energy

$$$$
1:0
     RDKit          3D

 37 38  0  0  0  0  0  0  0  0999 V2000
   55.1470   29.3470   45.2110 O   0  0  0  0  0  0  0  0  0  0  0  0
   56.2860   29.5250   44.7040 C   0  0  0  0  0  0  0  0  0  0  0  0
   57.0540   28.3310   44.1990 C   0  0  0  0  0  0  0  0  0  0  0  0
   57.4620   27.4410   45.3470 C   0  0  0  0  0  0  0  0  0  0  0  0
   58.8160   27.3440   45.7100 C   0  0  0  0  0  0  0  0  0  0  0  0
   59.2090   26.5020   46.7540 C   0  0  0  0  0  0  0  0  0  0  0  0
   58.2570   25.7440   47.4390 C   0  0  0  0  0  0  0  0  0  0  0  0
   56.9100   25.8230   47.0790 C   0  0  0  0  0  0  0  0  0  0  0  0
   56.5080   26.6630   46.0340 C   0  0  0  0  0  0  0  0  0  0  0  0
   55.1630   26.7180   45.6850 O   0  0  0  0  0  0  0  0  0  0  0  0
   56.7910   30.8620   44.6040 N   0  0  0  0  0  0  0  0  0  0  0  0
   57.9990   31.2530   43.8870 C   0  0  0  0  0  0  0  0  0  0  0  0
   58.1210   32.7800   43.8370 C   0  0  0  0  0  0  0  0  0  0  0  0
   57.3680   33.4900   44.9740 C   0  0  0  0  0  0  0  0  0  0  0  0
   58.2420   33.7120   46.1810 C   0  0  0  0  0  0  0  0  0  0  0  0
   59.2350   34.7070   46.1690 C   0  0  0  0  0  0  0  0  0  0  0  0
   60.0620   34.8900   47.2810 C   0  0  0  0  0  0  0  0  0  0  0  0
   59.9070   34.0820   48.4110 C   0  0  0  0  0  0  0  0  0  0  0  0
   58.9260   33.0860   48.4280 C   0  0  0  0  0  0  0  0  0  0  0  0
   58.0970   32.8990   47.3180 C   0  0  0  0  0  0  0  0  0  0  0  0
   56.4196   27.7594   43.5056 H   0  0  0  0  0  0  0  0  0  0  0  0
   57.9592   28.6828   43.6825 H   0  0  0  0  0  0  0  0  0  0  0  0
   59.5708   27.9340   45.1695 H   0  0  0  0  0  0  0  0  0  0  0  0
   60.2700   26.4363   47.0366 H   0  0  0  0  0  0  0  0  0  0  0  0
   58.5682   25.0844   48.2625 H   0  0  0  0  0  0  0  0  0  0  0  0
   56.1624   25.2230   47.6185 H   0  0  0  0  0  0  0  0  0  0  0  0
   58.8770   30.8361   44.4021 H   0  0  0  0  0  0  0  0  0  0  0  0
   57.9443   30.8659   42.8588 H   0  0  0  0  0  0  0  0  0  0  0  0
   59.1860   33.0471   43.9039 H   0  0  0  0  0  0  0  0  0  0  0  0
   57.6680   33.1113   42.8909 H   0  0  0  0  0  0  0  0  0  0  0  0
   57.0126   34.4650   44.6093 H   0  0  0  0  0  0  0  0  0  0  0  0
   56.5286   32.8471   45.2774 H   0  0  0  0  0  0  0  0  0  0  0  0
   59.3617   35.3440   45.2812 H   0  0  0  0  0  0  0  0  0  0  0  0
   60.8362   35.6713   47.2668 H   0  0  0  0  0  0  0  0  0  0  0  0
   60.5565   34.2297   49.2864 H   0  0  0  0  0  0  0  0  0  0  0  0
   58.8063   32.4484   49.3163 H   0  0  0  0  0  0  0  0  0  0  0  0
   57.3282   32.1124   47.3347 H   0  0  0  0  0  0  0  0  0  0  0  0
  1  2  2  0
  2  3  1  0
  3  4  1  0
  4  5  2  0
  5  6  1  0
  6  7  2  0
  7  8  1  0
  8  9  2  0
  9 10  1  0
  2 11  1  0
 11 12  1  0
 12 13  1  0
 13 14  1  0
 14 15  1  0
 15 16  2  0
 16 17  1  0
 17 18  2  0
 18 19  1  0
 19 20  2  0
  9  4  1  0
 20 15  1  0
  3 21  1  0
  3 22  1  0
  5 23  1  0
  6 24  1  0
  7 25  1  0
  8 26  1  0
 12 27  1  0
 12 28  1  0
 13 29  1  0
 13 30  1  0
 14 31  1  0
 14 32  1  0
 16 33  1  0
 17 34  1  0
 18 35  1  0
 19 36  1  0
 20 37  1  0
M  CHG  2  10  -1  11  -1
M  END
>  <UniqueID>  (2) 
2

>  <SMILES>  (2) 
O=C(Cc1ccccc1[O-])[N-]CCCc1ccccc1

>  <Energy>  (2) 
31.14827487221922

>  <Genealogy>  (2) 
O=C(Cc1ccccc1[O-])[N-]CCCc1ccccc1 (protonated)
O=C(Cc1ccccc1[O-])[N-]CCCc1ccccc1 (3D coordinates assigned)
O=C(Cc1ccccc1[O-])[N-]CCCc1ccccc1 (optimized conformer: 31.14827487221922 kcal/mol)

>  <smiles>  (2) 
O=C(Cc1ccccc1O)NCCCc1ccccc1

>  <score_type>  (2) 
oracle

>  <origin>  (2) 
adg

>  <m_score__min__energy>  (2) 
-12.81

>  <m_primary>  (2) 
energy

$$$$
2:0
     RDKit          3D

 35 37  0  0  0  0  0  0  0  0999 V2000
   58.8850   33.9961   48.3131 H   0  0  0  0  0  0  0  0  0  0  0  0
   58.6470   33.8840   47.2450 C   0  0  0  0  0  0  0  0  0  0  0  0
   57.7900   32.9100   46.8380 N   0  0  0  0  0  0  0  0  0  0  0  0
   57.4680   32.7330   45.5240 C   0  0  0  0  0  0  0  0  0  0  0  0
   56.6430   31.7980   45.1480 N   0  0  0  0  0  0  0  0  0  0  0  0
   56.9340   30.6850   44.2880 C   0  0  0  0  0  0  0  0  0  0  0  0
   57.7760   30.7790   43.3540 O   0  0  0  0  0  0  0  0  0  0  0  0
   56.2550   29.3730   44.5350 C   0  0  0  0  0  0  0  0  0  0  0  0
   55.2801   29.5586   45.0096 H   0  0  0  0  0  0  0  0  0  0  0  0
   56.1288   28.8620   43.5691 H   0  0  0  0  0  0  0  0  0  0  0  0
   57.0910   28.4730   45.4500 C   0  0  0  0  0  0  0  0  0  0  0  0
   58.0594   28.9574   45.6439 H   0  0  0  0  0  0  0  0  0  0  0  0
   56.5408   28.3215   46.3904 H   0  0  0  0  0  0  0  0  0  0  0  0
   57.3250   27.1640   44.8290 N   0  0  0  0  0  0  0  0  0  0  0  0
   56.8140   25.8640   45.8650 S   0  0  0  0  0  0  0  0  0  0  0  0
   55.3140   25.8610   45.9780 O   0  0  0  0  0  0  0  0  0  0  0  0
   57.3890   26.0790   47.2360 O   0  0  0  0  0  0  0  0  0  0  0  0
   57.3850   24.3180   45.2450 C   0  0  0  0  0  0  0  0  0  0  0  0
   58.6250   23.7880   45.6640 C   0  0  0  0  0  0  0  0  0  0  0  0
   59.2273   24.3313   46.4070 H   0  0  0  0  0  0  0  0  0  0  0  0
   59.0990   22.5640   45.1360 C   0  0  0  0  0  0  0  0  0  0  0  0
   60.0649   22.1613   45.4748 H   0  0  0  0  0  0  0  0  0  0  0  0
   58.3440   21.8570   44.1800 C   0  0  0  0  0  0  0  0  0  0  0  0
   58.6991   20.9044   43.7600 H   0  0  0  0  0  0  0  0  0  0  0  0
   57.1300   22.4140   43.7890 C   0  0  0  0  0  0  0  0  0  0  0  0
   56.2440   21.9570   42.8940 N   0  0  0  0  0  0  0  0  0  0  0  0
   55.2930   22.8570   42.8900 O   0  0  0  0  0  0  0  0  0  0  0  0
   55.4940   23.8610   43.7100 N   0  0  0  0  0  0  0  0  0  0  0  0
   56.6710   23.5850   44.2940 C   0  0  0  0  0  0  0  0  0  0  0  0
   58.0310   33.5780   44.5580 C   0  0  0  0  0  0  0  0  0  0  0  0
   57.7802   33.4491   43.4948 H   0  0  0  0  0  0  0  0  0  0  0  0
   58.9130   34.5850   44.9560 C   0  0  0  0  0  0  0  0  0  0  0  0
   59.3610   35.2532   44.2058 H   0  0  0  0  0  0  0  0  0  0  0  0
   59.2250   34.7420   46.3070 C   0  0  0  0  0  0  0  0  0  0  0  0
   59.9184   35.5327   46.6295 H   0  0  0  0  0  0  0  0  0  0  0  0
  1  2  1  0
  2  3  1  0
  3  4  1  0
  4  5  2  0
  5  6  1  0
  6  7  2  0
  6  8  1  0
  8  9  1  0
  8 10  1  0
  8 11  1  0
 11 12  1  0
 11 13  1  0
 11 14  1  0
 14 15  1  0
 15 16  2  0
 15 17  2  0
 15 18  1  0
 18 19  2  0
 19 20  1  0
 19 21  1  0
 21 22  1  0
 21 23  2  0
 23 24  1  0
 23 25  1  0
 25 26  2  0
 26 27  1  0
 27 28  1  0
 28 29  2  0
  4 30  1  0
 30 31  1  0
 30 32  2  0
 32 33  1  0
 32 34  1  0
 34 35  1  0
 34  2  2  0
 29 18  1  0
 29 25  1  0
M  CHG  2   3  -1  14  -1
M  END
>  <UniqueID>  (3) 
3

>  <SMILES>  (3) 
O=C(CC[N-]S(=O)(=O)c1cccc2nonc12)/N=c1/cccc[n-]1

>  <Energy>  (3) 
80.28408445657362

>  <Genealogy>  (3) 
O=C(CC[N-]S(=O)(=O)c1cccc2nonc12)N=c1cccc[n-]1 (protonated)
O=C(CC[N-]S(=O)(=O)c1cccc2nonc12)/N=c1/cccc[n-]1 (cis-trans isomerization)
O=C(CC[N-]S(=O)(=O)c1cccc2nonc12)/N=c1/cccc[n-]1 (3D coordinates assigned)
O=C(CC[N-]S(=O)(=O)c1cccc2nonc12)/N=c1/cccc[n-]1 (optimized conformer: 80.28408445657362 kcal/mol)

>  <smiles>  (3) 
O=C(CCNS(=O)(=O)c1cccc2nonc12)N=c1cccc[nH]1

>  <score_type>  (3) 
oracle

>  <origin>  (3) 
adg

>  <m_score__min__energy>  (3) 
-12.42

>  <m_primary>  (3) 
energy

$$$$
3:0
     RDKit          3D

 38 40  0  0  0  0  0  0  0  0999 V2000
   57.7940   31.9510   43.0090 N   0  0  0  0  0  0  0  0  0  0  0  0
   57.8270   31.0600   43.7470 C   0  0  0  0  0  0  0  0  0  0  0  0
   57.8660   29.9500   44.6660 C   0  0  0  0  0  0  0  0  0  0  0  0
   58.1630   30.0930   46.0180 C   0  0  0  0  0  0  0  0  0  0  0  0
   58.3710   31.3440   46.6930 N   0  0  0  0  0  0  0  0  0  0  0  0
   59.6610   31.9520   46.8710 C   0  0  0  0  0  0  0  0  0  0  0  0
   59.8510   33.3320   46.6840 C   0  0  0  0  0  0  0  0  0  0  0  0
   61.1090   33.9050   46.8890 C   0  0  0  0  0  0  0  0  0  0  0  0
   62.1850   33.1100   47.2980 C   0  0  0  0  0  0  0  0  0  0  0  0
   63.7620   33.8310   47.5570 Cl  0  0  0  0  0  0  0  0  0  0  0  0
   61.9970   31.7400   47.5110 C   0  0  0  0  0  0  0  0  0  0  0  0
   60.7390   31.1650   47.3060 C   0  0  0  0  0  0  0  0  0  0  0  0
   58.0960   28.5800   46.7490 S   0  0  0  0  0  0  0  0  0  0  0  0
   57.7240   27.7060   45.3560 C   0  0  0  0  0  0  0  0  0  0  0  0
   57.4740   26.2490   45.3460 C   0  0  0  0  0  0  0  0  0  0  0  0
   57.3940   25.6140   46.4310 O   0  0  0  0  0  0  0  0  0  0  0  0
   57.3140   25.5570   44.0960 N   0  0  0  0  0  0  0  0  0  0  0  0
   57.3810   24.1270   43.9560 C   0  0  0  0  0  0  0  0  0  0  0  0
   56.5490   23.4370   43.0550 C   0  0  0  0  0  0  0  0  0  0  0  0
   56.6180   22.0440   42.9580 C   0  0  0  0  0  0  0  0  0  0  0  0
   57.5040   21.3270   43.7660 C   0  0  0  0  0  0  0  0  0  0  0  0
   58.3180   22.0030   44.6790 C   0  0  0  0  0  0  0  0  0  0  0  0
   58.2510   23.3960   44.7800 C   0  0  0  0  0  0  0  0  0  0  0  0
   57.6330   28.6120   44.2860 C   0  0  0  0  0  0  0  0  0  0  0  0
   57.3750   28.2310   42.9280 N   0  0  0  0  0  0  0  0  0  0  0  0
   57.5480   31.7970   47.1510 H   0  0  0  0  0  0  0  0  0  0  0  0
   59.0055   33.9640   46.3748 H   0  0  0  0  0  0  0  0  0  0  0  0
   61.2535   34.9836   46.7284 H   0  0  0  0  0  0  0  0  0  0  0  0
   62.8399   31.1145   47.8401 H   0  0  0  0  0  0  0  0  0  0  0  0
   60.5932   30.0898   47.4866 H   0  0  0  0  0  0  0  0  0  0  0  0
   57.0390   26.1170   43.2580 H   0  0  0  0  0  0  0  0  0  0  0  0
   55.8416   23.9958   42.4246 H   0  0  0  0  0  0  0  0  0  0  0  0
   55.9731   21.5112   42.2437 H   0  0  0  0  0  0  0  0  0  0  0  0
   57.5608   20.2316   43.6836 H   0  0  0  0  0  0  0  0  0  0  0  0
   59.0122   21.4386   45.3189 H   0  0  0  0  0  0  0  0  0  0  0  0
   58.8840   23.9222   45.5097 H   0  0  0  0  0  0  0  0  0  0  0  0
   56.7270   27.4430   42.7100 H   0  0  0  0  0  0  0  0  0  0  0  0
   57.7520   28.7720   42.1210 H   0  0  0  0  0  0  0  0  0  0  0  0
  1  2  3  0
  2  3  1  0
  3  4  2  0
  4  5  1  0
  5  6  1  0
  6  7  2  0
  7  8  1  0
  8  9  2  0
  9 10  1  0
  9 11  1  0
 11 12  2  0
  4 13  1  0
 13 14  1  0
 14 15  1  0
 15 16  2  0
 15 17  1  0
 17 18  1  0
 18 19  2  0
 19 20  1  0
 20 21  2  0
 21 22  1  0
 22 23  2  0
 14 24  2  0
 24 25  1  0
 24  3  1  0
 12  6  1  0
 23 18  1  0
  5 26  1  0
  7 27  1  0
  8 28  1  0
 11 29  1  0
 12 30  1  0
 17 31  1  0
 19 32  1  0
 20 33  1  0
 21 34  1  0
 22 35  1  0
 23 36  1  0
 25 37  1  0
 25 38  1  0
M  END
>  <UniqueID>  (4) 
4

>  <SMILES>  (4) 
N#Cc1c(Nc2ccc(Cl)cc2)sc(C(=O)Nc2ccccc2)c1N

>  <Energy>  (4) 
76.8864005382426

>  <Genealogy>  (4) 
N#Cc1c(Nc2ccc(Cl)cc2)sc(C(=O)Nc2ccccc2)c1N (3D coordinates assigned)
N#Cc1c(Nc2ccc(Cl)cc2)sc(C(=O)Nc2ccccc2)c1N (optimized conformer: 76.8864005382426 kcal/mol)

>  <smiles>  (4) 
N#Cc1c(Nc2ccc(Cl)cc2)sc(C(=O)Nc2ccccc2)c1N

>  <score_type>  (4) 
oracle

>  <origin>  (4) 
adg

>  <m_score__min__energy>  (4) 
-7.9100000000000001

>  <m_primary>  (4) 
energy

$$$$
4:0
     RDKit          3D

 50 55  0  0  0  0  0  0  0  0999 V2000
   51.7105   31.5011   53.9834 H   0  0  0  0  0  0  0  0  0  0  0  0
   52.1860   30.9320   53.1710 C   0  0  0  0  0  0  0  0  0  0  0  0
   51.7010   31.1500   51.7980 C   0  0  0  0  0  0  0  0  0  0  0  0
   51.9300   30.2890   50.7910 N   0  0  0  0  0  0  0  0  0  0  0  0
   51.3900   30.9070   49.7180 C   0  0  0  0  0  0  0  0  0  0  0  0
   51.3960   30.3970   48.5680 O   0  0  0  0  0  0  0  0  0  0  0  0
   50.8540   32.1190   49.9730 N   0  0  0  0  0  0  0  0  0  0  0  0
   51.0690   32.2650   51.2910 C   0  0  0  0  0  0  0  0  0  0  0  0
   50.7400   33.4140   51.9990 O   0  0  0  0  0  0  0  0  0  0  0  0
   53.1720   30.0820   53.4910 C   0  0  0  0  0  0  0  0  0  0  0  0
   53.1460   28.9780   54.3370 C   0  0  0  0  0  0  0  0  0  0  0  0
   52.2742   28.6461   54.9200 H   0  0  0  0  0  0  0  0  0  0  0  0
   54.3570   28.3750   54.3330 N   0  0  0  0  0  0  0  0  0  0  0  0
   55.1480   29.0520   53.5170 N   0  0  0  0  0  0  0  0  0  0  0  0
   56.4590   28.8410   53.1730 C   0  0  0  0  0  0  0  0  0  0  0  0
   57.2290   27.8800   53.6250 N   0  0  0  0  0  0  0  0  0  0  0  0
   58.6370   27.5630   53.9420 C   0  0  0  0  0  0  0  0  0  0  0  0
   58.3887   26.5499   54.2914 H   0  0  0  0  0  0  0  0  0  0  0  0
   59.5050   28.6830   54.4690 C   0  0  0  0  0  0  0  0  0  0  0  0
   59.0788   29.6852   54.6238 H   0  0  0  0  0  0  0  0  0  0  0  0
   60.1499   28.8240   55.3489 H   0  0  0  0  0  0  0  0  0  0  0  0
   59.7050   28.1410   53.0420 C   0  0  0  0  0  0  0  0  0  0  0  0
   59.4222   28.7548   52.1741 H   0  0  0  0  0  0  0  0  0  0  0  0
   60.5530   27.7318   52.4733 H   0  0  0  0  0  0  0  0  0  0  0  0
   57.0140   29.7100   52.2830 N   0  0  0  0  0  0  0  0  0  0  0  0
   56.3020   30.7450   51.7450 C   0  0  0  0  0  0  0  0  0  0  0  0
   56.8960   31.6400   50.8470 O   0  0  0  0  0  0  0  0  0  0  0  0
   58.0880   32.3440   51.0740 C   0  0  0  0  0  0  0  0  0  0  0  0
   58.5450   32.6440   52.3700 C   0  0  0  0  0  0  0  0  0  0  0  0
   57.9630   32.3210   53.2458 H   0  0  0  0  0  0  0  0  0  0  0  0
   59.7360   33.3510   52.5470 C   0  0  0  0  0  0  0  0  0  0  0  0
   60.0808   33.5985   53.5618 H   0  0  0  0  0  0  0  0  0  0  0  0
   60.4910   33.7450   51.4400 C   0  0  0  0  0  0  0  0  0  0  0  0
   61.4190   34.3173   51.5859 H   0  0  0  0  0  0  0  0  0  0  0  0
   60.0710   33.4140   50.1420 C   0  0  0  0  0  0  0  0  0  0  0  0
   60.8790   33.8380   48.9780 C   0  0  0  0  0  0  0  0  0  0  0  0
   61.9880   34.4020   49.1750 O   0  0  0  0  0  0  0  0  0  0  0  0
   60.4600   33.6040   47.6280 N   0  0  0  0  0  0  0  0  0  0  0  0
   59.3260   34.2620   46.9920 C   0  0  0  0  0  0  0  0  0  0  0  0
   58.6125   34.1694   47.8241 H   0  0  0  0  0  0  0  0  0  0  0  0
   59.7130   35.3800   46.0420 C   0  0  0  0  0  0  0  0  0  0  0  0
   59.0543   36.2528   45.9223 H   0  0  0  0  0  0  0  0  0  0  0  0
   60.5936   36.0280   45.9207 H   0  0  0  0  0  0  0  0  0  0  0  0
   59.2900   34.0280   45.4930 C   0  0  0  0  0  0  0  0  0  0  0  0
   58.3250   33.9217   44.9758 H   0  0  0  0  0  0  0  0  0  0  0  0
   59.7372   33.2912   44.8095 H   0  0  0  0  0  0  0  0  0  0  0  0
   58.8610   32.7220   49.9690 C   0  0  0  0  0  0  0  0  0  0  0  0
   58.5166   32.4741   48.9541 H   0  0  0  0  0  0  0  0  0  0  0  0
   55.0080   30.9370   52.1090 N   0  0  0  0  0  0  0  0  0  0  0  0
   54.4550   30.0750   52.9950 C   0  0  0  0  0  0  0  0  0  0  0  0
  1  2  1  0
  2  3  1  0
  3  4  1  0
  4  5  1  0
  5  6  2  0
  5  7  1  0
  7  8  1  0
  8  9  1  0
  2 10  2  0
 10 11  1  0
 11 12  1  0
 11 13  2  0
 13 14  1  0
 14 15  1  0
 15 16  2  3
 16 17  1  0
 17 18  1  0
 17 19  1  0
 19 20  1  0
 19 21  1  0
 19 22  1  0
 22 23  1  0
 22 24  1  0
 15 25  1  0
 25 26  2  0
 26 27  1  0
 27 28  1  0
 28 29  2  0
 29 30  1  0
 29 31  1  0
 31 32  1  0
 31 33  2  0
 33 34  1  0
 33 35  1  0
 35 36  1  0
 36 37  2  0
 36 38  1  0
 38 39  1  0
 39 40  1  0
 39 41  1  0
 41 42  1  0
 41 43  1  0
 41 44  1  0
 44 45  1  0
 44 46  1  0
 35 47  2  0
 47 48  1  0
 26 49  1  0
 49 50  2  0
  8  3  2  0
 50 10  1  0
 50 14  1  0
 22 17  1  0
 47 28  1  0
 44 39  1  0
M  CHG  4   4  -1   7  -1   9  -1  38  -1
M  END
>  <UniqueID>  (5) 
5

>  <SMILES>  (5) 
O=C([N-]C1CC1)c1cccc(Oc2nc(=NC3CC3)n3nc/c(=C\c4[n-]c(=O)[n-]c4[O-])c3n2)c1

>  <Energy>  (5) 
693.7394335303243

>  <Genealogy>  (5) 
O=C([N-]C1CC1)c1cccc(Oc2nc(=NC3CC3)n3ncc(=Cc4[n-]c(=O)[n-]c4[O-])c3n2)c1 (protonated)
O=C([N-]C1CC1)c1cccc(Oc2nc(=NC3CC3)n3nc/c(=C\c4[n-]c(=O)[n-]c4[O-])c3n2)c1 (cis-trans isomerization)
O=C([N-]C1CC1)c1cccc(Oc2nc(=NC3CC3)n3nc/c(=C\c4[n-]c(=O)[n-]c4[O-])c3n2)c1 (3D coordinates assigned)
O=C([N-]C1CC1)c1cccc(Oc2nc(=NC3CC3)n3nc/c(=C\c4[n-]c(=O)[n-]c4[O-])c3n2)c1 (nonaromatic ring conformer: 693.7394335303243 kcal/mol)

>  <smiles>  (5) 
O=C(NC1CC1)c1cccc(Oc2nc(=NC3CC3)n3ncc(=Cc4[nH]c(=O)[nH]c4O)c3n2)c1

>  <score_type>  (5) 
oracle

>  <origin>  (5) 
adg

>  <m_score__min__energy>  (5) 
-18.899999999999999

>  <m_primary>  (5) 
energy

$$$$
5:0
     RDKit          3D

 58 60  0  0  0  0  0  0  0  0999 V2000
   63.3860   34.1780   46.2800 C   0  0  0  0  0  0  0  0  0  0  0  0
   62.5790   33.2500   47.1860 C   0  0  0  0  0  0  0  0  0  0  0  0
   63.1180   33.2590   48.6020 C   0  0  0  0  0  0  0  0  0  0  0  0
   64.4920   33.0180   48.7610 C   0  0  0  0  0  0  0  0  0  0  0  0
   65.0830   33.0070   50.0250 C   0  0  0  0  0  0  0  0  0  0  0  0
   66.5460   32.7100   50.1720 C   0  0  0  0  0  0  0  0  0  0  0  0
   64.2880   33.1930   51.1560 C   0  0  0  0  0  0  0  0  0  0  0  0
   62.9110   33.4420   51.0410 C   0  0  0  0  0  0  0  0  0  0  0  0
   62.1150   33.6100   52.3150 C   0  0  0  0  0  0  0  0  0  0  0  0
   62.3070   33.5030   49.7500 C   0  0  0  0  0  0  0  0  0  0  0  0
   60.8150   33.8000   49.6060 C   0  0  0  0  0  0  0  0  0  0  0  0
   59.9670   32.6820   50.0700 N   0  0  0  0  0  0  0  0  0  0  0  0
   58.9510   32.9460   50.9430 C   0  0  0  0  0  0  0  0  0  0  0  0
   58.0950   31.9390   51.3590 C   0  0  0  0  0  0  0  0  0  0  0  0
   58.2680   30.6580   50.8530 C   0  0  0  0  0  0  0  0  0  0  0  0
   57.4760   29.7450   51.2180 O   0  0  0  0  0  0  0  0  0  0  0  0
   59.2770   30.3960   49.9620 N   0  0  0  0  0  0  0  0  0  0  0  0
   59.4100   29.0440   49.3850 C   0  0  0  0  0  0  0  0  0  0  0  0
   58.8890   29.0310   47.9780 C   0  0  0  0  0  0  0  0  0  0  0  0
   58.1470   28.0850   47.5990 O   0  0  0  0  0  0  0  0  0  0  0  0
   59.2570   30.0810   47.0700 N   0  0  0  0  0  0  0  0  0  0  0  0
   58.5200   30.4160   45.8780 C   0  0  0  0  0  0  0  0  0  0  0  0
   58.1400   29.4150   44.9620 C   0  0  0  0  0  0  0  0  0  0  0  0
   57.4040   29.7390   43.8210 C   0  0  0  0  0  0  0  0  0  0  0  0
   57.0270   31.0610   43.5820 C   0  0  0  0  0  0  0  0  0  0  0  0
   57.3740   32.0610   44.4910 C   0  0  0  0  0  0  0  0  0  0  0  0
   58.1070   31.7480   45.6440 C   0  0  0  0  0  0  0  0  0  0  0  0
   58.5270   33.0790   46.7810 S   0  0  0  0  0  0  0  0  0  0  0  0
   59.3050   34.1020   45.4920 C   0  0  0  0  0  0  0  0  0  0  0  0
   60.1140   31.4120   49.5610 C   0  0  0  0  0  0  0  0  0  0  0  0
   61.0230   31.1780   48.7180 O   0  0  0  0  0  0  0  0  0  0  0  0
   63.9834   34.8649   46.8975 H   0  0  0  0  0  0  0  0  0  0  0  0
   64.0556   33.5793   45.6450 H   0  0  0  0  0  0  0  0  0  0  0  0
   62.7002   34.7580   45.6450 H   0  0  0  0  0  0  0  0  0  0  0  0
   61.5311   33.5841   47.1992 H   0  0  0  0  0  0  0  0  0  0  0  0
   62.6556   32.2261   46.7914 H   0  0  0  0  0  0  0  0  0  0  0  0
   65.1142   32.8344   47.8726 H   0  0  0  0  0  0  0  0  0  0  0  0
   66.8040   32.6576   51.2400 H   0  0  0  0  0  0  0  0  0  0  0  0
   66.7747   31.7471   49.6919 H   0  0  0  0  0  0  0  0  0  0  0  0
   67.1321   33.5075   49.6919 H   0  0  0  0  0  0  0  0  0  0  0  0
   64.7474   33.1438   52.1543 H   0  0  0  0  0  0  0  0  0  0  0  0
   62.7772   33.4702   53.1822 H   0  0  0  0  0  0  0  0  0  0  0  0
   61.6798   34.6198   52.3450 H   0  0  0  0  0  0  0  0  0  0  0  0
   61.3088   32.8622   52.3450 H   0  0  0  0  0  0  0  0  0  0  0  0
   60.5747   34.6946   50.1993 H   0  0  0  0  0  0  0  0  0  0  0  0
   60.6072   33.9552   48.5370 H   0  0  0  0  0  0  0  0  0  0  0  0
   58.8104   33.9696   51.3203 H   0  0  0  0  0  0  0  0  0  0  0  0
   57.2909   32.1513   52.0790 H   0  0  0  0  0  0  0  0  0  0  0  0
   60.4705   28.7518   49.3831 H   0  0  0  0  0  0  0  0  0  0  0  0
   58.8277   28.3346   49.9914 H   0  0  0  0  0  0  0  0  0  0  0  0
   60.1150   30.6250   47.2980 H   0  0  0  0  0  0  0  0  0  0  0  0
   58.4258   28.3691   45.1477 H   0  0  0  0  0  0  0  0  0  0  0  0
   57.1206   28.9502   43.1086 H   0  0  0  0  0  0  0  0  0  0  0  0
   56.4561   31.3149   42.6767 H   0  0  0  0  0  0  0  0  0  0  0  0
   57.0705   33.1012   44.3017 H   0  0  0  0  0  0  0  0  0  0  0  0
   59.9063   34.8926   45.9646 H   0  0  0  0  0  0  0  0  0  0  0  0
   59.9543   33.4721   44.8662 H   0  0  0  0  0  0  0  0  0  0  0  0
   58.5245   34.5595   44.8662 H   0  0  0  0  0  0  0  0  0  0  0  0
  1  2  1  0
  2  3  1  0
  3  4  2  0
  4  5  1  0
  5  6  1  0
  5  7  2  0
  7  8  1  0
  8  9  1  0
  8 10  2  0
 10 11  1  0
 11 12  1  0
 12 13  1  0
 13 14  2  0
 14 15  1  0
 15 16  2  0
 15 17  1  0
 17 18  1  0
 18 19  1  0
 19 20  2  0
 19 21  1  0
 21 22  1  0
 22 23  2  0
 23 24  1  0
 24 25  2  0
 25 26  1  0
 26 27  2  0
 27 28  1  0
 28 29  1  0
 17 30  1  0
 30 31  2  0
 10  3  1  0
 30 12  1  0
 27 22  1  0
  1 32  1  0
  1 33  1  0
  1 34  1  0
  2 35  1  0
  2 36  1  0
  4 37  1  0
  6 38  1  0
  6 39  1  0
  6 40  1  0
  7 41  1  0
  9 42  1  0
  9 43  1  0
  9 44  1  0
 11 45  1  0
 11 46  1  0
 13 47  1  0
 14 48  1  0
 18 49  1  0
 18 50  1  0
 21 51  1  0
 23 52  1  0
 24 53  1  0
 25 54  1  0
 26 55  1  0
 29 56  1  0
 29 57  1  0
 29 58  1  0
M  END
>  <UniqueID>  (6) 
6

>  <SMILES>  (6) 
CCc1cc(C)cc(C)c1Cn1ccc(=O)n(CC(=O)Nc2ccccc2SC)c1=O

>  <Energy>  (6) 
65.18485132402343

>  <Genealogy>  (6) 
CCc1cc(C)cc(C)c1Cn1ccc(=O)n(CC(=O)Nc2ccccc2SC)c1=O (3D coordinates assigned)
CCc1cc(C)cc(C)c1Cn1ccc(=O)n(CC(=O)Nc2ccccc2SC)c1=O (optimized conformer: 65.18485132402343 kcal/mol)

>  <smiles>  (6) 
CCc1cc(C)cc(C)c1Cn1ccc(=O)n(CC(=O)Nc2ccccc2SC)c1=O

>  <score_type>  (6) 
oracle

>  <origin>  (6) 
adg

>  <m_score__min__energy>  (6) 
-8.1500000000000004

>  <m_primary>  (6) 
energy

$$$$
6:0
     RDKit          3D

 39 41  0  0  0  0  0  0  0  0999 V2000
   60.1770   30.5750   45.2640 H   0  0  0  0  0  0  0  0  0  0  0  0
   59.9000   29.7280   44.7890 O   0  0  0  0  0  0  0  0  0  0  0  0
   58.6570   29.1340   45.0030 C   0  0  0  0  0  0  0  0  0  0  0  0
   58.4630   27.9330   45.6560 C   0  0  0  0  0  0  0  0  0  0  0  0
   57.1080   27.6930   45.6470 C   0  0  0  0  0  0  0  0  0  0  0  0
   56.5230   28.7800   45.0300 C   0  0  0  0  0  0  0  0  0  0  0  0
   55.1550   28.9700   44.8670 O   0  0  0  0  0  0  0  0  0  0  0  0
   57.4680   29.6540   44.6150 N   0  0  0  0  0  0  0  0  0  0  0  0
   57.2250   30.9450   43.9710 C   0  0  0  0  0  0  0  0  0  0  0  0
   56.1650   31.0155   43.6856 H   0  0  0  0  0  0  0  0  0  0  0  0
   57.8596   31.0261   43.0762 H   0  0  0  0  0  0  0  0  0  0  0  0
   57.5590   32.0580   44.9100 C   0  0  0  0  0  0  0  0  0  0  0  0
   56.6350   32.6370   45.5410 O   0  0  0  0  0  0  0  0  0  0  0  0
   58.9290   32.3290   45.2250 N   0  0  0  0  0  0  0  0  0  0  0  0
   59.4900   32.6320   46.3650 C   0  0  0  0  0  0  0  0  0  0  0  0
   59.8780   31.5880   47.1490 N   0  0  0  0  0  0  0  0  0  0  0  0
   60.4230   31.7480   48.3820 C   0  0  0  0  0  0  0  0  0  0  0  0
   60.7225   30.8680   48.9701 H   0  0  0  0  0  0  0  0  0  0  0  0
   60.6020   33.0240   48.9000 C   0  0  0  0  0  0  0  0  0  0  0  0
   61.0089   33.1605   49.9128 H   0  0  0  0  0  0  0  0  0  0  0  0
   60.2610   34.1290   48.1240 C   0  0  0  0  0  0  0  0  0  0  0  0
   60.4030   35.1421   48.5282 H   0  0  0  0  0  0  0  0  0  0  0  0
   59.7370   33.9640   46.8290 C   0  0  0  0  0  0  0  0  0  0  0  0
   59.5670   35.2090   45.9940 C   0  0  0  0  0  0  0  0  0  0  0  0
   59.4480   36.0803   46.6548 H   0  0  0  0  0  0  0  0  0  0  0  0
   60.4544   35.3487   45.3592 H   0  0  0  0  0  0  0  0  0  0  0  0
   58.6746   35.1057   45.3592 H   0  0  0  0  0  0  0  0  0  0  0  0
   56.4580   26.5300   46.3310 C   0  0  0  0  0  0  0  0  0  0  0  0
   55.6513   26.1385   45.6939 H   0  0  0  0  0  0  0  0  0  0  0  0
   56.0470   26.8649   47.2948 H   0  0  0  0  0  0  0  0  0  0  0  0
   57.4930   25.4140   46.5860 C   0  0  0  0  0  0  0  0  0  0  0  0
   57.7110   24.9061   45.6349 H   0  0  0  0  0  0  0  0  0  0  0  0
   57.0673   24.7131   47.3192 H   0  0  0  0  0  0  0  0  0  0  0  0
   58.8090   25.9760   47.1660 C   0  0  0  0  0  0  0  0  0  0  0  0
   59.5016   25.1416   47.3507 H   0  0  0  0  0  0  0  0  0  0  0  0
   58.5717   26.5072   48.0996 H   0  0  0  0  0  0  0  0  0  0  0  0
   59.4790   26.9770   46.2020 C   0  0  0  0  0  0  0  0  0  0  0  0
   59.9419   26.4255   45.3704 H   0  0  0  0  0  0  0  0  0  0  0  0
   60.2451   27.5442   46.7510 H   0  0  0  0  0  0  0  0  0  0  0  0
  1  2  1  0
  2  3  1  0
  3  4  2  0
  4  5  1  0
  5  6  2  0
  6  7  1  0
  6  8  1  0
  8  9  1  0
  9 10  1  0
  9 11  1  0
  9 12  1  0
 12 13  2  0
 12 14  1  0
 14 15  2  0
 15 16  1  0
 16 17  1  0
 17 18  1  0
 17 19  2  0
 19 20  1  0
 19 21  1  0
 21 22  1  0
 21 23  2  0
 23 24  1  0
 24 25  1  0
 24 26  1  0
 24 27  1  0
  5 28  1  0
 28 29  1  0
 28 30  1  0
 28 31  1  0
 31 32  1  0
 31 33  1  0
 31 34  1  0
 34 35  1  0
 34 36  1  0
 34 37  1  0
 37 38  1  0
 37 39  1  0
  8  3  1  0
 23 15  1  0
 37  4  1  0
M  CHG  2   7  -1  16  -1
M  END
>  <UniqueID>  (7) 
7

>  <SMILES>  (7) 
Cc1ccc[n-]/c1=N/C(=O)Cn1c([O-])c2c(c1O)CCCC2

>  <Energy>  (7) 
83.62029825314748

>  <Genealogy>  (7) 
Cc1ccc[n-]c1=NC(=O)Cn1c([O-])c2c(c1O)CCCC2 (protonated)
Cc1ccc[n-]/c1=N/C(=O)Cn1c([O-])c2c(c1O)CCCC2 (cis-trans isomerization)
Cc1ccc[n-]/c1=N/C(=O)Cn1c([O-])c2c(c1O)CCCC2 (3D coordinates assigned)
Cc1ccc[n-]/c1=N/C(=O)Cn1c([O-])c2c(c1O)CCCC2 (nonaromatic ring conformer: 83.62029825314748 kcal/mol)

>  <smiles>  (7) 
Cc1ccc[nH]c1=NC(=O)Cn1c(O)c2c(c1O)CCCC2

>  <score_type>  (7) 
oracle

>  <origin>  (7) 
adg

>  <m_score__min__energy>  (7) 
-11.48

>  <m_primary>  (7) 
energy

$$$$
7:0
     RDKit          3D

 35 37  0  0  0  0  0  0  0  0999 V2000
   56.2150   29.6880   45.0950 O   0  0  0  0  0  0  0  0  0  0  0  0
   57.3220   30.0800   44.6350 C   0  0  0  0  0  0  0  0  0  0  0  0
   58.0430   29.2570   43.7100 N   0  0  0  0  0  0  0  0  0  0  0  0
   57.4010   28.1270   43.0380 C   0  0  0  0  0  0  0  0  0  0  0  0
   57.8950   26.7840   43.5930 C   0  0  0  0  0  0  0  0  0  0  0  0
   58.4540   26.9290   44.9860 C   0  0  0  0  0  0  0  0  0  0  0  0
   59.7470   27.4440   45.1780 C   0  0  0  0  0  0  0  0  0  0  0  0
   60.2570   27.6040   46.4700 C   0  0  0  0  0  0  0  0  0  0  0  0
   59.4810   27.2540   47.5780 C   0  0  0  0  0  0  0  0  0  0  0  0
   58.1940   26.7420   47.3960 C   0  0  0  0  0  0  0  0  0  0  0  0
   57.6790   26.5790   46.1060 C   0  0  0  0  0  0  0  0  0  0  0  0
   57.8720   31.3660   45.0970 C   0  0  0  0  0  0  0  0  0  0  0  0
   57.9030   32.7670   44.1470 S   0  0  0  0  0  0  0  0  0  0  0  0
   58.6610   33.7200   45.2980 C   0  0  0  0  0  0  0  0  0  0  0  0
   59.0250   35.0610   45.1970 C   0  0  0  0  0  0  0  0  0  0  0  0
   59.6730   35.6570   46.2890 C   0  0  0  0  0  0  0  0  0  0  0  0
   59.9450   34.9060   47.4480 C   0  0  0  0  0  0  0  0  0  0  0  0
   59.5710   33.5530   47.5260 C   0  0  0  0  0  0  0  0  0  0  0  0
   58.9190   32.9670   46.4340 C   0  0  0  0  0  0  0  0  0  0  0  0
   58.4840   31.6360   46.3310 C   0  0  0  0  0  0  0  0  0  0  0  0
   58.7970   30.4260   47.5740 Cl  0  0  0  0  0  0  0  0  0  0  0  0
   59.0580   29.4470   43.5540 H   0  0  0  0  0  0  0  0  0  0  0  0
   56.3131   28.1955   43.1852 H   0  0  0  0  0  0  0  0  0  0  0  0
   57.6567   28.1722   41.9691 H   0  0  0  0  0  0  0  0  0  0  0  0
   57.0526   26.0771   43.6185 H   0  0  0  0  0  0  0  0  0  0  0  0
   58.6980   26.4161   42.9374 H   0  0  0  0  0  0  0  0  0  0  0  0
   60.3605   27.7224   44.3085 H   0  0  0  0  0  0  0  0  0  0  0  0
   61.2707   28.0060   46.6144 H   0  0  0  0  0  0  0  0  0  0  0  0
   59.8835   27.3816   48.5937 H   0  0  0  0  0  0  0  0  0  0  0  0
   57.5844   26.4665   48.2692 H   0  0  0  0  0  0  0  0  0  0  0  0
   56.6650   26.1759   45.9671 H   0  0  0  0  0  0  0  0  0  0  0  0
   58.8099   35.6372   44.2850 H   0  0  0  0  0  0  0  0  0  0  0  0
   59.9697   36.7151   46.2394 H   0  0  0  0  0  0  0  0  0  0  0  0
   60.4541   35.3814   48.2993 H   0  0  0  0  0  0  0  0  0  0  0  0
   59.7870   32.9644   48.4299 H   0  0  0  0  0  0  0  0  0  0  0  0
  1  2  2  0
  2  3  1  0
  3  4  1  0
  4  5  1  0
  5  6  1  0
  6  7  2  0
  7  8  1  0
  8  9  2  0
  9 10  1  0
 10 11  2  0
  2 12  1  0
 12 13  1  0
 13 14  1  0
 14 15  2  0
 15 16  1  0
 16 17  2  0
 17 18  1  0
 18 19  2  0
 19 20  1  0
 20 21  1  0
 11  6  1  0
 20 12  2  0
 19 14  1  0
  3 22  1  0
  4 23  1  0
  4 24  1  0
  5 25  1  0
  5 26  1  0
  7 27  1  0
  8 28  1  0
  9 29  1  0
 10 30  1  0
 11 31  1  0
 15 32  1  0
 16 33  1  0
 17 34  1  0
 18 35  1  0
M  END
>  <UniqueID>  (8) 
8

>  <SMILES>  (8) 
O=C(NCCc1ccccc1)c1sc2ccccc2c1Cl

>  <Energy>  (8) 
66.59682923522445

>  <Genealogy>  (8) 
O=C(NCCc1ccccc1)c1sc2ccccc2c1Cl (3D coordinates assigned)
O=C(NCCc1ccccc1)c1sc2ccccc2c1Cl (optimized conformer: 66.59682923522445 kcal/mol)

>  <smiles>  (8) 
O=C(NCCc1ccccc1)c1sc2ccccc2c1Cl

>  <score_type>  (8) 
oracle

>  <origin>  (8) 
adg

>  <m_score__min__energy>  (8) 
-7.4900000000000002

>  <m_primary>  (8) 
energy

$$$$
8:0
     RDKit          3D

 44 46  0  0  0  0  0  0  0  0999 V2000
   57.3790   32.0080   43.0570 O   0  0  0  0  0  0  0  0  0  0  0  0
   57.2590   31.7350   44.2830 C   0  0  0  0  0  0  0  0  0  0  0  0
   56.3390   30.7170   44.6970 N   0  0  0  0  0  0  0  0  0  0  0  0
   56.4190   29.3270   44.2610 C   0  0  0  0  0  0  0  0  0  0  0  0
   57.5830   28.6420   44.9220 C   0  0  0  0  0  0  0  0  0  0  0  0
   58.8940   28.9190   44.5000 C   0  0  0  0  0  0  0  0  0  0  0  0
   59.9810   28.2920   45.1180 C   0  0  0  0  0  0  0  0  0  0  0  0
   59.7660   27.3950   46.1680 C   0  0  0  0  0  0  0  0  0  0  0  0
   60.8210   26.7920   46.7720 F   0  0  0  0  0  0  0  0  0  0  0  0
   58.4640   27.1220   46.6010 C   0  0  0  0  0  0  0  0  0  0  0  0
   57.3750   27.7440   45.9820 C   0  0  0  0  0  0  0  0  0  0  0  0
   58.0780   32.4510   45.2870 C   0  0  0  0  0  0  0  0  0  0  0  0
   58.4760   31.8090   46.4750 C   0  0  0  0  0  0  0  0  0  0  0  0
   59.2460   32.4870   47.4250 C   0  0  0  0  0  0  0  0  0  0  0  0
   59.6340   33.8170   47.2060 C   0  0  0  0  0  0  0  0  0  0  0  0
   60.4540   34.5570   48.2320 C   0  0  0  0  0  0  0  0  0  0  0  0
   61.8670   34.1270   48.1740 N   0  0  0  0  0  0  0  0  0  0  0  0
   62.2650   33.8470   46.7800 C   0  0  0  0  0  0  0  0  0  0  0  0
   63.5680   33.0290   46.7490 C   0  0  0  0  0  0  0  0  0  0  0  0
   63.4920   31.7730   47.4170 O   0  0  0  0  0  0  0  0  0  0  0  0
   62.4140   31.6800   48.3380 C   0  0  0  0  0  0  0  0  0  0  0  0
   62.1510   32.9940   49.0930 C   0  0  0  0  0  0  0  0  0  0  0  0
   59.2530   34.4560   46.0170 C   0  0  0  0  0  0  0  0  0  0  0  0
   58.4760   33.7830   45.0690 C   0  0  0  0  0  0  0  0  0  0  0  0
   55.4888   28.8067   44.5331 H   0  0  0  0  0  0  0  0  0  0  0  0
   56.5588   29.3003   43.1702 H   0  0  0  0  0  0  0  0  0  0  0  0
   59.0664   29.6319   43.6802 H   0  0  0  0  0  0  0  0  0  0  0  0
   61.0051   28.5049   44.7776 H   0  0  0  0  0  0  0  0  0  0  0  0
   58.2967   26.4175   47.4291 H   0  0  0  0  0  0  0  0  0  0  0  0
   56.3525   27.5294   46.3262 H   0  0  0  0  0  0  0  0  0  0  0  0
   58.1789   30.7657   46.6573 H   0  0  0  0  0  0  0  0  0  0  0  0
   59.5493   31.9742   48.3497 H   0  0  0  0  0  0  0  0  0  0  0  0
   60.3958   35.6370   48.0314 H   0  0  0  0  0  0  0  0  0  0  0  0
   60.0556   34.3351   49.2330 H   0  0  0  0  0  0  0  0  0  0  0  0
   61.4668   33.2765   46.2827 H   0  0  0  0  0  0  0  0  0  0  0  0
   62.4295   34.8007   46.2571 H   0  0  0  0  0  0  0  0  0  0  0  0
   63.8326   32.8437   45.6975 H   0  0  0  0  0  0  0  0  0  0  0  0
   64.3236   33.6231   47.2839 H   0  0  0  0  0  0  0  0  0  0  0  0
   61.5036   31.4057   47.7849 H   0  0  0  0  0  0  0  0  0  0  0  0
   62.6859   30.9205   49.0859 H   0  0  0  0  0  0  0  0  0  0  0  0
   61.2861   32.8527   49.7578 H   0  0  0  0  0  0  0  0  0  0  0  0
   63.0593   33.2423   49.6617 H   0  0  0  0  0  0  0  0  0  0  0  0
   59.5674   35.4932   45.8290 H   0  0  0  0  0  0  0  0  0  0  0  0
   58.1736   34.2988   44.1457 H   0  0  0  0  0  0  0  0  0  0  0  0
  1  2  2  0
  2  3  1  0
  3  4  1  0
  4  5  1  0
  5  6  2  0
  6  7  1  0
  7  8  2  0
  8  9  1  0
  8 10  1  0
 10 11  2  0
  2 12  1  0
 12 13  2  0
 13 14  1  0
 14 15  2  0
 15 16  1  0
 16 17  1  0
 17 18  1  0
 18 19  1  0
 19 20  1  0
 20 21  1  0
 21 22  1  0
 15 23  1  0
 23 24  2  0
 11  5  1  0
 24 12  1  0
 22 17  1  0
  4 25  1  0
  4 26  1  0
  6 27  1  0
  7 28  1  0
 10 29  1  0
 11 30  1  0
 13 31  1  0
 14 32  1  0
 16 33  1  0
 16 34  1  0
 18 35  1  0
 18 36  1  0
 19 37  1  0
 19 38  1  0
 21 39  1  0
 21 40  1  0
 22 41  1  0
 22 42  1  0
 23 43  1  0
 24 44  1  0
M  CHG  1   3  -1
M  END
>  <UniqueID>  (9) 
9

>  <SMILES>  (9) 
O=C([N-]Cc1ccc(F)cc1)c1ccc(CN2CCOCC2)cc1

>  <Energy>  (9) 
57.89862302768616

>  <Genealogy>  (9) 
O=C([N-]Cc1ccc(F)cc1)c1ccc(CN2CCOCC2)cc1 (protonated)
O=C([N-]Cc1ccc(F)cc1)c1ccc(CN2CCOCC2)cc1 (3D coordinates assigned)
O=C([N-]Cc1ccc(F)cc1)c1ccc(CN2CCOCC2)cc1 (nonaromatic ring conformer: 57.89862302768616 kcal/mol)

>  <smiles>  (9) 
O=C(NCc1ccc(F)cc1)c1ccc(CN2CCOCC2)cc1

>  <score_type>  (9) 
oracle

>  <origin>  (9) 
adg

>  <m_score__min__energy>  (9) 
-9.7599999999999998

>  <m_primary>  (9) 
energy

$$$$
9:0
     RDKit          3D

 48 50  0  0  0  0  0  0  0  0999 V2000
   61.9360   30.2360   50.4830 C   0  0  0  0  0  0  0  0  0  0  0  0
   62.5330   31.2510   49.5340 C   0  0  0  0  0  0  0  0  0  0  0  0
   63.7090   31.9520   49.8970 C   0  0  0  0  0  0  0  0  0  0  0  0
   64.5280   31.6880   51.4360 Cl  0  0  0  0  0  0  0  0  0  0  0  0
   64.2670   32.8880   49.0210 C   0  0  0  0  0  0  0  0  0  0  0  0
   63.6910   33.1200   47.7750 C   0  0  0  0  0  0  0  0  0  0  0  0
   62.5580   32.4070   47.3860 C   0  0  0  0  0  0  0  0  0  0  0  0
   61.9700   31.4680   48.2470 C   0  0  0  0  0  0  0  0  0  0  0  0
   60.5370   30.5890   47.6840 S   0  0  0  0  0  0  0  0  0  0  0  0
   60.8440   29.1190   47.6280 O   0  0  0  0  0  0  0  0  0  0  0  0
   59.4000   30.8490   48.6320 O   0  0  0  0  0  0  0  0  0  0  0  0
   60.0860   31.1290   46.0990 N   0  0  0  0  0  0  0  0  0  0  0  0
   59.1520   32.1800   45.8130 C   0  0  0  0  0  0  0  0  0  0  0  0
   59.4920   33.5340   45.9950 C   0  0  0  0  0  0  0  0  0  0  0  0
   58.5660   34.5400   45.7140 C   0  0  0  0  0  0  0  0  0  0  0  0
   57.2940   34.2100   45.2500 C   0  0  0  0  0  0  0  0  0  0  0  0
   56.9430   32.8730   45.0610 C   0  0  0  0  0  0  0  0  0  0  0  0
   57.8660   31.8510   45.3340 C   0  0  0  0  0  0  0  0  0  0  0  0
   57.4170   30.1660   45.0310 S   0  0  0  0  0  0  0  0  0  0  0  0
   57.8180   29.7490   43.6440 O   0  0  0  0  0  0  0  0  0  0  0  0
   55.9260   30.0360   45.1690 O   0  0  0  0  0  0  0  0  0  0  0  0
   58.1930   29.1220   46.1790 N   0  0  0  0  0  0  0  0  0  0  0  0
   58.2170   27.6920   46.0380 C   0  0  0  0  0  0  0  0  0  0  0  0
   57.0290   27.0050   45.7460 C   0  0  0  0  0  0  0  0  0  0  0  0
   57.0250   25.6120   45.6300 C   0  0  0  0  0  0  0  0  0  0  0  0
   58.2130   24.8900   45.7960 C   0  0  0  0  0  0  0  0  0  0  0  0
   58.2100   23.1360   45.6660 S   0  0  0  0  0  0  0  0  0  0  0  0
   57.4340   22.4470   47.0480 N   0  0  0  0  0  0  0  0  0  0  0  0
   57.4760   22.7290   44.4200 O   0  0  0  0  0  0  0  0  0  0  0  0
   59.6230   22.6270   45.6030 O   0  0  0  0  0  0  0  0  0  0  0  0
   59.4030   25.5700   46.0860 C   0  0  0  0  0  0  0  0  0  0  0  0
   59.4080   26.9620   46.2000 C   0  0  0  0  0  0  0  0  0  0  0  0
   62.1212   30.5509   51.5206 H   0  0  0  0  0  0  0  0  0  0  0  0
   60.8521   30.1648   50.3093 H   0  0  0  0  0  0  0  0  0  0  0  0
   62.4005   29.2541   50.3093 H   0  0  0  0  0  0  0  0  0  0  0  0
   65.1676   33.4451   49.3185 H   0  0  0  0  0  0  0  0  0  0  0  0
   64.1302   33.8665   47.0969 H   0  0  0  0  0  0  0  0  0  0  0  0
   62.1198   32.5826   46.3924 H   0  0  0  0  0  0  0  0  0  0  0  0
   60.4943   33.8010   46.3612 H   0  0  0  0  0  0  0  0  0  0  0  0
   58.8408   35.5952   45.8591 H   0  0  0  0  0  0  0  0  0  0  0  0
   56.5655   35.0050   45.0324 H   0  0  0  0  0  0  0  0  0  0  0  0
   55.9371   32.6181   44.6959 H   0  0  0  0  0  0  0  0  0  0  0  0
   58.8100   29.5710   46.8910 H   0  0  0  0  0  0  0  0  0  0  0  0
   56.0936   27.5669   45.6073 H   0  0  0  0  0  0  0  0  0  0  0  0
   56.0869   25.0822   45.4079 H   0  0  0  0  0  0  0  0  0  0  0  0
   57.7630   21.4590   47.1220 H   0  0  0  0  0  0  0  0  0  0  0  0
   60.3369   25.0055   46.2244 H   0  0  0  0  0  0  0  0  0  0  0  0
   60.3482   27.4899   46.4176 H   0  0  0  0  0  0  0  0  0  0  0  0
  1  2  1  0
  2  3  2  0
  3  4  1  0
  3  5  1  0
  5  6  2  0
  6  7  1  0
  7  8  2  0
  8  9  1  0
  9 10  2  0
  9 11  2  0
  9 12  1  0
 12 13  1  0
 13 14  2  0
 14 15  1  0
 15 16  2  0
 16 17  1  0
 17 18  2  0
 18 19  1  0
 19 20  2  0
 19 21  2  0
 19 22  1  0
 22 23  1  0
 23 24  2  0
 24 25  1  0
 25 26  2  0
 26 27  1  0
 27 28  1  0
 27 29  2  0
 27 30  2  0
 26 31  1  0
 31 32  2  0
  8  2  1  0
 18 13  1  0
 32 23  1  0
  1 33  1  0
  1 34  1  0
  1 35  1  0
  5 36  1  0
  6 37  1  0
  7 38  1  0
 14 39  1  0
 15 40  1  0
 16 41  1  0
 17 42  1  0
 22 43  1  0
 24 44  1  0
 25 45  1  0
 28 46  1  0
 31 47  1  0
 32 48  1  0
M  CHG  2  12  -1  28  -1
M  END
>  <UniqueID>  (10) 
10

>  <SMILES>  (10) 
Cc1c(Cl)cccc1S(=O)(=O)[N-]c1ccccc1S(=O)(=O)Nc1ccc(S([NH-])(=O)=O)cc1

>  <Energy>  (10) 
59.697948532539584

>  <Genealogy>  (10) 
Cc1c(Cl)cccc1S(=O)(=O)[N-]c1ccccc1S(=O)(=O)Nc1ccc(S([NH-])(=O)=O)cc1 (protonated)
Cc1c(Cl)cccc1S(=O)(=O)[N-]c1ccccc1S(=O)(=O)Nc1ccc(S([NH-])(=O)=O)cc1 (3D coordinates assigned)
Cc1c(Cl)cccc1S(=O)(=O)[N-]c1ccccc1S(=O)(=O)Nc1ccc(S([NH-])(=O)=O)cc1 (optimized conformer: 59.697948532539584 kcal/mol)

>  <smiles>  (10) 
Cc1c(Cl)cccc1S(=O)(=O)Nc1ccccc1S(=O)(=O)Nc1ccc(S(N)(=O)=O)cc1

>  <score_type>  (10) 
oracle

>  <origin>  (10) 
adg

>  <m_score__min__energy>  (10) 
-12.81

>  <m_primary>  (10) 
energy

$$$$
10:0
     RDKit          3D

 39 40  0  0  0  0  0  0  0  0999 V2000
   58.0140   26.9900   45.8170 C   0  0  0  0  0  0  0  0  0  0  0  0
   56.5280   27.1740   45.8100 C   0  0  0  0  0  0  0  0  0  0  0  0
   55.8040   26.3080   46.3670 O   0  0  0  0  0  0  0  0  0  0  0  0
   55.9050   28.3250   45.2230 N   0  0  0  0  0  0  0  0  0  0  0  0
   56.5690   29.4470   44.6270 C   0  0  0  0  0  0  0  0  0  0  0  0
   56.3880   29.7760   43.2730 C   0  0  0  0  0  0  0  0  0  0  0  0
   57.0070   30.9060   42.7360 C   0  0  0  0  0  0  0  0  0  0  0  0
   57.8030   31.7210   43.5440 C   0  0  0  0  0  0  0  0  0  0  0  0
   57.9900   31.4130   44.9000 C   0  0  0  0  0  0  0  0  0  0  0  0
   58.7670   32.3040   45.7210 N   0  0  0  0  0  0  0  0  0  0  0  0
   58.2190   33.1930   46.7080 C   0  0  0  0  0  0  0  0  0  0  0  0
   57.0610   33.0070   47.1690 O   0  0  0  0  0  0  0  0  0  0  0  0
   59.0300   34.3510   47.2040 C   0  0  0  0  0  0  0  0  0  0  0  0
   60.4190   34.7160   46.0730 S   0  0  0  0  0  0  0  0  0  0  0  0
   61.6970   34.0890   47.1690 C   0  0  0  0  0  0  0  0  0  0  0  0
   61.4630   33.9950   48.5450 C   0  0  0  0  0  0  0  0  0  0  0  0
   62.4450   33.4660   49.3890 C   0  0  0  0  0  0  0  0  0  0  0  0
   63.6770   33.0450   48.8640 C   0  0  0  0  0  0  0  0  0  0  0  0
   64.7100   32.4280   49.7580 C   0  0  0  0  0  0  0  0  0  0  0  0
   63.9080   33.1430   47.4830 C   0  0  0  0  0  0  0  0  0  0  0  0
   62.9270   33.6760   46.6430 C   0  0  0  0  0  0  0  0  0  0  0  0
   57.3450   30.2830   45.4390 C   0  0  0  0  0  0  0  0  0  0  0  0
   58.3731   26.9455   46.8558 H   0  0  0  0  0  0  0  0  0  0  0  0
   58.2699   26.0533   45.3002 H   0  0  0  0  0  0  0  0  0  0  0  0
   58.4907   27.8360   45.3002 H   0  0  0  0  0  0  0  0  0  0  0  0
   55.7565   29.1411   42.6342 H   0  0  0  0  0  0  0  0  0  0  0  0
   56.8675   31.1552   41.6737 H   0  0  0  0  0  0  0  0  0  0  0  0
   58.2867   32.6106   43.1142 H   0  0  0  0  0  0  0  0  0  0  0  0
   59.8060   32.2950   45.5990 H   0  0  0  0  0  0  0  0  0  0  0  0
   58.3831   35.2377   47.2760 H   0  0  0  0  0  0  0  0  0  0  0  0
   59.4422   34.0913   48.1902 H   0  0  0  0  0  0  0  0  0  0  0  0
   60.5053   34.3376   48.9639 H   0  0  0  0  0  0  0  0  0  0  0  0
   62.2511   33.3795   50.4683 H   0  0  0  0  0  0  0  0  0  0  0  0
   64.4317   32.5942   50.8091 H   0  0  0  0  0  0  0  0  0  0  0  0
   64.7676   31.3474   49.5604 H   0  0  0  0  0  0  0  0  0  0  0  0
   65.6887   32.8896   49.5604 H   0  0  0  0  0  0  0  0  0  0  0  0
   64.8639   32.7993   47.0610 H   0  0  0  0  0  0  0  0  0  0  0  0
   63.1217   33.7715   45.5646 H   0  0  0  0  0  0  0  0  0  0  0  0
   57.4520   30.0547   46.5097 H   0  0  0  0  0  0  0  0  0  0  0  0
  1  2  1  0
  2  3  2  0
  2  4  1  0
  4  5  1  0
  5  6  2  0
  6  7  1  0
  7  8  2  0
  8  9  1  0
  9 10  1  0
 10 11  1  0
 11 12  2  0
 11 13  1  0
 13 14  1  0
 14 15  1  0
 15 16  2  0
 16 17  1  0
 17 18  2  0
 18 19  1  0
 18 20  1  0
 20 21  2  0
  9 22  2  0
 22  5  1  0
 21 15  1  0
  1 23  1  0
  1 24  1  0
  1 25  1  0
  6 26  1  0
  7 27  1  0
  8 28  1  0
 10 29  1  0
 13 30  1  0
 13 31  1  0
 16 32  1  0
 17 33  1  0
 19 34  1  0
 19 35  1  0
 19 36  1  0
 20 37  1  0
 21 38  1  0
 22 39  1  0
M  CHG  1   4  -1
M  END
>  <UniqueID>  (11) 
11

>  <SMILES>  (11) 
CC(=O)[N-]c1cccc(NC(=O)CSc2ccc(C)cc2)c1

>  <Energy>  (11) 
37.9966204028567

>  <Genealogy>  (11) 
CC(=O)[N-]c1cccc(NC(=O)CSc2ccc(C)cc2)c1 (protonated)
CC(=O)[N-]c1cccc(NC(=O)CSc2ccc(C)cc2)c1 (3D coordinates assigned)
CC(=O)[N-]c1cccc(NC(=O)CSc2ccc(C)cc2)c1 (optimized conformer: 37.9966204028567 kcal/mol)

>  <smiles>  (11) 
CC(=O)Nc1cccc(NC(=O)CSc2ccc(C)cc2)c1

>  <score_type>  (11) 
oracle

>  <origin>  (11) 
adg

>  <m_score__min__energy>  (11) 
-10.550000000000001

>  <m_primary>  (11) 
energy

$$$$
11:0
     RDKit          3D

 62 65  0  0  0  0  0  0  0  0999 V2000
   55.9810   21.7850   47.9110 C   0  0  0  0  0  0  0  0  0  0  0  0
   56.7850   20.4620   46.9500 S   0  0  0  0  0  0  0  0  0  0  0  0
   56.7140   21.3740   45.4050 C   0  0  0  0  0  0  0  0  0  0  0  0
   56.6890   20.6870   44.1900 C   0  0  0  0  0  0  0  0  0  0  0  0
   56.6540   21.3980   42.9880 C   0  0  0  0  0  0  0  0  0  0  0  0
   56.6520   22.7960   42.9940 C   0  0  0  0  0  0  0  0  0  0  0  0
   56.6730   23.5010   44.2110 C   0  0  0  0  0  0  0  0  0  0  0  0
   56.6560   24.9370   44.2600 N   0  0  0  0  0  0  0  0  0  0  0  0
   56.8830   25.8700   45.7080 S   0  0  0  0  0  0  0  0  0  0  0  0
   57.6700   25.0550   46.6980 O   0  0  0  0  0  0  0  0  0  0  0  0
   55.5420   26.1940   46.2990 O   0  0  0  0  0  0  0  0  0  0  0  0
   57.7220   27.3770   45.3520 C   0  0  0  0  0  0  0  0  0  0  0  0
   59.1020   27.4740   45.5640 C   0  0  0  0  0  0  0  0  0  0  0  0
   59.7740   28.6660   45.2780 C   0  0  0  0  0  0  0  0  0  0  0  0
   59.0710   29.7680   44.7850 C   0  0  0  0  0  0  0  0  0  0  0  0
   57.6820   29.6880   44.5750 C   0  0  0  0  0  0  0  0  0  0  0  0
   56.9290   30.8460   44.0440 C   0  0  0  0  0  0  0  0  0  0  0  0
   56.5720   30.8500   42.8370 O   0  0  0  0  0  0  0  0  0  0  0  0
   56.6300   31.9900   44.8540 N   0  0  0  0  0  0  0  0  0  0  0  0
   57.5850   32.9550   45.3160 C   0  0  0  0  0  0  0  0  0  0  0  0
   58.0060   34.0200   44.5030 C   0  0  0  0  0  0  0  0  0  0  0  0
   58.9250   34.9530   44.9900 C   0  0  0  0  0  0  0  0  0  0  0  0
   59.4350   34.8270   46.2840 C   0  0  0  0  0  0  0  0  0  0  0  0
   59.0350   33.7580   47.0980 C   0  0  0  0  0  0  0  0  0  0  0  0
   59.6600   33.6090   48.7390 S   0  0  0  0  0  0  0  0  0  0  0  0
   58.7590   32.7050   49.5340 O   0  0  0  0  0  0  0  0  0  0  0  0
   59.6600   34.9620   49.3950 O   0  0  0  0  0  0  0  0  0  0  0  0
   61.2800   32.9550   48.7450 N   0  0  0  0  0  0  0  0  0  0  0  0
   62.2160   33.9040   49.3850 C   0  0  0  0  0  0  0  0  0  0  0  0
   63.6650   33.4730   49.1590 C   0  0  0  0  0  0  0  0  0  0  0  0
   64.0180   33.4500   47.6600 C   0  0  0  0  0  0  0  0  0  0  0  0
   62.7770   33.3660   46.7560 C   0  0  0  0  0  0  0  0  0  0  0  0
   61.6890   32.4910   47.3950 C   0  0  0  0  0  0  0  0  0  0  0  0
   58.1250   32.8130   46.6000 C   0  0  0  0  0  0  0  0  0  0  0  0
   57.0160   28.4830   44.8590 C   0  0  0  0  0  0  0  0  0  0  0  0
   56.7040   22.7740   45.4140 C   0  0  0  0  0  0  0  0  0  0  0  0
   56.1033   21.5838   48.9855 H   0  0  0  0  0  0  0  0  0  0  0  0
   56.4447   22.7514   47.6638 H   0  0  0  0  0  0  0  0  0  0  0  0
   54.9097   21.8185   47.6638 H   0  0  0  0  0  0  0  0  0  0  0  0
   56.6968   19.5871   44.1791 H   0  0  0  0  0  0  0  0  0  0  0  0
   56.6279   20.8550   42.0317 H   0  0  0  0  0  0  0  0  0  0  0  0
   56.6339   23.3474   42.0423 H   0  0  0  0  0  0  0  0  0  0  0  0
   56.4740   25.4710   43.3810 H   0  0  0  0  0  0  0  0  0  0  0  0
   59.6590   26.6105   45.9565 H   0  0  0  0  0  0  0  0  0  0  0  0
   60.8595   28.7365   45.4416 H   0  0  0  0  0  0  0  0  0  0  0  0
   59.6058   30.7025   44.5600 H   0  0  0  0  0  0  0  0  0  0  0  0
   57.6115   34.1198   43.4810 H   0  0  0  0  0  0  0  0  0  0  0  0
   59.2477   35.7892   44.3523 H   0  0  0  0  0  0  0  0  0  0  0  0
   60.1524   35.5685   46.6655 H   0  0  0  0  0  0  0  0  0  0  0  0
   62.0660   34.9047   48.9537 H   0  0  0  0  0  0  0  0  0  0  0  0
   62.0174   33.9196   50.4668 H   0  0  0  0  0  0  0  0  0  0  0  0
   64.3328   34.1800   49.6730 H   0  0  0  0  0  0  0  0  0  0  0  0
   63.7898   32.4561   49.5593 H   0  0  0  0  0  0  0  0  0  0  0  0
   64.5696   34.3696   47.4148 H   0  0  0  0  0  0  0  0  0  0  0  0
   64.6227   32.5497   47.4763 H   0  0  0  0  0  0  0  0  0  0  0  0
   62.3776   34.3787   46.5983 H   0  0  0  0  0  0  0  0  0  0  0  0
   63.0717   32.9144   45.7973 H   0  0  0  0  0  0  0  0  0  0  0  0
   60.8051   32.4992   46.7403 H   0  0  0  0  0  0  0  0  0  0  0  0
   62.1094   31.4811   47.5110 H   0  0  0  0  0  0  0  0  0  0  0  0
   57.8338   31.9544   47.2229 H   0  0  0  0  0  0  0  0  0  0  0  0
   55.9312   28.4074   44.6929 H   0  0  0  0  0  0  0  0  0  0  0  0
   56.7206   23.3115   46.3736 H   0  0  0  0  0  0  0  0  0  0  0  0
  1  2  1  0
  2  3  1  0
  3  4  2  0
  4  5  1  0
  5  6  2  0
  6  7  1  0
  7  8  1  0
  8  9  1  0
  9 10  2  0
  9 11  2  0
  9 12  1  0
 12 13  2  0
 13 14  1  0
 14 15  2  0
 15 16  1  0
 16 17  1  0
 17 18  2  0
 17 19  1  0
 19 20  1  0
 20 21  2  0
 21 22  1  0
 22 23  2  0
 23 24  1  0
 24 25  1  0
 25 26  2  0
 25 27  2  0
 25 28  1  0
 28 29  1  0
 29 30  1  0
 30 31  1  0
 31 32  1  0
 32 33  1  0
 24 34  2  0
 16 35  2  0
  7 36  2  0
 36  3  1  0
 35 12  1  0
 34 20  1  0
 33 28  1  0
  1 37  1  0
  1 38  1  0
  1 39  1  0
  4 40  1  0
  5 41  1  0
  6 42  1  0
  8 43  1  0
 13 44  1  0
 14 45  1  0
 15 46  1  0
 21 47  1  0
 22 48  1  0
 23 49  1  0
 29 50  1  0
 29 51  1  0
 30 52  1  0
 30 53  1  0
 31 54  1  0
 31 55  1  0
 32 56  1  0
 32 57  1  0
 33 58  1  0
 33 59  1  0
 34 60  1  0
 35 61  1  0
 36 62  1  0
M  CHG  1  19  -1
M  END
>  <UniqueID>  (12) 
12

>  <SMILES>  (12) 
CSc1cccc(NS(=O)(=O)c2cccc(C(=O)[N-]c3cccc(S(=O)(=O)N4CCCCC4)c3)c2)c1

>  <Energy>  (12) 
74.34216803561608

>  <Genealogy>  (12) 
CSc1cccc(NS(=O)(=O)c2cccc(C(=O)[N-]c3cccc(S(=O)(=O)N4CCCCC4)c3)c2)c1 (protonated)
CSc1cccc(NS(=O)(=O)c2cccc(C(=O)[N-]c3cccc(S(=O)(=O)N4CCCCC4)c3)c2)c1 (3D coordinates assigned)
CSc1cccc(NS(=O)(=O)c2cccc(C(=O)[N-]c3cccc(S(=O)(=O)N4CCCCC4)c3)c2)c1 (nonaromatic ring conformer: 74.34216803561608 kcal/mol)

>  <smiles>  (12) 
CSc1cccc(NS(=O)(=O)c2cccc(C(=O)Nc3cccc(S(=O)(=O)N4CCCCC4)c3)c2)c1

>  <score_type>  (12) 
oracle

>  <origin>  (12) 
adg

>  <m_score__min__energy>  (12) 
-12.85

>  <m_primary>  (12) 
energy

$$$$
12:0
     RDKit          3D

 32 33  0  0  0  0  0  0  0  0999 V2000
   54.0270   26.3330   46.3980 H   0  0  0  0  0  0  0  0  0  0  0  0
   54.9080   26.1690   45.9290 O   0  0  0  0  0  0  0  0  0  0  0  0
   56.0570   26.8750   46.2270 N   0  0  0  0  0  0  0  0  0  0  0  0
   56.2320   27.0850   47.2350 H   0  0  0  0  0  0  0  0  0  0  0  0
   56.8870   27.3260   45.3230 C   0  0  0  0  0  0  0  0  0  0  0  0
   57.2690   28.7520   45.2490 C   0  0  0  0  0  0  0  0  0  0  0  0
   56.5580   29.7610   44.6250 C   0  0  0  0  0  0  0  0  0  0  0  0
   55.6533   29.6192   44.0156 H   0  0  0  0  0  0  0  0  0  0  0  0
   57.1480   30.9450   44.8810 N   0  0  0  0  0  0  0  0  0  0  0  0
   58.2040   30.7090   45.6450 N   0  0  0  0  0  0  0  0  0  0  0  0
   59.0460   31.7540   46.2080 C   0  0  0  0  0  0  0  0  0  0  0  0
   59.0064   31.7049   47.3062 H   0  0  0  0  0  0  0  0  0  0  0  0
   60.0834   31.6100   45.8717 H   0  0  0  0  0  0  0  0  0  0  0  0
   58.6846   32.7370   45.8717 H   0  0  0  0  0  0  0  0  0  0  0  0
   58.2960   29.3940   45.9130 C   0  0  0  0  0  0  0  0  0  0  0  0
   59.0550   28.9146   46.5487 H   0  0  0  0  0  0  0  0  0  0  0  0
   57.3760   26.4470   44.2940 N   0  0  0  0  0  0  0  0  0  0  0  0
   57.5350   26.8510   43.3430 H   0  0  0  0  0  0  0  0  0  0  0  0
   57.6920   25.0570   44.4970 C   0  0  0  0  0  0  0  0  0  0  0  0
   58.6420   24.6550   45.4530 C   0  0  0  0  0  0  0  0  0  0  0  0
   59.1492   25.4094   46.0724 H   0  0  0  0  0  0  0  0  0  0  0  0
   58.9440   23.3010   45.6190 C   0  0  0  0  0  0  0  0  0  0  0  0
   59.6769   22.9917   46.3788 H   0  0  0  0  0  0  0  0  0  0  0  0
   58.3180   22.3390   44.8230 C   0  0  0  0  0  0  0  0  0  0  0  0
   58.5474   21.2731   44.9685 H   0  0  0  0  0  0  0  0  0  0  0  0
   57.3980   22.7280   43.8390 C   0  0  0  0  0  0  0  0  0  0  0  0
   56.7040   21.6940   43.0020 C   0  0  0  0  0  0  0  0  0  0  0  0
   56.2120   20.9610   43.6582 H   0  0  0  0  0  0  0  0  0  0  0  0
   55.9499   22.1820   42.3671 H   0  0  0  0  0  0  0  0  0  0  0  0
   57.4414   21.1810   42.3671 H   0  0  0  0  0  0  0  0  0  0  0  0
   57.0840   24.0880   43.6860 C   0  0  0  0  0  0  0  0  0  0  0  0
   56.3542   24.3962   42.9228 H   0  0  0  0  0  0  0  0  0  0  0  0
  1  2  1  0
  2  3  1  0
  3  4  1  0
  3  5  2  0
  5  6  1  0
  6  7  1  0
  7  8  1  0
  7  9  2  0
  9 10  1  0
 10 11  1  0
 11 12  1  0
 11 13  1  0
 11 14  1  0
 10 15  1  0
 15 16  1  0
  5 17  1  0
 17 18  1  0
 17 19  1  0
 19 20  2  0
 20 21  1  0
 20 22  1  0
 22 23  1  0
 22 24  2  0
 24 25  1  0
 24 26  1  0
 26 27  1  0
 27 28  1  0
 27 29  1  0
 27 30  1  0
 26 31  2  0
 31 32  1  0
 15  6  2  0
 31 19  1  0
M  CHG  1   3   1
M  END
>  <UniqueID>  (13) 
13

>  <SMILES>  (13) 
Cc1cccc(N/C(=[NH+]/O)c2cnn(C)c2)c1

>  <Energy>  (13) 
70.73792907796265

>  <Genealogy>  (13) 
Cc1cccc(NC(=[NH+]O)c2cnn(C)c2)c1 (protonated)
Cc1cccc(N/C(=[NH+]/O)c2cnn(C)c2)c1 (cis-trans isomerization)
Cc1cccc(N/C(=[NH+]/O)c2cnn(C)c2)c1 (3D coordinates assigned)
Cc1cccc(N/C(=[NH+]/O)c2cnn(C)c2)c1 (optimized conformer: 70.73792907796265 kcal/mol)

>  <smiles>  (13) 
Cc1cccc(NC(=NO)c2cnn(C)c2)c1

>  <score_type>  (13) 
oracle

>  <origin>  (13) 
adg

>  <m_score__min__energy>  (13) 
-5.71

>  <m_primary>  (13) 
energy

$$$$
13:0
     RDKit          3D

 59 62  0  0  0  0  0  0  0  0999 V2000
   57.7410   21.4640   45.9480 C   0  0  0  0  0  0  0  0  0  0  0  0
   57.6110   22.5200   46.8950 O   0  0  0  0  0  0  0  0  0  0  0  0
   57.1810   23.8190   46.5810 C   0  0  0  0  0  0  0  0  0  0  0  0
   58.0870   24.8750   46.7290 C   0  0  0  0  0  0  0  0  0  0  0  0
   57.7100   26.1830   46.4170 C   0  0  0  0  0  0  0  0  0  0  0  0
   56.4110   26.4620   45.9670 C   0  0  0  0  0  0  0  0  0  0  0  0
   56.0650   27.8100   45.6100 N   0  0  0  0  0  0  0  0  0  0  0  0
   56.8820   28.6710   44.8080 C   0  0  0  0  0  0  0  0  0  0  0  0
   57.7640   28.1850   44.0490 O   0  0  0  0  0  0  0  0  0  0  0  0
   56.6180   30.0790   44.8120 N   0  0  0  0  0  0  0  0  0  0  0  0
   57.5080   31.1410   45.1860 C   0  0  0  0  0  0  0  0  0  0  0  0
   56.9960   32.4420   45.2570 C   0  0  0  0  0  0  0  0  0  0  0  0
   57.7940   33.4980   45.7030 C   0  0  0  0  0  0  0  0  0  0  0  0
   59.1220   33.2660   46.0810 C   0  0  0  0  0  0  0  0  0  0  0  0
   60.0800   34.5570   46.8030 S   0  0  0  0  0  0  0  0  0  0  0  0
   61.5220   34.4120   46.4060 O   0  0  0  0  0  0  0  0  0  0  0  0
   59.5780   35.8870   46.3200 O   0  0  0  0  0  0  0  0  0  0  0  0
   59.9370   34.4850   48.5280 N   0  0  0  0  0  0  0  0  0  0  0  0
   60.4500   33.3640   49.2480 C   0  0  0  0  0  0  0  0  0  0  0  0
   61.7660   33.1930   49.6480 C   0  0  0  0  0  0  0  0  0  0  0  0
   62.8330   34.2440   49.5950 C   0  0  0  0  0  0  0  0  0  0  0  0
   61.9840   31.8720   49.8700 N   0  0  0  0  0  0  0  0  0  0  0  0
   63.2700   31.2710   50.2350 C   0  0  0  0  0  0  0  0  0  0  0  0
   60.8660   31.2010   49.5960 N   0  0  0  0  0  0  0  0  0  0  0  0
   60.7460   29.7720   49.4770 C   0  0  0  0  0  0  0  0  0  0  0  0
   60.3610   29.1900   48.2580 C   0  0  0  0  0  0  0  0  0  0  0  0
   60.1970   27.8050   48.1580 C   0  0  0  0  0  0  0  0  0  0  0  0
   60.3990   26.9940   49.2770 C   0  0  0  0  0  0  0  0  0  0  0  0
   60.7670   27.5660   50.4980 C   0  0  0  0  0  0  0  0  0  0  0  0
   60.9370   28.9510   50.6000 C   0  0  0  0  0  0  0  0  0  0  0  0
   59.9260   32.0900   49.2170 C   0  0  0  0  0  0  0  0  0  0  0  0
   58.7790   31.7800   48.7950 O   0  0  0  0  0  0  0  0  0  0  0  0
   59.6470   31.9690   45.9980 C   0  0  0  0  0  0  0  0  0  0  0  0
   58.8440   30.9090   45.5670 C   0  0  0  0  0  0  0  0  0  0  0  0
   55.5000   25.4020   45.8130 C   0  0  0  0  0  0  0  0  0  0  0  0
   55.8780   24.0920   46.1200 C   0  0  0  0  0  0  0  0  0  0  0  0
   57.8587   20.5078   46.4789 H   0  0  0  0  0  0  0  0  0  0  0  0
   56.8409   21.4246   45.3169 H   0  0  0  0  0  0  0  0  0  0  0  0
   58.6238   21.6441   45.3169 H   0  0  0  0  0  0  0  0  0  0  0  0
   59.1048   24.6732   47.0942 H   0  0  0  0  0  0  0  0  0  0  0  0
   58.4375   27.0010   46.5250 H   0  0  0  0  0  0  0  0  0  0  0  0
   55.1470   28.1890   45.9410 H   0  0  0  0  0  0  0  0  0  0  0  0
   55.9549   32.6345   44.9586 H   0  0  0  0  0  0  0  0  0  0  0  0
   57.3779   34.5148   45.7574 H   0  0  0  0  0  0  0  0  0  0  0  0
   63.1202   34.5269   50.6185 H   0  0  0  0  0  0  0  0  0  0  0  0
   63.7113   33.8484   49.0638 H   0  0  0  0  0  0  0  0  0  0  0  0
   62.4507   35.1281   49.0638 H   0  0  0  0  0  0  0  0  0  0  0  0
   63.3577   31.2300   51.3307 H   0  0  0  0  0  0  0  0  0  0  0  0
   63.3284   30.2523   49.8241 H   0  0  0  0  0  0  0  0  0  0  0  0
   64.0890   31.8796   49.8241 H   0  0  0  0  0  0  0  0  0  0  0  0
   60.1877   29.8267   47.3779 H   0  0  0  0  0  0  0  0  0  0  0  0
   59.9086   27.3538   47.1972 H   0  0  0  0  0  0  0  0  0  0  0  0
   60.2684   25.9047   49.1973 H   0  0  0  0  0  0  0  0  0  0  0  0
   60.9231   26.9268   51.3795 H   0  0  0  0  0  0  0  0  0  0  0  0
   61.2214   29.3985   51.5638 H   0  0  0  0  0  0  0  0  0  0  0  0
   60.6959   31.7844   46.2733 H   0  0  0  0  0  0  0  0  0  0  0  0
   59.2569   29.8903   45.5253 H   0  0  0  0  0  0  0  0  0  0  0  0
   54.4824   25.6053   45.4482 H   0  0  0  0  0  0  0  0  0  0  0  0
   55.1555   23.2711   46.0013 H   0  0  0  0  0  0  0  0  0  0  0  0
  1  2  1  0
  2  3  1  0
  3  4  2  0
  4  5  1  0
  5  6  2  0
  6  7  1  0
  7  8  1  0
  8  9  2  0
  8 10  1  0
 10 11  1  0
 11 12  2  0
 12 13  1  0
 13 14  2  0
 14 15  1  0
 15 16  2  0
 15 17  2  0
 15 18  1  0
 18 19  1  0
 19 20  2  0
 20 21  1  0
 20 22  1  0
 22 23  1  0
 22 24  1  0
 24 25  1  0
 25 26  2  0
 26 27  1  0
 27 28  2  0
 28 29  1  0
 29 30  2  0
 24 31  1  0
 31 32  2  0
 14 33  1  0
 33 34  2  0
  6 35  1  0
 35 36  2  0
 36  3  1  0
 34 11  1  0
 31 19  1  0
 30 25  1  0
  1 37  1  0
  1 38  1  0
  1 39  1  0
  4 40  1  0
  5 41  1  0
  7 42  1  0
 12 43  1  0
 13 44  1  0
 21 45  1  0
 21 46  1  0
 21 47  1  0
 23 48  1  0
 23 49  1  0
 23 50  1  0
 26 51  1  0
 27 52  1  0
 28 53  1  0
 29 54  1  0
 30 55  1  0
 33 56  1  0
 34 57  1  0
 35 58  1  0
 36 59  1  0
M  CHG  2  10  -1  18  -1
M  END
>  <UniqueID>  (14) 
14

>  <SMILES>  (14) 
COc1ccc(NC(=O)[N-]c2ccc(S(=O)(=O)[N-]c3c(C)n(C)n(-c4ccccc4)c3=O)cc2)cc1

>  <Energy>  (14) 
117.35044565943315

>  <Genealogy>  (14) 
COc1ccc(NC(=O)[N-]c2ccc(S(=O)(=O)[N-]c3c(C)n(C)n(-c4ccccc4)c3=O)cc2)cc1 (protonated)
COc1ccc(NC(=O)[N-]c2ccc(S(=O)(=O)[N-]c3c(C)n(C)n(-c4ccccc4)c3=O)cc2)cc1 (3D coordinates assigned)
COc1ccc(NC(=O)[N-]c2ccc(S(=O)(=O)[N-]c3c(C)n(C)n(-c4ccccc4)c3=O)cc2)cc1 (optimized conformer: 117.35044565943315 kcal/mol)

>  <smiles>  (14) 
COc1ccc(NC(=O)Nc2ccc(S(=O)(=O)Nc3c(C)n(C)n(-c4ccccc4)c3=O)cc2)cc1

>  <score_type>  (14) 
oracle

>  <origin>  (14) 
adg

>  <m_score__min__energy>  (14) 
-12.17

>  <m_primary>  (14) 
energy

$$$$
14:0
     RDKit          3D

 40 42  0  0  0  0  0  0  0  0999 V2000
   56.0410   30.1260   44.8720 O   0  0  0  0  0  0  0  0  0  0  0  0
   57.1180   30.5840   44.4020 C   0  0  0  0  0  0  0  0  0  0  0  0
   57.1650   31.9540   43.9930 N   0  0  0  0  0  0  0  0  0  0  0  0
   57.8000   33.0140   44.7160 C   0  0  0  0  0  0  0  0  0  0  0  0
   58.8280   33.8330   44.2580 C   0  0  0  0  0  0  0  0  0  0  0  0
   59.2870   34.7230   45.2370 C   0  0  0  0  0  0  0  0  0  0  0  0
   58.6370   34.5920   46.4600 C   0  0  0  0  0  0  0  0  0  0  0  0
   57.4940   33.3630   46.3280 S   0  0  0  0  0  0  0  0  0  0  0  0
   58.2410   29.7140   44.1930 N   0  0  0  0  0  0  0  0  0  0  0  0
   58.4480   28.4820   44.9070 C   0  0  0  0  0  0  0  0  0  0  0  0
   59.7320   28.0760   45.3140 C   0  0  0  0  0  0  0  0  0  0  0  0
   59.9090   26.8590   45.9770 C   0  0  0  0  0  0  0  0  0  0  0  0
   58.8130   26.0320   46.2310 C   0  0  0  0  0  0  0  0  0  0  0  0
   57.5310   26.4170   45.8180 C   0  0  0  0  0  0  0  0  0  0  0  0
   56.1400   25.3780   46.1180 S   0  0  0  0  0  0  0  0  0  0  0  0
   54.8730   26.1780   45.9890 O   0  0  0  0  0  0  0  0  0  0  0  0
   56.2420   24.8410   47.5190 O   0  0  0  0  0  0  0  0  0  0  0  0
   56.1470   24.0620   44.9610 N   0  0  0  0  0  0  0  0  0  0  0  0
   55.4020   22.8840   45.4620 C   0  0  0  0  0  0  0  0  0  0  0  0
   56.3250   21.7950   46.0370 C   0  0  0  0  0  0  0  0  0  0  0  0
   57.4650   22.3800   46.6260 O   0  0  0  0  0  0  0  0  0  0  0  0
   58.2960   22.9490   45.6270 C   0  0  0  0  0  0  0  0  0  0  0  0
   57.5140   23.7190   44.5340 C   0  0  0  0  0  0  0  0  0  0  0  0
   57.3550   27.6350   45.1490 C   0  0  0  0  0  0  0  0  0  0  0  0
   59.2358   33.7862   43.2375 H   0  0  0  0  0  0  0  0  0  0  0  0
   60.0863   35.4567   45.0560 H   0  0  0  0  0  0  0  0  0  0  0  0
   58.8362   35.1904   47.3612 H   0  0  0  0  0  0  0  0  0  0  0  0
   58.9010   29.9520   43.4180 H   0  0  0  0  0  0  0  0  0  0  0  0
   60.6004   28.7195   45.1094 H   0  0  0  0  0  0  0  0  0  0  0  0
   60.9146   26.5515   46.2998 H   0  0  0  0  0  0  0  0  0  0  0  0
   58.9565   25.0763   46.7564 H   0  0  0  0  0  0  0  0  0  0  0  0
   54.7129   23.2144   46.2532 H   0  0  0  0  0  0  0  0  0  0  0  0
   54.8636   22.4453   44.6090 H   0  0  0  0  0  0  0  0  0  0  0  0
   55.7775   21.2204   46.7987 H   0  0  0  0  0  0  0  0  0  0  0  0
   56.6452   21.1302   45.2212 H   0  0  0  0  0  0  0  0  0  0  0  0
   58.9944   23.6470   46.1118 H   0  0  0  0  0  0  0  0  0  0  0  0
   58.8147   22.1177   45.1271 H   0  0  0  0  0  0  0  0  0  0  0  0
   58.0550   24.6478   44.3001 H   0  0  0  0  0  0  0  0  0  0  0  0
   57.4370   23.0658   43.6523 H   0  0  0  0  0  0  0  0  0  0  0  0
   56.3511   27.9305   44.8101 H   0  0  0  0  0  0  0  0  0  0  0  0
  1  2  2  0
  2  3  1  0
  3  4  1  0
  4  5  2  0
  5  6  1  0
  6  7  2  0
  7  8  1  0
  2  9  1  0
  9 10  1  0
 10 11  2  0
 11 12  1  0
 12 13  2  0
 13 14  1  0
 14 15  1  0
 15 16  2  0
 15 17  2  0
 15 18  1  0
 18 19  1  0
 19 20  1  0
 20 21  1  0
 21 22  1  0
 22 23  1  0
 14 24  2  0
  8  4  1  0
 24 10  1  0
 23 18  1  0
  5 25  1  0
  6 26  1  0
  7 27  1  0
  9 28  1  0
 11 29  1  0
 12 30  1  0
 13 31  1  0
 19 32  1  0
 19 33  1  0
 20 34  1  0
 20 35  1  0
 22 36  1  0
 22 37  1  0
 23 38  1  0
 23 39  1  0
 24 40  1  0
M  CHG  1   3  -1
M  END
>  <UniqueID>  (15) 
15

>  <SMILES>  (15) 
O=C([N-]c1cccs1)Nc1cccc(S(=O)(=O)N2CCOCC2)c1

>  <Energy>  (15) 
84.44217353135484

>  <Genealogy>  (15) 
O=C([N-]c1cccs1)Nc1cccc(S(=O)(=O)N2CCOCC2)c1 (protonated)
O=C([N-]c1cccs1)Nc1cccc(S(=O)(=O)N2CCOCC2)c1 (3D coordinates assigned)
O=C([N-]c1cccs1)Nc1cccc(S(=O)(=O)N2CCOCC2)c1 (nonaromatic ring conformer: 84.44217353135484 kcal/mol)

>  <smiles>  (15) 
O=C(Nc1cccc(S(=O)(=O)N2CCOCC2)c1)Nc1cccs1

>  <score_type>  (15) 
oracle

>  <origin>  (15) 
adg

>  <m_score__min__energy>  (15) 
-10.31

>  <m_primary>  (15) 
energy

$$$$
15:0
     RDKit          3D

 64 68  0  0  0  0  0  0  0  0999 V2000
   56.9180   34.6250   44.8800 C   0  0  0  0  0  0  0  0  0  0  0  0
   57.9930   34.3060   45.8750 C   0  0  0  0  0  0  0  0  0  0  0  0
   57.7570   33.3680   46.8910 C   0  0  0  0  0  0  0  0  0  0  0  0
   58.7680   33.0380   47.7980 C   0  0  0  0  0  0  0  0  0  0  0  0
   60.0260   33.6510   47.7140 C   0  0  0  0  0  0  0  0  0  0  0  0
   61.0640   33.2700   48.6350 N   0  0  0  0  0  0  0  0  0  0  0  0
   62.4590   33.5170   48.4080 C   0  0  0  0  0  0  0  0  0  0  0  0
   62.8380   34.1420   47.3810 O   0  0  0  0  0  0  0  0  0  0  0  0
   63.4850   33.0880   49.4150 C   0  0  0  0  0  0  0  0  0  0  0  0
   63.3600   31.3190   49.8870 S   0  0  0  0  0  0  0  0  0  0  0  0
   61.7910   31.4280   50.7740 C   0  0  0  0  0  0  0  0  0  0  0  0
   61.4710   32.6210   51.3570 N   0  0  0  0  0  0  0  0  0  0  0  0
   60.3410   32.7320   52.0930 C   0  0  0  0  0  0  0  0  0  0  0  0
   59.9270   33.8870   52.7620 C   0  0  0  0  0  0  0  0  0  0  0  0
   58.7360   33.6910   53.4640 C   0  0  0  0  0  0  0  0  0  0  0  0
   58.2210   32.0930   53.2460 S   0  0  0  0  0  0  0  0  0  0  0  0
   59.5130   31.6550   52.2650 C   0  0  0  0  0  0  0  0  0  0  0  0
   59.7960   30.4450   51.6490 C   0  0  0  0  0  0  0  0  0  0  0  0
   59.0110   29.4690   51.7970 O   0  0  0  0  0  0  0  0  0  0  0  0
   60.9330   30.3420   50.8730 N   0  0  0  0  0  0  0  0  0  0  0  0
   61.1690   29.1220   50.0720 C   0  0  0  0  0  0  0  0  0  0  0  0
   60.1450   28.9510   48.9780 C   0  0  0  0  0  0  0  0  0  0  0  0
   59.3970   30.0480   48.5230 C   0  0  0  0  0  0  0  0  0  0  0  0
   58.5120   29.9050   47.4500 C   0  0  0  0  0  0  0  0  0  0  0  0
   58.3620   28.6610   46.8090 C   0  0  0  0  0  0  0  0  0  0  0  0
   57.4350   28.5050   45.6640 C   0  0  0  0  0  0  0  0  0  0  0  0
   57.4980   29.3010   44.6860 O   0  0  0  0  0  0  0  0  0  0  0  0
   56.4660   27.4530   45.6600 N   0  0  0  0  0  0  0  0  0  0  0  0
   56.5800   26.2740   46.5070 C   0  0  0  0  0  0  0  0  0  0  0  0
   56.6700   25.0450   45.6490 C   0  0  0  0  0  0  0  0  0  0  0  0
   57.0730   25.1370   44.3070 C   0  0  0  0  0  0  0  0  0  0  0  0
   57.1660   23.9870   43.5190 C   0  0  0  0  0  0  0  0  0  0  0  0
   56.8730   22.7350   44.0670 C   0  0  0  0  0  0  0  0  0  0  0  0
   57.0000   21.2920   43.0790 Cl  0  0  0  0  0  0  0  0  0  0  0  0
   56.4680   22.6360   45.4020 C   0  0  0  0  0  0  0  0  0  0  0  0
   56.3670   23.7850   46.1920 C   0  0  0  0  0  0  0  0  0  0  0  0
   59.1190   27.5670   47.2630 C   0  0  0  0  0  0  0  0  0  0  0  0
   60.0030   27.7120   48.3330 C   0  0  0  0  0  0  0  0  0  0  0  0
   60.2730   34.5650   46.6730 C   0  0  0  0  0  0  0  0  0  0  0  0
   59.2680   34.8840   45.7570 C   0  0  0  0  0  0  0  0  0  0  0  0
   59.5450   35.7410   44.7420 F   0  0  0  0  0  0  0  0  0  0  0  0
   55.9952   34.8988   45.4124 H   0  0  0  0  0  0  0  0  0  0  0  0
   57.2405   35.4661   44.2488 H   0  0  0  0  0  0  0  0  0  0  0  0
   56.7295   33.7441   44.2488 H   0  0  0  0  0  0  0  0  0  0  0  0
   56.7702   32.8892   46.9744 H   0  0  0  0  0  0  0  0  0  0  0  0
   58.5752   32.2921   48.5832 H   0  0  0  0  0  0  0  0  0  0  0  0
   60.7790   32.9030   49.5720 H   0  0  0  0  0  0  0  0  0  0  0  0
   64.4840   33.2643   48.9897 H   0  0  0  0  0  0  0  0  0  0  0  0
   63.3072   33.6775   50.3265 H   0  0  0  0  0  0  0  0  0  0  0  0
   60.4758   34.8400   52.7383 H   0  0  0  0  0  0  0  0  0  0  0  0
   58.2156   34.4529   54.0629 H   0  0  0  0  0  0  0  0  0  0  0  0
   62.1677   29.1859   49.6154 H   0  0  0  0  0  0  0  0  0  0  0  0
   61.0910   28.2558   50.7455 H   0  0  0  0  0  0  0  0  0  0  0  0
   59.5077   31.0263   49.0136 H   0  0  0  0  0  0  0  0  0  0  0  0
   57.9287   30.7712   47.1043 H   0  0  0  0  0  0  0  0  0  0  0  0
   57.4849   26.3547   47.1272 H   0  0  0  0  0  0  0  0  0  0  0  0
   55.6945   26.2029   47.1558 H   0  0  0  0  0  0  0  0  0  0  0  0
   57.3165   26.1186   43.8743 H   0  0  0  0  0  0  0  0  0  0  0  0
   57.4705   24.0671   42.4650 H   0  0  0  0  0  0  0  0  0  0  0  0
   56.2284   21.6520   45.8313 H   0  0  0  0  0  0  0  0  0  0  0  0
   56.0494   23.7024   47.2419 H   0  0  0  0  0  0  0  0  0  0  0  0
   59.0137   26.5888   46.7709 H   0  0  0  0  0  0  0  0  0  0  0  0
   60.5933   26.8487   48.6738 H   0  0  0  0  0  0  0  0  0  0  0  0
   61.2648   35.0316   46.5800 H   0  0  0  0  0  0  0  0  0  0  0  0
  1  2  1  0
  2  3  2  0
  3  4  1  0
  4  5  2  0
  5  6  1  0
  6  7  1  0
  7  8  2  0
  7  9  1  0
  9 10  1  0
 10 11  1  0
 11 12  2  0
 12 13  1  0
 13 14  1  0
 14 15  2  0
 15 16  1  0
 16 17  1  0
 17 18  1  0
 18 19  2  0
 18 20  1  0
 20 21  1  0
 21 22  1  0
 22 23  2  0
 23 24  1  0
 24 25  2  0
 25 26  1  0
 26 27  2  0
 26 28  1  0
 28 29  1  0
 29 30  1  0
 30 31  2  0
 31 32  1  0
 32 33  2  0
 33 34  1  0
 33 35  1  0
 35 36  2  0
 25 37  1  0
 37 38  2  0
  5 39  1  0
 39 40  2  0
 40 41  1  0
 40  2  1  0
 20 11  1  0
 38 22  1  0
 17 13  2  0
 36 30  1  0
  1 42  1  0
  1 43  1  0
  1 44  1  0
  3 45  1  0
  4 46  1  0
  6 47  1  0
  9 48  1  0
  9 49  1  0
 14 50  1  0
 15 51  1  0
 21 52  1  0
 21 53  1  0
 23 54  1  0
 24 55  1  0
 29 56  1  0
 29 57  1  0
 31 58  1  0
 32 59  1  0
 35 60  1  0
 36 61  1  0
 37 62  1  0
 38 63  1  0
 39 64  1  0
M  CHG  1  28  -1
M  END
>  <UniqueID>  (16) 
16

>  <SMILES>  (16) 
Cc1ccc(NC(=O)CSc2nc3ccsc3c(=O)n2Cc2ccc(C(=O)[N-]Cc3ccc(Cl)cc3)cc2)cc1F

>  <Energy>  (16) 
98.02237637325598

>  <Genealogy>  (16) 
Cc1ccc(NC(=O)CSc2nc3ccsc3c(=O)n2Cc2ccc(C(=O)[N-]Cc3ccc(Cl)cc3)cc2)cc1F (protonated)
Cc1ccc(NC(=O)CSc2nc3ccsc3c(=O)n2Cc2ccc(C(=O)[N-]Cc3ccc(Cl)cc3)cc2)cc1F (3D coordinates assigned)
Cc1ccc(NC(=O)CSc2nc3ccsc3c(=O)n2Cc2ccc(C(=O)[N-]Cc3ccc(Cl)cc3)cc2)cc1F (optimized conformer: 98.02237637325598 kcal/mol)

>  <smiles>  (16) 
Cc1ccc(NC(=O)CSc2nc3ccsc3c(=O)n2Cc2ccc(C(=O)NCc3ccc(Cl)cc3)cc2)cc1F

>  <score_type>  (16) 
oracle

>  <origin>  (16) 
adg

>  <m_score__min__energy>  (16) 
-11.65

>  <m_primary>  (16) 
energy

$$$$
16:0
     RDKit          3D

 54 56  0  0  0  0  0  0  0  0999 V2000
   59.7660   35.5320   45.9760 C   0  0  0  0  0  0  0  0  0  0  0  0
   60.1250   34.7780   47.1310 O   0  0  0  0  0  0  0  0  0  0  0  0
   60.0240   33.3800   47.2320 C   0  0  0  0  0  0  0  0  0  0  0  0
   61.1490   32.5670   47.4670 C   0  0  0  0  0  0  0  0  0  0  0  0
   61.0060   31.1820   47.5820 C   0  0  0  0  0  0  0  0  0  0  0  0
   59.7440   30.5910   47.4710 C   0  0  0  0  0  0  0  0  0  0  0  0
   59.5620   28.8450   47.6860 S   0  0  0  0  0  0  0  0  0  0  0  0
   58.3100   28.5650   48.4740 O   0  0  0  0  0  0  0  0  0  0  0  0
   60.7280   28.3310   48.4920 O   0  0  0  0  0  0  0  0  0  0  0  0
   59.5070   28.0130   46.1400 N   0  0  2  0  0  0  0  0  0  0  0  0
   60.5730   26.9800   46.1040 C   0  0  0  0  0  0  0  0  0  0  0  0
   60.0030   25.5890   46.1080 C   0  0  0  0  0  0  0  0  0  0  0  0
   60.7670   24.6070   45.9070 O   0  0  0  0  0  0  0  0  0  0  0  0
   58.5940   25.3970   46.2830 N   0  0  0  0  0  0  0  0  0  0  0  0
   57.7320   24.5760   45.4770 C   0  0  0  0  0  0  0  0  0  0  0  0
   58.2170   23.3870   44.8900 C   0  0  0  0  0  0  0  0  0  0  0  0
   57.3720   22.5720   44.1350 C   0  0  0  0  0  0  0  0  0  0  0  0
   56.0300   22.9200   43.9730 C   0  0  0  0  0  0  0  0  0  0  0  0
   55.5240   24.0790   44.5740 C   0  0  0  0  0  0  0  0  0  0  0  0
   56.3580   24.9190   45.3350 C   0  0  0  0  0  0  0  0  0  0  0  0
   55.7700   26.1430   45.9550 C   0  0  0  0  0  0  0  0  0  0  0  0
   56.5030   27.0470   46.4410 O   0  0  0  0  0  0  0  0  0  0  0  0
   54.3890   26.3140   45.9930 O   0  0  0  0  0  0  0  0  0  0  0  0
   59.6630   28.9730   45.0170 C   0  0  0  0  0  0  0  0  0  0  0  0
   58.3450   29.5400   44.5640 C   0  0  0  0  0  0  0  0  0  0  0  0
   58.1660   30.7070   43.8450 C   0  0  0  0  0  0  0  0  0  0  0  0
   56.8040   30.8290   43.6690 C   0  0  0  0  0  0  0  0  0  0  0  0
   56.2380   29.7350   44.2950 C   0  0  0  0  0  0  0  0  0  0  0  0
   57.1820   28.9820   44.8160 O   0  0  0  0  0  0  0  0  0  0  0  0
   58.6230   31.3930   47.2140 C   0  0  0  0  0  0  0  0  0  0  0  0
   58.7580   32.7900   47.0910 C   0  0  0  0  0  0  0  0  0  0  0  0
   57.6590   33.6240   46.8380 O   0  0  0  0  0  0  0  0  0  0  0  0
   57.0600   33.7970   45.5550 C   0  0  0  0  0  0  0  0  0  0  0  0
   59.3124   36.4848   46.2865 H   0  0  0  0  0  0  0  0  0  0  0  0
   60.6652   35.7327   45.3750 H   0  0  0  0  0  0  0  0  0  0  0  0
   59.0434   34.9605   45.3750 H   0  0  0  0  0  0  0  0  0  0  0  0
   62.1451   33.0243   47.5605 H   0  0  0  0  0  0  0  0  0  0  0  0
   61.8908   30.5534   47.7608 H   0  0  0  0  0  0  0  0  0  0  0  0
   58.5690   27.5440   46.0790 H   0  0  0  0  0  0  0  0  0  0  0  0
   61.1709   27.1171   45.1909 H   0  0  0  0  0  0  0  0  0  0  0  0
   61.1936   27.0977   47.0045 H   0  0  0  0  0  0  0  0  0  0  0  0
   59.2699   23.1005   45.0289 H   0  0  0  0  0  0  0  0  0  0  0  0
   57.7634   21.6562   43.6680 H   0  0  0  0  0  0  0  0  0  0  0  0
   55.3673   22.2812   43.3708 H   0  0  0  0  0  0  0  0  0  0  0  0
   54.4617   24.3360   44.4498 H   0  0  0  0  0  0  0  0  0  0  0  0
   60.3097   29.7999   45.3456 H   0  0  0  0  0  0  0  0  0  0  0  0
   60.1054   28.4300   44.1688 H   0  0  0  0  0  0  0  0  0  0  0  0
   58.9469   31.3945   43.4879 H   0  0  0  0  0  0  0  0  0  0  0  0
   56.2752   31.6341   43.1379 H   0  0  0  0  0  0  0  0  0  0  0  0
   55.1595   29.5253   44.3494 H   0  0  0  0  0  0  0  0  0  0  0  0
   57.6316   30.9284   47.1077 H   0  0  0  0  0  0  0  0  0  0  0  0
   56.0099   34.1003   45.6785 H   0  0  0  0  0  0  0  0  0  0  0  0
   57.6033   34.5749   44.9986 H   0  0  0  0  0  0  0  0  0  0  0  0
   57.1049   32.8492   44.9986 H   0  0  0  0  0  0  0  0  0  0  0  0
  1  2  1  0
  2  3  1  0
  3  4  2  0
  4  5  1  0
  5  6  2  0
  6  7  1  0
  7  8  2  0
  7  9  2  0
  7 10  1  0
 10 11  1  0
 11 12  1  0
 12 13  2  0
 12 14  1  0
 14 15  1  0
 15 16  2  0
 16 17  1  0
 17 18  2  0
 18 19  1  0
 19 20  2  0
 20 21  1  0
 21 22  2  0
 21 23  1  0
 10 24  1  0
 24 25  1  0
 25 26  2  0
 26 27  1  0
 27 28  2  0
 28 29  1  0
  6 30  1  0
 30 31  2  0
 31 32  1  0
 32 33  1  0
 31  3  1  0
 20 15  1  0
 29 25  1  0
  1 34  1  0
  1 35  1  0
  1 36  1  0
  4 37  1  0
  5 38  1  0
 10 39  1  6
 11 40  1  0
 11 41  1  0
 16 42  1  0
 17 43  1  0
 18 44  1  0
 19 45  1  0
 24 46  1  0
 24 47  1  0
 26 48  1  0
 27 49  1  0
 28 50  1  0
 30 51  1  0
 33 52  1  0
 33 53  1  0
 33 54  1  0
M  CHG  3  10   1  14  -1  23  -1
M  END
>  <UniqueID>  (17) 
17

>  <SMILES>  (17) 
COc1ccc(S(=O)(=O)[N@H+](CC(=O)[N-]c2ccccc2C(=O)[O-])Cc2ccco2)cc1OC

>  <Energy>  (17) 
86.94740521473084

>  <Genealogy>  (17) 
COc1ccc(S(=O)(=O)[NH+](CC(=O)[N-]c2ccccc2C(=O)[O-])Cc2ccco2)cc1OC (protonated)
COc1ccc(S(=O)(=O)[N@H+](CC(=O)[N-]c2ccccc2C(=O)[O-])Cc2ccco2)cc1OC (chirality)
COc1ccc(S(=O)(=O)[N@H+](CC(=O)[N-]c2ccccc2C(=O)[O-])Cc2ccco2)cc1OC (3D coordinates assigned)
COc1ccc(S(=O)(=O)[N@H+](CC(=O)[N-]c2ccccc2C(=O)[O-])Cc2ccco2)cc1OC (optimized conformer: 86.94740521473084 kcal/mol)

>  <smiles>  (17) 
COc1ccc(S(=O)(=O)N(CC(=O)Nc2ccccc2C(=O)O)Cc2ccco2)cc1OC

>  <score_type>  (17) 
oracle

>  <origin>  (17) 
adg

>  <m_score__min__energy>  (17) 
-10.52

>  <m_primary>  (17) 
energy

$$$$
17:0
     RDKit          3D

 60 63  0  0  0  0  0  0  0  0999 V2000
   59.6500   35.5120   46.5840 C   0  0  0  0  0  0  0  0  0  0  0  0
   58.9090   34.3830   45.9320 C   0  0  0  0  0  0  0  0  0  0  0  0
   58.1130   33.5150   46.6910 C   0  0  0  0  0  0  0  0  0  0  0  0
   57.4520   32.4480   46.0760 C   0  0  0  0  0  0  0  0  0  0  0  0
   57.5910   32.2240   44.6970 C   0  0  0  0  0  0  0  0  0  0  0  0
   56.9120   31.0540   44.0340 C   0  0  0  0  0  0  0  0  0  0  0  0
   57.8170   29.9040   43.9790 N   0  0  0  0  0  0  0  0  0  0  0  0
   58.2200   29.1310   45.1280 C   0  0  0  0  0  0  0  0  0  0  0  0
   57.8780   27.7690   45.1950 C   0  0  0  0  0  0  0  0  0  0  0  0
   58.2600   26.9950   46.2940 C   0  0  0  0  0  0  0  0  0  0  0  0
   58.9860   27.5710   47.3370 C   0  0  0  0  0  0  0  0  0  0  0  0
   59.3360   28.9220   47.2840 C   0  0  0  0  0  0  0  0  0  0  0  0
   60.0740   29.4830   48.3290 O   0  0  0  0  0  0  0  0  0  0  0  0
   59.6830   29.4350   49.6760 C   0  0  0  0  0  0  0  0  0  0  0  0
   60.3710   28.6720   50.6380 C   0  0  0  0  0  0  0  0  0  0  0  0
   59.9000   28.5960   51.9570 C   0  0  0  0  0  0  0  0  0  0  0  0
   60.6370   27.7980   52.9910 C   0  0  0  0  0  0  0  0  0  0  0  0
   58.7500   29.3060   52.3200 C   0  0  0  0  0  0  0  0  0  0  0  0
   58.0610   30.0800   51.3740 C   0  0  0  0  0  0  0  0  0  0  0  0
   56.8200   30.7990   51.7470 C   0  0  0  0  0  0  0  0  0  0  0  0
   56.5760   31.9230   51.2320 O   0  0  0  0  0  0  0  0  0  0  0  0
   55.8900   30.2590   52.6990 N   0  0  0  0  0  0  0  0  0  0  0  0
   54.4720   30.1360   52.5060 C   0  0  0  0  0  0  0  0  0  0  0  0
   53.8490   28.9250   52.8250 C   0  0  0  0  0  0  0  0  0  0  0  0
   52.4720   28.7730   52.6460 C   0  0  0  0  0  0  0  0  0  0  0  0
   51.7050   29.8370   52.1610 C   0  0  0  0  0  0  0  0  0  0  0  0
   52.3050   31.0720   51.8600 C   0  0  0  0  0  0  0  0  0  0  0  0
   51.4900   32.2070   51.3550 C   0  0  0  0  0  0  0  0  0  0  0  0
   50.4330   32.7490   52.1430 N   0  0  0  0  0  0  0  0  0  0  0  0
   51.7250   32.7040   50.2200 O   0  0  0  0  0  0  0  0  0  0  0  0
   53.6930   31.2160   52.0450 C   0  0  0  0  0  0  0  0  0  0  0  0
   58.5450   30.1480   50.0580 C   0  0  0  0  0  0  0  0  0  0  0  0
   58.9430   29.7050   46.1920 C   0  0  0  0  0  0  0  0  0  0  0  0
   58.3860   33.0950   43.9370 C   0  0  0  0  0  0  0  0  0  0  0  0
   59.0470   34.1620   44.5540 C   0  0  0  0  0  0  0  0  0  0  0  0
   59.5838   35.4111   47.6774 H   0  0  0  0  0  0  0  0  0  0  0  0
   60.7058   35.4837   46.2765 H   0  0  0  0  0  0  0  0  0  0  0  0
   59.2040   36.4694   46.2765 H   0  0  0  0  0  0  0  0  0  0  0  0
   58.0079   33.6738   47.7744 H   0  0  0  0  0  0  0  0  0  0  0  0
   56.8183   31.7790   46.6767 H   0  0  0  0  0  0  0  0  0  0  0  0
   56.0146   30.7820   44.6090 H   0  0  0  0  0  0  0  0  0  0  0  0
   56.6318   31.3375   43.0088 H   0  0  0  0  0  0  0  0  0  0  0  0
   58.2550   29.6840   43.0530 H   0  0  0  0  0  0  0  0  0  0  0  0
   57.3054   27.3091   44.3761 H   0  0  0  0  0  0  0  0  0  0  0  0
   57.9879   25.9300   46.3369 H   0  0  0  0  0  0  0  0  0  0  0  0
   59.2831   26.9602   48.2022 H   0  0  0  0  0  0  0  0  0  0  0  0
   61.2854   28.1310   50.3532 H   0  0  0  0  0  0  0  0  0  0  0  0
   60.3321   28.1282   53.9950 H   0  0  0  0  0  0  0  0  0  0  0  0
   60.4000   26.7309   52.8682 H   0  0  0  0  0  0  0  0  0  0  0  0
   61.7196   27.9496   52.8682 H   0  0  0  0  0  0  0  0  0  0  0  0
   58.3831   29.2569   53.3558 H   0  0  0  0  0  0  0  0  0  0  0  0
   54.4458   28.0889   53.2184 H   0  0  0  0  0  0  0  0  0  0  0  0
   51.9899   27.8141   52.8871 H   0  0  0  0  0  0  0  0  0  0  0  0
   50.6228   29.7063   52.0138 H   0  0  0  0  0  0  0  0  0  0  0  0
   50.1550   33.7480   52.0510 H   0  0  0  0  0  0  0  0  0  0  0  0
   54.1742   32.1810   51.8276 H   0  0  0  0  0  0  0  0  0  0  0  0
   58.0209   30.7710   49.3183 H   0  0  0  0  0  0  0  0  0  0  0  0
   59.2002   30.7742   46.1647 H   0  0  0  0  0  0  0  0  0  0  0  0
   58.4897   32.9383   42.8532 H   0  0  0  0  0  0  0  0  0  0  0  0
   59.6797   34.8327   43.9541 H   0  0  0  0  0  0  0  0  0  0  0  0
  1  2  1  0
  2  3  2  0
  3  4  1  0
  4  5  2  0
  5  6  1  0
  6  7  1  0
  7  8  1  0
  8  9  2  0
  9 10  1  0
 10 11  2  0
 11 12  1  0
 12 13  1  0
 13 14  1  0
 14 15  2  0
 15 16  1  0
 16 17  1  0
 16 18  2  0
 18 19  1  0
 19 20  1  0
 20 21  2  0
 20 22  1  0
 22 23  1  0
 23 24  2  0
 24 25  1  0
 25 26  2  0
 26 27  1  0
 27 28  1  0
 28 29  1  0
 28 30  2  0
 27 31  2  0
 19 32  2  0
 12 33  2  0
  5 34  1  0
 34 35  2  0
 35  2  1  0
 33  8  1  0
 32 14  1  0
 31 23  1  0
  1 36  1  0
  1 37  1  0
  1 38  1  0
  3 39  1  0
  4 40  1  0
  6 41  1  0
  6 42  1  0
  7 43  1  0
  9 44  1  0
 10 45  1  0
 11 46  1  0
 15 47  1  0
 17 48  1  0
 17 49  1  0
 17 50  1  0
 18 51  1  0
 24 52  1  0
 25 53  1  0
 26 54  1  0
 29 55  1  0
 31 56  1  0
 32 57  1  0
 33 58  1  0
 34 59  1  0
 35 60  1  0
M  CHG  2  22  -1  29  -1
M  END
>  <UniqueID>  (18) 
18

>  <SMILES>  (18) 
Cc1ccc(CNc2cccc(Oc3cc(C)cc(C(=O)[N-]c4cccc(C([NH-])=O)c4)c3)c2)cc1

>  <Energy>  (18) 
74.71422862249412

>  <Genealogy>  (18) 
Cc1ccc(CNc2cccc(Oc3cc(C)cc(C(=O)[N-]c4cccc(C([NH-])=O)c4)c3)c2)cc1 (protonated)
Cc1ccc(CNc2cccc(Oc3cc(C)cc(C(=O)[N-]c4cccc(C([NH-])=O)c4)c3)c2)cc1 (3D coordinates assigned)
Cc1ccc(CNc2cccc(Oc3cc(C)cc(C(=O)[N-]c4cccc(C([NH-])=O)c4)c3)c2)cc1 (optimized conformer: 74.71422862249412 kcal/mol)

>  <smiles>  (18) 
Cc1ccc(CNc2cccc(Oc3cc(C)cc(C(=O)Nc4cccc(C(N)=O)c4)c3)c2)cc1

>  <score_type>  (18) 
oracle

>  <origin>  (18) 
adg

>  <m_score__min__energy>  (18) 
-14.94

>  <m_primary>  (18) 
energy

$$$$
18:0
     RDKit          3D

 60 62  0  0  0  0  0  0  0  0999 V2000
   54.5610   29.3400   45.1360 H   0  0  0  0  0  0  0  0  0  0  0  0
   55.5190   28.9260   45.1970 N   0  0  0  0  0  0  0  0  0  0  0  0
   56.5340   29.8390   44.1350 S   0  0  0  0  0  0  0  0  0  0  0  0
   55.9240   29.8180   42.7640 O   0  0  0  0  0  0  0  0  0  0  0  0
   56.6270   31.2610   44.6040 O   0  0  0  0  0  0  0  0  0  0  0  0
   58.1410   29.1220   44.0480 C   0  0  0  0  0  0  0  0  0  0  0  0
   58.3477   28.4444   43.2065 H   0  0  0  0  0  0  0  0  0  0  0  0
   59.1320   29.3360   44.9250 C   0  0  0  0  0  0  0  0  0  0  0  0
   60.1621   29.2437   44.5504 H   0  0  0  0  0  0  0  0  0  0  0  0
   58.9620   29.6850   46.3510 C   0  0  0  0  0  0  0  0  0  0  0  0
   58.6990   31.0010   46.7600 C   0  0  0  0  0  0  0  0  0  0  0  0
   58.5699   31.7917   46.0063 H   0  0  0  0  0  0  0  0  0  0  0  0
   58.6000   31.3140   48.1170 C   0  0  0  0  0  0  0  0  0  0  0  0
   58.3685   32.3446   48.4240 H   0  0  0  0  0  0  0  0  0  0  0  0
   58.7930   30.3270   49.0890 C   0  0  0  0  0  0  0  0  0  0  0  0
   58.6740   30.7370   50.8040 S   0  0  0  0  0  0  0  0  0  0  0  0
   57.4740   30.0480   51.3950 O   0  0  0  0  0  0  0  0  0  0  0  0
   58.4800   32.2200   50.9700 O   0  0  0  0  0  0  0  0  0  0  0  0
   60.0820   30.1840   51.6670 N   0  0  0  0  0  0  0  0  0  0  0  0
   59.9930   29.2510   52.1310 H   0  0  0  0  0  0  0  0  0  0  0  0
   61.3900   30.7810   51.5850 C   0  0  0  0  0  0  0  0  0  0  0  0
   62.5020   29.9540   51.3520 C   0  0  0  0  0  0  0  0  0  0  0  0
   62.3587   28.8701   51.2306 H   0  0  0  0  0  0  0  0  0  0  0  0
   63.7880   30.4950   51.2730 C   0  0  0  0  0  0  0  0  0  0  0  0
   64.6480   29.8362   51.0820 H   0  0  0  0  0  0  0  0  0  0  0  0
   63.9880   31.8740   51.4360 C   0  0  0  0  0  0  0  0  0  0  0  0
   65.3620   32.4710   51.2680 C   0  0  0  0  0  0  0  0  0  0  0  0
   65.4065   33.4276   51.8092 H   0  0  0  0  0  0  0  0  0  0  0  0
   66.1015   31.7635   51.6711 H   0  0  0  0  0  0  0  0  0  0  0  0
   65.6800   32.7170   49.7920 C   0  0  0  0  0  0  0  0  0  0  0  0
   65.9919   33.7631   49.6563 H   0  0  0  0  0  0  0  0  0  0  0  0
   66.4906   32.0418   49.4806 H   0  0  0  0  0  0  0  0  0  0  0  0
   64.4890   32.4530   48.9680 N   0  0  0  0  0  0  0  0  0  0  0  0
   64.7960   31.9160   48.1230 H   0  0  0  0  0  0  0  0  0  0  0  0
   63.8240   33.6830   48.5110 C   0  0  0  0  0  0  0  0  0  0  0  0
   63.0962   34.0034   49.2710 H   0  0  0  0  0  0  0  0  0  0  0  0
   64.5866   34.4612   48.3596 H   0  0  0  0  0  0  0  0  0  0  0  0
   63.0870   33.4430   47.1720 C   0  0  1  0  0  0  0  0  0  0  0  0
   63.5806   34.0891   46.4310 H   0  0  0  0  0  0  0  0  0  0  0  0
   63.1980   32.1070   46.7500 O   0  0  0  0  0  0  0  0  0  0  0  0
   64.1180   31.8030   46.9440 H   0  0  0  0  0  0  0  0  0  0  0  0
   61.6260   33.8370   47.2460 C   0  0  0  0  0  0  0  0  0  0  0  0
   61.0220   34.1430   48.4800 C   0  0  0  0  0  0  0  0  0  0  0  0
   61.6263   34.1454   49.3991 H   0  0  0  0  0  0  0  0  0  0  0  0
   59.6580   34.4440   48.5440 C   0  0  0  0  0  0  0  0  0  0  0  0
   59.1935   34.6829   49.5121 H   0  0  0  0  0  0  0  0  0  0  0  0
   58.8840   34.4420   47.3810 C   0  0  0  0  0  0  0  0  0  0  0  0
   57.8113   34.6800   47.4337 H   0  0  0  0  0  0  0  0  0  0  0  0
   59.4720   34.1380   46.1520 C   0  0  0  0  0  0  0  0  0  0  0  0
   58.8627   34.1408   45.2362 H   0  0  0  0  0  0  0  0  0  0  0  0
   60.8340   33.8300   46.0830 C   0  0  0  0  0  0  0  0  0  0  0  0
   61.2894   33.5806   45.1133 H   0  0  0  0  0  0  0  0  0  0  0  0
   62.8830   32.7020   51.6770 C   0  0  0  0  0  0  0  0  0  0  0  0
   63.0285   33.7855   51.7993 H   0  0  0  0  0  0  0  0  0  0  0  0
   61.5970   32.1600   51.7630 C   0  0  0  0  0  0  0  0  0  0  0  0
   60.7404   32.8179   51.9716 H   0  0  0  0  0  0  0  0  0  0  0  0
   59.0780   29.0130   48.6840 C   0  0  0  0  0  0  0  0  0  0  0  0
   59.2295   28.2277   49.4392 H   0  0  0  0  0  0  0  0  0  0  0  0
   59.1700   28.6990   47.3250 C   0  0  0  0  0  0  0  0  0  0  0  0
   59.4075   27.6699   47.0176 H   0  0  0  0  0  0  0  0  0  0  0  0
  1  2  1  0
  2  3  1  0
  3  4  2  0
  3  5  2  0
  3  6  1  0
  6  7  1  0
  6  8  2  0
  8  9  1  0
  8 10  1  0
 10 11  2  0
 11 12  1  0
 11 13  1  0
 13 14  1  0
 13 15  2  0
 15 16  1  0
 16 17  2  0
 16 18  2  0
 16 19  1  0
 19 20  1  0
 19 21  1  0
 21 22  2  0
 22 23  1  0
 22 24  1  0
 24 25  1  0
 24 26  2  0
 26 27  1  0
 27 28  1  0
 27 29  1  0
 27 30  1  0
 30 31  1  0
 30 32  1  0
 30 33  1  0
 33 34  1  0
 33 35  1  0
 35 36  1  0
 35 37  1  0
 35 38  1  0
 38 39  1  6
 38 40  1  0
 40 41  1  0
 38 42  1  0
 42 43  2  0
 43 44  1  0
 43 45  1  0
 45 46  1  0
 45 47  2  0
 47 48  1  0
 47 49  1  0
 49 50  1  0
 49 51  2  0
 51 52  1  0
 26 53  1  0
 53 54  1  0
 53 55  2  0
 55 56  1  0
 15 57  1  0
 57 58  1  0
 57 59  2  0
 59 60  1  0
 59 10  1  0
 55 21  1  0
 51 42  1  0
M  CHG  1   2  -1
M  END
>  <UniqueID>  (19) 
19

>  <SMILES>  (19) 
[NH-]S(=O)(=O)/C=C\c1ccc(S(=O)(=O)Nc2ccc(CCNC[C@@H](O)c3ccccc3)cc2)cc1

>  <Energy>  (19) 
65.33386151226328

>  <Genealogy>  (19) 
[NH-]S(=O)(=O)C=Cc1ccc(S(=O)(=O)Nc2ccc(CCNCC(O)c3ccccc3)cc2)cc1 (protonated)
[NH-]S(=O)(=O)C=Cc1ccc(S(=O)(=O)Nc2ccc(CCNC[C@@H](O)c3ccccc3)cc2)cc1 (chirality)
[NH-]S(=O)(=O)/C=C\c1ccc(S(=O)(=O)Nc2ccc(CCNC[C@@H](O)c3ccccc3)cc2)cc1 (cis-trans isomerization)
[NH-]S(=O)(=O)/C=C\c1ccc(S(=O)(=O)Nc2ccc(CCNC[C@@H](O)c3ccccc3)cc2)cc1 (3D coordinates assigned)
[NH-]S(=O)(=O)/C=C\c1ccc(S(=O)(=O)Nc2ccc(CCNC[C@@H](O)c3ccccc3)cc2)cc1 (optimized conformer: 65.33386151226328 kcal/mol)

>  <smiles>  (19) 
NS(=O)(=O)C=Cc1ccc(S(=O)(=O)Nc2ccc(CCNCC(O)c3ccccc3)cc2)cc1

>  <score_type>  (19) 
oracle

>  <origin>  (19) 
adg

>  <m_score__min__energy>  (19) 
-13.539999999999999

>  <m_primary>  (19) 
energy

$$$$
19:0
     RDKit          3D

 19 20  0  0  0  0  0  0  0  0999 V2000
   58.7110   29.4670   45.5370 Cl  0  0  0  0  0  0  0  0  0  0  0  0
   58.3620   31.1810   45.6360 C   0  0  0  0  0  0  0  0  0  0  0  0
   59.2970   32.1080   46.1420 C   0  0  0  0  0  0  0  0  0  0  0  0
   58.8160   33.4070   46.1330 C   0  0  0  0  0  0  0  0  0  0  0  0
   59.6620   34.8850   46.6810 S   0  0  0  0  0  0  0  0  0  0  0  0
   61.1050   33.9670   47.2330 C   0  0  0  0  0  0  0  0  0  0  0  0
   62.2010   33.8460   46.3680 C   0  0  0  0  0  0  0  0  0  0  0  0
   63.3410   33.1440   46.7690 C   0  0  0  0  0  0  0  0  0  0  0  0
   63.3890   32.5540   48.0340 C   0  0  0  0  0  0  0  0  0  0  0  0
   62.2970   32.6630   48.8990 C   0  0  0  0  0  0  0  0  0  0  0  0
   61.1510   33.3650   48.5060 C   0  0  0  0  0  0  0  0  0  0  0  0
   59.6760   33.4630   49.7260 Br  0  0  0  0  0  0  0  0  0  0  0  0
   57.2800   33.3210   45.4970 S   0  0  0  0  0  0  0  0  0  0  0  0
   57.1700   31.6850   45.2240 N   0  0  0  0  0  0  0  0  0  0  0  0
   60.2979   31.8300   46.5039 H   0  0  0  0  0  0  0  0  0  0  0  0
   62.1638   34.3055   45.3693 H   0  0  0  0  0  0  0  0  0  0  0  0
   64.2006   33.0561   46.0882 H   0  0  0  0  0  0  0  0  0  0  0  0
   64.2872   32.0030   48.3497 H   0  0  0  0  0  0  0  0  0  0  0  0
   62.3379   32.1950   49.8936 H   0  0  0  0  0  0  0  0  0  0  0  0
  1  2  1  0
  2  3  1  0
  3  4  2  0
  4  5  1  0
  5  6  1  0
  6  7  2  0
  7  8  1  0
  8  9  2  0
  9 10  1  0
 10 11  2  0
 11 12  1  0
  4 13  1  0
 13 14  1  0
 14  2  2  0
 11  6  1  0
  3 15  1  0
  7 16  1  0
  8 17  1  0
  9 18  1  0
 10 19  1  0
M  END
>  <UniqueID>  (20) 
20

>  <SMILES>  (20) 
Clc1cc(Sc2ccccc2Br)sn1

>  <Energy>  (20) 
48.59824941016169

>  <Genealogy>  (20) 
Clc1cc(Sc2ccccc2Br)sn1 (3D coordinates assigned)
Clc1cc(Sc2ccccc2Br)sn1 (optimized conformer: 48.59824941016169 kcal/mol)

>  <smiles>  (20) 
Clc1cc(Sc2ccccc2Br)sn1

>  <score_type>  (20) 
oracle

>  <origin>  (20) 
adg

>  <m_score__min__energy>  (20) 
-6.5599999999999996

>  <m_primary>  (20) 
energy

$$$$
20:0
     RDKit          3D

 31 32  0  0  0  0  0  0  0  0999 V2000
   63.7930   33.3980   47.9040 C   0  0  0  0  0  0  0  0  0  0  0  0
   62.5580   32.7970   47.3180 C   0  0  0  0  0  0  0  0  0  0  0  0
   62.4960   31.5490   47.1520 O   0  0  0  0  0  0  0  0  0  0  0  0
   61.4970   33.6470   46.8640 N   0  0  0  0  0  0  0  0  0  0  0  0
   60.2120   33.1590   46.4660 C   0  0  0  0  0  0  0  0  0  0  0  0
   59.6250   31.9170   46.2720 C   0  0  0  0  0  0  0  0  0  0  0  0
   60.0510   30.5590   46.4370 N   0  0  0  0  0  0  0  0  0  0  0  0
   59.1570   29.4390   46.3770 C   0  0  0  0  0  0  0  0  0  0  0  0
   58.4270   29.1490   45.2110 C   0  0  0  0  0  0  0  0  0  0  0  0
   57.5790   28.0390   45.1670 C   0  0  0  0  0  0  0  0  0  0  0  0
   57.4630   27.1930   46.2780 C   0  0  0  0  0  0  0  0  0  0  0  0
   56.3840   25.8030   46.2240 S   0  0  0  0  0  0  0  0  0  0  0  0
   54.7580   26.3440   46.0070 N   0  0  0  0  0  0  0  0  0  0  0  0
   56.7700   24.9020   45.0840 O   0  0  0  0  0  0  0  0  0  0  0  0
   56.4850   25.0280   47.5070 O   0  0  0  0  0  0  0  0  0  0  0  0
   58.2010   27.4710   47.4360 C   0  0  0  0  0  0  0  0  0  0  0  0
   59.0500   28.5800   47.4810 C   0  0  0  0  0  0  0  0  0  0  0  0
   58.4360   32.5390   45.9330 C   0  0  0  0  0  0  0  0  0  0  0  0
   57.2850   32.1490   45.6020 O   0  0  0  0  0  0  0  0  0  0  0  0
   59.0180   33.7710   46.1370 C   0  0  0  0  0  0  0  0  0  0  0  0
   58.6240   34.9650   46.0600 O   0  0  0  0  0  0  0  0  0  0  0  0
   63.7303   33.3675   49.0018 H   0  0  0  0  0  0  0  0  0  0  0  0
   64.6722   32.8270   47.5709 H   0  0  0  0  0  0  0  0  0  0  0  0
   63.8862   34.4422   47.5709 H   0  0  0  0  0  0  0  0  0  0  0  0
   61.6820   34.6700   46.7650 H   0  0  0  0  0  0  0  0  0  0  0  0
   61.0390   30.3950   46.7320 H   0  0  0  0  0  0  0  0  0  0  0  0
   58.5238   29.7990   44.3289 H   0  0  0  0  0  0  0  0  0  0  0  0
   56.9998   27.8284   44.2558 H   0  0  0  0  0  0  0  0  0  0  0  0
   54.5860   27.0900   46.7170 H   0  0  0  0  0  0  0  0  0  0  0  0
   58.1117   26.8136   48.3134 H   0  0  0  0  0  0  0  0  0  0  0  0
   59.6385   28.7809   48.3884 H   0  0  0  0  0  0  0  0  0  0  0  0
  1  2  1  0
  2  3  2  0
  2  4  1  0
  4  5  1  0
  5  6  2  0
  6  7  1  0
  7  8  1  0
  8  9  2  0
  9 10  1  0
 10 11  2  0
 11 12  1  0
 12 13  1  0
 12 14  2  0
 12 15  2  0
 11 16  1  0
 16 17  2  0
  6 18  1  0
 18 19  2  0
 18 20  1  0
 20 21  2  0
 20  5  1  0
 17  8  1  0
  1 22  1  0
  1 23  1  0
  1 24  1  0
  4 25  1  0
  7 26  1  0
  9 27  1  0
 10 28  1  0
 13 29  1  0
 16 30  1  0
 17 31  1  0
M  CHG  1  13  -1
M  END
>  <UniqueID>  (21) 
21

>  <SMILES>  (21) 
CC(=O)Nc1c(Nc2ccc(S([NH-])(=O)=O)cc2)c(=O)c1=O

>  <Energy>  (21) 
24.033086085382205

>  <Genealogy>  (21) 
CC(=O)Nc1c(Nc2ccc(S([NH-])(=O)=O)cc2)c(=O)c1=O (protonated)
CC(=O)Nc1c(Nc2ccc(S([NH-])(=O)=O)cc2)c(=O)c1=O (3D coordinates assigned)
CC(=O)Nc1c(Nc2ccc(S([NH-])(=O)=O)cc2)c(=O)c1=O (optimized conformer: 24.033086085382205 kcal/mol)

>  <smiles>  (21) 
CC(=O)Nc1c(Nc2ccc(S(N)(=O)=O)cc2)c(=O)c1=O

>  <score_type>  (21) 
oracle

>  <origin>  (21) 
adg

>  <m_score__min__energy>  (21) 
-9.7300000000000004

>  <m_primary>  (21) 
energy

$$$$
21:0
     RDKit          3D

 44 46  0  0  0  0  0  0  0  0999 V2000
   59.9840   34.5760   46.0510 C   0  0  0  0  0  0  0  0  0  0  0  0
   60.2520   34.2040   47.4750 C   0  0  0  0  0  0  0  0  0  0  0  0
   59.6640   34.7880   48.5350 N   0  0  0  0  0  0  0  0  0  0  0  0
   60.1420   34.2460   49.6150 O   0  0  0  0  0  0  0  0  0  0  0  0
   61.0340   33.3290   49.3160 C   0  0  0  0  0  0  0  0  0  0  0  0
   61.7670   32.5080   50.3250 C   0  0  0  0  0  0  0  0  0  0  0  0
   61.1670   33.2720   47.9370 C   0  0  0  0  0  0  0  0  0  0  0  0
   62.0330   32.3440   47.1330 C   0  0  0  0  0  0  0  0  0  0  0  0
   61.7060   30.9790   47.3930 O   0  0  0  0  0  0  0  0  0  0  0  0
   60.5630   30.3140   46.9200 C   0  0  0  0  0  0  0  0  0  0  0  0
   60.5050   29.7120   45.6500 C   0  0  0  0  0  0  0  0  0  0  0  0
   59.3390   29.0680   45.2260 C   0  0  0  0  0  0  0  0  0  0  0  0
   58.2090   29.0110   46.0610 C   0  0  0  0  0  0  0  0  0  0  0  0
   56.9740   28.3280   45.6110 C   0  0  0  0  0  0  0  0  0  0  0  0
   56.9350   27.0690   45.5480 O   0  0  0  0  0  0  0  0  0  0  0  0
   55.8210   29.0940   45.2410 N   0  0  0  0  0  0  0  0  0  0  0  0
   55.6470   29.7130   43.9320 C   0  0  0  0  0  0  0  0  0  0  0  0
   56.6050   30.8610   43.7670 C   0  0  0  0  0  0  0  0  0  0  0  0
   57.0950   31.2150   42.5010 C   0  0  0  0  0  0  0  0  0  0  0  0
   57.9660   32.2970   42.3690 C   0  0  0  0  0  0  0  0  0  0  0  0
   58.3370   33.0210   43.5050 C   0  0  0  0  0  0  0  0  0  0  0  0
   57.8490   32.6700   44.7250 N   0  0  0  0  0  0  0  0  0  0  0  0
   57.0000   31.6190   44.8800 C   0  0  0  0  0  0  0  0  0  0  0  0
   58.2740   29.6110   47.3300 C   0  0  0  0  0  0  0  0  0  0  0  0
   59.4410   30.2540   47.7520 C   0  0  0  0  0  0  0  0  0  0  0  0
   59.3413   35.4682   46.0198 H   0  0  0  0  0  0  0  0  0  0  0  0
   60.9356   34.7917   45.5431 H   0  0  0  0  0  0  0  0  0  0  0  0
   59.4781   33.7417   45.5431 H   0  0  0  0  0  0  0  0  0  0  0  0
   58.9430   35.5430   48.5140 H   0  0  0  0  0  0  0  0  0  0  0  0
   61.4802   32.8292   51.3372 H   0  0  0  0  0  0  0  0  0  0  0  0
   61.5104   31.4468   50.1906 H   0  0  0  0  0  0  0  0  0  0  0  0
   62.8504   32.6432   50.1906 H   0  0  0  0  0  0  0  0  0  0  0  0
   61.8844   32.5512   46.0630 H   0  0  0  0  0  0  0  0  0  0  0  0
   63.0821   32.5116   47.4180 H   0  0  0  0  0  0  0  0  0  0  0  0
   61.3819   29.7482   44.9869 H   0  0  0  0  0  0  0  0  0  0  0  0
   59.3051   28.6017   44.2303 H   0  0  0  0  0  0  0  0  0  0  0  0
   55.8382   28.9651   43.1484 H   0  0  0  0  0  0  0  0  0  0  0  0
   54.6173   30.0908   43.8484 H   0  0  0  0  0  0  0  0  0  0  0  0
   56.7928   30.6401   41.6132 H   0  0  0  0  0  0  0  0  0  0  0  0
   58.3570   32.5774   41.3798 H   0  0  0  0  0  0  0  0  0  0  0  0
   59.0240   33.8751   43.4126 H   0  0  0  0  0  0  0  0  0  0  0  0
   56.6219   31.3623   45.8806 H   0  0  0  0  0  0  0  0  0  0  0  0
   57.3996   29.5743   47.9964 H   0  0  0  0  0  0  0  0  0  0  0  0
   59.4771   30.7176   48.7489 H   0  0  0  0  0  0  0  0  0  0  0  0
  1  2  1  0
  2  3  2  0
  3  4  1  0
  4  5  1  0
  5  6  1  0
  5  7  2  0
  7  8  1  0
  8  9  1  0
  9 10  1  0
 10 11  2  0
 11 12  1  0
 12 13  2  0
 13 14  1  0
 14 15  2  0
 14 16  1  0
 16 17  1  0
 17 18  1  0
 18 19  2  0
 19 20  1  0
 20 21  2  0
 21 22  1  0
 22 23  2  0
 13 24  1  0
 24 25  2  0
  7  2  1  0
 25 10  1  0
 23 18  1  0
  1 26  1  0
  1 27  1  0
  1 28  1  0
  3 29  1  0
  6 30  1  0
  6 31  1  0
  6 32  1  0
  8 33  1  0
  8 34  1  0
 11 35  1  0
 12 36  1  0
 17 37  1  0
 17 38  1  0
 19 39  1  0
 20 40  1  0
 21 41  1  0
 23 42  1  0
 24 43  1  0
 25 44  1  0
M  CHG  2   3   1  16  -1
M  END
>  <UniqueID>  (22) 
22

>  <SMILES>  (22) 
Cc1[nH+]oc(C)c1COc1ccc(C(=O)[N-]Cc2cccnc2)cc1

>  <Energy>  (22) 
73.30075209019252

>  <Genealogy>  (22) 
Cc1[nH+]oc(C)c1COc1ccc(C(=O)[N-]Cc2cccnc2)cc1 (protonated)
Cc1[nH+]oc(C)c1COc1ccc(C(=O)[N-]Cc2cccnc2)cc1 (3D coordinates assigned)
Cc1[nH+]oc(C)c1COc1ccc(C(=O)[N-]Cc2cccnc2)cc1 (optimized conformer: 73.30075209019252 kcal/mol)

>  <smiles>  (22) 
Cc1noc(C)c1COc1ccc(C(=O)NCc2cccnc2)cc1

>  <score_type>  (22) 
oracle

>  <origin>  (22) 
adg

>  <m_score__min__energy>  (22) 
-8.2599999999999998

>  <m_primary>  (22) 
energy

$$$$
22:0
     RDKit          3D

 57 61  0  0  0  0  0  0  0  0999 V2000
   59.2160   32.9070   52.6210 N   0  0  0  0  0  0  0  0  0  0  0  0
   59.2520   33.0260   51.4710 C   0  0  0  0  0  0  0  0  0  0  0  0
   59.2970   33.1720   50.0420 C   0  0  0  0  0  0  0  0  0  0  0  0
   60.0900   34.1660   49.4560 C   0  0  0  0  0  0  0  0  0  0  0  0
   60.1300   34.2990   48.0690 C   0  0  0  0  0  0  0  0  0  0  0  0
   59.3800   33.4180   47.2650 C   0  0  0  0  0  0  0  0  0  0  0  0
   59.4040   33.4730   45.9630 N   0  0  0  0  0  0  0  0  0  0  0  0
   58.2720   33.7190   45.1100 C   0  0  0  0  0  0  0  0  0  0  0  0
   57.7080   34.8440   45.1510 O   0  0  0  0  0  0  0  0  0  0  0  0
   57.7300   32.6510   44.2370 C   0  0  0  0  0  0  0  0  0  0  0  0
   58.1430   32.5570   42.8960 C   0  0  0  0  0  0  0  0  0  0  0  0
   57.6010   31.5830   42.0540 C   0  0  0  0  0  0  0  0  0  0  0  0
   56.6680   30.6680   42.5480 C   0  0  0  0  0  0  0  0  0  0  0  0
   56.2900   30.7030   43.9030 C   0  0  0  0  0  0  0  0  0  0  0  0
   55.3510   29.6650   44.4720 C   0  0  0  0  0  0  0  0  0  0  0  0
   56.0670   28.6320   45.2220 N   0  0  0  0  0  0  0  0  0  0  0  0
   57.4530   28.2890   45.0760 C   0  0  0  0  0  0  0  0  0  0  0  0
   57.8100   27.6240   44.0690 O   0  0  0  0  0  0  0  0  0  0  0  0
   58.4810   28.7770   46.0100 C   0  0  0  0  0  0  0  0  0  0  0  0
   59.4520   29.6840   45.5600 C   0  0  0  0  0  0  0  0  0  0  0  0
   60.3850   30.2180   46.4530 C   0  0  0  0  0  0  0  0  0  0  0  0
   60.3870   29.8240   47.8020 C   0  0  0  0  0  0  0  0  0  0  0  0
   61.3700   30.4250   48.7310 C   0  0  0  0  0  0  0  0  0  0  0  0
   61.4660   30.0700   50.0380 N   0  0  0  0  0  0  0  0  0  0  0  0
   62.4160   30.7940   50.6160 N   0  0  0  0  0  0  0  0  0  0  0  0
   62.9380   31.6090   49.6760 C   0  0  0  0  0  0  0  0  0  0  0  0
   62.2900   31.4290   48.4760 C   0  0  0  0  0  0  0  0  0  0  0  0
   62.5800   32.2210   47.2300 C   0  0  0  0  0  0  0  0  0  0  0  0
   63.3610   33.5030   47.5790 C   0  0  0  0  0  0  0  0  0  0  0  0
   64.5060   33.2120   48.5820 C   0  0  0  0  0  0  0  0  0  0  0  0
   63.9590   32.6750   49.9250 C   0  0  0  0  0  0  0  0  0  0  0  0
   59.4260   28.8990   48.2440 C   0  0  0  0  0  0  0  0  0  0  0  0
   58.4780   28.3810   47.3550 C   0  0  0  0  0  0  0  0  0  0  0  0
   56.7950   31.7220   44.7320 C   0  0  0  0  0  0  0  0  0  0  0  0
   58.6100   32.4660   47.8680 N   0  0  0  0  0  0  0  0  0  0  0  0
   58.5510   32.3240   49.2190 C   0  0  0  0  0  0  0  0  0  0  0  0
   60.6817   34.8423   50.0904 H   0  0  0  0  0  0  0  0  0  0  0  0
   60.7428   35.0862   47.6055 H   0  0  0  0  0  0  0  0  0  0  0  0
   58.8985   33.2556   42.5072 H   0  0  0  0  0  0  0  0  0  0  0  0
   57.9096   31.5364   40.9992 H   0  0  0  0  0  0  0  0  0  0  0  0
   56.2273   29.9175   41.8753 H   0  0  0  0  0  0  0  0  0  0  0  0
   54.6372   30.1624   45.1451 H   0  0  0  0  0  0  0  0  0  0  0  0
   54.8327   29.1784   43.6326 H   0  0  0  0  0  0  0  0  0  0  0  0
   59.4791   29.9761   44.4998 H   0  0  0  0  0  0  0  0  0  0  0  0
   61.1231   30.9520   46.0974 H   0  0  0  0  0  0  0  0  0  0  0  0
   63.1795   31.6073   46.5416 H   0  0  0  0  0  0  0  0  0  0  0  0
   61.6281   32.5008   46.7549 H   0  0  0  0  0  0  0  0  0  0  0  0
   63.7906   33.9225   46.6573 H   0  0  0  0  0  0  0  0  0  0  0  0
   62.6653   34.2162   48.0451 H   0  0  0  0  0  0  0  0  0  0  0  0
   65.1817   32.4617   48.1455 H   0  0  0  0  0  0  0  0  0  0  0  0
   65.0408   34.1530   48.7783 H   0  0  0  0  0  0  0  0  0  0  0  0
   64.7879   32.2544   50.5132 H   0  0  0  0  0  0  0  0  0  0  0  0
   63.4887   33.5014   50.4781 H   0  0  0  0  0  0  0  0  0  0  0  0
   59.4190   28.5798   49.2967 H   0  0  0  0  0  0  0  0  0  0  0  0
   57.7276   27.6605   47.7125 H   0  0  0  0  0  0  0  0  0  0  0  0
   56.4562   31.7933   45.7761 H   0  0  0  0  0  0  0  0  0  0  0  0
   57.9169   31.5427   49.6635 H   0  0  0  0  0  0  0  0  0  0  0  0
  1  2  3  0
  2  3  1  0
  3  4  1  0
  4  5  2  0
  5  6  1  0
  6  7  2  3
  7  8  1  0
  8  9  2  0
  8 10  1  0
 10 11  2  0
 11 12  1  0
 12 13  2  0
 13 14  1  0
 14 15  1  0
 15 16  1  0
 16 17  1  0
 17 18  2  0
 17 19  1  0
 19 20  2  0
 20 21  1  0
 21 22  2  0
 22 23  1  0
 23 24  1  0
 24 25  1  0
 25 26  2  0
 26 27  1  0
 27 28  1  0
 28 29  1  0
 29 30  1  0
 30 31  1  0
 22 32  1  0
 32 33  2  0
 14 34  2  0
  6 35  1  0
 35 36  1  0
 36  3  2  0
 34 10  1  0
 33 19  1  0
 27 23  2  0
 31 26  1  0
  4 37  1  0
  5 38  1  0
 11 39  1  0
 12 40  1  0
 13 41  1  0
 15 42  1  0
 15 43  1  0
 20 44  1  0
 21 45  1  0
 28 46  1  0
 28 47  1  0
 29 48  1  0
 29 49  1  0
 30 50  1  0
 30 51  1  0
 31 52  1  0
 31 53  1  0
 32 54  1  0
 33 55  1  0
 34 56  1  0
 36 57  1  0
M  CHG  3  16  -1  24  -1  35  -1
M  END
>  <UniqueID>  (23) 
23

>  <SMILES>  (23) 
N#Cc1ccc(=NC(=O)c2cccc(C[N-]C(=O)c3ccc(-c4[n-]nc5c4CCCC5)cc3)c2)[n-]c1

>  <Energy>  (23) 
108.48895871621248

>  <Genealogy>  (23) 
N#Cc1ccc(=NC(=O)c2cccc(C[N-]C(=O)c3ccc(-c4[n-]nc5c4CCCC5)cc3)c2)[n-]c1 (protonated)
N#Cc1ccc(=NC(=O)c2cccc(C[N-]C(=O)c3ccc(-c4[n-]nc5c4CCCC5)cc3)c2)[n-]c1 (3D coordinates assigned)
N#Cc1ccc(=NC(=O)c2cccc(C[N-]C(=O)c3ccc(-c4[n-]nc5c4CCCC5)cc3)c2)[n-]c1 (nonaromatic ring conformer: 108.48895871621248 kcal/mol)

>  <smiles>  (23) 
N#Cc1ccc(=NC(=O)c2cccc(CNC(=O)c3ccc(-c4[nH]nc5c4CCCC5)cc3)c2)[nH]c1

>  <score_type>  (23) 
oracle

>  <origin>  (23) 
adg

>  <m_score__min__energy>  (23) 
-14.859999999999999

>  <m_primary>  (23) 
energy

$$$$
23:0
     RDKit          3D

 43 45  0  0  1  0  0  0  0  0999 V2000
   60.2370   29.8620   46.1600 C   0  0  0  0  0  0  0  0  0  0  0  0
   61.9810   34.6820   48.9270 N   0  0  0  0  0  0  0  0  0  0  0  0
   58.3760   30.1160   44.6980 C   0  0  0  0  0  0  0  0  0  0  0  0
   58.3940   28.8710   44.1590 N   0  0  0  0  0  0  0  0  0  0  0  0
   57.2010   28.6180   43.6480 N   0  0  0  0  0  0  0  0  0  0  0  0
   56.4070   29.6840   43.8480 C   0  0  0  0  0  0  0  0  0  0  0  0
   55.0470   29.7080   43.4350 N   0  0  0  0  0  0  0  0  0  0  0  0
   57.1210   30.6850   44.5230 C   0  0  0  0  0  0  0  0  0  0  0  0
   60.7730   34.5220   49.2530 N   0  0  0  0  0  0  0  0  0  0  0  0
   56.6830   31.9460   44.9190 N   0  0  0  0  0  0  0  0  0  0  0  0
   59.9070   34.0730   48.2250 C   0  0  0  0  0  0  0  0  0  0  0  0
   59.9570   34.6710   46.9800 C   0  0  0  0  0  0  0  0  0  0  0  0
   59.1400   34.2800   45.9430 C   0  0  0  0  0  0  0  0  0  0  0  0
   58.2000   33.2460   46.0900 C   0  0  0  0  0  0  0  0  0  0  0  0
   57.4210   32.9110   44.9910 N   0  0  0  0  0  0  0  0  0  0  0  0
   59.3910   30.6200   45.2840 N   0  0  0  0  0  0  0  0  0  0  0  0
   62.9220   33.8280   49.5550 C   0  0  0  0  0  0  0  0  0  0  0  0
   63.2540   33.8760   50.8790 C   0  0  0  0  0  0  0  0  0  0  0  0
   64.1840   33.0190   51.4580 C   0  0  0  0  0  0  0  0  0  0  0  0
   64.8210   32.0660   50.6950 C   0  0  0  0  0  0  0  0  0  0  0  0
   64.5060   31.9960   49.3530 C   0  0  0  0  0  0  0  0  0  0  0  0
   63.5800   32.8530   48.7920 C   0  0  0  0  0  0  0  0  0  0  0  0
   63.3110   32.6870   47.3380 C   0  0  0  0  0  0  0  0  0  0  0  0
   58.1680   32.6650   47.3360 C   0  0  0  0  0  0  0  0  0  0  0  0
   58.9890   33.0550   48.3810 C   0  0  0  0  0  0  0  0  0  0  0  0
   59.9816   30.0909   47.2052 H   0  0  0  0  0  0  0  0  0  0  0  0
   60.0898   28.7880   45.9733 H   0  0  0  0  0  0  0  0  0  0  0  0
   61.2884   30.1258   45.9733 H   0  0  0  0  0  0  0  0  0  0  0  0
   59.2080   28.1900   44.1350 H   0  0  0  0  0  0  0  0  0  0  0  0
   56.9300   27.7210   43.1660 H   0  0  0  0  0  0  0  0  0  0  0  0
   54.7120   29.1330   42.6160 H   0  0  0  0  0  0  0  0  0  0  0  0
   54.3850   30.3260   43.9800 H   0  0  0  0  0  0  0  0  0  0  0  0
   60.6744   35.4877   46.8117 H   0  0  0  0  0  0  0  0  0  0  0  0
   59.2255   34.7912   44.9727 H   0  0  0  0  0  0  0  0  0  0  0  0
   62.7636   34.6265   51.5164 H   0  0  0  0  0  0  0  0  0  0  0  0
   64.4118   33.1030   52.5309 H   0  0  0  0  0  0  0  0  0  0  0  0
   65.5579   31.3819   51.1411 H   0  0  0  0  0  0  0  0  0  0  0  0
   65.0009   31.2449   48.7198 H   0  0  0  0  0  0  0  0  0  0  0  0
   62.3823   32.1139   47.2000 H   0  0  0  0  0  0  0  0  0  0  0  0
   63.2043   33.6765   46.8695 H   0  0  0  0  0  0  0  0  0  0  0  0
   64.1476   32.1479   46.8695 H   0  0  0  0  0  0  0  0  0  0  0  0
   57.4530   31.8478   47.5119 H   0  0  0  0  0  0  0  0  0  0  0  0
   58.9077   32.5444   49.3519 H   0  0  0  0  0  0  0  0  0  0  0  0
  1  2  1  0
  2  3  2  0
  3  4  1  0
  4  5  1  0
  5  6  1  0
  6  7  1  0
  6  8  2  0
  8  9  1  0
  9 10  2  0
 10 11  1  0
 11 12  2  0
 12 13  1  0
 13 14  2  0
 14 15  1  0
 15 16  2  0
 16 17  1  0
 17 18  2  0
 18 19  1  0
 19 20  2  0
 20 21  1  0
 21 22  2  0
 22 23  1  0
 14 24  1  0
 24 25  2  0
  8  3  1  0
 25 11  1  0
 22 17  1  0
  1 26  1  0
  1 27  1  0
  1 28  1  0
  4 29  1  0
  5 30  1  0
  7 31  1  0
  7 32  1  0
 12 33  1  0
 13 34  1  0
 18 35  1  0
 19 36  1  0
 20 37  1  0
 21 38  1  0
 23 39  1  0
 23 40  1  0
 23 41  1  0
 24 42  1  0
 25 43  1  0
M  END
>  <smiles>  (24) 
CN=c1[nH][nH]c(N)c1N=Nc1ccc(N=Nc2ccccc2C)cc1

>  <score_type>  (24) 
oracle

>  <origin>  (24) 
adg

>  <m_score__min__energy>  (24) 
-8.2699999999999996

>  <m_primary>  (24) 
energy

$$$$
24:0
     RDKit          3D

 38 40  0  0  0  0  0  0  0  0999 V2000
   55.8570   29.7190   44.6680 O   0  0  0  0  0  0  0  0  0  0  0  0
   56.9650   30.2300   44.3550 C   0  0  0  0  0  0  0  0  0  0  0  0
   57.0090   31.6380   43.8440 C   0  0  0  0  0  0  0  0  0  0  0  0
   57.6940   32.5420   44.8240 C   0  0  0  0  0  0  0  0  0  0  0  0
   58.1920   33.7390   44.4120 N   0  0  0  0  0  0  0  0  0  0  0  0
   58.8540   34.5610   45.2650 C   0  0  0  0  0  0  0  0  0  0  0  0
   59.3010   35.6600   44.8410 O   0  0  0  0  0  0  0  0  0  0  0  0
   59.0350   34.1760   46.6040 C   0  0  0  0  0  0  0  0  0  0  0  0
   59.7140   34.9790   47.5370 C   0  0  0  0  0  0  0  0  0  0  0  0
   59.8640   34.5430   48.8580 C   0  0  0  0  0  0  0  0  0  0  0  0
   59.3410   33.3080   49.2540 C   0  0  0  0  0  0  0  0  0  0  0  0
   58.6660   32.5020   48.3330 C   0  0  0  0  0  0  0  0  0  0  0  0
   58.5110   32.9290   47.0100 C   0  0  0  0  0  0  0  0  0  0  0  0
   57.8620   32.1440   46.1120 N   0  0  0  0  0  0  0  0  0  0  0  0
   58.1790   29.4770   44.4720 N   0  0  0  0  0  0  0  0  0  0  0  0
   58.9060   29.2020   45.6780 C   0  0  0  0  0  0  0  0  0  0  0  0
   60.1490   29.8090   45.9360 C   0  0  0  0  0  0  0  0  0  0  0  0
   60.8210   29.5620   47.1350 C   0  0  0  0  0  0  0  0  0  0  0  0
   60.2630   28.7090   48.0870 C   0  0  0  0  0  0  0  0  0  0  0  0
   59.0400   28.0850   47.8340 C   0  0  0  0  0  0  0  0  0  0  0  0
   58.3680   28.2990   46.6220 C   0  0  0  0  0  0  0  0  0  0  0  0
   57.1050   27.6530   46.4020 N   0  0  0  0  0  0  0  0  0  0  0  0
   56.8860   26.2560   46.6530 C   0  0  0  0  0  0  0  0  0  0  0  0
   57.7780   25.5650   47.2190 O   0  0  0  0  0  0  0  0  0  0  0  0
   55.6080   25.6270   46.2900 C   0  0  0  0  0  0  0  0  0  0  0  0
   54.6410   26.3350   45.9060 O   0  0  0  0  0  0  0  0  0  0  0  0
   55.4560   24.2480   46.3680 O   0  0  0  0  0  0  0  0  0  0  0  0
   57.5579   31.6582   42.8910 H   0  0  0  0  0  0  0  0  0  0  0  0
   55.9774   31.9922   43.7011 H   0  0  0  0  0  0  0  0  0  0  0  0
   60.1275   35.9505   47.2284 H   0  0  0  0  0  0  0  0  0  0  0  0
   60.3946   35.1732   49.5869 H   0  0  0  0  0  0  0  0  0  0  0  0
   59.4612   32.9698   50.2938 H   0  0  0  0  0  0  0  0  0  0  0  0
   58.2564   31.5312   48.6488 H   0  0  0  0  0  0  0  0  0  0  0  0
   60.5941   30.4822   45.1886 H   0  0  0  0  0  0  0  0  0  0  0  0
   61.7921   30.0410   47.3289 H   0  0  0  0  0  0  0  0  0  0  0  0
   60.7866   28.5279   49.0373 H   0  0  0  0  0  0  0  0  0  0  0  0
   58.5999   27.4200   48.5917 H   0  0  0  0  0  0  0  0  0  0  0  0
   56.2740   28.2590   46.2150 H   0  0  0  0  0  0  0  0  0  0  0  0
  1  2  2  0
  2  3  1  0
  3  4  1  0
  4  5  2  0
  5  6  1  0
  6  7  2  0
  6  8  1  0
  8  9  2  0
  9 10  1  0
 10 11  2  0
 11 12  1  0
 12 13  2  0
 13 14  1  0
  2 15  1  0
 15 16  1  0
 16 17  2  0
 17 18  1  0
 18 19  2  0
 19 20  1  0
 20 21  2  0
 21 22  1  0
 22 23  1  0
 23 24  2  0
 23 25  1  0
 25 26  2  0
 25 27  1  0
 14  4  1  0
 21 16  1  0
 13  8  1  0
  3 28  1  0
  3 29  1  0
  9 30  1  0
 10 31  1  0
 11 32  1  0
 12 33  1  0
 17 34  1  0
 18 35  1  0
 19 36  1  0
 20 37  1  0
 22 38  1  0
M  CHG  3  14  -1  15  -1  27  -1
M  END
>  <UniqueID>  (25) 
24

>  <SMILES>  (25) 
O=C(Cc1nc(=O)c2ccccc2[n-]1)[N-]c1ccccc1NC(=O)C(=O)[O-]

>  <Energy>  (25) 
48.58005916692477

>  <Genealogy>  (25) 
O=C(Cc1nc(=O)c2ccccc2[n-]1)[N-]c1ccccc1NC(=O)C(=O)[O-] (protonated)
O=C(Cc1nc(=O)c2ccccc2[n-]1)[N-]c1ccccc1NC(=O)C(=O)[O-] (3D coordinates assigned)
O=C(Cc1nc(=O)c2ccccc2[n-]1)[N-]c1ccccc1NC(=O)C(=O)[O-] (optimized conformer: 48.58005916692477 kcal/mol)

>  <smiles>  (25) 
O=C(Cc1nc(=O)c2ccccc2[nH]1)Nc1ccccc1NC(=O)C(=O)O

>  <score_type>  (25) 
oracle

>  <origin>  (25) 
adg

>  <m_score__min__energy>  (25) 
-13.779999999999999

>  <m_primary>  (25) 
energy

$$$$
25:0
     RDKit          3D

 23 24  0  0  0  0  0  0  0  0999 V2000
   57.3920   27.9540   43.8450 O   0  0  0  0  0  0  0  0  0  0  0  0
   57.1760   28.0570   45.0820 C   0  0  0  0  0  0  0  0  0  0  0  0
   56.8450   29.3470   45.6160 N   0  0  0  0  0  0  0  0  0  0  0  0
   57.3920   30.6060   45.1970 C   0  0  0  0  0  0  0  0  0  0  0  0
   57.2210   31.0900   43.8860 C   0  0  0  0  0  0  0  0  0  0  0  0
   57.7560   32.3290   43.5190 C   0  0  0  0  0  0  0  0  0  0  0  0
   58.4490   33.0990   44.4580 C   0  0  0  0  0  0  0  0  0  0  0  0
   58.6010   32.6350   45.7670 C   0  0  0  0  0  0  0  0  0  0  0  0
   58.0670   31.3960   46.1370 C   0  0  0  0  0  0  0  0  0  0  0  0
   57.2190   26.8410   45.9300 C   0  0  0  0  0  0  0  0  0  0  0  0
   56.0390   26.2160   46.3740 C   0  0  0  0  0  0  0  0  0  0  0  0
   54.7910   26.7050   46.0060 O   0  0  0  0  0  0  0  0  0  0  0  0
   56.1090   25.1090   47.1560 N   0  0  0  0  0  0  0  0  0  0  0  0
   57.3050   24.5770   47.5130 C   0  0  0  0  0  0  0  0  0  0  0  0
   57.3440   23.5510   48.2400 O   0  0  0  0  0  0  0  0  0  0  0  0
   58.4590   25.1480   47.0850 N   0  0  0  0  0  0  0  0  0  0  0  0
   58.4450   26.2600   46.3040 C   0  0  0  0  0  0  0  0  0  0  0  0
   59.5380   26.7660   45.9350 O   0  0  0  0  0  0  0  0  0  0  0  0
   56.6653   30.4922   43.1486 H   0  0  0  0  0  0  0  0  0  0  0  0
   57.6314   32.6982   42.4903 H   0  0  0  0  0  0  0  0  0  0  0  0
   58.8747   34.0704   44.1660 H   0  0  0  0  0  0  0  0  0  0  0  0
   59.1408   33.2441   46.5070 H   0  0  0  0  0  0  0  0  0  0  0  0
   58.1777   31.0399   47.1719 H   0  0  0  0  0  0  0  0  0  0  0  0
  1  2  2  0
  2  3  1  0
  3  4  1  0
  4  5  2  0
  5  6  1  0
  6  7  2  0
  7  8  1  0
  8  9  2  0
  2 10  1  0
 10 11  2  0
 11 12  1  0
 11 13  1  0
 13 14  1  0
 14 15  2  0
 14 16  1  0
 16 17  1  0
 17 18  2  0
  9  4  1  0
 17 10  1  0
  5 19  1  0
  6 20  1  0
  7 21  1  0
  8 22  1  0
  9 23  1  0
M  CHG  4   3  -1  12  -1  13  -1  16  -1
M  END
>  <UniqueID>  (26) 
25

>  <SMILES>  (26) 
O=C([N-]c1ccccc1)c1c([O-])[n-]c(=O)[n-]c1=O

>  <Energy>  (26) 
35.00858874609158

>  <Genealogy>  (26) 
O=C([N-]c1ccccc1)c1c([O-])[n-]c(=O)[n-]c1=O (protonated)
O=C([N-]c1ccccc1)c1c([O-])[n-]c(=O)[n-]c1=O (3D coordinates assigned)
O=C([N-]c1ccccc1)c1c([O-])[n-]c(=O)[n-]c1=O (optimized conformer: 35.00858874609158 kcal/mol)

>  <smiles>  (26) 
O=C(Nc1ccccc1)c1c(O)[nH]c(=O)[nH]c1=O

>  <score_type>  (26) 
oracle

>  <origin>  (26) 
adg

>  <m_score__min__energy>  (26) 
-15.289999999999999

>  <m_primary>  (26) 
energy

$$$$
26:0
     RDKit          3D

 42 43  0  0  0  0  0  0  0  0999 V2000
   60.7480   30.1500   46.8530 C   0  0  0  0  0  0  0  0  0  0  0  0
   59.9510   31.3490   46.3480 C   0  0  0  0  0  0  0  0  0  0  0  0
   58.6440   30.9070   45.7310 C   0  0  0  0  0  0  0  0  0  0  0  0
   58.4260   29.5380   45.5200 C   0  0  0  0  0  0  0  0  0  0  0  0
   57.2300   29.0800   44.9470 C   0  0  0  0  0  0  0  0  0  0  0  0
   57.0490   27.6730   44.6670 N   0  0  0  0  0  0  0  0  0  0  0  0
   57.6100   26.8290   45.7380 C   0  0  0  0  0  0  0  0  0  0  0  0
   56.9740   25.4470   45.7690 C   0  0  0  0  0  0  0  0  0  0  0  0
   57.7500   24.2650   45.6540 C   0  0  0  0  0  0  0  0  0  0  0  0
   59.2620   24.2820   45.6250 C   0  0  0  0  0  0  0  0  0  0  0  0
   59.7580   22.9720   45.5820 O   0  0  0  0  0  0  0  0  0  0  0  0
   57.0960   23.0250   45.6450 C   0  0  0  0  0  0  0  0  0  0  0  0
   55.7440   22.9560   45.7170 N   0  0  0  0  0  0  0  0  0  0  0  0
   54.9700   24.0660   45.8200 C   0  0  0  0  0  0  0  0  0  0  0  0
   53.4810   23.9210   45.8840 C   0  0  0  0  0  0  0  0  0  0  0  0
   55.5700   25.3320   45.8610 C   0  0  0  0  0  0  0  0  0  0  0  0
   54.7720   26.4680   45.9840 O   0  0  0  0  0  0  0  0  0  0  0  0
   56.2480   30.0270   44.6040 C   0  0  0  0  0  0  0  0  0  0  0  0
   55.1630   29.6630   44.0770 O   0  0  0  0  0  0  0  0  0  0  0  0
   56.4640   31.3460   44.8380 N   0  0  0  0  0  0  0  0  0  0  0  0
   57.6150   31.8140   45.3930 C   0  0  0  0  0  0  0  0  0  0  0  0
   57.7580   33.2950   45.5900 C   0  0  0  0  0  0  0  0  0  0  0  0
   60.7495   30.1477   47.9530 H   0  0  0  0  0  0  0  0  0  0  0  0
   60.2866   29.2217   46.4850 H   0  0  0  0  0  0  0  0  0  0  0  0
   61.7825   30.2161   46.4850 H   0  0  0  0  0  0  0  0  0  0  0  0
   59.7412   32.0231   47.1916 H   0  0  0  0  0  0  0  0  0  0  0  0
   60.5444   31.8672   45.5803 H   0  0  0  0  0  0  0  0  0  0  0  0
   59.2026   28.8139   45.8074 H   0  0  0  0  0  0  0  0  0  0  0  0
   56.0320   27.4640   44.5370 H   0  0  0  0  0  0  0  0  0  0  0  0
   57.5220   27.4340   43.7650 H   0  0  0  0  0  0  0  0  0  0  0  0
   58.6918   26.7181   45.5725 H   0  0  0  0  0  0  0  0  0  0  0  0
   57.4021   27.3196   46.7003 H   0  0  0  0  0  0  0  0  0  0  0  0
   59.6026   24.8293   44.7337 H   0  0  0  0  0  0  0  0  0  0  0  0
   59.6338   24.7779   46.5338 H   0  0  0  0  0  0  0  0  0  0  0  0
   60.5850   22.9990   45.0330 H   0  0  0  0  0  0  0  0  0  0  0  0
   57.6857   22.0988   45.5789 H   0  0  0  0  0  0  0  0  0  0  0  0
   53.1605   23.8898   46.9358 H   0  0  0  0  0  0  0  0  0  0  0  0
   53.0073   24.7773   45.3816 H   0  0  0  0  0  0  0  0  0  0  0  0
   53.1814   22.9894   45.3816 H   0  0  0  0  0  0  0  0  0  0  0  0
   57.7799   33.5213   46.6662 H   0  0  0  0  0  0  0  0  0  0  0  0
   58.6935   33.6382   45.1241 H   0  0  0  0  0  0  0  0  0  0  0  0
   56.9055   33.8109   45.1241 H   0  0  0  0  0  0  0  0  0  0  0  0
  1  2  1  0
  2  3  1  0
  3  4  1  0
  4  5  2  0
  5  6  1  0
  6  7  1  0
  7  8  1  0
  8  9  2  0
  9 10  1  0
 10 11  1  0
  9 12  1  0
 12 13  2  0
 13 14  1  0
 14 15  1  0
 14 16  2  0
 16 17  1  0
  5 18  1  0
 18 19  2  0
 18 20  1  0
 20 21  1  0
 21 22  1  0
 21  3  2  0
 16  8  1  0
  1 23  1  0
  1 24  1  0
  1 25  1  0
  2 26  1  0
  2 27  1  0
  4 28  1  0
  6 29  1  0
  6 30  1  0
  7 31  1  0
  7 32  1  0
 10 33  1  0
 10 34  1  0
 11 35  1  0
 12 36  1  0
 15 37  1  0
 15 38  1  0
 15 39  1  0
 22 40  1  0
 22 41  1  0
 22 42  1  0
M  CHG  3   6   1  17  -1  20  -1
M  END
>  <UniqueID>  (27) 
26

>  <SMILES>  (27) 
CCc1cc([NH2+]Cc2c(CO)cnc(C)c2[O-])c(=O)[n-]c1C

>  <Energy>  (27) 
42.573567259338084

>  <Genealogy>  (27) 
CCc1cc([NH2+]Cc2c(CO)cnc(C)c2[O-])c(=O)[n-]c1C (protonated)
CCc1cc([NH2+]Cc2c(CO)cnc(C)c2[O-])c(=O)[n-]c1C (3D coordinates assigned)
CCc1cc([NH2+]Cc2c(CO)cnc(C)c2[O-])c(=O)[n-]c1C (optimized conformer: 42.573567259338084 kcal/mol)

>  <smiles>  (27) 
CCc1cc(NCc2c(CO)cnc(C)c2O)c(=O)[nH]c1C

>  <score_type>  (27) 
oracle

>  <origin>  (27) 
adg

>  <m_score__min__energy>  (27) 
-10.52

>  <m_primary>  (27) 
energy

$$$$
27:0
     RDKit          3D

 35 36  0  0  0  0  0  0  0  0999 V2000
   61.1120   29.6370   49.4380 H   0  0  0  0  0  0  0  0  0  0  0  0
   60.6130   30.1840   48.7450 O   0  0  0  0  0  0  0  0  0  0  0  0
   60.0360   29.5870   47.6270 C   0  0  0  0  0  0  0  0  0  0  0  0
   59.0120   28.6410   47.7690 C   0  0  0  0  0  0  0  0  0  0  0  0
   58.6572   28.3634   48.7725 H   0  0  0  0  0  0  0  0  0  0  0  0
   58.4400   28.0490   46.6390 C   0  0  0  0  0  0  0  0  0  0  0  0
   57.6329   27.3110   46.7565 H   0  0  0  0  0  0  0  0  0  0  0  0
   58.8920   28.3930   45.3540 C   0  0  0  0  0  0  0  0  0  0  0  0
   58.2560   27.7810   44.1320 C   0  0  0  0  0  0  0  0  0  0  0  0
   57.6849   26.8911   44.4351 H   0  0  0  0  0  0  0  0  0  0  0  0
   59.0563   27.5142   43.4261 H   0  0  0  0  0  0  0  0  0  0  0  0
   57.3090   28.7650   43.4320 C   0  0  0  0  0  0  0  0  0  0  0  0
   56.7249   28.2204   42.6755 H   0  0  0  0  0  0  0  0  0  0  0  0
   57.9179   29.5546   42.9674 H   0  0  0  0  0  0  0  0  0  0  0  0
   56.3660   29.4120   44.4000 C   0  0  0  0  0  0  0  0  0  0  0  0
   55.1790   28.9990   44.4950 O   0  0  0  0  0  0  0  0  0  0  0  0
   56.8120   30.5150   45.1900 N   0  0  0  0  0  0  0  0  0  0  0  0
   56.6410   31.7160   44.8060 N   0  0  0  0  0  0  0  0  0  0  0  0
   57.7420   32.5910   44.5360 C   0  0  0  0  0  0  0  0  0  0  0  0
   58.0770   32.7840   43.3380 O   0  0  0  0  0  0  0  0  0  0  0  0
   58.4880   33.2790   45.6170 C   0  0  0  0  0  0  0  0  0  0  0  0
   59.2540   34.4300   45.3540 C   0  0  0  0  0  0  0  0  0  0  0  0
   59.3113   34.8264   44.3295 H   0  0  0  0  0  0  0  0  0  0  0  0
   59.9430   35.0730   46.3880 C   0  0  0  0  0  0  0  0  0  0  0  0
   60.5477   35.9664   46.1728 H   0  0  0  0  0  0  0  0  0  0  0  0
   59.8640   34.5820   47.6930 C   0  0  0  0  0  0  0  0  0  0  0  0
   60.4100   35.0862   48.5040 H   0  0  0  0  0  0  0  0  0  0  0  0
   59.0920   33.4510   47.9690 C   0  0  0  0  0  0  0  0  0  0  0  0
   59.0267   33.0681   48.9981 H   0  0  0  0  0  0  0  0  0  0  0  0
   58.4020   32.8050   46.9380 C   0  0  0  0  0  0  0  0  0  0  0  0
   57.7880   31.9203   47.1621 H   0  0  0  0  0  0  0  0  0  0  0  0
   59.9130   29.3490   45.2170 C   0  0  0  0  0  0  0  0  0  0  0  0
   60.2652   29.6343   44.2147 H   0  0  0  0  0  0  0  0  0  0  0  0
   60.4830   29.9390   46.3490 C   0  0  0  0  0  0  0  0  0  0  0  0
   61.2856   30.6824   46.2344 H   0  0  0  0  0  0  0  0  0  0  0  0
  1  2  1  0
  2  3  1  0
  3  4  2  0
  4  5  1  0
  4  6  1  0
  6  7  1  0
  6  8  2  0
  8  9  1  0
  9 10  1  0
  9 11  1  0
  9 12  1  0
 12 13  1  0
 12 14  1  0
 12 15  1  0
 15 16  2  0
 15 17  1  0
 17 18  2  0
 18 19  1  0
 19 20  2  0
 19 21  1  0
 21 22  2  0
 22 23  1  0
 22 24  1  0
 24 25  1  0
 24 26  2  0
 26 27  1  0
 26 28  1  0
 28 29  1  0
 28 30  2  0
 30 31  1  0
  8 32  1  0
 32 33  1  0
 32 34  2  0
 34 35  1  0
 34  3  1  0
 30 21  1  0
M  END
>  <UniqueID>  (28) 
27

>  <SMILES>  (28) 
O=C(CCc1ccc(O)cc1)/N=N/C(=O)c1ccccc1

>  <Energy>  (28) 
33.24552198192311

>  <Genealogy>  (28) 
O=C(CCc1ccc(O)cc1)/N=N/C(=O)c1ccccc1 (cis-trans isomerization)
O=C(CCc1ccc(O)cc1)/N=N/C(=O)c1ccccc1 (3D coordinates assigned)
O=C(CCc1ccc(O)cc1)/N=N/C(=O)c1ccccc1 (optimized conformer: 33.24552198192311 kcal/mol)

>  <smiles>  (28) 
O=C(CCc1ccc(O)cc1)N=NC(=O)c1ccccc1

>  <score_type>  (28) 
oracle

>  <origin>  (28) 
adg

>  <m_score__min__energy>  (28) 
-8.0999999999999996

>  <m_primary>  (28) 
energy

$$$$
28:0
     RDKit          3D

 38 40  0  0  0  0  0  0  0  0999 V2000
   58.2000   28.0440   43.9510 O   0  0  0  0  0  0  0  0  0  0  0  0
   57.3790   27.9950   44.9060 C   0  0  0  0  0  0  0  0  0  0  0  0
   57.6560   27.0900   46.0680 C   0  0  0  0  0  0  0  0  0  0  0  0
   57.0060   25.7490   45.8470 C   0  0  0  0  0  0  0  0  0  0  0  0
   57.8090   24.6170   45.6230 C   0  0  0  0  0  0  0  0  0  0  0  0
   57.2240   23.3700   45.3850 C   0  0  0  0  0  0  0  0  0  0  0  0
   55.8330   23.2430   45.3610 C   0  0  0  0  0  0  0  0  0  0  0  0
   55.0250   24.3630   45.5710 C   0  0  0  0  0  0  0  0  0  0  0  0
   55.6020   25.6150   45.8100 C   0  0  0  0  0  0  0  0  0  0  0  0
   54.7770   26.7160   46.0080 O   0  0  0  0  0  0  0  0  0  0  0  0
   56.1690   28.7640   44.8620 N   0  0  0  0  0  0  0  0  0  0  0  0
   55.8460   29.6530   43.7500 C   0  0  0  0  0  0  0  0  0  0  0  0
   56.7700   30.8280   43.7470 C   0  0  0  0  0  0  0  0  0  0  0  0
   57.2000   31.4420   44.8690 N   0  0  0  0  0  0  0  0  0  0  0  0
   57.9790   32.5280   44.6000 C   0  0  0  0  0  0  0  0  0  0  0  0
   58.5540   33.3550   45.6930 C   0  0  0  0  0  0  0  0  0  0  0  0
   58.5300   32.9230   47.0350 C   0  0  0  0  0  0  0  0  0  0  0  0
   59.0760   33.7200   48.0460 C   0  0  0  0  0  0  0  0  0  0  0  0
   59.6480   34.9550   47.7350 C   0  0  0  0  0  0  0  0  0  0  0  0
   59.6730   35.3980   46.4130 C   0  0  0  0  0  0  0  0  0  0  0  0
   59.1290   34.6060   45.3970 C   0  0  0  0  0  0  0  0  0  0  0  0
   58.1560   32.7860   43.2360 C   0  0  0  0  0  0  0  0  0  0  0  0
   57.3110   31.6200   42.3690 S   0  0  0  0  0  0  0  0  0  0  0  0
   58.7426   26.9547   46.1727 H   0  0  0  0  0  0  0  0  0  0  0  0
   57.2451   27.5426   46.9825 H   0  0  0  0  0  0  0  0  0  0  0  0
   58.9047   24.7132   45.6351 H   0  0  0  0  0  0  0  0  0  0  0  0
   57.8594   22.4880   45.2165 H   0  0  0  0  0  0  0  0  0  0  0  0
   55.3738   22.2606   45.1767 H   0  0  0  0  0  0  0  0  0  0  0  0
   53.9301   24.2601   45.5484 H   0  0  0  0  0  0  0  0  0  0  0  0
   55.4830   28.6810   45.6450 H   0  0  0  0  0  0  0  0  0  0  0  0
   55.9522   29.1041   42.8026 H   0  0  0  0  0  0  0  0  0  0  0  0
   54.8112   30.0088   43.8622 H   0  0  0  0  0  0  0  0  0  0  0  0
   58.0787   31.9524   47.2884 H   0  0  0  0  0  0  0  0  0  0  0  0
   59.0548   33.3728   49.0896 H   0  0  0  0  0  0  0  0  0  0  0  0
   60.0788   35.5783   48.5324 H   0  0  0  0  0  0  0  0  0  0  0  0
   60.1215   36.3723   46.1689 H   0  0  0  0  0  0  0  0  0  0  0  0
   59.1504   34.9635   44.3569 H   0  0  0  0  0  0  0  0  0  0  0  0
   58.7457   33.6090   42.8059 H   0  0  0  0  0  0  0  0  0  0  0  0
  1  2  2  0
  2  3  1  0
  3  4  1  0
  4  5  2  0
  5  6  1  0
  6  7  2  0
  7  8  1  0
  8  9  2  0
  9 10  1  0
  2 11  1  0
 11 12  1  0
 12 13  1  0
 13 14  2  0
 14 15  1  0
 15 16  1  0
 16 17  2  0
 17 18  1  0
 18 19  2  0
 19 20  1  0
 20 21  2  0
 15 22  2  0
 22 23  1  0
  9  4  1  0
 23 13  1  0
 21 16  1  0
  3 24  1  0
  3 25  1  0
  5 26  1  0
  6 27  1  0
  7 28  1  0
  8 29  1  0
 11 30  1  0
 12 31  1  0
 12 32  1  0
 17 33  1  0
 18 34  1  0
 19 35  1  0
 20 36  1  0
 21 37  1  0
 22 38  1  0
M  CHG  1  10  -1
M  END
>  <UniqueID>  (29) 
28

>  <SMILES>  (29) 
O=C(Cc1ccccc1[O-])NCc1nc(-c2ccccc2)cs1

>  <Energy>  (29) 
67.52711413977303

>  <Genealogy>  (29) 
O=C(Cc1ccccc1[O-])NCc1nc(-c2ccccc2)cs1 (protonated)
O=C(Cc1ccccc1[O-])NCc1nc(-c2ccccc2)cs1 (3D coordinates assigned)
O=C(Cc1ccccc1[O-])NCc1nc(-c2ccccc2)cs1 (optimized conformer: 67.52711413977303 kcal/mol)

>  <smiles>  (29) 
O=C(Cc1ccccc1O)NCc1nc(-c2ccccc2)cs1

>  <score_type>  (29) 
oracle

>  <origin>  (29) 
adg

>  <m_score__min__energy>  (29) 
-13.460000000000001

>  <m_primary>  (29) 
energy

$$$$
29:0
     RDKit          3D

 50 52  0  0  0  0  0  0  0  0999 V2000
   56.1340   24.4300   44.8530 C   0  0  0  0  0  0  0  0  0  0  0  0
   54.9540   25.0750   45.5690 C   0  0  0  0  0  0  0  0  0  0  0  0
   55.2870   26.4310   45.9920 N   0  0  0  0  0  0  0  0  0  0  0  0
   56.6150   26.9630   45.9780 C   0  0  0  0  0  0  0  0  0  0  0  0
   57.2820   27.0270   47.0460 O   0  0  0  0  0  0  0  0  0  0  0  0
   57.1350   27.4510   44.7740 O   0  0  0  0  0  0  0  0  0  0  0  0
   57.2580   28.8070   44.4310 C   0  0  0  0  0  0  0  0  0  0  0  0
   56.5160   29.3890   43.3880 C   0  0  0  0  0  0  0  0  0  0  0  0
   56.6620   30.7480   43.0950 C   0  0  0  0  0  0  0  0  0  0  0  0
   57.5370   31.5380   43.8420 C   0  0  0  0  0  0  0  0  0  0  0  0
   58.2760   30.9720   44.8920 C   0  0  0  0  0  0  0  0  0  0  0  0
   59.1920   31.8330   45.7250 C   0  0  0  0  0  0  0  0  0  0  0  0
   58.8210   33.3170   45.6240 C   0  0  0  0  0  0  0  0  0  0  0  0
   59.8220   34.1600   46.2850 N   0  0  0  0  0  0  0  0  0  0  0  0
   59.8140   33.9300   48.0090 S   0  0  0  0  0  0  0  0  0  0  0  0
   59.2830   35.1640   48.6860 O   0  0  0  0  0  0  0  0  0  0  0  0
   58.9060   32.7800   48.3450 O   0  0  0  0  0  0  0  0  0  0  0  0
   61.4350   33.5680   48.5930 C   0  0  0  0  0  0  0  0  0  0  0  0
   62.4000   33.0350   47.7280 C   0  0  0  0  0  0  0  0  0  0  0  0
   63.6720   32.7110   48.2080 C   0  0  0  0  0  0  0  0  0  0  0  0
   63.9950   32.9130   49.5610 C   0  0  0  0  0  0  0  0  0  0  0  0
   65.3400   32.5610   50.0580 C   0  0  0  0  0  0  0  0  0  0  0  0
   66.3120   33.4040   50.1270 N   0  0  0  0  0  0  0  0  0  0  0  0
   67.4900   32.7340   50.6580 C   0  0  0  0  0  0  0  0  0  0  0  0
   67.0350   31.2890   50.9050 C   0  0  0  0  0  0  0  0  0  0  0  0
   65.6800   31.2960   50.4960 O   0  0  0  0  0  0  0  0  0  0  0  0
   63.0220   33.4460   50.4230 C   0  0  0  0  0  0  0  0  0  0  0  0
   61.7520   33.7710   49.9410 C   0  0  0  0  0  0  0  0  0  0  0  0
   58.1200   29.6090   45.1890 C   0  0  0  0  0  0  0  0  0  0  0  0
   56.8457   24.0410   45.5961 H   0  0  0  0  0  0  0  0  0  0  0  0
   55.7734   23.6036   44.2230 H   0  0  0  0  0  0  0  0  0  0  0  0
   56.6349   25.1797   44.2230 H   0  0  0  0  0  0  0  0  0  0  0  0
   54.0927   25.1110   44.8857 H   0  0  0  0  0  0  0  0  0  0  0  0
   54.7099   24.4765   46.4590 H   0  0  0  0  0  0  0  0  0  0  0  0
   55.8187   28.7732   42.8010 H   0  0  0  0  0  0  0  0  0  0  0  0
   56.0851   31.1964   42.2727 H   0  0  0  0  0  0  0  0  0  0  0  0
   57.6476   32.6069   43.6071 H   0  0  0  0  0  0  0  0  0  0  0  0
   59.1192   31.5179   46.7764 H   0  0  0  0  0  0  0  0  0  0  0  0
   60.2175   31.7090   45.3469 H   0  0  0  0  0  0  0  0  0  0  0  0
   58.7582   33.5997   44.5628 H   0  0  0  0  0  0  0  0  0  0  0  0
   57.8530   33.4688   46.1238 H   0  0  0  0  0  0  0  0  0  0  0  0
   62.1557   32.8711   46.6681 H   0  0  0  0  0  0  0  0  0  0  0  0
   64.4252   32.2952   47.5225 H   0  0  0  0  0  0  0  0  0  0  0  0
   68.3142   32.7626   49.9301 H   0  0  0  0  0  0  0  0  0  0  0  0
   67.8667   33.2149   51.5728 H   0  0  0  0  0  0  0  0  0  0  0  0
   67.6243   30.5825   50.3020 H   0  0  0  0  0  0  0  0  0  0  0  0
   67.1660   30.9707   51.9498 H   0  0  0  0  0  0  0  0  0  0  0  0
   63.2619   33.6084   51.4842 H   0  0  0  0  0  0  0  0  0  0  0  0
   60.9975   34.1884   50.6240 H   0  0  0  0  0  0  0  0  0  0  0  0
   58.6805   29.1664   46.0256 H   0  0  0  0  0  0  0  0  0  0  0  0
  1  2  1  0
  2  3  1  0
  3  4  1  0
  4  5  2  0
  4  6  1  0
  6  7  1  0
  7  8  2  0
  8  9  1  0
  9 10  2  0
 10 11  1  0
 11 12  1  0
 12 13  1  0
 13 14  1  0
 14 15  1  0
 15 16  2  0
 15 17  2  0
 15 18  1  0
 18 19  2  0
 19 20  1  0
 20 21  2  0
 21 22  1  0
 22 23  2  0
 23 24  1  0
 24 25  1  0
 25 26  1  0
 21 27  1  0
 27 28  2  0
 11 29  2  0
 29  7  1  0
 28 18  1  0
 26 22  1  0
  1 30  1  0
  1 31  1  0
  1 32  1  0
  2 33  1  0
  2 34  1  0
  8 35  1  0
  9 36  1  0
 10 37  1  0
 12 38  1  0
 12 39  1  0
 13 40  1  0
 13 41  1  0
 19 42  1  0
 20 43  1  0
 24 44  1  0
 24 45  1  0
 25 46  1  0
 25 47  1  0
 27 48  1  0
 28 49  1  0
 29 50  1  0
M  CHG  2   3  -1  14  -1
M  END
>  <UniqueID>  (30) 
29

>  <SMILES>  (30) 
CC[N-]C(=O)Oc1cccc(CC[N-]S(=O)(=O)c2ccc(C3=NCCO3)cc2)c1

>  <Energy>  (30) 
60.76243284879127

>  <Genealogy>  (30) 
CC[N-]C(=O)Oc1cccc(CC[N-]S(=O)(=O)c2ccc(C3=NCCO3)cc2)c1 (protonated)
CC[N-]C(=O)Oc1cccc(CC[N-]S(=O)(=O)c2ccc(C3=NCCO3)cc2)c1 (3D coordinates assigned)
CC[N-]C(=O)Oc1cccc(CC[N-]S(=O)(=O)c2ccc(C3=NCCO3)cc2)c1 (nonaromatic ring conformer: 60.76243284879127 kcal/mol)

>  <smiles>  (30) 
CCNC(=O)Oc1cccc(CCNS(=O)(=O)c2ccc(C3=NCCO3)cc2)c1

>  <score_type>  (30) 
oracle

>  <origin>  (30) 
adg

>  <m_score__min__energy>  (30) 
-11.220000000000001

>  <m_primary>  (30) 
energy

$$$$
30:0
     RDKit          3D

 39 41  0  0  0  0  0  0  0  0999 V2000
   52.4160   27.9570   53.1470 O   0  0  0  0  0  0  0  0  0  0  0  0
   52.9940   28.9600   52.6470 C   0  0  0  0  0  0  0  0  0  0  0  0
   54.3310   28.8330   52.1400 N   0  0  0  0  0  0  0  0  0  0  0  0
   55.4340   29.7090   52.4080 C   0  0  0  0  0  0  0  0  0  0  0  0
   56.6030   29.2640   53.0490 C   0  0  0  0  0  0  0  0  0  0  0  0
   57.6480   30.1560   53.3120 C   0  0  0  0  0  0  0  0  0  0  0  0
   57.5340   31.5100   52.9480 C   0  0  0  0  0  0  0  0  0  0  0  0
   58.5550   32.4470   53.1790 O   0  0  0  0  0  0  0  0  0  0  0  0
   59.7970   32.5060   52.4750 C   0  0  0  0  0  0  0  0  0  0  0  0
   59.5660   32.6680   50.9960 C   0  0  0  0  0  0  0  0  0  0  0  0
   59.0900   31.5950   50.2240 C   0  0  0  0  0  0  0  0  0  0  0  0
   58.8870   31.7510   48.8490 C   0  0  0  0  0  0  0  0  0  0  0  0
   59.1650   32.9750   48.2350 C   0  0  0  0  0  0  0  0  0  0  0  0
   59.6490   34.0440   48.9930 C   0  0  0  0  0  0  0  0  0  0  0  0
   59.8540   33.8920   50.3680 C   0  0  0  0  0  0  0  0  0  0  0  0
   56.3570   31.9550   52.3350 C   0  0  0  0  0  0  0  0  0  0  0  0
   55.3120   31.0630   52.0740 C   0  0  0  0  0  0  0  0  0  0  0  0
   52.2780   30.2590   52.5330 C   0  0  0  0  0  0  0  0  0  0  0  0
   51.8740   30.9360   53.7010 C   0  0  0  0  0  0  0  0  0  0  0  0
   51.2000   32.1570   53.6220 C   0  0  0  0  0  0  0  0  0  0  0  0
   50.9180   32.7240   52.3800 C   0  0  0  0  0  0  0  0  0  0  0  0
   50.2480   33.9400   52.3120 O   0  0  0  0  0  0  0  0  0  0  0  0
   51.3090   32.0700   51.2080 C   0  0  0  0  0  0  0  0  0  0  0  0
   51.0250   32.6370   49.9710 O   0  0  0  0  0  0  0  0  0  0  0  0
   51.9850   30.8430   51.2760 C   0  0  0  0  0  0  0  0  0  0  0  0
   52.3560   30.2170   50.0900 O   0  0  0  0  0  0  0  0  0  0  0  0
   56.6967   28.2088   53.3454 H   0  0  0  0  0  0  0  0  0  0  0  0
   58.5631   29.7970   53.8057 H   0  0  0  0  0  0  0  0  0  0  0  0
   60.3808   33.3619   52.8447 H   0  0  0  0  0  0  0  0  0  0  0  0
   60.3440   31.5670   52.6457 H   0  0  0  0  0  0  0  0  0  0  0  0
   58.8761   30.6281   50.7030 H   0  0  0  0  0  0  0  0  0  0  0  0
   58.5082   30.9094   48.2505 H   0  0  0  0  0  0  0  0  0  0  0  0
   59.0026   33.0969   47.1539 H   0  0  0  0  0  0  0  0  0  0  0  0
   59.8691   35.0064   48.5078 H   0  0  0  0  0  0  0  0  0  0  0  0
   60.2422   34.7337   50.9604 H   0  0  0  0  0  0  0  0  0  0  0  0
   56.2532   33.0141   52.0565 H   0  0  0  0  0  0  0  0  0  0  0  0
   54.3874   31.4280   51.6028 H   0  0  0  0  0  0  0  0  0  0  0  0
   52.0919   30.4980   54.6862 H   0  0  0  0  0  0  0  0  0  0  0  0
   50.8907   32.6729   54.5430 H   0  0  0  0  0  0  0  0  0  0  0  0
  1  2  2  0
  2  3  1  0
  3  4  1  0
  4  5  2  0
  5  6  1  0
  6  7  2  0
  7  8  1  0
  8  9  1  0
  9 10  1  0
 10 11  2  0
 11 12  1  0
 12 13  2  0
 13 14  1  0
 14 15  2  0
  7 16  1  0
 16 17  2  0
  2 18  1  0
 18 19  2  0
 19 20  1  0
 20 21  2  0
 21 22  1  0
 21 23  1  0
 23 24  1  0
 23 25  2  0
 25 26  1  0
 17  4  1  0
 25 18  1  0
 15 10  1  0
  5 27  1  0
  6 28  1  0
  9 29  1  0
  9 30  1  0
 11 31  1  0
 12 32  1  0
 13 33  1  0
 14 34  1  0
 15 35  1  0
 16 36  1  0
 17 37  1  0
 19 38  1  0
 20 39  1  0
M  CHG  4   3  -1  22  -1  24  -1  26  -1
M  END
>  <UniqueID>  (31) 
30

>  <SMILES>  (31) 
O=C([N-]c1ccc(OCc2ccccc2)cc1)c1ccc([O-])c([O-])c1[O-]

>  <Energy>  (31) 
48.58450937751521

>  <Genealogy>  (31) 
O=C([N-]c1ccc(OCc2ccccc2)cc1)c1ccc([O-])c([O-])c1[O-] (protonated)
O=C([N-]c1ccc(OCc2ccccc2)cc1)c1ccc([O-])c([O-])c1[O-] (3D coordinates assigned)
O=C([N-]c1ccc(OCc2ccccc2)cc1)c1ccc([O-])c([O-])c1[O-] (optimized conformer: 48.58450937751521 kcal/mol)

>  <smiles>  (31) 
O=C(Nc1ccc(OCc2ccccc2)cc1)c1ccc(O)c(O)c1O

>  <score_type>  (31) 
oracle

>  <origin>  (31) 
adg

>  <m_score__min__energy>  (31) 
-18.57

>  <m_primary>  (31) 
energy

$$$$
31:0
     RDKit          3D

 46 48  0  0  0  0  0  0  0  0999 V2000
   59.7280   33.3290   49.5480 C   0  0  0  0  0  0  0  0  0  0  0  0
   59.3320   34.3650   48.6000 N   0  0  0  0  0  0  0  0  0  0  0  0
   59.0560   34.1060   47.2110 C   0  0  0  0  0  0  0  0  0  0  0  0
   59.3790   35.0790   46.2520 C   0  0  0  0  0  0  0  0  0  0  0  0
   59.1260   34.8500   44.8970 C   0  0  0  0  0  0  0  0  0  0  0  0
   58.5350   33.6540   44.4850 C   0  0  0  0  0  0  0  0  0  0  0  0
   58.1830   32.6760   45.4280 C   0  0  0  0  0  0  0  0  0  0  0  0
   57.5240   31.4220   44.9920 C   0  0  0  0  0  0  0  0  0  0  0  0
   56.2730   31.3960   44.8520 O   0  0  0  0  0  0  0  0  0  0  0  0
   58.2780   30.2400   44.6860 N   0  0  0  0  0  0  0  0  0  0  0  0
   58.5400   29.1660   45.6010 C   0  0  0  0  0  0  0  0  0  0  0  0
   59.7900   29.0920   46.2260 C   0  0  0  0  0  0  0  0  0  0  0  0
   60.0600   28.0690   47.1400 C   0  0  0  0  0  0  0  0  0  0  0  0
   59.0870   27.1070   47.4250 C   0  0  0  0  0  0  0  0  0  0  0  0
   57.8330   27.1630   46.7940 C   0  0  0  0  0  0  0  0  0  0  0  0
   56.8280   26.1670   47.0260 N   0  0  0  0  0  0  0  0  0  0  0  0
   55.8600   25.7150   46.0710 C   0  0  0  0  0  0  0  0  0  0  0  0
   54.7720   26.3410   45.9710 O   0  0  0  0  0  0  0  0  0  0  0  0
   56.0720   24.4830   45.2740 C   0  0  0  0  0  0  0  0  0  0  0  0
   55.4020   23.3070   45.6570 C   0  0  0  0  0  0  0  0  0  0  0  0
   55.5370   22.1370   44.9080 C   0  0  0  0  0  0  0  0  0  0  0  0
   56.3460   22.1220   43.7730 C   0  0  0  0  0  0  0  0  0  0  0  0
   57.0260   23.2760   43.3830 C   0  0  0  0  0  0  0  0  0  0  0  0
   56.9090   24.4630   44.1280 C   0  0  0  0  0  0  0  0  0  0  0  0
   57.6720   25.6810   43.6830 C   0  0  0  0  0  0  0  0  0  0  0  0
   57.5760   28.1780   45.8640 C   0  0  0  0  0  0  0  0  0  0  0  0
   58.4660   32.9000   46.7870 C   0  0  0  0  0  0  0  0  0  0  0  0
   59.5869   33.6981   50.5746 H   0  0  0  0  0  0  0  0  0  0  0  0
   59.1089   32.4333   49.3921 H   0  0  0  0  0  0  0  0  0  0  0  0
   60.7868   33.0746   49.3921 H   0  0  0  0  0  0  0  0  0  0  0  0
   59.2500   35.3450   48.9580 H   0  0  0  0  0  0  0  0  0  0  0  0
   59.8346   36.0285   46.5695 H   0  0  0  0  0  0  0  0  0  0  0  0
   59.3933   35.6144   44.1525 H   0  0  0  0  0  0  0  0  0  0  0  0
   58.3444   33.4774   43.4161 H   0  0  0  0  0  0  0  0  0  0  0  0
   60.5625   29.8410   45.9974 H   0  0  0  0  0  0  0  0  0  0  0  0
   61.0407   28.0212   47.6360 H   0  0  0  0  0  0  0  0  0  0  0  0
   59.3036   26.3041   48.1451 H   0  0  0  0  0  0  0  0  0  0  0  0
   54.7661   23.3094   46.5546 H   0  0  0  0  0  0  0  0  0  0  0  0
   55.0038   21.2248   45.2141 H   0  0  0  0  0  0  0  0  0  0  0  0
   56.4484   21.1987   43.1839 H   0  0  0  0  0  0  0  0  0  0  0  0
   57.6598   23.2573   42.4841 H   0  0  0  0  0  0  0  0  0  0  0  0
   58.0208   26.2378   44.5652 H   0  0  0  0  0  0  0  0  0  0  0  0
   58.5377   25.3711   43.0792 H   0  0  0  0  0  0  0  0  0  0  0  0
   57.0154   26.3247   43.0792 H   0  0  0  0  0  0  0  0  0  0  0  0
   56.6118   28.2020   45.3351 H   0  0  0  0  0  0  0  0  0  0  0  0
   58.2235   32.1238   47.5277 H   0  0  0  0  0  0  0  0  0  0  0  0
  1  2  1  0
  2  3  1  0
  3  4  2  0
  4  5  1  0
  5  6  2  0
  6  7  1  0
  7  8  1  0
  8  9  2  0
  8 10  1  0
 10 11  1  0
 11 12  2  0
 12 13  1  0
 13 14  2  0
 14 15  1  0
 15 16  1  0
 16 17  1  0
 17 18  2  0
 17 19  1  0
 19 20  2  0
 20 21  1  0
 21 22  2  0
 22 23  1  0
 23 24  2  0
 24 25  1  0
 15 26  2  0
  7 27  2  0
 27  3  1  0
 26 11  1  0
 24 19  1  0
  1 28  1  0
  1 29  1  0
  1 30  1  0
  2 31  1  0
  4 32  1  0
  5 33  1  0
  6 34  1  0
 12 35  1  0
 13 36  1  0
 14 37  1  0
 20 38  1  0
 21 39  1  0
 22 40  1  0
 23 41  1  0
 25 42  1  0
 25 43  1  0
 25 44  1  0
 26 45  1  0
 27 46  1  0
M  CHG  2  10  -1  16  -1
M  END
>  <UniqueID>  (32) 
31

>  <SMILES>  (32) 
CNc1cccc(C(=O)[N-]c2cccc([N-]C(=O)c3ccccc3C)c2)c1

>  <Energy>  (32) 
60.231417527769345

>  <Genealogy>  (32) 
CNc1cccc(C(=O)[N-]c2cccc([N-]C(=O)c3ccccc3C)c2)c1 (protonated)
CNc1cccc(C(=O)[N-]c2cccc([N-]C(=O)c3ccccc3C)c2)c1 (3D coordinates assigned)
CNc1cccc(C(=O)[N-]c2cccc([N-]C(=O)c3ccccc3C)c2)c1 (optimized conformer: 60.231417527769345 kcal/mol)

>  <smiles>  (32) 
CNc1cccc(C(=O)Nc2cccc(NC(=O)c3ccccc3C)c2)c1

>  <score_type>  (32) 
oracle

>  <origin>  (32) 
adg

>  <m_score__min__energy>  (32) 
-12.529999999999999

>  <m_primary>  (32) 
energy

$$$$
32:0
     RDKit          3D

 36 37  0  0  0  0  0  0  0  0999 V2000
   60.6150   34.2510   48.1020 C   0  0  0  0  0  0  0  0  0  0  0  0
   59.7600   33.8530   46.9350 C   0  0  0  0  0  0  0  0  0  0  0  0
   59.4990   32.4990   46.6800 C   0  0  0  0  0  0  0  0  0  0  0  0
   58.7350   32.1260   45.5720 C   0  0  0  0  0  0  0  0  0  0  0  0
   58.2360   33.0940   44.6920 C   0  0  0  0  0  0  0  0  0  0  0  0
   57.4850   32.6600   43.5890 O   0  0  0  0  0  0  0  0  0  0  0  0
   57.7680   31.5090   42.7910 C   0  0  0  0  0  0  0  0  0  0  0  0
   56.6410   30.4720   42.8800 C   0  0  0  0  0  0  0  0  0  0  0  0
   56.7510   29.6660   44.1390 C   0  0  0  0  0  0  0  0  0  0  0  0
   56.6410   30.2400   45.2560 O   0  0  0  0  0  0  0  0  0  0  0  0
   57.0100   28.2570   44.0660 N   0  0  0  0  0  0  0  0  0  0  0  0
   57.4630   27.4770   45.1850 C   0  0  0  0  0  0  0  0  0  0  0  0
   58.8240   27.4940   45.5220 C   0  0  0  0  0  0  0  0  0  0  0  0
   59.2900   26.7580   46.6160 C   0  0  0  0  0  0  0  0  0  0  0  0
   58.3980   26.0130   47.3890 C   0  0  0  0  0  0  0  0  0  0  0  0
   57.0360   26.0130   47.0790 C   0  0  0  0  0  0  0  0  0  0  0  0
   56.5610   26.7520   45.9900 C   0  0  0  0  0  0  0  0  0  0  0  0
   55.1940   26.7820   45.7350 O   0  0  0  0  0  0  0  0  0  0  0  0
   58.5040   34.4530   44.9440 C   0  0  0  0  0  0  0  0  0  0  0  0
   59.2680   34.8270   46.0540 C   0  0  0  0  0  0  0  0  0  0  0  0
   60.0927   34.0079   49.0390 H   0  0  0  0  0  0  0  0  0  0  0  0
   61.5686   33.7042   48.0613 H   0  0  0  0  0  0  0  0  0  0  0  0
   60.8106   35.3327   48.0613 H   0  0  0  0  0  0  0  0  0  0  0  0
   59.8976   31.7276   47.3553 H   0  0  0  0  0  0  0  0  0  0  0  0
   58.5234   31.0622   45.3890 H   0  0  0  0  0  0  0  0  0  0  0  0
   57.8847   31.8209   41.7426 H   0  0  0  0  0  0  0  0  0  0  0  0
   58.6925   31.0470   43.1675 H   0  0  0  0  0  0  0  0  0  0  0  0
   55.6718   30.9922   42.8694 H   0  0  0  0  0  0  0  0  0  0  0  0
   56.7223   29.7913   42.0198 H   0  0  0  0  0  0  0  0  0  0  0  0
   56.7700   27.7540   43.1820 H   0  0  0  0  0  0  0  0  0  0  0  0
   59.5287   28.0893   44.9228 H   0  0  0  0  0  0  0  0  0  0  0  0
   60.3608   26.7662   46.8676 H   0  0  0  0  0  0  0  0  0  0  0  0
   58.7677   25.4257   48.2425 H   0  0  0  0  0  0  0  0  0  0  0  0
   56.3342   25.4298   47.6933 H   0  0  0  0  0  0  0  0  0  0  0  0
   58.1108   35.2239   44.2649 H   0  0  0  0  0  0  0  0  0  0  0  0
   59.4840   35.8899   46.2369 H   0  0  0  0  0  0  0  0  0  0  0  0
  1  2  1  0
  2  3  2  0
  3  4  1  0
  4  5  2  0
  5  6  1  0
  6  7  1  0
  7  8  1  0
  8  9  1  0
  9 10  2  0
  9 11  1  0
 11 12  1  0
 12 13  2  0
 13 14  1  0
 14 15  2  0
 15 16  1  0
 16 17  2  0
 17 18  1  0
  5 19  1  0
 19 20  2  0
 20  2  1  0
 17 12  1  0
  1 21  1  0
  1 22  1  0
  1 23  1  0
  3 24  1  0
  4 25  1  0
  7 26  1  0
  7 27  1  0
  8 28  1  0
  8 29  1  0
 11 30  1  0
 13 31  1  0
 14 32  1  0
 15 33  1  0
 16 34  1  0
 19 35  1  0
 20 36  1  0
M  CHG  1  18  -1
M  END
>  <UniqueID>  (33) 
32

>  <SMILES>  (33) 
Cc1ccc(OCCC(=O)Nc2ccccc2[O-])cc1

>  <Energy>  (33) 
36.85443557674057

>  <Genealogy>  (33) 
Cc1ccc(OCCC(=O)Nc2ccccc2[O-])cc1 (protonated)
Cc1ccc(OCCC(=O)Nc2ccccc2[O-])cc1 (3D coordinates assigned)
Cc1ccc(OCCC(=O)Nc2ccccc2[O-])cc1 (optimized conformer: 36.85443557674057 kcal/mol)

>  <smiles>  (33) 
Cc1ccc(OCCC(=O)Nc2ccccc2O)cc1

>  <score_type>  (33) 
oracle

>  <origin>  (33) 
adg

>  <m_score__min__energy>  (33) 
-11.130000000000001

>  <m_primary>  (33) 
energy

$$$$
33:0
     RDKit          3D

 49 50  0  0  0  0  0  0  0  0999 V2000
   57.9700   26.6080   46.9440 C   0  0  0  0  0  0  0  0  0  0  0  0
   57.1450   27.0730   45.7450 C   0  0  0  0  0  0  0  0  0  0  0  0
   57.4660   28.5040   45.4010 C   0  0  0  0  0  0  0  0  0  0  0  0
   58.7780   28.9790   45.5500 C   0  0  0  0  0  0  0  0  0  0  0  0
   59.0840   30.3160   45.2730 C   0  0  0  0  0  0  0  0  0  0  0  0
   58.0810   31.2000   44.8540 C   0  0  0  0  0  0  0  0  0  0  0  0
   58.3990   32.6540   44.6120 C   0  0  0  0  0  0  0  0  0  0  0  0
   57.9690   33.5390   45.7900 C   0  0  0  0  0  0  0  0  0  0  0  0
   58.8460   34.7980   45.9260 C   0  0  0  0  0  0  0  0  0  0  0  0
   60.3380   34.4620   45.9800 C   0  0  0  0  0  0  0  0  0  0  0  0
   60.6240   33.5370   47.0760 N   0  0  0  0  0  0  0  0  0  0  0  0
   61.8980   32.8980   47.2390 C   0  0  0  0  0  0  0  0  0  0  0  0
   62.9240   33.3650   46.6740 O   0  0  0  0  0  0  0  0  0  0  0  0
   62.0010   31.6240   48.0190 C   0  0  0  0  0  0  0  0  0  0  0  0
   60.7550   31.4410   48.8440 C   0  0  0  0  0  0  0  0  0  0  0  0
   60.4370   32.3600   49.8600 C   0  0  0  0  0  0  0  0  0  0  0  0
   59.3300   32.1480   50.6880 C   0  0  0  0  0  0  0  0  0  0  0  0
   58.5280   31.0040   50.5240 C   0  0  0  0  0  0  0  0  0  0  0  0
   57.3790   30.7650   51.4260 C   0  0  0  0  0  0  0  0  0  0  0  0
   57.0280   29.5910   51.7160 O   0  0  0  0  0  0  0  0  0  0  0  0
   56.6810   31.8390   51.9860 O   0  0  0  0  0  0  0  0  0  0  0  0
   58.8510   30.0820   49.5110 C   0  0  0  0  0  0  0  0  0  0  0  0
   59.9560   30.2960   48.6790 C   0  0  0  0  0  0  0  0  0  0  0  0
   56.7660   30.7330   44.7210 C   0  0  0  0  0  0  0  0  0  0  0  0
   56.4560   29.3960   44.9910 C   0  0  0  0  0  0  0  0  0  0  0  0
   55.1410   28.9640   44.8580 O   0  0  0  0  0  0  0  0  0  0  0  0
   57.4590   26.8960   47.8745 H   0  0  0  0  0  0  0  0  0  0  0  0
   58.0815   25.5142   46.9103 H   0  0  0  0  0  0  0  0  0  0  0  0
   58.9635   27.0790   46.9103 H   0  0  0  0  0  0  0  0  0  0  0  0
   57.3735   26.4336   44.8796 H   0  0  0  0  0  0  0  0  0  0  0  0
   56.0776   27.0015   46.0009 H   0  0  0  0  0  0  0  0  0  0  0  0
   59.5714   28.2956   45.8869 H   0  0  0  0  0  0  0  0  0  0  0  0
   60.1177   30.6750   45.3848 H   0  0  0  0  0  0  0  0  0  0  0  0
   59.4839   32.7608   44.4647 H   0  0  0  0  0  0  0  0  0  0  0  0
   57.8431   32.9802   43.7206 H   0  0  0  0  0  0  0  0  0  0  0  0
   56.9251   33.8500   45.6362 H   0  0  0  0  0  0  0  0  0  0  0  0
   58.0810   32.9497   46.7120 H   0  0  0  0  0  0  0  0  0  0  0  0
   58.6617   35.4528   45.0616 H   0  0  0  0  0  0  0  0  0  0  0  0
   58.5781   35.2950   46.8700 H   0  0  0  0  0  0  0  0  0  0  0  0
   60.6374   33.9975   45.0289 H   0  0  0  0  0  0  0  0  0  0  0  0
   60.9023   35.3913   46.1474 H   0  0  0  0  0  0  0  0  0  0  0  0
   59.8120   33.1850   47.6310 H   0  0  0  0  0  0  0  0  0  0  0  0
   62.1099   30.7769   47.3257 H   0  0  0  0  0  0  0  0  0  0  0  0
   62.8776   31.6688   48.6821 H   0  0  0  0  0  0  0  0  0  0  0  0
   61.0637   33.2524   50.0045 H   0  0  0  0  0  0  0  0  0  0  0  0
   59.0851   32.8799   51.4718 H   0  0  0  0  0  0  0  0  0  0  0  0
   58.2295   29.1851   49.3719 H   0  0  0  0  0  0  0  0  0  0  0  0
   60.2001   29.5658   47.8933 H   0  0  0  0  0  0  0  0  0  0  0  0
   55.9715   31.4235   44.4017 H   0  0  0  0  0  0  0  0  0  0  0  0
  1  2  1  0
  2  3  1  0
  3  4  2  0
  4  5  1  0
  5  6  2  0
  6  7  1  0
  7  8  1  0
  8  9  1  0
  9 10  1  0
 10 11  1  0
 11 12  1  0
 12 13  2  0
 12 14  1  0
 14 15  1  0
 15 16  2  0
 16 17  1  0
 17 18  2  0
 18 19  1  0
 19 20  2  0
 19 21  1  0
 18 22  1  0
 22 23  2  0
  6 24  1  0
 24 25  2  0
 25 26  1  0
 25  3  1  0
 23 15  1  0
  1 27  1  0
  1 28  1  0
  1 29  1  0
  2 30  1  0
  2 31  1  0
  4 32  1  0
  5 33  1  0
  7 34  1  0
  7 35  1  0
  8 36  1  0
  8 37  1  0
  9 38  1  0
  9 39  1  0
 10 40  1  0
 10 41  1  0
 11 42  1  0
 14 43  1  0
 14 44  1  0
 16 45  1  0
 17 46  1  0
 22 47  1  0
 23 48  1  0
 24 49  1  0
M  CHG  2  21  -1  26  -1
M  END
>  <UniqueID>  (34) 
33

>  <SMILES>  (34) 
CCc1ccc(CCCCNC(=O)Cc2ccc(C(=O)[O-])cc2)cc1[O-]

>  <Energy>  (34) 
35.35937392520428

>  <Genealogy>  (34) 
CCc1ccc(CCCCNC(=O)Cc2ccc(C(=O)[O-])cc2)cc1[O-] (protonated)
CCc1ccc(CCCCNC(=O)Cc2ccc(C(=O)[O-])cc2)cc1[O-] (3D coordinates assigned)
CCc1ccc(CCCCNC(=O)Cc2ccc(C(=O)[O-])cc2)cc1[O-] (optimized conformer: 35.35937392520428 kcal/mol)

>  <smiles>  (34) 
CCc1ccc(CCCCNC(=O)Cc2ccc(C(=O)O)cc2)cc1O

>  <score_type>  (34) 
oracle

>  <origin>  (34) 
adg

>  <m_score__min__energy>  (34) 
-14.380000000000001

>  <m_primary>  (34) 
energy

$$$$
34:0
     RDKit          3D

 44 46  0  0  0  0  0  0  0  0999 V2000
   55.1450   29.3620   44.8290 N   0  0  0  0  0  0  0  0  0  0  0  0
   56.5400   30.3130   44.4570 S   0  0  0  0  0  0  0  0  0  0  0  0
   56.8300   30.2020   42.9860 O   0  0  0  0  0  0  0  0  0  0  0  0
   56.2500   31.7450   44.8080 O   0  0  0  0  0  0  0  0  0  0  0  0
   57.9420   29.7480   45.3770 C   0  0  0  0  0  0  0  0  0  0  0  0
   58.0840   28.3740   45.6290 C   0  0  0  0  0  0  0  0  0  0  0  0
   59.1570   27.8950   46.3890 C   0  0  0  0  0  0  0  0  0  0  0  0
   59.2750   26.1810   46.7660 S   0  0  0  0  0  0  0  0  0  0  0  0
   60.5710   25.6290   46.2390 O   0  0  0  0  0  0  0  0  0  0  0  0
   59.2500   25.9750   48.2550 O   0  0  0  0  0  0  0  0  0  0  0  0
   57.9140   25.3500   46.0240 C   0  0  0  0  0  0  0  0  0  0  0  0
   58.1210   24.4520   44.9670 C   0  0  0  0  0  0  0  0  0  0  0  0
   57.0320   23.8200   44.3600 C   0  0  0  0  0  0  0  0  0  0  0  0
   55.7320   24.0860   44.8000 C   0  0  0  0  0  0  0  0  0  0  0  0
   55.5210   24.9890   45.8470 C   0  0  0  0  0  0  0  0  0  0  0  0
   56.6080   25.6220   46.4570 C   0  0  0  0  0  0  0  0  0  0  0  0
   60.0980   28.7910   46.9010 C   0  0  0  0  0  0  0  0  0  0  0  0
   59.9730   30.1570   46.6520 C   0  0  0  0  0  0  0  0  0  0  0  0
   58.8940   30.6530   45.8990 C   0  0  0  0  0  0  0  0  0  0  0  0
   58.7680   32.0680   45.6850 N   0  0  0  0  0  0  0  0  0  0  0  0
   59.1170   33.2190   46.9340 S   0  0  0  0  0  0  0  0  0  0  0  0
   58.3770   32.8410   48.1860 O   0  0  0  0  0  0  0  0  0  0  0  0
   58.6670   34.5830   46.4890 O   0  0  0  0  0  0  0  0  0  0  0  0
   60.8460   33.2130   47.2760 C   0  0  0  0  0  0  0  0  0  0  0  0
   61.3240   32.5510   48.4150 C   0  0  0  0  0  0  0  0  0  0  0  0
   62.6970   32.4990   48.6730 C   0  0  0  0  0  0  0  0  0  0  0  0
   63.5980   33.1120   47.7970 C   0  0  0  0  0  0  0  0  0  0  0  0
   63.1260   33.7760   46.6620 C   0  0  0  0  0  0  0  0  0  0  0  0
   61.7530   33.8280   46.4000 C   0  0  0  0  0  0  0  0  0  0  0  0
   55.4070   28.7290   45.6180 H   0  0  0  0  0  0  0  0  0  0  0  0
   57.3444   27.6670   45.2250 H   0  0  0  0  0  0  0  0  0  0  0  0
   59.1423   24.2446   44.6149 H   0  0  0  0  0  0  0  0  0  0  0  0
   57.1982   23.1121   43.5346 H   0  0  0  0  0  0  0  0  0  0  0  0
   54.8761   23.5857   44.3234 H   0  0  0  0  0  0  0  0  0  0  0  0
   54.4980   25.2015   46.1911 H   0  0  0  0  0  0  0  0  0  0  0  0
   56.4388   26.3345   47.2778 H   0  0  0  0  0  0  0  0  0  0  0  0
   60.9401   28.4179   47.5024 H   0  0  0  0  0  0  0  0  0  0  0  0
   60.7261   30.8538   47.0486 H   0  0  0  0  0  0  0  0  0  0  0  0
   58.3240   32.4310   44.8120 H   0  0  0  0  0  0  0  0  0  0  0  0
   60.6171   32.0711   49.1078 H   0  0  0  0  0  0  0  0  0  0  0  0
   63.0688   31.9753   49.5660 H   0  0  0  0  0  0  0  0  0  0  0  0
   64.6781   33.0715   48.0014 H   0  0  0  0  0  0  0  0  0  0  0  0
   63.8352   34.2586   45.9734 H   0  0  0  0  0  0  0  0  0  0  0  0
   61.3839   34.3518   45.5059 H   0  0  0  0  0  0  0  0  0  0  0  0
  1  2  1  0
  2  3  2  0
  2  4  2  0
  2  5  1  0
  5  6  2  0
  6  7  1  0
  7  8  1  0
  8  9  2  0
  8 10  2  0
  8 11  1  0
 11 12  2  0
 12 13  1  0
 13 14  2  0
 14 15  1  0
 15 16  2  0
  7 17  2  0
 17 18  1  0
 18 19  2  0
 19 20  1  0
 20 21  1  0
 21 22  2  0
 21 23  2  0
 21 24  1  0
 24 25  2  0
 25 26  1  0
 26 27  2  0
 27 28  1  0
 28 29  2  0
 19  5  1  0
 29 24  1  0
 16 11  1  0
  1 30  1  0
  6 31  1  0
 12 32  1  0
 13 33  1  0
 14 34  1  0
 15 35  1  0
 16 36  1  0
 17 37  1  0
 18 38  1  0
 20 39  1  0
 25 40  1  0
 26 41  1  0
 27 42  1  0
 28 43  1  0
 29 44  1  0
M  CHG  1   1  -1
M  END
>  <UniqueID>  (35) 
34

>  <SMILES>  (35) 
[NH-]S(=O)(=O)c1cc(S(=O)(=O)c2ccccc2)ccc1NS(=O)(=O)c1ccccc1

>  <Energy>  (35) 
52.80679517497554

>  <Genealogy>  (35) 
[NH-]S(=O)(=O)c1cc(S(=O)(=O)c2ccccc2)ccc1NS(=O)(=O)c1ccccc1 (protonated)
[NH-]S(=O)(=O)c1cc(S(=O)(=O)c2ccccc2)ccc1NS(=O)(=O)c1ccccc1 (3D coordinates assigned)
[NH-]S(=O)(=O)c1cc(S(=O)(=O)c2ccccc2)ccc1NS(=O)(=O)c1ccccc1 (optimized conformer: 52.80679517497554 kcal/mol)

>  <smiles>  (35) 
NS(=O)(=O)c1cc(S(=O)(=O)c2ccccc2)ccc1NS(=O)(=O)c1ccccc1

>  <score_type>  (35) 
oracle

>  <origin>  (35) 
adg

>  <m_score__min__energy>  (35) 
-13.710000000000001

>  <m_primary>  (35) 
energy

$$$$
35:0
     RDKit          3D

 48 50  0  0  0  0  0  0  0  0999 V2000
   58.3310   21.5150   43.7640 C   0  0  0  0  0  0  0  0  0  0  0  0
   56.5620   21.7070   43.7820 S   0  0  0  0  0  0  0  0  0  0  0  0
   56.1020   22.0670   42.3980 O   0  0  0  0  0  0  0  0  0  0  0  0
   55.8990   20.4220   44.1890 O   0  0  0  0  0  0  0  0  0  0  0  0
   56.1080   22.9810   44.8690 N   0  0  0  0  0  0  0  0  0  0  0  0
   56.5530   24.3420   44.8010 C   0  0  0  0  0  0  0  0  0  0  0  0
   56.1920   25.2150   45.8340 C   0  0  0  0  0  0  0  0  0  0  0  0
   56.6150   26.5470   45.8220 C   0  0  0  0  0  0  0  0  0  0  0  0
   57.4000   27.0320   44.7620 C   0  0  0  0  0  0  0  0  0  0  0  0
   57.8850   28.3860   44.7450 N   0  0  0  0  0  0  0  0  0  0  0  0
   57.0740   29.5290   45.0660 C   0  0  0  0  0  0  0  0  0  0  0  0
   55.8280   29.4830   44.8730 O   0  0  0  0  0  0  0  0  0  0  0  0
   57.6900   30.7750   45.5800 C   0  0  0  0  0  0  0  0  0  0  0  0
   57.6330   31.9590   44.8250 C   0  0  0  0  0  0  0  0  0  0  0  0
   58.1950   33.1440   45.3130 C   0  0  0  0  0  0  0  0  0  0  0  0
   58.8120   33.1680   46.5770 C   0  0  0  0  0  0  0  0  0  0  0  0
   59.3830   34.3260   47.1300 O   0  0  0  0  0  0  0  0  0  0  0  0
   60.7780   34.5740   47.3300 C   0  0  0  0  0  0  0  0  0  0  0  0
   61.6420   33.4440   46.7460 C   0  0  1  0  0  0  0  0  0  0  0  0
   63.0740   33.8720   46.4330 C   0  0  0  0  0  0  0  0  0  0  0  0
   63.8900   33.1890   47.4860 C   0  0  0  0  0  0  0  0  0  0  0  0
   63.0100   32.0330   47.9050 C   0  0  0  0  0  0  0  0  0  0  0  0
   61.6640   32.3540   47.6450 O   0  0  0  0  0  0  0  0  0  0  0  0
   58.8780   31.9880   47.3230 C   0  0  0  0  0  0  0  0  0  0  0  0
   58.3180   30.8040   46.8380 C   0  0  0  0  0  0  0  0  0  0  0  0
   57.7710   26.1550   43.7320 C   0  0  0  0  0  0  0  0  0  0  0  0
   57.3480   24.8220   43.7450 C   0  0  0  0  0  0  0  0  0  0  0  0
   58.7059   21.4743   44.7973 H   0  0  0  0  0  0  0  0  0  0  0  0
   58.5934   20.5831   43.2418 H   0  0  0  0  0  0  0  0  0  0  0  0
   58.7872   22.3689   43.2418 H   0  0  0  0  0  0  0  0  0  0  0  0
   55.5691   24.8490   46.6635 H   0  0  0  0  0  0  0  0  0  0  0  0
   56.3322   27.2187   46.6459 H   0  0  0  0  0  0  0  0  0  0  0  0
   58.8590   28.5550   44.4070 H   0  0  0  0  0  0  0  0  0  0  0  0
   57.1418   31.9542   43.8408 H   0  0  0  0  0  0  0  0  0  0  0  0
   58.1542   34.0603   44.7058 H   0  0  0  0  0  0  0  0  0  0  0  0
   61.0468   35.5201   46.8375 H   0  0  0  0  0  0  0  0  0  0  0  0
   60.9667   34.6278   48.4124 H   0  0  0  0  0  0  0  0  0  0  0  0
   61.1805   33.1566   45.7898 H   0  0  0  0  0  0  0  0  0  0  0  0
   63.3720   33.5377   45.4283 H   0  0  0  0  0  0  0  0  0  0  0  0
   63.2019   34.9645   46.4383 H   0  0  0  0  0  0  0  0  0  0  0  0
   64.8448   32.8297   47.0746 H   0  0  0  0  0  0  0  0  0  0  0  0
   64.1604   33.8517   48.3213 H   0  0  0  0  0  0  0  0  0  0  0  0
   63.2896   31.1337   47.3366 H   0  0  0  0  0  0  0  0  0  0  0  0
   63.1417   31.8408   48.9800 H   0  0  0  0  0  0  0  0  0  0  0  0
   59.3767   31.9918   48.3034 H   0  0  0  0  0  0  0  0  0  0  0  0
   58.3685   29.8876   47.4443 H   0  0  0  0  0  0  0  0  0  0  0  0
   58.4004   26.5190   42.9065 H   0  0  0  0  0  0  0  0  0  0  0  0
   57.6381   24.1468   42.9265 H   0  0  0  0  0  0  0  0  0  0  0  0
  1  2  1  0
  2  3  2  0
  2  4  2  0
  2  5  1  0
  5  6  1  0
  6  7  2  0
  7  8  1  0
  8  9  2  0
  9 10  1  0
 10 11  1  0
 11 12  2  0
 11 13  1  0
 13 14  2  0
 14 15  1  0
 15 16  2  0
 16 17  1  0
 17 18  1  0
 18 19  1  0
 19 20  1  0
 20 21  1  0
 21 22  1  0
 22 23  1  0
 16 24  1  0
 24 25  2  0
  9 26  1  0
 26 27  2  0
 27  6  1  0
 25 13  1  0
 23 19  1  0
  1 28  1  0
  1 29  1  0
  1 30  1  0
  7 31  1  0
  8 32  1  0
 10 33  1  0
 14 34  1  0
 15 35  1  0
 18 36  1  0
 18 37  1  0
 19 38  1  6
 20 39  1  0
 20 40  1  0
 21 41  1  0
 21 42  1  0
 22 43  1  0
 22 44  1  0
 24 45  1  0
 25 46  1  0
 26 47  1  0
 27 48  1  0
M  CHG  1   5  -1
M  END
>  <UniqueID>  (36) 
35

>  <SMILES>  (36) 
CS(=O)(=O)[N-]c1ccc(NC(=O)c2ccc(OC[C@H]3CCCO3)cc2)cc1

>  <Energy>  (36) 
54.90217834820244

>  <Genealogy>  (36) 
CS(=O)(=O)[N-]c1ccc(NC(=O)c2ccc(OCC3CCCO3)cc2)cc1 (protonated)
CS(=O)(=O)[N-]c1ccc(NC(=O)c2ccc(OC[C@H]3CCCO3)cc2)cc1 (chirality)
CS(=O)(=O)[N-]c1ccc(NC(=O)c2ccc(OC[C@H]3CCCO3)cc2)cc1 (3D coordinates assigned)
CS(=O)(=O)[N-]c1ccc(NC(=O)c2ccc(OC[C@H]3CCCO3)cc2)cc1 (nonaromatic ring conformer: 54.90217834820244 kcal/mol)

>  <smiles>  (36) 
CS(=O)(=O)Nc1ccc(NC(=O)c2ccc(OCC3CCCO3)cc2)cc1

>  <score_type>  (36) 
oracle

>  <origin>  (36) 
adg

>  <m_score__min__energy>  (36) 
-9.4700000000000006

>  <m_primary>  (36) 
energy

$$$$
36:0
     RDKit          3D

 29 31  0  0  0  0  0  0  0  0999 V2000
   55.8330   26.9010   45.1020 H   0  0  0  0  0  0  0  0  0  0  0  0
   56.3770   27.6230   45.6250 N   0  0  0  0  0  0  0  0  0  0  0  0
   56.5380   28.8130   45.1500 C   0  0  0  0  0  0  0  0  0  0  0  0
   55.5200   29.6790   44.9550 N   0  0  0  0  0  0  0  0  0  0  0  0
   55.9280   30.8460   44.4600 N   0  0  0  0  0  0  0  0  0  0  0  0
   57.2650   30.9020   44.2680 C   0  0  0  0  0  0  0  0  0  0  0  0
   58.1120   32.3490   43.6380 S   0  0  0  0  0  0  0  0  0  0  0  0
   57.3860   33.5020   44.8570 C   0  0  0  0  0  0  0  0  0  0  0  0
   57.2677   34.4911   44.3904 H   0  0  0  0  0  0  0  0  0  0  0  0
   56.4101   33.1066   45.1752 H   0  0  0  0  0  0  0  0  0  0  0  0
   58.2680   33.6320   46.0680 C   0  0  0  0  0  0  0  0  0  0  0  0
   59.1840   34.6890   46.1590 C   0  0  0  0  0  0  0  0  0  0  0  0
   59.2841   35.4009   45.3264 H   0  0  0  0  0  0  0  0  0  0  0  0
   59.9690   34.8410   47.3020 C   0  0  0  0  0  0  0  0  0  0  0  0
   60.6897   35.6695   47.3657 H   0  0  0  0  0  0  0  0  0  0  0  0
   59.8430   33.9440   48.3670 C   0  0  0  0  0  0  0  0  0  0  0  0
   60.4641   34.0729   49.2657 H   0  0  0  0  0  0  0  0  0  0  0  0
   58.9280   32.8780   48.2980 C   0  0  0  0  0  0  0  0  0  0  0  0
   58.7810   31.9430   49.4420 C   0  0  0  0  0  0  0  0  0  0  0  0
   59.8310   30.6720   49.8000 S   0  0  0  0  0  0  0  0  0  0  0  0
   58.9800   30.1780   51.1620 C   0  0  0  0  0  0  0  0  0  0  0  0
   59.2424   29.3378   51.8217 H   0  0  0  0  0  0  0  0  0  0  0  0
   57.8860   31.0210   51.3050 C   0  0  0  0  0  0  0  0  0  0  0  0
   57.1590   30.9138   52.1235 H   0  0  0  0  0  0  0  0  0  0  0  0
   57.7820   31.9890   50.3560 N   0  0  0  0  0  0  0  0  0  0  0  0
   56.9910   32.6710   50.3420 H   0  0  0  0  0  0  0  0  0  0  0  0
   58.1440   32.7300   47.1390 C   0  0  0  0  0  0  0  0  0  0  0  0
   57.4262   31.8993   47.0703 H   0  0  0  0  0  0  0  0  0  0  0  0
   58.0250   29.4640   44.7090 S   0  0  0  0  0  0  0  0  0  0  0  0
  1  2  1  0
  2  3  2  0
  3  4  1  0
  4  5  1  0
  5  6  2  0
  6  7  1  0
  7  8  1  0
  8  9  1  0
  8 10  1  0
  8 11  1  0
 11 12  2  0
 12 13  1  0
 12 14  1  0
 14 15  1  0
 14 16  2  0
 16 17  1  0
 16 18  1  0
 18 19  1  0
 19 20  1  0
 20 21  1  0
 21 22  1  0
 21 23  2  0
 23 24  1  0
 23 25  1  0
 25 26  1  0
 18 27  2  0
 27 28  1  0
  6 29  1  0
 29  3  1  0
 27 11  1  0
 25 19  2  0
M  CHG  2   4  -1  25   1
M  END
>  <UniqueID>  (37) 
36

>  <SMILES>  (37) 
[H]/N=c1\[n-]nc(SCc2cccc(-c3[nH+]ccs3)c2)s1

>  <Energy>  (37) 
92.27132212968147

>  <Genealogy>  (37) 
N=c1[n-]nc(SCc2cccc(-c3[nH+]ccs3)c2)s1 (protonated)
[H]/N=c1\[n-]nc(SCc2cccc(-c3[nH+]ccs3)c2)s1 (cis-trans isomerization)
[H]/N=c1\[n-]nc(SCc2cccc(-c3[nH+]ccs3)c2)s1 (3D coordinates assigned)
[H]/N=c1\[n-]nc(SCc2cccc(-c3[nH+]ccs3)c2)s1 (optimized conformer: 92.27132212968147 kcal/mol)

>  <smiles>  (37) 
N=c1[nH]nc(SCc2cccc(-c3nccs3)c2)s1

>  <score_type>  (37) 
oracle

>  <origin>  (37) 
adg

>  <m_score__min__energy>  (37) 
-8.6199999999999992

>  <m_primary>  (37) 
energy

$$$$
37:0
     RDKit          3D

 43 45  0  0  0  0  0  0  0  0999 V2000
   57.4687   34.5862   43.9077 H   0  0  0  0  0  0  0  0  0  0  0  0
   57.9030   34.3140   44.8810 C   0  0  0  0  0  0  0  0  0  0  0  0
   59.2710   34.4870   45.1090 C   0  0  0  0  0  0  0  0  0  0  0  0
   59.9127   34.8967   44.3150 H   0  0  0  0  0  0  0  0  0  0  0  0
   59.8250   34.1400   46.3450 C   0  0  0  0  0  0  0  0  0  0  0  0
   60.9019   34.2789   46.5212 H   0  0  0  0  0  0  0  0  0  0  0  0
   59.0120   33.6150   47.3620 C   0  0  0  0  0  0  0  0  0  0  0  0
   59.5830   33.2560   48.6300 N   0  0  0  0  0  0  0  0  0  0  0  0
   59.6620   34.2410   49.7070 C   0  0  0  0  0  0  0  0  0  0  0  0
   59.6207   33.7264   50.6783 H   0  0  0  0  0  0  0  0  0  0  0  0
   60.6076   34.7972   49.6266 H   0  0  0  0  0  0  0  0  0  0  0  0
   58.8171   34.9408   49.6266 H   0  0  0  0  0  0  0  0  0  0  0  0
   60.0940   31.6210   48.9320 S   0  0  0  0  0  0  0  0  0  0  0  0
   61.5300   31.5900   49.3770 O   0  0  0  0  0  0  0  0  0  0  0  0
   59.2330   31.0330   50.0150 O   0  0  0  0  0  0  0  0  0  0  0  0
   59.9440   30.6930   47.4450 C   0  0  0  0  0  0  0  0  0  0  0  0
   61.0790   30.1900   46.7990 C   0  0  0  0  0  0  0  0  0  0  0  0
   62.0782   30.3736   47.2209 H   0  0  0  0  0  0  0  0  0  0  0  0
   60.9440   29.4550   45.6190 C   0  0  0  0  0  0  0  0  0  0  0  0
   61.8376   29.0607   45.1130 H   0  0  0  0  0  0  0  0  0  0  0  0
   59.6750   29.2190   45.0790 C   0  0  0  0  0  0  0  0  0  0  0  0
   59.5758   28.6379   44.1503 H   0  0  0  0  0  0  0  0  0  0  0  0
   58.5250   29.7200   45.7160 C   0  0  0  0  0  0  0  0  0  0  0  0
   57.1780   29.4760   45.1470 C   0  0  0  0  0  0  0  0  0  0  0  0
   56.4310   30.4540   44.8690 O   0  0  0  0  0  0  0  0  0  0  0  0
   56.7720   28.1350   44.8260 N   0  0  0  0  0  0  0  0  0  0  0  0
   57.1080   27.0170   45.4110 C   0  0  0  0  0  0  0  0  0  0  0  0
   56.0980   26.2540   46.0210 C   0  0  0  0  0  0  0  0  0  0  0  0
   54.7760   26.6870   46.0120 O   0  0  0  0  0  0  0  0  0  0  0  0
   56.4260   25.0510   46.6490 C   0  0  0  0  0  0  0  0  0  0  0  0
   55.6420   24.4519   47.1352 H   0  0  0  0  0  0  0  0  0  0  0  0
   57.7460   24.6110   46.6590 C   0  0  0  0  0  0  0  0  0  0  0  0
   58.0143   23.6694   47.1605 H   0  0  0  0  0  0  0  0  0  0  0  0
   58.7260   25.3770   46.0260 C   0  0  0  0  0  0  0  0  0  0  0  0
   59.7708   25.0328   46.0221 H   0  0  0  0  0  0  0  0  0  0  0  0
   58.3970   26.5480   45.4130 N   0  0  0  0  0  0  0  0  0  0  0  0
   59.1630   27.0450   44.9140 H   0  0  0  0  0  0  0  0  0  0  0  0
   58.6740   30.4620   46.9020 C   0  0  0  0  0  0  0  0  0  0  0  0
   57.7841   30.8647   47.4078 H   0  0  0  0  0  0  0  0  0  0  0  0
   57.6370   33.4490   47.1280 C   0  0  0  0  0  0  0  0  0  0  0  0
   56.9907   33.0454   47.9214 H   0  0  0  0  0  0  0  0  0  0  0  0
   57.0870   33.7950   45.8900 C   0  0  0  0  0  0  0  0  0  0  0  0
   56.0105   33.6585   45.7099 H   0  0  0  0  0  0  0  0  0  0  0  0
  1  2  1  0
  2  3  2  0
  3  4  1  0
  3  5  1  0
  5  6  1  0
  5  7  2  0
  7  8  1  0
  8  9  1  0
  9 10  1  0
  9 11  1  0
  9 12  1  0
  8 13  1  0
 13 14  2  0
 13 15  2  0
 13 16  1  0
 16 17  2  0
 17 18  1  0
 17 19  1  0
 19 20  1  0
 19 21  2  0
 21 22  1  0
 21 23  1  0
 23 24  1  0
 24 25  2  0
 24 26  1  0
 26 27  2  0
 27 28  1  0
 28 29  1  0
 28 30  2  0
 30 31  1  0
 30 32  1  0
 32 33  1  0
 32 34  2  0
 34 35  1  0
 34 36  1  0
 36 37  1  0
 23 38  2  0
 38 39  1  0
  7 40  1  0
 40 41  1  0
 40 42  2  0
 42 43  1  0
 42  2  1  0
 38 16  1  0
 36 27  1  0
M  CHG  1  29  -1
M  END
>  <UniqueID>  (38) 
37

>  <SMILES>  (38) 
CN(c1ccccc1)S(=O)(=O)c1cccc(C(=O)/N=c2\[nH]cccc2[O-])c1

>  <Energy>  (38) 
58.47500915614222

>  <Genealogy>  (38) 
CN(c1ccccc1)S(=O)(=O)c1cccc(C(=O)N=c2[nH]cccc2[O-])c1 (protonated)
CN(c1ccccc1)S(=O)(=O)c1cccc(C(=O)/N=c2\[nH]cccc2[O-])c1 (cis-trans isomerization)
CN(c1ccccc1)S(=O)(=O)c1cccc(C(=O)/N=c2\[nH]cccc2[O-])c1 (3D coordinates assigned)
CN(c1ccccc1)S(=O)(=O)c1cccc(C(=O)/N=c2\[nH]cccc2[O-])c1 (optimized conformer: 58.47500915614222 kcal/mol)

>  <smiles>  (38) 
CN(c1ccccc1)S(=O)(=O)c1cccc(C(=O)N=c2[nH]cccc2O)c1

>  <score_type>  (38) 
oracle

>  <origin>  (38) 
adg

>  <m_score__min__energy>  (38) 
-13.449999999999999

>  <m_primary>  (38) 
energy

$$$$
38:0
     RDKit          3D

 31 32  0  0  0  0  0  0  0  0999 V2000
   55.9509   23.5948   44.3397 H   0  0  0  0  0  0  0  0  0  0  0  0
   56.1380   24.5020   44.9330 C   0  0  0  0  0  0  0  0  0  0  0  0
   55.0430   24.9820   45.7970 C   0  0  0  0  0  0  0  0  0  0  0  0
   54.2980   24.1450   46.3690 O   0  0  0  0  0  0  0  0  0  0  0  0
   54.7700   26.3370   45.9370 O   0  0  0  0  0  0  0  0  0  0  0  0
   57.3430   25.0790   44.8100 C   0  0  0  0  0  0  0  0  0  0  0  0
   58.1859   24.4325   44.5243 H   0  0  0  0  0  0  0  0  0  0  0  0
   57.6300   26.5120   45.0270 C   0  0  0  0  0  0  0  0  0  0  0  0
   57.8270   27.0270   46.3180 C   0  0  0  0  0  0  0  0  0  0  0  0
   57.7284   26.3663   47.1920 H   0  0  0  0  0  0  0  0  0  0  0  0
   58.1480   28.3760   46.4980 C   0  0  0  0  0  0  0  0  0  0  0  0
   58.2843   28.7731   47.5147 H   0  0  0  0  0  0  0  0  0  0  0  0
   58.2980   29.2290   45.3910 C   0  0  0  0  0  0  0  0  0  0  0  0
   58.6380   30.6620   45.5820 C   0  0  0  0  0  0  0  0  0  0  0  0
   59.6340   31.0460   46.4960 C   0  0  0  0  0  0  0  0  0  0  0  0
   60.1673   30.2781   47.0757 H   0  0  0  0  0  0  0  0  0  0  0  0
   59.9530   32.3950   46.6750 C   0  0  0  0  0  0  0  0  0  0  0  0
   60.7253   32.6811   47.4042 H   0  0  0  0  0  0  0  0  0  0  0  0
   59.2950   33.3880   45.9310 C   0  0  0  0  0  0  0  0  0  0  0  0
   59.6040   34.8460   46.1610 C   0  0  0  0  0  0  0  0  0  0  0  0
   59.2710   35.5980   45.0480 F   0  0  0  0  0  0  0  0  0  0  0  0
   60.9560   34.9910   46.4140 F   0  0  0  0  0  0  0  0  0  0  0  0
   58.8890   35.3330   47.2420 F   0  0  0  0  0  0  0  0  0  0  0  0
   58.2800   33.0090   45.0370 C   0  0  0  0  0  0  0  0  0  0  0  0
   57.7322   33.7794   44.4745 H   0  0  0  0  0  0  0  0  0  0  0  0
   57.9610   31.6600   44.8570 C   0  0  0  0  0  0  0  0  0  0  0  0
   57.1741   31.3762   44.1426 H   0  0  0  0  0  0  0  0  0  0  0  0
   58.1310   28.7000   44.0980 C   0  0  0  0  0  0  0  0  0  0  0  0
   58.2530   29.3529   43.2212 H   0  0  0  0  0  0  0  0  0  0  0  0
   57.8110   27.3500   43.9190 C   0  0  0  0  0  0  0  0  0  0  0  0
   57.7009   26.9442   42.9026 H   0  0  0  0  0  0  0  0  0  0  0  0
  1  2  1  0
  2  3  1  0
  3  4  2  0
  3  5  1  0
  2  6  2  0
  6  7  1  0
  6  8  1  0
  8  9  2  0
  9 10  1  0
  9 11  1  0
 11 12  1  0
 11 13  2  0
 13 14  1  0
 14 15  2  0
 15 16  1  0
 15 17  1  0
 17 18  1  0
 17 19  2  0
 19 20  1  0
 20 21  1  0
 20 22  1  0
 20 23  1  0
 19 24  1  0
 24 25  1  0
 24 26  2  0
 26 27  1  0
 13 28  1  0
 28 29  1  0
 28 30  2  0
 30 31  1  0
 30  8  1  0
 26 14  1  0
M  CHG  1   5  -1
M  END
>  <UniqueID>  (39) 
38

>  <SMILES>  (39) 
O=C([O-])/C=C\c1ccc(-c2ccc(C(F)(F)F)cc2)cc1

>  <Energy>  (39) 
44.84060920444946

>  <Genealogy>  (39) 
O=C([O-])C=Cc1ccc(-c2ccc(C(F)(F)F)cc2)cc1 (protonated)
O=C([O-])/C=C\c1ccc(-c2ccc(C(F)(F)F)cc2)cc1 (cis-trans isomerization)
O=C([O-])/C=C\c1ccc(-c2ccc(C(F)(F)F)cc2)cc1 (3D coordinates assigned)
O=C([O-])/C=C\c1ccc(-c2ccc(C(F)(F)F)cc2)cc1 (optimized conformer: 44.84060920444946 kcal/mol)

>  <smiles>  (39) 
O=C(O)C=Cc1ccc(-c2ccc(C(F)(F)F)cc2)cc1

>  <score_type>  (39) 
oracle

>  <origin>  (39) 
adg

>  <m_score__min__energy>  (39) 
-9.2400000000000002

>  <m_primary>  (39) 
energy

$$$$
39:0
     RDKit          3D

 42 45  0  0  0  0  0  0  0  0999 V2000
   57.9780   20.3660   46.6540 N   0  0  0  0  0  0  0  0  0  0  0  0
   57.2480   21.4240   46.5160 C   0  0  0  0  0  0  0  0  0  0  0  0
   57.7190   22.6390   46.9120 N   0  0  0  0  0  0  0  0  0  0  0  0
   56.9720   23.7690   46.7850 C   0  0  0  0  0  0  0  0  0  0  0  0
   57.5650   25.0870   47.2010 C   0  0  0  0  0  0  0  0  0  0  0  0
   57.6690   26.0070   46.0140 C   0  0  0  0  0  0  0  0  0  0  0  0
   58.0600   25.5030   44.7640 C   0  0  0  0  0  0  0  0  0  0  0  0
   58.1180   26.3470   43.6540 C   0  0  0  0  0  0  0  0  0  0  0  0
   57.7770   27.6950   43.7760 C   0  0  0  0  0  0  0  0  0  0  0  0
   57.3700   28.2180   45.0170 C   0  0  0  0  0  0  0  0  0  0  0  0
   56.9870   29.6430   45.1440 C   0  0  0  0  0  0  0  0  0  0  0  0
   55.9950   30.0880   44.5030 O   0  0  0  0  0  0  0  0  0  0  0  0
   57.7700   30.5270   45.9590 N   0  0  0  0  0  0  0  0  0  0  0  0
   58.0260   31.9190   45.7210 C   0  0  0  0  0  0  0  0  0  0  0  0
   58.1400   32.8440   46.7780 C   0  0  0  0  0  0  0  0  0  0  0  0
   58.4170   34.1870   46.5110 C   0  0  0  0  0  0  0  0  0  0  0  0
   58.5970   34.6180   45.1960 C   0  0  0  0  0  0  0  0  0  0  0  0
   58.5120   33.7040   44.1430 C   0  0  0  0  0  0  0  0  0  0  0  0
   58.2340   32.3540   44.4020 C   0  0  0  0  0  0  0  0  0  0  0  0
   58.1590   31.4400   43.3520 O   0  0  0  0  0  0  0  0  0  0  0  0
   57.3210   27.3620   46.1330 C   0  0  0  0  0  0  0  0  0  0  0  0
   55.6920   23.6780   46.2150 C   0  0  0  0  0  0  0  0  0  0  0  0
   54.8970   24.7690   46.0420 N   0  0  0  0  0  0  0  0  0  0  0  0
   53.6620   24.6570   45.4850 C   0  0  0  0  0  0  0  0  0  0  0  0
   53.2000   23.3990   45.0820 C   0  0  0  0  0  0  0  0  0  0  0  0
   52.0600   23.2750   44.5650 O   0  0  0  0  0  0  0  0  0  0  0  0
   53.9900   22.3060   45.2540 N   0  0  0  0  0  0  0  0  0  0  0  0
   55.2250   22.4170   45.8100 C   0  0  0  0  0  0  0  0  0  0  0  0
   56.0080   21.3200   45.9690 N   0  0  0  0  0  0  0  0  0  0  0  0
   58.5310   19.9770   45.8580 H   0  0  0  0  0  0  0  0  0  0  0  0
   56.9225   25.5499   47.9645 H   0  0  0  0  0  0  0  0  0  0  0  0
   58.5709   24.9149   47.6114 H   0  0  0  0  0  0  0  0  0  0  0  0
   58.3215   24.4397   44.6588 H   0  0  0  0  0  0  0  0  0  0  0  0
   58.4338   25.9481   42.6787 H   0  0  0  0  0  0  0  0  0  0  0  0
   57.8268   28.3529   42.8958 H   0  0  0  0  0  0  0  0  0  0  0  0
   58.0104   32.5073   47.8172 H   0  0  0  0  0  0  0  0  0  0  0  0
   58.4934   34.9066   47.3395 H   0  0  0  0  0  0  0  0  0  0  0  0
   58.8059   35.6779   44.9885 H   0  0  0  0  0  0  0  0  0  0  0  0
   58.6635   34.0441   43.1079 H   0  0  0  0  0  0  0  0  0  0  0  0
   57.9100   30.4710   43.5090 H   0  0  0  0  0  0  0  0  0  0  0  0
   57.0065   27.7590   47.1095 H   0  0  0  0  0  0  0  0  0  0  0  0
   53.0309   25.5481   45.3521 H   0  0  0  0  0  0  0  0  0  0  0  0
  1  2  2  3
  2  3  1  0
  3  4  2  0
  4  5  1  0
  5  6  1  0
  6  7  2  0
  7  8  1  0
  8  9  2  0
  9 10  1  0
 10 11  1  0
 11 12  2  0
 11 13  1  0
 13 14  1  0
 14 15  2  0
 15 16  1  0
 16 17  2  0
 17 18  1  0
 18 19  2  0
 19 20  1  0
 10 21  2  0
  4 22  1  0
 22 23  1  0
 23 24  2  0
 24 25  1  0
 25 26  2  0
 25 27  1  0
 27 28  1  0
 28 29  1  0
 29  2  1  0
 21  6  1  0
 28 22  2  0
 19 14  1  0
  1 30  1  0
  5 31  1  0
  5 32  1  0
  7 33  1  0
  8 34  1  0
  9 35  1  0
 15 36  1  0
 16 37  1  0
 17 38  1  0
 18 39  1  0
 20 40  1  0
 21 41  1  0
 24 42  1  0
M  CHG  3  13  -1  27  -1  29  -1
M  END
>  <UniqueID>  (40) 
39

>  <SMILES>  (40) 
N=c1nc(Cc2cccc(C(=O)[N-]c3ccccc3O)c2)c2ncc(=O)[n-]c2[n-]1

>  <Energy>  (40) 
54.60568833291693

>  <Genealogy>  (40) 
N=c1nc(Cc2cccc(C(=O)[N-]c3ccccc3O)c2)c2ncc(=O)[n-]c2[n-]1 (protonated)
N=c1nc(Cc2cccc(C(=O)[N-]c3ccccc3O)c2)c2ncc(=O)[n-]c2[n-]1 (3D coordinates assigned)
N=c1nc(Cc2cccc(C(=O)[N-]c3ccccc3O)c2)c2ncc(=O)[n-]c2[n-]1 (optimized conformer: 54.60568833291693 kcal/mol)

>  <smiles>  (40) 
N=c1nc(Cc2cccc(C(=O)Nc3ccccc3O)c2)c2ncc(=O)[nH]c2[nH]1

>  <score_type>  (40) 
oracle

>  <origin>  (40) 
adg

>  <m_score__min__energy>  (40) 
-13.789999999999999

>  <m_primary>  (40) 
energy

$$$$
40:0
     RDKit          3D

 48 50  0  0  0  0  0  0  0  0999 V2000
   60.7640   30.1960   46.5660 C   0  0  0  0  0  0  0  0  0  0  0  0
   59.4670   29.8590   46.1840 O   0  0  0  0  0  0  0  0  0  0  0  0
   58.8450   28.6440   46.2880 C   0  0  0  0  0  0  0  0  0  0  0  0
   58.9180   27.8790   47.4350 C   0  0  0  0  0  0  0  0  0  0  0  0
   58.2660   26.6440   47.4920 C   0  0  0  0  0  0  0  0  0  0  0  0
   57.5430   26.1880   46.3870 C   0  0  0  0  0  0  0  0  0  0  0  0
   57.4620   26.9560   45.2190 C   0  0  0  0  0  0  0  0  0  0  0  0
   58.1130   28.1650   45.1910 C   0  0  0  0  0  0  0  0  0  0  0  0
   58.0710   29.0350   44.0370 N   0  0  0  0  0  0  0  0  0  0  0  0
   56.9540   29.8660   43.9190 C   0  0  0  0  0  0  0  0  0  0  0  0
   56.0810   29.7310   44.8710 O   0  0  0  0  0  0  0  0  0  0  0  0
   56.6340   30.8450   42.8970 C   0  0  0  0  0  0  0  0  0  0  0  0
   57.7630   32.2040   42.8200 S   0  0  0  0  0  0  0  0  0  0  0  0
   58.0340   33.0110   44.3610 C   0  0  0  0  0  0  0  0  0  0  0  0
   57.3140   33.8280   45.1230 N   0  0  0  0  0  0  0  0  0  0  0  0
   57.9740   34.1860   46.2140 N   0  0  0  0  0  0  0  0  0  0  0  0
   59.1700   33.5800   46.1580 C   0  0  0  0  0  0  0  0  0  0  0  0
   60.2790   33.6360   47.1280 C   0  0  0  0  0  0  0  0  0  0  0  0
   60.0700   33.8650   48.4720 C   0  0  0  0  0  0  0  0  0  0  0  0
   61.1530   33.9260   49.3480 C   0  0  0  0  0  0  0  0  0  0  0  0
   62.4520   33.7610   48.9080 C   0  0  0  0  0  0  0  0  0  0  0  0
   63.5530   33.8170   49.8230 N   0  0  0  0  0  0  0  0  0  0  0  0
   64.7530   33.0990   49.4460 C   0  0  0  0  0  0  0  0  0  0  0  0
   63.4890   34.5360   51.0690 C   0  0  0  0  0  0  0  0  0  0  0  0
   62.6700   33.5290   47.5540 C   0  0  0  0  0  0  0  0  0  0  0  0
   61.5820   33.4730   46.7080 C   0  0  0  0  0  0  0  0  0  0  0  0
   59.2150   32.8700   45.0460 N   0  0  0  0  0  0  0  0  0  0  0  0
   60.8301   30.2132   47.6639 H   0  0  0  0  0  0  0  0  0  0  0  0
   61.4687   29.4511   46.1678 H   0  0  0  0  0  0  0  0  0  0  0  0
   61.0170   31.1897   46.1678 H   0  0  0  0  0  0  0  0  0  0  0  0
   59.4886   28.2410   48.3030 H   0  0  0  0  0  0  0  0  0  0  0  0
   58.3220   26.0326   48.4047 H   0  0  0  0  0  0  0  0  0  0  0  0
   57.0319   25.2152   46.4350 H   0  0  0  0  0  0  0  0  0  0  0  0
   56.8925   26.6007   44.3476 H   0  0  0  0  0  0  0  0  0  0  0  0
   58.7980   29.0590   43.3160 H   0  0  0  0  0  0  0  0  0  0  0  0
   56.6362   30.3384   41.9206 H   0  0  0  0  0  0  0  0  0  0  0  0
   55.6505   31.2640   43.1561 H   0  0  0  0  0  0  0  0  0  0  0  0
   57.6560   34.8270   47.0000 H   0  0  0  0  0  0  0  0  0  0  0  0
   59.0471   33.9997   48.8534 H   0  0  0  0  0  0  0  0  0  0  0  0
   60.9683   34.1102   50.4166 H   0  0  0  0  0  0  0  0  0  0  0  0
   65.2884   32.7786   50.3519 H   0  0  0  0  0  0  0  0  0  0  0  0
   64.4798   32.2158   48.8499 H   0  0  0  0  0  0  0  0  0  0  0  0
   65.4021   33.7572   48.8499 H   0  0  0  0  0  0  0  0  0  0  0  0
   63.5523   33.8252   51.9061 H   0  0  0  0  0  0  0  0  0  0  0  0
   64.3275   35.2456   51.1263 H   0  0  0  0  0  0  0  0  0  0  0  0
   62.5383   35.0864   51.1263 H   0  0  0  0  0  0  0  0  0  0  0  0
   63.6901   33.3929   47.1655 H   0  0  0  0  0  0  0  0  0  0  0  0
   61.7640   33.2880   45.6390 H   0  0  0  0  0  0  0  0  0  0  0  0
  1  2  1  0
  2  3  1  0
  3  4  2  0
  4  5  1  0
  5  6  2  0
  6  7  1  0
  7  8  2  0
  8  9  1  0
  9 10  1  0
 10 11  2  0
 10 12  1  0
 12 13  1  0
 13 14  1  0
 14 15  2  0
 15 16  1  0
 16 17  1  0
 17 18  1  0
 18 19  2  0
 19 20  1  0
 20 21  2  0
 21 22  1  0
 22 23  1  0
 22 24  1  0
 21 25  1  0
 25 26  2  0
 17 27  2  0
  8  3  1  0
 27 14  1  0
 26 18  1  0
  1 28  1  0
  1 29  1  0
  1 30  1  0
  4 31  1  0
  5 32  1  0
  6 33  1  0
  7 34  1  0
  9 35  1  0
 12 36  1  0
 12 37  1  0
 16 38  1  0
 19 39  1  0
 20 40  1  0
 23 41  1  0
 23 42  1  0
 23 43  1  0
 24 44  1  0
 24 45  1  0
 24 46  1  0
 25 47  1  0
 26 48  1  0
M  END
>  <smiles>  (41) 
COc1ccccc1NC(=O)CSc1n[nH]c(-c2ccc(N(C)C)cc2)n1

>  <score_type>  (41) 
oracle

>  <origin>  (41) 
adg

>  <m_score__min__energy>  (41) 
-7.9500000000000002

>  <m_primary>  (41) 
energy

$$$$
41:0
     RDKit          3D

 54 56  0  0  0  0  0  0  0  0999 V2000
   57.7630   32.2340   42.1670 C   0  0  0  0  0  0  0  0  0  0  0  0
   57.0600   31.9870   43.3800 O   0  0  0  0  0  0  0  0  0  0  0  0
   57.6700   31.7580   44.6230 C   0  0  0  0  0  0  0  0  0  0  0  0
   57.6760   32.7400   45.6350 C   0  0  0  0  0  0  0  0  0  0  0  0
   58.2950   32.4920   46.8600 C   0  0  0  0  0  0  0  0  0  0  0  0
   58.9130   31.2630   47.0990 C   0  0  0  0  0  0  0  0  0  0  0  0
   59.7210   30.9440   48.6310 S   0  0  0  0  0  0  0  0  0  0  0  0
   58.9480   31.5520   49.7660 O   0  0  0  0  0  0  0  0  0  0  0  0
   59.8090   29.4600   48.8500 O   0  0  0  0  0  0  0  0  0  0  0  0
   61.3330   31.6540   48.5960 C   0  0  0  0  0  0  0  0  0  0  0  0
   61.7110   32.4760   47.5270 C   0  0  0  0  0  0  0  0  0  0  0  0
   62.9940   33.0380   47.4840 C   0  0  0  0  0  0  0  0  0  0  0  0
   63.3730   33.9350   46.3430 C   0  0  0  0  0  0  0  0  0  0  0  0
   63.9080   32.7570   48.5110 C   0  0  0  0  0  0  0  0  0  0  0  0
   63.5470   31.9090   49.5700 C   0  0  0  0  0  0  0  0  0  0  0  0
   64.5120   31.6330   50.6840 C   0  0  0  0  0  0  0  0  0  0  0  0
   62.2540   31.3700   49.6130 C   0  0  0  0  0  0  0  0  0  0  0  0
   58.8990   30.2760   46.1080 C   0  0  0  0  0  0  0  0  0  0  0  0
   58.2880   30.5120   44.8620 C   0  0  0  0  0  0  0  0  0  0  0  0
   58.3150   29.5150   43.8200 N   0  0  0  0  0  0  0  0  0  0  0  0
   59.1080   27.9740   43.9630 S   0  0  0  0  0  0  0  0  0  0  0  0
   58.8970   27.2010   42.6910 O   0  0  0  0  0  0  0  0  0  0  0  0
   60.5790   28.2160   44.1530 O   0  0  0  0  0  0  0  0  0  0  0  0
   58.4970   27.0550   45.3510 C   0  0  0  0  0  0  0  0  0  0  0  0
   57.2160   26.4810   45.2800 C   0  0  0  0  0  0  0  0  0  0  0  0
   56.6930   25.7380   46.3520 C   0  0  0  0  0  0  0  0  0  0  0  0
   55.3850   25.1450   46.2580 N   0  0  0  0  0  0  0  0  0  0  0  0
   55.1870   23.9790   46.6570 O   0  0  0  0  0  0  0  0  0  0  0  0
   54.3330   25.8510   45.7220 O   0  0  0  0  0  0  0  0  0  0  0  0
   57.4650   25.5870   47.5140 C   0  0  0  0  0  0  0  0  0  0  0  0
   58.7320   26.1610   47.6010 C   0  0  0  0  0  0  0  0  0  0  0  0
   59.2620   26.8970   46.5320 C   0  0  0  0  0  0  0  0  0  0  0  0
   60.5660   27.4760   46.6760 N   0  0  0  0  0  0  0  0  0  0  0  0
   58.7778   32.5905   42.3974 H   0  0  0  0  0  0  0  0  0  0  0  0
   57.8249   31.3038   41.5832 H   0  0  0  0  0  0  0  0  0  0  0  0
   57.2295   32.9985   41.5832 H   0  0  0  0  0  0  0  0  0  0  0  0
   57.1884   33.7098   45.4568 H   0  0  0  0  0  0  0  0  0  0  0  0
   58.2963   33.2672   47.6404 H   0  0  0  0  0  0  0  0  0  0  0  0
   60.9966   32.6817   46.7163 H   0  0  0  0  0  0  0  0  0  0  0  0
   63.7727   34.8809   46.7373 H   0  0  0  0  0  0  0  0  0  0  0  0
   64.1395   33.4414   45.7275 H   0  0  0  0  0  0  0  0  0  0  0  0
   62.4848   34.1405   45.7275 H   0  0  0  0  0  0  0  0  0  0  0  0
   64.9129   33.2037   48.4862 H   0  0  0  0  0  0  0  0  0  0  0  0
   64.0072   31.7774   51.6506 H   0  0  0  0  0  0  0  0  0  0  0  0
   64.8714   30.5961   50.6093 H   0  0  0  0  0  0  0  0  0  0  0  0
   65.3653   32.3231   50.6093 H   0  0  0  0  0  0  0  0  0  0  0  0
   61.9604   30.7199   50.4504 H   0  0  0  0  0  0  0  0  0  0  0  0
   59.3717   29.3025   46.3049 H   0  0  0  0  0  0  0  0  0  0  0  0
   57.8030   29.6900   42.9260 H   0  0  0  0  0  0  0  0  0  0  0  0
   56.6127   26.6156   44.3701 H   0  0  0  0  0  0  0  0  0  0  0  0
   57.0672   25.0112   48.3627 H   0  0  0  0  0  0  0  0  0  0  0  0
   59.3235   26.0350   48.5198 H   0  0  0  0  0  0  0  0  0  0  0  0
   60.7860   28.0840   47.4960 H   0  0  0  0  0  0  0  0  0  0  0  0
   61.3240   27.3350   45.9760 H   0  0  0  0  0  0  0  0  0  0  0  0
  1  2  1  0
  2  3  1  0
  3  4  2  0
  4  5  1  0
  5  6  2  0
  6  7  1  0
  7  8  2  0
  7  9  2  0
  7 10  1  0
 10 11  2  0
 11 12  1  0
 12 13  1  0
 12 14  2  0
 14 15  1  0
 15 16  1  0
 15 17  2  0
  6 18  1  0
 18 19  2  0
 19 20  1  0
 20 21  1  0
 21 22  2  0
 21 23  2  0
 21 24  1  0
 24 25  2  0
 25 26  1  0
 26 27  1  0
 27 28  2  0
 27 29  1  0
 26 30  2  0
 30 31  1  0
 31 32  2  0
 32 33  1  0
 19  3  1  0
 32 24  1  0
 17 10  1  0
  1 34  1  0
  1 35  1  0
  1 36  1  0
  4 37  1  0
  5 38  1  0
 11 39  1  0
 13 40  1  0
 13 41  1  0
 13 42  1  0
 14 43  1  0
 16 44  1  0
 16 45  1  0
 16 46  1  0
 17 47  1  0
 18 48  1  0
 20 49  1  0
 25 50  1  0
 30 51  1  0
 31 52  1  0
 33 53  1  0
 33 54  1  0
M  CHG  2  27   1  29  -1
M  END
>  <UniqueID>  (42) 
40

>  <SMILES>  (42) 
COc1ccc(S(=O)(=O)c2cc(C)cc(C)c2)cc1NS(=O)(=O)c1cc([N+](=O)[O-])ccc1N

>  <Energy>  (42) 
55.80831537568224

>  <Genealogy>  (42) 
COc1ccc(S(=O)(=O)c2cc(C)cc(C)c2)cc1NS(=O)(=O)c1cc([N+](=O)[O-])ccc1N (3D coordinates assigned)
COc1ccc(S(=O)(=O)c2cc(C)cc(C)c2)cc1NS(=O)(=O)c1cc([N+](=O)[O-])ccc1N (optimized conformer: 55.80831537568224 kcal/mol)

>  <smiles>  (42) 
COc1ccc(S(=O)(=O)c2cc(C)cc(C)c2)cc1NS(=O)(=O)c1cc([N+](=O)[O-])ccc1N

>  <score_type>  (42) 
oracle

>  <origin>  (42) 
adg

>  <m_score__min__energy>  (42) 
-10.18

>  <m_primary>  (42) 
energy

$$$$
42:0
     RDKit          3D

 30 31  0  0  0  0  0  0  0  0999 V2000
   55.7960   29.3500   45.0100 N   0  0  0  0  0  0  0  0  0  0  0  0
   57.0990   29.0700   44.4880 C   0  0  0  0  0  0  0  0  0  0  0  0
   57.4890   27.5320   44.0900 S   0  0  0  0  0  0  0  0  0  0  0  0
   58.0110   30.1320   44.1690 N   0  0  0  0  0  0  0  0  0  0  0  0
   58.0220   31.4070   44.8320 C   0  0  0  0  0  0  0  0  0  0  0  0
   57.3220   32.4840   44.2700 C   0  0  0  0  0  0  0  0  0  0  0  0
   57.3240   33.7330   44.8960 C   0  0  0  0  0  0  0  0  0  0  0  0
   58.0380   33.9220   46.0820 C   0  0  0  0  0  0  0  0  0  0  0  0
   58.7750   32.8660   46.6380 C   0  0  0  0  0  0  0  0  0  0  0  0
   59.5160   33.0550   47.9330 C   0  0  0  0  0  0  0  0  0  0  0  0
   61.0000   32.9730   47.6960 C   0  0  0  0  0  0  0  0  0  0  0  0
   61.6350   33.8940   46.8510 C   0  0  0  0  0  0  0  0  0  0  0  0
   63.0060   33.7750   46.6100 C   0  0  0  0  0  0  0  0  0  0  0  0
   63.7140   32.7690   47.1850 N   0  0  0  0  0  0  0  0  0  0  0  0
   63.1220   31.8550   48.0000 C   0  0  0  0  0  0  0  0  0  0  0  0
   61.7530   31.9370   48.2670 C   0  0  0  0  0  0  0  0  0  0  0  0
   58.7660   31.6110   46.0080 C   0  0  0  0  0  0  0  0  0  0  0  0
   55.1420   28.5720   45.2480 H   0  0  0  0  0  0  0  0  0  0  0  0
   55.4540   30.3310   45.1050 H   0  0  0  0  0  0  0  0  0  0  0  0
   58.6970   29.9740   43.3960 H   0  0  0  0  0  0  0  0  0  0  0  0
   56.7677   32.3447   43.3302 H   0  0  0  0  0  0  0  0  0  0  0  0
   56.7623   34.5693   44.4542 H   0  0  0  0  0  0  0  0  0  0  0  0
   58.0221   34.9020   46.5813 H   0  0  0  0  0  0  0  0  0  0  0  0
   59.2685   34.0410   48.3533 H   0  0  0  0  0  0  0  0  0  0  0  0
   59.2193   32.2632   48.6366 H   0  0  0  0  0  0  0  0  0  0  0  0
   61.0581   34.7043   46.3813 H   0  0  0  0  0  0  0  0  0  0  0  0
   63.5128   34.4975   45.9533 H   0  0  0  0  0  0  0  0  0  0  0  0
   63.7219   31.0501   48.4496 H   0  0  0  0  0  0  0  0  0  0  0  0
   61.2699   31.1950   48.9197 H   0  0  0  0  0  0  0  0  0  0  0  0
   59.3456   30.7807   46.4378 H   0  0  0  0  0  0  0  0  0  0  0  0
  1  2  1  0
  2  3  2  0
  2  4  1  0
  4  5  1  0
  5  6  2  0
  6  7  1  0
  7  8  2  0
  8  9  1  0
  9 10  1  0
 10 11  1  0
 11 12  2  0
 12 13  1  0
 13 14  2  0
 14 15  1  0
 15 16  2  0
  9 17  2  0
 17  5  1  0
 16 11  1  0
  1 18  1  0
  1 19  1  0
  4 20  1  0
  6 21  1  0
  7 22  1  0
  8 23  1  0
 10 24  1  0
 10 25  1  0
 12 26  1  0
 13 27  1  0
 15 28  1  0
 16 29  1  0
 17 30  1  0
M  END
>  <UniqueID>  (43) 
41

>  <SMILES>  (43) 
NC(=S)Nc1cccc(Cc2ccncc2)c1

>  <Energy>  (43) 
31.872507697638895

>  <Genealogy>  (43) 
NC(=S)Nc1cccc(Cc2ccncc2)c1 (3D coordinates assigned)
NC(=S)Nc1cccc(Cc2ccncc2)c1 (optimized conformer: 31.872507697638895 kcal/mol)

>  <smiles>  (43) 
NC(=S)Nc1cccc(Cc2ccncc2)c1

>  <score_type>  (43) 
oracle

>  <origin>  (43) 
adg

>  <m_score__min__energy>  (43) 
-6.9299999999999997

>  <m_primary>  (43) 
energy

$$$$
43:0
     RDKit          3D

 77 80  0  0  0  0  0  0  0  0999 V2000
   69.2210   26.3780   50.1140 C   0  0  0  0  0  0  0  0  0  0  0  0
   68.7200   26.9010   51.3440 O   0  0  0  0  0  0  0  0  0  0  0  0
   67.3960   27.3130   51.5450 C   0  0  0  0  0  0  0  0  0  0  0  0
   67.0080   28.6650   51.4800 C   0  0  0  0  0  0  0  0  0  0  0  0
   65.6740   29.0260   51.6880 C   0  0  0  0  0  0  0  0  0  0  0  0
   64.7090   28.0540   51.9780 C   0  0  0  0  0  0  0  0  0  0  0  0
   63.3360   28.4520   52.1400 N   0  0  0  0  0  0  0  0  0  0  0  0
   62.8150   29.7400   51.7630 C   0  0  0  0  0  0  0  0  0  0  0  0
   63.4960   30.5110   51.0320 O   0  0  0  0  0  0  0  0  0  0  0  0
   61.4540   30.1410   52.1910 C   0  0  0  0  0  0  0  0  0  0  0  0
   61.1860   31.5000   52.4280 C   0  0  0  0  0  0  0  0  0  0  0  0
   59.9070   31.9220   52.8340 C   0  0  0  0  0  0  0  0  0  0  0  0
   59.5830   33.2750   53.0280 O   0  0  0  0  0  0  0  0  0  0  0  0
   59.1970   34.1930   52.0060 C   0  0  0  0  0  0  0  0  0  0  0  0
   59.8460   33.8610   50.6870 C   0  0  0  0  0  0  0  0  0  0  0  0
   61.0510   34.1940   50.5220 O   0  0  0  0  0  0  0  0  0  0  0  0
   59.1430   33.1770   49.6230 N   0  0  0  0  0  0  0  0  0  0  0  0
   58.1630   32.1460   50.0060 C   0  0  0  0  0  0  0  0  0  0  0  0
   59.4230   33.4590   48.1960 C   0  0  0  0  0  0  0  0  0  0  0  0
   60.5690   32.5780   47.6810 C   0  0  0  0  0  0  0  0  0  0  0  0
   58.1580   33.2930   47.3410 C   0  0  0  0  0  0  0  0  0  0  0  0
   58.9090   30.9660   53.0440 C   0  0  0  0  0  0  0  0  0  0  0  0
   59.1700   29.6090   52.8420 C   0  0  0  0  0  0  0  0  0  0  0  0
   60.4360   29.1870   52.4090 C   0  0  0  0  0  0  0  0  0  0  0  0
   60.6850   27.7990   52.1580 N   0  0  0  0  0  0  0  0  0  0  0  0
   61.0410   27.2480   50.8830 C   0  0  0  0  0  0  0  0  0  0  0  0
   61.9550   26.3770   50.8000 O   0  0  0  0  0  0  0  0  0  0  0  0
   60.3700   27.7350   49.6630 C   0  0  0  0  0  0  0  0  0  0  0  0
   59.5940   28.9050   49.7050 C   0  0  0  0  0  0  0  0  0  0  0  0
   58.9430   29.3640   48.5560 C   0  0  0  0  0  0  0  0  0  0  0  0
   59.0910   28.6850   47.3350 C   0  0  0  0  0  0  0  0  0  0  0  0
   58.3750   29.1460   46.1210 C   0  0  0  0  0  0  0  0  0  0  0  0
   58.6820   30.4220   45.6130 C   0  0  0  0  0  0  0  0  0  0  0  0
   58.0800   30.8910   44.4440 C   0  0  0  0  0  0  0  0  0  0  0  0
   57.1610   30.0920   43.7650 C   0  0  0  0  0  0  0  0  0  0  0  0
   56.8330   28.8280   44.2620 C   0  0  0  0  0  0  0  0  0  0  0  0
   57.4150   28.3470   45.4470 C   0  0  0  0  0  0  0  0  0  0  0  0
   56.8880   26.7690   46.0610 S   0  0  0  0  0  0  0  0  0  0  0  0
   55.1670   26.6280   45.9330 N   0  0  0  0  0  0  0  0  0  0  0  0
   57.5240   25.6720   45.2520 O   0  0  0  0  0  0  0  0  0  0  0  0
   57.2720   26.6180   47.5070 O   0  0  0  0  0  0  0  0  0  0  0  0
   59.8650   27.5130   47.2930 C   0  0  0  0  0  0  0  0  0  0  0  0
   60.4890   27.0330   48.4500 C   0  0  0  0  0  0  0  0  0  0  0  0
   65.0940   26.7010   52.0250 C   0  0  0  0  0  0  0  0  0  0  0  0
   66.4280   26.3380   51.8170 C   0  0  0  0  0  0  0  0  0  0  0  0
   69.9679   25.5983   50.3242 H   0  0  0  0  0  0  0  0  0  0  0  0
   68.3920   25.9450   49.5349 H   0  0  0  0  0  0  0  0  0  0  0  0
   69.6892   27.1876   49.5349 H   0  0  0  0  0  0  0  0  0  0  0  0
   67.7580   29.4403   51.2646 H   0  0  0  0  0  0  0  0  0  0  0  0
   65.3794   30.0838   51.6233 H   0  0  0  0  0  0  0  0  0  0  0  0
   62.6500   27.7190   52.4360 H   0  0  0  0  0  0  0  0  0  0  0  0
   61.9862   32.2429   52.2944 H   0  0  0  0  0  0  0  0  0  0  0  0
   58.1043   34.1543   51.8858 H   0  0  0  0  0  0  0  0  0  0  0  0
   59.5242   35.1993   52.3064 H   0  0  0  0  0  0  0  0  0  0  0  0
   58.1048   32.0848   51.1028 H   0  0  0  0  0  0  0  0  0  0  0  0
   57.1752   32.4104   49.6006 H   0  0  0  0  0  0  0  0  0  0  0  0
   58.4772   31.1729   49.6006 H   0  0  0  0  0  0  0  0  0  0  0  0
   59.7426   34.5081   48.1106 H   0  0  0  0  0  0  0  0  0  0  0  0
   61.1188   32.1554   48.5349 H   0  0  0  0  0  0  0  0  0  0  0  0
   60.1575   31.7615   47.0695 H   0  0  0  0  0  0  0  0  0  0  0  0
   61.2523   33.1856   47.0695 H   0  0  0  0  0  0  0  0  0  0  0  0
   57.2836   33.1783   47.9984 H   0  0  0  0  0  0  0  0  0  0  0  0
   58.0254   34.1814   46.7061 H   0  0  0  0  0  0  0  0  0  0  0  0
   58.2591   32.4004   46.7061 H   0  0  0  0  0  0  0  0  0  0  0  0
   57.9087   31.2856   53.3714 H   0  0  0  0  0  0  0  0  0  0  0  0
   58.3786   28.8669   53.0234 H   0  0  0  0  0  0  0  0  0  0  0  0
   59.4979   29.4636   50.6477 H   0  0  0  0  0  0  0  0  0  0  0  0
   58.3108   30.2626   48.6083 H   0  0  0  0  0  0  0  0  0  0  0  0
   59.4056   31.0580   46.1439 H   0  0  0  0  0  0  0  0  0  0  0  0
   58.3306   31.8904   44.0588 H   0  0  0  0  0  0  0  0  0  0  0  0
   56.6942   30.4567   42.8381 H   0  0  0  0  0  0  0  0  0  0  0  0
   56.1101   28.2016   43.7188 H   0  0  0  0  0  0  0  0  0  0  0  0
   54.7580   27.0920   46.7770 H   0  0  0  0  0  0  0  0  0  0  0  0
   59.9813   26.9690   46.3440 H   0  0  0  0  0  0  0  0  0  0  0  0
   61.0749   26.1029   48.4106 H   0  0  0  0  0  0  0  0  0  0  0  0
   64.3411   25.9248   52.2265 H   0  0  0  0  0  0  0  0  0  0  0  0
   66.7196   25.2785   51.8674 H   0  0  0  0  0  0  0  0  0  0  0  0
  1  2  1  0
  2  3  1  0
  3  4  2  0
  4  5  1  0
  5  6  2  0
  6  7  1  0
  7  8  1  0
  8  9  2  0
  8 10  1  0
 10 11  2  0
 11 12  1  0
 12 13  1  0
 13 14  1  0
 14 15  1  0
 15 16  2  0
 15 17  1  0
 17 18  1  0
 17 19  1  0
 19 20  1  0
 19 21  1  0
 12 22  2  0
 22 23  1  0
 23 24  2  0
 24 25  1  0
 25 26  1  0
 26 27  2  0
 26 28  1  0
 28 29  2  0
 29 30  1  0
 30 31  2  0
 31 32  1  0
 32 33  2  0
 33 34  1  0
 34 35  2  0
 35 36  1  0
 36 37  2  0
 37 38  1  0
 38 39  1  0
 38 40  2  0
 38 41  2  0
 31 42  1  0
 42 43  2  0
  6 44  1  0
 44 45  2  0
 45  3  1  0
 24 10  1  0
 43 28  1  0
 37 32  1  0
  1 46  1  0
  1 47  1  0
  1 48  1  0
  4 49  1  0
  5 50  1  0
  7 51  1  0
 11 52  1  0
 14 53  1  0
 14 54  1  0
 18 55  1  0
 18 56  1  0
 18 57  1  0
 19 58  1  0
 20 59  1  0
 20 60  1  0
 20 61  1  0
 21 62  1  0
 21 63  1  0
 21 64  1  0
 22 65  1  0
 23 66  1  0
 29 67  1  0
 30 68  1  0
 33 69  1  0
 34 70  1  0
 35 71  1  0
 36 72  1  0
 39 73  1  0
 42 74  1  0
 43 75  1  0
 44 76  1  0
 45 77  1  0
M  CHG  2  25  -1  39  -1
M  END
>  <UniqueID>  (44) 
42

>  <SMILES>  (44) 
COc1ccc(NC(=O)c2cc(OCC(=O)N(C)C(C)C)ccc2[N-]C(=O)c2ccc(-c3ccccc3S([NH-])(=O)=O)cc2)cc1

>  <Energy>  (44) 
98.59161441071264

>  <Genealogy>  (44) 
COc1ccc(NC(=O)c2cc(OCC(=O)N(C)C(C)C)ccc2[N-]C(=O)c2ccc(-c3ccccc3S([NH-])(=O)=O)cc2)cc1 (protonated)
COc1ccc(NC(=O)c2cc(OCC(=O)N(C)C(C)C)ccc2[N-]C(=O)c2ccc(-c3ccccc3S([NH-])(=O)=O)cc2)cc1 (3D coordinates assigned)
COc1ccc(NC(=O)c2cc(OCC(=O)N(C)C(C)C)ccc2[N-]C(=O)c2ccc(-c3ccccc3S([NH-])(=O)=O)cc2)cc1 (optimized conformer: 98.59161441071264 kcal/mol)

>  <smiles>  (44) 
COc1ccc(NC(=O)c2cc(OCC(=O)N(C)C(C)C)ccc2NC(=O)c2ccc(-c3ccccc3S(N)(=O)=O)cc2)cc1

>  <score_type>  (44) 
oracle

>  <origin>  (44) 
adg

>  <m_score__min__energy>  (44) 
-12.18

>  <m_primary>  (44) 
energy

$$$$
44:0
     RDKit          3D

 52 55  0  0  0  0  0  0  0  0999 V2000
   61.9845   30.3330   45.8883 H   0  0  0  0  0  0  0  0  0  0  0  0
   61.2000   30.4460   46.6510 C   0  0  0  0  0  0  0  0  0  0  0  0
   61.3100   31.4220   47.5080 N   0  0  0  0  0  0  0  0  0  0  0  0
   60.6100   32.6740   47.4490 C   0  0  0  0  0  0  0  0  0  0  0  0
   60.3810   33.2530   46.1940 C   0  0  0  0  0  0  0  0  0  0  0  0
   60.7330   32.7426   45.2854 H   0  0  0  0  0  0  0  0  0  0  0  0
   59.7100   34.4720   46.0870 C   0  0  0  0  0  0  0  0  0  0  0  0
   59.5195   34.9092   45.0958 H   0  0  0  0  0  0  0  0  0  0  0  0
   59.2810   35.1360   47.2350 C   0  0  0  0  0  0  0  0  0  0  0  0
   58.7416   36.0907   47.1479 H   0  0  0  0  0  0  0  0  0  0  0  0
   59.5350   34.5910   48.4960 C   0  0  0  0  0  0  0  0  0  0  0  0
   59.2042   35.1276   49.3975 H   0  0  0  0  0  0  0  0  0  0  0  0
   60.2100   33.3620   48.6250 C   0  0  0  0  0  0  0  0  0  0  0  0
   60.5330   32.8580   49.9440 N   0  0  0  0  0  0  0  0  0  0  0  0
   61.1160   31.9920   49.8780 H   0  0  0  0  0  0  0  0  0  0  0  0
   61.1130   33.5860   50.4110 H   0  0  0  0  0  0  0  0  0  0  0  0
   59.3620   32.5490   50.7480 C   0  0  0  0  0  0  0  0  0  0  0  0
   58.9070   33.4370   51.7530 C   0  0  0  0  0  0  0  0  0  0  0  0
   59.4379   34.3859   51.9192 H   0  0  0  0  0  0  0  0  0  0  0  0
   57.7950   33.1250   52.5350 C   0  0  0  0  0  0  0  0  0  0  0  0
   57.4715   33.8144   53.3288 H   0  0  0  0  0  0  0  0  0  0  0  0
   57.0930   31.9420   52.3130 C   0  0  0  0  0  0  0  0  0  0  0  0
   56.2317   31.6862   52.9477 H   0  0  0  0  0  0  0  0  0  0  0  0
   57.4820   31.0830   51.2870 C   0  0  0  0  0  0  0  0  0  0  0  0
   56.9159   30.1568   51.1088 H   0  0  0  0  0  0  0  0  0  0  0  0
   58.5890   31.3870   50.4780 C   0  0  0  0  0  0  0  0  0  0  0  0
   58.8800   30.5280   49.3660 N   0  0  0  0  0  0  0  0  0  0  0  0
   58.2800   29.6950   49.1740 H   0  0  0  0  0  0  0  0  0  0  0  0
   59.6030   30.7670   48.6540 H   0  0  0  0  0  0  0  0  0  0  0  0
   60.0720   29.4770   46.6480 C   0  0  0  0  0  0  0  0  0  0  0  0
   60.2030   28.2880   47.3750 C   0  0  0  0  0  0  0  0  0  0  0  0
   61.1197   28.1042   47.9545 H   0  0  0  0  0  0  0  0  0  0  0  0
   59.1910   27.3380   47.3740 C   0  0  0  0  0  0  0  0  0  0  0  0
   59.3220   26.4053   47.9423 H   0  0  0  0  0  0  0  0  0  0  0  0
   58.0080   27.5500   46.6610 C   0  0  0  0  0  0  0  0  0  0  0  0
   57.0190   26.4560   46.6710 C   0  0  0  0  0  0  0  0  0  0  0  0
   55.9525   26.7239   46.6990 H   0  0  0  0  0  0  0  0  0  0  0  0
   57.3410   25.1550   46.6480 C   0  0  0  0  0  0  0  0  0  0  0  0
   58.2958   24.8802   46.1760 H   0  0  0  0  0  0  0  0  0  0  0  0
   56.5200   24.0590   47.2040 C   0  0  0  0  0  0  0  0  0  0  0  0
   57.0900   23.1070   47.7980 O   0  0  0  0  0  0  0  0  0  0  0  0
   55.1340   24.0480   47.0930 O   0  0  0  0  0  0  0  0  0  0  0  0
   57.8070   28.7770   45.9660 C   0  0  0  0  0  0  0  0  0  0  0  0
   56.6030   29.0740   45.2700 C   0  0  0  0  0  0  0  0  0  0  0  0
   55.5270   28.1930   45.2480 O   0  0  0  0  0  0  0  0  0  0  0  0
   56.4640   30.2800   44.5830 C   0  0  0  0  0  0  0  0  0  0  0  0
   55.5289   30.4960   44.0455 H   0  0  0  0  0  0  0  0  0  0  0  0
   57.4950   31.2110   44.5710 C   0  0  0  0  0  0  0  0  0  0  0  0
   57.3743   32.1555   44.0201 H   0  0  0  0  0  0  0  0  0  0  0  0
   58.6790   30.9530   45.2530 C   0  0  0  0  0  0  0  0  0  0  0  0
   59.4872   31.6991   45.2382 H   0  0  0  0  0  0  0  0  0  0  0  0
   58.8580   29.7470   45.9640 C   0  0  0  0  0  0  0  0  0  0  0  0
  1  2  1  0
  2  3  2  0
  3  4  1  0
  4  5  2  0
  5  6  1  0
  5  7  1  0
  7  8  1  0
  7  9  2  0
  9 10  1  0
  9 11  1  0
 11 12  1  0
 11 13  2  0
 13 14  1  0
 14 15  1  0
 14 16  1  0
 14 17  1  0
 17 18  2  0
 18 19  1  0
 18 20  1  0
 20 21  1  0
 20 22  2  0
 22 23  1  0
 22 24  1  0
 24 25  1  0
 24 26  2  0
 26 27  1  0
 27 28  1  0
 27 29  1  0
  2 30  1  0
 30 31  2  0
 31 32  1  0
 31 33  1  0
 33 34  1  0
 33 35  2  0
 35 36  1  0
 36 37  1  0
 36 38  2  0
 38 39  1  0
 38 40  1  0
 40 41  2  0
 40 42  1  0
 35 43  1  0
 43 44  2  0
 44 45  1  0
 44 46  1  0
 46 47  1  0
 46 48  2  0
 48 49  1  0
 48 50  1  0
 50 51  1  0
 50 52  2  0
 13  4  1  0
 26 17  1  0
 52 30  1  0
 52 43  1  0
M  CHG  3  14   1  42  -1  45  -1
M  END
>  <UniqueID>  (45) 
43

>  <SMILES>  (45) 
Nc1ccccc1[NH2+]c1ccccc1/N=C\c1ccc(/C=C\C(=O)[O-])c2c([O-])cccc12

>  <Energy>  (45) 
95.05598881989958

>  <Genealogy>  (45) 
Nc1ccccc1[NH2+]c1ccccc1N=Cc1ccc(C=CC(=O)[O-])c2c([O-])cccc12 (protonated)
Nc1ccccc1[NH2+]c1ccccc1/N=C\c1ccc(/C=C\C(=O)[O-])c2c([O-])cccc12 (cis-trans isomerization)
Nc1ccccc1[NH2+]c1ccccc1/N=C\c1ccc(/C=C\C(=O)[O-])c2c([O-])cccc12 (3D coordinates assigned)
Nc1ccccc1[NH2+]c1ccccc1/N=C\c1ccc(/C=C\C(=O)[O-])c2c([O-])cccc12 (optimized conformer: 95.05598881989958 kcal/mol)

>  <smiles>  (45) 
Nc1ccccc1Nc1ccccc1N=Cc1ccc(C=CC(=O)O)c2c(O)cccc12

>  <score_type>  (45) 
oracle

>  <origin>  (45) 
adg

>  <m_score__min__energy>  (45) 
-13.92

>  <m_primary>  (45) 
energy

$$$$
45:0
     RDKit          3D

 33 34  0  0  0  0  0  0  0  0999 V2000
   59.0788   26.3290   45.5986 H   0  0  0  0  0  0  0  0  0  0  0  0
   58.9560   27.3800   45.8990 C   0  0  0  0  0  0  0  0  0  0  0  0
   57.9770   28.1360   45.3400 N   0  0  0  0  0  0  0  0  0  0  0  0
   57.7810   29.4440   45.6610 C   0  0  0  0  0  0  0  0  0  0  0  0
   56.8190   30.0760   45.0440 N   0  0  0  0  0  0  0  0  0  0  0  0
   55.9800   29.6230   43.9730 C   0  0  0  0  0  0  0  0  0  0  0  0
   54.7690   29.3450   44.1840 O   0  0  0  0  0  0  0  0  0  0  0  0
   56.4890   29.5990   42.6420 N   0  0  0  0  0  0  0  0  0  0  0  0
   55.8780   29.3040   41.8480 H   0  0  0  0  0  0  0  0  0  0  0  0
   57.4790   29.8660   42.4510 H   0  0  0  0  0  0  0  0  0  0  0  0
   58.6020   30.0380   46.6580 C   0  0  0  0  0  0  0  0  0  0  0  0
   58.3420   31.3290   47.1390 O   0  0  0  0  0  0  0  0  0  0  0  0
   58.5440   32.5230   46.4280 C   0  0  0  0  0  0  0  0  0  0  0  0
   57.5710   33.0160   45.5380 C   0  0  0  0  0  0  0  0  0  0  0  0
   56.6446   32.4468   45.3712 H   0  0  0  0  0  0  0  0  0  0  0  0
   57.7740   34.2220   44.8660 C   0  0  0  0  0  0  0  0  0  0  0  0
   57.0138   34.5936   44.1631 H   0  0  0  0  0  0  0  0  0  0  0  0
   58.9390   34.9570   45.0840 C   0  0  0  0  0  0  0  0  0  0  0  0
   59.0972   35.9068   44.5522 H   0  0  0  0  0  0  0  0  0  0  0  0
   59.9050   34.4880   45.9770 C   0  0  0  0  0  0  0  0  0  0  0  0
   60.8167   35.0774   46.1542 H   0  0  0  0  0  0  0  0  0  0  0  0
   59.7210   33.2700   46.6500 C   0  0  0  0  0  0  0  0  0  0  0  0
   60.7630   32.7970   47.6330 C   0  0  0  0  0  0  0  0  0  0  0  0
   60.6539   31.7124   47.7803 H   0  0  0  0  0  0  0  0  0  0  0  0
   60.6174   33.3290   48.5847 H   0  0  0  0  0  0  0  0  0  0  0  0
   62.1680   33.0930   47.1170 C   0  0  0  0  0  0  0  0  0  0  0  0
   62.8489   33.2364   47.9690 H   0  0  0  0  0  0  0  0  0  0  0  0
   62.5192   32.2491   46.5050 H   0  0  0  0  0  0  0  0  0  0  0  0
   62.1489   34.0068   46.5050 H   0  0  0  0  0  0  0  0  0  0  0  0
   59.6210   29.2600   47.2380 C   0  0  0  0  0  0  0  0  0  0  0  0
   60.2777   29.7019   48.0019 H   0  0  0  0  0  0  0  0  0  0  0  0
   59.8040   27.9350   46.8520 C   0  0  0  0  0  0  0  0  0  0  0  0
   60.6107   27.3332   47.2959 H   0  0  0  0  0  0  0  0  0  0  0  0
  1  2  1  0
  2  3  1  0
  3  4  1  0
  4  5  2  0
  5  6  1  0
  6  7  2  0
  6  8  1  0
  8  9  1  0
  8 10  1  0
  4 11  1  0
 11 12  1  0
 12 13  1  0
 13 14  2  0
 14 15  1  0
 14 16  1  0
 16 17  1  0
 16 18  2  0
 18 19  1  0
 18 20  1  0
 20 21  1  0
 20 22  2  0
 22 23  1  0
 23 24  1  0
 23 25  1  0
 23 26  1  0
 26 27  1  0
 26 28  1  0
 26 29  1  0
 11 30  2  0
 30 31  1  0
 30 32  1  0
 32 33  1  0
 32  2  2  0
 22 13  1  0
M  CHG  1   3  -1
M  END
>  <UniqueID>  (46) 
44

>  <SMILES>  (46) 
CCc1ccccc1Oc1ccc[n-]/c1=N/C(N)=O

>  <Energy>  (46) 
46.861347720721135

>  <Genealogy>  (46) 
CCc1ccccc1Oc1ccc[n-]c1=NC(N)=O (protonated)
CCc1ccccc1Oc1ccc[n-]/c1=N/C(N)=O (cis-trans isomerization)
CCc1ccccc1Oc1ccc[n-]/c1=N/C(N)=O (3D coordinates assigned)
CCc1ccccc1Oc1ccc[n-]/c1=N/C(N)=O (optimized conformer: 46.861347720721135 kcal/mol)

>  <smiles>  (46) 
CCc1ccccc1Oc1ccc[nH]c1=NC(N)=O

>  <score_type>  (46) 
oracle

>  <origin>  (46) 
adg

>  <m_score__min__energy>  (46) 
-8.6500000000000004

>  <m_primary>  (46) 
energy

$$$$
46:0
     RDKit          3D

 57 60  0  0  0  0  0  0  0  0999 V2000
   56.7200   30.4410   51.4460 O   0  0  0  0  0  0  0  0  0  0  0  0
   57.8230   31.0510   51.4390 C   0  0  0  0  0  0  0  0  0  0  0  0
   58.0340   32.1550   52.3300 N   0  0  0  0  0  0  0  0  0  0  0  0
   58.4990   33.4720   51.9000 C   0  0  0  0  0  0  0  0  0  0  0  0
   60.0010   33.6470   52.1650 C   0  0  0  0  0  0  0  0  0  0  0  0
   60.8180   33.5760   50.9000 C   0  0  0  0  0  0  0  0  0  0  0  0
   60.3670   34.2040   49.7270 C   0  0  0  0  0  0  0  0  0  0  0  0
   61.1500   34.1780   48.5690 C   0  0  0  0  0  0  0  0  0  0  0  0
   62.3860   33.5250   48.5720 C   0  0  0  0  0  0  0  0  0  0  0  0
   63.3700   33.4990   47.1200 Cl  0  0  0  0  0  0  0  0  0  0  0  0
   62.8420   32.8980   49.7360 C   0  0  0  0  0  0  0  0  0  0  0  0
   62.0640   32.9250   50.8970 C   0  0  0  0  0  0  0  0  0  0  0  0
   58.8970   30.6240   50.5150 C   0  0  0  0  0  0  0  0  0  0  0  0
   59.8070   29.6220   50.9010 C   0  0  0  0  0  0  0  0  0  0  0  0
   60.8300   29.2260   50.0360 C   0  0  0  0  0  0  0  0  0  0  0  0
   60.9630   29.8280   48.7840 C   0  0  0  0  0  0  0  0  0  0  0  0
   60.0690   30.8290   48.3810 C   0  0  0  0  0  0  0  0  0  0  0  0
   60.2310   31.4720   47.0330 C   0  0  0  0  0  0  0  0  0  0  0  0
   59.2370   30.9680   46.1440 O   0  0  0  0  0  0  0  0  0  0  0  0
   58.9110   29.6110   46.0050 C   0  0  0  0  0  0  0  0  0  0  0  0
   59.8800   28.5920   46.0530 C   0  0  0  0  0  0  0  0  0  0  0  0
   59.5040   27.2520   45.9150 C   0  0  0  0  0  0  0  0  0  0  0  0
   58.1540   26.9060   45.7140 C   0  0  0  0  0  0  0  0  0  0  0  0
   57.7070   25.4990   45.5700 C   0  0  0  0  0  0  0  0  0  0  0  0
   56.8500   25.0880   44.6230 C   0  0  0  0  0  0  0  0  0  0  0  0
   55.5440   24.4550   44.9390 C   0  0  0  0  0  0  0  0  0  0  0  0
   54.5570   25.1990   45.6090 C   0  0  0  0  0  0  0  0  0  0  0  0
   54.7970   26.5120   45.9960 O   0  0  0  0  0  0  0  0  0  0  0  0
   53.3560   24.6360   45.8970 N   0  0  0  0  0  0  0  0  0  0  0  0
   53.0770   23.3580   45.5390 C   0  0  0  0  0  0  0  0  0  0  0  0
   51.9590   22.8570   45.8210 O   0  0  0  0  0  0  0  0  0  0  0  0
   54.0010   22.6220   44.8710 N   0  0  0  0  0  0  0  0  0  0  0  0
   55.2170   23.1370   44.5540 C   0  0  0  0  0  0  0  0  0  0  0  0
   56.0270   22.4320   43.8950 O   0  0  0  0  0  0  0  0  0  0  0  0
   57.1910   27.9270   45.6810 C   0  0  0  0  0  0  0  0  0  0  0  0
   57.5690   29.2660   45.8210 C   0  0  0  0  0  0  0  0  0  0  0  0
   59.0290   31.2160   49.2450 C   0  0  0  0  0  0  0  0  0  0  0  0
   58.3098   33.5846   50.8223 H   0  0  0  0  0  0  0  0  0  0  0  0
   57.9539   34.2368   52.4727 H   0  0  0  0  0  0  0  0  0  0  0  0
   60.1649   34.6268   52.6373 H   0  0  0  0  0  0  0  0  0  0  0  0
   60.3247   32.8253   52.8208 H   0  0  0  0  0  0  0  0  0  0  0  0
   59.3945   34.7179   49.7196 H   0  0  0  0  0  0  0  0  0  0  0  0
   60.7927   34.6724   47.6536 H   0  0  0  0  0  0  0  0  0  0  0  0
   63.8140   32.3830   49.7379 H   0  0  0  0  0  0  0  0  0  0  0  0
   62.4282   32.4349   51.8120 H   0  0  0  0  0  0  0  0  0  0  0  0
   59.7121   29.1481   51.8892 H   0  0  0  0  0  0  0  0  0  0  0  0
   61.5328   28.4373   50.3427 H   0  0  0  0  0  0  0  0  0  0  0  0
   61.7740   29.5151   48.1099 H   0  0  0  0  0  0  0  0  0  0  0  0
   60.1173   32.5618   47.1304 H   0  0  0  0  0  0  0  0  0  0  0  0
   61.2302   31.2420   46.6345 H   0  0  0  0  0  0  0  0  0  0  0  0
   60.9390   28.8507   46.1999 H   0  0  0  0  0  0  0  0  0  0  0  0
   60.2685   26.4626   45.9638 H   0  0  0  0  0  0  0  0  0  0  0  0
   58.0989   24.7530   46.2771 H   0  0  0  0  0  0  0  0  0  0  0  0
   57.1265   25.2257   43.5673 H   0  0  0  0  0  0  0  0  0  0  0  0
   56.1299   27.6715   45.5438 H   0  0  0  0  0  0  0  0  0  0  0  0
   56.8033   30.0550   45.7860 H   0  0  0  0  0  0  0  0  0  0  0  0
   58.3130   31.9876   48.9256 H   0  0  0  0  0  0  0  0  0  0  0  0
  1  2  2  0
  2  3  1  0
  3  4  1  0
  4  5  1  0
  5  6  1  0
  6  7  2  0
  7  8  1  0
  8  9  2  0
  9 10  1  0
  9 11  1  0
 11 12  2  0
  2 13  1  0
 13 14  2  0
 14 15  1  0
 15 16  2  0
 16 17  1  0
 17 18  1  0
 18 19  1  0
 19 20  1  0
 20 21  2  0
 21 22  1  0
 22 23  2  0
 23 24  1  0
 24 25  2  3
 25 26  1  0
 26 27  2  0
 27 28  1  0
 27 29  1  0
 29 30  1  0
 30 31  2  0
 30 32  1  0
 32 33  1  0
 33 34  2  0
 23 35  1  0
 35 36  2  0
 17 37  2  0
 12  6  1  0
 37 13  1  0
 36 20  1  0
 33 26  1  0
  4 38  1  0
  4 39  1  0
  5 40  1  0
  5 41  1  0
  7 42  1  0
  8 43  1  0
 11 44  1  0
 12 45  1  0
 14 46  1  0
 15 47  1  0
 16 48  1  0
 18 49  1  0
 18 50  1  0
 21 51  1  0
 22 52  1  0
 24 53  1  0
 25 54  1  0
 35 55  1  0
 36 56  1  0
 37 57  1  0
M  CHG  4   3  -1  28  -1  29  -1  32  -1
M  END
>  <UniqueID>  (47) 
45

>  <SMILES>  (47) 
O=C([N-]CCc1ccc(Cl)cc1)c1cccc(COc2ccc(C=Cc3c([O-])[n-]c(=O)[n-]c3=O)cc2)c1

>  <Energy>  (47) 
66.84213887036596

>  <Genealogy>  (47) 
O=C([N-]CCc1ccc(Cl)cc1)c1cccc(COc2ccc(C=Cc3c([O-])[n-]c(=O)[n-]c3=O)cc2)c1 (protonated)
O=C([N-]CCc1ccc(Cl)cc1)c1cccc(COc2ccc(C=Cc3c([O-])[n-]c(=O)[n-]c3=O)cc2)c1 (3D coordinates assigned)
O=C([N-]CCc1ccc(Cl)cc1)c1cccc(COc2ccc(C=Cc3c([O-])[n-]c(=O)[n-]c3=O)cc2)c1 (optimized conformer: 66.84213887036596 kcal/mol)

>  <smiles>  (47) 
O=C(NCCc1ccc(Cl)cc1)c1cccc(COc2ccc(C=Cc3c(O)[nH]c(=O)[nH]c3=O)cc2)c1

>  <score_type>  (47) 
oracle

>  <origin>  (47) 
adg

>  <m_score__min__energy>  (47) 
-19.739999999999998

>  <m_primary>  (47) 
energy

$$$$
47:0
     RDKit          3D

 45 47  0  0  1  0  0  0  0  0999 V2000
   61.1310   30.2350   46.7580 C   0  0  0  0  0  0  0  0  0  0  0  0
   60.4730   29.5890   45.6870 O   0  0  0  0  0  0  0  0  0  0  0  0
   59.5220   28.6270   46.0000 C   0  0  0  0  0  0  0  0  0  0  0  0
   59.6560   27.7290   47.0340 C   0  0  0  0  0  0  0  0  0  0  0  0
   58.6620   26.7850   47.2960 C   0  0  0  0  0  0  0  0  0  0  0  0
   57.5450   26.7950   46.4760 C   0  0  0  0  0  0  0  0  0  0  0  0
   57.3960   27.6960   45.4260 C   0  0  0  0  0  0  0  0  0  0  0  0
   58.3850   28.6230   45.1800 C   0  0  0  0  0  0  0  0  0  0  0  0
   58.2250   29.5500   44.1260 N   0  0  0  0  0  0  0  0  0  0  0  0
   57.0760   30.8110   44.0770 S   0  0  0  0  0  0  0  0  0  0  0  0
   55.7900   30.4460   44.7640 O   0  0  0  0  0  0  0  0  0  0  0  0
   56.7460   31.1260   42.6490 O   0  0  0  0  0  0  0  0  0  0  0  0
   57.8040   32.2160   44.8390 C   0  0  0  0  0  0  0  0  0  0  0  0
   57.6870   33.4790   44.2420 C   0  0  0  0  0  0  0  0  0  0  0  0
   58.2200   34.5800   44.8700 C   0  0  0  0  0  0  0  0  0  0  0  0
   58.8790   34.4890   46.0990 C   0  0  0  0  0  0  0  0  0  0  0  0
   58.9730   33.2370   46.6570 C   0  0  0  0  0  0  0  0  0  0  0  0
   59.5820   33.0170   47.9950 C   0  0  0  0  0  0  0  0  0  0  0  0
   59.2450   32.1070   48.7650 O   0  0  0  0  0  0  0  0  0  0  0  0
   60.6160   33.9870   48.2960 N   0  0  0  0  0  0  0  0  0  0  0  0
   61.8540   33.6590   48.3410 C   0  0  0  0  0  0  0  0  0  0  0  0
   62.7110   33.5240   49.4250 C   0  0  0  0  0  0  0  0  0  0  0  0
   63.9010   33.1020   48.8690 C   0  0  0  0  0  0  0  0  0  0  0  0
   65.1460   32.8110   49.6150 C   0  0  0  0  0  0  0  0  0  0  0  0
   63.7810   32.9840   47.5210 N   0  0  0  0  0  0  0  0  0  0  0  0
   62.5380   33.3220   47.2150 N   0  0  0  0  0  0  0  0  0  0  0  0
   58.4580   32.0880   46.0680 C   0  0  0  0  0  0  0  0  0  0  0  0
   60.7409   29.8520   47.7125 H   0  0  0  0  0  0  0  0  0  0  0  0
   62.2113   30.0370   46.6975 H   0  0  0  0  0  0  0  0  0  0  0  0
   60.9529   31.3188   46.6975 H   0  0  0  0  0  0  0  0  0  0  0  0
   60.5585   27.7555   47.6624 H   0  0  0  0  0  0  0  0  0  0  0  0
   58.7612   26.0627   48.1196 H   0  0  0  0  0  0  0  0  0  0  0  0
   56.7455   26.0627   46.6622 H   0  0  0  0  0  0  0  0  0  0  0  0
   56.4944   27.6682   44.7965 H   0  0  0  0  0  0  0  0  0  0  0  0
   58.8880   29.4430   43.2900 H   0  0  0  0  0  0  0  0  0  0  0  0
   57.1716   33.5886   43.2764 H   0  0  0  0  0  0  0  0  0  0  0  0
   58.1245   35.5648   44.3892 H   0  0  0  0  0  0  0  0  0  0  0  0
   59.3013   35.3754   46.5948 H   0  0  0  0  0  0  0  0  0  0  0  0
   62.4910   33.7111   50.4864 H   0  0  0  0  0  0  0  0  0  0  0  0
   64.9455   32.8579   50.6955 H   0  0  0  0  0  0  0  0  0  0  0  0
   65.5044   31.8049   49.3519 H   0  0  0  0  0  0  0  0  0  0  0  0
   65.9133   33.5540   49.3519 H   0  0  0  0  0  0  0  0  0  0  0  0
   64.5270   32.6810   46.8350 H   0  0  0  0  0  0  0  0  0  0  0  0
   62.1610   33.3210   46.2250 H   0  0  0  0  0  0  0  0  0  0  0  0
   58.5620   31.1070   46.5546 H   0  0  0  0  0  0  0  0  0  0  0  0
  1  2  1  0
  2  3  1  0
  3  4  2  0
  4  5  1  0
  5  6  2  0
  6  7  1  0
  7  8  2  0
  8  9  1  0
  9 10  1  0
 10 11  2  0
 10 12  2  0
 10 13  1  0
 13 14  2  0
 14 15  1  0
 15 16  2  0
 16 17  1  0
 17 18  1  0
 18 19  2  0
 18 20  1  0
 20 21  2  0
 21 22  1  0
 22 23  2  0
 23 24  1  0
 23 25  1  0
 25 26  1  0
 17 27  2  0
  8  3  1  0
 27 13  1  0
 26 21  1  0
  1 28  1  0
  1 29  1  0
  1 30  1  0
  4 31  1  0
  5 32  1  0
  6 33  1  0
  7 34  1  0
  9 35  1  0
 14 36  1  0
 15 37  1  0
 16 38  1  0
 22 39  1  0
 24 40  1  0
 24 41  1  0
 24 42  1  0
 25 43  1  0
 26 44  1  0
 27 45  1  0
M  END
>  <smiles>  (48) 
COc1ccccc1NS(=O)(=O)c1cccc(C(=O)N=c2cc(C)[nH][nH]2)c1

>  <score_type>  (48) 
oracle

>  <origin>  (48) 
adg

>  <m_score__min__energy>  (48) 
-9.2300000000000004

>  <m_primary>  (48) 
energy

$$$$
48:0
     RDKit          3D

 42 45  0  0  0  0  0  0  0  0999 V2000
   54.3750   25.9620   45.6590 O   0  0  0  0  0  0  0  0  0  0  0  0
   55.5700   25.5660   45.6320 C   0  0  0  0  0  0  0  0  0  0  0  0
   55.8380   24.2620   45.2290 O   0  0  0  0  0  0  0  0  0  0  0  0
   56.6730   26.4710   46.0200 C   0  0  0  0  0  0  0  0  0  0  0  0
   57.7830   25.9710   46.7490 C   0  0  0  0  0  0  0  0  0  0  0  0
   58.8400   26.8180   47.1250 C   0  0  0  0  0  0  0  0  0  0  0  0
   58.7660   28.1600   46.7610 C   0  0  0  0  0  0  0  0  0  0  0  0
   57.6920   28.6570   46.0580 C   0  0  0  0  0  0  0  0  0  0  0  0
   56.6310   27.8410   45.6700 C   0  0  0  0  0  0  0  0  0  0  0  0
   57.9230   30.0810   45.8420 C   0  0  0  0  0  0  0  0  0  0  0  0
   57.1680   30.8530   45.1920 O   0  0  0  0  0  0  0  0  0  0  0  0
   59.1690   30.4690   46.4310 N   0  0  0  0  0  0  0  0  0  0  0  0
   59.7650   31.7790   46.4480 C   0  0  0  0  0  0  0  0  0  0  0  0
   59.1160   32.8610   45.8330 C   0  0  0  0  0  0  0  0  0  0  0  0
   59.6950   34.1310   45.8480 C   0  0  0  0  0  0  0  0  0  0  0  0
   60.9230   34.3370   46.4780 C   0  0  0  0  0  0  0  0  0  0  0  0
   61.5880   33.2700   47.1080 C   0  0  0  0  0  0  0  0  0  0  0  0
   62.9000   33.4750   47.7710 C   0  0  0  0  0  0  0  0  0  0  0  0
   63.7530   34.2370   47.2370 O   0  0  0  0  0  0  0  0  0  0  0  0
   63.2280   32.7800   48.9850 N   0  0  0  0  0  0  0  0  0  0  0  0
   64.2590   33.2020   49.8950 C   0  0  0  0  0  0  0  0  0  0  0  0
   63.9770   34.0580   50.9770 C   0  0  0  0  0  0  0  0  0  0  0  0
   64.9940   34.4350   51.8600 C   0  0  0  0  0  0  0  0  0  0  0  0
   66.2930   33.9570   51.6800 C   0  0  0  0  0  0  0  0  0  0  0  0
   66.5780   33.0920   50.6200 C   0  0  0  0  0  0  0  0  0  0  0  0
   67.8380   32.6190   50.4510 F   0  0  0  0  0  0  0  0  0  0  0  0
   65.5650   32.7110   49.7350 C   0  0  0  0  0  0  0  0  0  0  0  0
   61.0020   31.9900   47.0800 C   0  0  0  0  0  0  0  0  0  0  0  0
   59.6870   29.2630   47.0040 C   0  0  0  0  0  0  0  0  0  0  0  0
   60.7580   29.1880   47.6630 O   0  0  0  0  0  0  0  0  0  0  0  0
   57.8168   24.9064   47.0236 H   0  0  0  0  0  0  0  0  0  0  0  0
   59.7008   26.4318   47.6905 H   0  0  0  0  0  0  0  0  0  0  0  0
   55.7814   28.2523   45.1052 H   0  0  0  0  0  0  0  0  0  0  0  0
   58.1464   32.7074   45.3368 H   0  0  0  0  0  0  0  0  0  0  0  0
   59.1811   34.9730   45.3612 H   0  0  0  0  0  0  0  0  0  0  0  0
   61.3737   35.3404   46.4818 H   0  0  0  0  0  0  0  0  0  0  0  0
   62.7710   31.8560   49.1610 H   0  0  0  0  0  0  0  0  0  0  0  0
   62.9534   34.4314   51.1282 H   0  0  0  0  0  0  0  0  0  0  0  0
   64.7695   35.1102   52.6988 H   0  0  0  0  0  0  0  0  0  0  0  0
   67.0920   34.2610   52.3722 H   0  0  0  0  0  0  0  0  0  0  0  0
   65.7924   32.0222   48.9080 H   0  0  0  0  0  0  0  0  0  0  0  0
   61.5188   31.1451   47.5586 H   0  0  0  0  0  0  0  0  0  0  0  0
  1  2  2  0
  2  3  1  0
  2  4  1  0
  4  5  2  0
  5  6  1  0
  6  7  2  0
  7  8  1  0
  8  9  2  0
  8 10  1  0
 10 11  2  0
 10 12  1  0
 12 13  1  0
 13 14  2  0
 14 15  1  0
 15 16  2  0
 16 17  1  0
 17 18  1  0
 18 19  2  0
 18 20  1  0
 20 21  1  0
 21 22  2  0
 22 23  1  0
 23 24  2  0
 24 25  1  0
 25 26  1  0
 25 27  2  0
 17 28  2  0
 12 29  1  0
 29 30  2  0
  9  4  1  0
 28 13  1  0
 29  7  1  0
 27 21  1  0
  5 31  1  0
  6 32  1  0
  9 33  1  0
 14 34  1  0
 15 35  1  0
 16 36  1  0
 20 37  1  0
 22 38  1  0
 23 39  1  0
 24 40  1  0
 27 41  1  0
 28 42  1  0
M  CHG  1   3  -1
M  END
>  <UniqueID>  (49) 
46

>  <SMILES>  (49) 
O=C([O-])c1ccc2c(c1)C(=O)N(c1cccc(C(=O)Nc3cccc(F)c3)c1)C2=O

>  <Energy>  (49) 
90.23176034964042

>  <Genealogy>  (49) 
O=C([O-])c1ccc2c(c1)C(=O)N(c1cccc(C(=O)Nc3cccc(F)c3)c1)C2=O (protonated)
O=C([O-])c1ccc2c(c1)C(=O)N(c1cccc(C(=O)Nc3cccc(F)c3)c1)C2=O (3D coordinates assigned)
O=C([O-])c1ccc2c(c1)C(=O)N(c1cccc(C(=O)Nc3cccc(F)c3)c1)C2=O (nonaromatic ring conformer: 90.23176034964042 kcal/mol)

>  <smiles>  (49) 
O=C(O)c1ccc2c(c1)C(=O)N(c1cccc(C(=O)Nc3cccc(F)c3)c1)C2=O

>  <score_type>  (49) 
oracle

>  <origin>  (49) 
adg

>  <m_score__min__energy>  (49) 
-11.300000000000001

>  <m_primary>  (49) 
energy

$$$$
49:0
     RDKit          3D

 39 42  0  0  0  0  0  0  0  0999 V2000
   57.0400   32.1670   41.1640 O   0  0  0  0  0  0  0  0  0  0  0  0
   58.0480   32.2940   41.8890 N   0  0  0  0  0  0  0  0  0  0  0  0
   57.9640   32.2350   43.3160 C   0  0  0  0  0  0  0  0  0  0  0  0
   57.8490   33.4020   44.0900 C   0  0  0  0  0  0  0  0  0  0  0  0
   57.7730   33.3150   45.4830 C   0  0  0  0  0  0  0  0  0  0  0  0
   57.8080   32.0690   46.1120 C   0  0  0  0  0  0  0  0  0  0  0  0
   57.9160   30.8950   45.3490 C   0  0  0  0  0  0  0  0  0  0  0  0
   57.9880   29.5760   46.0170 C   0  0  0  0  0  0  0  0  0  0  0  0
   57.0340   28.5700   45.7490 C   0  0  0  0  0  0  0  0  0  0  0  0
   55.9510   28.7840   44.8940 O   0  0  0  0  0  0  0  0  0  0  0  0
   57.1500   27.3210   46.3650 C   0  0  0  0  0  0  0  0  0  0  0  0
   58.1860   27.0550   47.2630 C   0  0  0  0  0  0  0  0  0  0  0  0
   58.2480   25.7960   47.8530 O   0  0  0  0  0  0  0  0  0  0  0  0
   59.1400   28.0530   47.5560 C   0  0  0  0  0  0  0  0  0  0  0  0
   60.2050   27.8560   48.4570 C   0  0  0  0  0  0  0  0  0  0  0  0
   60.3550   26.7620   49.0680 O   0  0  0  0  0  0  0  0  0  0  0  0
   61.1150   28.8880   48.6870 C   0  0  0  0  0  0  0  0  0  0  0  0
   60.9570   30.1080   48.0100 C   0  0  0  0  0  0  0  0  0  0  0  0
   61.8910   31.2460   48.2100 C   0  0  0  0  0  0  0  0  0  0  0  0
   62.6070   31.3470   49.4180 C   0  0  0  0  0  0  0  0  0  0  0  0
   63.4840   32.4130   49.6370 C   0  0  0  0  0  0  0  0  0  0  0  0
   63.6510   33.3950   48.6600 C   0  0  0  0  0  0  0  0  0  0  0  0
   62.9360   33.3160   47.4630 C   0  0  0  0  0  0  0  0  0  0  0  0
   62.0580   32.2520   47.2380 C   0  0  0  0  0  0  0  0  0  0  0  0
   59.9360   30.2630   47.1750 O   0  0  0  0  0  0  0  0  0  0  0  0
   59.0360   29.3150   46.9230 C   0  0  0  0  0  0  0  0  0  0  0  0
   58.0010   30.9870   43.9500 C   0  0  0  0  0  0  0  0  0  0  0  0
   57.8187   34.3858   43.5989 H   0  0  0  0  0  0  0  0  0  0  0  0
   57.6853   34.2311   46.0856 H   0  0  0  0  0  0  0  0  0  0  0  0
   57.7508   32.0067   47.2087 H   0  0  0  0  0  0  0  0  0  0  0  0
   55.1390   28.1820   44.8710 H   0  0  0  0  0  0  0  0  0  0  0  0
   56.4140   26.5353   46.1391 H   0  0  0  0  0  0  0  0  0  0  0  0
   61.9479   28.7475   49.3916 H   0  0  0  0  0  0  0  0  0  0  0  0
   62.4751   30.5806   50.1959 H   0  0  0  0  0  0  0  0  0  0  0  0
   64.0438   32.4779   50.5817 H   0  0  0  0  0  0  0  0  0  0  0  0
   64.3452   34.2307   48.8324 H   0  0  0  0  0  0  0  0  0  0  0  0
   63.0641   34.0932   46.6952 H   0  0  0  0  0  0  0  0  0  0  0  0
   61.4934   32.1998   46.2954 H   0  0  0  0  0  0  0  0  0  0  0  0
   58.0974   30.0716   43.3477 H   0  0  0  0  0  0  0  0  0  0  0  0
  1  2  2  0
  2  3  1  0
  3  4  2  0
  4  5  1  0
  5  6  2  0
  6  7  1  0
  7  8  1  0
  8  9  2  0
  9 10  1  0
  9 11  1  0
 11 12  2  0
 12 13  1  0
 12 14  1  0
 14 15  1  0
 15 16  2  0
 15 17  1  0
 17 18  2  0
 18 19  1  0
 19 20  2  0
 20 21  1  0
 21 22  2  0
 22 23  1  0
 23 24  2  0
 18 25  1  0
 25 26  1  0
  7 27  2  0
 27  3  1  0
 26  8  1  0
 26 14  2  0
 24 19  1  0
  4 28  1  0
  5 29  1  0
  6 30  1  0
 10 31  1  0
 11 32  1  0
 17 33  1  0
 20 34  1  0
 21 35  1  0
 22 36  1  0
 23 37  1  0
 24 38  1  0
 27 39  1  0
M  CHG  1  13  -1
M  END
>  <UniqueID>  (50) 
47

>  <SMILES>  (50) 
O=Nc1cccc(-c2c(O)cc([O-])c3c(=O)cc(-c4ccccc4)oc23)c1

>  <Energy>  (50) 
62.73234683549918

>  <Genealogy>  (50) 
O=Nc1cccc(-c2c(O)cc([O-])c3c(=O)cc(-c4ccccc4)oc23)c1 (protonated)
O=Nc1cccc(-c2c(O)cc([O-])c3c(=O)cc(-c4ccccc4)oc23)c1 (3D coordinates assigned)
O=Nc1cccc(-c2c(O)cc([O-])c3c(=O)cc(-c4ccccc4)oc23)c1 (optimized conformer: 62.73234683549918 kcal/mol)

>  <smiles>  (50) 
O=Nc1cccc(-c2c(O)cc(O)c3c(=O)cc(-c4ccccc4)oc23)c1

>  <score_type>  (50) 
oracle

>  <origin>  (50) 
adg

>  <m_score__min__energy>  (50) 
-10.390000000000001

>  <m_primary>  (50) 
energy

$$$$
50:0
     RDKit          3D

 50 53  0  0  0  0  0  0  0  0999 V2000
   57.6730   30.1380   44.5570 C   0  0  0  0  0  0  0  0  0  0  0  0
   58.0470   31.5130   45.0360 C   0  0  0  0  0  0  0  0  0  0  0  0
   57.3930   32.6310   44.4880 C   0  0  0  0  0  0  0  0  0  0  0  0
   57.7280   33.9210   44.9030 C   0  0  0  0  0  0  0  0  0  0  0  0
   58.7130   34.1120   45.8720 C   0  0  0  0  0  0  0  0  0  0  0  0
   59.3590   33.0110   46.4380 C   0  0  0  0  0  0  0  0  0  0  0  0
   59.0250   31.7070   46.0410 C   0  0  0  0  0  0  0  0  0  0  0  0
   59.6850   30.5930   46.6660 N   0  0  0  0  0  0  0  0  0  0  0  0
   60.2730   29.5310   45.8430 C   0  0  0  0  0  0  0  0  0  0  0  0
   60.2980   28.2030   46.6150 C   0  0  0  0  0  0  0  0  0  0  0  0
   59.0760   28.0170   47.4330 N   0  0  0  0  0  0  0  0  0  0  0  0
   57.8520   27.8300   46.6210 C   0  0  0  0  0  0  0  0  0  0  0  0
   57.5700   26.3660   46.3800 C   0  0  0  0  0  0  0  0  0  0  0  0
   58.6010   25.4220   46.4410 C   0  0  0  0  0  0  0  0  0  0  0  0
   58.3340   24.1060   46.2420 N   0  0  0  0  0  0  0  0  0  0  0  0
   57.0700   23.6710   45.9880 C   0  0  0  0  0  0  0  0  0  0  0  0
   56.7980   22.2320   45.7470 C   0  0  0  0  0  0  0  0  0  0  0  0
   56.7910   21.3500   46.8450 C   0  0  0  0  0  0  0  0  0  0  0  0
   56.5210   19.9920   46.6680 C   0  0  0  0  0  0  0  0  0  0  0  0
   56.2590   19.4900   45.3930 C   0  0  0  0  0  0  0  0  0  0  0  0
   56.2750   20.3460   44.2910 C   0  0  0  0  0  0  0  0  0  0  0  0
   56.5440   21.7110   44.4530 C   0  0  0  0  0  0  0  0  0  0  0  0
   56.6210   22.6990   42.9960 Cl  0  0  0  0  0  0  0  0  0  0  0  0
   56.0560   24.5750   45.9160 N   0  0  0  0  0  0  0  0  0  0  0  0
   56.2730   25.9020   46.1070 C   0  0  0  0  0  0  0  0  0  0  0  0
   55.3040   26.7030   46.0390 O   0  0  0  0  0  0  0  0  0  0  0  0
   58.9060   29.0810   48.4590 C   0  0  0  0  0  0  0  0  0  0  0  0
   59.6100   30.4090   48.1160 C   0  0  0  0  0  0  0  0  0  0  0  0
   57.4950   29.4838   45.4232 H   0  0  0  0  0  0  0  0  0  0  0  0
   56.7585   30.1978   43.9486 H   0  0  0  0  0  0  0  0  0  0  0  0
   58.4918   29.7263   43.9486 H   0  0  0  0  0  0  0  0  0  0  0  0
   56.6119   32.4879   43.7269 H   0  0  0  0  0  0  0  0  0  0  0  0
   57.2139   34.7891   44.4648 H   0  0  0  0  0  0  0  0  0  0  0  0
   58.9810   35.1302   46.1904 H   0  0  0  0  0  0  0  0  0  0  0  0
   60.1358   33.1670   47.2011 H   0  0  0  0  0  0  0  0  0  0  0  0
   59.6732   29.4072   44.9293 H   0  0  0  0  0  0  0  0  0  0  0  0
   61.3047   29.8115   45.5845 H   0  0  0  0  0  0  0  0  0  0  0  0
   60.3739   27.3745   45.8954 H   0  0  0  0  0  0  0  0  0  0  0  0
   61.1637   28.2190   47.2935 H   0  0  0  0  0  0  0  0  0  0  0  0
   56.9984   28.2764   47.1521 H   0  0  0  0  0  0  0  0  0  0  0  0
   58.0041   28.3185   45.6472 H   0  0  0  0  0  0  0  0  0  0  0  0
   59.6307   25.7472   46.6508 H   0  0  0  0  0  0  0  0  0  0  0  0
   57.0007   21.7357   47.8536 H   0  0  0  0  0  0  0  0  0  0  0  0
   56.5148   19.3161   47.5358 H   0  0  0  0  0  0  0  0  0  0  0  0
   56.0401   18.4207   45.2565 H   0  0  0  0  0  0  0  0  0  0  0  0
   56.0746   19.9453   43.2864 H   0  0  0  0  0  0  0  0  0  0  0  0
   57.8304   29.2806   48.5739 H   0  0  0  0  0  0  0  0  0  0  0  0
   59.3714   28.7063   49.3826 H   0  0  0  0  0  0  0  0  0  0  0  0
   59.0441   31.2426   48.5574 H   0  0  0  0  0  0  0  0  0  0  0  0
   60.6314   30.3844   48.5236 H   0  0  0  0  0  0  0  0  0  0  0  0
  1  2  1  0
  2  3  2  0
  3  4  1  0
  4  5  2  0
  5  6  1  0
  6  7  2  0
  7  8  1  0
  8  9  1  0
  9 10  1  0
 10 11  1  0
 11 12  1  0
 12 13  1  0
 13 14  2  0
 14 15  1  0
 15 16  1  0
 16 17  1  0
 17 18  2  0
 18 19  1  0
 19 20  2  0
 20 21  1  0
 21 22  2  0
 22 23  1  0
 16 24  2  0
 24 25  1  0
 25 26  2  0
 11 27  1  0
 27 28  1  0
  7  2  1  0
 28  8  1  0
 25 13  1  0
 22 17  1  0
  1 29  1  0
  1 30  1  0
  1 31  1  0
  3 32  1  0
  4 33  1  0
  5 34  1  0
  6 35  1  0
  9 36  1  0
  9 37  1  0
 10 38  1  0
 10 39  1  0
 12 40  1  0
 12 41  1  0
 14 42  1  0
 18 43  1  0
 19 44  1  0
 20 45  1  0
 21 46  1  0
 27 47  1  0
 27 48  1  0
 28 49  1  0
 28 50  1  0
M  CHG  1  15  -1
M  END
>  <UniqueID>  (51) 
48

>  <SMILES>  (51) 
Cc1ccccc1N1CCN(Cc2c[n-]c(-c3ccccc3Cl)nc2=O)CC1

>  <Energy>  (51) 
74.72379343379745

>  <Genealogy>  (51) 
Cc1ccccc1N1CCN(Cc2c[n-]c(-c3ccccc3Cl)nc2=O)CC1 (protonated)
Cc1ccccc1N1CCN(Cc2c[n-]c(-c3ccccc3Cl)nc2=O)CC1 (3D coordinates assigned)
Cc1ccccc1N1CCN(Cc2c[n-]c(-c3ccccc3Cl)nc2=O)CC1 (nonaromatic ring conformer: 74.72379343379745 kcal/mol)

>  <smiles>  (51) 
Cc1ccccc1N1CCN(Cc2c[nH]c(-c3ccccc3Cl)nc2=O)CC1

>  <score_type>  (51) 
oracle

>  <origin>  (51) 
adg

>  <m_score__min__energy>  (51) 
-10.43

>  <m_primary>  (51) 
energy

$$$$
51:0
     RDKit          3D

 49 51  0  0  0  0  0  0  0  0999 V2000
   54.0130   22.9700   44.8020 N   0  0  0  0  0  0  0  0  0  0  0  0
   55.5550   22.5860   44.1260 S   0  0  0  0  0  0  0  0  0  0  0  0
   55.9070   21.1640   44.4640 O   0  0  0  0  0  0  0  0  0  0  0  0
   55.4980   22.7250   42.6300 O   0  0  0  0  0  0  0  0  0  0  0  0
   56.7730   23.6770   44.7780 C   0  0  0  0  0  0  0  0  0  0  0  0
   58.0340   23.1910   45.1420 C   0  0  0  0  0  0  0  0  0  0  0  0
   58.9900   24.0550   45.6800 C   0  0  0  0  0  0  0  0  0  0  0  0
   58.6920   25.4080   45.8580 C   0  0  0  0  0  0  0  0  0  0  0  0
   57.4310   25.9150   45.4960 C   0  0  0  0  0  0  0  0  0  0  0  0
   57.1180   27.3510   45.6990 C   0  0  0  0  0  0  0  0  0  0  0  0
   55.9220   27.7440   45.6180 O   0  0  0  0  0  0  0  0  0  0  0  0
   58.1540   28.2900   46.0320 N   0  0  0  0  0  0  0  0  0  0  0  0
   58.0350   29.7110   45.8430 C   0  0  0  0  0  0  0  0  0  0  0  0
   57.4510   30.2050   44.6670 C   0  0  0  0  0  0  0  0  0  0  0  0
   57.3080   31.5810   44.4690 C   0  0  0  0  0  0  0  0  0  0  0  0
   57.7470   32.4880   45.4460 C   0  0  0  0  0  0  0  0  0  0  0  0
   57.5750   33.9410   45.2440 C   0  0  0  0  0  0  0  0  0  0  0  0
   56.4130   34.4220   45.1760 O   0  0  0  0  0  0  0  0  0  0  0  0
   58.6950   34.8300   45.1610 N   0  0  0  0  0  0  0  0  0  0  0  0
   60.0320   34.5210   45.6640 C   0  0  0  0  0  0  0  0  0  0  0  0
   60.0490   34.5840   47.1920 C   0  0  0  0  0  0  0  0  0  0  0  0
   61.3260   33.9980   47.7390 C   0  0  0  0  0  0  0  0  0  0  0  0
   62.3340   33.5530   46.8680 C   0  0  0  0  0  0  0  0  0  0  0  0
   63.5420   33.0680   47.3790 C   0  0  0  0  0  0  0  0  0  0  0  0
   63.7530   33.0300   48.7600 C   0  0  0  0  0  0  0  0  0  0  0  0
   64.9270   32.5620   49.2540 F   0  0  0  0  0  0  0  0  0  0  0  0
   62.7580   33.4790   49.6330 C   0  0  0  0  0  0  0  0  0  0  0  0
   61.5490   33.9640   49.1260 C   0  0  0  0  0  0  0  0  0  0  0  0
   58.2910   31.9930   46.6420 C   0  0  0  0  0  0  0  0  0  0  0  0
   58.4350   30.6190   46.8410 C   0  0  0  0  0  0  0  0  0  0  0  0
   56.4710   25.0350   44.9640 C   0  0  0  0  0  0  0  0  0  0  0  0
   53.3270   22.9730   44.0140 H   0  0  0  0  0  0  0  0  0  0  0  0
   58.2725   22.1261   45.0040 H   0  0  0  0  0  0  0  0  0  0  0  0
   59.9801   23.6692   45.9643 H   0  0  0  0  0  0  0  0  0  0  0  0
   59.4493   26.0821   46.2846 H   0  0  0  0  0  0  0  0  0  0  0  0
   58.9940   27.9340   46.5430 H   0  0  0  0  0  0  0  0  0  0  0  0
   57.1028   29.5036   43.8945 H   0  0  0  0  0  0  0  0  0  0  0  0
   56.8488   31.9553   43.5422 H   0  0  0  0  0  0  0  0  0  0  0  0
   60.3178   33.5098   45.3388 H   0  0  0  0  0  0  0  0  0  0  0  0
   60.7445   35.2587   45.2664 H   0  0  0  0  0  0  0  0  0  0  0  0
   59.9689   35.6339   47.5104 H   0  0  0  0  0  0  0  0  0  0  0  0
   59.2002   34.0004   47.5779 H   0  0  0  0  0  0  0  0  0  0  0  0
   62.1727   33.5861   45.7804 H   0  0  0  0  0  0  0  0  0  0  0  0
   64.3269   32.7161   46.6933 H   0  0  0  0  0  0  0  0  0  0  0  0
   62.9265   33.4507   50.7197 H   0  0  0  0  0  0  0  0  0  0  0  0
   60.7693   34.3203   49.8153 H   0  0  0  0  0  0  0  0  0  0  0  0
   58.6064   32.6940   47.4289 H   0  0  0  0  0  0  0  0  0  0  0  0
   58.8632   30.2441   47.7824 H   0  0  0  0  0  0  0  0  0  0  0  0
   55.4751   25.4144   44.6915 H   0  0  0  0  0  0  0  0  0  0  0  0
  1  2  1  0
  2  3  2  0
  2  4  2  0
  2  5  1  0
  5  6  2  0
  6  7  1  0
  7  8  2  0
  8  9  1  0
  9 10  1  0
 10 11  2  0
 10 12  1  0
 12 13  1  0
 13 14  2  0
 14 15  1  0
 15 16  2  0
 16 17  1  0
 17 18  2  0
 17 19  1  0
 19 20  1  0
 20 21  1  0
 21 22  1  0
 22 23  2  0
 23 24  1  0
 24 25  2  0
 25 26  1  0
 25 27  1  0
 27 28  2  0
 16 29  1  0
 29 30  2  0
  9 31  2  0
 31  5  1  0
 30 13  1  0
 28 22  1  0
  1 32  1  0
  6 33  1  0
  7 34  1  0
  8 35  1  0
 12 36  1  0
 14 37  1  0
 15 38  1  0
 20 39  1  0
 20 40  1  0
 21 41  1  0
 21 42  1  0
 23 43  1  0
 24 44  1  0
 27 45  1  0
 28 46  1  0
 29 47  1  0
 30 48  1  0
 31 49  1  0
M  CHG  2   1  -1  19  -1
M  END
>  <UniqueID>  (52) 
49

>  <SMILES>  (52) 
[NH-]S(=O)(=O)c1cccc(C(=O)Nc2ccc(C(=O)[N-]CCc3ccc(F)cc3)cc2)c1

>  <Energy>  (52) 
58.38782516632397

>  <Genealogy>  (52) 
[NH-]S(=O)(=O)c1cccc(C(=O)Nc2ccc(C(=O)[N-]CCc3ccc(F)cc3)cc2)c1 (protonated)
[NH-]S(=O)(=O)c1cccc(C(=O)Nc2ccc(C(=O)[N-]CCc3ccc(F)cc3)cc2)c1 (3D coordinates assigned)
[NH-]S(=O)(=O)c1cccc(C(=O)Nc2ccc(C(=O)[N-]CCc3ccc(F)cc3)cc2)c1 (optimized conformer: 58.38782516632397 kcal/mol)

>  <smiles>  (52) 
NS(=O)(=O)c1cccc(C(=O)Nc2ccc(C(=O)NCCc3ccc(F)cc3)cc2)c1

>  <score_type>  (52) 
oracle

>  <origin>  (52) 
adg

>  <m_score__min__energy>  (52) 
-12.43

>  <m_primary>  (52) 
energy

$$$$
52:0
     RDKit          3D

 30 31  0  0  0  0  0  0  0  0999 V2000
   54.8130   29.8230   43.8750 N   0  0  0  0  0  0  0  0  0  0  0  0
   56.2120   29.7740   43.6070 C   0  0  0  0  0  0  0  0  0  0  0  0
   56.6020   29.6290   42.4170 O   0  0  0  0  0  0  0  0  0  0  0  0
   57.2070   29.8440   44.7070 C   0  0  0  0  0  0  0  0  0  0  0  0
   57.4430   28.6890   45.4780 C   0  0  0  0  0  0  0  0  0  0  0  0
   58.3780   28.6970   46.5300 C   0  0  0  0  0  0  0  0  0  0  0  0
   58.6660   27.5630   47.3080 O   0  0  0  0  0  0  0  0  0  0  0  0
   58.5410   26.2000   46.8960 C   0  0  0  0  0  0  0  0  0  0  0  0
   57.3820   25.5050   47.6200 C   0  0  0  0  0  0  0  0  0  0  0  0
   56.4890   24.8230   46.6820 N   0  0  0  0  0  0  0  0  0  0  0  0
   56.4880   23.5110   46.3750 C   0  0  0  0  0  0  0  0  0  0  0  0
   57.3740   22.5850   46.9110 O   0  0  0  0  0  0  0  0  0  0  0  0
   55.4870   23.2170   45.4690 C   0  0  0  0  0  0  0  0  0  0  0  0
   54.8410   24.4110   45.2090 C   0  0  0  0  0  0  0  0  0  0  0  0
   55.4840   25.3680   45.9690 C   0  0  0  0  0  0  0  0  0  0  0  0
   55.1420   26.7150   46.0070 O   0  0  0  0  0  0  0  0  0  0  0  0
   59.0520   29.8820   46.8290 C   0  0  0  0  0  0  0  0  0  0  0  0
   58.8360   31.0320   46.0720 C   0  0  0  0  0  0  0  0  0  0  0  0
   57.9290   31.0250   45.0080 C   0  0  0  0  0  0  0  0  0  0  0  0
   57.7950   32.4980   44.0510 Cl  0  0  0  0  0  0  0  0  0  0  0  0
   54.4190   29.4040   44.7460 H   0  0  0  0  0  0  0  0  0  0  0  0
   56.8877   27.7661   45.2544 H   0  0  0  0  0  0  0  0  0  0  0  0
   58.3571   26.1685   45.8119 H   0  0  0  0  0  0  0  0  0  0  0  0
   59.4737   25.6737   47.1472 H   0  0  0  0  0  0  0  0  0  0  0  0
   57.7930   24.7653   48.3228 H   0  0  0  0  0  0  0  0  0  0  0  0
   56.8000   26.2725   48.1512 H   0  0  0  0  0  0  0  0  0  0  0  0
   55.2517   22.2314   45.0409 H   0  0  0  0  0  0  0  0  0  0  0  0
   53.9872   24.5673   44.5332 H   0  0  0  0  0  0  0  0  0  0  0  0
   59.7604   29.9085   47.6701 H   0  0  0  0  0  0  0  0  0  0  0  0
   59.3845   31.9543   46.3140 H   0  0  0  0  0  0  0  0  0  0  0  0
  1  2  1  0
  2  3  2  0
  2  4  1  0
  4  5  2  0
  5  6  1  0
  6  7  1  0
  7  8  1  0
  8  9  1  0
  9 10  1  0
 10 11  1  0
 11 12  1  0
 11 13  2  0
 13 14  1  0
 14 15  2  0
 15 16  1  0
  6 17  2  0
 17 18  1  0
 18 19  2  0
 19 20  1  0
 19  4  1  0
 15 10  1  0
  1 21  1  0
  5 22  1  0
  8 23  1  0
  8 24  1  0
  9 25  1  0
  9 26  1  0
 13 27  1  0
 14 28  1  0
 17 29  1  0
 18 30  1  0
M  CHG  3   1  -1  12  -1  16  -1
M  END
>  <UniqueID>  (53) 
50

>  <SMILES>  (53) 
[NH-]C(=O)c1cc(OCCn2c([O-])ccc2[O-])ccc1Cl

>  <Energy>  (53) 
60.08796758782238

>  <Genealogy>  (53) 
[NH-]C(=O)c1cc(OCCn2c([O-])ccc2[O-])ccc1Cl (protonated)
[NH-]C(=O)c1cc(OCCn2c([O-])ccc2[O-])ccc1Cl (3D coordinates assigned)
[NH-]C(=O)c1cc(OCCn2c([O-])ccc2[O-])ccc1Cl (optimized conformer: 60.08796758782238 kcal/mol)

>  <smiles>  (53) 
NC(=O)c1cc(OCCn2c(O)ccc2O)ccc1Cl

>  <score_type>  (53) 
oracle

>  <origin>  (53) 
adg

>  <m_score__min__energy>  (53) 
-14.83

>  <m_primary>  (53) 
energy

$$$$
53:0
     RDKit          3D

 59 61  0  0  0  0  0  0  0  0999 V2000
   63.9340   33.4410   49.0920 C   0  0  0  0  0  0  0  0  0  0  0  0
   63.4920   33.0800   47.6780 C   0  0  0  0  0  0  0  0  0  0  0  0
   62.0670   33.4820   47.4450 C   0  0  0  0  0  0  0  0  0  0  0  0
   61.6700   34.1940   46.3750 N   0  0  0  0  0  0  0  0  0  0  0  0
   60.3550   34.3370   46.4410 N   0  0  0  0  0  0  0  0  0  0  0  0
   59.5910   35.0220   45.3960 C   0  0  0  0  0  0  0  0  0  0  0  0
   58.8620   34.0060   44.5220 C   0  0  0  0  0  0  0  0  0  0  0  0
   59.8860   33.7190   47.5530 C   0  0  0  0  0  0  0  0  0  0  0  0
   58.4380   33.6280   47.9630 C   0  0  0  0  0  0  0  0  0  0  0  0
   57.6820   32.6450   47.0770 C   0  0  0  0  0  0  0  0  0  0  0  0
   60.9610   33.1330   48.2080 C   0  0  0  0  0  0  0  0  0  0  0  0
   60.9490   32.3410   49.4920 C   0  0  0  0  0  0  0  0  0  0  0  0
   60.5960   30.9010   49.2260 C   0  0  0  0  0  0  0  0  0  0  0  0
   61.4370   30.1000   48.4350 C   0  0  0  0  0  0  0  0  0  0  0  0
   61.0610   28.7980   48.1010 C   0  0  0  0  0  0  0  0  0  0  0  0
   59.8460   28.2710   48.5640 C   0  0  0  0  0  0  0  0  0  0  0  0
   59.3530   26.9460   48.0470 C   0  0  0  0  0  0  0  0  0  0  0  0
   59.3330   26.9080   46.5060 C   0  0  0  0  0  0  0  0  0  0  0  0
   58.5550   28.0290   45.9350 N   0  0  0  0  0  0  0  0  0  0  0  0
   59.2430   29.1610   45.5780 C   0  0  0  0  0  0  0  0  0  0  0  0
   58.6010   30.2290   44.9590 C   0  0  0  0  0  0  0  0  0  0  0  0
   57.2350   30.1600   44.7160 C   0  0  0  0  0  0  0  0  0  0  0  0
   56.6490   31.1220   44.1540 O   0  0  0  0  0  0  0  0  0  0  0  0
   56.5200   29.0240   45.1000 C   0  0  0  0  0  0  0  0  0  0  0  0
   55.1470   28.9760   44.8700 O   0  0  0  0  0  0  0  0  0  0  0  0
   57.1930   27.9450   45.7150 C   0  0  0  0  0  0  0  0  0  0  0  0
   56.3980   26.7400   46.1690 C   0  0  0  0  0  0  0  0  0  0  0  0
   59.0310   29.0500   49.3980 C   0  0  0  0  0  0  0  0  0  0  0  0
   59.4050   30.3550   49.7310 C   0  0  0  0  0  0  0  0  0  0  0  0
   63.2954   32.9195   49.8202 H   0  0  0  0  0  0  0  0  0  0  0  0
   64.9809   33.1364   49.2379 H   0  0  0  0  0  0  0  0  0  0  0  0
   63.8446   34.5276   49.2379 H   0  0  0  0  0  0  0  0  0  0  0  0
   64.1363   33.6015   46.9549 H   0  0  0  0  0  0  0  0  0  0  0  0
   63.5756   31.9906   47.5506 H   0  0  0  0  0  0  0  0  0  0  0  0
   58.8551   35.6921   45.8645 H   0  0  0  0  0  0  0  0  0  0  0  0
   60.2832   35.6028   44.7687 H   0  0  0  0  0  0  0  0  0  0  0  0
   58.3404   33.2791   45.1620 H   0  0  0  0  0  0  0  0  0  0  0  0
   58.1302   34.5268   43.8869 H   0  0  0  0  0  0  0  0  0  0  0  0
   59.5897   33.4796   43.8869 H   0  0  0  0  0  0  0  0  0  0  0  0
   58.3803   33.2889   49.0078 H   0  0  0  0  0  0  0  0  0  0  0  0
   57.9794   34.6221   47.8555 H   0  0  0  0  0  0  0  0  0  0  0  0
   57.1326   31.9306   47.7077 H   0  0  0  0  0  0  0  0  0  0  0  0
   56.9719   33.1950   46.4419 H   0  0  0  0  0  0  0  0  0  0  0  0
   58.3958   32.0999   46.4419 H   0  0  0  0  0  0  0  0  0  0  0  0
   61.9456   32.3889   49.9551 H   0  0  0  0  0  0  0  0  0  0  0  0
   60.1939   32.7716   50.1661 H   0  0  0  0  0  0  0  0  0  0  0  0
   62.3967   30.5012   48.0772 H   0  0  0  0  0  0  0  0  0  0  0  0
   61.7204   28.1822   47.4718 H   0  0  0  0  0  0  0  0  0  0  0  0
   60.0173   26.1501   48.4148 H   0  0  0  0  0  0  0  0  0  0  0  0
   58.3243   26.7981   48.4074 H   0  0  0  0  0  0  0  0  0  0  0  0
   60.3670   26.9682   46.1357 H   0  0  0  0  0  0  0  0  0  0  0  0
   58.8536   25.9681   46.1951 H   0  0  0  0  0  0  0  0  0  0  0  0
   60.3215   29.2254   45.7848 H   0  0  0  0  0  0  0  0  0  0  0  0
   59.1714   31.1221   44.6640 H   0  0  0  0  0  0  0  0  0  0  0  0
   56.3767   26.7077   47.2683 H   0  0  0  0  0  0  0  0  0  0  0  0
   55.3700   26.8128   45.7843 H   0  0  0  0  0  0  0  0  0  0  0  0
   56.8694   25.8236   45.7843 H   0  0  0  0  0  0  0  0  0  0  0  0
   58.0929   28.6320   49.7920 H   0  0  0  0  0  0  0  0  0  0  0  0
   58.7635   30.9569   50.3915 H   0  0  0  0  0  0  0  0  0  0  0  0
  1  2  1  0
  2  3  1  0
  3  4  2  0
  4  5  1  0
  5  6  1  0
  6  7  1  0
  5  8  1  0
  8  9  1  0
  9 10  1  0
  8 11  2  0
 11 12  1  0
 12 13  1  0
 13 14  2  0
 14 15  1  0
 15 16  2  0
 16 17  1  0
 17 18  1  0
 18 19  1  0
 19 20  1  0
 20 21  2  0
 21 22  1  0
 22 23  2  0
 22 24  1  0
 24 25  1  0
 24 26  2  0
 26 27  1  0
 16 28  1  0
 28 29  2  0
 11  3  1  0
 29 13  1  0
 26 19  1  0
  1 30  1  0
  1 31  1  0
  1 32  1  0
  2 33  1  0
  2 34  1  0
  6 35  1  0
  6 36  1  0
  7 37  1  0
  7 38  1  0
  7 39  1  0
  9 40  1  0
  9 41  1  0
 10 42  1  0
 10 43  1  0
 10 44  1  0
 12 45  1  0
 12 46  1  0
 14 47  1  0
 15 48  1  0
 17 49  1  0
 17 50  1  0
 18 51  1  0
 18 52  1  0
 20 53  1  0
 21 54  1  0
 27 55  1  0
 27 56  1  0
 27 57  1  0
 28 58  1  0
 29 59  1  0
M  CHG  1  25  -1
M  END
>  <UniqueID>  (54) 
51

>  <SMILES>  (54) 
CCc1nn(CC)c(CC)c1Cc1ccc(CCn2ccc(=O)c([O-])c2C)cc1

>  <Energy>  (54) 
79.31242495333245

>  <Genealogy>  (54) 
CCc1nn(CC)c(CC)c1Cc1ccc(CCn2ccc(=O)c([O-])c2C)cc1 (protonated)
CCc1nn(CC)c(CC)c1Cc1ccc(CCn2ccc(=O)c([O-])c2C)cc1 (3D coordinates assigned)
CCc1nn(CC)c(CC)c1Cc1ccc(CCn2ccc(=O)c([O-])c2C)cc1 (optimized conformer: 79.31242495333245 kcal/mol)

>  <smiles>  (54) 
CCc1nn(CC)c(CC)c1Cc1ccc(CCn2ccc(=O)c(O)c2C)cc1

>  <score_type>  (54) 
oracle

>  <origin>  (54) 
adg

>  <m_score__min__energy>  (54) 
-12.029999999999999

>  <m_primary>  (54) 
energy

$$$$
54:0
     RDKit          3D

 44 45  0  0  0  0  0  0  0  0999 V2000
   59.7170   33.4340   49.4310 C   0  0  0  0  0  0  0  0  0  0  0  0
   60.5960   34.2260   48.4700 C   0  0  0  0  0  0  0  0  0  0  0  0
   60.6060   33.5660   47.1420 N   0  0  0  0  0  0  0  0  0  0  0  0
   61.8630   33.8410   46.4130 C   0  0  0  0  0  0  0  0  0  0  0  0
   63.0860   33.3980   47.2170 C   0  0  0  0  0  0  0  0  0  0  0  0
   59.2120   34.0710   46.2020 S   0  0  0  0  0  0  0  0  0  0  0  0
   59.6040   35.1380   45.2200 O   0  0  0  0  0  0  0  0  0  0  0  0
   58.1480   34.6240   47.1110 O   0  0  0  0  0  0  0  0  0  0  0  0
   58.5580   32.7150   45.2840 C   0  0  0  0  0  0  0  0  0  0  0  0
   57.9580   32.9190   44.0330 C   0  0  0  0  0  0  0  0  0  0  0  0
   57.4060   31.8430   43.3360 C   0  0  0  0  0  0  0  0  0  0  0  0
   57.4540   30.5560   43.8790 C   0  0  0  0  0  0  0  0  0  0  0  0
   58.0670   30.3320   45.1210 C   0  0  0  0  0  0  0  0  0  0  0  0
   58.0620   29.0100   45.6830 N   0  0  0  0  0  0  0  0  0  0  0  0
   59.0770   28.0300   45.4250 C   0  0  0  0  0  0  0  0  0  0  0  0
   59.7580   28.0800   44.3640 O   0  0  0  0  0  0  0  0  0  0  0  0
   59.3510   26.9540   46.4290 C   0  0  0  0  0  0  0  0  0  0  0  0
   58.1180   26.1210   46.6160 C   0  0  0  0  0  0  0  0  0  0  0  0
   58.2080   24.8120   47.1090 C   0  0  0  0  0  0  0  0  0  0  0  0
   57.0390   24.0540   47.1990 C   0  0  0  0  0  0  0  0  0  0  0  0
   57.0830   22.8740   47.6350 O   0  0  0  0  0  0  0  0  0  0  0  0
   55.8520   24.5870   46.8090 N   0  0  0  0  0  0  0  0  0  0  0  0
   55.7830   25.8560   46.3270 C   0  0  0  0  0  0  0  0  0  0  0  0
   54.6760   26.3310   45.9650 O   0  0  0  0  0  0  0  0  0  0  0  0
   56.9090   26.6100   46.2270 N   0  0  0  0  0  0  0  0  0  0  0  0
   58.6070   31.4240   45.8260 C   0  0  0  0  0  0  0  0  0  0  0  0
   59.9913   33.6812   50.4672 H   0  0  0  0  0  0  0  0  0  0  0  0
   58.6615   33.6919   49.2597 H   0  0  0  0  0  0  0  0  0  0  0  0
   59.8639   32.3574   49.2597 H   0  0  0  0  0  0  0  0  0  0  0  0
   60.1988   35.2467   48.3680 H   0  0  0  0  0  0  0  0  0  0  0  0
   61.6221   34.2665   48.8643 H   0  0  0  0  0  0  0  0  0  0  0  0
   61.8478   33.2974   45.4568 H   0  0  0  0  0  0  0  0  0  0  0  0
   61.9346   34.9259   46.2458 H   0  0  0  0  0  0  0  0  0  0  0  0
   62.8666   33.4775   48.2920 H   0  0  0  0  0  0  0  0  0  0  0  0
   63.3297   32.3545   46.9687 H   0  0  0  0  0  0  0  0  0  0  0  0
   63.9415   34.0434   46.9687 H   0  0  0  0  0  0  0  0  0  0  0  0
   57.9223   33.9295   43.5999 H   0  0  0  0  0  0  0  0  0  0  0  0
   56.9321   32.0083   42.3572 H   0  0  0  0  0  0  0  0  0  0  0  0
   57.0085   29.7137   43.3293 H   0  0  0  0  0  0  0  0  0  0  0  0
   57.2680   28.7410   46.3080 H   0  0  0  0  0  0  0  0  0  0  0  0
   60.1729   26.3174   46.0695 H   0  0  0  0  0  0  0  0  0  0  0  0
   59.6347   27.4107   47.3886 H   0  0  0  0  0  0  0  0  0  0  0  0
   59.1766   24.3919   47.4177 H   0  0  0  0  0  0  0  0  0  0  0  0
   59.0711   31.2625   46.8102 H   0  0  0  0  0  0  0  0  0  0  0  0
  1  2  1  0
  2  3  1  0
  3  4  1  0
  4  5  1  0
  3  6  1  0
  6  7  2  0
  6  8  2  0
  6  9  1  0
  9 10  2  0
 10 11  1  0
 11 12  2  0
 12 13  1  0
 13 14  1  0
 14 15  1  0
 15 16  2  0
 15 17  1  0
 17 18  1  0
 18 19  2  0
 19 20  1  0
 20 21  2  0
 20 22  1  0
 22 23  1  0
 23 24  2  0
 23 25  1  0
 13 26  2  0
 26  9  1  0
 25 18  1  0
  1 27  1  0
  1 28  1  0
  1 29  1  0
  2 30  1  0
  2 31  1  0
  4 32  1  0
  4 33  1  0
  5 34  1  0
  5 35  1  0
  5 36  1  0
 10 37  1  0
 11 38  1  0
 12 39  1  0
 14 40  1  0
 17 41  1  0
 17 42  1  0
 19 43  1  0
 26 44  1  0
M  CHG  2  22  -1  25  -1
M  END
>  <UniqueID>  (55) 
52

>  <SMILES>  (55) 
CCN(CC)S(=O)(=O)c1cccc(NC(=O)Cc2cc(=O)[n-]c(=O)[n-]2)c1

>  <Energy>  (55) 
44.290787838622485

>  <Genealogy>  (55) 
CCN(CC)S(=O)(=O)c1cccc(NC(=O)Cc2cc(=O)[n-]c(=O)[n-]2)c1 (protonated)
CCN(CC)S(=O)(=O)c1cccc(NC(=O)Cc2cc(=O)[n-]c(=O)[n-]2)c1 (3D coordinates assigned)
CCN(CC)S(=O)(=O)c1cccc(NC(=O)Cc2cc(=O)[n-]c(=O)[n-]2)c1 (optimized conformer: 44.290787838622485 kcal/mol)

>  <smiles>  (55) 
CCN(CC)S(=O)(=O)c1cccc(NC(=O)Cc2cc(=O)[nH]c(=O)[nH]2)c1

>  <score_type>  (55) 
oracle

>  <origin>  (55) 
adg

>  <m_score__min__energy>  (55) 
-13.289999999999999

>  <m_primary>  (55) 
energy

$$$$
55:0
     RDKit          3D

 40 41  0  0  0  0  0  0  0  0999 V2000
   60.4540   27.1010   46.5490 C   0  0  0  0  0  0  0  0  0  0  0  0
   59.0410   27.4500   47.0220 C   0  0  0  0  0  0  0  0  0  0  0  0
   57.9210   27.0650   46.0300 C   0  0  2  0  0  0  0  0  0  0  0  0
   58.4320   26.2130   44.8600 C   0  0  0  0  0  0  0  0  0  0  0  0
   57.1510   28.2780   45.5610 C   0  0  0  0  0  0  0  0  0  0  0  0
   55.8350   28.3040   45.2520 N   0  0  0  0  0  0  0  0  0  0  0  0
   55.5030   29.5080   44.8040 N   0  0  0  0  0  0  0  0  0  0  0  0
   56.6210   30.2560   44.8120 C   0  0  0  0  0  0  0  0  0  0  0  0
   56.6500   31.4700   44.4780 O   0  0  0  0  0  0  0  0  0  0  0  0
   57.6900   29.5110   45.2650 C   0  0  0  0  0  0  0  0  0  0  0  0
   59.0250   29.8960   45.4430 O   0  0  0  0  0  0  0  0  0  0  0  0
   59.4520   30.9360   46.2780 C   0  0  0  0  0  0  0  0  0  0  0  0
   58.6010   31.9930   46.6360 C   0  0  0  0  0  0  0  0  0  0  0  0
   59.0640   33.0250   47.4540 C   0  0  0  0  0  0  0  0  0  0  0  0
   60.3930   33.0230   47.9190 C   0  0  0  0  0  0  0  0  0  0  0  0
   60.8940   34.0420   48.7440 O   0  0  0  0  0  0  0  0  0  0  0  0
   61.2560   33.8680   50.1100 C   0  0  0  0  0  0  0  0  0  0  0  0
   61.2540   31.9780   47.5490 C   0  0  0  0  0  0  0  0  0  0  0  0
   62.5770   32.0060   48.0220 O   0  0  0  0  0  0  0  0  0  0  0  0
   63.6170   32.8010   47.4650 C   0  0  0  0  0  0  0  0  0  0  0  0
   60.7780   30.9420   46.7220 C   0  0  0  0  0  0  0  0  0  0  0  0
   61.1037   26.9405   47.4220 H   0  0  0  0  0  0  0  0  0  0  0  0
   60.4216   26.1839   45.9425 H   0  0  0  0  0  0  0  0  0  0  0  0
   60.8523   27.9278   45.9425 H   0  0  0  0  0  0  0  0  0  0  0  0
   58.8562   26.9239   47.9702 H   0  0  0  0  0  0  0  0  0  0  0  0
   59.0063   28.5447   47.1242 H   0  0  0  0  0  0  0  0  0  0  0  0
   57.2163   26.4267   46.5831 H   0  0  0  0  0  0  0  0  0  0  0  0
   58.9607   25.3315   45.2518 H   0  0  0  0  0  0  0  0  0  0  0  0
   57.5805   25.8865   44.2449 H   0  0  0  0  0  0  0  0  0  0  0  0
   59.1210   26.8104   44.2449 H   0  0  0  0  0  0  0  0  0  0  0  0
   55.1590   27.5140   45.3300 H   0  0  0  0  0  0  0  0  0  0  0  0
   57.5638   32.0083   46.2701 H   0  0  0  0  0  0  0  0  0  0  0  0
   58.3868   33.8444   47.7369 H   0  0  0  0  0  0  0  0  0  0  0  0
   60.4525   34.2542   50.7543 H   0  0  0  0  0  0  0  0  0  0  0  0
   61.4085   32.7982   50.3155 H   0  0  0  0  0  0  0  0  0  0  0  0
   62.1867   34.4172   50.3155 H   0  0  0  0  0  0  0  0  0  0  0  0
   64.2076   33.2525   48.2757 H   0  0  0  0  0  0  0  0  0  0  0  0
   64.2692   32.1691   46.8443 H   0  0  0  0  0  0  0  0  0  0  0  0
   63.1783   33.5961   46.8443 H   0  0  0  0  0  0  0  0  0  0  0  0
   61.4562   30.1294   46.4224 H   0  0  0  0  0  0  0  0  0  0  0  0
  1  2  1  0
  2  3  1  0
  3  4  1  0
  3  5  1  0
  5  6  1  0
  6  7  1  0
  7  8  1  0
  8  9  2  0
  8 10  1  0
 10 11  1  0
 11 12  1  0
 12 13  2  0
 13 14  1  0
 14 15  2  0
 15 16  1  0
 16 17  1  0
 15 18  1  0
 18 19  1  0
 19 20  1  0
 18 21  2  0
 10  5  2  0
 21 12  1  0
  1 22  1  0
  1 23  1  0
  1 24  1  0
  2 25  1  0
  2 26  1  0
  3 27  1  1
  4 28  1  0
  4 29  1  0
  4 30  1  0
  6 31  1  0
 13 32  1  0
 14 33  1  0
 17 34  1  0
 17 35  1  0
 17 36  1  0
 20 37  1  0
 20 38  1  0
 20 39  1  0
 21 40  1  0
M  CHG  1   7  -1
M  END
>  <UniqueID>  (56) 
53

>  <SMILES>  (56) 
CC[C@H](C)c1[nH][n-]c(=O)c1Oc1ccc(OC)c(OC)c1

>  <Energy>  (56) 
72.75925185440873

>  <Genealogy>  (56) 
CCC(C)c1[nH][n-]c(=O)c1Oc1ccc(OC)c(OC)c1 (protonated)
CC[C@H](C)c1[nH][n-]c(=O)c1Oc1ccc(OC)c(OC)c1 (chirality)
CC[C@H](C)c1[nH][n-]c(=O)c1Oc1ccc(OC)c(OC)c1 (3D coordinates assigned)
CC[C@H](C)c1[nH][n-]c(=O)c1Oc1ccc(OC)c(OC)c1 (optimized conformer: 72.75925185440873 kcal/mol)

>  <smiles>  (56) 
CCC(C)c1[nH][nH]c(=O)c1Oc1ccc(OC)c(OC)c1

>  <score_type>  (56) 
oracle

>  <origin>  (56) 
adg

>  <m_score__min__energy>  (56) 
-8.0999999999999996

>  <m_primary>  (56) 
energy

$$$$
56:0
     RDKit          3D

 50 52  0  0  0  0  0  0  0  0999 V2000
   63.5850   31.8970   47.5050 N   0  0  0  0  0  0  0  0  0  0  0  0
   62.9430   33.4920   47.3190 S   0  0  0  0  0  0  0  0  0  0  0  0
   63.6800   34.1740   46.2020 O   0  0  0  0  0  0  0  0  0  0  0  0
   63.1380   34.2680   48.5910 O   0  0  0  0  0  0  0  0  0  0  0  0
   61.2260   33.4110   46.9360 C   0  0  0  0  0  0  0  0  0  0  0  0
   60.5060   32.2330   47.1760 C   0  0  0  0  0  0  0  0  0  0  0  0
   59.1570   32.1490   46.8270 C   0  0  0  0  0  0  0  0  0  0  0  0
   58.5070   33.2450   46.2330 C   0  0  0  0  0  0  0  0  0  0  0  0
   57.1110   33.0910   45.6850 C   0  0  0  0  0  0  0  0  0  0  0  0
   57.0540   32.0800   44.5300 C   0  0  0  0  0  0  0  0  0  0  0  0
   55.9500   31.1400   44.7140 N   0  0  0  0  0  0  0  0  0  0  0  0
   56.1340   29.7190   44.6990 C   0  0  0  0  0  0  0  0  0  0  0  0
   55.1450   28.9640   44.4930 O   0  0  0  0  0  0  0  0  0  0  0  0
   57.4880   29.1380   44.8530 C   0  0  0  0  0  0  0  0  0  0  0  0
   58.6070   29.7900   44.3050 C   0  0  0  0  0  0  0  0  0  0  0  0
   59.8930   29.2890   44.5200 C   0  0  0  0  0  0  0  0  0  0  0  0
   60.0790   28.1410   45.2890 C   0  0  0  0  0  0  0  0  0  0  0  0
   58.9740   27.4740   45.8350 C   0  0  0  0  0  0  0  0  0  0  0  0
   59.1890   26.0170   46.8010 S   0  0  0  0  0  0  0  0  0  0  0  0
   59.4610   26.4170   48.2230 O   0  0  0  0  0  0  0  0  0  0  0  0
   60.3510   25.2050   46.3020 O   0  0  0  0  0  0  0  0  0  0  0  0
   57.7440   25.0570   46.7460 N   0  0  0  0  0  0  0  0  0  0  0  0
   57.3090   24.2770   45.6240 C   0  0  0  0  0  0  0  0  0  0  0  0
   57.0790   24.8470   44.3580 C   0  0  0  0  0  0  0  0  0  0  0  0
   56.6420   24.0510   43.2950 C   0  0  0  0  0  0  0  0  0  0  0  0
   56.4330   22.6780   43.4830 C   0  0  0  0  0  0  0  0  0  0  0  0
   55.9980   21.8750   42.4300 O   0  0  0  0  0  0  0  0  0  0  0  0
   56.6650   22.1070   44.7380 C   0  0  0  0  0  0  0  0  0  0  0  0
   57.0970   22.9030   45.8030 C   0  0  0  0  0  0  0  0  0  0  0  0
   57.6830   27.9710   45.6150 C   0  0  0  0  0  0  0  0  0  0  0  0
   59.2200   34.4380   46.0300 C   0  0  0  0  0  0  0  0  0  0  0  0
   60.5710   34.5190   46.3800 C   0  0  0  0  0  0  0  0  0  0  0  0
   64.5860   31.9310   47.2040 H   0  0  0  0  0  0  0  0  0  0  0  0
   61.0060   31.3708   47.6414 H   0  0  0  0  0  0  0  0  0  0  0  0
   58.5995   31.2201   47.0178 H   0  0  0  0  0  0  0  0  0  0  0  0
   56.4487   32.7453   46.4924 H   0  0  0  0  0  0  0  0  0  0  0  0
   56.7888   34.0685   45.2968 H   0  0  0  0  0  0  0  0  0  0  0  0
   56.9116   32.6221   43.5835 H   0  0  0  0  0  0  0  0  0  0  0  0
   57.9975   31.5148   44.5107 H   0  0  0  0  0  0  0  0  0  0  0  0
   58.4687   30.7003   43.7032 H   0  0  0  0  0  0  0  0  0  0  0  0
   60.7617   29.8018   44.0813 H   0  0  0  0  0  0  0  0  0  0  0  0
   61.0947   27.7582   45.4674 H   0  0  0  0  0  0  0  0  0  0  0  0
   57.2438   25.9236   44.2042 H   0  0  0  0  0  0  0  0  0  0  0  0
   56.4618   24.5034   42.3087 H   0  0  0  0  0  0  0  0  0  0  0  0
   56.2190   22.1010   41.4670 H   0  0  0  0  0  0  0  0  0  0  0  0
   56.5072   21.0287   44.8878 H   0  0  0  0  0  0  0  0  0  0  0  0
   57.2719   22.4476   46.7889 H   0  0  0  0  0  0  0  0  0  0  0  0
   56.8155   27.4455   46.0408 H   0  0  0  0  0  0  0  0  0  0  0  0
   58.7135   35.3117   45.5940 H   0  0  0  0  0  0  0  0  0  0  0  0
   61.1229   35.4567   46.2184 H   0  0  0  0  0  0  0  0  0  0  0  0
  1  2  1  0
  2  3  2  0
  2  4  2  0
  2  5  1  0
  5  6  2  0
  6  7  1  0
  7  8  2  0
  8  9  1  0
  9 10  1  0
 10 11  1  0
 11 12  1  0
 12 13  2  0
 12 14  1  0
 14 15  2  0
 15 16  1  0
 16 17  2  0
 17 18  1  0
 18 19  1  0
 19 20  2  0
 19 21  2  0
 19 22  1  0
 22 23  1  0
 23 24  2  0
 24 25  1  0
 25 26  2  0
 26 27  1  0
 26 28  1  0
 28 29  2  0
 18 30  2  0
  8 31  1  0
 31 32  2  0
 32  5  1  0
 30 14  1  0
 29 23  1  0
  1 33  1  0
  6 34  1  0
  7 35  1  0
  9 36  1  0
  9 37  1  0
 10 38  1  0
 10 39  1  0
 15 40  1  0
 16 41  1  0
 17 42  1  0
 24 43  1  0
 25 44  1  0
 27 45  1  0
 28 46  1  0
 29 47  1  0
 30 48  1  0
 31 49  1  0
 32 50  1  0
M  CHG  3   1  -1  11  -1  22  -1
M  END
>  <UniqueID>  (57) 
54

>  <SMILES>  (57) 
[NH-]S(=O)(=O)c1ccc(CC[N-]C(=O)c2cccc(S(=O)(=O)[N-]c3ccc(O)cc3)c2)cc1

>  <Energy>  (57) 
51.69162227612299

>  <Genealogy>  (57) 
[NH-]S(=O)(=O)c1ccc(CC[N-]C(=O)c2cccc(S(=O)(=O)[N-]c3ccc(O)cc3)c2)cc1 (protonated)
[NH-]S(=O)(=O)c1ccc(CC[N-]C(=O)c2cccc(S(=O)(=O)[N-]c3ccc(O)cc3)c2)cc1 (3D coordinates assigned)
[NH-]S(=O)(=O)c1ccc(CC[N-]C(=O)c2cccc(S(=O)(=O)[N-]c3ccc(O)cc3)c2)cc1 (optimized conformer: 51.69162227612299 kcal/mol)

>  <smiles>  (57) 
NS(=O)(=O)c1ccc(CCNC(=O)c2cccc(S(=O)(=O)Nc3ccc(O)cc3)c2)cc1

>  <score_type>  (57) 
oracle

>  <origin>  (57) 
adg

>  <m_score__min__energy>  (57) 
-14.15

>  <m_primary>  (57) 
energy

$$$$
57:0
     RDKit          3D

 49 52  0  0  0  0  0  0  0  0999 V2000
   59.2380   33.8830   46.7140 N   0  0  0  0  0  0  0  0  0  0  0  0
   58.7610   33.2490   45.8720 C   0  0  0  0  0  0  0  0  0  0  0  0
   58.1660   32.4610   44.8250 C   0  0  0  0  0  0  0  0  0  0  0  0
   58.3770   32.8040   43.4830 C   0  0  0  0  0  0  0  0  0  0  0  0
   57.7950   32.0440   42.4680 C   0  0  0  0  0  0  0  0  0  0  0  0
   57.0090   30.9330   42.7840 C   0  0  0  0  0  0  0  0  0  0  0  0
   56.8060   30.5630   44.1260 C   0  0  0  0  0  0  0  0  0  0  0  0
   55.9700   29.3830   44.4530 C   0  0  0  0  0  0  0  0  0  0  0  0
   54.7740   29.3490   44.0590 O   0  0  0  0  0  0  0  0  0  0  0  0
   56.4610   28.2930   45.2460 N   0  0  0  0  0  0  0  0  0  0  0  0
   57.7720   28.1990   45.8130 C   0  0  0  0  0  0  0  0  0  0  0  0
   58.8840   27.6830   45.1870 C   0  0  0  0  0  0  0  0  0  0  0  0
   59.9360   27.7860   46.0240 N   0  0  0  0  0  0  0  0  0  0  0  0
   59.5170   28.3750   47.1360 N   0  0  0  0  0  0  0  0  0  0  0  0
   60.3620   28.6020   48.2730 C   0  0  0  0  0  0  0  0  0  0  0  0
   60.7760   27.6140   48.9370 O   0  0  0  0  0  0  0  0  0  0  0  0
   60.7410   29.9330   48.6740 N   0  0  0  0  0  0  0  0  0  0  0  0
   61.0540   30.9600   47.6690 C   0  0  0  0  0  0  0  0  0  0  0  0
   62.3580   31.6830   48.0320 C   0  0  0  0  0  0  0  0  0  0  0  0
   62.4140   32.0180   49.4640 N   0  0  0  0  0  0  0  0  0  0  0  0
   63.6160   32.5920   50.0120 C   0  0  0  0  0  0  0  0  0  0  0  0
   64.8780   32.1240   49.6040 C   0  0  0  0  0  0  0  0  0  0  0  0
   66.0440   32.6880   50.1280 C   0  0  0  0  0  0  0  0  0  0  0  0
   65.9620   33.7270   51.0610 C   0  0  0  0  0  0  0  0  0  0  0  0
   67.1230   34.2880   51.5800 O   0  0  0  0  0  0  0  0  0  0  0  0
   64.7120   34.2020   51.4700 C   0  0  0  0  0  0  0  0  0  0  0  0
   63.5440   33.6380   50.9480 C   0  0  0  0  0  0  0  0  0  0  0  0
   61.2760   31.6920   50.3340 C   0  0  0  0  0  0  0  0  0  0  0  0
   60.8600   30.2370   50.1070 C   0  0  0  0  0  0  0  0  0  0  0  0
   58.1980   28.6420   47.0470 C   0  0  0  0  0  0  0  0  0  0  0  0
   57.3730   31.3510   45.1450 C   0  0  0  0  0  0  0  0  0  0  0  0
   59.0019   33.6730   43.2295 H   0  0  0  0  0  0  0  0  0  0  0  0
   57.9555   32.3204   41.4155 H   0  0  0  0  0  0  0  0  0  0  0  0
   56.5461   30.3440   41.9785 H   0  0  0  0  0  0  0  0  0  0  0  0
   58.9100   27.2575   44.1729 H   0  0  0  0  0  0  0  0  0  0  0  0
   61.1665   30.4818   46.6848 H   0  0  0  0  0  0  0  0  0  0  0  0
   60.2348   31.6936   47.6411 H   0  0  0  0  0  0  0  0  0  0  0  0
   63.2082   31.0302   47.7851 H   0  0  0  0  0  0  0  0  0  0  0  0
   62.4014   32.6206   47.4585 H   0  0  0  0  0  0  0  0  0  0  0  0
   64.9474   31.3093   48.8682 H   0  0  0  0  0  0  0  0  0  0  0  0
   67.0275   32.3146   49.8065 H   0  0  0  0  0  0  0  0  0  0  0  0
   64.6476   35.0198   52.2028 H   0  0  0  0  0  0  0  0  0  0  0  0
   62.5628   34.0152   51.2718 H   0  0  0  0  0  0  0  0  0  0  0  0
   61.5672   31.8302   51.3857 H   0  0  0  0  0  0  0  0  0  0  0  0
   60.4315   32.3558   50.0968 H   0  0  0  0  0  0  0  0  0  0  0  0
   61.6167   29.5743   50.5522 H   0  0  0  0  0  0  0  0  0  0  0  0
   59.8787   30.0789   50.5781 H   0  0  0  0  0  0  0  0  0  0  0  0
   57.5771   29.1240   47.8165 H   0  0  0  0  0  0  0  0  0  0  0  0
   57.1925   31.0939   46.1992 H   0  0  0  0  0  0  0  0  0  0  0  0
  1  2  3  0
  2  3  1  0
  3  4  2  0
  4  5  1  0
  5  6  2  0
  6  7  1  0
  7  8  1  0
  8  9  2  0
  8 10  1  0
 10 11  1  0
 11 12  1  0
 12 13  2  0
 13 14  1  0
 14 15  1  0
 15 16  2  0
 15 17  1  0
 17 18  1  0
 18 19  1  0
 19 20  1  0
 20 21  1  0
 21 22  2  0
 22 23  1  0
 23 24  2  0
 24 25  1  0
 24 26  1  0
 26 27  2  0
 20 28  1  0
 28 29  1  0
 14 30  1  0
  7 31  2  0
 31  3  1  0
 30 11  2  0
 29 17  1  0
 27 21  1  0
  4 32  1  0
  5 33  1  0
  6 34  1  0
 12 35  1  0
 18 36  1  0
 18 37  1  0
 19 38  1  0
 19 39  1  0
 22 40  1  0
 23 41  1  0
 26 42  1  0
 27 43  1  0
 28 44  1  0
 28 45  1  0
 29 46  1  0
 29 47  1  0
 30 48  1  0
 31 49  1  0
M  CHG  2  10  -1  25  -1
M  END
>  <UniqueID>  (58) 
55

>  <SMILES>  (58) 
N#Cc1cccc(C(=O)[N-]c2cnn(C(=O)N3CCN(c4ccc([O-])cc4)CC3)c2)c1

>  <Energy>  (58) 
96.15016763039671

>  <Genealogy>  (58) 
N#Cc1cccc(C(=O)[N-]c2cnn(C(=O)N3CCN(c4ccc([O-])cc4)CC3)c2)c1 (protonated)
N#Cc1cccc(C(=O)[N-]c2cnn(C(=O)N3CCN(c4ccc([O-])cc4)CC3)c2)c1 (3D coordinates assigned)
N#Cc1cccc(C(=O)[N-]c2cnn(C(=O)N3CCN(c4ccc([O-])cc4)CC3)c2)c1 (nonaromatic ring conformer: 96.15016763039671 kcal/mol)

>  <smiles>  (58) 
N#Cc1cccc(C(=O)Nc2cnn(C(=O)N3CCN(c4ccc(O)cc4)CC3)c2)c1

>  <score_type>  (58) 
oracle

>  <origin>  (58) 
adg

>  <m_score__min__energy>  (58) 
-11.26

>  <m_primary>  (58) 
energy

$$$$
58:0
     RDKit          3D

 50 53  0  0  0  0  0  0  0  0999 V2000
   61.9630   33.8850   50.2960 H   0  0  0  0  0  0  0  0  0  0  0  0
   62.0030   33.0740   50.9510 N   0  0  0  0  0  0  0  0  0  0  0  0
   62.3140   31.8700   50.5810 C   0  0  0  0  0  0  0  0  0  0  0  0
   61.3070   30.9810   49.9550 C   0  0  0  0  0  0  0  0  0  0  0  0
   60.9330   30.9910   48.6230 C   0  0  0  0  0  0  0  0  0  0  0  0
   61.3626   31.6083   47.8202 H   0  0  0  0  0  0  0  0  0  0  0  0
   59.9110   30.0690   48.5050 C   0  0  0  0  0  0  0  0  0  0  0  0
   59.1910   29.7540   47.2590 C   0  0  0  0  0  0  0  0  0  0  0  0
   59.5530   28.7640   46.5700 O   0  0  0  0  0  0  0  0  0  0  0  0
   58.0740   30.5360   46.8210 N   0  0  0  0  0  0  0  0  0  0  0  0
   57.9800   31.2070   45.5530 C   0  0  0  0  0  0  0  0  0  0  0  0
   58.6220   32.4570   45.3470 C   0  0  0  0  0  0  0  0  0  0  0  0
   59.5170   33.0490   46.3720 C   0  0  0  0  0  0  0  0  0  0  0  0
   59.0920   33.1560   47.5530 O   0  0  0  0  0  0  0  0  0  0  0  0
   60.8650   33.4630   46.0930 N   0  0  0  0  0  0  0  0  0  0  0  0
   61.8250   33.6750   46.9460 C   0  0  0  0  0  0  0  0  0  0  0  0
   61.6690   34.2020   48.1740 N   0  0  0  0  0  0  0  0  0  0  0  0
   62.8510   34.2130   48.7180 O   0  0  0  0  0  0  0  0  0  0  0  0
   63.7580   33.7160   47.9070 C   0  0  0  0  0  0  0  0  0  0  0  0
   64.8303   33.6132   48.1297 H   0  0  0  0  0  0  0  0  0  0  0  0
   63.1420   33.3450   46.7310 C   0  0  0  0  0  0  0  0  0  0  0  0
   63.5951   32.8936   45.8361 H   0  0  0  0  0  0  0  0  0  0  0  0
   58.5100   33.0960   44.1040 C   0  0  0  0  0  0  0  0  0  0  0  0
   59.0215   34.0553   43.9363 H   0  0  0  0  0  0  0  0  0  0  0  0
   57.7580   32.5280   43.0810 C   0  0  0  0  0  0  0  0  0  0  0  0
   57.6566   33.0518   42.1191 H   0  0  0  0  0  0  0  0  0  0  0  0
   57.1330   31.2980   43.2710 C   0  0  0  0  0  0  0  0  0  0  0  0
   56.5427   30.8578   42.4538 H   0  0  0  0  0  0  0  0  0  0  0  0
   57.2460   30.6100   44.4940 C   0  0  0  0  0  0  0  0  0  0  0  0
   56.5630   29.2940   44.6350 C   0  0  0  0  0  0  0  0  0  0  0  0
   57.2450   28.2340   44.6930 O   0  0  0  0  0  0  0  0  0  0  0  0
   55.1430   29.1990   44.7290 N   0  0  0  0  0  0  0  0  0  0  0  0
   54.6520   29.3810   45.6320 H   0  0  0  0  0  0  0  0  0  0  0  0
   59.6640   29.4880   49.6940 N   0  0  0  0  0  0  0  0  0  0  0  0
   58.9600   28.7430   49.8970 H   0  0  0  0  0  0  0  0  0  0  0  0
   60.5120   30.0330   50.5830 C   0  0  0  0  0  0  0  0  0  0  0  0
   60.5675   29.7672   51.6490 H   0  0  0  0  0  0  0  0  0  0  0  0
   63.6470   31.3790   50.8070 N   0  0  0  0  0  0  0  0  0  0  0  0
   63.7710   30.3550   50.9760 H   0  0  0  0  0  0  0  0  0  0  0  0
   64.8090   32.2210   50.8950 C   0  0  0  0  0  0  0  0  0  0  0  0
   65.9570   31.9730   50.1160 C   0  0  0  0  0  0  0  0  0  0  0  0
   65.9657   31.1332   49.4056 H   0  0  0  0  0  0  0  0  0  0  0  0
   67.0840   32.7890   50.2420 C   0  0  0  0  0  0  0  0  0  0  0  0
   67.9737   32.5955   49.6248 H   0  0  0  0  0  0  0  0  0  0  0  0
   67.0830   33.8510   51.1510 C   0  0  0  0  0  0  0  0  0  0  0  0
   67.9687   34.4968   51.2434 H   0  0  0  0  0  0  0  0  0  0  0  0
   65.9570   34.0920   51.9420 C   0  0  0  0  0  0  0  0  0  0  0  0
   65.9589   34.9240   52.6616 H   0  0  0  0  0  0  0  0  0  0  0  0
   64.8280   33.2770   51.8200 C   0  0  0  0  0  0  0  0  0  0  0  0
   63.9482   33.4643   52.4532 H   0  0  0  0  0  0  0  0  0  0  0  0
  1  2  1  0
  2  3  2  0
  3  4  1  0
  4  5  1  0
  5  6  1  0
  5  7  2  0
  7  8  1  0
  8  9  2  0
  8 10  1  0
 10 11  1  0
 11 12  1  0
 12 13  1  0
 13 14  2  0
 13 15  1  0
 15 16  2  3
 16 17  1  0
 17 18  1  0
 18 19  1  0
 19 20  1  0
 19 21  2  0
 21 22  1  0
 12 23  2  0
 23 24  1  0
 23 25  1  0
 25 26  1  0
 25 27  2  0
 27 28  1  0
 27 29  1  0
 29 30  1  0
 30 31  2  0
 30 32  1  0
 32 33  1  0
  7 34  1  0
 34 35  1  0
 34 36  1  0
 36 37  1  0
  3 38  1  0
 38 39  1  0
 38 40  1  0
 40 41  2  0
 41 42  1  0
 41 43  1  0
 43 44  1  0
 43 45  2  0
 45 46  1  0
 45 47  1  0
 47 48  1  0
 47 49  2  0
 49 50  1  0
 36  4  2  0
 49 40  1  0
 29 11  2  0
 21 16  1  0
M  CHG  3  10  -1  17  -1  32  -1
M  END
>  <UniqueID>  (59) 
56

>  <SMILES>  (59) 
[H]/N=C(/Nc1ccccc1)c1c[nH]c(C(=O)[N-]c2c(C([NH-])=O)cccc2C(=O)N=c2cco[n-]2)c1

>  <Energy>  (59) 
131.9816632285222

>  <Genealogy>  (59) 
N=C(Nc1ccccc1)c1c[nH]c(C(=O)[N-]c2c(C([NH-])=O)cccc2C(=O)N=c2cco[n-]2)c1 (protonated)
[H]/N=C(/Nc1ccccc1)c1c[nH]c(C(=O)[N-]c2c(C([NH-])=O)cccc2C(=O)N=c2cco[n-]2)c1 (cis-trans isomerization)
[H]/N=C(/Nc1ccccc1)c1c[nH]c(C(=O)[N-]c2c(C([NH-])=O)cccc2C(=O)N=c2cco[n-]2)c1 (3D coordinates assigned)
[H]/N=C(/Nc1ccccc1)c1c[nH]c(C(=O)[N-]c2c(C([NH-])=O)cccc2C(=O)N=c2cco[n-]2)c1 (optimized conformer: 131.9816632285222 kcal/mol)

>  <smiles>  (59) 
N=C(Nc1ccccc1)c1c[nH]c(C(=O)Nc2c(C(N)=O)cccc2C(=O)N=c2cco[nH]2)c1

>  <score_type>  (59) 
oracle

>  <origin>  (59) 
adg

>  <m_score__min__energy>  (59) 
-13.800000000000001

>  <m_primary>  (59) 
energy

$$$$
59:0
     RDKit          3D

 39 41  0  0  0  0  0  0  0  0999 V2000
   53.1910   23.2290   45.0800 N   0  0  0  0  0  0  0  0  0  0  0  0
   54.6450   23.7970   45.8190 S   0  0  0  0  0  0  0  0  0  0  0  0
   54.7620   25.2850   45.6320 O   0  0  0  0  0  0  0  0  0  0  0  0
   54.5920   23.5090   47.2930 O   0  0  0  0  0  0  0  0  0  0  0  0
   56.0400   22.9790   45.0950 C   0  0  0  0  0  0  0  0  0  0  0  0
   55.8680   21.6810   44.5860 C   0  0  0  0  0  0  0  0  0  0  0  0
   56.9490   20.9810   44.0470 C   0  0  0  0  0  0  0  0  0  0  0  0
   58.2140   21.5660   44.0110 C   0  0  0  0  0  0  0  0  0  0  0  0
   58.4010   22.8580   44.5030 C   0  0  0  0  0  0  0  0  0  0  0  0
   57.3210   23.5820   45.0360 C   0  0  0  0  0  0  0  0  0  0  0  0
   57.5670   24.9560   45.5150 C   0  0  0  0  0  0  0  0  0  0  0  0
   57.7900   25.9910   44.5960 C   0  0  0  0  0  0  0  0  0  0  0  0
   58.0160   27.2960   45.0460 C   0  0  0  0  0  0  0  0  0  0  0  0
   58.0020   27.5880   46.4200 C   0  0  0  0  0  0  0  0  0  0  0  0
   58.2420   28.9740   46.8870 C   0  0  0  0  0  0  0  0  0  0  0  0
   59.0840   29.1790   47.8020 O   0  0  0  0  0  0  0  0  0  0  0  0
   57.5080   30.0900   46.3670 N   0  0  0  0  0  0  0  0  0  0  0  0
   57.2390   30.3580   44.9820 C   0  0  0  0  0  0  0  0  0  0  0  0
   58.0620   31.2130   44.2260 C   0  0  0  0  0  0  0  0  0  0  0  0
   57.7690   31.4680   42.8840 C   0  0  0  0  0  0  0  0  0  0  0  0
   56.6450   30.8870   42.2890 C   0  0  0  0  0  0  0  0  0  0  0  0
   55.8090   30.0570   43.0410 C   0  0  0  0  0  0  0  0  0  0  0  0
   56.1010   29.7950   44.3850 C   0  0  0  0  0  0  0  0  0  0  0  0
   55.2580   28.9700   45.1220 O   0  0  0  0  0  0  0  0  0  0  0  0
   57.7790   26.5460   47.3370 C   0  0  0  0  0  0  0  0  0  0  0  0
   57.5540   25.2420   46.8870 C   0  0  0  0  0  0  0  0  0  0  0  0
   53.1270   22.2060   45.2770 H   0  0  0  0  0  0  0  0  0  0  0  0
   54.8732   21.2122   44.6123 H   0  0  0  0  0  0  0  0  0  0  0  0
   56.8023   19.9657   43.6499 H   0  0  0  0  0  0  0  0  0  0  0  0
   59.0656   21.0082   43.5942 H   0  0  0  0  0  0  0  0  0  0  0  0
   59.4018   23.3136   44.4735 H   0  0  0  0  0  0  0  0  0  0  0  0
   57.7872   25.7761   43.5172 H   0  0  0  0  0  0  0  0  0  0  0  0
   58.2060   28.0992   44.3189 H   0  0  0  0  0  0  0  0  0  0  0  0
   58.9399   31.6827   44.6937 H   0  0  0  0  0  0  0  0  0  0  0  0
   58.4236   32.1269   42.2946 H   0  0  0  0  0  0  0  0  0  0  0  0
   56.4190   31.0829   41.2304 H   0  0  0  0  0  0  0  0  0  0  0  0
   54.9190   29.6083   42.5756 H   0  0  0  0  0  0  0  0  0  0  0  0
   57.7816   26.7585   48.4163 H   0  0  0  0  0  0  0  0  0  0  0  0
   57.3660   24.4369   47.6126 H   0  0  0  0  0  0  0  0  0  0  0  0
  1  2  1  0
  2  3  2  0
  2  4  2  0
  2  5  1  0
  5  6  2  0
  6  7  1  0
  7  8  2  0
  8  9  1  0
  9 10  2  0
 10 11  1  0
 11 12  2  0
 12 13  1  0
 13 14  2  0
 14 15  1  0
 15 16  2  0
 15 17  1  0
 17 18  1  0
 18 19  2  0
 19 20  1  0
 20 21  2  0
 21 22  1  0
 22 23  2  0
 23 24  1  0
 14 25  1  0
 25 26  2  0
 10  5  1  0
 26 11  1  0
 23 18  1  0
  1 27  1  0
  6 28  1  0
  7 29  1  0
  8 30  1  0
  9 31  1  0
 12 32  1  0
 13 33  1  0
 19 34  1  0
 20 35  1  0
 21 36  1  0
 22 37  1  0
 25 38  1  0
 26 39  1  0
M  CHG  3   1  -1  17  -1  24  -1
M  END
>  <UniqueID>  (60) 
57

>  <SMILES>  (60) 
[NH-]S(=O)(=O)c1ccccc1-c1ccc(C(=O)[N-]c2ccccc2[O-])cc1

>  <Energy>  (60) 
57.48611539562631

>  <Genealogy>  (60) 
[NH-]S(=O)(=O)c1ccccc1-c1ccc(C(=O)[N-]c2ccccc2[O-])cc1 (protonated)
[NH-]S(=O)(=O)c1ccccc1-c1ccc(C(=O)[N-]c2ccccc2[O-])cc1 (3D coordinates assigned)
[NH-]S(=O)(=O)c1ccccc1-c1ccc(C(=O)[N-]c2ccccc2[O-])cc1 (optimized conformer: 57.48611539562631 kcal/mol)

>  <smiles>  (60) 
NS(=O)(=O)c1ccccc1-c1ccc(C(=O)Nc2ccccc2O)cc1

>  <score_type>  (60) 
oracle

>  <origin>  (60) 
adg

>  <m_score__min__energy>  (60) 
-15.050000000000001

>  <m_primary>  (60) 
energy

$$$$
60:0
     RDKit          3D

 66 69  0  0  0  0  0  0  0  0999 V2000
   60.0210   27.0290   47.1200 O   0  0  0  0  0  0  0  0  0  0  0  0
   58.8140   27.2930   47.3810 C   0  0  0  0  0  0  0  0  0  0  0  0
   58.3970   28.7150   47.6230 C   0  0  0  0  0  0  0  0  0  0  0  0
   59.4970   29.4870   48.2460 N   0  0  0  0  0  0  0  0  0  0  0  0
   60.5690   29.9150   47.4860 C   0  0  0  0  0  0  0  0  0  0  0  0
   60.7070   29.5570   46.1390 O   0  0  0  0  0  0  0  0  0  0  0  0
   61.5670   30.7300   48.0620 C   0  0  0  0  0  0  0  0  0  0  0  0
   62.6730   31.2270   47.2930 N   0  0  0  0  0  0  0  0  0  0  0  0
   63.5390   32.3170   47.7470 C   0  0  0  0  0  0  0  0  0  0  0  0
   63.1380   33.6390   47.0870 C   0  0  0  0  0  0  0  0  0  0  0  0
   61.6610   33.9020   47.2260 C   0  0  0  0  0  0  0  0  0  0  0  0
   61.1000   34.1580   48.4880 C   0  0  0  0  0  0  0  0  0  0  0  0
   59.7310   34.4120   48.6120 C   0  0  0  0  0  0  0  0  0  0  0  0
   58.9110   34.4110   47.4790 C   0  0  0  0  0  0  0  0  0  0  0  0
   59.4590   34.1350   46.2230 C   0  0  0  0  0  0  0  0  0  0  0  0
   60.8270   33.8750   46.0950 C   0  0  0  0  0  0  0  0  0  0  0  0
   61.4910   31.0440   49.4160 C   0  0  0  0  0  0  0  0  0  0  0  0
   60.4130   30.6060   50.1730 C   0  0  0  0  0  0  0  0  0  0  0  0
   59.4090   29.8430   49.5740 C   0  0  0  0  0  0  0  0  0  0  0  0
   58.4200   29.4930   50.2770 O   0  0  0  0  0  0  0  0  0  0  0  0
   57.8520   26.2410   47.5030 N   0  0  0  0  0  0  0  0  0  0  0  0
   57.0560   25.6920   46.4070 C   0  0  2  0  0  0  0  0  0  0  0  0
   57.9950   25.3380   45.2360 C   0  0  0  0  0  0  0  0  0  0  0  0
   57.6240   24.0380   44.5580 C   0  0  0  0  0  0  0  0  0  0  0  0
   56.5850   24.0020   43.6160 C   0  0  0  0  0  0  0  0  0  0  0  0
   56.2680   22.8070   42.9590 C   0  0  0  0  0  0  0  0  0  0  0  0
   56.9820   21.6390   43.2430 C   0  0  0  0  0  0  0  0  0  0  0  0
   58.0070   21.6630   44.1900 C   0  0  0  0  0  0  0  0  0  0  0  0
   58.3270   22.8570   44.8480 C   0  0  0  0  0  0  0  0  0  0  0  0
   55.9650   26.6550   45.9960 C   0  0  0  0  0  0  0  0  0  0  0  0
   54.7600   26.2830   45.9860 O   0  0  0  0  0  0  0  0  0  0  0  0
   56.3060   27.9790   45.5700 N   0  0  0  0  0  0  0  0  0  0  0  0
   57.3240   28.2780   44.5650 C   0  0  0  0  0  0  0  0  0  0  0  0
   57.3860   29.7490   44.2940 C   0  0  0  0  0  0  0  0  0  0  0  0
   57.1080   30.3730   43.0800 C   0  0  0  0  0  0  0  0  0  0  0  0
   57.3430   31.7550   43.1020 C   0  0  0  0  0  0  0  0  0  0  0  0
   57.7890   32.2240   44.3380 C   0  0  0  0  0  0  0  0  0  0  0  0
   57.9110   30.9160   45.3900 S   0  0  0  0  0  0  0  0  0  0  0  0
   58.1284   29.1804   46.6632 H   0  0  0  0  0  0  0  0  0  0  0  0
   57.5339   28.7181   48.3049 H   0  0  0  0  0  0  0  0  0  0  0  0
   60.5210   28.6330   45.7690 H   0  0  0  0  0  0  0  0  0  0  0  0
   62.9490   30.7020   46.4340 H   0  0  0  0  0  0  0  0  0  0  0  0
   63.4506   32.4173   48.8388 H   0  0  0  0  0  0  0  0  0  0  0  0
   64.5769   32.0833   47.4675 H   0  0  0  0  0  0  0  0  0  0  0  0
   63.6933   34.4595   47.5648 H   0  0  0  0  0  0  0  0  0  0  0  0
   63.3770   33.5752   46.0152 H   0  0  0  0  0  0  0  0  0  0  0  0
   61.7405   34.1586   49.3823 H   0  0  0  0  0  0  0  0  0  0  0  0
   59.2977   34.6131   49.6029 H   0  0  0  0  0  0  0  0  0  0  0  0
   57.8368   34.6270   47.5761 H   0  0  0  0  0  0  0  0  0  0  0  0
   58.8125   34.1223   45.3331 H   0  0  0  0  0  0  0  0  0  0  0  0
   61.2518   33.6486   45.1059 H   0  0  0  0  0  0  0  0  0  0  0  0
   62.2865   31.6402   49.8869 H   0  0  0  0  0  0  0  0  0  0  0  0
   60.3500   30.8593   51.2416 H   0  0  0  0  0  0  0  0  0  0  0  0
   56.5491   24.7733   46.7370 H   0  0  0  0  0  0  0  0  0  0  0  0
   57.9496   26.1473   44.4924 H   0  0  0  0  0  0  0  0  0  0  0  0
   59.0076   25.2184   45.6487 H   0  0  0  0  0  0  0  0  0  0  0  0
   56.0167   24.9170   43.3925 H   0  0  0  0  0  0  0  0  0  0  0  0
   55.4555   22.7870   42.2178 H   0  0  0  0  0  0  0  0  0  0  0  0
   56.7363   20.7025   42.7209 H   0  0  0  0  0  0  0  0  0  0  0  0
   58.5642   20.7428   44.4198 H   0  0  0  0  0  0  0  0  0  0  0  0
   59.1333   22.8701   45.5961 H   0  0  0  0  0  0  0  0  0  0  0  0
   58.3036   27.9369   44.9311 H   0  0  0  0  0  0  0  0  0  0  0  0
   57.0623   27.7578   43.6318 H   0  0  0  0  0  0  0  0  0  0  0  0
   56.7410   29.8355   42.1932 H   0  0  0  0  0  0  0  0  0  0  0  0
   57.1905   32.4066   42.2290 H   0  0  0  0  0  0  0  0  0  0  0  0
   58.0214   33.2708   44.5832 H   0  0  0  0  0  0  0  0  0  0  0  0
  1  2  2  0
  2  3  1  0
  3  4  1  0
  4  5  1  0
  5  6  1  0
  5  7  2  0
  7  8  1  0
  8  9  1  0
  9 10  1  0
 10 11  1  0
 11 12  2  0
 12 13  1  0
 13 14  2  0
 14 15  1  0
 15 16  2  0
  7 17  1  0
 17 18  2  0
 18 19  1  0
 19 20  2  0
  2 21  1  0
 21 22  1  0
 22 23  1  0
 23 24  1  0
 24 25  2  0
 25 26  1  0
 26 27  2  0
 27 28  1  0
 28 29  2  0
 22 30  1  0
 30 31  2  0
 30 32  1  0
 32 33  1  0
 33 34  1  0
 34 35  2  0
 35 36  1  0
 36 37  2  0
 37 38  1  0
 19  4  1  0
 29 24  1  0
 38 34  1  0
 16 11  1  0
  3 39  1  0
  3 40  1  0
  6 41  1  0
  8 42  1  0
  9 43  1  0
  9 44  1  0
 10 45  1  0
 10 46  1  0
 12 47  1  0
 13 48  1  0
 14 49  1  0
 15 50  1  0
 16 51  1  0
 17 52  1  0
 18 53  1  0
 22 54  1  1
 23 55  1  0
 23 56  1  0
 25 57  1  0
 26 58  1  0
 27 59  1  0
 28 60  1  0
 29 61  1  0
 33 62  1  0
 33 63  1  0
 35 64  1  0
 36 65  1  0
 37 66  1  0
M  CHG  2  21  -1  32  -1
M  END
>  <UniqueID>  (61) 
58

>  <SMILES>  (61) 
O=C(Cn1c(O)c(NCCc2ccccc2)ccc1=O)[N-][C@H](Cc1ccccc1)C(=O)[N-]Cc1cccs1

>  <Energy>  (61) 
86.22674182518682

>  <Genealogy>  (61) 
O=C(Cn1c(O)c(NCCc2ccccc2)ccc1=O)[N-]C(Cc1ccccc1)C(=O)[N-]Cc1cccs1 (protonated)
O=C(Cn1c(O)c(NCCc2ccccc2)ccc1=O)[N-][C@H](Cc1ccccc1)C(=O)[N-]Cc1cccs1 (chirality)
O=C(Cn1c(O)c(NCCc2ccccc2)ccc1=O)[N-][C@H](Cc1ccccc1)C(=O)[N-]Cc1cccs1 (3D coordinates assigned)
O=C(Cn1c(O)c(NCCc2ccccc2)ccc1=O)[N-][C@H](Cc1ccccc1)C(=O)[N-]Cc1cccs1 (optimized conformer: 86.22674182518682 kcal/mol)

>  <smiles>  (61) 
O=C(Cn1c(O)c(NCCc2ccccc2)ccc1=O)NC(Cc1ccccc1)C(=O)NCc1cccs1

>  <score_type>  (61) 
oracle

>  <origin>  (61) 
adg

>  <m_score__min__energy>  (61) 
-14.039999999999999

>  <m_primary>  (61) 
energy

$$$$
61:0
     RDKit          3D

 43 45  0  0  0  0  0  0  0  0999 V2000
   57.4880   34.5600   45.8980 O   0  0  0  0  0  0  0  0  0  0  0  0
   58.6680   34.1200   45.9120 C   0  0  0  0  0  0  0  0  0  0  0  0
   59.5540   34.5490   46.9520 N   0  0  0  0  0  0  0  0  0  0  0  0
   60.7560   33.8840   47.3640 C   0  0  0  0  0  0  0  0  0  0  0  0
   61.9990   34.1950   46.7820 C   0  0  0  0  0  0  0  0  0  0  0  0
   63.1530   33.5140   47.1760 C   0  0  0  0  0  0  0  0  0  0  0  0
   63.0760   32.5040   48.1370 C   0  0  0  0  0  0  0  0  0  0  0  0
   61.8430   32.1680   48.7010 C   0  0  0  0  0  0  0  0  0  0  0  0
   60.6830   32.8470   48.3110 C   0  0  0  0  0  0  0  0  0  0  0  0
   59.0090   32.3550   49.1030 Br  0  0  0  0  0  0  0  0  0  0  0  0
   59.1270   33.2540   44.8600 N   0  0  0  0  0  0  0  0  0  0  0  0
   58.2360   32.7460   43.8200 C   0  0  0  0  0  0  0  0  0  0  0  0
   57.6030   31.4550   44.2640 C   0  0  0  0  0  0  0  0  0  0  0  0
   56.6740   30.7950   43.4470 C   0  0  0  0  0  0  0  0  0  0  0  0
   56.1050   29.5850   43.8570 C   0  0  0  0  0  0  0  0  0  0  0  0
   56.4720   29.0100   45.0880 C   0  0  0  0  0  0  0  0  0  0  0  0
   55.8970   27.7830   45.5580 N   0  0  0  0  0  0  0  0  0  0  0  0
   56.5960   26.6810   46.1530 C   0  0  0  0  0  0  0  0  0  0  0  0
   56.0050   25.5820   46.3350 O   0  0  0  0  0  0  0  0  0  0  0  0
   58.0300   26.8150   46.5050 C   0  0  0  0  0  0  0  0  0  0  0  0
   58.4200   27.4720   47.6860 C   0  0  0  0  0  0  0  0  0  0  0  0
   59.7740   27.5940   48.0150 C   0  0  0  0  0  0  0  0  0  0  0  0
   60.7510   27.0600   47.1720 C   0  0  0  0  0  0  0  0  0  0  0  0
   60.3770   26.4040   45.9970 C   0  0  0  0  0  0  0  0  0  0  0  0
   59.0250   26.2810   45.6630 C   0  0  0  0  0  0  0  0  0  0  0  0
   57.3830   29.6830   45.9110 C   0  0  0  0  0  0  0  0  0  0  0  0
   57.9540   30.8920   45.5000 C   0  0  0  0  0  0  0  0  0  0  0  0
   62.0620   34.9787   46.0126 H   0  0  0  0  0  0  0  0  0  0  0  0
   64.1238   33.7737   46.7286 H   0  0  0  0  0  0  0  0  0  0  0  0
   63.9868   31.9726   48.4501 H   0  0  0  0  0  0  0  0  0  0  0  0
   61.7836   31.3678   49.4535 H   0  0  0  0  0  0  0  0  0  0  0  0
   60.1430   33.0210   44.7950 H   0  0  0  0  0  0  0  0  0  0  0  0
   57.4483   33.4878   43.6220 H   0  0  0  0  0  0  0  0  0  0  0  0
   58.8188   32.5643   42.9049 H   0  0  0  0  0  0  0  0  0  0  0  0
   56.3910   31.2315   42.4778 H   0  0  0  0  0  0  0  0  0  0  0  0
   55.3678   29.0808   43.2149 H   0  0  0  0  0  0  0  0  0  0  0  0
   57.6551   27.8926   48.3553 H   0  0  0  0  0  0  0  0  0  0  0  0
   60.0698   28.1115   48.9395 H   0  0  0  0  0  0  0  0  0  0  0  0
   61.8152   27.1560   47.4334 H   0  0  0  0  0  0  0  0  0  0  0  0
   61.1472   25.9836   45.3336 H   0  0  0  0  0  0  0  0  0  0  0  0
   58.7363   25.7636   44.7362 H   0  0  0  0  0  0  0  0  0  0  0  0
   57.6520   29.2574   46.8890 H   0  0  0  0  0  0  0  0  0  0  0  0
   58.6809   31.4031   46.1484 H   0  0  0  0  0  0  0  0  0  0  0  0
  1  2  2  0
  2  3  1  0
  3  4  1  0
  4  5  2  0
  5  6  1  0
  6  7  2  0
  7  8  1  0
  8  9  2  0
  9 10  1  0
  2 11  1  0
 11 12  1  0
 12 13  1  0
 13 14  2  0
 14 15  1  0
 15 16  2  0
 16 17  1  0
 17 18  1  0
 18 19  2  0
 18 20  1  0
 20 21  2  0
 21 22  1  0
 22 23  2  0
 23 24  1  0
 24 25  2  0
 16 26  1  0
 26 27  2  0
  9  4  1  0
 27 13  1  0
 25 20  1  0
  5 28  1  0
  6 29  1  0
  7 30  1  0
  8 31  1  0
 11 32  1  0
 12 33  1  0
 12 34  1  0
 14 35  1  0
 15 36  1  0
 21 37  1  0
 22 38  1  0
 23 39  1  0
 24 40  1  0
 25 41  1  0
 26 42  1  0
 27 43  1  0
M  CHG  2   3  -1  17  -1
M  END
>  <UniqueID>  (62) 
59

>  <SMILES>  (62) 
O=C([N-]c1ccccc1Br)NCc1ccc([N-]C(=O)c2ccccc2)cc1

>  <Energy>  (62) 
52.26561872058946

>  <Genealogy>  (62) 
O=C([N-]c1ccccc1Br)NCc1ccc([N-]C(=O)c2ccccc2)cc1 (protonated)
O=C([N-]c1ccccc1Br)NCc1ccc([N-]C(=O)c2ccccc2)cc1 (3D coordinates assigned)
O=C([N-]c1ccccc1Br)NCc1ccc([N-]C(=O)c2ccccc2)cc1 (optimized conformer: 52.26561872058946 kcal/mol)

>  <smiles>  (62) 
O=C(NCc1ccc(NC(=O)c2ccccc2)cc1)Nc1ccccc1Br

>  <score_type>  (62) 
oracle

>  <origin>  (62) 
adg

>  <m_score__min__energy>  (62) 
-11.640000000000001

>  <m_primary>  (62) 
energy

$$$$
62:0
     RDKit          3D

 47 50  0  0  0  0  0  0  0  0999 V2000
   55.6147   30.7496   43.2523 H   0  0  0  0  0  0  0  0  0  0  0  0
   56.4800   30.5080   43.8870 C   0  0  0  0  0  0  0  0  0  0  0  0
   56.6670   29.1200   44.8190 S   0  0  0  0  0  0  0  0  0  0  0  0
   58.1700   29.6010   45.4180 C   0  0  0  0  0  0  0  0  0  0  0  0
   58.9290   28.9190   46.2250 N   0  0  0  0  0  0  0  0  0  0  0  0
   59.2610   29.2860   47.5710 C   0  0  0  0  0  0  0  0  0  0  0  0
   58.5990   28.7820   48.5150 O   0  0  0  0  0  0  0  0  0  0  0  0
   60.4170   30.1610   47.8720 C   0  0  0  0  0  0  0  0  0  0  0  0
   61.2340   30.7590   46.9300 C   0  0  0  0  0  0  0  0  0  0  0  0
   61.1595   30.6976   45.8342 H   0  0  0  0  0  0  0  0  0  0  0  0
   62.1650   31.4510   47.6800 C   0  0  0  0  0  0  0  0  0  0  0  0
   63.3140   32.2410   47.1340 C   0  0  0  0  0  0  0  0  0  0  0  0
   63.8333   31.3916   46.6663 H   0  0  0  0  0  0  0  0  0  0  0  0
   63.7340   33.4220   47.9950 C   0  0  0  0  0  0  0  0  0  0  0  0
   63.2478   33.5947   48.9665 H   0  0  0  0  0  0  0  0  0  0  0  0
   64.6875   33.7832   48.4078 H   0  0  0  0  0  0  0  0  0  0  0  0
   62.9630   33.6580   46.7070 C   0  0  0  0  0  0  0  0  0  0  0  0
   61.9187   34.0015   46.7462 H   0  0  0  0  0  0  0  0  0  0  0  0
   63.1273   34.2606   45.8015 H   0  0  0  0  0  0  0  0  0  0  0  0
   61.9410   31.2590   48.9940 N   0  0  0  0  0  0  0  0  0  0  0  0
   60.8750   30.4820   49.1040 N   0  0  0  0  0  0  0  0  0  0  0  0
   60.3240   30.0610   50.3870 C   0  0  0  0  0  0  0  0  0  0  0  0
   60.9104   30.5091   51.2027 H   0  0  0  0  0  0  0  0  0  0  0  0
   59.2777   30.3919   50.4630 H   0  0  0  0  0  0  0  0  0  0  0  0
   60.3683   28.9645   50.4630 H   0  0  0  0  0  0  0  0  0  0  0  0
   58.5490   30.7930   44.9130 N   0  0  0  0  0  0  0  0  0  0  0  0
   57.6140   31.2970   44.0610 C   0  0  0  0  0  0  0  0  0  0  0  0
   57.7800   32.6410   43.4160 C   0  0  0  0  0  0  0  0  0  0  0  0
   58.0375   32.5043   42.3553 H   0  0  0  0  0  0  0  0  0  0  0  0
   56.8365   33.1990   43.5080 H   0  0  0  0  0  0  0  0  0  0  0  0
   58.8500   33.4020   44.0800 N   0  0  0  0  0  0  0  0  0  0  0  0
   59.4040   33.9120   43.3520 H   0  0  0  0  0  0  0  0  0  0  0  0
   59.4950   32.7460   44.5830 H   0  0  0  0  0  0  0  0  0  0  0  0
   58.3160   34.3990   45.0230 C   0  0  0  0  0  0  0  0  0  0  0  0
   58.7189   35.3883   44.7605 H   0  0  0  0  0  0  0  0  0  0  0  0
   57.2186   34.3851   44.9484 H   0  0  0  0  0  0  0  0  0  0  0  0
   58.6920   34.0820   46.4510 C   0  0  0  0  0  0  0  0  0  0  0  0
   58.0830   33.0120   47.1280 C   0  0  0  0  0  0  0  0  0  0  0  0
   57.3138   32.4102   46.6219 H   0  0  0  0  0  0  0  0  0  0  0  0
   58.4510   32.7090   48.4430 C   0  0  0  0  0  0  0  0  0  0  0  0
   57.9694   31.8717   48.9693 H   0  0  0  0  0  0  0  0  0  0  0  0
   59.4300   33.4690   49.0890 C   0  0  0  0  0  0  0  0  0  0  0  0
   59.7171   33.2308   50.1238 H   0  0  0  0  0  0  0  0  0  0  0  0
   60.0440   34.5310   48.4210 C   0  0  0  0  0  0  0  0  0  0  0  0
   60.8156   35.1274   48.9298 H   0  0  0  0  0  0  0  0  0  0  0  0
   59.6790   34.8370   47.1060 C   0  0  0  0  0  0  0  0  0  0  0  0
   60.1669   35.6724   46.5825 H   0  0  0  0  0  0  0  0  0  0  0  0
  1  2  1  0
  2  3  1  0
  3  4  1  0
  4  5  2  0
  5  6  1  0
  6  7  2  0
  6  8  1  0
  8  9  2  0
  9 10  1  0
  9 11  1  0
 11 12  1  0
 12 13  1  0
 12 14  1  0
 14 15  1  0
 14 16  1  0
 14 17  1  0
 17 18  1  0
 17 19  1  0
 11 20  2  0
 20 21  1  0
 21 22  1  0
 22 23  1  0
 22 24  1  0
 22 25  1  0
  4 26  1  0
 26 27  1  0
 27 28  1  0
 28 29  1  0
 28 30  1  0
 28 31  1  0
 31 32  1  0
 31 33  1  0
 31 34  1  0
 34 35  1  0
 34 36  1  0
 34 37  1  0
 37 38  2  0
 38 39  1  0
 38 40  1  0
 40 41  1  0
 40 42  2  0
 42 43  1  0
 42 44  1  0
 44 45  1  0
 44 46  2  0
 46 47  1  0
 27  2  2  0
 46 37  1  0
 21  8  1  0
 17 12  1  0
M  CHG  2  26  -1  31   1
M  END
>  <UniqueID>  (63) 
60

>  <SMILES>  (63) 
Cn1nc(C2CC2)cc1C(=O)/N=c1/[n-]c(C[NH2+]Cc2ccccc2)cs1

>  <Energy>  (63) 
377.9028571943261

>  <Genealogy>  (63) 
Cn1nc(C2CC2)cc1C(=O)N=c1[n-]c(C[NH2+]Cc2ccccc2)cs1 (protonated)
Cn1nc(C2CC2)cc1C(=O)/N=c1/[n-]c(C[NH2+]Cc2ccccc2)cs1 (cis-trans isomerization)
Cn1nc(C2CC2)cc1C(=O)/N=c1/[n-]c(C[NH2+]Cc2ccccc2)cs1 (3D coordinates assigned)
Cn1nc(C2CC2)cc1C(=O)/N=c1/[n-]c(C[NH2+]Cc2ccccc2)cs1 (nonaromatic ring conformer: 377.9028571943261 kcal/mol)

>  <smiles>  (63) 
Cn1nc(C2CC2)cc1C(=O)N=c1[nH]c(CNCc2ccccc2)cs1

>  <score_type>  (63) 
oracle

>  <origin>  (63) 
adg

>  <m_score__min__energy>  (63) 
-8.3900000000000006

>  <m_primary>  (63) 
energy

$$$$
63:0
     RDKit          3D

 44 46  0  0  0  0  0  0  0  0999 V2000
   61.6151   29.8371   48.9135 H   0  0  0  0  0  0  0  0  0  0  0  0
   60.6250   29.9860   48.4580 C   0  0  0  0  0  0  0  0  0  0  0  0
   59.6070   30.3400   49.2710 C   0  0  0  0  0  0  0  0  0  0  0  0
   59.2150   29.4010   50.3840 C   0  0  0  0  0  0  0  0  0  0  0  0
   59.4146   29.8790   51.3544 H   0  0  0  0  0  0  0  0  0  0  0  0
   58.1434   29.1655   50.3047 H   0  0  0  0  0  0  0  0  0  0  0  0
   59.8011   28.4735   50.3047 H   0  0  0  0  0  0  0  0  0  0  0  0
   58.8620   31.6420   49.1000 C   0  0  0  0  0  0  0  0  0  0  0  0
   58.6227   32.0602   50.0889 H   0  0  0  0  0  0  0  0  0  0  0  0
   59.4898   32.3533   48.5433 H   0  0  0  0  0  0  0  0  0  0  0  0
   57.9307   31.4612   48.5433 H   0  0  0  0  0  0  0  0  0  0  0  0
   60.5000   29.7800   46.9670 C   0  0  0  0  0  0  0  0  0  0  0  0
   60.5276   30.7603   46.4687 H   0  0  0  0  0  0  0  0  0  0  0  0
   61.3363   29.1454   46.6386 H   0  0  0  0  0  0  0  0  0  0  0  0
   59.2060   29.0800   46.6010 C   0  0  0  0  0  0  0  0  0  0  0  0
   58.9580   27.7600   47.0260 C   0  0  0  0  0  0  0  0  0  0  0  0
   59.8940   27.0660   47.7850 O   0  0  0  0  0  0  0  0  0  0  0  0
   57.7620   27.1240   46.6870 C   0  0  0  0  0  0  0  0  0  0  0  0
   57.5831   26.0907   47.0192 H   0  0  0  0  0  0  0  0  0  0  0  0
   56.7910   27.7830   45.9320 C   0  0  0  0  0  0  0  0  0  0  0  0
   55.6170   27.1040   45.6180 O   0  0  0  0  0  0  0  0  0  0  0  0
   57.0080   29.1120   45.5070 C   0  0  0  0  0  0  0  0  0  0  0  0
   56.0690   29.8360   44.7440 C   0  0  0  0  0  0  0  0  0  0  0  0
   54.9740   29.3210   44.3880 O   0  0  0  0  0  0  0  0  0  0  0  0
   56.3530   31.1470   44.3680 C   0  0  0  0  0  0  0  0  0  0  0  0
   55.6358   31.7189   43.7609 H   0  0  0  0  0  0  0  0  0  0  0  0
   57.5610   31.7290   44.7710 C   0  0  0  0  0  0  0  0  0  0  0  0
   57.9230   33.1110   44.3980 C   0  0  0  0  0  0  0  0  0  0  0  0
   57.1468   33.7206   43.9122 H   0  0  0  0  0  0  0  0  0  0  0  0
   59.1180   33.6870   44.6010 C   0  0  0  0  0  0  0  0  0  0  0  0
   59.6758   34.0196   43.7132 H   0  0  0  0  0  0  0  0  0  0  0  0
   59.7460   33.9110   45.9210 C   0  0  0  0  0  0  0  0  0  0  0  0
   59.0120   34.4150   47.0100 C   0  0  0  0  0  0  0  0  0  0  0  0
   57.9496   34.6701   46.8830 H   0  0  0  0  0  0  0  0  0  0  0  0
   59.6260   34.5930   48.2520 C   0  0  0  0  0  0  0  0  0  0  0  0
   59.0498   35.0041   49.0940 H   0  0  0  0  0  0  0  0  0  0  0  0
   60.9690   34.2510   48.4290 C   0  0  0  0  0  0  0  0  0  0  0  0
   61.5680   34.4340   49.6690 O   0  0  0  0  0  0  0  0  0  0  0  0
   61.7000   33.7190   47.3580 C   0  0  0  0  0  0  0  0  0  0  0  0
   63.3860   33.2690   47.5650 Cl  0  0  0  0  0  0  0  0  0  0  0  0
   61.0870   33.5410   46.1130 C   0  0  0  0  0  0  0  0  0  0  0  0
   61.6592   33.1084   45.2791 H   0  0  0  0  0  0  0  0  0  0  0  0
   58.4360   31.0180   45.4730 O   0  0  0  0  0  0  0  0  0  0  0  0
   58.2200   29.7600   45.8530 C   0  0  0  0  0  0  0  0  0  0  0  0
  1  2  1  0
  2  3  2  3
  3  4  1  0
  4  5  1  0
  4  6  1  0
  4  7  1  0
  3  8  1  0
  8  9  1  0
  8 10  1  0
  8 11  1  0
  2 12  1  0
 12 13  1  0
 12 14  1  0
 12 15  1  0
 15 16  2  0
 16 17  1  0
 16 18  1  0
 18 19  1  0
 18 20  2  0
 20 21  1  0
 20 22  1  0
 22 23  1  0
 23 24  2  0
 23 25  1  0
 25 26  1  0
 25 27  2  0
 27 28  1  0
 28 29  1  0
 28 30  2  0
 30 31  1  0
 30 32  1  0
 32 33  2  0
 33 34  1  0
 33 35  1  0
 35 36  1  0
 35 37  2  0
 37 38  1  0
 37 39  1  0
 39 40  1  0
 39 41  2  0
 41 42  1  0
 27 43  1  0
 43 44  1  0
 44 15  1  0
 44 22  2  0
 41 32  1  0
M  CHG  3  17  -1  21  -1  38  -1
M  END
>  <UniqueID>  (64) 
61

>  <SMILES>  (64) 
CC(C)=CCc1c([O-])cc([O-])c2c(=O)cc(/C=C\c3ccc([O-])c(Cl)c3)oc12

>  <Energy>  (64) 
59.23320185556401

>  <Genealogy>  (64) 
CC(C)=CCc1c([O-])cc([O-])c2c(=O)cc(C=Cc3ccc([O-])c(Cl)c3)oc12 (protonated)
CC(C)=CCc1c([O-])cc([O-])c2c(=O)cc(/C=C\c3ccc([O-])c(Cl)c3)oc12 (cis-trans isomerization)
CC(C)=CCc1c([O-])cc([O-])c2c(=O)cc(/C=C\c3ccc([O-])c(Cl)c3)oc12 (3D coordinates assigned)
CC(C)=CCc1c([O-])cc([O-])c2c(=O)cc(/C=C\c3ccc([O-])c(Cl)c3)oc12 (optimized conformer: 59.23320185556401 kcal/mol)

>  <smiles>  (64) 
CC(C)=CCc1c(O)cc(O)c2c(=O)cc(C=Cc3ccc(O)c(Cl)c3)oc12

>  <score_type>  (64) 
oracle

>  <origin>  (64) 
adg

>  <m_score__min__energy>  (64) 
-13.880000000000001

>  <m_primary>  (64) 
energy

$$$$
64:0
     RDKit          3D

 16 16  0  0  0  0  0  0  0  0999 V2000
   55.1940   29.5350   44.8570 O   0  0  0  0  0  0  0  0  0  0  0  0
   56.3840   29.8960   44.9400 N   0  0  0  0  0  0  0  0  0  0  0  0
   56.9980   30.8490   44.0570 C   0  0  0  0  0  0  0  0  0  0  0  0
   56.6720   30.7530   42.6970 C   0  0  0  0  0  0  0  0  0  0  0  0
   57.2420   31.6150   41.7600 C   0  0  0  0  0  0  0  0  0  0  0  0
   58.1480   32.5890   42.1710 C   0  0  0  0  0  0  0  0  0  0  0  0
   58.4770   32.7140   43.5200 C   0  0  0  0  0  0  0  0  0  0  0  0
   57.9010   31.8660   44.4850 C   0  0  0  0  0  0  0  0  0  0  0  0
   58.2900   32.0750   45.9290 C   0  0  0  0  0  0  0  0  0  0  0  0
   57.4100   33.4680   46.6080 Cl  0  0  0  0  0  0  0  0  0  0  0  0
   55.9564   29.9869   42.3639 H   0  0  0  0  0  0  0  0  0  0  0  0
   56.9757   31.5252   40.6965 H   0  0  0  0  0  0  0  0  0  0  0  0
   58.6051   33.2612   41.4299 H   0  0  0  0  0  0  0  0  0  0  0  0
   59.1958   33.4850   43.8344 H   0  0  0  0  0  0  0  0  0  0  0  0
   58.0422   31.1721   46.5064 H   0  0  0  0  0  0  0  0  0  0  0  0
   59.3709   32.2715   45.9847 H   0  0  0  0  0  0  0  0  0  0  0  0
  1  2  2  0
  2  3  1  0
  3  4  2  0
  4  5  1  0
  5  6  2  0
  6  7  1  0
  7  8  2  0
  8  9  1  0
  9 10  1  0
  8  3  1  0
  4 11  1  0
  5 12  1  0
  6 13  1  0
  7 14  1  0
  9 15  1  0
  9 16  1  0
M  END
>  <UniqueID>  (65) 
62

>  <SMILES>  (65) 
O=Nc1ccccc1CCl

>  <Energy>  (65) 
19.24891943240951

>  <Genealogy>  (65) 
O=Nc1ccccc1CCl (3D coordinates assigned)
O=Nc1ccccc1CCl (optimized conformer: 19.24891943240951 kcal/mol)

>  <smiles>  (65) 
O=Nc1ccccc1CCl

>  <score_type>  (65) 
oracle

>  <origin>  (65) 
adg

>  <m_score__min__energy>  (65) 
-5.2599999999999998

>  <m_primary>  (65) 
energy

$$$$
65:0
     RDKit          3D

 62 65  0  0  0  0  0  0  0  0999 V2000
   53.3500   26.8960   53.4970 C   0  0  0  0  0  0  0  0  0  0  0  0
   54.0930   27.8410   54.4360 C   0  0  0  0  0  0  0  0  0  0  0  0
   55.2400   28.4460   53.7530 N   0  0  0  0  0  0  0  0  0  0  0  0
   56.4800   28.0180   53.9320 N   0  0  0  0  0  0  0  0  0  0  0  0
   57.2850   28.7320   53.1230 C   0  0  0  0  0  0  0  0  0  0  0  0
   58.7610   28.5130   53.0300 C   0  0  0  0  0  0  0  0  0  0  0  0
   56.5310   29.6330   52.3890 C   0  0  0  0  0  0  0  0  0  0  0  0
   57.0280   30.6060   51.3490 C   0  0  0  0  0  0  0  0  0  0  0  0
   58.4940   30.6600   51.3310 N   0  0  0  0  0  0  0  0  0  0  0  0
   59.0300   30.2770   50.0170 C   0  0  0  0  0  0  0  0  0  0  0  0
   58.8710   31.4130   49.0420 C   0  0  0  0  0  0  0  0  0  0  0  0
   59.0890   32.7390   49.4470 C   0  0  0  0  0  0  0  0  0  0  0  0
   58.9270   33.7890   48.5390 C   0  0  0  0  0  0  0  0  0  0  0  0
   58.5340   33.5250   47.2250 C   0  0  0  0  0  0  0  0  0  0  0  0
   58.2840   32.2080   46.8140 C   0  0  0  0  0  0  0  0  0  0  0  0
   57.8520   31.9390   45.4300 C   0  0  0  0  0  0  0  0  0  0  0  0
   58.3500   32.6130   44.4910 O   0  0  0  0  0  0  0  0  0  0  0  0
   56.8580   30.9530   45.1200 N   0  0  0  0  0  0  0  0  0  0  0  0
   57.1030   29.6730   44.4600 C   0  0  0  0  0  0  0  0  0  0  0  0
   58.1420   28.8760   45.2050 C   0  0  0  0  0  0  0  0  0  0  0  0
   59.5010   28.9740   44.8630 C   0  0  0  0  0  0  0  0  0  0  0  0
   60.4620   28.2430   45.5710 C   0  0  0  0  0  0  0  0  0  0  0  0
   60.0730   27.4040   46.6170 C   0  0  0  0  0  0  0  0  0  0  0  0
   58.7220   27.2980   46.9610 C   0  0  0  0  0  0  0  0  0  0  0  0
   57.7580   28.0300   46.2590 C   0  0  0  0  0  0  0  0  0  0  0  0
   58.4650   31.1550   47.7230 C   0  0  0  0  0  0  0  0  0  0  0  0
   55.2270   29.4270   52.8190 C   0  0  0  0  0  0  0  0  0  0  0  0
   54.0290   30.1610   52.3590 C   0  0  0  0  0  0  0  0  0  0  0  0
   53.2180   30.8420   53.2810 C   0  0  0  0  0  0  0  0  0  0  0  0
   52.1070   31.5670   52.8420 C   0  0  0  0  0  0  0  0  0  0  0  0
   51.7950   31.6170   51.4790 C   0  0  0  0  0  0  0  0  0  0  0  0
   50.6920   32.3400   51.0440 O   0  0  0  0  0  0  0  0  0  0  0  0
   52.5930   30.9350   50.5560 C   0  0  0  0  0  0  0  0  0  0  0  0
   53.7060   30.2090   50.9930 C   0  0  0  0  0  0  0  0  0  0  0  0
   52.7768   26.1670   54.0886 H   0  0  0  0  0  0  0  0  0  0  0  0
   52.6626   27.4749   52.8626 H   0  0  0  0  0  0  0  0  0  0  0  0
   54.0747   26.3647   52.8626 H   0  0  0  0  0  0  0  0  0  0  0  0
   53.4080   28.6357   54.7664 H   0  0  0  0  0  0  0  0  0  0  0  0
   54.4560   27.2689   55.3026 H   0  0  0  0  0  0  0  0  0  0  0  0
   59.1868   28.4498   54.0423 H   0  0  0  0  0  0  0  0  0  0  0  0
   58.9593   27.5756   52.4896 H   0  0  0  0  0  0  0  0  0  0  0  0
   59.2229   29.3524   52.4896 H   0  0  0  0  0  0  0  0  0  0  0  0
   56.6684   30.2881   50.3592 H   0  0  0  0  0  0  0  0  0  0  0  0
   56.6455   31.6070   51.5973 H   0  0  0  0  0  0  0  0  0  0  0  0
   58.7710   31.6540   51.5110 H   0  0  0  0  0  0  0  0  0  0  0  0
   60.0973   30.0304   50.1173 H   0  0  0  0  0  0  0  0  0  0  0  0
   58.4771   29.4023   49.6438 H   0  0  0  0  0  0  0  0  0  0  0  0
   59.3887   32.9527   50.4836 H   0  0  0  0  0  0  0  0  0  0  0  0
   59.1093   34.8253   48.8598 H   0  0  0  0  0  0  0  0  0  0  0  0
   58.4202   34.3532   46.5101 H   0  0  0  0  0  0  0  0  0  0  0  0
   56.1649   29.0996   44.4260 H   0  0  0  0  0  0  0  0  0  0  0  0
   57.4711   29.8666   43.4417 H   0  0  0  0  0  0  0  0  0  0  0  0
   59.8113   29.6282   44.0350 H   0  0  0  0  0  0  0  0  0  0  0  0
   61.5253   28.3297   45.3029 H   0  0  0  0  0  0  0  0  0  0  0  0
   60.8288   26.8269   47.1700 H   0  0  0  0  0  0  0  0  0  0  0  0
   58.4161   26.6374   47.7857 H   0  0  0  0  0  0  0  0  0  0  0  0
   56.6963   27.9428   46.5332 H   0  0  0  0  0  0  0  0  0  0  0  0
   58.2874   30.1187   47.3997 H   0  0  0  0  0  0  0  0  0  0  0  0
   53.4583   30.8046   54.3538 H   0  0  0  0  0  0  0  0  0  0  0  0
   51.4765   32.0994   53.5694 H   0  0  0  0  0  0  0  0  0  0  0  0
   52.3455   30.9692   49.4848 H   0  0  0  0  0  0  0  0  0  0  0  0
   54.3311   29.6733   50.2635 H   0  0  0  0  0  0  0  0  0  0  0  0
  1  2  1  0
  2  3  1  0
  3  4  1  0
  4  5  2  0
  5  6  1  0
  5  7  1  0
  7  8  1  0
  8  9  1  0
  9 10  1  0
 10 11  1  0
 11 12  2  0
 12 13  1  0
 13 14  2  0
 14 15  1  0
 15 16  1  0
 16 17  2  0
 16 18  1  0
 18 19  1  0
 19 20  1  0
 20 21  2  0
 21 22  1  0
 22 23  2  0
 23 24  1  0
 24 25  2  0
 15 26  2  0
  7 27  2  0
 27 28  1  0
 28 29  2  0
 29 30  1  0
 30 31  2  0
 31 32  1  0
 31 33  1  0
 33 34  2  0
 27  3  1  0
 34 28  1  0
 26 11  1  0
 25 20  1  0
  1 35  1  0
  1 36  1  0
  1 37  1  0
  2 38  1  0
  2 39  1  0
  6 40  1  0
  6 41  1  0
  6 42  1  0
  8 43  1  0
  8 44  1  0
  9 45  1  0
 10 46  1  0
 10 47  1  0
 12 48  1  0
 13 49  1  0
 14 50  1  0
 19 51  1  0
 19 52  1  0
 21 53  1  0
 22 54  1  0
 23 55  1  0
 24 56  1  0
 25 57  1  0
 26 58  1  0
 29 59  1  0
 30 60  1  0
 33 61  1  0
 34 62  1  0
M  CHG  2  18  -1  32  -1
M  END
>  <UniqueID>  (66) 
63

>  <SMILES>  (66) 
CCn1nc(C)c(CNCc2cccc(C(=O)[N-]Cc3ccccc3)c2)c1-c1ccc([O-])cc1

>  <Energy>  (66) 
94.38551346598224

>  <Genealogy>  (66) 
CCn1nc(C)c(CNCc2cccc(C(=O)[N-]Cc3ccccc3)c2)c1-c1ccc([O-])cc1 (protonated)
CCn1nc(C)c(CNCc2cccc(C(=O)[N-]Cc3ccccc3)c2)c1-c1ccc([O-])cc1 (3D coordinates assigned)
CCn1nc(C)c(CNCc2cccc(C(=O)[N-]Cc3ccccc3)c2)c1-c1ccc([O-])cc1 (optimized conformer: 94.38551346598224 kcal/mol)

>  <smiles>  (66) 
CCn1nc(C)c(CNCc2cccc(C(=O)NCc3ccccc3)c2)c1-c1ccc(O)cc1

>  <score_type>  (66) 
oracle

>  <origin>  (66) 
adg

>  <m_score__min__energy>  (66) 
-14.06

>  <m_primary>  (66) 
energy

$$$$
66:0
     RDKit          3D

 60 63  0  0  0  0  0  0  0  0999 V2000
   63.1930   31.8550   47.1010 N   0  0  0  0  0  0  0  0  0  0  0  0
   63.3910   32.9950   48.3820 S   0  0  0  0  0  0  0  0  0  0  0  0
   64.8200   33.4600   48.4250 O   0  0  0  0  0  0  0  0  0  0  0  0
   62.5030   34.1850   48.1390 O   0  0  0  0  0  0  0  0  0  0  0  0
   62.9790   32.2300   49.9140 C   0  0  0  0  0  0  0  0  0  0  0  0
   63.5090   32.7150   51.1190 C   0  0  0  0  0  0  0  0  0  0  0  0
   63.1510   32.1190   52.3340 C   0  0  0  0  0  0  0  0  0  0  0  0
   62.2780   31.0280   52.3540 C   0  0  0  0  0  0  0  0  0  0  0  0
   61.7640   30.5190   51.1530 C   0  0  0  0  0  0  0  0  0  0  0  0
   60.8620   29.4080   51.1370 N   0  0  0  0  0  0  0  0  0  0  0  0
   60.1940   28.8840   49.9940 C   0  0  0  0  0  0  0  0  0  0  0  0
   60.8150   28.1590   49.1770 O   0  0  0  0  0  0  0  0  0  0  0  0
   58.7890   29.3310   49.7040 C   0  0  0  0  0  0  0  0  0  0  0  0
   58.4650   30.5790   50.4210 N   0  0  0  0  0  0  0  0  0  0  0  0
   57.7220   30.5290   51.6640 C   0  0  0  0  0  0  0  0  0  0  0  0
   57.1820   29.4540   52.0490 O   0  0  0  0  0  0  0  0  0  0  0  0
   57.5610   31.7620   52.4990 C   0  0  0  0  0  0  0  0  0  0  0  0
   59.1750   32.5860   52.6200 S   0  0  0  0  0  0  0  0  0  0  0  0
   59.2530   32.8870   50.8510 C   0  0  0  0  0  0  0  0  0  0  0  0
   59.6150   34.1560   50.3900 C   0  0  0  0  0  0  0  0  0  0  0  0
   59.7040   34.4070   49.0210 C   0  0  0  0  0  0  0  0  0  0  0  0
   59.4200   33.3940   48.1010 C   0  0  0  0  0  0  0  0  0  0  0  0
   59.4320   33.7420   46.3710 S   0  0  0  0  0  0  0  0  0  0  0  0
   60.7930   33.4370   45.8100 O   0  0  0  0  0  0  0  0  0  0  0  0
   59.1630   35.2060   46.1610 O   0  0  0  0  0  0  0  0  0  0  0  0
   58.2270   32.7850   45.5350 N   0  0  0  0  0  0  0  0  0  0  0  0
   58.7170   31.4050   45.3690 C   0  0  0  0  0  0  0  0  0  0  0  0
   57.6040   30.4110   44.9990 C   0  0  0  0  0  0  0  0  0  0  0  0
   56.7330   30.8010   43.7910 C   0  0  0  0  0  0  0  0  0  0  0  0
   57.5120   31.4500   42.6360 C   0  0  0  0  0  0  0  0  0  0  0  0
   58.2040   32.7960   42.9730 C   0  0  0  0  0  0  0  0  0  0  0  0
   57.7780   33.4680   44.2960 C   0  0  0  0  0  0  0  0  0  0  0  0
   59.0530   32.1210   48.5590 C   0  0  0  0  0  0  0  0  0  0  0  0
   58.9540   31.8560   49.9380 C   0  0  0  0  0  0  0  0  0  0  0  0
   62.0960   31.1430   49.9380 C   0  0  0  0  0  0  0  0  0  0  0  0
   62.5790   32.2990   46.3830 H   0  0  0  0  0  0  0  0  0  0  0  0
   64.1300   31.7300   46.6570 H   0  0  0  0  0  0  0  0  0  0  0  0
   64.2071   33.5651   51.1091 H   0  0  0  0  0  0  0  0  0  0  0  0
   63.5588   32.5113   53.2773 H   0  0  0  0  0  0  0  0  0  0  0  0
   61.9940   30.5685   53.3122 H   0  0  0  0  0  0  0  0  0  0  0  0
   58.6831   29.5013   48.6224 H   0  0  0  0  0  0  0  0  0  0  0  0
   58.0976   28.5458   50.0437 H   0  0  0  0  0  0  0  0  0  0  0  0
   56.8330   32.4381   52.0269 H   0  0  0  0  0  0  0  0  0  0  0  0
   57.1966   31.4948   53.5019 H   0  0  0  0  0  0  0  0  0  0  0  0
   59.8305   34.9596   51.1096 H   0  0  0  0  0  0  0  0  0  0  0  0
   59.9985   35.4050   48.6644 H   0  0  0  0  0  0  0  0  0  0  0  0
   59.4742   31.3958   44.5712 H   0  0  0  0  0  0  0  0  0  0  0  0
   59.1339   31.0861   46.3357 H   0  0  0  0  0  0  0  0  0  0  0  0
   58.0763   29.4428   44.7762 H   0  0  0  0  0  0  0  0  0  0  0  0
   56.9239   30.3882   45.8632 H   0  0  0  0  0  0  0  0  0  0  0  0
   56.2448   29.8919   43.4099 H   0  0  0  0  0  0  0  0  0  0  0  0
   56.0142   31.5527   44.1491 H   0  0  0  0  0  0  0  0  0  0  0  0
   58.2881   30.7418   42.3102 H   0  0  0  0  0  0  0  0  0  0  0  0
   56.7673   31.6786   41.8594 H   0  0  0  0  0  0  0  0  0  0  0  0
   59.2876   32.6132   43.0229 H   0  0  0  0  0  0  0  0  0  0  0  0
   57.8988   33.4916   42.1774 H   0  0  0  0  0  0  0  0  0  0  0  0
   58.1878   34.4888   44.3046 H   0  0  0  0  0  0  0  0  0  0  0  0
   56.6788   33.4304   44.3127 H   0  0  0  0  0  0  0  0  0  0  0  0
   58.8404   31.3216   47.8340 H   0  0  0  0  0  0  0  0  0  0  0  0
   61.6587   30.7746   48.9983 H   0  0  0  0  0  0  0  0  0  0  0  0
  1  2  1  0
  2  3  2  0
  2  4  2  0
  2  5  1  0
  5  6  2  0
  6  7  1  0
  7  8  2  0
  8  9  1  0
  9 10  1  0
 10 11  1  0
 11 12  2  0
 11 13  1  0
 13 14  1  0
 14 15  1  0
 15 16  2  0
 15 17  1  0
 17 18  1  0
 18 19  1  0
 19 20  2  0
 20 21  1  0
 21 22  2  0
 22 23  1  0
 23 24  2  0
 23 25  2  0
 23 26  1  0
 26 27  1  0
 27 28  1  0
 28 29  1  0
 29 30  1  0
 30 31  1  0
 31 32  1  0
 22 33  1  0
 33 34  2  0
  9 35  2  0
 35  5  1  0
 34 14  1  0
 34 19  1  0
 32 26  1  0
  1 36  1  0
  1 37  1  0
  6 38  1  0
  7 39  1  0
  8 40  1  0
 13 41  1  0
 13 42  1  0
 17 43  1  0
 17 44  1  0
 20 45  1  0
 21 46  1  0
 27 47  1  0
 27 48  1  0
 28 49  1  0
 28 50  1  0
 29 51  1  0
 29 52  1  0
 30 53  1  0
 30 54  1  0
 31 55  1  0
 31 56  1  0
 32 57  1  0
 32 58  1  0
 33 59  1  0
 35 60  1  0
M  CHG  1  10  -1
M  END
>  <UniqueID>  (67) 
64

>  <SMILES>  (67) 
NS(=O)(=O)c1cccc([N-]C(=O)CN2C(=O)CSc3ccc(S(=O)(=O)N4CCCCCC4)cc32)c1

>  <Energy>  (67) 
82.97834488370495

>  <Genealogy>  (67) 
NS(=O)(=O)c1cccc([N-]C(=O)CN2C(=O)CSc3ccc(S(=O)(=O)N4CCCCCC4)cc32)c1 (protonated)
NS(=O)(=O)c1cccc([N-]C(=O)CN2C(=O)CSc3ccc(S(=O)(=O)N4CCCCCC4)cc32)c1 (3D coordinates assigned)
NS(=O)(=O)c1cccc([N-]C(=O)CN2C(=O)CSc3ccc(S(=O)(=O)N4CCCCCC4)cc32)c1 (nonaromatic ring conformer: 82.97834488370495 kcal/mol)

>  <smiles>  (67) 
NS(=O)(=O)c1cccc(NC(=O)CN2C(=O)CSc3ccc(S(=O)(=O)N4CCCCCC4)cc32)c1

>  <score_type>  (67) 
oracle

>  <origin>  (67) 
adg

>  <m_score__min__energy>  (67) 
-10.19

>  <m_primary>  (67) 
energy

$$$$
67:0
     RDKit          3D

 48 51  0  0  0  0  0  0  0  0999 V2000
   60.3218   35.4784   46.5519 H   0  0  0  0  0  0  0  0  0  0  0  0
   59.5580   34.7660   46.2070 C   0  0  0  0  0  0  0  0  0  0  0  0
   58.6220   34.2550   47.1080 C   0  0  0  0  0  0  0  0  0  0  0  0
   58.6433   34.5734   48.1607 H   0  0  0  0  0  0  0  0  0  0  0  0
   57.6580   33.3400   46.6760 C   0  0  0  0  0  0  0  0  0  0  0  0
   56.9142   32.9505   47.3867 H   0  0  0  0  0  0  0  0  0  0  0  0
   57.6360   32.9150   45.3330 C   0  0  0  0  0  0  0  0  0  0  0  0
   56.6410   32.0010   44.8400 N   0  0  0  0  0  0  0  0  0  0  0  0
   56.7370   30.7050   44.7980 C   0  0  0  0  0  0  0  0  0  0  0  0
   55.6920   29.8560   44.9210 N   0  0  0  0  0  0  0  0  0  0  0  0
   56.0550   28.5760   44.8760 N   0  0  0  0  0  0  0  0  0  0  0  0
   57.3870   28.4090   44.7250 C   0  0  0  0  0  0  0  0  0  0  0  0
   58.1710   26.8030   44.5950 S   0  0  0  0  0  0  0  0  0  0  0  0
   57.8100   26.3180   46.3180 C   0  0  0  0  0  0  0  0  0  0  0  0
   57.8485   25.2217   46.4001 H   0  0  0  0  0  0  0  0  0  0  0  0
   56.8088   26.6861   46.5865 H   0  0  0  0  0  0  0  0  0  0  0  0
   58.8080   26.9150   47.2550 C   0  0  0  0  0  0  0  0  0  0  0  0
   59.2150   28.2020   47.1910 N   0  0  0  0  0  0  0  0  0  0  0  0
   60.0650   28.3130   48.2310 C   0  0  0  0  0  0  0  0  0  0  0  0
   60.7740   29.5600   48.5760 C   0  0  0  0  0  0  0  0  0  0  0  0
   61.2700   29.7050   49.7260 O   0  0  0  0  0  0  0  0  0  0  0  0
   60.8830   30.6150   47.6090 N   0  0  0  0  0  0  0  0  0  0  0  0
   60.2420   30.6100   46.7850 H   0  0  0  0  0  0  0  0  0  0  0  0
   61.6470   31.8050   47.8550 C   0  0  0  0  0  0  0  0  0  0  0  0
   62.8730   31.9680   47.1930 C   0  0  0  0  0  0  0  0  0  0  0  0
   63.2355   31.1823   46.5138 H   0  0  0  0  0  0  0  0  0  0  0  0
   63.6370   33.1210   47.3900 C   0  0  0  0  0  0  0  0  0  0  0  0
   64.5933   33.2437   46.8604 H   0  0  0  0  0  0  0  0  0  0  0  0
   63.1880   34.1170   48.2580 C   0  0  0  0  0  0  0  0  0  0  0  0
   63.7837   35.0306   48.4010 H   0  0  0  0  0  0  0  0  0  0  0  0
   61.9820   33.9550   48.9460 C   0  0  0  0  0  0  0  0  0  0  0  0
   61.6324   34.7441   49.6280 H   0  0  0  0  0  0  0  0  0  0  0  0
   61.2130   32.7920   48.7730 C   0  0  0  0  0  0  0  0  0  0  0  0
   59.9420   32.6350   49.5650 C   0  0  0  0  0  0  0  0  0  0  0  0
   60.1739   32.6636   50.6399 H   0  0  0  0  0  0  0  0  0  0  0  0
   59.2517   33.4547   49.3168 H   0  0  0  0  0  0  0  0  0  0  0  0
   59.4719   31.6720   49.3168 H   0  0  0  0  0  0  0  0  0  0  0  0
   60.1370   27.0920   48.8810 C   0  0  0  0  0  0  0  0  0  0  0  0
   60.9420   26.7380   50.0900 C   0  0  0  0  0  0  0  0  0  0  0  0
   60.3717   26.9888   50.9966 H   0  0  0  0  0  0  0  0  0  0  0  0
   61.1618   25.6602   50.0815 H   0  0  0  0  0  0  0  0  0  0  0  0
   61.8849   27.3045   50.0815 H   0  0  0  0  0  0  0  0  0  0  0  0
   59.3510   26.2560   48.2540 O   0  0  0  0  0  0  0  0  0  0  0  0
   58.1980   29.8840   44.6460 S   0  0  0  0  0  0  0  0  0  0  0  0
   58.5610   33.4580   44.4280 C   0  0  0  0  0  0  0  0  0  0  0  0
   58.5360   33.0880   43.1240 F   0  0  0  0  0  0  0  0  0  0  0  0
   59.5240   34.3720   44.8670 C   0  0  0  0  0  0  0  0  0  0  0  0
   60.2563   34.7817   44.1558 H   0  0  0  0  0  0  0  0  0  0  0  0
  1  2  1  0
  2  3  2  0
  3  4  1  0
  3  5  1  0
  5  6  1  0
  5  7  2  0
  7  8  1  0
  8  9  2  0
  9 10  1  0
 10 11  1  0
 11 12  2  0
 12 13  1  0
 13 14  1  0
 14 15  1  0
 14 16  1  0
 14 17  1  0
 17 18  2  0
 18 19  1  0
 19 20  1  0
 20 21  2  0
 20 22  1  0
 22 23  1  0
 22 24  1  0
 24 25  2  0
 25 26  1  0
 25 27  1  0
 27 28  1  0
 27 29  2  0
 29 30  1  0
 29 31  1  0
 31 32  1  0
 31 33  2  0
 33 34  1  0
 34 35  1  0
 34 36  1  0
 34 37  1  0
 19 38  2  0
 38 39  1  0
 39 40  1  0
 39 41  1  0
 39 42  1  0
 38 43  1  0
 12 44  1  0
  7 45  1  0
 45 46  1  0
 45 47  2  0
 47 48  1  0
 47  2  1  0
 44  9  1  0
 43 17  1  0
 33 24  1  0
M  CHG  1  10  -1
M  END
>  <UniqueID>  (68) 
65

>  <SMILES>  (68) 
Cc1ccccc1NC(=O)c1nc(CSc2n[n-]/c(=N\c3ccccc3F)s2)oc1C

>  <Energy>  (68) 
121.49689657763453

>  <Genealogy>  (68) 
Cc1ccccc1NC(=O)c1nc(CSc2n[n-]c(=Nc3ccccc3F)s2)oc1C (protonated)
Cc1ccccc1NC(=O)c1nc(CSc2n[n-]/c(=N\c3ccccc3F)s2)oc1C (cis-trans isomerization)
Cc1ccccc1NC(=O)c1nc(CSc2n[n-]/c(=N\c3ccccc3F)s2)oc1C (3D coordinates assigned)
Cc1ccccc1NC(=O)c1nc(CSc2n[n-]/c(=N\c3ccccc3F)s2)oc1C (optimized conformer: 121.49689657763453 kcal/mol)

>  <smiles>  (68) 
Cc1ccccc1NC(=O)c1nc(CSc2n[nH]c(=Nc3ccccc3F)s2)oc1C

>  <score_type>  (68) 
oracle

>  <origin>  (68) 
adg

>  <m_score__min__energy>  (68) 
-10.43

>  <m_primary>  (68) 
energy

$$$$
68:0
     RDKit          3D

 39 41  0  0  0  0  0  0  0  0999 V2000
   57.2050   25.6310   47.2810 H   0  0  0  0  0  0  0  0  0  0  0  0
   56.2360   25.3970   47.1200 O   0  0  0  0  0  0  0  0  0  0  0  0
   55.8030   24.5700   46.0820 C   0  0  0  0  0  0  0  0  0  0  0  0
   54.4650   24.3810   45.9340 N   0  0  0  0  0  0  0  0  0  0  0  0
   53.9670   23.5420   44.9940 C   0  0  0  0  0  0  0  0  0  0  0  0
   52.7230   23.3890   44.8840 O   0  0  0  0  0  0  0  0  0  0  0  0
   54.8070   22.8620   44.1770 N   0  0  0  0  0  0  0  0  0  0  0  0
   56.1530   23.0170   44.2660 C   0  0  0  0  0  0  0  0  0  0  0  0
   56.8980   22.3730   43.4790 O   0  0  0  0  0  0  0  0  0  0  0  0
   56.7010   23.9030   45.2140 C   0  0  0  0  0  0  0  0  0  0  0  0
   58.1650   24.1160   45.2500 C   0  0  0  0  0  0  0  0  0  0  0  0
   58.8393   23.3143   44.9144 H   0  0  0  0  0  0  0  0  0  0  0  0
   58.6630   25.2380   45.6730 N   0  0  0  0  0  0  0  0  0  0  0  0
   58.2860   26.5560   45.2390 C   0  0  0  0  0  0  0  0  0  0  0  0
   58.1380   26.7840   43.8650 C   0  0  0  0  0  0  0  0  0  0  0  0
   58.3202   25.9645   43.1542 H   0  0  0  0  0  0  0  0  0  0  0  0
   57.7610   28.0430   43.3880 C   0  0  0  0  0  0  0  0  0  0  0  0
   57.6519   28.2098   42.3062 H   0  0  0  0  0  0  0  0  0  0  0  0
   57.5220   29.0920   44.2840 C   0  0  0  0  0  0  0  0  0  0  0  0
   57.0360   30.6720   43.6810 S   0  0  0  0  0  0  0  0  0  0  0  0
   56.6150   30.5420   42.2440 O   0  0  0  0  0  0  0  0  0  0  0  0
   55.8910   31.1960   44.5030 O   0  0  0  0  0  0  0  0  0  0  0  0
   58.3730   31.7720   43.8070 N   0  0  0  0  0  0  0  0  0  0  0  0
   58.5570   32.5700   44.8120 C   0  0  0  0  0  0  0  0  0  0  0  0
   58.4530   32.1200   46.0930 N   0  0  0  0  0  0  0  0  0  0  0  0
   58.6440   32.9510   47.1520 C   0  0  0  0  0  0  0  0  0  0  0  0
   58.5220   32.4260   48.5460 C   0  0  0  0  0  0  0  0  0  0  0  0
   58.7110   33.2394   49.2620 H   0  0  0  0  0  0  0  0  0  0  0  0
   57.5078   32.0294   48.7010 H   0  0  0  0  0  0  0  0  0  0  0  0
   59.2574   31.6228   48.7010 H   0  0  0  0  0  0  0  0  0  0  0  0
   58.9530   34.2960   46.9250 C   0  0  0  0  0  0  0  0  0  0  0  0
   59.1104   34.9869   47.7664 H   0  0  0  0  0  0  0  0  0  0  0  0
   59.0570   34.7410   45.6080 C   0  0  0  0  0  0  0  0  0  0  0  0
   59.3004   35.7936   45.4009 H   0  0  0  0  0  0  0  0  0  0  0  0
   58.8580   33.8760   44.5810 N   0  0  0  0  0  0  0  0  0  0  0  0
   57.6450   28.8670   45.6610 C   0  0  0  0  0  0  0  0  0  0  0  0
   57.4440   29.6842   46.3694 H   0  0  0  0  0  0  0  0  0  0  0  0
   58.0220   27.6090   46.1390 C   0  0  0  0  0  0  0  0  0  0  0  0
   58.1132   27.4395   47.2220 H   0  0  0  0  0  0  0  0  0  0  0  0
  1  2  1  0
  2  3  1  0
  3  4  1  0
  4  5  1  0
  5  6  2  0
  5  7  1  0
  7  8  1  0
  8  9  2  0
  8 10  1  0
 10 11  1  0
 11 12  1  0
 11 13  2  0
 13 14  1  0
 14 15  2  0
 15 16  1  0
 15 17  1  0
 17 18  1  0
 17 19  2  0
 19 20  1  0
 20 21  2  0
 20 22  2  0
 20 23  1  0
 23 24  2  3
 24 25  1  0
 25 26  2  0
 26 27  1  0
 27 28  1  0
 27 29  1  0
 27 30  1  0
 26 31  1  0
 31 32  1  0
 31 33  2  0
 33 34  1  0
 33 35  1  0
 19 36  1  0
 36 37  1  0
 36 38  2  0
 38 39  1  0
 10  3  2  0
 38 14  1  0
 35 24  1  0
M  CHG  3   4  -1   7  -1  35  -1
M  END
>  <UniqueID>  (69) 
66

>  <SMILES>  (69) 
Cc1cc[n-]c(=NS(=O)(=O)c2ccc(/N=C/c3c(O)[n-]c(=O)[n-]c3=O)cc2)n1

>  <Energy>  (69) 
55.252939076463505

>  <Genealogy>  (69) 
Cc1cc[n-]c(=NS(=O)(=O)c2ccc(N=Cc3c(O)[n-]c(=O)[n-]c3=O)cc2)n1 (protonated)
Cc1cc[n-]c(=NS(=O)(=O)c2ccc(/N=C/c3c(O)[n-]c(=O)[n-]c3=O)cc2)n1 (cis-trans isomerization)
Cc1cc[n-]c(=NS(=O)(=O)c2ccc(/N=C/c3c(O)[n-]c(=O)[n-]c3=O)cc2)n1 (3D coordinates assigned)
Cc1cc[n-]c(=NS(=O)(=O)c2ccc(/N=C/c3c(O)[n-]c(=O)[n-]c3=O)cc2)n1 (optimized conformer: 55.252939076463505 kcal/mol)

>  <smiles>  (69) 
Cc1cc[nH]c(=NS(=O)(=O)c2ccc(N=Cc3c(O)[nH]c(=O)[nH]c3=O)cc2)n1

>  <score_type>  (69) 
oracle

>  <origin>  (69) 
adg

>  <m_score__min__energy>  (69) 
-14.42

>  <m_primary>  (69) 
energy

$$$$
69:0
     RDKit          3D

 38 39  0  0  0  0  0  0  0  0999 V2000
   55.5530   28.9810   45.0320 N   0  0  0  0  0  0  0  0  0  0  0  0
   56.6760   29.8460   44.8750 C   0  0  0  0  0  0  0  0  0  0  0  0
   56.8380   30.4470   43.7780 O   0  0  0  0  0  0  0  0  0  0  0  0
   57.6420   30.0370   45.9830 C   0  0  0  0  0  0  0  0  0  0  0  0
   58.0780   28.9420   46.7450 C   0  0  0  0  0  0  0  0  0  0  0  0
   58.9790   29.1250   47.7940 C   0  0  0  0  0  0  0  0  0  0  0  0
   59.4630   30.4010   48.1070 C   0  0  0  0  0  0  0  0  0  0  0  0
   60.5510   30.5570   49.5370 S   0  0  0  0  0  0  0  0  0  0  0  0
   59.3270   31.4130   50.5900 C   0  0  0  0  0  0  0  0  0  0  0  0
   58.1360   30.5480   50.8540 C   0  0  0  0  0  0  0  0  0  0  0  0
   58.3040   29.3250   51.1080 O   0  0  0  0  0  0  0  0  0  0  0  0
   56.8310   31.1360   50.8880 N   0  0  0  0  0  0  0  0  0  0  0  0
   55.7460   30.7940   51.7650 C   0  0  0  0  0  0  0  0  0  0  0  0
   55.9540   30.3250   53.0750 C   0  0  0  0  0  0  0  0  0  0  0  0
   54.8660   29.9760   53.8780 C   0  0  0  0  0  0  0  0  0  0  0  0
   53.5640   30.0830   53.3840 C   0  0  0  0  0  0  0  0  0  0  0  0
   53.3450   30.5370   52.0770 C   0  0  0  0  0  0  0  0  0  0  0  0
   51.7070   30.6440   51.4370 S   0  0  0  0  0  0  0  0  0  0  0  0
   51.2540   32.3040   51.2850 N   0  0  0  0  0  0  0  0  0  0  0  0
   50.7530   29.9450   52.3650 O   0  0  0  0  0  0  0  0  0  0  0  0
   51.6410   29.9820   50.0890 O   0  0  0  0  0  0  0  0  0  0  0  0
   54.4380   30.8780   51.2690 C   0  0  0  0  0  0  0  0  0  0  0  0
   59.0670   31.5140   47.3260 C   0  0  0  0  0  0  0  0  0  0  0  0
   59.5950   32.8340   47.5600 N   0  0  0  0  0  0  0  0  0  0  0  0
   60.7770   33.0990   47.2550 O   0  0  0  0  0  0  0  0  0  0  0  0
   58.8880   33.7580   48.2930 O   0  0  0  0  0  0  0  0  0  0  0  0
   58.1430   31.3160   46.2810 C   0  0  0  0  0  0  0  0  0  0  0  0
   54.5990   29.3670   45.2100 H   0  0  0  0  0  0  0  0  0  0  0  0
   57.7067   27.9328   46.5135 H   0  0  0  0  0  0  0  0  0  0  0  0
   59.3130   28.2573   48.3818 H   0  0  0  0  0  0  0  0  0  0  0  0
   59.7995   31.6740   51.5484 H   0  0  0  0  0  0  0  0  0  0  0  0
   58.9886   32.3174   50.0631 H   0  0  0  0  0  0  0  0  0  0  0  0
   56.9772   30.2329   53.4681 H   0  0  0  0  0  0  0  0  0  0  0  0
   55.0351   29.6155   54.9034 H   0  0  0  0  0  0  0  0  0  0  0  0
   52.7100   29.8106   54.0216 H   0  0  0  0  0  0  0  0  0  0  0  0
   50.2890   32.3210   50.8840 H   0  0  0  0  0  0  0  0  0  0  0  0
   54.2677   31.2148   50.2358 H   0  0  0  0  0  0  0  0  0  0  0  0
   57.8073   32.1788   45.6870 H   0  0  0  0  0  0  0  0  0  0  0  0
  1  2  1  0
  2  3  2  0
  2  4  1  0
  4  5  2  0
  5  6  1  0
  6  7  2  0
  7  8  1  0
  8  9  1  0
  9 10  1  0
 10 11  2  0
 10 12  1  0
 12 13  1  0
 13 14  2  0
 14 15  1  0
 15 16  2  0
 16 17  1  0
 17 18  1  0
 18 19  1  0
 18 20  2  0
 18 21  2  0
 17 22  2  0
  7 23  1  0
 23 24  1  0
 24 25  2  0
 24 26  1  0
 23 27  2  0
 27  4  1  0
 22 13  1  0
  1 28  1  0
  5 29  1  0
  6 30  1  0
  9 31  1  0
  9 32  1  0
 14 33  1  0
 15 34  1  0
 16 35  1  0
 19 36  1  0
 22 37  1  0
 27 38  1  0
M  CHG  5   1  -1  12  -1  19  -1  24   1  26  -1
M  END
>  <UniqueID>  (70) 
67

>  <SMILES>  (70) 
[NH-]C(=O)c1ccc(SCC(=O)[N-]c2cccc(S([NH-])(=O)=O)c2)c([N+](=O)[O-])c1

>  <Energy>  (70) 
41.06204765961959

>  <Genealogy>  (70) 
[NH-]C(=O)c1ccc(SCC(=O)[N-]c2cccc(S([NH-])(=O)=O)c2)c([N+](=O)[O-])c1 (protonated)
[NH-]C(=O)c1ccc(SCC(=O)[N-]c2cccc(S([NH-])(=O)=O)c2)c([N+](=O)[O-])c1 (3D coordinates assigned)
[NH-]C(=O)c1ccc(SCC(=O)[N-]c2cccc(S([NH-])(=O)=O)c2)c([N+](=O)[O-])c1 (optimized conformer: 41.06204765961959 kcal/mol)

>  <smiles>  (70) 
NC(=O)c1ccc(SCC(=O)Nc2cccc(S(N)(=O)=O)c2)c([N+](=O)[O-])c1

>  <score_type>  (70) 
oracle

>  <origin>  (70) 
adg

>  <m_score__min__energy>  (70) 
-14.57

>  <m_primary>  (70) 
energy

$$$$
70:0
     RDKit          3D

 64 66  0  0  0  0  0  0  0  0999 V2000
   58.8920   32.5940   49.2140 C   0  0  0  0  0  0  0  0  0  0  0  0
   59.6610   33.9040   49.0500 C   0  0  0  0  0  0  0  0  0  0  0  0
   59.3160   34.6110   47.7310 C   0  0  0  0  0  0  0  0  0  0  0  0
   59.4690   33.7020   46.5720 N   0  0  0  0  0  0  0  0  0  0  0  0
   60.7490   32.9560   46.4570 C   0  0  0  0  0  0  0  0  0  0  0  0
   62.0180   33.8000   46.7100 C   0  0  0  0  0  0  0  0  0  0  0  0
   63.1480   32.9380   47.2670 C   0  0  0  0  0  0  0  0  0  0  0  0
   58.9540   34.2530   45.2990 C   0  0  0  0  0  0  0  0  0  0  0  0
   57.9940   33.3030   44.5660 C   0  0  0  0  0  0  0  0  0  0  0  0
   57.3630   32.3010   45.5370 C   0  0  0  0  0  0  0  0  0  0  0  0
   56.3230   31.5260   44.8710 N   0  0  0  0  0  0  0  0  0  0  0  0
   56.3490   30.1010   44.7520 C   0  0  0  0  0  0  0  0  0  0  0  0
   55.2750   29.4550   44.8690 O   0  0  0  0  0  0  0  0  0  0  0  0
   57.5780   29.4220   44.4600 N   0  0  0  0  0  0  0  0  0  0  0  0
   58.5090   28.9320   45.4330 C   0  0  0  0  0  0  0  0  0  0  0  0
   58.5290   29.5330   46.6980 C   0  0  0  0  0  0  0  0  0  0  0  0
   59.4140   29.0830   47.6810 C   0  0  0  0  0  0  0  0  0  0  0  0
   60.2730   28.0170   47.4130 C   0  0  0  0  0  0  0  0  0  0  0  0
   60.2410   27.3870   46.1660 C   0  0  0  0  0  0  0  0  0  0  0  0
   59.3470   27.8260   45.1690 C   0  0  0  0  0  0  0  0  0  0  0  0
   59.2440   27.1750   43.9310 O   0  0  0  0  0  0  0  0  0  0  0  0
   58.0220   26.7780   43.3160 C   0  0  0  0  0  0  0  0  0  0  0  0
   57.4830   25.5870   44.0440 C   0  0  0  0  0  0  0  0  0  0  0  0
   56.8610   25.7310   45.2830 C   0  0  0  0  0  0  0  0  0  0  0  0
   56.3160   24.6060   45.9020 C   0  0  0  0  0  0  0  0  0  0  0  0
   55.7590   24.7410   47.0260 O   0  0  0  0  0  0  0  0  0  0  0  0
   56.3870   23.3770   45.2910 N   0  0  0  0  0  0  0  0  0  0  0  0
   55.8520   22.2630   45.8890 C   0  0  0  0  0  0  0  0  0  0  0  0
   55.9180   21.0160   45.2650 C   0  0  0  0  0  0  0  0  0  0  0  0
   56.5330   20.9020   44.0210 C   0  0  0  0  0  0  0  0  0  0  0  0
   57.0760   22.0310   43.4120 C   0  0  0  0  0  0  0  0  0  0  0  0
   56.9980   23.2690   44.0590 C   0  0  0  0  0  0  0  0  0  0  0  0
   57.5270   24.3650   43.4560 N   0  0  0  0  0  0  0  0  0  0  0  0
   58.7638   32.3756   50.2845 H   0  0  0  0  0  0  0  0  0  0  0  0
   57.9047   32.6863   48.7378 H   0  0  0  0  0  0  0  0  0  0  0  0
   59.4538   31.7769   48.7378 H   0  0  0  0  0  0  0  0  0  0  0  0
   59.4089   34.5713   49.8874 H   0  0  0  0  0  0  0  0  0  0  0  0
   60.7355   33.6687   49.0391 H   0  0  0  0  0  0  0  0  0  0  0  0
   58.2743   34.9617   47.7752 H   0  0  0  0  0  0  0  0  0  0  0  0
   60.0083   35.4558   47.6008 H   0  0  0  0  0  0  0  0  0  0  0  0
   60.7330   32.1349   47.1888 H   0  0  0  0  0  0  0  0  0  0  0  0
   60.8116   32.6090   45.4151 H   0  0  0  0  0  0  0  0  0  0  0  0
   62.3444   34.2515   45.7615 H   0  0  0  0  0  0  0  0  0  0  0  0
   61.7778   34.5807   47.4468 H   0  0  0  0  0  0  0  0  0  0  0  0
   63.1185   32.9605   48.3664 H   0  0  0  0  0  0  0  0  0  0  0  0
   63.0251   31.9021   46.9180 H   0  0  0  0  0  0  0  0  0  0  0  0
   64.1146   33.3303   46.9180 H   0  0  0  0  0  0  0  0  0  0  0  0
   58.4196   35.1898   45.5155 H   0  0  0  0  0  0  0  0  0  0  0  0
   59.8203   34.4109   44.6398 H   0  0  0  0  0  0  0  0  0  0  0  0
   57.1970   33.8937   44.0908 H   0  0  0  0  0  0  0  0  0  0  0  0
   58.5645   32.7447   43.8091 H   0  0  0  0  0  0  0  0  0  0  0  0
   58.1413   31.6179   45.9079 H   0  0  0  0  0  0  0  0  0  0  0  0
   56.9118   32.8542   46.3739 H   0  0  0  0  0  0  0  0  0  0  0  0
   57.8436   30.3645   46.9189 H   0  0  0  0  0  0  0  0  0  0  0  0
   59.4335   29.5698   48.6672 H   0  0  0  0  0  0  0  0  0  0  0  0
   60.9768   27.6717   48.1846 H   0  0  0  0  0  0  0  0  0  0  0  0
   60.9173   26.5439   45.9616 H   0  0  0  0  0  0  0  0  0  0  0  0
   57.2964   27.6031   43.3679 H   0  0  0  0  0  0  0  0  0  0  0  0
   58.1991   26.5235   42.2606 H   0  0  0  0  0  0  0  0  0  0  0  0
   56.8008   26.7176   45.7657 H   0  0  0  0  0  0  0  0  0  0  0  0
   55.3656   22.3541   46.8714 H   0  0  0  0  0  0  0  0  0  0  0  0
   55.4870   20.1293   45.7528 H   0  0  0  0  0  0  0  0  0  0  0  0
   56.5899   19.9239   43.5209 H   0  0  0  0  0  0  0  0  0  0  0  0
   57.5629   21.9497   42.4290 H   0  0  0  0  0  0  0  0  0  0  0  0
  1  2  1  0
  2  3  1  0
  3  4  1  0
  4  5  1  0
  5  6  1  0
  6  7  1  0
  4  8  1  0
  8  9  1  0
  9 10  1  0
 10 11  1  0
 11 12  1  0
 12 13  2  0
 12 14  1  0
 14 15  1  0
 15 16  2  0
 16 17  1  0
 17 18  2  0
 18 19  1  0
 19 20  2  0
 20 21  1  0
 21 22  1  0
 22 23  1  0
 23 24  2  0
 24 25  1  0
 25 26  2  0
 25 27  1  0
 27 28  1  0
 28 29  2  0
 29 30  1  0
 30 31  2  0
 31 32  1  0
 32 33  2  0
 20 15  1  0
 33 23  1  0
 32 27  1  0
  1 34  1  0
  1 35  1  0
  1 36  1  0
  2 37  1  0
  2 38  1  0
  3 39  1  0
  3 40  1  0
  5 41  1  0
  5 42  1  0
  6 43  1  0
  6 44  1  0
  7 45  1  0
  7 46  1  0
  7 47  1  0
  8 48  1  0
  8 49  1  0
  9 50  1  0
  9 51  1  0
 10 52  1  0
 10 53  1  0
 16 54  1  0
 17 55  1  0
 18 56  1  0
 19 57  1  0
 22 58  1  0
 22 59  1  0
 24 60  1  0
 28 61  1  0
 29 62  1  0
 30 63  1  0
 31 64  1  0
M  CHG  2  11  -1  14  -1
M  END
>  <UniqueID>  (71) 
68

>  <SMILES>  (71) 
CCCN(CCC)CCC[N-]C(=O)[N-]c1ccccc1OCc1cc(=O)n2ccccc2n1

>  <Energy>  (71) 
69.73520951376636

>  <Genealogy>  (71) 
CCCN(CCC)CCC[N-]C(=O)[N-]c1ccccc1OCc1cc(=O)n2ccccc2n1 (protonated)
CCCN(CCC)CCC[N-]C(=O)[N-]c1ccccc1OCc1cc(=O)n2ccccc2n1 (3D coordinates assigned)
CCCN(CCC)CCC[N-]C(=O)[N-]c1ccccc1OCc1cc(=O)n2ccccc2n1 (optimized conformer: 69.73520951376636 kcal/mol)

>  <smiles>  (71) 
CCCN(CCC)CCCNC(=O)Nc1ccccc1OCc1cc(=O)n2ccccc2n1

>  <score_type>  (71) 
oracle

>  <origin>  (71) 
adg

>  <m_score__min__energy>  (71) 
-12.9

>  <m_primary>  (71) 
energy

$$$$
71:0
     RDKit          3D

 66 71  0  0  0  0  0  0  0  0999 V2000
   55.3960   29.5610   45.0900 O   0  0  0  0  0  0  0  0  0  0  0  0
   56.5880   29.4430   44.7040 C   0  0  0  0  0  0  0  0  0  0  0  0
   57.2590   30.5320   44.0530 N   0  0  0  0  0  0  0  0  0  0  0  0
   57.7910   31.7060   44.6810 C   0  0  0  0  0  0  0  0  0  0  0  0
   57.4440   32.9560   44.1560 C   0  0  0  0  0  0  0  0  0  0  0  0
   57.9360   34.1270   44.7390 C   0  0  0  0  0  0  0  0  0  0  0  0
   58.8030   34.0570   45.8320 C   0  0  0  0  0  0  0  0  0  0  0  0
   59.2290   35.2070   46.4110 F   0  0  0  0  0  0  0  0  0  0  0  0
   59.2030   32.8060   46.3360 C   0  0  0  0  0  0  0  0  0  0  0  0
   60.1110   32.7050   47.4450 N   0  0  0  0  0  0  0  0  0  0  0  0
   59.7060   32.7850   48.8230 C   0  0  0  0  0  0  0  0  0  0  0  0
   60.2110   33.7760   49.6700 C   0  0  0  0  0  0  0  0  0  0  0  0
   59.8240   33.8250   51.0060 C   0  0  0  0  0  0  0  0  0  0  0  0
   58.9210   32.8860   51.5480 C   0  0  0  0  0  0  0  0  0  0  0  0
   58.3960   31.8750   50.6830 C   0  0  0  0  0  0  0  0  0  0  0  0
   58.8280   31.8310   49.3420 C   0  0  0  0  0  0  0  0  0  0  0  0
   57.4270   30.7890   51.1060 C   0  0  0  0  0  0  0  0  0  0  0  0
   56.4210   31.2270   52.1680 C   0  0  0  0  0  0  0  0  0  0  0  0
   57.0550   31.1040   53.5200 C   0  0  0  0  0  0  0  0  0  0  0  0
   56.6160   30.1110   54.4140 C   0  0  0  0  0  0  0  0  0  0  0  0
   57.2170   29.9720   55.6660 C   0  0  0  0  0  0  0  0  0  0  0  0
   58.2620   30.8190   56.0350 C   0  0  0  0  0  0  0  0  0  0  0  0
   58.7100   31.8020   55.1500 C   0  0  0  0  0  0  0  0  0  0  0  0
   58.1250   31.9440   53.8790 C   0  0  0  0  0  0  0  0  0  0  0  0
   58.5870   33.0420   53.0010 C   0  0  0  0  0  0  0  0  0  0  0  0
   58.7610   34.1700   53.5400 O   0  0  0  0  0  0  0  0  0  0  0  0
   58.6780   31.6350   45.7680 C   0  0  0  0  0  0  0  0  0  0  0  0
   57.2600   28.1930   44.8970 N   0  0  0  0  0  0  0  0  0  0  0  0
   58.0670   27.8500   46.0330 C   0  0  0  0  0  0  0  0  0  0  0  0
   58.2100   28.8040   47.0500 C   0  0  0  0  0  0  0  0  0  0  0  0
   59.0430   28.5540   48.1430 C   0  0  0  0  0  0  0  0  0  0  0  0
   59.7340   27.3450   48.2330 C   0  0  0  0  0  0  0  0  0  0  0  0
   59.5720   26.3710   47.2450 C   0  0  0  0  0  0  0  0  0  0  0  0
   58.7130   26.5940   46.1620 C   0  0  0  0  0  0  0  0  0  0  0  0
   58.5330   25.5540   45.2390 O   0  0  0  0  0  0  0  0  0  0  0  0
   57.3130   24.9110   44.9880 C   0  0  0  0  0  0  0  0  0  0  0  0
   56.2110   25.2270   45.7910 C   0  0  0  0  0  0  0  0  0  0  0  0
   54.9780   24.6010   45.5780 C   0  0  0  0  0  0  0  0  0  0  0  0
   54.8360   23.6670   44.5480 C   0  0  0  0  0  0  0  0  0  0  0  0
   55.9280   23.3530   43.7280 C   0  0  0  0  0  0  0  0  0  0  0  0
   55.7990   22.4260   42.6960 O   0  0  0  0  0  0  0  0  0  0  0  0
   57.1630   23.9760   43.9460 C   0  0  0  0  0  0  0  0  0  0  0  0
   56.7809   33.0171   43.2804 H   0  0  0  0  0  0  0  0  0  0  0  0
   57.6396   35.1067   44.3360 H   0  0  0  0  0  0  0  0  0  0  0  0
   61.1310   32.6100   47.2350 H   0  0  0  0  0  0  0  0  0  0  0  0
   60.9185   34.5216   49.2781 H   0  0  0  0  0  0  0  0  0  0  0  0
   60.2317   34.6143   51.6546 H   0  0  0  0  0  0  0  0  0  0  0  0
   58.4644   31.0249   48.6878 H   0  0  0  0  0  0  0  0  0  0  0  0
   56.8689   30.4593   50.2173 H   0  0  0  0  0  0  0  0  0  0  0  0
   58.0293   29.9847   51.5536 H   0  0  0  0  0  0  0  0  0  0  0  0
   56.1296   32.2728   51.9910 H   0  0  0  0  0  0  0  0  0  0  0  0
   55.5259   30.5896   52.1177 H   0  0  0  0  0  0  0  0  0  0  0  0
   55.7939   29.4398   54.1247 H   0  0  0  0  0  0  0  0  0  0  0  0
   56.8668   29.1949   56.3613 H   0  0  0  0  0  0  0  0  0  0  0  0
   58.7333   30.7127   57.0232 H   0  0  0  0  0  0  0  0  0  0  0  0
   59.5290   32.4722   55.4502 H   0  0  0  0  0  0  0  0  0  0  0  0
   58.9631   30.6544   46.1769 H   0  0  0  0  0  0  0  0  0  0  0  0
   57.6625   29.7560   46.9869 H   0  0  0  0  0  0  0  0  0  0  0  0
   59.1544   29.3108   48.9335 H   0  0  0  0  0  0  0  0  0  0  0  0
   60.4070   27.1588   49.0829 H   0  0  0  0  0  0  0  0  0  0  0  0
   60.1232   25.4219   47.3183 H   0  0  0  0  0  0  0  0  0  0  0  0
   56.3149   25.9716   46.5940 H   0  0  0  0  0  0  0  0  0  0  0  0
   54.1197   24.8441   46.2217 H   0  0  0  0  0  0  0  0  0  0  0  0
   53.8652   23.1775   44.3808 H   0  0  0  0  0  0  0  0  0  0  0  0
   56.2570   22.5630   41.8020 H   0  0  0  0  0  0  0  0  0  0  0  0
   58.0199   23.7338   43.3002 H   0  0  0  0  0  0  0  0  0  0  0  0
  1  2  2  0
  2  3  1  0
  3  4  1  0
  4  5  2  0
  5  6  1  0
  6  7  2  0
  7  8  1  0
  7  9  1  0
  9 10  1  0
 10 11  1  0
 11 12  2  0
 12 13  1  0
 13 14  2  0
 14 15  1  0
 15 16  2  0
 15 17  1  0
 17 18  1  0
 18 19  1  0
 19 20  2  0
 20 21  1  0
 21 22  2  0
 22 23  1  0
 23 24  2  0
 24 25  1  0
 25 26  2  0
  9 27  2  0
  2 28  1  0
 28 29  1  0
 29 30  2  0
 30 31  1  0
 31 32  2  0
 32 33  1  0
 33 34  2  0
 34 35  1  0
 35 36  1  0
 36 37  2  0
 37 38  1  0
 38 39  2  0
 39 40  1  0
 40 41  1  0
 40 42  2  0
 27  4  1  0
 34 29  1  0
 42 36  1  0
 16 11  1  0
 24 19  1  0
 25 14  1  0
  5 43  1  0
  6 44  1  0
 10 45  1  0
 12 46  1  0
 13 47  1  0
 16 48  1  0
 17 49  1  0
 17 50  1  0
 18 51  1  0
 18 52  1  0
 20 53  1  0
 21 54  1  0
 22 55  1  0
 23 56  1  0
 27 57  1  0
 30 58  1  0
 31 59  1  0
 32 60  1  0
 33 61  1  0
 37 62  1  0
 38 63  1  0
 39 64  1  0
 41 65  1  0
 42 66  1  0
M  CHG  2   3  -1  28  -1
M  END
>  <UniqueID>  (72) 
69

>  <SMILES>  (72) 
O=C([N-]c1ccc(F)c(Nc2ccc3c(c2)CCc2ccccc2C3=O)c1)[N-]c1ccccc1Oc1cccc(O)c1

>  <Energy>  (72) 
112.3523255698991

>  <Genealogy>  (72) 
O=C([N-]c1ccc(F)c(Nc2ccc3c(c2)CCc2ccccc2C3=O)c1)[N-]c1ccccc1Oc1cccc(O)c1 (protonated)
O=C([N-]c1ccc(F)c(Nc2ccc3c(c2)CCc2ccccc2C3=O)c1)[N-]c1ccccc1Oc1cccc(O)c1 (3D coordinates assigned)
O=C([N-]c1ccc(F)c(Nc2ccc3c(c2)CCc2ccccc2C3=O)c1)[N-]c1ccccc1Oc1cccc(O)c1 (nonaromatic ring conformer: 112.3523255698991 kcal/mol)

>  <smiles>  (72) 
O=C(Nc1ccc(F)c(Nc2ccc3c(c2)CCc2ccccc2C3=O)c1)Nc1ccccc1Oc1cccc(O)c1

>  <score_type>  (72) 
oracle

>  <origin>  (72) 
adg

>  <m_score__min__energy>  (72) 
-13.85

>  <m_primary>  (72) 
energy

$$$$
72:0
     RDKit          3D

 31 32  0  0  0  0  0  0  0  0999 V2000
   58.1110   33.7070   46.8110 C   0  0  0  0  0  0  0  0  0  0  0  0
   58.5390   32.4260   46.0870 C   0  0  1  0  0  0  0  0  0  0  0  0
   58.2020   32.5230   44.2840 S   0  0  0  0  0  0  0  0  0  0  0  0
   57.0050   31.1890   44.1930 C   0  0  0  0  0  0  0  0  0  0  0  0
   56.4110   30.8010   43.0500 N   0  0  0  0  0  0  0  0  0  0  0  0
   55.6360   29.7850   43.4750 C   0  0  0  0  0  0  0  0  0  0  0  0
   55.7640   29.5640   44.7960 N   0  0  0  0  0  0  0  0  0  0  0  0
   56.6330   30.4490   45.2500 N   0  0  0  0  0  0  0  0  0  0  0  0
   59.9730   32.0590   46.3600 C   0  0  0  0  0  0  0  0  0  0  0  0
   60.8050   32.9750   46.5950 O   0  0  0  0  0  0  0  0  0  0  0  0
   60.3580   30.6810   46.4620 N   0  0  0  0  0  0  0  0  0  0  0  0
   59.4910   29.5400   46.4090 C   0  0  0  0  0  0  0  0  0  0  0  0
   59.1850   28.9890   45.1580 C   0  0  0  0  0  0  0  0  0  0  0  0
   58.3550   27.8690   45.0610 C   0  0  0  0  0  0  0  0  0  0  0  0
   57.8370   27.2730   46.2180 C   0  0  0  0  0  0  0  0  0  0  0  0
   56.7810   25.8700   46.0930 S   0  0  0  0  0  0  0  0  0  0  0  0
   55.1360   26.3920   45.9980 N   0  0  0  0  0  0  0  0  0  0  0  0
   56.9560   24.9900   47.2990 O   0  0  0  0  0  0  0  0  0  0  0  0
   57.1290   25.0780   44.8640 O   0  0  0  0  0  0  0  0  0  0  0  0
   58.1520   27.8110   47.4730 C   0  0  0  0  0  0  0  0  0  0  0  0
   58.9820   28.9330   47.5710 C   0  0  0  0  0  0  0  0  0  0  0  0
   58.1639   33.5488   47.8983 H   0  0  0  0  0  0  0  0  0  0  0  0
   58.7828   34.5305   46.5272 H   0  0  0  0  0  0  0  0  0  0  0  0
   57.0791   33.9613   46.5272 H   0  0  0  0  0  0  0  0  0  0  0  0
   57.9222   31.6141   46.4997 H   0  0  0  0  0  0  0  0  0  0  0  0
   54.9741   29.2024   42.8174 H   0  0  0  0  0  0  0  0  0  0  0  0
   59.6010   29.4411   44.2456 H   0  0  0  0  0  0  0  0  0  0  0  0
   58.1076   27.4540   44.0728 H   0  0  0  0  0  0  0  0  0  0  0  0
   55.1490   27.4360   45.9780 H   0  0  0  0  0  0  0  0  0  0  0  0
   57.7451   27.3493   48.3847 H   0  0  0  0  0  0  0  0  0  0  0  0
   59.2372   29.3416   48.5599 H   0  0  0  0  0  0  0  0  0  0  0  0
  1  2  1  0
  2  3  1  0
  3  4  1  0
  4  5  1  0
  5  6  2  0
  6  7  1  0
  7  8  1  0
  2  9  1  0
  9 10  2  0
  9 11  1  0
 11 12  1  0
 12 13  2  0
 13 14  1  0
 14 15  2  0
 15 16  1  0
 16 17  1  0
 16 18  2  0
 16 19  2  0
 15 20  1  0
 20 21  2  0
  8  4  2  0
 21 12  1  0
  1 22  1  0
  1 23  1  0
  1 24  1  0
  2 25  1  1
  6 26  1  0
 13 27  1  0
 14 28  1  0
 17 29  1  0
 20 30  1  0
 21 31  1  0
M  CHG  3   7  -1  11  -1  17  -1
M  END
>  <UniqueID>  (73) 
70

>  <SMILES>  (73) 
C[C@@H](Sc1nc[n-]n1)C(=O)[N-]c1ccc(S([NH-])(=O)=O)cc1

>  <Energy>  (73) 
61.043409032310336

>  <Genealogy>  (73) 
CC(Sc1nc[n-]n1)C(=O)[N-]c1ccc(S([NH-])(=O)=O)cc1 (protonated)
C[C@@H](Sc1nc[n-]n1)C(=O)[N-]c1ccc(S([NH-])(=O)=O)cc1 (chirality)
C[C@@H](Sc1nc[n-]n1)C(=O)[N-]c1ccc(S([NH-])(=O)=O)cc1 (3D coordinates assigned)
C[C@@H](Sc1nc[n-]n1)C(=O)[N-]c1ccc(S([NH-])(=O)=O)cc1 (optimized conformer: 61.043409032310336 kcal/mol)

>  <smiles>  (73) 
CC(Sc1nc[nH]n1)C(=O)Nc1ccc(S(N)(=O)=O)cc1

>  <score_type>  (73) 
oracle

>  <origin>  (73) 
adg

>  <m_score__min__energy>  (73) 
-12.98

>  <m_primary>  (73) 
energy

$$$$
73:0
     RDKit          3D

 61 64  0  0  0  0  0  0  0  0999 V2000
   51.5760   23.9640   44.5040 C   0  0  0  0  0  0  0  0  0  0  0  0
   52.5510   23.0120   44.9210 O   0  0  0  0  0  0  0  0  0  0  0  0
   53.7430   23.3370   45.5790 C   0  0  0  0  0  0  0  0  0  0  0  0
   53.9990   22.9530   46.9090 C   0  0  0  0  0  0  0  0  0  0  0  0
   55.2090   23.2930   47.5160 C   0  0  0  0  0  0  0  0  0  0  0  0
   56.1680   24.0210   46.8110 C   0  0  0  0  0  0  0  0  0  0  0  0
   55.9190   24.4260   45.4910 C   0  0  0  0  0  0  0  0  0  0  0  0
   56.9610   25.1800   44.7150 C   0  0  0  0  0  0  0  0  0  0  0  0
   57.1060   26.5280   45.2720 N   0  0  0  0  0  0  0  0  0  0  0  0
   58.7880   26.9520   45.3660 S   0  0  0  0  0  0  0  0  0  0  0  0
   59.5890   25.7280   45.7050 O   0  0  0  0  0  0  0  0  0  0  0  0
   59.2480   27.4640   44.0280 O   0  0  0  0  0  0  0  0  0  0  0  0
   59.0550   28.1780   46.6020 C   0  0  0  0  0  0  0  0  0  0  0  0
   58.4400   29.4300   46.4970 C   0  0  0  0  0  0  0  0  0  0  0  0
   58.6350   30.4000   47.4800 C   0  0  0  0  0  0  0  0  0  0  0  0
   59.4500   30.1320   48.5970 C   0  0  0  0  0  0  0  0  0  0  0  0
   59.6820   31.1010   49.6010 C   0  0  0  0  0  0  0  0  0  0  0  0
   59.0040   32.7700   49.4990 S   0  0  0  0  0  0  0  0  0  0  0  0
   59.9660   33.2330   48.0140 C   0  0  0  0  0  0  0  0  0  0  0  0
   59.2080   34.2270   47.2030 C   0  0  0  0  0  0  0  0  0  0  0  0
   59.6330   35.4080   47.1120 O   0  0  0  0  0  0  0  0  0  0  0  0
   57.9990   33.8300   46.5500 N   0  0  0  0  0  0  0  0  0  0  0  0
   57.9010   33.0880   45.3300 C   0  0  0  0  0  0  0  0  0  0  0  0
   58.4950   33.6090   44.1750 C   0  0  0  0  0  0  0  0  0  0  0  0
   58.3960   32.9270   42.9600 C   0  0  0  0  0  0  0  0  0  0  0  0
   57.6910   31.7260   42.8850 C   0  0  0  0  0  0  0  0  0  0  0  0
   57.0650   31.2080   44.0260 C   0  0  0  0  0  0  0  0  0  0  0  0
   56.1660   29.6990   43.9430 S   0  0  0  0  0  0  0  0  0  0  0  0
   57.0200   28.5750   42.9500 N   0  0  0  0  0  0  0  0  0  0  0  0
   54.8030   29.9400   43.3630 O   0  0  0  0  0  0  0  0  0  0  0  0
   56.0090   29.1290   45.3270 O   0  0  0  0  0  0  0  0  0  0  0  0
   57.1670   31.8930   45.2440 C   0  0  0  0  0  0  0  0  0  0  0  0
   60.4740   30.7760   50.7120 C   0  0  0  0  0  0  0  0  0  0  0  0
   61.0620   29.5170   50.8180 C   0  0  0  0  0  0  0  0  0  0  0  0
   60.8620   28.5620   49.8230 C   0  0  0  0  0  0  0  0  0  0  0  0
   60.0580   28.8550   48.7110 C   0  0  0  0  0  0  0  0  0  0  0  0
   59.8560   27.8900   47.7120 C   0  0  0  0  0  0  0  0  0  0  0  0
   54.7090   24.0700   44.8800 C   0  0  0  0  0  0  0  0  0  0  0  0
   51.1080   24.4210   45.3884 H   0  0  0  0  0  0  0  0  0  0  0  0
   52.0612   24.7456   43.9009 H   0  0  0  0  0  0  0  0  0  0  0  0
   50.8062   23.4603   43.9009 H   0  0  0  0  0  0  0  0  0  0  0  0
   53.2439   22.3838   47.4710 H   0  0  0  0  0  0  0  0  0  0  0  0
   55.4072   22.9860   48.5535 H   0  0  0  0  0  0  0  0  0  0  0  0
   57.1231   24.2785   47.2920 H   0  0  0  0  0  0  0  0  0  0  0  0
   57.9227   24.6503   44.7822 H   0  0  0  0  0  0  0  0  0  0  0  0
   56.6534   25.2502   43.6612 H   0  0  0  0  0  0  0  0  0  0  0  0
   56.6580   27.2050   44.6080 H   0  0  0  0  0  0  0  0  0  0  0  0
   57.7974   29.6513   45.6321 H   0  0  0  0  0  0  0  0  0  0  0  0
   58.1486   31.3818   47.3822 H   0  0  0  0  0  0  0  0  0  0  0  0
   60.9255   33.6723   48.3243 H   0  0  0  0  0  0  0  0  0  0  0  0
   60.1455   32.3339   47.4062 H   0  0  0  0  0  0  0  0  0  0  0  0
   59.0432   34.5614   44.2242 H   0  0  0  0  0  0  0  0  0  0  0  0
   58.8756   33.3384   42.0596 H   0  0  0  0  0  0  0  0  0  0  0  0
   57.6265   31.1852   41.9293 H   0  0  0  0  0  0  0  0  0  0  0  0
   57.1060   27.6850   43.4970 H   0  0  0  0  0  0  0  0  0  0  0  0
   56.6689   31.4924   46.1392 H   0  0  0  0  0  0  0  0  0  0  0  0
   60.6323   31.5207   51.5059 H   0  0  0  0  0  0  0  0  0  0  0  0
   61.6867   29.2760   51.6908 H   0  0  0  0  0  0  0  0  0  0  0  0
   61.3368   27.5736   49.9098 H   0  0  0  0  0  0  0  0  0  0  0  0
   60.3303   26.9016   47.8025 H   0  0  0  0  0  0  0  0  0  0  0  0
   54.5163   24.3700   43.8394 H   0  0  0  0  0  0  0  0  0  0  0  0
  1  2  1  0
  2  3  1  0
  3  4  2  0
  4  5  1  0
  5  6  2  0
  6  7  1  0
  7  8  1  0
  8  9  1  0
  9 10  1  0
 10 11  2  0
 10 12  2  0
 10 13  1  0
 13 14  2  0
 14 15  1  0
 15 16  2  0
 16 17  1  0
 17 18  1  0
 18 19  1  0
 19 20  1  0
 20 21  2  0
 20 22  1  0
 22 23  1  0
 23 24  2  0
 24 25  1  0
 25 26  2  0
 26 27  1  0
 27 28  1  0
 28 29  1  0
 28 30  2  0
 28 31  2  0
 27 32  2  0
 17 33  2  0
 33 34  1  0
 34 35  2  0
 35 36  1  0
 36 37  2  0
  7 38  2  0
 38  3  1  0
 37 13  1  0
 36 16  1  0
 32 23  1  0
  1 39  1  0
  1 40  1  0
  1 41  1  0
  4 42  1  0
  5 43  1  0
  6 44  1  0
  8 45  1  0
  8 46  1  0
  9 47  1  0
 14 48  1  0
 15 49  1  0
 19 50  1  0
 19 51  1  0
 24 52  1  0
 25 53  1  0
 26 54  1  0
 29 55  1  0
 32 56  1  0
 33 57  1  0
 34 58  1  0
 35 59  1  0
 37 60  1  0
 38 61  1  0
M  CHG  2  22  -1  29  -1
M  END
>  <UniqueID>  (74) 
71

>  <SMILES>  (74) 
COc1cccc(CNS(=O)(=O)c2ccc3c(SCC(=O)[N-]c4cccc(S([NH-])(=O)=O)c4)cccc3c2)c1

>  <Energy>  (74) 
63.46245306559873

>  <Genealogy>  (74) 
COc1cccc(CNS(=O)(=O)c2ccc3c(SCC(=O)[N-]c4cccc(S([NH-])(=O)=O)c4)cccc3c2)c1 (protonated)
COc1cccc(CNS(=O)(=O)c2ccc3c(SCC(=O)[N-]c4cccc(S([NH-])(=O)=O)c4)cccc3c2)c1 (3D coordinates assigned)
COc1cccc(CNS(=O)(=O)c2ccc3c(SCC(=O)[N-]c4cccc(S([NH-])(=O)=O)c4)cccc3c2)c1 (optimized conformer: 63.46245306559873 kcal/mol)

>  <smiles>  (74) 
COc1cccc(CNS(=O)(=O)c2ccc3c(SCC(=O)Nc4cccc(S(N)(=O)=O)c4)cccc3c2)c1

>  <score_type>  (74) 
oracle

>  <origin>  (74) 
adg

>  <m_score__min__energy>  (74) 
-15.08

>  <m_primary>  (74) 
energy

$$$$
74:0
     RDKit          3D

 56 59  0  0  1  0  0  0  0  0999 V2000
   63.1000   33.7070   50.6710 C   0  0  0  0  0  0  0  0  0  0  0  0
   62.9460   33.2760   49.2640 C   0  0  0  0  0  0  0  0  0  0  0  0
   63.8290   33.5550   48.3010 N   0  0  0  0  0  0  0  0  0  0  0  0
   63.6350   33.1320   47.0220 C   0  0  0  0  0  0  0  0  0  0  0  0
   62.5180   32.4180   46.7470 N   0  0  0  0  0  0  0  0  0  0  0  0
   61.5930   32.1050   47.6710 C   0  0  0  0  0  0  0  0  0  0  0  0
   60.5300   31.4210   47.3900 N   0  0  0  0  0  0  0  0  0  0  0  0
   59.5530   31.9970   46.5300 C   0  0  0  0  0  0  0  0  0  0  0  0
   59.3850   33.3670   46.4670 C   0  0  0  0  0  0  0  0  0  0  0  0
   58.4200   33.8930   45.6160 C   0  0  0  0  0  0  0  0  0  0  0  0
   57.6190   33.0890   44.8260 C   0  0  0  0  0  0  0  0  0  0  0  0
   57.7960   31.7270   44.8990 C   0  0  0  0  0  0  0  0  0  0  0  0
   56.8490   30.6130   43.9550 S   0  0  0  0  0  0  0  0  0  0  0  0
   57.7320   29.1340   43.8530 N   0  0  0  0  0  0  0  0  0  0  0  0
   55.4840   30.4000   44.5380 O   0  0  0  0  0  0  0  0  0  0  0  0
   56.6820   31.1570   42.5670 O   0  0  0  0  0  0  0  0  0  0  0  0
   58.7550   31.1930   45.7440 C   0  0  0  0  0  0  0  0  0  0  0  0
   61.8050   32.5400   48.9580 C   0  0  0  0  0  0  0  0  0  0  0  0
   60.8070   32.2100   49.9820 C   0  0  0  0  0  0  0  0  0  0  0  0
   60.8790   31.0220   50.6840 C   0  0  0  0  0  0  0  0  0  0  0  0
   59.9280   30.7230   51.6490 C   0  0  0  0  0  0  0  0  0  0  0  0
   58.9260   31.6460   51.8740 C   0  0  0  0  0  0  0  0  0  0  0  0
   57.8950   31.4320   52.8510 N   0  0  0  0  0  0  0  0  0  0  0  0
   56.5880   30.9990   52.4250 C   0  0  0  0  0  0  0  0  0  0  0  0
   56.4370   30.8360   51.2010 O   0  0  0  0  0  0  0  0  0  0  0  0
   55.5710   30.7870   53.3600 N   0  0  0  0  0  0  0  0  0  0  0  0
   54.2510   30.3650   53.0900 C   0  0  0  0  0  0  0  0  0  0  0  0
   53.5960   29.3370   53.6990 C   0  0  0  0  0  0  0  0  0  0  0  0
   52.2850   28.9680   53.3850 C   0  0  0  0  0  0  0  0  0  0  0  0
   51.5880   29.6560   52.4150 C   0  0  0  0  0  0  0  0  0  0  0  0
   52.2500   30.6960   51.7980 C   0  0  0  0  0  0  0  0  0  0  0  0
   51.4050   31.5860   50.5700 Cl  0  0  0  0  0  0  0  0  0  0  0  0
   53.5420   31.0570   52.1100 C   0  0  0  0  0  0  0  0  0  0  0  0
   58.8660   32.8220   51.1710 C   0  0  0  0  0  0  0  0  0  0  0  0
   59.8060   33.1400   50.2020 C   0  0  0  0  0  0  0  0  0  0  0  0
   62.8063   32.8851   51.3405 H   0  0  0  0  0  0  0  0  0  0  0  0
   64.1499   33.9760   50.8593 H   0  0  0  0  0  0  0  0  0  0  0  0
   62.4583   34.5804   50.8593 H   0  0  0  0  0  0  0  0  0  0  0  0
   64.6890   34.1140   48.5490 H   0  0  0  0  0  0  0  0  0  0  0  0
   64.3658   33.3639   46.2332 H   0  0  0  0  0  0  0  0  0  0  0  0
   60.0072   34.0332   47.0827 H   0  0  0  0  0  0  0  0  0  0  0  0
   58.2893   34.9842   45.5695 H   0  0  0  0  0  0  0  0  0  0  0  0
   56.8620   33.5262   44.1583 H   0  0  0  0  0  0  0  0  0  0  0  0
   58.3720   29.1910   43.0320 H   0  0  0  0  0  0  0  0  0  0  0  0
   57.0420   28.3620   43.6470 H   0  0  0  0  0  0  0  0  0  0  0  0
   58.8829   30.1014   45.7890 H   0  0  0  0  0  0  0  0  0  0  0  0
   61.6927   30.3112   50.4772 H   0  0  0  0  0  0  0  0  0  0  0  0
   59.9709   29.7815   52.2162 H   0  0  0  0  0  0  0  0  0  0  0  0
   58.1150   31.5950   53.8580 H   0  0  0  0  0  0  0  0  0  0  0  0
   55.8360   30.9640   54.3780 H   0  0  0  0  0  0  0  0  0  0  0  0
   54.1260   28.7686   54.4774 H   0  0  0  0  0  0  0  0  0  0  0  0
   51.8091   28.1280   53.9123 H   0  0  0  0  0  0  0  0  0  0  0  0
   50.5553   29.3886   52.1467 H   0  0  0  0  0  0  0  0  0  0  0  0
   54.0173   31.8970   51.5822 H   0  0  0  0  0  0  0  0  0  0  0  0
   58.0517   33.5311   51.3810 H   0  0  0  0  0  0  0  0  0  0  0  0
   59.7583   34.0829   49.6374 H   0  0  0  0  0  0  0  0  0  0  0  0
  1  2  1  0
  2  3  1  0
  3  4  1  0
  4  5  2  0
  5  6  1  0
  6  7  2  0
  7  8  1  0
  8  9  2  0
  9 10  1  0
 10 11  2  0
 11 12  1  0
 12 13  1  0
 13 14  1  0
 13 15  2  0
 13 16  2  0
 12 17  2  0
  6 18  1  0
 18 19  1  0
 19 20  2  0
 20 21  1  0
 21 22  2  0
 22 23  1  0
 23 24  1  0
 24 25  2  0
 24 26  1  0
 26 27  1  0
 27 28  2  0
 28 29  1  0
 29 30  2  0
 30 31  1  0
 31 32  1  0
 31 33  2  0
 22 34  1  0
 34 35  2  0
 18  2  2  0
 35 19  1  0
 17  8  1  0
 33 27  1  0
  1 36  1  0
  1 37  1  0
  1 38  1  0
  3 39  1  0
  4 40  1  0
  9 41  1  0
 10 42  1  0
 11 43  1  0
 14 44  1  0
 14 45  1  0
 17 46  1  0
 20 47  1  0
 21 48  1  0
 23 49  1  0
 26 50  1  0
 28 51  1  0
 29 52  1  0
 30 53  1  0
 33 54  1  0
 34 55  1  0
 35 56  1  0
M  END
>  <smiles>  (75) 
Cc1[nH]cnc(=Nc2cccc(S(N)(=O)=O)c2)c1-c1ccc(NC(=O)Nc2cccc(Cl)c2)cc1

>  <score_type>  (75) 
oracle

>  <origin>  (75) 
adg

>  <m_score__min__energy>  (75) 
-11.119999999999999

>  <m_primary>  (75) 
energy

$$$$
75:0
     RDKit          3D

 39 41  0  0  0  0  0  0  0  0999 V2000
   58.2640   27.1450   46.3570 O   0  0  0  0  0  0  0  0  0  0  0  0
   58.0080   28.3150   46.7450 C   0  0  0  0  0  0  0  0  0  0  0  0
   58.2310   28.6480   48.1220 N   0  0  0  0  0  0  0  0  0  0  0  0
   59.3170   29.4320   48.6410 C   0  0  0  0  0  0  0  0  0  0  0  0
   60.4400   29.7340   47.8480 C   0  0  0  0  0  0  0  0  0  0  0  0
   61.4810   30.5110   48.3640 C   0  0  0  0  0  0  0  0  0  0  0  0
   61.4040   31.0070   49.6670 C   0  0  0  0  0  0  0  0  0  0  0  0
   60.2830   30.7330   50.4540 C   0  0  0  0  0  0  0  0  0  0  0  0
   59.2360   29.9530   49.9470 C   0  0  0  0  0  0  0  0  0  0  0  0
   58.1310   29.7020   50.7620 O   0  0  0  0  0  0  0  0  0  0  0  0
   57.5190   29.3120   45.7620 C   0  0  0  0  0  0  0  0  0  0  0  0
   58.2540   30.4920   45.5580 C   0  0  0  0  0  0  0  0  0  0  0  0
   57.8180   31.4570   44.6310 C   0  0  0  0  0  0  0  0  0  0  0  0
   58.5410   32.6740   44.3990 N   0  0  0  0  0  0  0  0  0  0  0  0
   58.4250   34.1080   45.3680 S   0  0  0  0  0  0  0  0  0  0  0  0
   58.6190   35.3180   44.4970 O   0  0  0  0  0  0  0  0  0  0  0  0
   57.0560   34.1760   45.9850 O   0  0  0  0  0  0  0  0  0  0  0  0
   59.6250   34.0550   46.6570 C   0  0  0  0  0  0  0  0  0  0  0  0
   59.2560   34.2270   47.9970 C   0  0  0  0  0  0  0  0  0  0  0  0
   60.2320   34.1980   48.9960 C   0  0  0  0  0  0  0  0  0  0  0  0
   61.5660   33.9920   48.6430 C   0  0  0  0  0  0  0  0  0  0  0  0
   61.9060   33.8250   47.3380 N   0  0  0  0  0  0  0  0  0  0  0  0
   60.9740   33.8520   46.3470 C   0  0  0  0  0  0  0  0  0  0  0  0
   56.6430   31.2290   43.9080 C   0  0  0  0  0  0  0  0  0  0  0  0
   55.8990   30.0670   44.1160 C   0  0  0  0  0  0  0  0  0  0  0  0
   56.3220   29.1140   45.0470 C   0  0  0  0  0  0  0  0  0  0  0  0
   55.5320   27.9910   45.2690 O   0  0  0  0  0  0  0  0  0  0  0  0
   60.4987   29.3564   46.8165 H   0  0  0  0  0  0  0  0  0  0  0  0
   62.3617   30.7319   47.7431 H   0  0  0  0  0  0  0  0  0  0  0  0
   62.2264   31.6137   50.0738 H   0  0  0  0  0  0  0  0  0  0  0  0
   60.2222   31.1319   51.4773 H   0  0  0  0  0  0  0  0  0  0  0  0
   57.4030   29.0480   50.5010 H   0  0  0  0  0  0  0  0  0  0  0  0
   59.1790   30.6632   46.1282 H   0  0  0  0  0  0  0  0  0  0  0  0
   58.2001   34.3846   48.2622 H   0  0  0  0  0  0  0  0  0  0  0  0
   59.9515   34.3362   50.0506 H   0  0  0  0  0  0  0  0  0  0  0  0
   62.3428   33.9648   49.4214 H   0  0  0  0  0  0  0  0  0  0  0  0
   61.2819   33.7139   45.3000 H   0  0  0  0  0  0  0  0  0  0  0  0
   56.3029   31.9707   43.1703 H   0  0  0  0  0  0  0  0  0  0  0  0
   54.9743   29.9000   43.5441 H   0  0  0  0  0  0  0  0  0  0  0  0
  1  2  2  0
  2  3  1  0
  3  4  1  0
  4  5  2  0
  5  6  1  0
  6  7  2  0
  7  8  1  0
  8  9  2  0
  9 10  1  0
  2 11  1  0
 11 12  2  0
 12 13  1  0
 13 14  1  0
 14 15  1  0
 15 16  2  0
 15 17  2  0
 15 18  1  0
 18 19  2  0
 19 20  1  0
 20 21  2  0
 21 22  1  0
 22 23  2  0
 13 24  2  0
 24 25  1  0
 25 26  2  0
 26 27  1  0
  9  4  1  0
 26 11  1  0
 23 18  1  0
  5 28  1  0
  6 29  1  0
  7 30  1  0
  8 31  1  0
 10 32  1  0
 12 33  1  0
 19 34  1  0
 20 35  1  0
 21 36  1  0
 23 37  1  0
 24 38  1  0
 25 39  1  0
M  CHG  3   3  -1  14  -1  27  -1
M  END
>  <UniqueID>  (76) 
72

>  <SMILES>  (76) 
O=C([N-]c1ccccc1O)c1cc([N-]S(=O)(=O)c2cccnc2)ccc1[O-]

>  <Energy>  (76) 
54.752344225682684

>  <Genealogy>  (76) 
O=C([N-]c1ccccc1O)c1cc([N-]S(=O)(=O)c2cccnc2)ccc1[O-] (protonated)
O=C([N-]c1ccccc1O)c1cc([N-]S(=O)(=O)c2cccnc2)ccc1[O-] (3D coordinates assigned)
O=C([N-]c1ccccc1O)c1cc([N-]S(=O)(=O)c2cccnc2)ccc1[O-] (optimized conformer: 54.752344225682684 kcal/mol)

>  <smiles>  (76) 
O=C(Nc1ccccc1O)c1cc(NS(=O)(=O)c2cccnc2)ccc1O

>  <score_type>  (76) 
oracle

>  <origin>  (76) 
adg

>  <m_score__min__energy>  (76) 
-14.58

>  <m_primary>  (76) 
energy

$$$$
76:0
     RDKit          3D

 40 42  0  0  0  0  0  0  0  0999 V2000
   57.0210   27.4000   46.6750 O   0  0  0  0  0  0  0  0  0  0  0  0
   57.5220   26.8220   45.6750 C   0  0  0  0  0  0  0  0  0  0  0  0
   57.5140   27.5220   44.3420 C   0  0  0  0  0  0  0  0  0  0  0  0
   57.4430   28.9840   44.5290 N   0  0  0  0  0  0  0  0  0  0  0  0
   58.5970   29.7250   44.5850 C   0  0  0  0  0  0  0  0  0  0  0  0
   59.7260   29.1680   44.4910 O   0  0  0  0  0  0  0  0  0  0  0  0
   58.5390   31.1100   44.7420 C   0  0  0  0  0  0  0  0  0  0  0  0
   57.2910   31.7280   44.8340 C   0  0  0  0  0  0  0  0  0  0  0  0
   57.1820   33.1570   44.9580 N   0  0  0  0  0  0  0  0  0  0  0  0
   58.1540   33.6290   45.9120 C   0  0  0  0  0  0  0  0  0  0  0  0
   58.1330   33.1630   47.2400 C   0  0  0  0  0  0  0  0  0  0  0  0
   59.0570   33.6460   48.1720 C   0  0  0  0  0  0  0  0  0  0  0  0
   60.0040   34.5980   47.7910 C   0  0  0  0  0  0  0  0  0  0  0  0
   60.0280   35.0740   46.4770 C   0  0  0  0  0  0  0  0  0  0  0  0
   59.1070   34.5960   45.5410 C   0  0  0  0  0  0  0  0  0  0  0  0
   56.1680   30.9690   44.7460 N   0  0  0  0  0  0  0  0  0  0  0  0
   56.2280   29.6210   44.5950 C   0  0  0  0  0  0  0  0  0  0  0  0
   55.1510   28.9720   44.5100 O   0  0  0  0  0  0  0  0  0  0  0  0
   58.0400   25.4940   45.8320 N   0  0  0  0  0  0  0  0  0  0  0  0
   57.6670   24.3390   45.0690 C   0  0  0  0  0  0  0  0  0  0  0  0
   56.6380   24.3890   44.1110 C   0  0  0  0  0  0  0  0  0  0  0  0
   56.3210   23.2520   43.3600 C   0  0  0  0  0  0  0  0  0  0  0  0
   57.0360   22.0660   43.5470 C   0  0  0  0  0  0  0  0  0  0  0  0
   56.7290   20.9660   42.8180 F   0  0  0  0  0  0  0  0  0  0  0  0
   58.0780   22.0190   44.4780 C   0  0  0  0  0  0  0  0  0  0  0  0
   58.3970   23.1550   45.2300 C   0  0  0  0  0  0  0  0  0  0  0  0
   58.4349   27.2709   43.7952 H   0  0  0  0  0  0  0  0  0  0  0  0
   56.6335   27.1922   43.7711 H   0  0  0  0  0  0  0  0  0  0  0  0
   59.4624   31.7056   44.7925 H   0  0  0  0  0  0  0  0  0  0  0  0
   57.3510   33.6020   44.0270 H   0  0  0  0  0  0  0  0  0  0  0  0
   56.2160   33.4220   45.2600 H   0  0  0  0  0  0  0  0  0  0  0  0
   57.3864   32.4155   47.5462 H   0  0  0  0  0  0  0  0  0  0  0  0
   59.0375   33.2750   49.2073 H   0  0  0  0  0  0  0  0  0  0  0  0
   60.7318   34.9738   48.5252 H   0  0  0  0  0  0  0  0  0  0  0  0
   60.7732   35.8263   46.1791 H   0  0  0  0  0  0  0  0  0  0  0  0
   59.1269   34.9773   44.5094 H   0  0  0  0  0  0  0  0  0  0  0  0
   56.0813   25.3243   43.9520 H   0  0  0  0  0  0  0  0  0  0  0  0
   55.5073   23.2917   42.6208 H   0  0  0  0  0  0  0  0  0  0  0  0
   58.6473   21.0885   44.6194 H   0  0  0  0  0  0  0  0  0  0  0  0
   59.2261   23.1177   45.9519 H   0  0  0  0  0  0  0  0  0  0  0  0
  1  2  2  0
  2  3  1  0
  3  4  1  0
  4  5  1  0
  5  6  2  0
  5  7  1  0
  7  8  2  0
  8  9  1  0
  9 10  1  0
 10 11  2  0
 11 12  1  0
 12 13  2  0
 13 14  1  0
 14 15  2  0
  8 16  1  0
 16 17  1  0
 17 18  2  0
  2 19  1  0
 19 20  1  0
 20 21  2  0
 21 22  1  0
 22 23  2  0
 23 24  1  0
 23 25  1  0
 25 26  2  0
 17  4  1  0
 26 20  1  0
 15 10  1  0
  3 27  1  0
  3 28  1  0
  7 29  1  0
  9 30  1  0
  9 31  1  0
 11 32  1  0
 12 33  1  0
 13 34  1  0
 14 35  1  0
 15 36  1  0
 21 37  1  0
 22 38  1  0
 25 39  1  0
 26 40  1  0
M  CHG  3   9   1  16  -1  19  -1
M  END
>  <UniqueID>  (77) 
73

>  <SMILES>  (77) 
O=C(Cn1c(=O)cc([NH2+]c2ccccc2)[n-]c1=O)[N-]c1ccc(F)cc1

>  <Energy>  (77) 
52.81879365821439

>  <Genealogy>  (77) 
O=C(Cn1c(=O)cc([NH2+]c2ccccc2)[n-]c1=O)[N-]c1ccc(F)cc1 (protonated)
O=C(Cn1c(=O)cc([NH2+]c2ccccc2)[n-]c1=O)[N-]c1ccc(F)cc1 (3D coordinates assigned)
O=C(Cn1c(=O)cc([NH2+]c2ccccc2)[n-]c1=O)[N-]c1ccc(F)cc1 (optimized conformer: 52.81879365821439 kcal/mol)

>  <smiles>  (77) 
O=C(Cn1c(=O)cc(Nc2ccccc2)[nH]c1=O)Nc1ccc(F)cc1

>  <score_type>  (77) 
oracle

>  <origin>  (77) 
adg

>  <m_score__min__energy>  (77) 
-10.199999999999999

>  <m_primary>  (77) 
energy

$$$$
77:0
     RDKit          3D

 43 45  0  0  0  0  0  0  0  0999 V2000
   60.0510   27.9600   48.0710 C   0  0  0  0  0  0  0  0  0  0  0  0
   59.6480   28.6960   46.8820 N   0  0  0  0  0  0  0  0  0  0  0  0
   58.4520   29.2820   46.6880 C   0  0  0  0  0  0  0  0  0  0  0  0
   58.4480   29.8060   45.4160 C   0  0  0  0  0  0  0  0  0  0  0  0
   57.1350   30.6680   44.6350 S   0  0  0  0  0  0  0  0  0  0  0  0
   55.8460   29.9290   44.8650 O   0  0  0  0  0  0  0  0  0  0  0  0
   57.4140   30.7350   43.1580 O   0  0  0  0  0  0  0  0  0  0  0  0
   57.0170   32.2810   45.2940 N   0  0  0  0  0  0  0  0  0  0  0  0
   57.4090   33.3000   44.2870 C   0  0  0  0  0  0  0  0  0  0  0  0
   58.8240   33.8510   44.5150 C   0  0  0  0  0  0  0  0  0  0  0  0
   58.9460   34.5170   45.9070 C   0  0  0  0  0  0  0  0  0  0  0  0
   60.4310   34.5720   46.3340 C   0  0  0  0  0  0  0  0  0  0  0  0
   60.7740   33.5110   47.3500 C   0  0  0  0  0  0  0  0  0  0  0  0
   61.1540   32.2210   46.9380 C   0  0  0  0  0  0  0  0  0  0  0  0
   61.4620   31.2400   47.8840 C   0  0  0  0  0  0  0  0  0  0  0  0
   61.3940   31.5370   49.2480 C   0  0  0  0  0  0  0  0  0  0  0  0
   61.0200   32.8160   49.6680 C   0  0  0  0  0  0  0  0  0  0  0  0
   60.7120   33.8000   48.7240 C   0  0  0  0  0  0  0  0  0  0  0  0
   58.0550   33.8070   46.9620 C   0  0  0  0  0  0  0  0  0  0  0  0
   57.7670   32.3560   46.5660 C   0  0  0  0  0  0  0  0  0  0  0  0
   59.6790   29.4930   44.8780 C   0  0  0  0  0  0  0  0  0  0  0  0
   60.3930   28.8050   45.7910 N   0  0  0  0  0  0  0  0  0  0  0  0
   59.7456   28.5178   48.9686 H   0  0  0  0  0  0  0  0  0  0  0  0
   59.5682   26.9716   48.0716 H   0  0  0  0  0  0  0  0  0  0  0  0
   61.1438   27.8343   48.0716 H   0  0  0  0  0  0  0  0  0  0  0  0
   57.6276   29.3327   47.4145 H   0  0  0  0  0  0  0  0  0  0  0  0
   57.3678   32.8407   43.2883 H   0  0  0  0  0  0  0  0  0  0  0  0
   56.7076   34.1424   44.3791 H   0  0  0  0  0  0  0  0  0  0  0  0
   59.5465   33.0242   44.4479 H   0  0  0  0  0  0  0  0  0  0  0  0
   59.0313   34.6095   43.7458 H   0  0  0  0  0  0  0  0  0  0  0  0
   58.5729   35.5495   45.8387 H   0  0  0  0  0  0  0  0  0  0  0  0
   61.0607   34.4262   45.4439 H   0  0  0  0  0  0  0  0  0  0  0  0
   60.6118   35.5530   46.7976 H   0  0  0  0  0  0  0  0  0  0  0  0
   61.2090   31.9832   45.8654 H   0  0  0  0  0  0  0  0  0  0  0  0
   61.7583   30.2330   47.5550 H   0  0  0  0  0  0  0  0  0  0  0  0
   61.6352   30.7631   49.9916 H   0  0  0  0  0  0  0  0  0  0  0  0
   60.9679   33.0488   50.7418 H   0  0  0  0  0  0  0  0  0  0  0  0
   60.4194   34.8062   49.0585 H   0  0  0  0  0  0  0  0  0  0  0  0
   58.5728   33.8169   47.9325 H   0  0  0  0  0  0  0  0  0  0  0  0
   57.0976   34.3450   47.0244 H   0  0  0  0  0  0  0  0  0  0  0  0
   58.7210   31.8207   46.4507 H   0  0  0  0  0  0  0  0  0  0  0  0
   57.1541   31.8974   47.3560 H   0  0  0  0  0  0  0  0  0  0  0  0
   60.0222   29.7613   43.8679 H   0  0  0  0  0  0  0  0  0  0  0  0
  1  2  1  0
  2  3  1  0
  3  4  2  0
  4  5  1  0
  5  6  2  0
  5  7  2  0
  5  8  1  0
  8  9  1  0
  9 10  1  0
 10 11  1  0
 11 12  1  0
 12 13  1  0
 13 14  2  0
 14 15  1  0
 15 16  2  0
 16 17  1  0
 17 18  2  0
 11 19  1  0
 19 20  1  0
  4 21  1  0
 21 22  2  0
 22  2  1  0
 20  8  1  0
 18 13  1  0
  1 23  1  0
  1 24  1  0
  1 25  1  0
  3 26  1  0
  9 27  1  0
  9 28  1  0
 10 29  1  0
 10 30  1  0
 11 31  1  0
 12 32  1  0
 12 33  1  0
 14 34  1  0
 15 35  1  0
 16 36  1  0
 17 37  1  0
 18 38  1  0
 19 39  1  0
 19 40  1  0
 20 41  1  0
 20 42  1  0
 21 43  1  0
M  END
>  <UniqueID>  (78) 
74

>  <SMILES>  (78) 
Cn1cc(S(=O)(=O)N2CCC(Cc3ccccc3)CC2)cn1

>  <Energy>  (78) 
78.01911934542383

>  <Genealogy>  (78) 
Cn1cc(S(=O)(=O)N2CCC(Cc3ccccc3)CC2)cn1 (3D coordinates assigned)
Cn1cc(S(=O)(=O)N2CCC(Cc3ccccc3)CC2)cn1 (nonaromatic ring conformer: 78.01911934542383 kcal/mol)

>  <smiles>  (78) 
Cn1cc(S(=O)(=O)N2CCC(Cc3ccccc3)CC2)cn1

>  <score_type>  (78) 
oracle

>  <origin>  (78) 
adg

>  <m_score__min__energy>  (78) 
-7.9400000000000004

>  <m_primary>  (78) 
energy

$$$$
78:0
     RDKit          3D

 55 58  0  0  0  0  0  0  0  0999 V2000
   57.3690   32.3770   40.7800 C   0  0  0  0  0  0  0  0  0  0  0  0
   58.2820   32.2290   41.8420 O   0  0  0  0  0  0  0  0  0  0  0  0
   57.6380   31.6070   42.9300 C   0  0  0  0  0  0  0  0  0  0  0  0
   58.0880   32.2550   44.2020 C   0  0  0  0  0  0  0  0  0  0  0  0
   58.6500   33.8460   44.3080 S   0  0  0  0  0  0  0  0  0  0  0  0
   58.9450   33.7940   45.9580 C   0  0  0  0  0  0  0  0  0  0  0  0
   59.4210   34.8160   46.7750 C   0  0  0  0  0  0  0  0  0  0  0  0
   59.5630   34.5590   48.1460 C   0  0  0  0  0  0  0  0  0  0  0  0
   59.2210   33.2980   48.6700 C   0  0  0  0  0  0  0  0  0  0  0  0
   58.7420   32.2830   47.8270 C   0  0  0  0  0  0  0  0  0  0  0  0
   58.6210   32.5370   46.4550 C   0  0  0  0  0  0  0  0  0  0  0  0
   58.1670   31.6470   45.4640 C   0  0  0  0  0  0  0  0  0  0  0  0
   57.7760   30.2440   45.7100 C   0  0  0  0  0  0  0  0  0  0  0  0
   56.6590   29.8580   45.2690 O   0  0  0  0  0  0  0  0  0  0  0  0
   58.6510   29.3040   46.3810 N   0  0  0  0  0  0  0  0  0  0  0  0
   60.1010   29.5650   46.4140 C   0  0  0  0  0  0  0  0  0  0  0  0
   60.6600   29.4820   47.8420 C   0  0  0  0  0  0  0  0  0  0  0  0
   61.5580   30.6490   48.1670 C   0  0  0  0  0  0  0  0  0  0  0  0
   62.0960   31.4380   47.1370 C   0  0  0  0  0  0  0  0  0  0  0  0
   62.9600   32.4950   47.4370 C   0  0  0  0  0  0  0  0  0  0  0  0
   63.2840   32.7810   48.7660 C   0  0  0  0  0  0  0  0  0  0  0  0
   64.1230   33.8070   49.0530 F   0  0  0  0  0  0  0  0  0  0  0  0
   62.7390   32.0120   49.7970 C   0  0  0  0  0  0  0  0  0  0  0  0
   61.8770   30.9520   49.5010 C   0  0  0  0  0  0  0  0  0  0  0  0
   58.1220   28.1440   47.1220 C   0  0  0  0  0  0  0  0  0  0  0  0
   57.7380   27.0280   46.1870 C   0  0  0  0  0  0  0  0  0  0  0  0
   58.1380   27.0550   44.8400 C   0  0  0  0  0  0  0  0  0  0  0  0
   57.7780   26.0160   43.9770 C   0  0  0  0  0  0  0  0  0  0  0  0
   57.0310   24.9350   44.4540 C   0  0  0  0  0  0  0  0  0  0  0  0
   56.5720   23.6370   43.3680 Cl  0  0  0  0  0  0  0  0  0  0  0  0
   56.6480   24.8900   45.7980 C   0  0  0  0  0  0  0  0  0  0  0  0
   56.9970   25.9330   46.6620 C   0  0  0  0  0  0  0  0  0  0  0  0
   56.3593   32.5407   41.1846 H   0  0  0  0  0  0  0  0  0  0  0  0
   57.6610   33.2395   40.1629 H   0  0  0  0  0  0  0  0  0  0  0  0
   57.3736   31.4664   40.1629 H   0  0  0  0  0  0  0  0  0  0  0  0
   56.5486   31.7180   42.8255 H   0  0  0  0  0  0  0  0  0  0  0  0
   57.8932   30.5372   42.9490 H   0  0  0  0  0  0  0  0  0  0  0  0
   59.6790   35.7997   46.3557 H   0  0  0  0  0  0  0  0  0  0  0  0
   59.9430   35.3455   48.8145 H   0  0  0  0  0  0  0  0  0  0  0  0
   59.3299   33.1067   49.7477 H   0  0  0  0  0  0  0  0  0  0  0  0
   58.4653   31.3011   48.2385 H   0  0  0  0  0  0  0  0  0  0  0  0
   60.6119   28.8193   45.7871 H   0  0  0  0  0  0  0  0  0  0  0  0
   60.2751   30.5832   46.0359 H   0  0  0  0  0  0  0  0  0  0  0  0
   59.8199   29.4721   48.5520 H   0  0  0  0  0  0  0  0  0  0  0  0
   61.2579   28.5619   47.9193 H   0  0  0  0  0  0  0  0  0  0  0  0
   61.8363   31.2232   46.0899 H   0  0  0  0  0  0  0  0  0  0  0  0
   63.3858   33.1030   46.6252 H   0  0  0  0  0  0  0  0  0  0  0  0
   62.9885   32.2409   50.8436 H   0  0  0  0  0  0  0  0  0  0  0  0
   61.4465   30.3524   50.3166 H   0  0  0  0  0  0  0  0  0  0  0  0
   58.8933   27.7803   47.8168 H   0  0  0  0  0  0  0  0  0  0  0  0
   57.2235   28.4624   47.6710 H   0  0  0  0  0  0  0  0  0  0  0  0
   58.7369   27.8973   44.4633 H   0  0  0  0  0  0  0  0  0  0  0  0
   58.0831   26.0491   42.9207 H   0  0  0  0  0  0  0  0  0  0  0  0
   56.0714   24.0331   46.1764 H   0  0  0  0  0  0  0  0  0  0  0  0
   56.6901   25.8958   47.7177 H   0  0  0  0  0  0  0  0  0  0  0  0
  1  2  1  0
  2  3  1  0
  3  4  1  0
  4  5  1  0
  5  6  1  0
  6  7  2  0
  7  8  1  0
  8  9  2  0
  9 10  1  0
 10 11  2  0
 11 12  1  0
 12 13  1  0
 13 14  2  0
 13 15  1  0
 15 16  1  0
 16 17  1  0
 17 18  1  0
 18 19  2  0
 19 20  1  0
 20 21  2  0
 21 22  1  0
 21 23  1  0
 23 24  2  0
 15 25  1  0
 25 26  1  0
 26 27  2  0
 27 28  1  0
 28 29  2  0
 29 30  1  0
 29 31  1  0
 31 32  2  0
 12  4  2  0
 24 18  1  0
 32 26  1  0
 11  6  1  0
  1 33  1  0
  1 34  1  0
  1 35  1  0
  3 36  1  0
  3 37  1  0
  7 38  1  0
  8 39  1  0
  9 40  1  0
 10 41  1  0
 16 42  1  0
 16 43  1  0
 17 44  1  0
 17 45  1  0
 19 46  1  0
 20 47  1  0
 23 48  1  0
 24 49  1  0
 25 50  1  0
 25 51  1  0
 27 52  1  0
 28 53  1  0
 31 54  1  0
 32 55  1  0
M  END
>  <UniqueID>  (79) 
75

>  <SMILES>  (79) 
COCc1sc2ccccc2c1C(=O)N(CCc1ccc(F)cc1)Cc1ccc(Cl)cc1

>  <Energy>  (79) 
86.20547116924949

>  <Genealogy>  (79) 
COCc1sc2ccccc2c1C(=O)N(CCc1ccc(F)cc1)Cc1ccc(Cl)cc1 (3D coordinates assigned)
COCc1sc2ccccc2c1C(=O)N(CCc1ccc(F)cc1)Cc1ccc(Cl)cc1 (optimized conformer: 86.20547116924949 kcal/mol)

>  <smiles>  (79) 
COCc1sc2ccccc2c1C(=O)N(CCc1ccc(F)cc1)Cc1ccc(Cl)cc1

>  <score_type>  (79) 
oracle

>  <origin>  (79) 
adg

>  <m_score__min__energy>  (79) 
-9.1600000000000001

>  <m_primary>  (79) 
energy

$$$$
79:0
     RDKit          3D

 39 41  0  0  0  0  0  0  0  0999 V2000
   55.3810   23.8150   45.4280 C   0  0  0  0  0  0  0  0  0  0  0  0
   55.9380   25.3960   46.0280 S   0  0  0  0  0  0  0  0  0  0  0  0
   56.4380   25.2870   47.4410 O   0  0  0  0  0  0  0  0  0  0  0  0
   54.7710   26.3420   46.0040 O   0  0  0  0  0  0  0  0  0  0  0  0
   57.1810   26.0330   44.9960 N   0  0  0  0  0  0  0  0  0  0  0  0
   57.7160   27.3640   44.9860 C   0  0  0  0  0  0  0  0  0  0  0  0
   59.1090   27.5030   44.9250 C   0  0  0  0  0  0  0  0  0  0  0  0
   59.6990   28.7660   44.9200 C   0  0  0  0  0  0  0  0  0  0  0  0
   58.9050   29.9120   44.9660 C   0  0  0  0  0  0  0  0  0  0  0  0
   57.5030   29.8000   45.0040 C   0  0  0  0  0  0  0  0  0  0  0  0
   56.6580   30.9230   45.0280 O   0  0  0  0  0  0  0  0  0  0  0  0
   57.0250   32.2410   44.6200 C   0  0  0  0  0  0  0  0  0  0  0  0
   57.9690   32.8660   45.6130 C   0  0  0  0  0  0  0  0  0  0  0  0
   58.8540   33.8790   45.2130 C   0  0  0  0  0  0  0  0  0  0  0  0
   59.7360   34.4550   46.1320 C   0  0  0  0  0  0  0  0  0  0  0  0
   59.7510   34.0180   47.4640 C   0  0  0  0  0  0  0  0  0  0  0  0
   60.6300   34.5910   48.3960 C   0  0  0  0  0  0  0  0  0  0  0  0
   60.6360   34.1440   49.7200 C   0  0  0  0  0  0  0  0  0  0  0  0
   59.7690   33.1250   50.1240 C   0  0  0  0  0  0  0  0  0  0  0  0
   58.8880   32.5460   49.2060 C   0  0  0  0  0  0  0  0  0  0  0  0
   58.8710   32.9860   47.8720 C   0  0  0  0  0  0  0  0  0  0  0  0
   57.9910   32.4130   46.9420 C   0  0  0  0  0  0  0  0  0  0  0  0
   56.9130   28.5260   45.0130 C   0  0  0  0  0  0  0  0  0  0  0  0
   55.5610   28.4520   45.0040 F   0  0  0  0  0  0  0  0  0  0  0  0
   55.1502   23.1598   46.2809 H   0  0  0  0  0  0  0  0  0  0  0  0
   54.4772   23.9527   44.8162 H   0  0  0  0  0  0  0  0  0  0  0  0
   56.1715   23.3558   44.8162 H   0  0  0  0  0  0  0  0  0  0  0  0
   59.7438   26.6058   44.8806 H   0  0  0  0  0  0  0  0  0  0  0  0
   60.7943   28.8592   44.8796 H   0  0  0  0  0  0  0  0  0  0  0  0
   59.3762   30.9059   44.9726 H   0  0  0  0  0  0  0  0  0  0  0  0
   57.5171   32.1903   43.6375 H   0  0  0  0  0  0  0  0  0  0  0  0
   56.1159   32.8576   44.5621 H   0  0  0  0  0  0  0  0  0  0  0  0
   58.8537   34.2225   44.1680 H   0  0  0  0  0  0  0  0  0  0  0  0
   60.4202   35.2535   45.8091 H   0  0  0  0  0  0  0  0  0  0  0  0
   61.3151   35.3930   48.0839 H   0  0  0  0  0  0  0  0  0  0  0  0
   61.3262   34.5962   50.4475 H   0  0  0  0  0  0  0  0  0  0  0  0
   59.7799   32.7775   51.1676 H   0  0  0  0  0  0  0  0  0  0  0  0
   58.2070   31.7447   49.5287 H   0  0  0  0  0  0  0  0  0  0  0  0
   57.3144   31.6043   47.2555 H   0  0  0  0  0  0  0  0  0  0  0  0
  1  2  1  0
  2  3  2  0
  2  4  2  0
  2  5  1  0
  5  6  1  0
  6  7  2  0
  7  8  1  0
  8  9  2  0
  9 10  1  0
 10 11  1  0
 11 12  1  0
 12 13  1  0
 13 14  2  0
 14 15  1  0
 15 16  2  0
 16 17  1  0
 17 18  2  0
 18 19  1  0
 19 20  2  0
 20 21  1  0
 21 22  2  0
 10 23  2  0
 23 24  1  0
 23  6  1  0
 22 13  1  0
 21 16  1  0
  1 25  1  0
  1 26  1  0
  1 27  1  0
  7 28  1  0
  8 29  1  0
  9 30  1  0
 12 31  1  0
 12 32  1  0
 14 33  1  0
 15 34  1  0
 17 35  1  0
 18 36  1  0
 19 37  1  0
 20 38  1  0
 22 39  1  0
M  CHG  1   5  -1
M  END
>  <UniqueID>  (80) 
76

>  <SMILES>  (80) 
CS(=O)(=O)[N-]c1cccc(OCc2ccc3ccccc3c2)c1F

>  <Energy>  (80) 
46.40339819027928

>  <Genealogy>  (80) 
CS(=O)(=O)[N-]c1cccc(OCc2ccc3ccccc3c2)c1F (protonated)
CS(=O)(=O)[N-]c1cccc(OCc2ccc3ccccc3c2)c1F (3D coordinates assigned)
CS(=O)(=O)[N-]c1cccc(OCc2ccc3ccccc3c2)c1F (optimized conformer: 46.40339819027928 kcal/mol)

>  <smiles>  (80) 
CS(=O)(=O)Nc1cccc(OCc2ccc3ccccc3c2)c1F

>  <score_type>  (80) 
oracle

>  <origin>  (80) 
adg

>  <m_score__min__energy>  (80) 
-10.949999999999999

>  <m_primary>  (80) 
energy

$$$$
80:0
     RDKit          3D

 28 29  0  0  0  0  0  0  0  0999 V2000
   57.4120   31.1400   45.9090 O   0  0  0  0  0  0  0  0  0  0  0  0
   57.6860   31.1730   44.6620 C   0  0  0  0  0  0  0  0  0  0  0  0
   57.7700   32.4980   43.9850 C   0  0  0  0  0  0  0  0  0  0  0  0
   58.2510   33.5350   44.9060 C   0  0  0  0  0  0  0  0  0  0  0  0
   59.1710   34.5390   44.6550 C   0  0  0  0  0  0  0  0  0  0  0  0
   59.2660   35.2340   45.8470 C   0  0  0  0  0  0  0  0  0  0  0  0
   60.0220   36.2470   46.0260 O   0  0  0  0  0  0  0  0  0  0  0  0
   58.4400   34.6650   46.7570 N   0  0  0  0  0  0  0  0  0  0  0  0
   57.8310   33.6460   46.1920 N   0  0  0  0  0  0  0  0  0  0  0  0
   57.9130   29.9870   43.9190 N   0  0  0  0  0  0  0  0  0  0  0  0
   57.8260   28.7150   44.5980 C   0  0  0  0  0  0  0  0  0  0  0  0
   58.9450   27.9090   44.5900 C   0  0  0  0  0  0  0  0  0  0  0  0
   58.9280   26.6820   45.2210 C   0  0  0  0  0  0  0  0  0  0  0  0
   57.7650   26.2960   45.8510 C   0  0  0  0  0  0  0  0  0  0  0  0
   56.6330   27.1000   45.8660 C   0  0  0  0  0  0  0  0  0  0  0  0
   56.6510   28.3360   45.2290 C   0  0  0  0  0  0  0  0  0  0  0  0
   55.5410   29.1700   45.2210 O   0  0  0  0  0  0  0  0  0  0  0  0
   58.4640   32.4232   43.1348 H   0  0  0  0  0  0  0  0  0  0  0  0
   56.7635   32.7776   43.6405 H   0  0  0  0  0  0  0  0  0  0  0  0
   59.7074   34.7394   43.7158 H   0  0  0  0  0  0  0  0  0  0  0  0
   58.3080   34.9810   47.7390 H   0  0  0  0  0  0  0  0  0  0  0  0
   57.1370   33.0350   46.6820 H   0  0  0  0  0  0  0  0  0  0  0  0
   58.1350   30.0430   42.9010 H   0  0  0  0  0  0  0  0  0  0  0  0
   59.8576   28.2467   44.0770 H   0  0  0  0  0  0  0  0  0  0  0  0
   59.8155   26.0321   45.2211 H   0  0  0  0  0  0  0  0  0  0  0  0
   57.7323   25.3203   46.3580 H   0  0  0  0  0  0  0  0  0  0  0  0
   55.7228   26.7595   46.3813 H   0  0  0  0  0  0  0  0  0  0  0  0
   55.5280   30.0930   45.6290 H   0  0  0  0  0  0  0  0  0  0  0  0
  1  2  2  0
  2  3  1  0
  3  4  1  0
  4  5  2  0
  5  6  1  0
  6  7  2  0
  6  8  1  0
  8  9  1  0
  2 10  1  0
 10 11  1  0
 11 12  2  0
 12 13  1  0
 13 14  2  0
 14 15  1  0
 15 16  2  0
 16 17  1  0
  9  4  1  0
 16 11  1  0
  3 18  1  0
  3 19  1  0
  5 20  1  0
  8 21  1  0
  9 22  1  0
 10 23  1  0
 12 24  1  0
 13 25  1  0
 14 26  1  0
 15 27  1  0
 17 28  1  0
M  END
>  <smiles>  (81) 
O=C(Cc1cc(=O)[nH][nH]1)Nc1ccccc1O

>  <score_type>  (81) 
oracle

>  <origin>  (81) 
adg

>  <m_score__min__energy>  (81) 
-7.2199999999999998

>  <m_primary>  (81) 
energy

$$$$
81:0
     RDKit          3D

 46 48  0  0  0  0  0  0  0  0999 V2000
   57.4150   21.9870   46.2210 C   0  0  0  0  0  0  0  0  0  0  0  0
   57.1070   23.0220   47.1970 N   0  0  0  0  0  0  0  0  0  0  0  0
   56.2630   24.1370   46.9010 C   0  0  0  0  0  0  0  0  0  0  0  0
   55.0160   24.0420   47.0660 O   0  0  0  0  0  0  0  0  0  0  0  0
   56.8400   25.3870   46.3560 C   0  0  0  0  0  0  0  0  0  0  0  0
   58.2330   25.5020   46.2220 C   0  0  0  0  0  0  0  0  0  0  0  0
   58.8040   26.6840   45.7530 C   0  0  0  0  0  0  0  0  0  0  0  0
   57.9950   27.7720   45.4270 C   0  0  0  0  0  0  0  0  0  0  0  0
   56.6050   27.6900   45.5620 C   0  0  0  0  0  0  0  0  0  0  0  0
   55.8230   28.8490   45.2330 N   0  0  0  0  0  0  0  0  0  0  0  0
   56.0940   29.8290   44.2210 C   0  0  0  0  0  0  0  0  0  0  0  0
   56.0290   29.4860   43.0130 O   0  0  0  0  0  0  0  0  0  0  0  0
   56.4360   31.1870   44.5350 N   0  0  0  0  0  0  0  0  0  0  0  0
   57.6220   31.6350   45.2010 C   0  0  0  0  0  0  0  0  0  0  0  0
   58.5180   30.6820   45.6970 C   0  0  0  0  0  0  0  0  0  0  0  0
   59.7120   31.0830   46.2980 C   0  0  0  0  0  0  0  0  0  0  0  0
   60.0130   32.4440   46.4300 C   0  0  0  0  0  0  0  0  0  0  0  0
   61.5540   32.9210   47.1300 S   0  0  0  0  0  0  0  0  0  0  0  0
   62.4440   31.7280   47.3390 O   0  0  0  0  0  0  0  0  0  0  0  0
   62.2400   33.8880   46.2070 O   0  0  0  0  0  0  0  0  0  0  0  0
   61.2550   33.6880   48.6520 N   0  0  0  0  0  0  0  0  0  0  0  0
   59.9830   33.6250   49.2990 C   0  0  0  0  0  0  0  0  0  0  0  0
   59.3150   34.6770   49.4900 O   0  0  0  0  0  0  0  0  0  0  0  0
   59.4560   32.3310   49.7430 C   0  0  0  0  0  0  0  0  0  0  0  0
   60.0710   31.1060   49.5510 C   0  0  0  0  0  0  0  0  0  0  0  0
   59.2310   30.1640   50.1030 C   0  0  0  0  0  0  0  0  0  0  0  0
   58.1560   30.8700   50.6000 C   0  0  0  0  0  0  0  0  0  0  0  0
   57.0680   30.2950   51.2450 O   0  0  0  0  0  0  0  0  0  0  0  0
   58.2790   32.1940   50.3860 N   0  0  0  0  0  0  0  0  0  0  0  0
   59.0980   33.4030   45.9760 C   0  0  0  0  0  0  0  0  0  0  0  0
   57.9030   33.0020   45.3720 C   0  0  0  0  0  0  0  0  0  0  0  0
   56.0190   26.4740   45.9790 C   0  0  0  0  0  0  0  0  0  0  0  0
   54.6340   26.3350   45.9810 O   0  0  0  0  0  0  0  0  0  0  0  0
   57.6909   21.0598   46.7445 H   0  0  0  0  0  0  0  0  0  0  0  0
   56.5326   21.8034   45.5904 H   0  0  0  0  0  0  0  0  0  0  0  0
   58.2543   22.3157   45.5904 H   0  0  0  0  0  0  0  0  0  0  0  0
   58.8788   24.6526   46.4893 H   0  0  0  0  0  0  0  0  0  0  0  0
   59.8956   26.7587   45.6398 H   0  0  0  0  0  0  0  0  0  0  0  0
   58.4535   28.7023   45.0607 H   0  0  0  0  0  0  0  0  0  0  0  0
   58.2802   29.6113   45.6129 H   0  0  0  0  0  0  0  0  0  0  0  0
   60.4194   30.3269   46.6694 H   0  0  0  0  0  0  0  0  0  0  0  0
   61.0364   30.9217   49.0570 H   0  0  0  0  0  0  0  0  0  0  0  0
   59.3856   29.0755   50.1396 H   0  0  0  0  0  0  0  0  0  0  0  0
   56.9410   29.2900   51.2470 H   0  0  0  0  0  0  0  0  0  0  0  0
   59.3205   34.4736   46.0951 H   0  0  0  0  0  0  0  0  0  0  0  0
   57.1807   33.7577   45.0296 H   0  0  0  0  0  0  0  0  0  0  0  0
  1  2  1  0
  2  3  1  0
  3  4  2  0
  3  5  1  0
  5  6  2  0
  6  7  1  0
  7  8  2  0
  8  9  1  0
  9 10  1  0
 10 11  1  0
 11 12  2  0
 11 13  1  0
 13 14  1  0
 14 15  2  0
 15 16  1  0
 16 17  2  0
 17 18  1  0
 18 19  2  0
 18 20  2  0
 18 21  1  0
 21 22  1  0
 22 23  2  0
 22 24  1  0
 24 25  2  0
 25 26  1  0
 26 27  2  0
 27 28  1  0
 27 29  1  0
 17 30  1  0
 30 31  2  0
  9 32  2  0
 32 33  1  0
 32  5  1  0
 31 14  1  0
 29 24  1  0
  1 34  1  0
  1 35  1  0
  1 36  1  0
  6 37  1  0
  7 38  1  0
  8 39  1  0
 15 40  1  0
 16 41  1  0
 25 42  1  0
 26 43  1  0
 28 44  1  0
 30 45  1  0
 31 46  1  0
M  CHG  6   2  -1  10  -1  13  -1  21  -1  29  -1  33  -1
M  END
>  <UniqueID>  (82) 
77

>  <SMILES>  (82) 
C[N-]C(=O)c1cccc([N-]C(=O)[N-]c2ccc(S(=O)(=O)[N-]C(=O)c3ccc(O)[n-]3)cc2)c1[O-]

>  <Energy>  (82) 
79.19875419097058

>  <Genealogy>  (82) 
C[N-]C(=O)c1cccc([N-]C(=O)[N-]c2ccc(S(=O)(=O)[N-]C(=O)c3ccc(O)[n-]3)cc2)c1[O-] (protonated)
C[N-]C(=O)c1cccc([N-]C(=O)[N-]c2ccc(S(=O)(=O)[N-]C(=O)c3ccc(O)[n-]3)cc2)c1[O-] (3D coordinates assigned)
C[N-]C(=O)c1cccc([N-]C(=O)[N-]c2ccc(S(=O)(=O)[N-]C(=O)c3ccc(O)[n-]3)cc2)c1[O-] (optimized conformer: 79.19875419097058 kcal/mol)

>  <smiles>  (82) 
CNC(=O)c1cccc(NC(=O)Nc2ccc(S(=O)(=O)NC(=O)c3ccc(O)[nH]3)cc2)c1O

>  <score_type>  (82) 
oracle

>  <origin>  (82) 
adg

>  <m_score__min__energy>  (82) 
-19.52

>  <m_primary>  (82) 
energy

$$$$
82:0
     RDKit          3D

 43 45  0  0  0  0  0  0  0  0999 V2000
   50.7110   33.1440   52.1880 O   0  0  0  0  0  0  0  0  0  0  0  0
   51.3320   32.3370   51.4460 C   0  0  0  0  0  0  0  0  0  0  0  0
   51.4020   32.5960   50.0830 O   0  0  0  0  0  0  0  0  0  0  0  0
   51.9750   31.1320   52.0140 C   0  0  0  0  0  0  0  0  0  0  0  0
   51.1990   30.0550   52.4740 C   0  0  0  0  0  0  0  0  0  0  0  0
   51.8120   28.9210   53.0130 C   0  0  0  0  0  0  0  0  0  0  0  0
   53.2040   28.8530   53.1120 C   0  0  0  0  0  0  0  0  0  0  0  0
   53.7740   27.7460   53.6520 F   0  0  0  0  0  0  0  0  0  0  0  0
   53.9940   29.9260   52.6690 C   0  0  0  0  0  0  0  0  0  0  0  0
   55.7510   29.8970   52.8330 S   0  0  0  0  0  0  0  0  0  0  0  0
   56.2010   30.7160   54.0130 O   0  0  0  0  0  0  0  0  0  0  0  0
   56.1980   28.4740   53.0150 O   0  0  0  0  0  0  0  0  0  0  0  0
   56.4710   30.5430   51.3910 N   0  0  0  0  0  0  0  0  0  0  0  0
   57.5580   31.4800   51.3830 C   0  0  0  0  0  0  0  0  0  0  0  0
   57.4530   32.7200   52.0340 C   0  0  0  0  0  0  0  0  0  0  0  0
   58.5000   33.6390   51.9740 C   0  0  0  0  0  0  0  0  0  0  0  0
   59.6530   33.3410   51.2500 C   0  0  0  0  0  0  0  0  0  0  0  0
   59.7730   32.1100   50.5820 C   0  0  0  0  0  0  0  0  0  0  0  0
   60.9180   31.8050   49.7730 N   0  0  0  0  0  0  0  0  0  0  0  0
   60.8600   31.4990   48.0660 S   0  0  0  0  0  0  0  0  0  0  0  0
   62.2290   31.7310   47.4880 O   0  0  0  0  0  0  0  0  0  0  0  0
   60.4600   30.0720   47.8260 O   0  0  0  0  0  0  0  0  0  0  0  0
   59.6780   32.5620   47.2970 C   0  0  0  0  0  0  0  0  0  0  0  0
   58.5650   32.0100   46.6460 C   0  0  0  0  0  0  0  0  0  0  0  0
   57.6540   32.8350   45.9810 C   0  0  0  0  0  0  0  0  0  0  0  0
   57.8520   34.2180   45.9590 C   0  0  0  0  0  0  0  0  0  0  0  0
   58.9500   34.7780   46.6180 C   0  0  0  0  0  0  0  0  0  0  0  0
   59.8580   33.9560   47.2950 C   0  0  0  0  0  0  0  0  0  0  0  0
   60.9100   34.5220   47.9390 F   0  0  0  0  0  0  0  0  0  0  0  0
   58.7350   31.1700   50.6710 C   0  0  0  0  0  0  0  0  0  0  0  0
   58.8770   29.9430   50.0190 O   0  0  0  0  0  0  0  0  0  0  0  0
   53.3740   31.0540   52.1070 C   0  0  0  0  0  0  0  0  0  0  0  0
   50.1020   30.1048   52.4094 H   0  0  0  0  0  0  0  0  0  0  0  0
   51.1962   28.0784   53.3608 H   0  0  0  0  0  0  0  0  0  0  0  0
   56.5395   32.9677   52.5945 H   0  0  0  0  0  0  0  0  0  0  0  0
   58.4157   34.6017   52.4995 H   0  0  0  0  0  0  0  0  0  0  0  0
   60.4730   34.0726   51.2011 H   0  0  0  0  0  0  0  0  0  0  0  0
   58.4083   30.9213   46.6590 H   0  0  0  0  0  0  0  0  0  0  0  0
   56.7815   32.3959   45.4751 H   0  0  0  0  0  0  0  0  0  0  0  0
   57.1434   34.8663   45.4228 H   0  0  0  0  0  0  0  0  0  0  0  0
   59.1008   35.8675   46.6045 H   0  0  0  0  0  0  0  0  0  0  0  0
   59.6770   29.7260   49.4390 H   0  0  0  0  0  0  0  0  0  0  0  0
   53.9911   31.8855   51.7356 H   0  0  0  0  0  0  0  0  0  0  0  0
  1  2  2  0
  2  3  1  0
  2  4  1  0
  4  5  2  0
  5  6  1  0
  6  7  2  0
  7  8  1  0
  7  9  1  0
  9 10  1  0
 10 11  2  0
 10 12  2  0
 10 13  1  0
 13 14  1  0
 14 15  2  0
 15 16  1  0
 16 17  2  0
 17 18  1  0
 18 19  1  0
 19 20  1  0
 20 21  2  0
 20 22  2  0
 20 23  1  0
 23 24  2  0
 24 25  1  0
 25 26  2  0
 26 27  1  0
 27 28  2  0
 28 29  1  0
 18 30  2  0
 30 31  1  0
  9 32  2  0
 32  4  1  0
 30 14  1  0
 28 23  1  0
  5 33  1  0
  6 34  1  0
 15 35  1  0
 16 36  1  0
 17 37  1  0
 24 38  1  0
 25 39  1  0
 26 40  1  0
 27 41  1  0
 31 42  1  0
 32 43  1  0
M  CHG  3   3  -1  13  -1  19  -1
M  END
>  <UniqueID>  (83) 
78

>  <SMILES>  (83) 
O=C([O-])c1ccc(F)c(S(=O)(=O)[N-]c2cccc([N-]S(=O)(=O)c3ccccc3F)c2O)c1

>  <Energy>  (83) 
54.69703575783626

>  <Genealogy>  (83) 
O=C([O-])c1ccc(F)c(S(=O)(=O)[N-]c2cccc([N-]S(=O)(=O)c3ccccc3F)c2O)c1 (protonated)
O=C([O-])c1ccc(F)c(S(=O)(=O)[N-]c2cccc([N-]S(=O)(=O)c3ccccc3F)c2O)c1 (3D coordinates assigned)
O=C([O-])c1ccc(F)c(S(=O)(=O)[N-]c2cccc([N-]S(=O)(=O)c3ccccc3F)c2O)c1 (optimized conformer: 54.69703575783626 kcal/mol)

>  <smiles>  (83) 
O=C(O)c1ccc(F)c(S(=O)(=O)Nc2cccc(NS(=O)(=O)c3ccccc3F)c2O)c1

>  <score_type>  (83) 
oracle

>  <origin>  (83) 
adg

>  <m_score__min__energy>  (83) 
-14.43

>  <m_primary>  (83) 
energy

$$$$
83:0
     RDKit          3D

 58 61  0  0  0  0  0  0  0  0999 V2000
   58.0220   33.7720   44.4780 O   0  0  0  0  0  0  0  0  0  0  0  0
   58.2930   32.7950   45.2290 C   0  0  0  0  0  0  0  0  0  0  0  0
   58.9680   33.0140   46.4810 N   0  0  0  0  0  0  0  0  0  0  0  0
   59.3990   34.3350   46.9330 C   0  0  0  0  0  0  0  0  0  0  0  0
   59.6360   34.3460   48.4450 C   0  0  0  0  0  0  0  0  0  0  0  0
   59.5000   33.0350   48.9990 O   0  0  0  0  0  0  0  0  0  0  0  0
   59.0170   32.7210   50.2830 C   0  0  0  0  0  0  0  0  0  0  0  0
   57.8090   32.0240   50.4920 C   0  0  0  0  0  0  0  0  0  0  0  0
   57.3840   31.7230   51.7870 C   0  0  0  0  0  0  0  0  0  0  0  0
   58.1470   32.1200   52.8840 C   0  0  0  0  0  0  0  0  0  0  0  0
   59.3420   32.8160   52.6910 C   0  0  0  0  0  0  0  0  0  0  0  0
   59.7840   33.1230   51.3900 C   0  0  0  0  0  0  0  0  0  0  0  0
   60.9880   33.8080   51.1470 O   0  0  0  0  0  0  0  0  0  0  0  0
   62.2720   33.2010   51.0020 C   0  0  0  0  0  0  0  0  0  0  0  0
   62.6280   33.0300   49.5490 C   0  0  0  0  0  0  0  0  0  0  0  0
   63.0520   34.1280   48.7830 C   0  0  0  0  0  0  0  0  0  0  0  0
   63.3970   33.9580   47.4380 C   0  0  0  0  0  0  0  0  0  0  0  0
   63.3320   32.6910   46.8530 C   0  0  0  0  0  0  0  0  0  0  0  0
   62.9230   31.5910   47.6140 C   0  0  0  0  0  0  0  0  0  0  0  0
   62.5750   31.7580   48.9560 C   0  0  0  0  0  0  0  0  0  0  0  0
   57.9700   31.4240   44.7770 C   0  0  0  0  0  0  0  0  0  0  0  0
   56.9450   31.2360   43.8340 C   0  0  0  0  0  0  0  0  0  0  0  0
   56.6610   29.9590   43.3430 C   0  0  0  0  0  0  0  0  0  0  0  0
   57.3810   28.8550   43.8030 C   0  0  0  0  0  0  0  0  0  0  0  0
   58.3850   29.0230   44.7580 C   0  0  0  0  0  0  0  0  0  0  0  0
   58.6890   30.3060   45.2530 C   0  0  0  0  0  0  0  0  0  0  0  0
   59.6470   30.4720   46.2630 O   0  0  0  0  0  0  0  0  0  0  0  0
   59.8820   29.5790   47.3170 C   0  0  0  0  0  0  0  0  0  0  0  0
   59.7320   30.0390   48.6310 C   0  0  0  0  0  0  0  0  0  0  0  0
   59.9860   29.1890   49.7110 C   0  0  0  0  0  0  0  0  0  0  0  0
   60.3990   27.8740   49.4850 C   0  0  0  0  0  0  0  0  0  0  0  0
   60.5650   27.4080   48.1770 C   0  0  0  0  0  0  0  0  0  0  0  0
   60.3120   28.2560   47.0950 C   0  0  0  0  0  0  0  0  0  0  0  0
   59.3190   32.1910   47.0200 H   0  0  0  0  0  0  0  0  0  0  0  0
   60.3344   34.6034   46.4201 H   0  0  0  0  0  0  0  0  0  0  0  0
   58.6081   35.0620   46.6965 H   0  0  0  0  0  0  0  0  0  0  0  0
   60.6518   34.7170   48.6463 H   0  0  0  0  0  0  0  0  0  0  0  0
   58.8847   35.0007   48.9107 H   0  0  0  0  0  0  0  0  0  0  0  0
   57.1987   31.7160   49.6302 H   0  0  0  0  0  0  0  0  0  0  0  0
   56.4451   31.1714   51.9422 H   0  0  0  0  0  0  0  0  0  0  0  0
   57.8071   31.8846   53.9033 H   0  0  0  0  0  0  0  0  0  0  0  0
   59.9411   33.1260   53.5599 H   0  0  0  0  0  0  0  0  0  0  0  0
   63.0276   33.8383   51.4847 H   0  0  0  0  0  0  0  0  0  0  0  0
   62.2454   32.2083   51.4751 H   0  0  0  0  0  0  0  0  0  0  0  0
   63.1131   35.1256   49.2424 H   0  0  0  0  0  0  0  0  0  0  0  0
   63.7199   34.8231   46.8402 H   0  0  0  0  0  0  0  0  0  0  0  0
   63.6022   32.5586   45.7950 H   0  0  0  0  0  0  0  0  0  0  0  0
   62.8754   30.5927   47.1546 H   0  0  0  0  0  0  0  0  0  0  0  0
   62.2579   30.8892   49.5515 H   0  0  0  0  0  0  0  0  0  0  0  0
   56.3627   32.0996   43.4802 H   0  0  0  0  0  0  0  0  0  0  0  0
   55.8684   29.8233   42.5924 H   0  0  0  0  0  0  0  0  0  0  0  0
   57.1568   27.8514   43.4124 H   0  0  0  0  0  0  0  0  0  0  0  0
   58.9418   28.1486   45.1260 H   0  0  0  0  0  0  0  0  0  0  0  0
   59.4124   31.0754   48.8143 H   0  0  0  0  0  0  0  0  0  0  0  0
   59.8605   29.5561   50.7403 H   0  0  0  0  0  0  0  0  0  0  0  0
   60.5937   27.2048   50.3360 H   0  0  0  0  0  0  0  0  0  0  0  0
   60.8948   26.3737   47.9995 H   0  0  0  0  0  0  0  0  0  0  0  0
   60.4491   27.8892   46.0671 H   0  0  0  0  0  0  0  0  0  0  0  0
  1  2  2  0
  2  3  1  0
  3  4  1  0
  4  5  1  0
  5  6  1  0
  6  7  1  0
  7  8  2  0
  8  9  1  0
  9 10  2  0
 10 11  1  0
 11 12  2  0
 12 13  1  0
 13 14  1  0
 14 15  1  0
 15 16  2  0
 16 17  1  0
 17 18  2  0
 18 19  1  0
 19 20  2  0
  2 21  1  0
 21 22  2  0
 22 23  1  0
 23 24  2  0
 24 25  1  0
 25 26  2  0
 26 27  1  0
 27 28  1  0
 28 29  2  0
 29 30  1  0
 30 31  2  0
 31 32  1  0
 32 33  2  0
 12  7  1  0
 20 15  1  0
 26 21  1  0
 33 28  1  0
  3 34  1  0
  4 35  1  0
  4 36  1  0
  5 37  1  0
  5 38  1  0
  8 39  1  0
  9 40  1  0
 10 41  1  0
 11 42  1  0
 14 43  1  0
 14 44  1  0
 16 45  1  0
 17 46  1  0
 18 47  1  0
 19 48  1  0
 20 49  1  0
 22 50  1  0
 23 51  1  0
 24 52  1  0
 25 53  1  0
 29 54  1  0
 30 55  1  0
 31 56  1  0
 32 57  1  0
 33 58  1  0
M  END
>  <UniqueID>  (84) 
79

>  <SMILES>  (84) 
O=C(NCCOc1ccccc1OCc1ccccc1)c1ccccc1Oc1ccccc1

>  <Energy>  (84) 
68.09283784305023

>  <Genealogy>  (84) 
O=C(NCCOc1ccccc1OCc1ccccc1)c1ccccc1Oc1ccccc1 (3D coordinates assigned)
O=C(NCCOc1ccccc1OCc1ccccc1)c1ccccc1Oc1ccccc1 (optimized conformer: 68.09283784305023 kcal/mol)

>  <smiles>  (84) 
O=C(NCCOc1ccccc1OCc1ccccc1)c1ccccc1Oc1ccccc1

>  <score_type>  (84) 
oracle

>  <origin>  (84) 
adg

>  <m_score__min__energy>  (84) 
-8.5199999999999996

>  <m_primary>  (84) 
energy

$$$$
84:0
     RDKit          3D

 39 41  0  0  0  0  0  0  0  0999 V2000
   56.6590   34.0630   45.4810 O   0  0  0  0  0  0  0  0  0  0  0  0
   57.6700   33.5490   44.9330 C   0  0  0  0  0  0  0  0  0  0  0  0
   58.9570   34.1250   45.1790 N   0  0  0  0  0  0  0  0  0  0  0  0
   59.6970   34.0570   46.4050 C   0  0  0  0  0  0  0  0  0  0  0  0
   61.0780   33.8280   46.3480 C   0  0  0  0  0  0  0  0  0  0  0  0
   61.8360   33.7760   47.5220 C   0  0  0  0  0  0  0  0  0  0  0  0
   61.2220   33.9710   48.7610 C   0  0  0  0  0  0  0  0  0  0  0  0
   59.8500   34.2280   48.8270 C   0  0  0  0  0  0  0  0  0  0  0  0
   59.0880   34.2800   47.6560 C   0  0  0  0  0  0  0  0  0  0  0  0
   57.5330   32.4110   44.0720 N   0  0  0  0  0  0  0  0  0  0  0  0
   57.5330   31.0300   44.4640 C   0  0  0  0  0  0  0  0  0  0  0  0
   56.3210   30.3290   44.4470 C   0  0  0  0  0  0  0  0  0  0  0  0
   56.2700   28.9880   44.8390 C   0  0  0  0  0  0  0  0  0  0  0  0
   57.4390   28.3290   45.2570 C   0  0  0  0  0  0  0  0  0  0  0  0
   57.4270   26.9610   45.6910 N   0  0  0  0  0  0  0  0  0  0  0  0
   56.2730   26.1250   45.8570 C   0  0  0  0  0  0  0  0  0  0  0  0
   55.1390   26.6440   46.0430 O   0  0  0  0  0  0  0  0  0  0  0  0
   56.4020   24.6520   45.7550 C   0  0  0  0  0  0  0  0  0  0  0  0
   56.1010   23.9880   44.5500 C   0  0  0  0  0  0  0  0  0  0  0  0
   56.2260   22.5980   44.4570 C   0  0  0  0  0  0  0  0  0  0  0  0
   55.9250   21.9520   43.2640 O   0  0  0  0  0  0  0  0  0  0  0  0
   56.6520   21.8560   45.5620 C   0  0  0  0  0  0  0  0  0  0  0  0
   56.9540   22.5030   46.7630 C   0  0  0  0  0  0  0  0  0  0  0  0
   57.3780   21.7650   47.8610 O   0  0  0  0  0  0  0  0  0  0  0  0
   56.8310   23.8940   46.8600 C   0  0  0  0  0  0  0  0  0  0  0  0
   58.6400   29.0430   45.3220 C   0  0  0  0  0  0  0  0  0  0  0  0
   58.6920   30.3840   44.9290 C   0  0  0  0  0  0  0  0  0  0  0  0
   61.5691   33.6882   45.3737 H   0  0  0  0  0  0  0  0  0  0  0  0
   62.9173   33.5812   47.4694 H   0  0  0  0  0  0  0  0  0  0  0  0
   61.8179   33.9223   49.6843 H   0  0  0  0  0  0  0  0  0  0  0  0
   59.3684   34.3898   49.8026 H   0  0  0  0  0  0  0  0  0  0  0  0
   58.0107   34.4955   47.7113 H   0  0  0  0  0  0  0  0  0  0  0  0
   55.4013   30.8377   44.1225 H   0  0  0  0  0  0  0  0  0  0  0  0
   55.3123   28.4471   44.8202 H   0  0  0  0  0  0  0  0  0  0  0  0
   55.7655   24.5662   43.6764 H   0  0  0  0  0  0  0  0  0  0  0  0
   56.7495   20.7630   45.4863 H   0  0  0  0  0  0  0  0  0  0  0  0
   57.0716   24.3984   47.8075 H   0  0  0  0  0  0  0  0  0  0  0  0
   59.5513   28.5454   45.6853 H   0  0  0  0  0  0  0  0  0  0  0  0
   59.6424   30.9351   44.9838 H   0  0  0  0  0  0  0  0  0  0  0  0
  1  2  2  0
  2  3  1  0
  3  4  1  0
  4  5  2  0
  5  6  1  0
  6  7  2  0
  7  8  1  0
  8  9  2  0
  2 10  1  0
 10 11  1  0
 11 12  2  0
 12 13  1  0
 13 14  2  0
 14 15  1  0
 15 16  1  0
 16 17  2  0
 16 18  1  0
 18 19  2  0
 19 20  1  0
 20 21  1  0
 20 22  2  0
 22 23  1  0
 23 24  1  0
 23 25  2  0
 14 26  1  0
 26 27  2  0
  9  4  1  0
 27 11  1  0
 25 18  1  0
  5 28  1  0
  6 29  1  0
  7 30  1  0
  8 31  1  0
  9 32  1  0
 12 33  1  0
 13 34  1  0
 19 35  1  0
 22 36  1  0
 25 37  1  0
 26 38  1  0
 27 39  1  0
M  CHG  5   3  -1  10  -1  15  -1  21  -1  24  -1
M  END
>  <UniqueID>  (85) 
80

>  <SMILES>  (85) 
O=C([N-]c1ccccc1)[N-]c1ccc([N-]C(=O)c2cc([O-])cc([O-])c2)cc1

>  <Energy>  (85) 
53.580544410711326

>  <Genealogy>  (85) 
O=C([N-]c1ccccc1)[N-]c1ccc([N-]C(=O)c2cc([O-])cc([O-])c2)cc1 (protonated)
O=C([N-]c1ccccc1)[N-]c1ccc([N-]C(=O)c2cc([O-])cc([O-])c2)cc1 (3D coordinates assigned)
O=C([N-]c1ccccc1)[N-]c1ccc([N-]C(=O)c2cc([O-])cc([O-])c2)cc1 (optimized conformer: 53.580544410711326 kcal/mol)

>  <smiles>  (85) 
O=C(Nc1ccccc1)Nc1ccc(NC(=O)c2cc(O)cc(O)c2)cc1

>  <score_type>  (85) 
oracle

>  <origin>  (85) 
adg

>  <m_score__min__energy>  (85) 
-16.539999999999999

>  <m_primary>  (85) 
energy

$$$$
85:0
     RDKit          3D

 39 41  0  0  0  0  0  0  0  0999 V2000
   57.2410   30.6490   42.7520 O   0  0  0  0  0  0  0  0  0  0  0  0
   57.2150   30.4950   44.0030 C   0  0  0  0  0  0  0  0  0  0  0  0
   56.9410   31.6170   44.8500 N   0  0  0  0  0  0  0  0  0  0  0  0
   57.4820   32.9520   44.6250 C   0  0  0  0  0  0  0  0  0  0  0  0
   58.2170   33.4270   45.8470 C   0  0  0  0  0  0  0  0  0  0  0  0
   58.9950   34.5960   45.8050 C   0  0  0  0  0  0  0  0  0  0  0  0
   59.7010   35.0130   46.9380 C   0  0  0  0  0  0  0  0  0  0  0  0
   59.6400   34.2650   48.1170 C   0  0  0  0  0  0  0  0  0  0  0  0
   58.8720   33.0980   48.1640 C   0  0  0  0  0  0  0  0  0  0  0  0
   58.1660   32.6770   47.0340 C   0  0  0  0  0  0  0  0  0  0  0  0
   57.4520   29.1560   44.5920 C   0  0  0  0  0  0  0  0  0  0  0  0
   57.3890   28.9670   45.9850 C   0  0  0  0  0  0  0  0  0  0  0  0
   57.6240   27.7070   46.5420 C   0  0  0  0  0  0  0  0  0  0  0  0
   57.9270   26.6100   45.7180 C   0  0  0  0  0  0  0  0  0  0  0  0
   58.1890   25.3040   46.2470 N   0  0  0  0  0  0  0  0  0  0  0  0
   57.0170   24.0360   46.4040 S   0  0  0  0  0  0  0  0  0  0  0  0
   57.3940   23.1500   47.5580 O   0  0  0  0  0  0  0  0  0  0  0  0
   55.6670   24.6390   46.6680 O   0  0  0  0  0  0  0  0  0  0  0  0
   56.9440   23.1060   44.9190 C   0  0  0  0  0  0  0  0  0  0  0  0
   57.6780   21.9640   44.6360 C   0  0  0  0  0  0  0  0  0  0  0  0
   57.4280   21.4600   43.3550 C   0  0  0  0  0  0  0  0  0  0  0  0
   56.5010   22.2020   42.6350 C   0  0  0  0  0  0  0  0  0  0  0  0
   55.9920   23.4900   43.5910 S   0  0  0  0  0  0  0  0  0  0  0  0
   57.9830   26.7960   44.3320 C   0  0  0  0  0  0  0  0  0  0  0  0
   57.7500   28.0540   43.7710 C   0  0  0  0  0  0  0  0  0  0  0  0
   58.1757   32.9239   43.7718 H   0  0  0  0  0  0  0  0  0  0  0  0
   56.6536   33.6439   44.4129 H   0  0  0  0  0  0  0  0  0  0  0  0
   59.0491   35.1854   44.8778 H   0  0  0  0  0  0  0  0  0  0  0  0
   60.3054   35.9314   46.9011 H   0  0  0  0  0  0  0  0  0  0  0  0
   60.1959   34.5944   49.0072 H   0  0  0  0  0  0  0  0  0  0  0  0
   58.8233   32.5099   49.0923 H   0  0  0  0  0  0  0  0  0  0  0  0
   57.5679   31.7547   47.0739 H   0  0  0  0  0  0  0  0  0  0  0  0
   57.1529   29.8179   46.6408 H   0  0  0  0  0  0  0  0  0  0  0  0
   57.5714   27.5732   47.6326 H   0  0  0  0  0  0  0  0  0  0  0  0
   58.3825   21.5030   45.3440 H   0  0  0  0  0  0  0  0  0  0  0  0
   57.9195   20.5606   42.9557 H   0  0  0  0  0  0  0  0  0  0  0  0
   56.1575   21.9847   41.6128 H   0  0  0  0  0  0  0  0  0  0  0  0
   58.2130   25.9425   43.6773 H   0  0  0  0  0  0  0  0  0  0  0  0
   57.8000   28.1833   42.6798 H   0  0  0  0  0  0  0  0  0  0  0  0
  1  2  2  0
  2  3  1  0
  3  4  1  0
  4  5  1  0
  5  6  2  0
  6  7  1  0
  7  8  2  0
  8  9  1  0
  9 10  2  0
  2 11  1  0
 11 12  2  0
 12 13  1  0
 13 14  2  0
 14 15  1  0
 15 16  1  0
 16 17  2  0
 16 18  2  0
 16 19  1  0
 19 20  2  0
 20 21  1  0
 21 22  2  0
 22 23  1  0
 14 24  1  0
 24 25  2  0
 10  5  1  0
 25 11  1  0
 23 19  1  0
  4 26  1  0
  4 27  1  0
  6 28  1  0
  7 29  1  0
  8 30  1  0
  9 31  1  0
 10 32  1  0
 12 33  1  0
 13 34  1  0
 20 35  1  0
 21 36  1  0
 22 37  1  0
 24 38  1  0
 25 39  1  0
M  CHG  2   3  -1  15  -1
M  END
>  <UniqueID>  (86) 
81

>  <SMILES>  (86) 
O=C([N-]Cc1ccccc1)c1ccc([N-]S(=O)(=O)c2cccs2)cc1

>  <Energy>  (86) 
69.15221007200826

>  <Genealogy>  (86) 
O=C([N-]Cc1ccccc1)c1ccc([N-]S(=O)(=O)c2cccs2)cc1 (protonated)
O=C([N-]Cc1ccccc1)c1ccc([N-]S(=O)(=O)c2cccs2)cc1 (3D coordinates assigned)
O=C([N-]Cc1ccccc1)c1ccc([N-]S(=O)(=O)c2cccs2)cc1 (optimized conformer: 69.15221007200826 kcal/mol)

>  <smiles>  (86) 
O=C(NCc1ccccc1)c1ccc(NS(=O)(=O)c2cccs2)cc1

>  <score_type>  (86) 
oracle

>  <origin>  (86) 
adg

>  <m_score__min__energy>  (86) 
-11.02

>  <m_primary>  (86) 
energy

$$$$
86:0
     RDKit          3D

 43 45  0  0  0  0  0  0  0  0999 V2000
   55.2980   24.8970   46.3590 O   0  0  0  0  0  0  0  0  0  0  0  0
   56.1180   25.8520   46.3260 C   0  0  0  0  0  0  0  0  0  0  0  0
   57.4940   25.6620   46.9060 C   0  0  0  0  0  0  0  0  0  0  0  0
   58.0640   26.9380   47.3400 N   0  0  0  0  0  0  0  0  0  0  0  0
   59.4840   27.1240   47.4340 C   0  0  0  0  0  0  0  0  0  0  0  0
   60.2620   26.1790   47.1250 O   0  0  0  0  0  0  0  0  0  0  0  0
   60.0520   28.4060   47.8880 C   0  0  0  0  0  0  0  0  0  0  0  0
   60.4460   29.4550   47.0650 C   0  0  0  0  0  0  0  0  0  0  0  0
   60.9520   30.5540   47.7700 C   0  0  0  0  0  0  0  0  0  0  0  0
   60.9610   30.3780   49.1470 C   0  0  0  0  0  0  0  0  0  0  0  0
   60.3380   28.8540   49.4860 S   0  0  0  0  0  0  0  0  0  0  0  0
   55.7210   27.0810   45.7020 N   0  0  0  0  0  0  0  0  0  0  0  0
   56.5950   28.1160   45.2310 C   0  0  0  0  0  0  0  0  0  0  0  0
   57.8280   27.7600   44.6750 C   0  0  0  0  0  0  0  0  0  0  0  0
   58.6910   28.7440   44.1880 C   0  0  0  0  0  0  0  0  0  0  0  0
   58.3230   30.0910   44.2390 C   0  0  0  0  0  0  0  0  0  0  0  0
   57.0750   30.4610   44.7710 C   0  0  0  0  0  0  0  0  0  0  0  0
   56.6490   31.8300   44.8350 N   0  0  0  0  0  0  0  0  0  0  0  0
   57.7000   33.2070   44.7570 S   0  0  0  0  0  0  0  0  0  0  0  0
   56.8750   34.4430   44.5370 O   0  0  0  0  0  0  0  0  0  0  0  0
   58.6480   33.0370   43.6020 O   0  0  0  0  0  0  0  0  0  0  0  0
   58.5860   33.3750   46.2690 C   0  0  0  0  0  0  0  0  0  0  0  0
   59.7750   34.1190   46.3150 C   0  0  0  0  0  0  0  0  0  0  0  0
   60.4790   34.2410   47.5170 C   0  0  0  0  0  0  0  0  0  0  0  0
   59.9990   33.6260   48.6770 C   0  0  0  0  0  0  0  0  0  0  0  0
   58.8110   32.8890   48.6360 C   0  0  0  0  0  0  0  0  0  0  0  0
   58.3450   32.2930   49.7610 F   0  0  0  0  0  0  0  0  0  0  0  0
   58.1040   32.7650   47.4350 C   0  0  0  0  0  0  0  0  0  0  0  0
   56.2120   29.4690   45.2510 C   0  0  0  0  0  0  0  0  0  0  0  0
   57.4290   24.9850   47.7706 H   0  0  0  0  0  0  0  0  0  0  0  0
   58.1448   25.2352   46.1286 H   0  0  0  0  0  0  0  0  0  0  0  0
   57.4290   27.7200   47.6160 H   0  0  0  0  0  0  0  0  0  0  0  0
   60.3679   29.4246   45.9682 H   0  0  0  0  0  0  0  0  0  0  0  0
   61.3090   31.4711   47.2786 H   0  0  0  0  0  0  0  0  0  0  0  0
   61.3148   31.1096   49.8884 H   0  0  0  0  0  0  0  0  0  0  0  0
   58.1191   26.7006   44.6211 H   0  0  0  0  0  0  0  0  0  0  0  0
   59.6642   28.4576   43.7626 H   0  0  0  0  0  0  0  0  0  0  0  0
   59.0104   30.8629   43.8625 H   0  0  0  0  0  0  0  0  0  0  0  0
   60.1536   34.6067   45.4046 H   0  0  0  0  0  0  0  0  0  0  0  0
   61.4124   34.8221   47.5499 H   0  0  0  0  0  0  0  0  0  0  0  0
   60.5552   33.7216   49.6212 H   0  0  0  0  0  0  0  0  0  0  0  0
   57.1681   32.1877   47.4059 H   0  0  0  0  0  0  0  0  0  0  0  0
   55.2252   29.7503   45.6475 H   0  0  0  0  0  0  0  0  0  0  0  0
  1  2  2  0
  2  3  1  0
  3  4  1  0
  4  5  1  0
  5  6  2  0
  5  7  1  0
  7  8  2  0
  8  9  1  0
  9 10  2  0
 10 11  1  0
  2 12  1  0
 12 13  1  0
 13 14  2  0
 14 15  1  0
 15 16  2  0
 16 17  1  0
 17 18  1  0
 18 19  1  0
 19 20  2  0
 19 21  2  0
 19 22  1  0
 22 23  2  0
 23 24  1  0
 24 25  2  0
 25 26  1  0
 26 27  1  0
 26 28  2  0
 17 29  2  0
 11  7  1  0
 29 13  1  0
 28 22  1  0
  3 30  1  0
  3 31  1  0
  4 32  1  0
  8 33  1  0
  9 34  1  0
 10 35  1  0
 14 36  1  0
 15 37  1  0
 16 38  1  0
 23 39  1  0
 24 40  1  0
 25 41  1  0
 28 42  1  0
 29 43  1  0
M  CHG  2  12  -1  18  -1
M  END
>  <UniqueID>  (87) 
82

>  <SMILES>  (87) 
O=C(CNC(=O)c1cccs1)[N-]c1cccc([N-]S(=O)(=O)c2cccc(F)c2)c1

>  <Energy>  (87) 
76.74348170639406

>  <Genealogy>  (87) 
O=C(CNC(=O)c1cccs1)[N-]c1cccc([N-]S(=O)(=O)c2cccc(F)c2)c1 (protonated)
O=C(CNC(=O)c1cccs1)[N-]c1cccc([N-]S(=O)(=O)c2cccc(F)c2)c1 (3D coordinates assigned)
O=C(CNC(=O)c1cccs1)[N-]c1cccc([N-]S(=O)(=O)c2cccc(F)c2)c1 (optimized conformer: 76.74348170639406 kcal/mol)

>  <smiles>  (87) 
O=C(CNC(=O)c1cccs1)Nc1cccc(NS(=O)(=O)c2cccc(F)c2)c1

>  <score_type>  (87) 
oracle

>  <origin>  (87) 
adg

>  <m_score__min__energy>  (87) 
-12.699999999999999

>  <m_primary>  (87) 
energy

$$$$
87:0
     RDKit          3D

 36 37  0  0  0  0  0  0  0  0999 V2000
   60.3263   29.0344   47.5640 H   0  0  0  0  0  0  0  0  0  0  0  0
   59.3810   28.7950   47.0550 C   0  0  0  0  0  0  0  0  0  0  0  0
   59.2470   27.4900   46.3800 C   0  0  0  0  0  0  0  0  0  0  0  0
   60.0120   27.1850   45.4250 O   0  0  0  0  0  0  0  0  0  0  0  0
   58.2560   26.5570   46.8360 N   0  0  0  0  0  0  0  0  0  0  0  0
   57.7510   26.7640   47.7270 H   0  0  0  0  0  0  0  0  0  0  0  0
   57.9460   25.3360   46.1410 C   0  0  0  0  0  0  0  0  0  0  0  0
   58.9420   24.3620   45.9590 C   0  0  0  0  0  0  0  0  0  0  0  0
   59.9426   24.5234   46.3866 H   0  0  0  0  0  0  0  0  0  0  0  0
   58.6790   23.1870   45.2400 C   0  0  0  0  0  0  0  0  0  0  0  0
   59.7220   22.2170   45.0770 N   0  0  0  0  0  0  0  0  0  0  0  0
   59.5110   21.1950   45.1400 H   0  0  0  0  0  0  0  0  0  0  0  0
   60.7110   22.4940   44.8910 H   0  0  0  0  0  0  0  0  0  0  0  0
   57.4020   22.9900   44.6830 C   0  0  0  0  0  0  0  0  0  0  0  0
   57.0050   21.5400   43.7670 Cl  0  0  0  0  0  0  0  0  0  0  0  0
   56.4110   23.9610   44.8530 C   0  0  0  0  0  0  0  0  0  0  0  0
   55.4156   23.8030   44.4124 H   0  0  0  0  0  0  0  0  0  0  0  0
   56.6680   25.1330   45.5770 C   0  0  0  0  0  0  0  0  0  0  0  0
   55.6120   26.0850   45.7600 N   0  0  0  0  0  0  0  0  0  0  0  0
   54.7950   25.8930   46.3800 H   0  0  0  0  0  0  0  0  0  0  0  0
   55.6080   26.9820   45.2250 H   0  0  0  0  0  0  0  0  0  0  0  0
   58.3920   29.6990   47.0700 C   0  0  0  0  0  0  0  0  0  0  0  0
   57.6916   29.7032   47.9182 H   0  0  0  0  0  0  0  0  0  0  0  0
   58.2060   30.6950   45.9850 C   0  0  0  0  0  0  0  0  0  0  0  0
   58.8900   31.9260   46.0520 C   0  0  0  0  0  0  0  0  0  0  0  0
   59.6111   32.1043   46.8633 H   0  0  0  0  0  0  0  0  0  0  0  0
   58.6620   32.9210   45.1000 C   0  0  0  0  0  0  0  0  0  0  0  0
   59.2098   33.8731   45.1592 H   0  0  0  0  0  0  0  0  0  0  0  0
   57.7430   32.7110   44.0760 C   0  0  0  0  0  0  0  0  0  0  0  0
   57.5603   33.5001   43.3317 H   0  0  0  0  0  0  0  0  0  0  0  0
   57.0530   31.5010   43.9920 C   0  0  0  0  0  0  0  0  0  0  0  0
   56.3244   31.3463   43.1826 H   0  0  0  0  0  0  0  0  0  0  0  0
   57.2780   30.4750   44.9310 C   0  0  0  0  0  0  0  0  0  0  0  0
   56.5630   29.1870   44.7500 C   0  0  0  0  0  0  0  0  0  0  0  0
   57.2040   28.1410   44.4640 O   0  0  0  0  0  0  0  0  0  0  0  0
   55.1890   29.1000   44.9420 O   0  0  0  0  0  0  0  0  0  0  0  0
  1  2  1  0
  2  3  1  0
  3  4  2  0
  3  5  1  0
  5  6  1  0
  5  7  1  0
  7  8  2  0
  8  9  1  0
  8 10  1  0
 10 11  1  0
 11 12  1  0
 11 13  1  0
 10 14  2  0
 14 15  1  0
 14 16  1  0
 16 17  1  0
 16 18  2  0
 18 19  1  0
 19 20  1  0
 19 21  1  0
  2 22  2  0
 22 23  1  0
 22 24  1  0
 24 25  2  0
 25 26  1  0
 25 27  1  0
 27 28  1  0
 27 29  2  0
 29 30  1  0
 29 31  1  0
 31 32  1  0
 31 33  2  0
 33 34  1  0
 34 35  2  0
 34 36  1  0
 18  7  1  0
 33 24  1  0
M  CHG  1  36  -1
M  END
>  <UniqueID>  (88) 
83

>  <SMILES>  (88) 
Nc1cc(NC(=O)/C=C/c2ccccc2C(=O)[O-])c(N)cc1Cl

>  <Energy>  (88) 
49.00909834033572

>  <Genealogy>  (88) 
Nc1cc(NC(=O)C=Cc2ccccc2C(=O)[O-])c(N)cc1Cl (protonated)
Nc1cc(NC(=O)/C=C/c2ccccc2C(=O)[O-])c(N)cc1Cl (cis-trans isomerization)
Nc1cc(NC(=O)/C=C/c2ccccc2C(=O)[O-])c(N)cc1Cl (3D coordinates assigned)
Nc1cc(NC(=O)/C=C/c2ccccc2C(=O)[O-])c(N)cc1Cl (optimized conformer: 49.00909834033572 kcal/mol)

>  <smiles>  (88) 
Nc1cc(NC(=O)C=Cc2ccccc2C(=O)O)c(N)cc1Cl

>  <score_type>  (88) 
oracle

>  <origin>  (88) 
adg

>  <m_score__min__energy>  (88) 
-9.9299999999999997

>  <m_primary>  (88) 
energy

$$$$
88:0
     RDKit          3D

 46 48  0  0  0  0  0  0  0  0999 V2000
   55.1880   29.3400   44.8740 N   0  0  0  0  0  0  0  0  0  0  0  0
   56.7850   29.9680   44.6750 S   0  0  0  0  0  0  0  0  0  0  0  0
   57.3210   29.5510   43.3320 O   0  0  0  0  0  0  0  0  0  0  0  0
   56.7500   31.4680   44.7410 O   0  0  0  0  0  0  0  0  0  0  0  0
   57.8140   29.3480   45.9590 C   0  0  0  0  0  0  0  0  0  0  0  0
   58.2900   28.0290   45.9230 C   0  0  0  0  0  0  0  0  0  0  0  0
   59.1080   27.5500   46.9490 C   0  0  0  0  0  0  0  0  0  0  0  0
   59.4520   28.3810   48.0170 C   0  0  0  0  0  0  0  0  0  0  0  0
   58.9670   29.6960   48.0790 C   0  0  0  0  0  0  0  0  0  0  0  0
   59.3610   30.5430   49.1730 N   0  0  0  0  0  0  0  0  0  0  0  0
   58.6250   30.6730   50.3990 C   0  0  0  0  0  0  0  0  0  0  0  0
   57.7870   29.7960   50.7400 O   0  0  0  0  0  0  0  0  0  0  0  0
   58.9060   31.8180   51.3270 C   0  0  0  0  0  0  0  0  0  0  0  0
   59.7670   31.3990   52.3820 O   0  0  0  0  0  0  0  0  0  0  0  0
   61.1630   31.4820   52.3110 C   0  0  0  0  0  0  0  0  0  0  0  0
   61.8670   31.5490   53.3600 O   0  0  0  0  0  0  0  0  0  0  0  0
   61.8140   31.5330   50.9680 C   0  0  0  0  0  0  0  0  0  0  0  0
   61.2980   32.6380   50.2280 O   0  0  0  0  0  0  0  0  0  0  0  0
   61.7400   33.0470   48.9560 C   0  0  0  0  0  0  0  0  0  0  0  0
   63.1080   33.0750   48.6180 C   0  0  0  0  0  0  0  0  0  0  0  0
   63.5160   33.4510   47.3360 C   0  0  0  0  0  0  0  0  0  0  0  0
   62.5730   33.8160   46.3730 C   0  0  0  0  0  0  0  0  0  0  0  0
   61.2080   33.8130   46.6890 C   0  0  0  0  0  0  0  0  0  0  0  0
   60.2580   34.2050   45.7300 C   0  0  0  0  0  0  0  0  0  0  0  0
   58.9010   34.2350   46.0580 C   0  0  0  0  0  0  0  0  0  0  0  0
   58.4800   33.8640   47.3360 C   0  0  0  0  0  0  0  0  0  0  0  0
   59.4120   33.4590   48.2960 C   0  0  0  0  0  0  0  0  0  0  0  0
   60.7850   33.4280   47.9870 C   0  0  0  0  0  0  0  0  0  0  0  0
   58.1560   30.1780   47.0350 C   0  0  0  0  0  0  0  0  0  0  0  0
   55.2360   28.6060   45.6150 H   0  0  0  0  0  0  0  0  0  0  0  0
   58.0185   27.3703   45.0849 H   0  0  0  0  0  0  0  0  0  0  0  0
   59.4819   26.5160   46.9155 H   0  0  0  0  0  0  0  0  0  0  0  0
   60.1075   28.0022   48.8150 H   0  0  0  0  0  0  0  0  0  0  0  0
   60.2630   31.0640   49.0870 H   0  0  0  0  0  0  0  0  0  0  0  0
   59.3896   32.6305   50.7649 H   0  0  0  0  0  0  0  0  0  0  0  0
   57.9573   32.1708   51.7578 H   0  0  0  0  0  0  0  0  0  0  0  0
   62.9006   31.6509   51.0921 H   0  0  0  0  0  0  0  0  0  0  0  0
   61.6046   30.5997   50.4248 H   0  0  0  0  0  0  0  0  0  0  0  0
   63.8612   32.7983   49.3705 H   0  0  0  0  0  0  0  0  0  0  0  0
   64.5866   33.4596   47.0836 H   0  0  0  0  0  0  0  0  0  0  0  0
   62.9024   34.1064   45.3645 H   0  0  0  0  0  0  0  0  0  0  0  0
   60.5844   34.4888   44.7186 H   0  0  0  0  0  0  0  0  0  0  0  0
   58.1620   34.5518   45.3073 H   0  0  0  0  0  0  0  0  0  0  0  0
   57.4098   33.8904   47.5890 H   0  0  0  0  0  0  0  0  0  0  0  0
   59.0704   33.1628   49.2988 H   0  0  0  0  0  0  0  0  0  0  0  0
   57.7877   31.2141   47.0637 H   0  0  0  0  0  0  0  0  0  0  0  0
  1  2  1  0
  2  3  2  0
  2  4  2  0
  2  5  1  0
  5  6  2  0
  6  7  1  0
  7  8  2  0
  8  9  1  0
  9 10  1  0
 10 11  1  0
 11 12  2  0
 11 13  1  0
 13 14  1  0
 14 15  1  0
 15 16  2  0
 15 17  1  0
 17 18  1  0
 18 19  1  0
 19 20  2  0
 20 21  1  0
 21 22  2  0
 22 23  1  0
 23 24  2  0
 24 25  1  0
 25 26  2  0
 26 27  1  0
 27 28  2  0
  9 29  2  0
 29  5  1  0
 28 19  1  0
 28 23  1  0
  1 30  1  0
  6 31  1  0
  7 32  1  0
  8 33  1  0
 10 34  1  0
 13 35  1  0
 13 36  1  0
 17 37  1  0
 17 38  1  0
 20 39  1  0
 21 40  1  0
 22 41  1  0
 24 42  1  0
 25 43  1  0
 26 44  1  0
 27 45  1  0
 29 46  1  0
M  CHG  1   1  -1
M  END
>  <UniqueID>  (89) 
84

>  <SMILES>  (89) 
[NH-]S(=O)(=O)c1cccc(NC(=O)COC(=O)COc2cccc3ccccc23)c1

>  <Energy>  (89) 
44.270613340275936

>  <Genealogy>  (89) 
[NH-]S(=O)(=O)c1cccc(NC(=O)COC(=O)COc2cccc3ccccc23)c1 (protonated)
[NH-]S(=O)(=O)c1cccc(NC(=O)COC(=O)COc2cccc3ccccc23)c1 (3D coordinates assigned)
[NH-]S(=O)(=O)c1cccc(NC(=O)COC(=O)COc2cccc3ccccc23)c1 (optimized conformer: 44.270613340275936 kcal/mol)

>  <smiles>  (89) 
NS(=O)(=O)c1cccc(NC(=O)COC(=O)COc2cccc3ccccc23)c1

>  <score_type>  (89) 
oracle

>  <origin>  (89) 
adg

>  <m_score__min__energy>  (89) 
-12.289999999999999

>  <m_primary>  (89) 
energy

$$$$
89:0
     RDKit          3D

 24 25  0  0  0  0  0  0  0  0999 V2000
   54.0501   23.8301   45.2472 H   0  0  0  0  0  0  0  0  0  0  0  0
   55.1040   24.1250   45.3580 C   0  0  0  0  0  0  0  0  0  0  0  0
   56.1160   23.1960   45.1070 C   0  0  0  0  0  0  0  0  0  0  0  0
   55.8577   22.1703   44.8050 H   0  0  0  0  0  0  0  0  0  0  0  0
   57.4560   23.5680   45.2390 C   0  0  0  0  0  0  0  0  0  0  0  0
   58.8390   22.2980   44.8830 Br  0  0  0  0  0  0  0  0  0  0  0  0
   57.7850   24.8700   45.6290 C   0  0  0  0  0  0  0  0  0  0  0  0
   58.8416   25.1618   45.7213 H   0  0  0  0  0  0  0  0  0  0  0  0
   56.7750   25.8090   45.9040 C   0  0  0  0  0  0  0  0  0  0  0  0
   57.1560   27.2140   46.3090 C   0  0  0  0  0  0  0  0  0  0  0  0
   56.5724   27.5034   47.1954 H   0  0  0  0  0  0  0  0  0  0  0  0
   58.2329   27.2339   46.5325 H   0  0  0  0  0  0  0  0  0  0  0  0
   56.8870   28.1640   45.2280 N   0  0  0  0  0  0  0  0  0  0  0  0
   57.1360   29.4440   45.2240 C   0  0  0  0  0  0  0  0  0  0  0  0
   56.1450   30.3000   44.8570 N   0  0  0  0  0  0  0  0  0  0  0  0
   56.3290   31.6200   44.8260 N   0  0  0  0  0  0  0  0  0  0  0  0
   57.5190   32.1780   45.1610 C   0  0  0  0  0  0  0  0  0  0  0  0
   57.7190   33.9180   45.1060 Cl  0  0  0  0  0  0  0  0  0  0  0  0
   58.5760   31.3560   45.5490 C   0  0  0  0  0  0  0  0  0  0  0  0
   59.5478   31.7917   45.8242 H   0  0  0  0  0  0  0  0  0  0  0  0
   58.3870   29.9770   45.5840 C   0  0  0  0  0  0  0  0  0  0  0  0
   59.2074   29.3112   45.8900 H   0  0  0  0  0  0  0  0  0  0  0  0
   55.4250   25.4300   45.7500 C   0  0  0  0  0  0  0  0  0  0  0  0
   54.3970   26.3380   45.9800 O   0  0  0  0  0  0  0  0  0  0  0  0
  1  2  1  0
  2  3  2  0
  3  4  1  0
  3  5  1  0
  5  6  1  0
  5  7  2  0
  7  8  1  0
  7  9  1  0
  9 10  1  0
 10 11  1  0
 10 12  1  0
 10 13  1  0
 13 14  2  0
 14 15  1  0
 15 16  1  0
 16 17  2  0
 17 18  1  0
 17 19  1  0
 19 20  1  0
 19 21  2  0
 21 22  1  0
  9 23  2  0
 23 24  1  0
 23  2  1  0
 21 14  1  0
M  CHG  2  15  -1  24  -1
M  END
>  <UniqueID>  (90) 
85

>  <SMILES>  (90) 
[O-]c1ccc(Br)cc1C/N=c1\ccc(Cl)n[n-]1

>  <Energy>  (90) 
28.322081732174272

>  <Genealogy>  (90) 
[O-]c1ccc(Br)cc1CN=c1ccc(Cl)n[n-]1 (protonated)
[O-]c1ccc(Br)cc1C/N=c1\ccc(Cl)n[n-]1 (cis-trans isomerization)
[O-]c1ccc(Br)cc1C/N=c1\ccc(Cl)n[n-]1 (3D coordinates assigned)
[O-]c1ccc(Br)cc1C/N=c1\ccc(Cl)n[n-]1 (optimized conformer: 28.322081732174272 kcal/mol)

>  <smiles>  (90) 
Oc1ccc(Br)cc1CN=c1ccc(Cl)n[nH]1

>  <score_type>  (90) 
oracle

>  <origin>  (90) 
adg

>  <m_score__min__energy>  (90) 
-13.029999999999999

>  <m_primary>  (90) 
energy

$$$$
90:0
     RDKit          3D

 45 47  0  0  0  0  0  0  0  0999 V2000
   55.4980   29.0570   53.2250 C   0  0  0  0  0  0  0  0  0  0  0  0
   55.6580   29.9100   52.0420 N   0  0  0  0  0  0  0  0  0  0  0  0
   54.4780   30.7670   51.8740 C   0  0  0  0  0  0  0  0  0  0  0  0
   57.0750   30.9090   52.2370 S   0  0  0  0  0  0  0  0  0  0  0  0
   56.6890   32.3530   52.0710 O   0  0  0  0  0  0  0  0  0  0  0  0
   57.6710   30.6950   53.6020 O   0  0  0  0  0  0  0  0  0  0  0  0
   58.2420   30.4890   51.0240 N   0  0  0  0  0  0  0  0  0  0  0  0
   58.7930   31.3970   50.0610 C   0  0  0  0  0  0  0  0  0  0  0  0
   59.2950   32.6600   50.4230 C   0  0  0  0  0  0  0  0  0  0  0  0
   59.8070   33.5190   49.4460 C   0  0  0  0  0  0  0  0  0  0  0  0
   59.8320   33.1240   48.1070 C   0  0  0  0  0  0  0  0  0  0  0  0
   59.3590   31.8620   47.7330 C   0  0  0  0  0  0  0  0  0  0  0  0
   59.3930   31.5050   46.3770 O   0  0  0  0  0  0  0  0  0  0  0  0
   58.9140   30.3000   45.8420 C   0  0  0  0  0  0  0  0  0  0  0  0
   57.5680   30.1330   45.4700 C   0  0  0  0  0  0  0  0  0  0  0  0
   57.1240   28.9100   44.9610 C   0  0  0  0  0  0  0  0  0  0  0  0
   58.0130   27.8320   44.8310 C   0  0  0  0  0  0  0  0  0  0  0  0
   57.5420   26.5280   44.2490 C   0  0  0  0  0  0  0  0  0  0  0  0
   57.1280   25.5940   45.3430 C   0  0  0  0  0  0  0  0  0  0  0  0
   58.0220   24.2690   45.8750 S   0  0  0  0  0  0  0  0  0  0  0  0
   56.9180   23.9070   47.0890 C   0  0  0  0  0  0  0  0  0  0  0  0
   57.0330   22.9420   47.8870 O   0  0  0  0  0  0  0  0  0  0  0  0
   55.8810   24.7710   47.1240 N   0  0  0  0  0  0  0  0  0  0  0  0
   56.0020   25.7160   46.1540 C   0  0  0  0  0  0  0  0  0  0  0  0
   55.0640   26.7300   45.9950 O   0  0  0  0  0  0  0  0  0  0  0  0
   59.3550   27.9980   45.2090 C   0  0  0  0  0  0  0  0  0  0  0  0
   59.7970   29.2210   45.7210 C   0  0  0  0  0  0  0  0  0  0  0  0
   58.8240   31.0080   48.7140 C   0  0  0  0  0  0  0  0  0  0  0  0
   55.6122   29.6657   54.1341 H   0  0  0  0  0  0  0  0  0  0  0  0
   54.4982   28.5985   53.2139 H   0  0  0  0  0  0  0  0  0  0  0  0
   56.2637   28.2673   53.2139 H   0  0  0  0  0  0  0  0  0  0  0  0
   54.0872   31.0508   52.8623 H   0  0  0  0  0  0  0  0  0  0  0  0
   54.7591   31.6729   51.3169 H   0  0  0  0  0  0  0  0  0  0  0  0
   53.7035   30.2195   51.3169 H   0  0  0  0  0  0  0  0  0  0  0  0
   59.2847   32.9727   51.4776 H   0  0  0  0  0  0  0  0  0  0  0  0
   60.1913   34.5089   49.7330 H   0  0  0  0  0  0  0  0  0  0  0  0
   60.2259   33.8092   47.3419 H   0  0  0  0  0  0  0  0  0  0  0  0
   56.8617   30.9690   45.5803 H   0  0  0  0  0  0  0  0  0  0  0  0
   56.0724   28.7915   44.6607 H   0  0  0  0  0  0  0  0  0  0  0  0
   56.6841   26.7145   43.5863 H   0  0  0  0  0  0  0  0  0  0  0  0
   58.3643   26.0713   43.6787 H   0  0  0  0  0  0  0  0  0  0  0  0
   54.3970   26.7040   45.2320 H   0  0  0  0  0  0  0  0  0  0  0  0
   60.0616   27.1618   45.1017 H   0  0  0  0  0  0  0  0  0  0  0  0
   60.8461   29.3363   46.0310 H   0  0  0  0  0  0  0  0  0  0  0  0
   58.4259   30.0251   48.4218 H   0  0  0  0  0  0  0  0  0  0  0  0
  1  2  1  0
  2  3  1  0
  2  4  1  0
  4  5  2  0
  4  6  2  0
  4  7  1  0
  7  8  1  0
  8  9  2  0
  9 10  1  0
 10 11  2  0
 11 12  1  0
 12 13  1  0
 13 14  1  0
 14 15  2  0
 15 16  1  0
 16 17  2  0
 17 18  1  0
 18 19  1  0
 19 20  1  0
 20 21  1  0
 21 22  2  0
 21 23  1  0
 23 24  1  0
 24 25  1  0
 17 26  1  0
 26 27  2  0
 12 28  2  0
 28  8  1  0
 27 14  1  0
 24 19  2  0
  1 29  1  0
  1 30  1  0
  1 31  1  0
  3 32  1  0
  3 33  1  0
  3 34  1  0
  9 35  1  0
 10 36  1  0
 11 37  1  0
 15 38  1  0
 16 39  1  0
 18 40  1  0
 18 41  1  0
 25 42  1  0
 26 43  1  0
 27 44  1  0
 28 45  1  0
M  CHG  2   7  -1  23  -1
M  END
>  <UniqueID>  (91) 
86

>  <SMILES>  (91) 
CN(C)S(=O)(=O)[N-]c1cccc(Oc2ccc(Cc3sc(=O)[n-]c3O)cc2)c1

>  <Energy>  (91) 
81.19448861862543

>  <Genealogy>  (91) 
CN(C)S(=O)(=O)[N-]c1cccc(Oc2ccc(Cc3sc(=O)[n-]c3O)cc2)c1 (protonated)
CN(C)S(=O)(=O)[N-]c1cccc(Oc2ccc(Cc3sc(=O)[n-]c3O)cc2)c1 (3D coordinates assigned)
CN(C)S(=O)(=O)[N-]c1cccc(Oc2ccc(Cc3sc(=O)[n-]c3O)cc2)c1 (optimized conformer: 81.19448861862543 kcal/mol)

>  <smiles>  (91) 
CN(C)S(=O)(=O)Nc1cccc(Oc2ccc(Cc3sc(=O)[nH]c3O)cc2)c1

>  <score_type>  (91) 
oracle

>  <origin>  (91) 
adg

>  <m_score__min__energy>  (91) 
-12.869999999999999

>  <m_primary>  (91) 
energy

$$$$
91:0
     RDKit          3D

 37 39  0  0  0  0  0  0  0  0999 V2000
   55.1950   28.8210   45.6430 H   0  0  0  0  0  0  0  0  0  0  0  0
   55.1390   29.3440   44.7410 N   0  0  0  0  0  0  0  0  0  0  0  0
   56.6720   30.1050   44.5050 S   0  0  0  0  0  0  0  0  0  0  0  0
   57.1150   29.9140   43.0810 O   0  0  0  0  0  0  0  0  0  0  0  0
   56.5440   31.5780   44.7760 O   0  0  0  0  0  0  0  0  0  0  0  0
   57.8550   29.3960   45.5970 C   0  0  0  0  0  0  0  0  0  0  0  0
   58.3910   28.1280   45.3320 C   0  0  0  0  0  0  0  0  0  0  0  0
   58.0558   27.5641   44.4490 H   0  0  0  0  0  0  0  0  0  0  0  0
   59.3500   27.5790   46.1870 C   0  0  0  0  0  0  0  0  0  0  0  0
   59.7728   26.5865   45.9723 H   0  0  0  0  0  0  0  0  0  0  0  0
   59.7730   28.2880   47.3140 C   0  0  0  0  0  0  0  0  0  0  0  0
   60.5384   27.8584   47.9770 H   0  0  0  0  0  0  0  0  0  0  0  0
   59.2230   29.5490   47.6030 C   0  0  0  0  0  0  0  0  0  0  0  0
   59.6630   30.3210   48.7320 N   0  0  0  0  0  0  0  0  0  0  0  0
   59.3810   31.5680   49.0000 C   0  0  0  0  0  0  0  0  0  0  0  0
   59.6120   32.6510   48.0110 C   0  0  0  0  0  0  0  0  0  0  0  0
   58.5240   33.3640   47.4800 C   0  0  0  0  0  0  0  0  0  0  0  0
   57.4996   33.1166   47.7953 H   0  0  0  0  0  0  0  0  0  0  0  0
   58.7400   34.3870   46.5520 C   0  0  0  0  0  0  0  0  0  0  0  0
   57.8851   34.9402   46.1360 H   0  0  0  0  0  0  0  0  0  0  0  0
   60.0390   34.7080   46.1520 C   0  0  0  0  0  0  0  0  0  0  0  0
   60.2059   35.5114   45.4194 H   0  0  0  0  0  0  0  0  0  0  0  0
   61.1270   34.0090   46.6820 C   0  0  0  0  0  0  0  0  0  0  0  0
   62.1496   34.2645   46.3674 H   0  0  0  0  0  0  0  0  0  0  0  0
   60.9180   32.9860   47.6110 C   0  0  0  0  0  0  0  0  0  0  0  0
   61.7770   32.4416   48.0303 H   0  0  0  0  0  0  0  0  0  0  0  0
   58.8700   31.9030   50.3520 C   0  0  0  0  0  0  0  0  0  0  0  0
   58.1900   31.0140   51.1850 C   0  0  0  0  0  0  0  0  0  0  0  0
   57.8700   29.6950   50.8780 O   0  0  0  0  0  0  0  0  0  0  0  0
   58.3000   29.2280   50.0890 H   0  0  0  0  0  0  0  0  0  0  0  0
   57.7780   31.7830   52.6200 S   0  0  0  0  0  0  0  0  0  0  0  0
   58.4480   33.2730   52.2200 C   0  0  0  0  0  0  0  0  0  0  0  0
   58.4470   34.1717   52.8544 H   0  0  0  0  0  0  0  0  0  0  0  0
   59.0030   33.1730   50.9500 C   0  0  0  0  0  0  0  0  0  0  0  0
   59.6440   34.2440   50.3400 O   0  0  0  0  0  0  0  0  0  0  0  0
   58.2880   30.1100   46.7240 C   0  0  0  0  0  0  0  0  0  0  0  0
   57.8907   31.1171   46.9187 H   0  0  0  0  0  0  0  0  0  0  0  0
  1  2  1  0
  2  3  1  0
  3  4  2  0
  3  5  2  0
  3  6  1  0
  6  7  2  0
  7  8  1  0
  7  9  1  0
  9 10  1  0
  9 11  2  0
 11 12  1  0
 11 13  1  0
 13 14  1  0
 14 15  2  0
 15 16  1  0
 16 17  2  0
 17 18  1  0
 17 19  1  0
 19 20  1  0
 19 21  2  0
 21 22  1  0
 21 23  1  0
 23 24  1  0
 23 25  2  0
 25 26  1  0
 15 27  1  0
 27 28  2  0
 28 29  1  0
 29 30  1  0
 28 31  1  0
 31 32  1  0
 32 33  1  0
 32 34  2  0
 34 35  1  0
 13 36  2  0
 36 37  1  0
 36  6  1  0
 25 16  1  0
 34 27  1  0
M  CHG  2   2  -1  35  -1
M  END
>  <UniqueID>  (92) 
87

>  <SMILES>  (92) 
[NH-]S(=O)(=O)c1cccc(/N=C(\c2ccccc2)c2c([O-])csc2O)c1

>  <Energy>  (92) 
80.26458036609044

>  <Genealogy>  (92) 
[NH-]S(=O)(=O)c1cccc(N=C(c2ccccc2)c2c([O-])csc2O)c1 (protonated)
[NH-]S(=O)(=O)c1cccc(/N=C(\c2ccccc2)c2c([O-])csc2O)c1 (cis-trans isomerization)
[NH-]S(=O)(=O)c1cccc(/N=C(\c2ccccc2)c2c([O-])csc2O)c1 (3D coordinates assigned)
[NH-]S(=O)(=O)c1cccc(/N=C(\c2ccccc2)c2c([O-])csc2O)c1 (optimized conformer: 80.26458036609044 kcal/mol)

>  <smiles>  (92) 
NS(=O)(=O)c1cccc(N=C(c2ccccc2)c2c(O)csc2O)c1

>  <score_type>  (92) 
oracle

>  <origin>  (92) 
adg

>  <m_score__min__energy>  (92) 
-12.949999999999999

>  <m_primary>  (92) 
energy

$$$$
92:0
     RDKit          3D

 28 29  0  0  0  0  0  0  0  0999 V2000
   55.5990   25.7570   46.0520 N   0  0  0  0  0  0  0  0  0  0  0  0
   56.3980   26.7860   46.0870 C   0  0  0  0  0  0  0  0  0  0  0  0
   56.0760   27.9050   45.4490 N   0  0  0  0  0  0  0  0  0  0  0  0
   56.8250   29.0210   45.4210 C   0  0  0  0  0  0  0  0  0  0  0  0
   56.3910   30.0140   44.7690 N   0  0  0  0  0  0  0  0  0  0  0  0
   58.0150   29.0150   46.1000 C   0  0  0  0  0  0  0  0  0  0  0  0
   58.8220   30.1260   46.1080 C   0  0  0  0  0  0  0  0  0  0  0  0
   58.5380   31.3430   45.4470 N   0  0  0  0  0  0  0  0  0  0  0  0
   59.1030   32.5500   46.0400 C   0  0  0  0  0  0  0  0  0  0  0  0
   58.0960   33.6580   45.9450 C   0  0  0  0  0  0  0  0  0  0  0  0
   56.8760   33.0710   45.6070 F   0  0  0  0  0  0  0  0  0  0  0  0
   60.0090   30.0010   46.8360 C   0  0  0  0  0  0  0  0  0  0  0  0
   60.3500   28.8440   47.5000 C   0  0  0  0  0  0  0  0  0  0  0  0
   59.5260   27.7400   47.4800 C   0  0  0  0  0  0  0  0  0  0  0  0
   58.3500   27.8400   46.7690 C   0  0  0  0  0  0  0  0  0  0  0  0
   57.5560   26.7530   46.7600 N   0  0  0  0  0  0  0  0  0  0  0  0
   54.6290   25.8900   46.3680 H   0  0  0  0  0  0  0  0  0  0  0  0
   55.1550   27.9000   44.9260 H   0  0  0  0  0  0  0  0  0  0  0  0
   56.2380   30.9480   45.2000 H   0  0  0  0  0  0  0  0  0  0  0  0
   57.9800   31.4910   44.5970 H   0  0  0  0  0  0  0  0  0  0  0  0
   59.3468   32.3627   47.0962 H   0  0  0  0  0  0  0  0  0  0  0  0
   60.0200   32.8340   45.5028 H   0  0  0  0  0  0  0  0  0  0  0  0
   58.0114   34.1758   46.9118 H   0  0  0  0  0  0  0  0  0  0  0  0
   58.3977   34.3998   45.1908 H   0  0  0  0  0  0  0  0  0  0  0  0
   60.6961   30.8589   46.8800 H   0  0  0  0  0  0  0  0  0  0  0  0
   61.2977   28.8003   48.0567 H   0  0  0  0  0  0  0  0  0  0  0  0
   59.7963   26.8152   48.0107 H   0  0  0  0  0  0  0  0  0  0  0  0
   57.8350   25.8900   47.2710 H   0  0  0  0  0  0  0  0  0  0  0  0
  1  2  2  3
  2  3  1  0
  3  4  1  0
  4  5  2  3
  4  6  1  0
  6  7  2  0
  7  8  1  0
  8  9  1  0
  9 10  1  0
 10 11  1  0
  7 12  1  0
 12 13  2  0
 13 14  1  0
 14 15  2  0
 15 16  1  0
 16  2  1  0
 15  6  1  0
  1 17  1  0
  3 18  1  0
  5 19  1  0
  8 20  1  0
  9 21  1  0
  9 22  1  0
 10 23  1  0
 10 24  1  0
 12 25  1  0
 13 26  1  0
 14 27  1  0
 16 28  1  0
M  END
>  <smiles>  (93) 
N=c1[nH]c(=N)c2c(NCCF)cccc2[nH]1

>  <score_type>  (93) 
oracle

>  <origin>  (93) 
adg

>  <m_score__min__energy>  (93) 
-5.2300000000000004

>  <m_primary>  (93) 
energy

$$$$
93:0
     RDKit          3D

 43 45  0  0  0  0  0  0  0  0999 V2000
   61.0790   31.0401   47.2507 H   0  0  0  0  0  0  0  0  0  0  0  0
   60.4910   30.4420   46.5390 C   0  0  0  0  0  0  0  0  0  0  0  0
   59.2200   30.8080   46.2310 N   0  0  0  0  0  0  0  0  0  0  0  0
   58.4420   30.0950   45.3690 C   0  0  0  0  0  0  0  0  0  0  0  0
   57.0740   30.5870   45.0770 C   0  0  0  0  0  0  0  0  0  0  0  0
   56.1440   29.7630   44.8710 O   0  0  0  0  0  0  0  0  0  0  0  0
   56.7900   31.9870   44.9200 N   0  0  0  0  0  0  0  0  0  0  0  0
   57.5930   32.9730   45.2020 C   0  0  0  0  0  0  0  0  0  0  0  0
   58.4090   33.5160   44.2530 N   0  0  0  0  0  0  0  0  0  0  0  0
   59.2630   34.5360   44.5340 C   0  0  0  0  0  0  0  0  0  0  0  0
   59.9027   34.9526   43.7420 H   0  0  0  0  0  0  0  0  0  0  0  0
   59.3270   35.0540   45.8290 C   0  0  0  0  0  0  0  0  0  0  0  0
   60.0112   35.8830   46.0629 H   0  0  0  0  0  0  0  0  0  0  0  0
   58.5140   34.5090   46.8230 C   0  0  0  0  0  0  0  0  0  0  0  0
   58.5593   34.9028   47.8491 H   0  0  0  0  0  0  0  0  0  0  0  0
   57.6420   33.4620   46.5130 C   0  0  0  0  0  0  0  0  0  0  0  0
   56.9997   33.0258   47.2922 H   0  0  0  0  0  0  0  0  0  0  0  0
   58.9630   28.9260   44.7710 C   0  0  0  0  0  0  0  0  0  0  0  0
   58.1610   28.1670   43.8520 N   0  0  0  0  0  0  0  0  0  0  0  0
   57.8150   26.7810   43.9610 C   0  0  0  0  0  0  0  0  0  0  0  0
   57.7810   26.0410   42.9420 O   0  0  0  0  0  0  0  0  0  0  0  0
   57.5060   26.2040   45.3050 C   0  0  0  0  0  0  0  0  0  0  0  0
   57.1723   27.0076   45.9780 H   0  0  0  0  0  0  0  0  0  0  0  0
   58.4117   25.7289   45.7099 H   0  0  0  0  0  0  0  0  0  0  0  0
   56.4170   25.1690   45.1860 C   0  0  0  0  0  0  0  0  0  0  0  0
   56.6970   23.9240   44.5970 C   0  0  0  0  0  0  0  0  0  0  0  0
   57.7154   23.7052   44.2436 H   0  0  0  0  0  0  0  0  0  0  0  0
   55.6860   22.9540   44.4550 C   0  0  0  0  0  0  0  0  0  0  0  0
   55.9240   21.6950   43.8840 O   0  0  0  0  0  0  0  0  0  0  0  0
   57.1730   21.2830   43.3370 C   0  0  0  0  0  0  0  0  0  0  0  0
   57.8727   21.0522   44.1538 H   0  0  0  0  0  0  0  0  0  0  0  0
   57.0241   20.3864   42.7174 H   0  0  0  0  0  0  0  0  0  0  0  0
   57.5868   22.0923   42.7174 H   0  0  0  0  0  0  0  0  0  0  0  0
   54.3910   23.2480   44.8970 C   0  0  0  0  0  0  0  0  0  0  0  0
   53.5949   22.4963   44.7912 H   0  0  0  0  0  0  0  0  0  0  0  0
   54.1010   24.4870   45.4710 C   0  0  0  0  0  0  0  0  0  0  0  0
   53.0784   24.7069   45.8115 H   0  0  0  0  0  0  0  0  0  0  0  0
   55.1050   25.4500   45.6150 C   0  0  0  0  0  0  0  0  0  0  0  0
   54.7920   26.6810   46.1830 O   0  0  0  0  0  0  0  0  0  0  0  0
   60.2880   28.5550   45.0610 C   0  0  0  0  0  0  0  0  0  0  0  0
   60.7256   27.6666   44.5822 H   0  0  0  0  0  0  0  0  0  0  0  0
   61.0490   29.3090   45.9530 C   0  0  0  0  0  0  0  0  0  0  0  0
   62.0808   29.0116   46.1917 H   0  0  0  0  0  0  0  0  0  0  0  0
  1  2  1  0
  2  3  2  0
  3  4  1  0
  4  5  1  0
  5  6  2  0
  5  7  1  0
  7  8  2  0
  8  9  1  0
  9 10  1  0
 10 11  1  0
 10 12  2  0
 12 13  1  0
 12 14  1  0
 14 15  1  0
 14 16  2  0
 16 17  1  0
  4 18  2  0
 18 19  1  0
 19 20  1  0
 20 21  2  0
 20 22  1  0
 22 23  1  0
 22 24  1  0
 22 25  1  0
 25 26  2  0
 26 27  1  0
 26 28  1  0
 28 29  1  0
 29 30  1  0
 30 31  1  0
 30 32  1  0
 30 33  1  0
 28 34  2  0
 34 35  1  0
 34 36  1  0
 36 37  1  0
 36 38  2  0
 38 39  1  0
 18 40  1  0
 40 41  1  0
 40 42  2  0
 42 43  1  0
 42  2  1  0
 16  8  1  0
 38 25  1  0
M  CHG  3   9  -1  19  -1  39  -1
M  END
>  <UniqueID>  (94) 
88

>  <SMILES>  (94) 
COc1ccc([O-])c(CC(=O)[N-]c2cccnc2C(=O)/N=c2/cccc[n-]2)c1

>  <Energy>  (94) 
57.177849717367565

>  <Genealogy>  (94) 
COc1ccc([O-])c(CC(=O)[N-]c2cccnc2C(=O)N=c2cccc[n-]2)c1 (protonated)
COc1ccc([O-])c(CC(=O)[N-]c2cccnc2C(=O)/N=c2/cccc[n-]2)c1 (cis-trans isomerization)
COc1ccc([O-])c(CC(=O)[N-]c2cccnc2C(=O)/N=c2/cccc[n-]2)c1 (3D coordinates assigned)
COc1ccc([O-])c(CC(=O)[N-]c2cccnc2C(=O)/N=c2/cccc[n-]2)c1 (optimized conformer: 57.177849717367565 kcal/mol)

>  <smiles>  (94) 
COc1ccc(O)c(CC(=O)Nc2cccnc2C(=O)N=c2cccc[nH]2)c1

>  <score_type>  (94) 
oracle

>  <origin>  (94) 
adg

>  <m_score__min__energy>  (94) 
-14.19

>  <m_primary>  (94) 
energy

$$$$
94:0
     RDKit          3D

 50 53  0  0  0  0  0  0  0  0999 V2000
   58.9400   32.8860   50.2440 O   0  0  0  0  0  0  0  0  0  0  0  0
   59.4400   32.3820   49.1830 C   0  0  0  0  0  0  0  0  0  0  0  0
   59.7020   30.9710   49.2200 C   0  0  0  0  0  0  0  0  0  0  0  0
   58.9620   29.9910   48.6110 C   0  0  0  0  0  0  0  0  0  0  0  0
   59.3170   28.6470   48.7270 C   0  0  0  0  0  0  0  0  0  0  0  0
   60.4080   28.2310   49.4450 C   0  0  0  0  0  0  0  0  0  0  0  0
   61.1570   29.2250   50.0630 C   0  0  0  0  0  0  0  0  0  0  0  0
   60.8160   30.5460   49.9530 C   0  0  0  0  0  0  0  0  0  0  0  0
   59.6790   33.2730   48.1170 N   0  0  0  0  0  0  0  0  0  0  0  0
   60.7600   34.2720   48.2040 C   0  0  0  0  0  0  0  0  0  0  0  0
   62.0950   33.6690   48.0280 C   0  0  0  0  0  0  0  0  0  0  0  0
   62.8430   33.4790   46.8890 C   0  0  0  0  0  0  0  0  0  0  0  0
   63.9900   32.8940   47.3170 N   0  0  0  0  0  0  0  0  0  0  0  0
   63.9570   32.7290   48.6490 C   0  0  0  0  0  0  0  0  0  0  0  0
   62.7950   33.2010   49.1010 N   0  0  0  0  0  0  0  0  0  0  0  0
   58.9630   33.2990   46.8870 C   0  0  0  0  0  0  0  0  0  0  0  0
   59.1340   34.3980   46.0840 C   0  0  0  0  0  0  0  0  0  0  0  0
   58.4910   34.5800   44.8940 C   0  0  0  0  0  0  0  0  0  0  0  0
   57.6140   33.5690   44.5000 C   0  0  0  0  0  0  0  0  0  0  0  0
   57.4100   32.4340   45.2800 C   0  0  0  0  0  0  0  0  0  0  0  0
   56.5250   31.4440   44.8560 O   0  0  0  0  0  0  0  0  0  0  0  0
   57.0560   30.5190   43.9270 C   0  0  0  0  0  0  0  0  0  0  0  0
   57.8690   29.4530   44.5390 C   0  0  0  0  0  0  0  0  0  0  0  0
   57.3670   28.2910   45.0680 C   0  0  0  0  0  0  0  0  0  0  0  0
   58.2630   27.3700   45.6000 C   0  0  0  0  0  0  0  0  0  0  0  0
   59.6170   27.5830   45.6120 C   0  0  0  0  0  0  0  0  0  0  0  0
   60.1320   28.7480   45.0830 C   0  0  0  0  0  0  0  0  0  0  0  0
   59.2340   29.6580   44.5570 C   0  0  0  0  0  0  0  0  0  0  0  0
   58.0980   32.3030   46.4900 C   0  0  0  0  0  0  0  0  0  0  0  0
   58.0752   30.2684   48.0222 H   0  0  0  0  0  0  0  0  0  0  0  0
   58.6970   27.8913   48.2225 H   0  0  0  0  0  0  0  0  0  0  0  0
   60.6762   27.1674   49.5276 H   0  0  0  0  0  0  0  0  0  0  0  0
   62.0422   28.9444   50.6527 H   0  0  0  0  0  0  0  0  0  0  0  0
   61.4387   31.2993   50.4579 H   0  0  0  0  0  0  0  0  0  0  0  0
   60.6071   35.0279   47.4197 H   0  0  0  0  0  0  0  0  0  0  0  0
   60.7232   34.7212   49.2074 H   0  0  0  0  0  0  0  0  0  0  0  0
   62.5706   33.7436   45.8566 H   0  0  0  0  0  0  0  0  0  0  0  0
   64.7830   32.6110   46.7210 H   0  0  0  0  0  0  0  0  0  0  0  0
   64.7526   32.2810   49.2624 H   0  0  0  0  0  0  0  0  0  0  0  0
   59.8314   35.1797   46.4195 H   0  0  0  0  0  0  0  0  0  0  0  0
   58.6555   35.4764   44.2781 H   0  0  0  0  0  0  0  0  0  0  0  0
   57.0701   33.6712   43.5493 H   0  0  0  0  0  0  0  0  0  0  0  0
   56.2189   30.0498   43.3893 H   0  0  0  0  0  0  0  0  0  0  0  0
   57.7237   31.0852   43.2610 H   0  0  0  0  0  0  0  0  0  0  0  0
   56.2850   28.0931   45.0713 H   0  0  0  0  0  0  0  0  0  0  0  0
   57.8704   26.4355   46.0272 H   0  0  0  0  0  0  0  0  0  0  0  0
   60.2907   26.8273   46.0421 H   0  0  0  0  0  0  0  0  0  0  0  0
   61.2142   28.9452   45.0798 H   0  0  0  0  0  0  0  0  0  0  0  0
   59.6272   30.5929   44.1312 H   0  0  0  0  0  0  0  0  0  0  0  0
   57.9500   31.4129   47.1192 H   0  0  0  0  0  0  0  0  0  0  0  0
  1  2  2  0
  2  3  1  0
  3  4  2  0
  4  5  1  0
  5  6  2  0
  6  7  1  0
  7  8  2  0
  2  9  1  0
  9 10  1  0
 10 11  1  0
 11 12  2  0
 12 13  1  0
 13 14  1  0
 14 15  2  0
  9 16  1  0
 16 17  2  0
 17 18  1  0
 18 19  2  0
 19 20  1  0
 20 21  1  0
 21 22  1  0
 22 23  1  0
 23 24  2  0
 24 25  1  0
 25 26  2  0
 26 27  1  0
 27 28  2  0
 20 29  2  0
  8  3  1  0
 15 11  1  0
 29 16  1  0
 28 23  1  0
  4 30  1  0
  5 31  1  0
  6 32  1  0
  7 33  1  0
  8 34  1  0
 10 35  1  0
 10 36  1  0
 12 37  1  0
 13 38  1  0
 14 39  1  0
 17 40  1  0
 18 41  1  0
 19 42  1  0
 22 43  1  0
 22 44  1  0
 24 45  1  0
 25 46  1  0
 26 47  1  0
 27 48  1  0
 28 49  1  0
 29 50  1  0
M  END
>  <smiles>  (95) 
O=C(c1ccccc1)N(Cc1c[nH]cn1)c1cccc(OCc2ccccc2)c1

>  <score_type>  (95) 
oracle

>  <origin>  (95) 
adg

>  <m_score__min__energy>  (95) 
-8.6899999999999995

>  <m_primary>  (95) 
energy

$$$$
