0:0
     RDKit          3D

 58 61  0  0  0  0  0  0  0  0999 V2000
   59.9800   35.4680   46.3310 C   0  0  0  0  0  0  0  0  0  0  0  0
   59.0550   34.3950   45.8410 C   0  0  0  0  0  0  0  0  0  0  0  0
   59.1010   33.9770   44.5020 C   0  0  0  0  0  0  0  0  0  0  0  0
   58.2660   32.9490   44.0530 C   0  0  0  0  0  0  0  0  0  0  0  0
   57.3680   32.3290   44.9400 C   0  0  0  0  0  0  0  0  0  0  0  0
   56.5070   31.2610   44.5170 N   0  0  0  0  0  0  0  0  0  0  0  0
   56.5940   29.8900   44.9270 C   0  0  0  0  0  0  0  0  0  0  0  0
   55.5470   29.1900   44.9140 O   0  0  0  0  0  0  0  0  0  0  0  0
   57.8820   29.2630   45.3120 C   0  0  0  0  0  0  0  0  0  0  0  0
   58.2640   28.0220   44.7770 C   0  0  0  0  0  0  0  0  0  0  0  0
   59.4790   27.4400   45.1420 C   0  0  0  0  0  0  0  0  0  0  0  0
   60.3190   28.0810   46.0540 C   0  0  0  0  0  0  0  0  0  0  0  0
   59.9470   29.3110   46.6240 C   0  0  0  0  0  0  0  0  0  0  0  0
   60.8340   30.0010   47.5920 C   0  0  0  0  0  0  0  0  0  0  0  0
   60.9580   29.5390   48.7590 O   0  0  0  0  0  0  0  0  0  0  0  0
   61.5920   31.1590   47.2000 N   0  0  0  0  0  0  0  0  0  0  0  0
   62.1520   32.0990   48.1340 C   0  0  0  0  0  0  0  0  0  0  0  0
   61.4990   33.3080   48.4370 C   0  0  0  0  0  0  0  0  0  0  0  0
   62.0730   34.2120   49.3340 C   0  0  0  0  0  0  0  0  0  0  0  0
   63.3050   33.9290   49.9260 C   0  0  0  0  0  0  0  0  0  0  0  0
   63.9800   32.7420   49.6110 C   0  0  0  0  0  0  0  0  0  0  0  0
   65.5330   32.3960   50.3670 S   0  0  0  0  0  0  0  0  0  0  0  0
   66.6250   32.7470   49.3940 O   0  0  0  0  0  0  0  0  0  0  0  0
   65.6280   30.9300   50.6870 O   0  0  0  0  0  0  0  0  0  0  0  0
   65.6890   33.3570   51.8240 N   0  0  0  0  0  0  0  0  0  0  0  0
   66.0900   32.5350   52.9870 C   0  0  0  0  0  0  0  0  0  0  0  0
   67.5960   32.6280   53.2900 C   0  0  0  0  0  0  0  0  0  0  0  0
   68.3260   32.8110   52.0990 O   0  0  0  0  0  0  0  0  0  0  0  0
   68.0710   34.0980   51.5600 C   0  0  0  0  0  0  0  0  0  0  0  0
   66.5810   34.5120   51.6210 C   0  0  0  0  0  0  0  0  0  0  0  0
   63.4020   31.8330   48.7140 C   0  0  0  0  0  0  0  0  0  0  0  0
   58.7250   29.8960   46.2420 C   0  0  0  0  0  0  0  0  0  0  0  0
   57.3510   32.7190   46.2840 C   0  0  0  0  0  0  0  0  0  0  0  0
   58.1880   33.7460   46.7340 C   0  0  0  0  0  0  0  0  0  0  0  0
   59.9849   35.4737   47.4310 H   0  0  0  0  0  0  0  0  0  0  0  0
   60.9972   35.2724   45.9608 H   0  0  0  0  0  0  0  0  0  0  0  0
   59.6367   36.4453   45.9608 H   0  0  0  0  0  0  0  0  0  0  0  0
   59.7978   34.4608   43.8017 H   0  0  0  0  0  0  0  0  0  0  0  0
   58.3118   32.6244   43.0030 H   0  0  0  0  0  0  0  0  0  0  0  0
   57.6019   27.5057   44.0663 H   0  0  0  0  0  0  0  0  0  0  0  0
   59.7755   26.4730   44.7095 H   0  0  0  0  0  0  0  0  0  0  0  0
   61.2793   27.6202   46.3288 H   0  0  0  0  0  0  0  0  0  0  0  0
   61.8480   31.2600   46.1920 H   0  0  0  0  0  0  0  0  0  0  0  0
   60.5330   33.5421   47.9658 H   0  0  0  0  0  0  0  0  0  0  0  0
   61.5521   35.1505   49.5747 H   0  0  0  0  0  0  0  0  0  0  0  0
   63.7467   34.6388   50.6409 H   0  0  0  0  0  0  0  0  0  0  0  0
   65.5316   32.8789   53.8701 H   0  0  0  0  0  0  0  0  0  0  0  0
   65.8642   31.4858   52.7456 H   0  0  0  0  0  0  0  0  0  0  0  0
   67.7787   33.4798   53.9616 H   0  0  0  0  0  0  0  0  0  0  0  0
   67.9222   31.6928   53.7684 H   0  0  0  0  0  0  0  0  0  0  0  0
   68.6600   34.8348   52.1259 H   0  0  0  0  0  0  0  0  0  0  0  0
   68.3527   34.0639   50.4972 H   0  0  0  0  0  0  0  0  0  0  0  0
   66.4432   35.2165   52.4545 H   0  0  0  0  0  0  0  0  0  0  0  0
   66.3199   34.9744   50.6577 H   0  0  0  0  0  0  0  0  0  0  0  0
   63.9329   30.9030   48.4625 H   0  0  0  0  0  0  0  0  0  0  0  0
   58.4258   30.8611   46.6769 H   0  0  0  0  0  0  0  0  0  0  0  0
   56.6755   32.2151   46.9909 H   0  0  0  0  0  0  0  0  0  0  0  0
   58.1665   34.0461   47.7921 H   0  0  0  0  0  0  0  0  0  0  0  0
  1  2  1  0
  2  3  2  0
  3  4  1  0
  4  5  2  0
  5  6  1  0
  6  7  1  0
  7  8  2  0
  7  9  1  0
  9 10  2  0
 10 11  1  0
 11 12  2  0
 12 13  1  0
 13 14  1  0
 14 15  2  0
 14 16  1  0
 16 17  1  0
 17 18  2  0
 18 19  1  0
 19 20  2  0
 20 21  1  0
 21 22  1  0
 22 23  2  0
 22 24  2  0
 22 25  1  0
 25 26  1  0
 26 27  1  0
 27 28  1  0
 28 29  1  0
 29 30  1  0
 21 31  2  0
 13 32  2  0
  5 33  1  0
 33 34  2  0
 34  2  1  0
 32  9  1  0
 31 17  1  0
 30 25  1  0
  1 35  1  0
  1 36  1  0
  1 37  1  0
  3 38  1  0
  4 39  1  0
 10 40  1  0
 11 41  1  0
 12 42  1  0
 16 43  1  0
 18 44  1  0
 19 45  1  0
 20 46  1  0
 26 47  1  0
 26 48  1  0
 27 49  1  0
 27 50  1  0
 29 51  1  0
 29 52  1  0
 30 53  1  0
 30 54  1  0
 31 55  1  0
 32 56  1  0
 33 57  1  0
 34 58  1  0
M  CHG  1   6  -1
M  END
>  <UniqueID>  (1) 
1

>  <SMILES>  (1) 
Cc1ccc([N-]C(=O)c2cccc(C(=O)Nc3cccc(S(=O)(=O)N4CCOCC4)c3)c2)cc1

>  <Energy>  (1) 
84.03824996922768

>  <Genealogy>  (1) 
Cc1ccc([N-]C(=O)c2cccc(C(=O)Nc3cccc(S(=O)(=O)N4CCOCC4)c3)c2)cc1 (protonated)
Cc1ccc([N-]C(=O)c2cccc(C(=O)Nc3cccc(S(=O)(=O)N4CCOCC4)c3)c2)cc1 (3D coordinates assigned)
Cc1ccc([N-]C(=O)c2cccc(C(=O)Nc3cccc(S(=O)(=O)N4CCOCC4)c3)c2)cc1 (nonaromatic ring conformer: 84.03824996922768 kcal/mol)

>  <smiles>  (1) 
Cc1ccc(NC(=O)c2cccc(C(=O)Nc3cccc(S(=O)(=O)N4CCOCC4)c3)c2)cc1

>  <score_type>  (1) 
oracle

>  <origin>  (1) 
adg

>  <m_score__min__energy>  (1) 
-11.15

>  <m_primary>  (1) 
energy

$$$$
1:0
     RDKit          3D

 61 65  0  0  0  0  0  0  0  0999 V2000
   59.7650   25.4730   45.6870 C   0  0  0  0  0  0  0  0  0  0  0  0
   58.8030   26.3880   45.8920 C   0  0  0  0  0  0  0  0  0  0  0  0
   57.5370   26.1430   46.4320 C   0  0  0  0  0  0  0  0  0  0  0  0
   57.0580   24.9720   46.8970 C   0  0  0  0  0  0  0  0  0  0  0  0
   55.8240   24.3370   46.4020 C   0  0  0  0  0  0  0  0  0  0  0  0
   55.6990   23.0050   46.2220 N   0  0  0  0  0  0  0  0  0  0  0  0
   54.4490   22.8620   45.7320 C   0  0  0  0  0  0  0  0  0  0  0  0
   53.9530   21.7390   45.4510 O   0  0  0  0  0  0  0  0  0  0  0  0
   53.7870   24.0300   45.5710 N   0  0  0  0  0  0  0  0  0  0  0  0
   52.4070   24.2200   45.0970 C   0  0  0  0  0  0  0  0  0  0  0  0
   51.3920   23.4480   45.9860 C   0  0  0  0  0  0  0  0  0  0  0  0
   50.6680   22.3210   45.2380 C   0  0  0  0  0  0  0  0  0  0  0  0
   49.9830   22.8340   43.9590 C   0  0  0  0  0  0  0  0  0  0  0  0
   50.8380   23.8360   43.1520 C   0  0  0  0  0  0  0  0  0  0  0  0
   52.3040   23.8620   43.6000 C   0  0  0  0  0  0  0  0  0  0  0  0
   54.6670   24.9620   45.9830 C   0  0  0  0  0  0  0  0  0  0  0  0
   54.4440   26.3330   45.9420 O   0  0  0  0  0  0  0  0  0  0  0  0
   56.8770   27.3640   46.4450 C   0  0  0  0  0  0  0  0  0  0  0  0
   57.7500   28.2970   45.9230 C   0  0  0  0  0  0  0  0  0  0  0  0
   57.4390   29.7270   45.7160 C   0  0  0  0  0  0  0  0  0  0  0  0
   56.5800   30.0320   44.8470 O   0  0  0  0  0  0  0  0  0  0  0  0
   58.1040   30.7640   46.4650 N   0  0  0  0  0  0  0  0  0  0  0  0
   58.6630   30.6060   47.8130 C   0  0  0  0  0  0  0  0  0  0  0  0
   59.2970   31.9660   48.1870 C   0  0  0  0  0  0  0  0  0  0  0  0
   59.0440   32.8050   46.9860 C   0  0  0  0  0  0  0  0  0  0  0  0
   59.4370   34.1260   46.7750 C   0  0  0  0  0  0  0  0  0  0  0  0
   59.1390   34.7260   45.5420 C   0  0  0  0  0  0  0  0  0  0  0  0
   58.4670   33.9950   44.5440 C   0  0  0  0  0  0  0  0  0  0  0  0
   58.0830   32.6650   44.7780 C   0  0  0  0  0  0  0  0  0  0  0  0
   58.3710   32.0930   46.0270 C   0  0  0  0  0  0  0  0  0  0  0  0
   58.9230   27.7070   45.5850 N   0  0  0  0  0  0  0  0  0  0  0  0
   60.0900   28.3800   44.9940 C   0  0  0  0  0  0  0  0  0  0  0  0
   60.7460   29.3090   46.0110 C   0  0  0  0  0  0  0  0  0  0  0  0
   60.7295   25.7766   45.2538 H   0  0  0  0  0  0  0  0  0  0  0  0
   59.5882   24.4202   45.9523 H   0  0  0  0  0  0  0  0  0  0  0  0
   57.6209   24.4609   47.6920 H   0  0  0  0  0  0  0  0  0  0  0  0
   52.1369   25.2821   45.1916 H   0  0  0  0  0  0  0  0  0  0  0  0
   51.9347   23.0105   46.8369 H   0  0  0  0  0  0  0  0  0  0  0  0
   50.6271   24.1690   46.3102 H   0  0  0  0  0  0  0  0  0  0  0  0
   51.4003   21.5472   44.9642 H   0  0  0  0  0  0  0  0  0  0  0  0
   49.8919   21.9125   45.9020 H   0  0  0  0  0  0  0  0  0  0  0  0
   49.7604   21.9706   43.3148 H   0  0  0  0  0  0  0  0  0  0  0  0
   49.0754   23.3693   44.2747 H   0  0  0  0  0  0  0  0  0  0  0  0
   50.8002   23.5542   42.0894 H   0  0  0  0  0  0  0  0  0  0  0  0
   50.4216   24.8397   43.3231 H   0  0  0  0  0  0  0  0  0  0  0  0
   52.7507   22.8706   43.4336 H   0  0  0  0  0  0  0  0  0  0  0  0
   52.8405   24.6236   43.0151 H   0  0  0  0  0  0  0  0  0  0  0  0
   55.8540   27.5521   46.8028 H   0  0  0  0  0  0  0  0  0  0  0  0
   57.8667   30.3487   48.5269 H   0  0  0  0  0  0  0  0  0  0  0  0
   59.4086   29.7978   47.8425 H   0  0  0  0  0  0  0  0  0  0  0  0
   58.8123   32.3951   49.0763 H   0  0  0  0  0  0  0  0  0  0  0  0
   60.3648   31.8875   48.4393 H   0  0  0  0  0  0  0  0  0  0  0  0
   59.9692   34.6858   47.5582 H   0  0  0  0  0  0  0  0  0  0  0  0
   59.4311   35.7699   45.3548 H   0  0  0  0  0  0  0  0  0  0  0  0
   58.2418   34.4679   43.5767 H   0  0  0  0  0  0  0  0  0  0  0  0
   57.5675   32.0837   43.9993 H   0  0  0  0  0  0  0  0  0  0  0  0
   60.8200   27.6224   44.6728 H   0  0  0  0  0  0  0  0  0  0  0  0
   59.7566   28.9765   44.1320 H   0  0  0  0  0  0  0  0  0  0  0  0
   60.5049   28.9675   47.0285 H   0  0  0  0  0  0  0  0  0  0  0  0
   61.8367   29.2966   45.8689 H   0  0  0  0  0  0  0  0  0  0  0  0
   60.3694   30.3327   45.8689 H   0  0  0  0  0  0  0  0  0  0  0  0
  1  2  2  0
  2  3  1  0
  3  4  2  3
  4  5  1  0
  5  6  1  0
  6  7  1  0
  7  8  2  0
  7  9  1  0
  9 10  1  0
 10 11  1  0
 11 12  1  0
 12 13  1  0
 13 14  1  0
 14 15  1  0
  9 16  1  0
 16 17  1  0
  3 18  1  0
 18 19  2  0
 19 20  1  0
 20 21  2  0
 20 22  1  0
 22 23  1  0
 23 24  1  0
 24 25  1  0
 25 26  2  0
 26 27  1  0
 27 28  2  0
 28 29  1  0
 29 30  2  0
 19 31  1  0
 31 32  1  0
 32 33  1  0
 31  2  1  0
 16  5  2  0
 30 22  1  0
 15 10  1  0
 30 25  1  0
  1 34  1  0
  1 35  1  0
  4 36  1  0
 10 37  1  0
 11 38  1  0
 11 39  1  0
 12 40  1  0
 12 41  1  0
 13 42  1  0
 13 43  1  0
 14 44  1  0
 14 45  1  0
 15 46  1  0
 15 47  1  0
 18 48  1  0
 23 49  1  0
 23 50  1  0
 24 51  1  0
 24 52  1  0
 26 53  1  0
 27 54  1  0
 28 55  1  0
 29 56  1  0
 32 57  1  0
 32 58  1  0
 33 59  1  0
 33 60  1  0
 33 61  1  0
M  CHG  2   6  -1  17  -1
M  END
>  <UniqueID>  (2) 
2

>  <SMILES>  (2) 
C=c1c(=Cc2[n-]c(=O)n(C3CCCCC3)c2[O-])cc(C(=O)N2CCc3ccccc32)n1CC

>  <Energy>  (2) 
155.95367540519038

>  <Genealogy>  (2) 
C=c1c(=Cc2[n-]c(=O)n(C3CCCCC3)c2[O-])cc(C(=O)N2CCc3ccccc32)n1CC (protonated)
C=c1c(=Cc2[n-]c(=O)n(C3CCCCC3)c2[O-])cc(C(=O)N2CCc3ccccc32)n1CC (3D coordinates assigned)
C=c1c(=Cc2[n-]c(=O)n(C3CCCCC3)c2[O-])cc(C(=O)N2CCc3ccccc32)n1CC (nonaromatic ring conformer: 155.95367540519038 kcal/mol)

>  <smiles>  (2) 
C=c1c(=Cc2[nH]c(=O)n(C3CCCCC3)c2O)cc(C(=O)N2CCc3ccccc32)n1CC

>  <score_type>  (2) 
oracle

>  <origin>  (2) 
adg

>  <m_score__min__energy>  (2) 
-14.08

>  <m_primary>  (2) 
energy

$$$$
2:0
     RDKit          3D

 48 51  0  0  0  0  0  0  0  0999 V2000
   57.8529   30.9620   53.1430 H   0  0  0  0  0  0  0  0  0  0  0  0
   57.0840   30.3640   52.6320 C   0  0  0  0  0  0  0  0  0  0  0  0
   57.3890   29.7590   51.5720 O   0  0  0  0  0  0  0  0  0  0  0  0
   55.7280   30.2980   53.2130 C   0  0  0  0  0  0  0  0  0  0  0  0
   54.6150   30.7510   52.5390 C   0  0  0  0  0  0  0  0  0  0  0  0
   54.6026   31.2409   51.5542 H   0  0  0  0  0  0  0  0  0  0  0  0
   53.5180   30.4750   53.3310 C   0  0  0  0  0  0  0  0  0  0  0  0
   52.2550   30.7070   52.9230 C   0  0  0  0  0  0  0  0  0  0  0  0
   51.4619   30.6282   53.6812 H   0  0  0  0  0  0  0  0  0  0  0  0
   51.8410   31.0560   51.5560 C   0  0  0  0  0  0  0  0  0  0  0  0
   52.0070   30.2420   50.4990 N   0  0  0  0  0  0  0  0  0  0  0  0
   51.3780   30.8980   49.4990 C   0  0  0  0  0  0  0  0  0  0  0  0
   51.3270   30.4520   48.3230 O   0  0  0  0  0  0  0  0  0  0  0  0
   50.7960   32.0610   49.8610 N   0  0  0  0  0  0  0  0  0  0  0  0
   51.0860   32.1410   51.1690 C   0  0  0  0  0  0  0  0  0  0  0  0
   50.6440   33.1660   51.9960 O   0  0  0  0  0  0  0  0  0  0  0  0
   54.0210   29.9180   54.5180 C   0  0  0  0  0  0  0  0  0  0  0  0
   53.3130   29.6440   55.6280 C   0  0  0  0  0  0  0  0  0  0  0  0
   53.8124   29.2058   56.5047 H   0  0  0  0  0  0  0  0  0  0  0  0
   52.2345   29.8581   55.6593 H   0  0  0  0  0  0  0  0  0  0  0  0
   55.3770   29.7940   54.4260 N   0  0  0  0  0  0  0  0  0  0  0  0
   56.2990   29.2310   55.4310 C   0  0  0  0  0  0  0  0  0  0  0  0
   57.0390   29.9963   55.7082 H   0  0  0  0  0  0  0  0  0  0  0  0
   55.7126   28.9237   56.3095 H   0  0  0  0  0  0  0  0  0  0  0  0
   57.0200   28.0220   54.8900 C   0  0  0  0  0  0  0  0  0  0  0  0
   58.4140   28.0200   54.7590 C   0  0  0  0  0  0  0  0  0  0  0  0
   58.9909   28.9042   55.0680 H   0  0  0  0  0  0  0  0  0  0  0  0
   59.0800   26.9070   54.2400 C   0  0  0  0  0  0  0  0  0  0  0  0
   60.1768   26.9229   54.1579 H   0  0  0  0  0  0  0  0  0  0  0  0
   58.3670   25.7590   53.8180 C   0  0  0  0  0  0  0  0  0  0  0  0
   59.0610   24.5920   53.2770 N   0  0  0  0  0  0  0  0  0  0  0  0
   60.4690   24.7210   52.8480 C   0  0  0  0  0  0  0  0  0  0  0  0
   60.5153   25.4453   52.0214 H   0  0  0  0  0  0  0  0  0  0  0  0
   61.0441   25.0496   53.7263 H   0  0  0  0  0  0  0  0  0  0  0  0
   61.0900   23.4050   52.3730 C   0  0  0  0  0  0  0  0  0  0  0  0
   61.9546   23.6266   51.7301 H   0  0  0  0  0  0  0  0  0  0  0  0
   61.4036   22.8271   53.2549 H   0  0  0  0  0  0  0  0  0  0  0  0
   60.1590   22.6420   51.6450 O   0  0  0  0  0  0  0  0  0  0  0  0
   59.1670   22.1870   52.5350 C   0  0  0  0  0  0  0  0  0  0  0  0
   58.5281   21.4557   52.0183 H   0  0  0  0  0  0  0  0  0  0  0  0
   59.6600   21.7231   53.4020 H   0  0  0  0  0  0  0  0  0  0  0  0
   58.3000   23.3480   53.0300 C   0  0  0  0  0  0  0  0  0  0  0  0
   57.5309   23.5557   52.2715 H   0  0  0  0  0  0  0  0  0  0  0  0
   57.8659   23.0390   53.9923 H   0  0  0  0  0  0  0  0  0  0  0  0
   56.9580   25.7830   53.9430 C   0  0  0  0  0  0  0  0  0  0  0  0
   56.3717   24.9080   53.6257 H   0  0  0  0  0  0  0  0  0  0  0  0
   56.2990   26.9000   54.4630 C   0  0  0  0  0  0  0  0  0  0  0  0
   55.2015   26.8980   54.5378 H   0  0  0  0  0  0  0  0  0  0  0  0
  1  2  1  0
  2  3  2  0
  2  4  1  0
  4  5  2  0
  5  6  1  0
  5  7  1  0
  7  8  2  0
  8  9  1  0
  8 10  1  0
 10 11  1  0
 11 12  1  0
 12 13  2  0
 12 14  1  0
 14 15  1  0
 15 16  1  0
  7 17  1  0
 17 18  2  0
 18 19  1  0
 18 20  1  0
 17 21  1  0
 21 22  1  0
 22 23  1  0
 22 24  1  0
 22 25  1  0
 25 26  2  0
 26 27  1  0
 26 28  1  0
 28 29  1  0
 28 30  2  0
 30 31  1  0
 31 32  1  0
 32 33  1  0
 32 34  1  0
 32 35  1  0
 35 36  1  0
 35 37  1  0
 35 38  1  0
 38 39  1  0
 39 40  1  0
 39 41  1  0
 39 42  1  0
 42 43  1  0
 42 44  1  0
 30 45  1  0
 45 46  1  0
 45 47  2  0
 47 48  1  0
 21  4  1  0
 47 25  1  0
 15 10  2  0
 42 31  1  0
M  CHG  3  11  -1  14  -1  16  -1
M  END
>  <UniqueID>  (3) 
3

>  <SMILES>  (3) 
C=c1/c(=C\c2[n-]c(=O)[n-]c2[O-])cc(C=O)n1Cc1ccc(N2CCOCC2)cc1

>  <Energy>  (3) 
131.86254021600737

>  <Genealogy>  (3) 
C=c1c(=Cc2[n-]c(=O)[n-]c2[O-])cc(C=O)n1Cc1ccc(N2CCOCC2)cc1 (protonated)
C=c1/c(=C\c2[n-]c(=O)[n-]c2[O-])cc(C=O)n1Cc1ccc(N2CCOCC2)cc1 (cis-trans isomerization)
C=c1/c(=C\c2[n-]c(=O)[n-]c2[O-])cc(C=O)n1Cc1ccc(N2CCOCC2)cc1 (3D coordinates assigned)
C=c1/c(=C\c2[n-]c(=O)[n-]c2[O-])cc(C=O)n1Cc1ccc(N2CCOCC2)cc1 (nonaromatic ring conformer: 131.86254021600737 kcal/mol)

>  <smiles>  (3) 
C=c1c(=Cc2[nH]c(=O)[nH]c2O)cc(C=O)n1Cc1ccc(N2CCOCC2)cc1

>  <score_type>  (3) 
oracle

>  <origin>  (3) 
adg

>  <m_score__min__energy>  (3) 
-16.16

>  <m_primary>  (3) 
energy

$$$$
3:0
     RDKit          3D

 66 69  0  0  0  0  0  0  0  0999 V2000
   58.4328   34.1346   43.8612 H   0  0  0  0  0  0  0  0  0  0  0  0
   59.2850   34.4340   44.4890 C   0  0  0  0  0  0  0  0  0  0  0  0
   60.1462   34.9488   44.0381 H   0  0  0  0  0  0  0  0  0  0  0  0
   59.2740   34.1700   45.8110 C   0  0  0  0  0  0  0  0  0  0  0  0
   60.4000   34.5830   46.5510 C   0  0  0  0  0  0  0  0  0  0  0  0
   61.2212   35.1031   46.0362 H   0  0  0  0  0  0  0  0  0  0  0  0
   60.4950   34.3470   47.9180 C   0  0  0  0  0  0  0  0  0  0  0  0
   61.3891   34.6762   48.4677 H   0  0  0  0  0  0  0  0  0  0  0  0
   59.4670   33.6970   48.5970 C   0  0  0  0  0  0  0  0  0  0  0  0
   59.5730   33.4420   50.0520 C   0  0  0  0  0  0  0  0  0  0  0  0
   60.4240   34.0840   50.7260 O   0  0  0  0  0  0  0  0  0  0  0  0
   58.7350   32.4730   50.7100 N   0  0  0  0  0  0  0  0  0  0  0  0
   58.5350   31.1590   50.0800 C   0  0  0  0  0  0  0  0  0  0  0  0
   57.9221   31.2838   49.1752 H   0  0  0  0  0  0  0  0  0  0  0  0
   59.5196   30.7401   49.8249 H   0  0  0  0  0  0  0  0  0  0  0  0
   57.8290   30.1950   51.0320 C   0  0  0  0  0  0  0  0  0  0  0  0
   57.4877   29.3100   50.4751 H   0  0  0  0  0  0  0  0  0  0  0  0
   58.5241   29.8768   51.8229 H   0  0  0  0  0  0  0  0  0  0  0  0
   56.6700   30.8790   51.6320 N   0  0  0  0  0  0  0  0  0  0  0  0
   55.8060   29.9060   52.3360 C   0  0  0  0  0  0  0  0  0  0  0  0
   55.7437   28.9834   51.7402 H   0  0  0  0  0  0  0  0  0  0  0  0
   56.2444   29.6986   53.3233 H   0  0  0  0  0  0  0  0  0  0  0  0
   54.3890   30.4710   52.5380 C   0  0  0  0  0  0  0  0  0  0  0  0
   54.6240   31.0037   53.4713 H   0  0  0  0  0  0  0  0  0  0  0  0
   53.6390   30.8080   51.2580 C   0  0  0  0  0  0  0  0  0  0  0  0
   52.9714   31.6817   51.2253 H   0  0  0  0  0  0  0  0  0  0  0  0
   53.9273   30.9894   50.2121 H   0  0  0  0  0  0  0  0  0  0  0  0
   53.2480   29.5810   52.0700 C   0  0  0  0  0  0  0  0  0  0  0  0
   52.2978   29.5680   52.6240 H   0  0  0  0  0  0  0  0  0  0  0  0
   53.1366   28.5082   51.8538 H   0  0  0  0  0  0  0  0  0  0  0  0
   57.0890   31.9910   52.5250 C   0  0  0  0  0  0  0  0  0  0  0  0
   56.3094   32.7666   52.4991 H   0  0  0  0  0  0  0  0  0  0  0  0
   57.2259   31.5575   53.5267 H   0  0  0  0  0  0  0  0  0  0  0  0
   58.4340   32.6430   52.1360 C   0  0  0  0  0  0  0  0  0  0  0  0
   58.3863   33.7182   52.3632 H   0  0  0  0  0  0  0  0  0  0  0  0
   59.2302   32.1495   52.7126 H   0  0  0  0  0  0  0  0  0  0  0  0
   58.3460   33.2530   47.8830 C   0  0  0  0  0  0  0  0  0  0  0  0
   57.5548   32.7055   48.4162 H   0  0  0  0  0  0  0  0  0  0  0  0
   58.2030   33.4900   46.4910 C   0  0  0  0  0  0  0  0  0  0  0  0
   57.0710   33.0840   45.8520 C   0  0  0  0  0  0  0  0  0  0  0  0
   56.1037   33.3540   46.3009 H   0  0  0  0  0  0  0  0  0  0  0  0
   57.0540   32.2870   44.5670 C   0  0  0  0  0  0  0  0  0  0  0  0
   56.0176   32.2088   44.2068 H   0  0  0  0  0  0  0  0  0  0  0  0
   57.6831   32.8041   43.8276 H   0  0  0  0  0  0  0  0  0  0  0  0
   57.6070   30.9010   44.7790 C   0  0  0  0  0  0  0  0  0  0  0  0
   56.9890   29.7940   44.1750 C   0  0  0  0  0  0  0  0  0  0  0  0
   56.0927   29.9375   43.5536 H   0  0  0  0  0  0  0  0  0  0  0  0
   57.5090   28.5120   44.3610 C   0  0  0  0  0  0  0  0  0  0  0  0
   57.0120   27.6464   43.8987 H   0  0  0  0  0  0  0  0  0  0  0  0
   58.6580   28.3250   45.1320 C   0  0  0  0  0  0  0  0  0  0  0  0
   59.0546   27.3103   45.2842 H   0  0  0  0  0  0  0  0  0  0  0  0
   59.3080   29.4190   45.7120 C   0  0  0  0  0  0  0  0  0  0  0  0
   60.4610   29.1750   46.4730 O   0  0  0  0  0  0  0  0  0  0  0  0
   60.6280   29.4830   47.8330 C   0  0  0  0  0  0  0  0  0  0  0  0
   60.0010   28.8390   48.7180 O   0  0  0  0  0  0  0  0  0  0  0  0
   61.4830   30.5760   48.2140 N   0  0  0  0  0  0  0  0  0  0  0  0
   61.7140   30.8660   49.6320 C   0  0  0  0  0  0  0  0  0  0  0  0
   61.1466   30.1537   50.2491 H   0  0  0  0  0  0  0  0  0  0  0  0
   62.7869   30.7714   49.8556 H   0  0  0  0  0  0  0  0  0  0  0  0
   61.3818   31.8905   49.8556 H   0  0  0  0  0  0  0  0  0  0  0  0
   62.1340   31.3700   47.1690 C   0  0  0  0  0  0  0  0  0  0  0  0
   62.7660   32.1408   47.6343 H   0  0  0  0  0  0  0  0  0  0  0  0
   62.7570   30.7132   46.5440 H   0  0  0  0  0  0  0  0  0  0  0  0
   61.3679   31.8521   46.5440 H   0  0  0  0  0  0  0  0  0  0  0  0
   58.7690   30.7090   45.5460 C   0  0  0  0  0  0  0  0  0  0  0  0
   59.2603   31.5718   46.0195 H   0  0  0  0  0  0  0  0  0  0  0  0
  1  2  1  0
  2  3  1  0
  2  4  2  0
  4  5  1  0
  5  6  1  0
  5  7  2  0
  7  8  1  0
  7  9  1  0
  9 10  1  0
 10 11  2  0
 10 12  1  0
 12 13  1  0
 13 14  1  0
 13 15  1  0
 13 16  1  0
 16 17  1  0
 16 18  1  0
 16 19  1  0
 19 20  1  0
 20 21  1  0
 20 22  1  0
 20 23  1  0
 23 24  1  0
 23 25  1  0
 25 26  1  0
 25 27  1  0
 25 28  1  0
 28 29  1  0
 28 30  1  0
 19 31  1  0
 31 32  1  0
 31 33  1  0
 31 34  1  0
 34 35  1  0
 34 36  1  0
  9 37  2  0
 37 38  1  0
 37 39  1  0
 39 40  2  0
 40 41  1  0
 40 42  1  0
 42 43  1  0
 42 44  1  0
 42 45  1  0
 45 46  2  0
 46 47  1  0
 46 48  1  0
 48 49  1  0
 48 50  2  0
 50 51  1  0
 50 52  1  0
 52 53  1  0
 53 54  1  0
 54 55  2  0
 54 56  1  0
 56 57  1  0
 57 58  1  0
 57 59  1  0
 57 60  1  0
 56 61  1  0
 61 62  1  0
 61 63  1  0
 61 64  1  0
 52 65  2  0
 65 66  1  0
 39  4  1  0
 65 45  1  0
 34 12  1  0
 28 23  1  0
M  END
>  <UniqueID>  (4) 
4

>  <SMILES>  (4) 
C=c1ccc(C(=O)N2CCN(CC3CC3)CC2)c/c1=C\Cc1cccc(OC(=O)N(C)C)c1

>  <Energy>  (4) 
352.5847625150944

>  <Genealogy>  (4) 
C=c1ccc(C(=O)N2CCN(CC3CC3)CC2)c/c1=C\Cc1cccc(OC(=O)N(C)C)c1 (cis-trans isomerization)
C=c1ccc(C(=O)N2CCN(CC3CC3)CC2)c/c1=C\Cc1cccc(OC(=O)N(C)C)c1 (3D coordinates assigned)
C=c1ccc(C(=O)N2CCN(CC3CC3)CC2)c/c1=C\Cc1cccc(OC(=O)N(C)C)c1 (nonaromatic ring conformer: 352.5847625150944 kcal/mol)

>  <smiles>  (4) 
C=c1ccc(C(=O)N2CCN(CC3CC3)CC2)cc1=CCc1cccc(OC(=O)N(C)C)c1

>  <score_type>  (4) 
oracle

>  <origin>  (4) 
adg

>  <m_score__min__energy>  (4) 
-9.3599999999999994

>  <m_primary>  (4) 
energy

$$$$
4:0
     RDKit          3D

 54 57  0  0  0  0  0  0  0  0999 V2000
   53.9640   28.0910   53.3800 C   0  0  0  0  0  0  0  0  0  0  0  0
   54.5560   29.1670   52.8370 C   0  0  0  0  0  0  0  0  0  0  0  0
   53.9090   30.2850   52.2990 C   0  0  0  0  0  0  0  0  0  0  0  0
   52.5790   30.4880   52.1890 C   0  0  0  0  0  0  0  0  0  0  0  0
   51.9070   30.9230   50.9490 C   0  0  0  0  0  0  0  0  0  0  0  0
   51.7800   30.1340   49.8670 N   0  0  0  0  0  0  0  0  0  0  0  0
   51.0310   30.8770   49.0210 C   0  0  0  0  0  0  0  0  0  0  0  0
   50.6970   30.4740   47.8780 O   0  0  0  0  0  0  0  0  0  0  0  0
   50.6520   32.0790   49.5050 N   0  0  0  0  0  0  0  0  0  0  0  0
   51.2020   32.0890   50.7310 C   0  0  0  0  0  0  0  0  0  0  0  0
   51.0160   33.1170   51.6470 O   0  0  0  0  0  0  0  0  0  0  0  0
   54.9090   31.1180   51.8180 C   0  0  0  0  0  0  0  0  0  0  0  0
   56.1130   30.4980   52.0940 C   0  0  0  0  0  0  0  0  0  0  0  0
   57.4300   30.9930   51.6370 C   0  0  0  0  0  0  0  0  0  0  0  0
   57.4800   32.0080   50.8960 O   0  0  0  0  0  0  0  0  0  0  0  0
   58.6580   30.3580   52.0160 N   0  0  0  0  0  0  0  0  0  0  0  0
   59.9310   30.4950   51.3170 C   0  0  0  0  0  0  0  0  0  0  0  0
   59.8130   29.8750   49.9510 C   0  0  0  0  0  0  0  0  0  0  0  0
   60.2660   28.5590   49.7210 C   0  0  0  0  0  0  0  0  0  0  0  0
   60.0810   27.9590   48.4700 C   0  0  0  0  0  0  0  0  0  0  0  0
   59.4260   28.6530   47.4490 C   0  0  0  0  0  0  0  0  0  0  0  0
   58.9490   29.9580   47.6720 C   0  0  0  0  0  0  0  0  0  0  0  0
   58.2040   30.6730   46.6180 C   0  0  0  0  0  0  0  0  0  0  0  0
   57.3680   30.0220   45.9220 O   0  0  0  0  0  0  0  0  0  0  0  0
   58.4330   32.0800   46.3500 N   0  0  0  0  0  0  0  0  0  0  0  0
   59.7520   32.6690   46.6490 C   0  0  0  0  0  0  0  0  0  0  0  0
   59.6940   34.2040   46.6100 C   0  0  0  0  0  0  0  0  0  0  0  0
   59.0670   34.6560   45.4240 O   0  0  0  0  0  0  0  0  0  0  0  0
   57.7040   34.2810   45.4530 C   0  0  0  0  0  0  0  0  0  0  0  0
   57.5620   32.7550   45.3710 C   0  0  0  0  0  0  0  0  0  0  0  0
   59.1690   30.5760   48.9170 C   0  0  0  0  0  0  0  0  0  0  0  0
   55.9010   29.3140   52.7200 N   0  0  0  0  0  0  0  0  0  0  0  0
   56.9300   28.3600   53.1550 C   0  0  0  0  0  0  0  0  0  0  0  0
   54.5764   27.2665   53.7740 H   0  0  0  0  0  0  0  0  0  0  0  0
   52.8667   28.0340   53.4309 H   0  0  0  0  0  0  0  0  0  0  0  0
   51.9566   30.3185   53.0800 H   0  0  0  0  0  0  0  0  0  0  0  0
   54.7702   32.0858   51.3139 H   0  0  0  0  0  0  0  0  0  0  0  0
   60.1832   31.5610   51.2169 H   0  0  0  0  0  0  0  0  0  0  0  0
   60.7228   29.9869   51.8870 H   0  0  0  0  0  0  0  0  0  0  0  0
   60.7662   28.0026   50.5273 H   0  0  0  0  0  0  0  0  0  0  0  0
   60.4519   26.9392   48.2901 H   0  0  0  0  0  0  0  0  0  0  0  0
   59.2828   28.1774   46.4675 H   0  0  0  0  0  0  0  0  0  0  0  0
   60.0704   32.3469   47.6514 H   0  0  0  0  0  0  0  0  0  0  0  0
   60.4682   32.3269   45.8874 H   0  0  0  0  0  0  0  0  0  0  0  0
   59.1240   34.5650   47.4788 H   0  0  0  0  0  0  0  0  0  0  0  0
   60.7218   34.5952   46.6352 H   0  0  0  0  0  0  0  0  0  0  0  0
   57.2511   34.6364   46.3903 H   0  0  0  0  0  0  0  0  0  0  0  0
   57.1936   34.7317   44.5891 H   0  0  0  0  0  0  0  0  0  0  0  0
   56.5161   32.4815   45.5742 H   0  0  0  0  0  0  0  0  0  0  0  0
   57.8609   32.4334   44.3624 H   0  0  0  0  0  0  0  0  0  0  0  0
   58.8358   31.6113   49.0815 H   0  0  0  0  0  0  0  0  0  0  0  0
   56.9616   28.3307   54.2542 H   0  0  0  0  0  0  0  0  0  0  0  0
   56.6888   27.3589   52.7683 H   0  0  0  0  0  0  0  0  0  0  0  0
   57.9101   28.6761   52.7683 H   0  0  0  0  0  0  0  0  0  0  0  0
  1  2  2  0
  2  3  1  0
  3  4  2  3
  4  5  1  0
  5  6  1  0
  6  7  1  0
  7  8  2  0
  7  9  1  0
  9 10  1  0
 10 11  1  0
  3 12  1  0
 12 13  2  0
 13 14  1  0
 14 15  2  0
 14 16  1  0
 16 17  1  0
 17 18  1  0
 18 19  2  0
 19 20  1  0
 20 21  2  0
 21 22  1  0
 22 23  1  0
 23 24  2  0
 23 25  1  0
 25 26  1  0
 26 27  1  0
 27 28  1  0
 28 29  1  0
 29 30  1  0
 22 31  2  0
 13 32  1  0
 32 33  1  0
 32  2  1  0
 10  5  2  0
 31 18  1  0
 30 25  1  0
  1 34  1  0
  1 35  1  0
  4 36  1  0
 12 37  1  0
 17 38  1  0
 17 39  1  0
 19 40  1  0
 20 41  1  0
 21 42  1  0
 26 43  1  0
 26 44  1  0
 27 45  1  0
 27 46  1  0
 29 47  1  0
 29 48  1  0
 30 49  1  0
 30 50  1  0
 31 51  1  0
 33 52  1  0
 33 53  1  0
 33 54  1  0
M  CHG  4   6  -1   9  -1  11  -1  16  -1
M  END
>  <UniqueID>  (5) 
5

>  <SMILES>  (5) 
C=c1c(=Cc2[n-]c(=O)[n-]c2[O-])cc(C(=O)[N-]Cc2cccc(C(=O)N3CCOCC3)c2)n1C

>  <Energy>  (5) 
133.65405987556565

>  <Genealogy>  (5) 
C=c1c(=Cc2[n-]c(=O)[n-]c2[O-])cc(C(=O)[N-]Cc2cccc(C(=O)N3CCOCC3)c2)n1C (protonated)
C=c1c(=Cc2[n-]c(=O)[n-]c2[O-])cc(C(=O)[N-]Cc2cccc(C(=O)N3CCOCC3)c2)n1C (3D coordinates assigned)
C=c1c(=Cc2[n-]c(=O)[n-]c2[O-])cc(C(=O)[N-]Cc2cccc(C(=O)N3CCOCC3)c2)n1C (nonaromatic ring conformer: 133.65405987556565 kcal/mol)

>  <smiles>  (5) 
C=c1c(=Cc2[nH]c(=O)[nH]c2O)cc(C(=O)NCc2cccc(C(=O)N3CCOCC3)c2)n1C

>  <score_type>  (5) 
oracle

>  <origin>  (5) 
adg

>  <m_score__min__energy>  (5) 
-20.170000000000002

>  <m_primary>  (5) 
energy

$$$$
5:0
     RDKit          3D

 34 36  0  0  0  0  0  0  0  0999 V2000
   64.5980   31.7160   46.5020 H   0  0  0  0  0  0  0  0  0  0  0  0
   63.6390   31.9520   46.8390 N   0  0  0  0  0  0  0  0  0  0  0  0
   63.4230   32.9380   47.6540 C   0  0  0  0  0  0  0  0  0  0  0  0
   62.0580   33.5100   47.7670 C   0  0  0  0  0  0  0  0  0  0  0  0
   61.4640   33.6860   49.0320 C   0  0  0  0  0  0  0  0  0  0  0  0
   62.0172   33.3999   49.9387 H   0  0  0  0  0  0  0  0  0  0  0  0
   60.1780   34.2210   49.1450 C   0  0  0  0  0  0  0  0  0  0  0  0
   59.7264   34.3596   50.1384 H   0  0  0  0  0  0  0  0  0  0  0  0
   59.4650   34.5800   47.9990 C   0  0  0  0  0  0  0  0  0  0  0  0
   58.4546   35.0050   48.0904 H   0  0  0  0  0  0  0  0  0  0  0  0
   60.0360   34.3990   46.7350 C   0  0  0  0  0  0  0  0  0  0  0  0
   59.1100   34.8380   45.2650 S   0  0  0  0  0  0  0  0  0  0  0  0
   58.5210   33.1650   45.0430 C   0  0  0  0  0  0  0  0  0  0  0  0
   58.8560   32.1460   45.8770 N   0  0  0  0  0  0  0  0  0  0  0  0
   58.1850   31.1170   45.3340 C   0  0  0  0  0  0  0  0  0  0  0  0
   58.1520   29.7940   45.7690 C   0  0  0  0  0  0  0  0  0  0  0  0
   58.7210   29.4738   46.6543 H   0  0  0  0  0  0  0  0  0  0  0  0
   57.3630   28.8740   45.0360 C   0  0  0  0  0  0  0  0  0  0  0  0
   57.2920   27.4430   45.4040 C   0  0  0  0  0  0  0  0  0  0  0  0
   57.9728   26.7412   44.9001 H   0  0  0  0  0  0  0  0  0  0  0  0
   56.4680   26.9710   46.2910 N   0  0  0  0  0  0  0  0  0  0  0  0
   55.1500   26.6880   46.0130 O   0  0  0  0  0  0  0  0  0  0  0  0
   54.5350   26.3710   46.7510 H   0  0  0  0  0  0  0  0  0  0  0  0
   56.6730   29.3140   43.8750 C   0  0  0  0  0  0  0  0  0  0  0  0
   56.0856   28.5940   43.2863 H   0  0  0  0  0  0  0  0  0  0  0  0
   56.7320   30.6600   43.4690 C   0  0  0  0  0  0  0  0  0  0  0  0
   56.1882   31.0118   42.5799 H   0  0  0  0  0  0  0  0  0  0  0  0
   57.5030   31.5290   44.2330 C   0  0  0  0  0  0  0  0  0  0  0  0
   57.7160   32.8040   44.0580 O   0  0  0  0  0  0  0  0  0  0  0  0
   61.3260   33.8680   46.6190 C   0  0  0  0  0  0  0  0  0  0  0  0
   61.7713   33.7293   45.6228 H   0  0  0  0  0  0  0  0  0  0  0  0
   64.5040   33.4490   48.4420 N   0  0  0  0  0  0  0  0  0  0  0  0
   65.4750   33.0880   48.3110 H   0  0  0  0  0  0  0  0  0  0  0  0
   64.3400   34.1300   49.2160 H   0  0  0  0  0  0  0  0  0  0  0  0
  1  2  1  0
  2  3  2  0
  3  4  1  0
  4  5  2  0
  5  6  1  0
  5  7  1  0
  7  8  1  0
  7  9  2  0
  9 10  1  0
  9 11  1  0
 11 12  1  0
 12 13  1  0
 13 14  2  0
 14 15  1  0
 15 16  2  0
 16 17  1  0
 16 18  1  0
 18 19  1  0
 19 20  1  0
 19 21  2  0
 21 22  1  0
 22 23  1  0
 18 24  2  0
 24 25  1  0
 24 26  1  0
 26 27  1  0
 26 28  2  0
 28 29  1  0
 11 30  2  0
 30 31  1  0
  3 32  1  0
 32 33  1  0
 32 34  1  0
 30  4  1  0
 29 13  1  0
 28 15  1  0
M  END
>  <UniqueID>  (6) 
6

>  <SMILES>  (6) 
[H]/N=C(\N)c1cccc(Sc2nc3cc(/C=N\O)ccc3o2)c1

>  <Energy>  (6) 
74.89473112967981

>  <Genealogy>  (6) 
[H]/N=C(\N)c1cccc(Sc2nc3cc(/C=N\O)ccc3o2)c1 (cis-trans isomerization)
[H]/N=C(\N)c1cccc(Sc2nc3cc(/C=N\O)ccc3o2)c1 (3D coordinates assigned)
[H]/N=C(\N)c1cccc(Sc2nc3cc(/C=N\O)ccc3o2)c1 (optimized conformer: 74.89473112967981 kcal/mol)

>  <smiles>  (6) 
N=C(N)c1cccc(Sc2nc3cc(C=NO)ccc3o2)c1

>  <score_type>  (6) 
oracle

>  <origin>  (6) 
adg

>  <m_score__min__energy>  (6) 
-9.6099999999999994

>  <m_primary>  (6) 
energy

$$$$
6:0
     RDKit          3D

 46 48  0  0  0  0  0  0  0  0999 V2000
   59.5990   34.2570   48.9640 C   0  0  0  0  0  0  0  0  0  0  0  0
   60.9860   33.8050   48.5370 C   0  0  0  0  0  0  0  0  0  0  0  0
   61.3870   33.9840   47.1800 C   0  0  0  0  0  0  0  0  0  0  0  0
   60.4270   34.4360   46.0880 C   0  0  0  0  0  0  0  0  0  0  0  0
   59.4780   33.3230   45.7160 C   0  0  0  0  0  0  0  0  0  0  0  0
   59.7060   32.0130   46.1710 C   0  0  0  0  0  0  0  0  0  0  0  0
   58.8350   30.9800   45.8180 C   0  0  0  0  0  0  0  0  0  0  0  0
   57.7200   31.2420   45.0110 C   0  0  0  0  0  0  0  0  0  0  0  0
   56.6330   29.9370   44.5480 S   0  0  0  0  0  0  0  0  0  0  0  0
   57.0850   29.3370   42.9910 N   0  0  0  0  0  0  0  0  0  0  0  0
   56.7140   28.8250   45.5550 O   0  0  0  0  0  0  0  0  0  0  0  0
   55.2190   30.4460   44.5040 O   0  0  0  0  0  0  0  0  0  0  0  0
   57.4910   32.5440   44.5500 C   0  0  0  0  0  0  0  0  0  0  0  0
   58.3620   33.5790   44.9020 C   0  0  0  0  0  0  0  0  0  0  0  0
   62.7090   33.6650   46.8190 C   0  0  0  0  0  0  0  0  0  0  0  0
   63.1160   33.8390   45.6380 O   0  0  0  0  0  0  0  0  0  0  0  0
   63.5840   33.1450   47.7620 C   0  0  0  0  0  0  0  0  0  0  0  0
   63.1410   32.9120   49.0560 C   0  0  0  0  0  0  0  0  0  0  0  0
   61.8630   33.2200   49.4360 N   0  0  0  0  0  0  0  0  0  0  0  0
   61.4620   32.8560   50.8130 C   0  0  0  0  0  0  0  0  0  0  0  0
   60.3210   31.8660   50.8020 C   0  0  0  0  0  0  0  0  0  0  0  0
   59.3200   31.9240   51.7880 C   0  0  0  0  0  0  0  0  0  0  0  0
   58.2630   31.0090   51.7740 C   0  0  0  0  0  0  0  0  0  0  0  0
   58.1890   30.0390   50.7710 C   0  0  0  0  0  0  0  0  0  0  0  0
   59.1690   29.9860   49.7750 C   0  0  0  0  0  0  0  0  0  0  0  0
   59.0710   28.7720   48.5110 Cl  0  0  0  0  0  0  0  0  0  0  0  0
   60.2280   30.9000   49.7850 C   0  0  0  0  0  0  0  0  0  0  0  0
   59.5414   34.2758   50.0623 H   0  0  0  0  0  0  0  0  0  0  0  0
   59.4042   35.2651   48.5693 H   0  0  0  0  0  0  0  0  0  0  0  0
   58.8476   33.5572   48.5693 H   0  0  0  0  0  0  0  0  0  0  0  0
   59.8478   35.2979   46.4508 H   0  0  0  0  0  0  0  0  0  0  0  0
   61.0104   34.7148   45.1981 H   0  0  0  0  0  0  0  0  0  0  0  0
   60.5761   31.7999   46.8093 H   0  0  0  0  0  0  0  0  0  0  0  0
   59.0250   29.9570   46.1748 H   0  0  0  0  0  0  0  0  0  0  0  0
   56.7410   28.3530   42.9320 H   0  0  0  0  0  0  0  0  0  0  0  0
   58.1290   29.2940   42.9710 H   0  0  0  0  0  0  0  0  0  0  0  0
   56.6224   32.7532   43.9084 H   0  0  0  0  0  0  0  0  0  0  0  0
   58.1725   34.6001   44.5395 H   0  0  0  0  0  0  0  0  0  0  0  0
   64.6242   32.9185   47.4849 H   0  0  0  0  0  0  0  0  0  0  0  0
   63.8306   32.4710   49.7908 H   0  0  0  0  0  0  0  0  0  0  0  0
   62.3223   32.4073   51.3312 H   0  0  0  0  0  0  0  0  0  0  0  0
   61.1302   33.7667   51.3331 H   0  0  0  0  0  0  0  0  0  0  0  0
   59.3688   32.6925   52.5735 H   0  0  0  0  0  0  0  0  0  0  0  0
   57.4884   31.0528   52.5538 H   0  0  0  0  0  0  0  0  0  0  0  0
   57.3594   29.3167   50.7649 H   0  0  0  0  0  0  0  0  0  0  0  0
   60.9912   30.8626   48.9937 H   0  0  0  0  0  0  0  0  0  0  0  0
  1  2  1  0
  2  3  2  0
  3  4  1  0
  4  5  1  0
  5  6  2  0
  6  7  1  0
  7  8  2  0
  8  9  1  0
  9 10  1  0
  9 11  2  0
  9 12  2  0
  8 13  1  0
 13 14  2  0
  3 15  1  0
 15 16  2  0
 15 17  1  0
 17 18  2  0
 18 19  1  0
 19 20  1  0
 20 21  1  0
 21 22  2  0
 22 23  1  0
 23 24  2  0
 24 25  1  0
 25 26  1  0
 25 27  2  0
 19  2  1  0
 27 21  1  0
 14  5  1  0
  1 28  1  0
  1 29  1  0
  1 30  1  0
  4 31  1  0
  4 32  1  0
  6 33  1  0
  7 34  1  0
 10 35  1  0
 10 36  1  0
 13 37  1  0
 14 38  1  0
 17 39  1  0
 18 40  1  0
 20 41  1  0
 20 42  1  0
 22 43  1  0
 23 44  1  0
 24 45  1  0
 27 46  1  0
M  END
>  <UniqueID>  (7) 
7

>  <SMILES>  (7) 
Cc1c(Cc2ccc(S(N)(=O)=O)cc2)c(=O)ccn1Cc1cccc(Cl)c1

>  <Energy>  (7) 
55.200297451438516

>  <Genealogy>  (7) 
Cc1c(Cc2ccc(S(N)(=O)=O)cc2)c(=O)ccn1Cc1cccc(Cl)c1 (3D coordinates assigned)
Cc1c(Cc2ccc(S(N)(=O)=O)cc2)c(=O)ccn1Cc1cccc(Cl)c1 (optimized conformer: 55.200297451438516 kcal/mol)

>  <smiles>  (7) 
Cc1c(Cc2ccc(S(N)(=O)=O)cc2)c(=O)ccn1Cc1cccc(Cl)c1

>  <score_type>  (7) 
oracle

>  <origin>  (7) 
adg

>  <m_score__min__energy>  (7) 
-9.4700000000000006

>  <m_primary>  (7) 
energy

$$$$
7:0
     RDKit          3D

 48 51  0  0  0  0  0  0  0  0999 V2000
   57.0410   21.3150   45.6320 C   0  0  0  0  0  0  0  0  0  0  0  0
   56.4740   22.7050   45.4590 C   0  0  0  0  0  0  0  0  0  0  0  0
   55.0870   22.7860   45.2720 C   0  0  0  0  0  0  0  0  0  0  0  0
   54.4220   24.0000   45.3590 C   0  0  0  0  0  0  0  0  0  0  0  0
   55.1160   25.1600   45.6800 C   0  0  0  0  0  0  0  0  0  0  0  0
   54.3890   26.3370   45.8250 O   0  0  0  0  0  0  0  0  0  0  0  0
   56.5230   25.1300   45.8420 C   0  0  0  0  0  0  0  0  0  0  0  0
   57.2410   26.2840   46.2290 C   0  0  0  0  0  0  0  0  0  0  0  0
   56.6360   27.3550   46.5090 O   0  0  0  0  0  0  0  0  0  0  0  0
   58.6350   26.2360   46.3450 C   0  0  0  0  0  0  0  0  0  0  0  0
   59.4260   27.4180   46.7720 C   0  0  0  0  0  0  0  0  0  0  0  0
   59.7880   27.5920   48.1180 C   0  0  0  0  0  0  0  0  0  0  0  0
   60.5230   28.7110   48.5150 C   0  0  0  0  0  0  0  0  0  0  0  0
   60.9020   29.6880   47.5770 C   0  0  0  0  0  0  0  0  0  0  0  0
   61.6870   30.8660   48.0190 C   0  0  0  0  0  0  0  0  0  0  0  0
   62.0170   31.7340   47.1660 O   0  0  0  0  0  0  0  0  0  0  0  0
   62.0650   31.0350   49.3990 N   0  0  0  0  0  0  0  0  0  0  0  0
   62.8940   32.1120   49.8730 C   0  0  0  0  0  0  0  0  0  0  0  0
   64.2980   32.0270   49.8250 C   0  0  0  0  0  0  0  0  0  0  0  0
   65.0850   33.0730   50.3160 C   0  0  0  0  0  0  0  0  0  0  0  0
   64.4810   34.2050   50.8690 C   0  0  0  0  0  0  0  0  0  0  0  0
   63.0890   34.2890   50.9400 C   0  0  0  0  0  0  0  0  0  0  0  0
   62.2950   33.2440   50.4520 C   0  0  0  0  0  0  0  0  0  0  0  0
   60.9440   33.3430   50.5280 F   0  0  0  0  0  0  0  0  0  0  0  0
   60.5440   29.5090   46.2280 C   0  0  0  0  0  0  0  0  0  0  0  0
   59.8080   28.3880   45.8320 C   0  0  0  0  0  0  0  0  0  0  0  0
   59.2990   25.0560   46.0070 C   0  0  0  0  0  0  0  0  0  0  0  0
   58.6230   23.9490   45.5770 N   0  0  0  0  0  0  0  0  0  0  0  0
   59.4440   22.8980   44.9520 C   0  0  0  0  0  0  0  0  0  0  0  0
   57.2370   23.9110   45.6190 C   0  0  0  0  0  0  0  0  0  0  0  0
   57.1337   21.0877   46.7042 H   0  0  0  0  0  0  0  0  0  0  0  0
   56.3694   20.5835   45.1588 H   0  0  0  0  0  0  0  0  0  0  0  0
   58.0326   21.2620   45.1588 H   0  0  0  0  0  0  0  0  0  0  0  0
   54.5166   21.8714   45.0526 H   0  0  0  0  0  0  0  0  0  0  0  0
   53.3388   24.0447   45.1728 H   0  0  0  0  0  0  0  0  0  0  0  0
   59.4903   26.8413   48.8648 H   0  0  0  0  0  0  0  0  0  0  0  0
   60.8081   28.8294   49.5708 H   0  0  0  0  0  0  0  0  0  0  0  0
   61.6950   30.3730   50.1150 H   0  0  0  0  0  0  0  0  0  0  0  0
   64.7783   31.1336   49.3993 H   0  0  0  0  0  0  0  0  0  0  0  0
   66.1818   33.0046   50.2669 H   0  0  0  0  0  0  0  0  0  0  0  0
   65.1019   35.0299   51.2484 H   0  0  0  0  0  0  0  0  0  0  0  0
   62.6149   35.1785   51.3805 H   0  0  0  0  0  0  0  0  0  0  0  0
   60.8454   30.2565   45.4794 H   0  0  0  0  0  0  0  0  0  0  0  0
   59.5262   28.2653   44.7758 H   0  0  0  0  0  0  0  0  0  0  0  0
   60.3952   25.0160   46.0889 H   0  0  0  0  0  0  0  0  0  0  0  0
   59.9193   22.2895   45.7355 H   0  0  0  0  0  0  0  0  0  0  0  0
   58.8051   22.2569   44.3269 H   0  0  0  0  0  0  0  0  0  0  0  0
   60.2207   23.3627   44.3269 H   0  0  0  0  0  0  0  0  0  0  0  0
  1  2  1  0
  2  3  2  0
  3  4  1  0
  4  5  2  0
  5  6  1  0
  5  7  1  0
  7  8  1  0
  8  9  2  0
  8 10  1  0
 10 11  1  0
 11 12  2  0
 12 13  1  0
 13 14  2  0
 14 15  1  0
 15 16  2  0
 15 17  1  0
 17 18  1  0
 18 19  2  0
 19 20  1  0
 20 21  2  0
 21 22  1  0
 22 23  2  0
 23 24  1  0
 14 25  1  0
 25 26  2  0
 10 27  2  0
 27 28  1  0
 28 29  1  0
 28 30  1  0
 30  2  1  0
 30  7  2  0
 26 11  1  0
 23 18  1  0
  1 31  1  0
  1 32  1  0
  1 33  1  0
  3 34  1  0
  4 35  1  0
 12 36  1  0
 13 37  1  0
 17 38  1  0
 19 39  1  0
 20 40  1  0
 21 41  1  0
 22 42  1  0
 25 43  1  0
 26 44  1  0
 27 45  1  0
 29 46  1  0
 29 47  1  0
 29 48  1  0
M  CHG  1   6  -1
M  END
>  <UniqueID>  (8) 
8

>  <SMILES>  (8) 
Cc1ccc([O-])c2c(=O)c(-c3ccc(C(=O)Nc4ccccc4F)cc3)cn(C)c12

>  <Energy>  (8) 
90.45384018604813

>  <Genealogy>  (8) 
Cc1ccc([O-])c2c(=O)c(-c3ccc(C(=O)Nc4ccccc4F)cc3)cn(C)c12 (protonated)
Cc1ccc([O-])c2c(=O)c(-c3ccc(C(=O)Nc4ccccc4F)cc3)cn(C)c12 (3D coordinates assigned)
Cc1ccc([O-])c2c(=O)c(-c3ccc(C(=O)Nc4ccccc4F)cc3)cn(C)c12 (optimized conformer: 90.45384018604813 kcal/mol)

>  <smiles>  (8) 
Cc1ccc(O)c2c(=O)c(-c3ccc(C(=O)Nc4ccccc4F)cc3)cn(C)c12

>  <score_type>  (8) 
oracle

>  <origin>  (8) 
adg

>  <m_score__min__energy>  (8) 
-11.119999999999999

>  <m_primary>  (8) 
energy

$$$$
8:0
     RDKit          3D

 29 30  0  0  0  0  0  0  0  0999 V2000
   54.2400   23.2170   45.3610 O   0  0  0  0  0  0  0  0  0  0  0  0
   55.2980   23.8340   45.0610 C   0  0  0  0  0  0  0  0  0  0  0  0
   55.4950   25.1080   45.6410 C   0  0  0  0  0  0  0  0  0  0  0  0
   56.6020   25.9230   45.3870 C   0  0  0  0  0  0  0  0  0  0  0  0
   56.7270   27.2950   45.9860 C   0  0  0  0  0  0  0  0  0  0  0  0
   55.9440   28.2790   45.2320 N   0  0  0  0  0  0  0  0  0  0  0  0
   56.9170   29.0980   44.0410 S   0  0  0  0  0  0  0  0  0  0  0  0
   56.1110   29.3360   42.7940 O   0  0  0  0  0  0  0  0  0  0  0  0
   58.0960   28.2350   43.6930 O   0  0  0  0  0  0  0  0  0  0  0  0
   57.5100   30.6250   44.6910 C   0  0  0  0  0  0  0  0  0  0  0  0
   58.1230   30.6810   45.9510 C   0  0  0  0  0  0  0  0  0  0  0  0
   58.6550   31.8860   46.4210 C   0  0  0  0  0  0  0  0  0  0  0  0
   58.5690   33.0420   45.6380 C   0  0  0  0  0  0  0  0  0  0  0  0
   59.2620   34.5470   46.2160 Cl  0  0  0  0  0  0  0  0  0  0  0  0
   57.9400   32.9950   44.3900 C   0  0  0  0  0  0  0  0  0  0  0  0
   57.4090   31.7910   43.9200 C   0  0  0  0  0  0  0  0  0  0  0  0
   57.8010   25.3190   44.3630 S   0  0  0  0  0  0  0  0  0  0  0  0
   57.4090   23.7900   43.7690 C   0  0  0  0  0  0  0  0  0  0  0  0
   56.2010   23.2090   44.1660 C   0  0  0  0  0  0  0  0  0  0  0  0
   55.8660   21.9520   43.6590 O   0  0  0  0  0  0  0  0  0  0  0  0
   54.7288   25.4817   46.3362 H   0  0  0  0  0  0  0  0  0  0  0  0
   56.3637   27.2673   47.0239 H   0  0  0  0  0  0  0  0  0  0  0  0
   57.7851   27.5936   45.9519 H   0  0  0  0  0  0  0  0  0  0  0  0
   58.1856   29.7748   46.5713 H   0  0  0  0  0  0  0  0  0  0  0  0
   59.1413   31.9248   47.4069 H   0  0  0  0  0  0  0  0  0  0  0  0
   57.8632   33.9059   43.7782 H   0  0  0  0  0  0  0  0  0  0  0  0
   56.9095   31.7582   42.9405 H   0  0  0  0  0  0  0  0  0  0  0  0
   58.0888   23.2616   43.0844 H   0  0  0  0  0  0  0  0  0  0  0  0
   55.1470   21.3780   44.0850 H   0  0  0  0  0  0  0  0  0  0  0  0
  1  2  2  0
  2  3  1  0
  3  4  2  0
  4  5  1  0
  5  6  1  0
  6  7  1  0
  7  8  2  0
  7  9  2  0
  7 10  1  0
 10 11  2  0
 11 12  1  0
 12 13  2  0
 13 14  1  0
 13 15  1  0
 15 16  2  0
  4 17  1  0
 17 18  1  0
 18 19  2  0
 19 20  1  0
 19  2  1  0
 16 10  1  0
  3 21  1  0
  5 22  1  0
  5 23  1  0
 11 24  1  0
 12 25  1  0
 15 26  1  0
 16 27  1  0
 18 28  1  0
 20 29  1  0
M  CHG  1   6  -1
M  END
>  <UniqueID>  (9) 
9

>  <SMILES>  (9) 
O=c1cc(C[N-]S(=O)(=O)c2ccc(Cl)cc2)scc1O

>  <Energy>  (9) 
27.308211695244953

>  <Genealogy>  (9) 
O=c1cc(C[N-]S(=O)(=O)c2ccc(Cl)cc2)scc1O (protonated)
O=c1cc(C[N-]S(=O)(=O)c2ccc(Cl)cc2)scc1O (3D coordinates assigned)
O=c1cc(C[N-]S(=O)(=O)c2ccc(Cl)cc2)scc1O (optimized conformer: 27.308211695244953 kcal/mol)

>  <smiles>  (9) 
O=c1cc(CNS(=O)(=O)c2ccc(Cl)cc2)scc1O

>  <score_type>  (9) 
oracle

>  <origin>  (9) 
adg

>  <m_score__min__energy>  (9) 
-9.0800000000000001

>  <m_primary>  (9) 
energy

$$$$
9:0
     RDKit          3D

 56 59  0  0  0  0  0  0  0  0999 V2000
   55.6796   30.9631   43.5814 H   0  0  0  0  0  0  0  0  0  0  0  0
   56.6800   30.7300   43.9750 C   0  0  0  0  0  0  0  0  0  0  0  0
   57.1040   29.4600   43.8730 C   0  0  0  0  0  0  0  0  0  0  0  0
   56.8506   28.9099   42.9547 H   0  0  0  0  0  0  0  0  0  0  0  0
   57.8880   28.7460   44.9070 C   0  0  0  0  0  0  0  0  0  0  0  0
   59.2630   29.0110   45.0470 C   0  0  0  0  0  0  0  0  0  0  0  0
   59.7408   29.7661   44.4054 H   0  0  0  0  0  0  0  0  0  0  0  0
   60.0260   28.3240   45.9930 C   0  0  0  0  0  0  0  0  0  0  0  0
   61.0964   28.5511   46.1054 H   0  0  0  0  0  0  0  0  0  0  0  0
   59.4330   27.3510   46.7950 C   0  0  0  0  0  0  0  0  0  0  0  0
   60.0362   26.8112   47.5398 H   0  0  0  0  0  0  0  0  0  0  0  0
   58.0750   27.0600   46.6550 C   0  0  0  0  0  0  0  0  0  0  0  0
   57.6149   26.2865   47.2874 H   0  0  0  0  0  0  0  0  0  0  0  0
   57.2910   27.7470   45.7130 C   0  0  0  0  0  0  0  0  0  0  0  0
   55.8940   27.4410   45.6150 N   0  0  0  0  0  0  0  0  0  0  0  0
   55.1570   28.0860   45.9750 H   0  0  0  0  0  0  0  0  0  0  0  0
   55.5770   26.5310   45.2090 H   0  0  0  0  0  0  0  0  0  0  0  0
   57.4520   31.8410   44.5750 C   0  0  0  0  0  0  0  0  0  0  0  0
   58.1130   32.7920   43.7790 C   0  0  0  0  0  0  0  0  0  0  0  0
   58.0493   32.7271   42.6828 H   0  0  0  0  0  0  0  0  0  0  0  0
   58.8510   33.8200   44.3730 C   0  0  0  0  0  0  0  0  0  0  0  0
   59.3468   34.5717   43.7412 H   0  0  0  0  0  0  0  0  0  0  0  0
   58.9640   33.9000   45.7710 C   0  0  0  0  0  0  0  0  0  0  0  0
   59.7520   34.9930   46.3950 C   0  0  0  0  0  0  0  0  0  0  0  0
   59.7230   36.1460   45.8910 O   0  0  0  0  0  0  0  0  0  0  0  0
   60.4940   34.7930   47.6090 N   0  0  0  0  0  0  0  0  0  0  0  0
   61.4540   33.9350   47.8140 C   0  0  0  0  0  0  0  0  0  0  0  0
   62.5120   33.9340   46.9600 N   0  0  0  0  0  0  0  0  0  0  0  0
   63.5540   33.0740   47.1000 C   0  0  0  0  0  0  0  0  0  0  0  0
   64.3935   33.1113   46.3901 H   0  0  0  0  0  0  0  0  0  0  0  0
   63.5650   32.1440   48.1390 C   0  0  0  0  0  0  0  0  0  0  0  0
   64.4165   31.4579   48.2579 H   0  0  0  0  0  0  0  0  0  0  0  0
   62.4830   32.0880   49.0330 C   0  0  0  0  0  0  0  0  0  0  0  0
   62.4480   31.1130   50.1560 C   0  0  0  0  0  0  0  0  0  0  0  0
   63.4070   31.1040   50.9790 O   0  0  0  0  0  0  0  0  0  0  0  0
   61.3640   30.1620   50.3120 N   0  0  0  0  0  0  0  0  0  0  0  0
   61.7100   29.3400   50.8600 H   0  0  0  0  0  0  0  0  0  0  0  0
   60.2540   30.7870   51.0700 C   0  0  0  0  0  0  0  0  0  0  0  0
   60.4570   30.6948   52.1472 H   0  0  0  0  0  0  0  0  0  0  0  0
   60.1843   31.8460   50.7807 H   0  0  0  0  0  0  0  0  0  0  0  0
   58.9150   30.1020   50.7500 C   0  0  0  0  0  0  0  0  0  0  0  0
   58.9944   29.0400   51.0254 H   0  0  0  0  0  0  0  0  0  0  0  0
   58.1400   30.6298   51.3252 H   0  0  0  0  0  0  0  0  0  0  0  0
   58.5410   30.1830   49.3810 O   0  0  0  0  0  0  0  0  0  0  0  0
   59.6440   30.3190   48.4930 C   0  0  0  0  0  0  0  0  0  0  0  0
   59.3673   29.8789   47.5236 H   0  0  0  0  0  0  0  0  0  0  0  0
   59.8664   31.3934   48.4140 H   0  0  0  0  0  0  0  0  0  0  0  0
   60.9240   29.6260   48.9960 C   0  0  0  0  0  0  0  0  0  0  0  0
   60.7283   28.5484   49.0983 H   0  0  0  0  0  0  0  0  0  0  0  0
   61.7242   29.8160   48.2656 H   0  0  0  0  0  0  0  0  0  0  0  0
   61.4210   32.9930   48.8640 C   0  0  0  0  0  0  0  0  0  0  0  0
   60.5627   32.9669   49.5514 H   0  0  0  0  0  0  0  0  0  0  0  0
   58.3180   32.9350   46.5630 C   0  0  0  0  0  0  0  0  0  0  0  0
   58.3939   32.9885   47.6591 H   0  0  0  0  0  0  0  0  0  0  0  0
   57.5800   31.9080   45.9680 C   0  0  0  0  0  0  0  0  0  0  0  0
   57.0964   31.1471   46.5982 H   0  0  0  0  0  0  0  0  0  0  0  0
  1  2  1  0
  2  3  2  3
  3  4  1  0
  3  5  1  0
  5  6  2  0
  6  7  1  0
  6  8  1  0
  8  9  1  0
  8 10  2  0
 10 11  1  0
 10 12  1  0
 12 13  1  0
 12 14  2  0
 14 15  1  0
 15 16  1  0
 15 17  1  0
  2 18  1  0
 18 19  2  0
 19 20  1  0
 19 21  1  0
 21 22  1  0
 21 23  2  0
 23 24  1  0
 24 25  2  0
 24 26  1  0
 26 27  2  0
 27 28  1  0
 28 29  1  0
 29 30  1  0
 29 31  2  0
 31 32  1  0
 31 33  1  0
 33 34  1  0
 34 35  2  0
 34 36  1  0
 36 37  1  0
 36 38  1  0
 38 39  1  0
 38 40  1  0
 38 41  1  0
 41 42  1  0
 41 43  1  0
 41 44  1  0
 44 45  1  0
 45 46  1  0
 45 47  1  0
 45 48  1  0
 48 49  1  0
 48 50  1  0
 33 51  2  0
 51 52  1  0
 23 53  1  0
 53 54  1  0
 53 55  2  0
 55 56  1  0
 14  5  1  0
 55 18  1  0
 51 27  1  0
 48 36  1  0
M  CHG  2  28  -1  36   1
M  END
>  <UniqueID>  (10) 
10

>  <SMILES>  (10) 
Nc1ccccc1C=Cc1ccc(C(=O)/N=c2\cc(C(=O)[NH+]3CCOCC3)cc[n-]2)cc1

>  <Energy>  (10) 
99.75859094474691

>  <Genealogy>  (10) 
Nc1ccccc1C=Cc1ccc(C(=O)N=c2cc(C(=O)[NH+]3CCOCC3)cc[n-]2)cc1 (protonated)
Nc1ccccc1C=Cc1ccc(C(=O)/N=c2\cc(C(=O)[NH+]3CCOCC3)cc[n-]2)cc1 (cis-trans isomerization)
Nc1ccccc1C=Cc1ccc(C(=O)/N=c2\cc(C(=O)[NH+]3CCOCC3)cc[n-]2)cc1 (3D coordinates assigned)
Nc1ccccc1C=Cc1ccc(C(=O)/N=c2\cc(C(=O)[NH+]3CCOCC3)cc[n-]2)cc1 (nonaromatic ring conformer: 99.75859094474691 kcal/mol)

>  <smiles>  (10) 
Nc1ccccc1C=Cc1ccc(C(=O)N=c2cc(C(=O)N3CCOCC3)cc[nH]2)cc1

>  <score_type>  (10) 
oracle

>  <origin>  (10) 
adg

>  <m_score__min__energy>  (10) 
-10.06

>  <m_primary>  (10) 
energy

$$$$
10:0
     RDKit          3D

 51 53  0  0  0  0  0  0  0  0999 V2000
   56.8420   33.8180   45.2810 C   0  0  0  0  0  0  0  0  0  0  0  0
   57.6140   32.7480   45.4940 C   0  0  0  0  0  0  0  0  0  0  0  0
   57.4890   31.6040   44.7950 N   0  0  0  0  0  0  0  0  0  0  0  0
   58.3740   30.7180   45.2970 C   0  0  0  0  0  0  0  0  0  0  0  0
   58.4540   29.4650   44.8060 C   0  0  0  0  0  0  0  0  0  0  0  0
   57.6690   28.3050   45.2680 C   0  0  0  0  0  0  0  0  0  0  0  0
   56.2650   28.3410   45.2650 C   0  0  0  0  0  0  0  0  0  0  0  0
   55.5910   29.5040   44.8960 O   0  0  0  0  0  0  0  0  0  0  0  0
   55.5580   27.2380   45.6280 N   0  0  0  0  0  0  0  0  0  0  0  0
   56.1870   26.0850   45.9700 C   0  0  0  0  0  0  0  0  0  0  0  0
   55.5120   25.0780   46.3100 O   0  0  0  0  0  0  0  0  0  0  0  0
   57.5430   26.0130   45.9400 N   0  0  0  0  0  0  0  0  0  0  0  0
   58.2940   27.0880   45.5830 C   0  0  0  0  0  0  0  0  0  0  0  0
   59.5490   26.9800   45.5440 O   0  0  0  0  0  0  0  0  0  0  0  0
   59.1110   31.3220   46.3310 C   0  0  0  0  0  0  0  0  0  0  0  0
   60.3240   30.7900   47.0640 C   0  0  0  0  0  0  0  0  0  0  0  0
   60.0440   30.5510   48.5560 C   0  0  0  0  0  0  0  0  0  0  0  0
   61.2980   30.6260   49.3840 C   0  0  0  0  0  0  0  0  0  0  0  0
   61.6770   29.6050   50.0200 O   0  0  0  0  0  0  0  0  0  0  0  0
   62.1050   31.8150   49.4140 N   0  0  0  0  0  0  0  0  0  0  0  0
   63.5630   31.6980   49.3340 C   0  0  0  0  0  0  0  0  0  0  0  0
   64.2040   33.0700   49.0630 C   0  0  0  0  0  0  0  0  0  0  0  0
   63.3880   33.8840   48.1350 N   0  0  0  0  0  0  0  0  0  0  0  0
   63.3650   33.3100   46.7790 C   0  0  0  0  0  0  0  0  0  0  0  0
   62.0180   34.1580   48.6430 C   0  0  0  0  0  0  0  0  0  0  0  0
   61.5200   33.1320   49.6810 C   0  0  0  0  0  0  0  0  0  0  0  0
   58.6230   32.6260   46.4390 C   0  0  0  0  0  0  0  0  0  0  0  0
   59.0550   33.6690   47.4340 C   0  0  0  0  0  0  0  0  0  0  0  0
   56.9863   34.7286   45.8811 H   0  0  0  0  0  0  0  0  0  0  0  0
   56.0623   33.7881   44.5056 H   0  0  0  0  0  0  0  0  0  0  0  0
   56.8030   31.4260   44.0240 H   0  0  0  0  0  0  0  0  0  0  0  0
   59.1686   29.2924   43.9877 H   0  0  0  0  0  0  0  0  0  0  0  0
   55.1480   30.0920   45.5940 H   0  0  0  0  0  0  0  0  0  0  0  0
   60.6263   29.8378   46.6036 H   0  0  0  0  0  0  0  0  0  0  0  0
   61.1215   31.5437   46.9873 H   0  0  0  0  0  0  0  0  0  0  0  0
   59.3374   31.3154   48.9116 H   0  0  0  0  0  0  0  0  0  0  0  0
   59.6247   29.5399   48.6653 H   0  0  0  0  0  0  0  0  0  0  0  0
   63.9463   31.3019   50.2859 H   0  0  0  0  0  0  0  0  0  0  0  0
   63.8187   31.0185   48.5076 H   0  0  0  0  0  0  0  0  0  0  0  0
   64.3050   33.6103   50.0158 H   0  0  0  0  0  0  0  0  0  0  0  0
   65.1864   32.9025   48.5974 H   0  0  0  0  0  0  0  0  0  0  0  0
   63.3210   32.2129   46.8459 H   0  0  0  0  0  0  0  0  0  0  0  0
   62.4810   33.6801   46.2391 H   0  0  0  0  0  0  0  0  0  0  0  0
   64.2758   33.6082   46.2391 H   0  0  0  0  0  0  0  0  0  0  0  0
   62.0147   35.1536   49.1108 H   0  0  0  0  0  0  0  0  0  0  0  0
   61.3388   34.0948   47.7801 H   0  0  0  0  0  0  0  0  0  0  0  0
   61.8140   33.4625   50.6881 H   0  0  0  0  0  0  0  0  0  0  0  0
   60.4245   33.0577   49.6142 H   0  0  0  0  0  0  0  0  0  0  0  0
   58.8979   33.2896   48.4545 H   0  0  0  0  0  0  0  0  0  0  0  0
   60.1212   33.8962   47.2874 H   0  0  0  0  0  0  0  0  0  0  0  0
   58.4617   34.5836   47.2874 H   0  0  0  0  0  0  0  0  0  0  0  0
  1  2  2  0
  2  3  1  0
  3  4  1  0
  4  5  2  3
  5  6  1  0
  6  7  2  0
  7  8  1  0
  7  9  1  0
  9 10  1  0
 10 11  2  0
 10 12  1  0
 12 13  1  0
 13 14  2  0
  4 15  1  0
 15 16  1  0
 16 17  1  0
 17 18  1  0
 18 19  2  0
 18 20  1  0
 20 21  1  0
 21 22  1  0
 22 23  1  0
 23 24  1  0
 23 25  1  0
 25 26  1  0
 15 27  2  0
 27 28  1  0
 27  2  1  0
 13  6  1  0
 26 20  1  0
  1 29  1  0
  1 30  1  0
  3 31  1  0
  5 32  1  0
  8 33  1  0
 16 34  1  0
 16 35  1  0
 17 36  1  0
 17 37  1  0
 21 38  1  0
 21 39  1  0
 22 40  1  0
 22 41  1  0
 24 42  1  0
 24 43  1  0
 24 44  1  0
 25 45  1  0
 25 46  1  0
 26 47  1  0
 26 48  1  0
 28 49  1  0
 28 50  1  0
 28 51  1  0
M  CHG  2   9  -1  12  -1
M  END
>  <UniqueID>  (11) 
11

>  <SMILES>  (11) 
C=c1[nH]c(=Cc2c(O)[n-]c(=O)[n-]c2=O)c(CCC(=O)N2CCN(C)CC2)c1C

>  <Energy>  (11) 
98.64772836532568

>  <Genealogy>  (11) 
C=c1[nH]c(=Cc2c(O)[n-]c(=O)[n-]c2=O)c(CCC(=O)N2CCN(C)CC2)c1C (protonated)
C=c1[nH]c(=Cc2c(O)[n-]c(=O)[n-]c2=O)c(CCC(=O)N2CCN(C)CC2)c1C (3D coordinates assigned)
C=c1[nH]c(=Cc2c(O)[n-]c(=O)[n-]c2=O)c(CCC(=O)N2CCN(C)CC2)c1C (nonaromatic ring conformer: 98.64772836532568 kcal/mol)

>  <smiles>  (11) 
C=c1[nH]c(=Cc2c(O)[nH]c(=O)[nH]c2=O)c(CCC(=O)N2CCN(C)CC2)c1C

>  <score_type>  (11) 
oracle

>  <origin>  (11) 
adg

>  <m_score__min__energy>  (11) 
-13.970000000000001

>  <m_primary>  (11) 
energy

$$$$
11:0
     RDKit          3D

 42 44  0  0  0  0  0  0  0  0999 V2000
   54.7510   27.4830   46.3740 H   0  0  0  0  0  0  0  0  0  0  0  0
   55.0860   26.6790   45.8600 O   0  0  0  0  0  0  0  0  0  0  0  0
   56.0200   25.8030   46.4080 C   0  0  0  0  0  0  0  0  0  0  0  0
   55.6920   24.6230   46.9570 N   0  0  0  0  0  0  0  0  0  0  0  0
   56.8920   24.1080   47.3000 C   0  0  0  0  0  0  0  0  0  0  0  0
   57.0160   22.9830   47.8510 O   0  0  0  0  0  0  0  0  0  0  0  0
   57.9510   24.8890   46.9960 N   0  0  0  0  0  0  0  0  0  0  0  0
   57.3870   25.9810   46.4530 C   0  0  0  0  0  0  0  0  0  0  0  0
   60.3580   31.3290   47.1500 C   0  0  0  0  0  0  0  0  0  0  0  0
   61.4162   31.3607   46.8512 H   0  0  0  0  0  0  0  0  0  0  0  0
   58.6320   28.1590   46.5190 C   0  0  0  0  0  0  0  0  0  0  0  0
   58.4860   28.3160   47.8890 C   0  0  0  0  0  0  0  0  0  0  0  0
   57.9460   27.6440   48.5723 H   0  0  0  0  0  0  0  0  0  0  0  0
   59.1460   29.4730   48.2290 C   0  0  0  0  0  0  0  0  0  0  0  0
   59.2380   29.9950   49.5690 C   0  0  0  0  0  0  0  0  0  0  0  0
   59.3120   30.4130   50.6450 N   0  0  0  0  0  0  0  0  0  0  0  0
   59.6590   30.0710   47.1340 N   0  0  0  0  0  0  0  0  0  0  0  0
   59.7490   32.4590   47.5200 C   0  0  0  0  0  0  0  0  0  0  0  0
   60.2332   33.1109   48.2620 H   0  0  0  0  0  0  0  0  0  0  0  0
   58.1580   27.0820   45.8620 C   0  0  0  0  0  0  0  0  0  0  0  0
   58.3680   27.0223   44.7839 H   0  0  0  0  0  0  0  0  0  0  0  0
   58.4190   32.8620   46.9480 C   0  0  0  0  0  0  0  0  0  0  0  0
   57.7630   31.9794   46.9222 H   0  0  0  0  0  0  0  0  0  0  0  0
   58.0031   33.6533   47.5890 H   0  0  0  0  0  0  0  0  0  0  0  0
   58.5430   33.4270   45.5250 C   0  0  0  0  0  0  0  0  0  0  0  0
   58.0539   34.4116   45.4885 H   0  0  0  0  0  0  0  0  0  0  0  0
   59.6124   33.5086   45.2806 H   0  0  0  0  0  0  0  0  0  0  0  0
   57.8960   32.5220   44.5070 C   0  0  0  0  0  0  0  0  0  0  0  0
   58.1340   32.7130   43.1360 C   0  0  0  0  0  0  0  0  0  0  0  0
   58.7736   33.5430   42.8013 H   0  0  0  0  0  0  0  0  0  0  0  0
   57.5610   31.8520   42.1950 C   0  0  0  0  0  0  0  0  0  0  0  0
   57.7446   32.0104   41.1221 H   0  0  0  0  0  0  0  0  0  0  0  0
   56.7550   30.7900   42.6160 C   0  0  0  0  0  0  0  0  0  0  0  0
   56.3042   30.1141   41.8744 H   0  0  0  0  0  0  0  0  0  0  0  0
   56.5220   30.5870   43.9790 C   0  0  0  0  0  0  0  0  0  0  0  0
   55.8895   29.7498   44.3093 H   0  0  0  0  0  0  0  0  0  0  0  0
   57.0920   31.4470   44.9240 C   0  0  0  0  0  0  0  0  0  0  0  0
   56.9105   31.2815   45.9962 H   0  0  0  0  0  0  0  0  0  0  0  0
   59.3520   29.2830   46.0690 C   0  0  0  0  0  0  0  0  0  0  0  0
   59.6700   29.5900   44.8020 C   0  0  0  0  0  0  0  0  0  0  0  0
   60.2404   30.5050   44.5844 H   0  0  0  0  0  0  0  0  0  0  0  0
   59.3603   28.9266   43.9810 H   0  0  0  0  0  0  0  0  0  0  0  0
  1  2  1  0
  2  3  1  0
  3  4  1  0
  4  5  1  0
  5  6  2  0
  5  7  1  0
  7  8  1  0
  8  9  1  0
  9 10  1  0
  9 11  2  0
 11 12  1  0
 12 13  1  0
 12 14  2  0
 14 15  1  0
 15 16  3  0
 14 17  1  0
 17 18  1  0
 18 19  1  0
 18 20  2  0
 20 21  1  0
 20 22  1  0
 22 23  1  0
 22 24  1  0
 22 25  1  0
 25 26  1  0
 25 27  1  0
 25 28  1  0
 28 29  2  0
 29 30  1  0
 29 31  1  0
 31 32  1  0
 31 33  2  0
 33 34  1  0
 33 35  1  0
 35 36  1  0
 35 37  2  0
 37 38  1  0
 17 39  1  0
 39 40  2  0
 40 41  1  0
 40 42  1  0
  8  3  2  0
 39 11  1  0
 37 28  1  0
M  CHG  2   4  -1   7  -1
M  END
>  <UniqueID>  (12) 
12

>  <SMILES>  (12) 
C=c1/c(=C\c2[n-]c(=O)[n-]c2O)cc(C#N)n1/C=C/CCc1ccccc1

>  <Energy>  (12) 
113.92995639507159

>  <Genealogy>  (12) 
C=c1c(=Cc2[n-]c(=O)[n-]c2O)cc(C#N)n1C=CCCc1ccccc1 (protonated)
C=c1/c(=C\c2[n-]c(=O)[n-]c2O)cc(C#N)n1/C=C/CCc1ccccc1 (cis-trans isomerization)
C=c1/c(=C\c2[n-]c(=O)[n-]c2O)cc(C#N)n1/C=C/CCc1ccccc1 (3D coordinates assigned)
C=c1/c(=C\c2[n-]c(=O)[n-]c2O)cc(C#N)n1/C=C/CCc1ccccc1 (optimized conformer: 113.92995639507159 kcal/mol)

>  <smiles>  (12) 
C=c1c(=Cc2[nH]c(=O)[nH]c2O)cc(C#N)n1C=CCCc1ccccc1

>  <score_type>  (12) 
oracle

>  <origin>  (12) 
adg

>  <m_score__min__energy>  (12) 
-13.09

>  <m_primary>  (12) 
energy

$$$$
12:0
     RDKit          3D

 63 66  0  0  0  0  0  0  0  0999 V2000
   60.1900   29.4300   49.2880 N   0  0  0  0  0  0  0  0  0  0  0  0
   60.0740   28.1870   48.5920 C   0  0  0  0  0  0  0  0  0  0  0  0
   60.3580   27.1200   49.2030 O   0  0  0  0  0  0  0  0  0  0  0  0
   59.6110   28.1240   47.1830 C   0  0  0  0  0  0  0  0  0  0  0  0
   60.5240   27.9930   46.1210 C   0  0  0  0  0  0  0  0  0  0  0  0
   60.0700   27.9510   44.7990 C   0  0  0  0  0  0  0  0  0  0  0  0
   58.7060   28.0380   44.5200 C   0  0  0  0  0  0  0  0  0  0  0  0
   57.7720   28.1490   45.5630 C   0  0  0  0  0  0  0  0  0  0  0  0
   56.3220   28.2020   45.2720 C   0  0  0  0  0  0  0  0  0  0  0  0
   55.5750   27.2450   45.6140 O   0  0  0  0  0  0  0  0  0  0  0  0
   55.7550   29.3540   44.6310 N   0  0  0  0  0  0  0  0  0  0  0  0
   56.4990   30.4460   44.0770 C   0  0  0  0  0  0  0  0  0  0  0  0
   56.6390   30.5320   42.6880 C   0  0  0  0  0  0  0  0  0  0  0  0
   57.3680   31.5760   42.1170 C   0  0  0  0  0  0  0  0  0  0  0  0
   57.9340   32.5630   42.9280 C   0  0  0  0  0  0  0  0  0  0  0  0
   57.7500   32.5300   44.3210 C   0  0  0  0  0  0  0  0  0  0  0  0
   58.3180   33.5930   45.1870 C   0  0  0  0  0  0  0  0  0  0  0  0
   58.1390   34.8030   44.8730 O   0  0  0  0  0  0  0  0  0  0  0  0
   59.0650   33.2800   46.3790 N   0  0  0  0  0  0  0  0  0  0  0  0
   58.8270   34.0370   47.6170 C   0  0  0  0  0  0  0  0  0  0  0  0
   60.1600   34.4580   48.2390 C   0  0  0  0  0  0  0  0  0  0  0  0
   61.0410   33.2850   48.3280 N   0  0  0  0  0  0  0  0  0  0  0  0
   61.3330   32.6440   49.5880 C   0  0  0  0  0  0  0  0  0  0  0  0
   61.5590   31.4030   49.6220 O   0  0  0  0  0  0  0  0  0  0  0  0
   61.3350   33.4220   50.8800 C   0  0  0  0  0  0  0  0  0  0  0  0
   60.7680   32.6230   51.9910 N   0  0  0  0  0  0  0  0  0  0  0  0
   60.4700   33.4480   53.1890 C   0  0  0  0  0  0  0  0  0  0  0  0
   59.0000   33.9060   53.2450 C   0  0  0  0  0  0  0  0  0  0  0  0
   58.4780   34.0490   51.9420 O   0  0  0  0  0  0  0  0  0  0  0  0
   58.3580   32.7790   51.3210 C   0  0  0  0  0  0  0  0  0  0  0  0
   59.5800   31.8580   51.5630 C   0  0  0  0  0  0  0  0  0  0  0  0
   61.3350   32.6110   47.0580 C   0  0  0  0  0  0  0  0  0  0  0  0
   60.0220   32.1620   46.4090 C   0  0  0  0  0  0  0  0  0  0  0  0
   57.0440   31.4550   44.8920 C   0  0  0  0  0  0  0  0  0  0  0  0
   58.2350   28.1900   46.8920 C   0  0  0  0  0  0  0  0  0  0  0  0
   60.5450   29.4460   50.2710 H   0  0  0  0  0  0  0  0  0  0  0  0
   59.8240   30.3220   48.8880 H   0  0  0  0  0  0  0  0  0  0  0  0
   61.6014   27.9232   46.3316 H   0  0  0  0  0  0  0  0  0  0  0  0
   60.7918   27.8489   43.9753 H   0  0  0  0  0  0  0  0  0  0  0  0
   58.3596   28.0195   43.4761 H   0  0  0  0  0  0  0  0  0  0  0  0
   56.1723   29.7732   42.0427 H   0  0  0  0  0  0  0  0  0  0  0  0
   57.4974   31.6220   41.0256 H   0  0  0  0  0  0  0  0  0  0  0  0
   58.5270   33.3705   42.4737 H   0  0  0  0  0  0  0  0  0  0  0  0
   58.2333   34.9339   47.3868 H   0  0  0  0  0  0  0  0  0  0  0  0
   58.2817   33.4006   48.3295 H   0  0  0  0  0  0  0  0  0  0  0  0
   60.6330   35.2271   47.6107 H   0  0  0  0  0  0  0  0  0  0  0  0
   59.9865   34.8683   49.2448 H   0  0  0  0  0  0  0  0  0  0  0  0
   62.3698   33.6990   51.1297 H   0  0  0  0  0  0  0  0  0  0  0  0
   60.7132   34.3194   50.7455 H   0  0  0  0  0  0  0  0  0  0  0  0
   60.6879   32.8537   54.0886 H   0  0  0  0  0  0  0  0  0  0  0  0
   61.0972   34.3501   53.1355 H   0  0  0  0  0  0  0  0  0  0  0  0
   58.4081   33.1575   53.7922 H   0  0  0  0  0  0  0  0  0  0  0  0
   58.9490   34.8778   53.7578 H   0  0  0  0  0  0  0  0  0  0  0  0
   57.4614   32.2802   51.7177 H   0  0  0  0  0  0  0  0  0  0  0  0
   58.2918   32.9526   50.2368 H   0  0  0  0  0  0  0  0  0  0  0  0
   59.3259   31.1279   52.3455 H   0  0  0  0  0  0  0  0  0  0  0  0
   59.8212   31.3545   50.6152 H   0  0  0  0  0  0  0  0  0  0  0  0
   61.8587   33.3062   46.3854 H   0  0  0  0  0  0  0  0  0  0  0  0
   61.9732   31.7347   47.2443 H   0  0  0  0  0  0  0  0  0  0  0  0
   60.2207   31.8254   45.3808 H   0  0  0  0  0  0  0  0  0  0  0  0
   59.5935   31.3366   46.9965 H   0  0  0  0  0  0  0  0  0  0  0  0
   56.9173   31.4032   45.9834 H   0  0  0  0  0  0  0  0  0  0  0  0
   57.5107   28.2749   47.7155 H   0  0  0  0  0  0  0  0  0  0  0  0
  1  2  1  0
  2  3  2  0
  2  4  1  0
  4  5  2  0
  5  6  1  0
  6  7  2  0
  7  8  1  0
  8  9  1  0
  9 10  2  0
  9 11  1  0
 11 12  1  0
 12 13  2  0
 13 14  1  0
 14 15  2  0
 15 16  1  0
 16 17  1  0
 17 18  2  0
 17 19  1  0
 19 20  1  0
 20 21  1  0
 21 22  1  0
 22 23  1  0
 23 24  2  0
 23 25  1  0
 25 26  1  0
 26 27  1  0
 27 28  1  0
 28 29  1  0
 29 30  1  0
 30 31  1  0
 22 32  1  0
 32 33  1  0
 16 34  2  0
  8 35  2  0
 35  4  1  0
 34 12  1  0
 33 19  1  0
 31 26  1  0
  1 36  1  0
  1 37  1  0
  5 38  1  0
  6 39  1  0
  7 40  1  0
 13 41  1  0
 14 42  1  0
 15 43  1  0
 20 44  1  0
 20 45  1  0
 21 46  1  0
 21 47  1  0
 25 48  1  0
 25 49  1  0
 27 50  1  0
 27 51  1  0
 28 52  1  0
 28 53  1  0
 30 54  1  0
 30 55  1  0
 31 56  1  0
 31 57  1  0
 32 58  1  0
 32 59  1  0
 33 60  1  0
 33 61  1  0
 34 62  1  0
 35 63  1  0
M  CHG  1  11  -1
M  END
>  <UniqueID>  (13) 
13

>  <SMILES>  (13) 
NC(=O)c1cccc(C(=O)[N-]c2cccc(C(=O)N3CCN(C(=O)CN4CCOCC4)CC3)c2)c1

>  <Energy>  (13) 
90.35868733613803

>  <Genealogy>  (13) 
NC(=O)c1cccc(C(=O)[N-]c2cccc(C(=O)N3CCN(C(=O)CN4CCOCC4)CC3)c2)c1 (protonated)
NC(=O)c1cccc(C(=O)[N-]c2cccc(C(=O)N3CCN(C(=O)CN4CCOCC4)CC3)c2)c1 (3D coordinates assigned)
NC(=O)c1cccc(C(=O)[N-]c2cccc(C(=O)N3CCN(C(=O)CN4CCOCC4)CC3)c2)c1 (nonaromatic ring conformer: 90.35868733613803 kcal/mol)

>  <smiles>  (13) 
NC(=O)c1cccc(C(=O)Nc2cccc(C(=O)N3CCN(C(=O)CN4CCOCC4)CC3)c2)c1

>  <score_type>  (13) 
oracle

>  <origin>  (13) 
adg

>  <m_score__min__energy>  (13) 
-11.199999999999999

>  <m_primary>  (13) 
energy

$$$$
13:0
     RDKit          3D

 44 46  0  0  1  0  0  0  0  0999 V2000
   60.7950   29.0340   48.3590 O   0  0  0  0  0  0  0  0  0  0  0  0
   60.5570   29.8170   47.3920 C   0  0  0  0  0  0  0  0  0  0  0  0
   59.7980   29.2660   46.3190 N   0  0  0  0  0  0  0  0  0  0  0  0
   59.3280   27.9200   46.3160 C   0  0  0  0  0  0  0  0  0  0  0  0
   60.2660   26.9120   46.2610 C   0  0  0  0  0  0  0  0  0  0  0  0
   59.8280   25.5910   46.2570 C   0  0  0  0  0  0  0  0  0  0  0  0
   58.4790   25.3050   46.3070 C   0  0  0  0  0  0  0  0  0  0  0  0
   58.0860   23.9730   46.3010 O   0  0  0  0  0  0  0  0  0  0  0  0
   57.5600   26.3300   46.3610 C   0  0  0  0  0  0  0  0  0  0  0  0
   56.1450   25.9850   46.4130 C   0  0  0  0  0  0  0  0  0  0  0  0
   55.7900   24.9420   47.0050 O   0  0  0  0  0  0  0  0  0  0  0  0
   55.1720   26.7810   45.8220 O   0  0  0  0  0  0  0  0  0  0  0  0
   57.9850   27.6410   46.3650 C   0  0  0  0  0  0  0  0  0  0  0  0
   61.0300   31.2020   47.3760 C   0  0  0  0  0  0  0  0  0  0  0  0
   62.3490   31.5560   47.4050 C   0  0  0  0  0  0  0  0  0  0  0  0
   62.7350   32.8780   47.3870 C   0  0  0  0  0  0  0  0  0  0  0  0
   61.7460   33.8470   47.3380 C   0  0  0  0  0  0  0  0  0  0  0  0
   60.4010   33.5470   47.3070 C   0  0  0  0  0  0  0  0  0  0  0  0
   59.3530   34.5560   47.2560 C   0  0  0  0  0  0  0  0  0  0  0  0
   58.3680   34.5680   46.3940 C   0  0  0  0  0  0  0  0  0  0  0  0
   58.1070   33.5290   45.4060 C   0  0  0  0  0  0  0  0  0  0  0  0
   57.4800   32.3320   45.7540 C   0  0  0  0  0  0  0  0  0  0  0  0
   57.2230   31.3400   44.8440 C   0  0  0  0  0  0  0  0  0  0  0  0
   56.6580   30.2760   45.1810 O   0  0  0  0  0  0  0  0  0  0  0  0
   57.5990   31.5290   43.5280 C   0  0  0  0  0  0  0  0  0  0  0  0
   57.3760   30.6390   42.6790 O   0  0  0  0  0  0  0  0  0  0  0  0
   58.1990   32.6870   43.2280 N   0  0  0  0  0  0  0  0  0  0  0  0
   58.4460   33.6430   44.1060 N   0  0  0  0  0  0  0  0  0  0  0  0
   60.0780   32.1970   47.3270 C   0  0  0  0  0  0  0  0  0  0  0  0
   59.5560   29.8400   45.4830 H   0  0  0  0  0  0  0  0  0  0  0  0
   61.3399   27.1469   46.2210 H   0  0  0  0  0  0  0  0  0  0  0  0
   60.5603   24.7714   46.2138 H   0  0  0  0  0  0  0  0  0  0  0  0
   57.1240   23.7820   46.5520 H   0  0  0  0  0  0  0  0  0  0  0  0
   54.3630   27.1100   46.3720 H   0  0  0  0  0  0  0  0  0  0  0  0
   57.2516   28.4597   46.4073 H   0  0  0  0  0  0  0  0  0  0  0  0
   63.1177   30.7701   47.4435 H   0  0  0  0  0  0  0  0  0  0  0  0
   63.7988   33.1567   47.4109 H   0  0  0  0  0  0  0  0  0  0  0  0
   62.0481   34.9046   47.3232 H   0  0  0  0  0  0  0  0  0  0  0  0
   59.3917   35.3684   47.9966 H   0  0  0  0  0  0  0  0  0  0  0  0
   57.6841   35.4293   46.4172 H   0  0  0  0  0  0  0  0  0  0  0  0
   57.1799   32.1784   46.8011 H   0  0  0  0  0  0  0  0  0  0  0  0
   58.4780   32.8120   42.2180 H   0  0  0  0  0  0  0  0  0  0  0  0
   58.9180   34.4950   43.7420 H   0  0  0  0  0  0  0  0  0  0  0  0
   59.0166   31.9093   47.3027 H   0  0  0  0  0  0  0  0  0  0  0  0
  1  2  2  0
  2  3  1  0
  3  4  1  0
  4  5  2  0
  5  6  1  0
  6  7  2  0
  7  8  1  0
  7  9  1  0
  9 10  1  0
 10 11  2  0
 10 12  1  0
  9 13  2  0
  2 14  1  0
 14 15  2  0
 15 16  1  0
 16 17  2  0
 17 18  1  0
 18 19  1  0
 19 20  2  0
 20 21  1  0
 21 22  2  0
 22 23  1  0
 23 24  2  0
 23 25  1  0
 25 26  2  0
 25 27  1  0
 27 28  1  0
 18 29  2  0
 13  4  1  0
 29 14  1  0
 28 21  1  0
  3 30  1  0
  5 31  1  0
  6 32  1  0
  8 33  1  0
 12 34  1  0
 13 35  1  0
 15 36  1  0
 16 37  1  0
 17 38  1  0
 19 39  1  0
 20 40  1  0
 22 41  1  0
 27 42  1  0
 28 43  1  0
 29 44  1  0
M  END
>  <smiles>  (14) 
O=C(Nc1ccc(O)c(C(=O)O)c1)c1cccc(C=Cc2cc(=O)c(=O)[nH][nH]2)c1

>  <score_type>  (14) 
oracle

>  <origin>  (14) 
adg

>  <m_score__min__energy>  (14) 
-9.8499999999999996

>  <m_primary>  (14) 
energy

$$$$
14:0
     RDKit          3D

 55 59  0  0  0  0  0  0  0  0999 V2000
   59.9623   28.2302   50.3974 H   0  0  0  0  0  0  0  0  0  0  0  0
   60.0800   28.3270   49.3080 C   0  0  0  0  0  0  0  0  0  0  0  0
   60.1060   27.2520   48.4750 N   0  0  0  0  0  0  0  0  0  0  0  0
   60.2660   27.6170   47.1830 C   0  0  0  0  0  0  0  0  0  0  0  0
   60.2830   26.6410   46.0520 C   0  0  0  0  0  0  0  0  0  0  0  0
   60.5077   27.1735   45.1161 H   0  0  0  0  0  0  0  0  0  0  0  0
   61.0537   25.8805   46.2462 H   0  0  0  0  0  0  0  0  0  0  0  0
   58.6600   25.8190   45.9030 S   0  0  0  0  0  0  0  0  0  0  0  0
   57.8170   27.2570   45.2490 C   0  0  0  0  0  0  0  0  0  0  0  0
   57.8380   27.7340   43.6360 S   0  0  0  0  0  0  0  0  0  0  0  0
   56.8570   29.0650   43.9390 C   0  0  0  0  0  0  0  0  0  0  0  0
   56.5180   29.9230   43.0240 N   0  0  0  0  0  0  0  0  0  0  0  0
   57.0810   31.2280   42.8260 C   0  0  0  0  0  0  0  0  0  0  0  0
   57.0170   31.7440   41.6790 O   0  0  0  0  0  0  0  0  0  0  0  0
   57.6530   32.0170   43.9350 C   0  0  0  0  0  0  0  0  0  0  0  0
   57.4130   31.7860   45.2150 O   0  0  0  0  0  0  0  0  0  0  0  0
   58.0630   32.6870   45.9070 C   0  0  0  0  0  0  0  0  0  0  0  0
   58.1070   32.8300   47.2920 C   0  0  0  0  0  0  0  0  0  0  0  0
   57.5569   32.1431   47.9520 H   0  0  0  0  0  0  0  0  0  0  0  0
   58.8790   33.8830   47.8190 C   0  0  0  0  0  0  0  0  0  0  0  0
   58.9389   34.0246   48.9082 H   0  0  0  0  0  0  0  0  0  0  0  0
   59.5780   34.7600   46.9570 C   0  0  0  0  0  0  0  0  0  0  0  0
   60.1769   35.5800   47.3800 H   0  0  0  0  0  0  0  0  0  0  0  0
   59.5120   34.5900   45.5620 C   0  0  0  0  0  0  0  0  0  0  0  0
   60.0473   35.2672   44.8802 H   0  0  0  0  0  0  0  0  0  0  0  0
   58.7450   33.5340   45.0740 C   0  0  0  0  0  0  0  0  0  0  0  0
   58.4930   33.1220   43.7860 C   0  0  0  0  0  0  0  0  0  0  0  0
   58.8682   33.5631   42.8508 H   0  0  0  0  0  0  0  0  0  0  0  0
   56.5190   29.1690   45.2470 N   0  0  0  0  0  0  0  0  0  0  0  0
   57.0440   28.1520   45.9790 C   0  0  0  0  0  0  0  0  0  0  0  0
   56.8715   28.0457   47.0602 H   0  0  0  0  0  0  0  0  0  0  0  0
   60.3620   29.2910   47.0180 S   0  0  0  0  0  0  0  0  0  0  0  0
   60.2140   29.5600   48.6740 C   0  0  0  0  0  0  0  0  0  0  0  0
   60.1620   30.8820   49.3210 C   0  0  0  0  0  0  0  0  0  0  0  0
   59.0410   31.4000   49.5800 O   0  0  0  0  0  0  0  0  0  0  0  0
   61.3700   31.5740   49.6820 N   0  0  0  0  0  0  0  0  0  0  0  0
   61.4190   32.3230   50.9390 C   0  0  0  0  0  0  0  0  0  0  0  0
   60.7368   31.8580   51.6659 H   0  0  0  0  0  0  0  0  0  0  0  0
   61.1139   33.3627   50.7495 H   0  0  0  0  0  0  0  0  0  0  0  0
   62.8420   32.3150   51.5040 C   0  0  0  0  0  0  0  0  0  0  0  0
   63.0792   31.3070   51.8750 H   0  0  0  0  0  0  0  0  0  0  0  0
   62.9044   33.0439   52.3255 H   0  0  0  0  0  0  0  0  0  0  0  0
   63.8100   32.6880   50.4590 N   0  0  0  0  0  0  0  0  0  0  0  0
   64.9730   33.4930   50.7630 C   0  0  0  0  0  0  0  0  0  0  0  0
   65.9710   33.4760   49.9940 O   0  0  0  0  0  0  0  0  0  0  0  0
   65.0370   34.3620   51.9830 C   0  0  0  0  0  0  0  0  0  0  0  0
   64.9907   33.7329   52.8841 H   0  0  0  0  0  0  0  0  0  0  0  0
   65.9794   34.9294   51.9800 H   0  0  0  0  0  0  0  0  0  0  0  0
   64.1879   35.0613   51.9800 H   0  0  0  0  0  0  0  0  0  0  0  0
   63.7530   31.9370   49.1960 C   0  0  0  0  0  0  0  0  0  0  0  0
   64.0703   30.8995   49.3774 H   0  0  0  0  0  0  0  0  0  0  0  0
   64.4223   32.4170   48.4668 H   0  0  0  0  0  0  0  0  0  0  0  0
   62.3300   31.9370   48.6350 C   0  0  0  0  0  0  0  0  0  0  0  0
   62.2638   31.2083   47.8136 H   0  0  0  0  0  0  0  0  0  0  0  0
   62.0914   32.9450   48.2648 H   0  0  0  0  0  0  0  0  0  0  0  0
  1  2  1  0
  2  3  1  0
  3  4  2  0
  4  5  1  0
  5  6  1  0
  5  7  1  0
  5  8  1  0
  8  9  1  0
  9 10  1  0
 10 11  1  0
 11 12  2  0
 12 13  1  0
 13 14  2  0
 13 15  1  0
 15 16  1  0
 16 17  1  0
 17 18  2  0
 18 19  1  0
 18 20  1  0
 20 21  1  0
 20 22  2  0
 22 23  1  0
 22 24  1  0
 24 25  1  0
 24 26  2  0
 26 27  1  0
 27 28  1  0
 11 29  1  0
 29 30  1  0
 30 31  1  0
  4 32  1  0
 32 33  1  0
 33 34  1  0
 34 35  2  0
 34 36  1  0
 36 37  1  0
 37 38  1  0
 37 39  1  0
 37 40  1  0
 40 41  1  0
 40 42  1  0
 40 43  1  0
 43 44  1  0
 44 45  2  0
 44 46  1  0
 46 47  1  0
 46 48  1  0
 46 49  1  0
 43 50  1  0
 50 51  1  0
 50 52  1  0
 50 53  1  0
 53 54  1  0
 53 55  1  0
 33  2  2  0
 53 36  1  0
 30  9  2  0
 27 15  2  0
 26 17  1  0
M  CHG  1  29  -1
M  END
>  <UniqueID>  (15) 
14

>  <SMILES>  (15) 
CC(=O)N1CCN(C(=O)c2cnc(CSc3c[n-]/c(=N\C(=O)c4cc5ccccc5o4)s3)s2)CC1

>  <Energy>  (15) 
156.01466853753033

>  <Genealogy>  (15) 
CC(=O)N1CCN(C(=O)c2cnc(CSc3c[n-]c(=NC(=O)c4cc5ccccc5o4)s3)s2)CC1 (protonated)
CC(=O)N1CCN(C(=O)c2cnc(CSc3c[n-]/c(=N\C(=O)c4cc5ccccc5o4)s3)s2)CC1 (cis-trans isomerization)
CC(=O)N1CCN(C(=O)c2cnc(CSc3c[n-]/c(=N\C(=O)c4cc5ccccc5o4)s3)s2)CC1 (3D coordinates assigned)
CC(=O)N1CCN(C(=O)c2cnc(CSc3c[n-]/c(=N\C(=O)c4cc5ccccc5o4)s3)s2)CC1 (nonaromatic ring conformer: 156.01466853753033 kcal/mol)

>  <smiles>  (15) 
CC(=O)N1CCN(C(=O)c2cnc(CSc3c[nH]c(=NC(=O)c4cc5ccccc5o4)s3)s2)CC1

>  <score_type>  (15) 
oracle

>  <origin>  (15) 
adg

>  <m_score__min__energy>  (15) 
-12.51

>  <m_primary>  (15) 
energy

$$$$
15:0
     RDKit          3D

 51 53  0  0  0  0  0  0  0  0999 V2000
   54.2580   23.6910   44.2000 C   0  0  0  0  0  0  0  0  0  0  0  0
   55.6580   23.1490   44.1800 C   0  0  0  0  0  0  0  0  0  0  0  0
   56.5910   23.5100   45.0990 C   0  0  0  0  0  0  0  0  0  0  0  0
   56.2740   24.2840   46.3270 C   0  0  0  0  0  0  0  0  0  0  0  0
   55.0830   24.3880   46.7310 O   0  0  0  0  0  0  0  0  0  0  0  0
   57.3500   24.8240   47.1080 N   0  0  0  0  0  0  0  0  0  0  0  0
   58.2100   25.9120   46.7420 C   0  0  0  0  0  0  0  0  0  0  0  0
   59.4860   25.9760   47.3130 C   0  0  0  0  0  0  0  0  0  0  0  0
   60.3620   27.0080   46.9720 C   0  0  0  0  0  0  0  0  0  0  0  0
   59.9730   27.9810   46.0470 C   0  0  0  0  0  0  0  0  0  0  0  0
   58.7010   27.9280   45.4490 C   0  0  0  0  0  0  0  0  0  0  0  0
   58.3080   28.9550   44.4540 C   0  0  0  0  0  0  0  0  0  0  0  0
   59.0760   29.9330   44.2390 O   0  0  0  0  0  0  0  0  0  0  0  0
   57.0580   28.8600   43.7470 N   0  0  0  0  0  0  0  0  0  0  0  0
   56.6790   29.8030   42.6970 C   0  0  0  0  0  0  0  0  0  0  0  0
   56.9200   31.2160   43.1510 C   0  0  0  0  0  0  0  0  0  0  0  0
   57.2790   32.0730   42.3040 O   0  0  0  0  0  0  0  0  0  0  0  0
   56.6420   31.6450   44.4920 N   0  0  0  0  0  0  0  0  0  0  0  0
   57.5280   32.3570   45.3640 C   0  0  0  0  0  0  0  0  0  0  0  0
   57.8700   33.6780   45.0510 C   0  0  0  0  0  0  0  0  0  0  0  0
   58.7600   34.3910   45.8620 C   0  0  0  0  0  0  0  0  0  0  0  0
   59.3260   33.7830   46.9920 C   0  0  0  0  0  0  0  0  0  0  0  0
   60.3160   34.5280   47.8390 C   0  0  0  0  0  0  0  0  0  0  0  0
   59.0190   32.4450   47.2810 C   0  0  0  0  0  0  0  0  0  0  0  0
   58.1290   31.7350   46.4710 C   0  0  0  0  0  0  0  0  0  0  0  0
   57.8310   26.8770   45.7890 C   0  0  0  0  0  0  0  0  0  0  0  0
   58.3210   23.0520   44.8630 S   0  0  0  0  0  0  0  0  0  0  0  0
   57.9270   21.3680   44.3250 C   0  0  0  0  0  0  0  0  0  0  0  0
   57.1630   21.4840   43.0140 C   0  0  0  0  0  0  0  0  0  0  0  0
   55.9330   22.1920   43.1840 O   0  0  0  0  0  0  0  0  0  0  0  0
   53.9290   23.8184   45.2419 H   0  0  0  0  0  0  0  0  0  0  0  0
   54.2339   24.6634   43.6864 H   0  0  0  0  0  0  0  0  0  0  0  0
   53.5854   22.9883   43.6864 H   0  0  0  0  0  0  0  0  0  0  0  0
   59.8007   25.2082   48.0351 H   0  0  0  0  0  0  0  0  0  0  0  0
   61.3601   27.0555   47.4320 H   0  0  0  0  0  0  0  0  0  0  0  0
   60.6664   28.7937   45.7849 H   0  0  0  0  0  0  0  0  0  0  0  0
   56.3290   28.1950   44.0870 H   0  0  0  0  0  0  0  0  0  0  0  0
   57.2792   29.6039   41.7969 H   0  0  0  0  0  0  0  0  0  0  0  0
   55.6094   29.6773   42.4729 H   0  0  0  0  0  0  0  0  0  0  0  0
   57.4362   34.1586   44.1617 H   0  0  0  0  0  0  0  0  0  0  0  0
   59.0164   35.4312   45.6125 H   0  0  0  0  0  0  0  0  0  0  0  0
   60.0902   34.3581   48.9021 H   0  0  0  0  0  0  0  0  0  0  0  0
   61.3317   34.1683   47.6179 H   0  0  0  0  0  0  0  0  0  0  0  0
   60.2517   35.6036   47.6179 H   0  0  0  0  0  0  0  0  0  0  0  0
   59.4811   31.9525   48.1493 H   0  0  0  0  0  0  0  0  0  0  0  0
   57.8979   30.6845   46.7011 H   0  0  0  0  0  0  0  0  0  0  0  0
   56.8451   26.8079   45.3060 H   0  0  0  0  0  0  0  0  0  0  0  0
   58.8531   20.7943   44.1725 H   0  0  0  0  0  0  0  0  0  0  0  0
   57.3257   20.8454   45.0835 H   0  0  0  0  0  0  0  0  0  0  0  0
   57.7862   22.0209   42.2837 H   0  0  0  0  0  0  0  0  0  0  0  0
   56.9302   20.4689   42.6599 H   0  0  0  0  0  0  0  0  0  0  0  0
  1  2  1  0
  2  3  2  0
  3  4  1  0
  4  5  2  0
  4  6  1  0
  6  7  1  0
  7  8  2  0
  8  9  1  0
  9 10  2  0
 10 11  1  0
 11 12  1  0
 12 13  2  0
 12 14  1  0
 14 15  1  0
 15 16  1  0
 16 17  2  0
 16 18  1  0
 18 19  1  0
 19 20  2  0
 20 21  1  0
 21 22  2  0
 22 23  1  0
 22 24  1  0
 24 25  2  0
 11 26  2  0
  3 27  1  0
 27 28  1  0
 28 29  1  0
 29 30  1  0
 30  2  1  0
 26  7  1  0
 25 19  1  0
  1 31  1  0
  1 32  1  0
  1 33  1  0
  8 34  1  0
  9 35  1  0
 10 36  1  0
 14 37  1  0
 15 38  1  0
 15 39  1  0
 20 40  1  0
 21 41  1  0
 23 42  1  0
 23 43  1  0
 23 44  1  0
 24 45  1  0
 25 46  1  0
 26 47  1  0
 28 48  1  0
 28 49  1  0
 29 50  1  0
 29 51  1  0
M  CHG  2   6  -1  18  -1
M  END
>  <UniqueID>  (16) 
15

>  <SMILES>  (16) 
CC1=C(C(=O)[N-]c2cccc(C(=O)NCC(=O)[N-]c3ccc(C)cc3)c2)SCCO1

>  <Energy>  (16) 
68.50014840176284

>  <Genealogy>  (16) 
CC1=C(C(=O)[N-]c2cccc(C(=O)NCC(=O)[N-]c3ccc(C)cc3)c2)SCCO1 (protonated)
CC1=C(C(=O)[N-]c2cccc(C(=O)NCC(=O)[N-]c3ccc(C)cc3)c2)SCCO1 (3D coordinates assigned)
CC1=C(C(=O)[N-]c2cccc(C(=O)NCC(=O)[N-]c3ccc(C)cc3)c2)SCCO1 (nonaromatic ring conformer: 68.50014840176284 kcal/mol)

>  <smiles>  (16) 
CC1=C(C(=O)Nc2cccc(C(=O)NCC(=O)Nc3ccc(C)cc3)c2)SCCO1

>  <score_type>  (16) 
oracle

>  <origin>  (16) 
adg

>  <m_score__min__energy>  (16) 
-12.18

>  <m_primary>  (16) 
energy

$$$$
16:0
     RDKit          3D

 55 58  0  0  0  0  0  0  0  0999 V2000
   56.0930   30.4360   44.8260 O   0  0  0  0  0  0  0  0  0  0  0  0
   57.2220   29.8730   44.7980 C   0  0  0  0  0  0  0  0  0  0  0  0
   57.2870   28.4000   44.6790 C   0  0  0  0  0  0  0  0  0  0  0  0
   56.8320   27.5880   45.7290 C   0  0  0  0  0  0  0  0  0  0  0  0
   56.8830   26.1950   45.6210 C   0  0  0  0  0  0  0  0  0  0  0  0
   57.3750   25.5880   44.4550 C   0  0  0  0  0  0  0  0  0  0  0  0
   57.4310   24.1070   44.3480 C   0  0  0  0  0  0  0  0  0  0  0  0
   56.6230   23.4420   43.5090 C   0  0  0  0  0  0  0  0  0  0  0  0
   56.6800   21.9440   43.4490 C   0  0  0  0  0  0  0  0  0  0  0  0
   58.1420   21.4810   43.4010 C   0  0  0  0  0  0  0  0  0  0  0  0
   59.0270   22.1430   44.4860 C   0  0  0  0  0  0  0  0  0  0  0  0
   58.3500   23.3070   45.2440 C   0  0  0  0  0  0  0  0  0  0  0  0
   57.8170   26.4030   43.3970 C   0  0  0  0  0  0  0  0  0  0  0  0
   57.7690   27.7950   43.5060 C   0  0  0  0  0  0  0  0  0  0  0  0
   58.4160   30.6760   44.9000 N   0  0  0  0  0  0  0  0  0  0  0  0
   58.4250   32.0610   44.4190 C   0  0  0  0  0  0  0  0  0  0  0  0
   58.6600   33.0460   45.5870 C   0  0  0  0  0  0  0  0  0  0  0  0
   59.2500   32.3890   46.7830 N   0  0  0  0  0  0  0  0  0  0  0  0
   59.8470   33.3650   47.6740 C   0  0  0  0  0  0  0  0  0  0  0  0
   59.1190   34.2330   48.2340 O   0  0  0  0  0  0  0  0  0  0  0  0
   61.3130   33.4030   47.9150 C   0  0  0  0  0  0  0  0  0  0  0  0
   61.8620   33.0310   49.1580 C   0  0  0  0  0  0  0  0  0  0  0  0
   63.2440   33.0660   49.3610 C   0  0  0  0  0  0  0  0  0  0  0  0
   64.0950   33.4640   48.3270 C   0  0  0  0  0  0  0  0  0  0  0  0
   63.5640   33.8220   47.0850 C   0  0  0  0  0  0  0  0  0  0  0  0
   62.1820   33.7890   46.8770 C   0  0  0  0  0  0  0  0  0  0  0  0
   60.2530   31.3740   46.4030 C   0  0  0  0  0  0  0  0  0  0  0  0
   59.5710   30.2010   45.6780 C   0  0  0  0  0  0  0  0  0  0  0  0
   56.4324   28.0506   46.6435 H   0  0  0  0  0  0  0  0  0  0  0  0
   56.5348   25.5698   46.4564 H   0  0  0  0  0  0  0  0  0  0  0  0
   55.9205   23.9934   42.8667 H   0  0  0  0  0  0  0  0  0  0  0  0
   56.1931   21.5240   44.3415 H   0  0  0  0  0  0  0  0  0  0  0  0
   56.1592   21.5967   42.5445 H   0  0  0  0  0  0  0  0  0  0  0  0
   58.1685   20.3908   43.5454 H   0  0  0  0  0  0  0  0  0  0  0  0
   58.5472   21.7779   42.4224 H   0  0  0  0  0  0  0  0  0  0  0  0
   59.3059   21.3719   45.2192 H   0  0  0  0  0  0  0  0  0  0  0  0
   59.8937   22.5731   43.9627 H   0  0  0  0  0  0  0  0  0  0  0  0
   57.7627   22.8943   46.0776 H   0  0  0  0  0  0  0  0  0  0  0  0
   59.1397   23.9801   45.6091 H   0  0  0  0  0  0  0  0  0  0  0  0
   58.2034   25.9407   42.4767 H   0  0  0  0  0  0  0  0  0  0  0  0
   58.1106   28.4211   42.6685 H   0  0  0  0  0  0  0  0  0  0  0  0
   59.2299   32.1805   43.6789 H   0  0  0  0  0  0  0  0  0  0  0  0
   57.4491   32.2820   43.9622 H   0  0  0  0  0  0  0  0  0  0  0  0
   59.3440   33.8377   45.2473 H   0  0  0  0  0  0  0  0  0  0  0  0
   57.6808   33.4521   45.8807 H   0  0  0  0  0  0  0  0  0  0  0  0
   58.4620   31.9120   47.2830 H   0  0  0  0  0  0  0  0  0  0  0  0
   61.1980   32.7107   49.9744 H   0  0  0  0  0  0  0  0  0  0  0  0
   63.6628   32.7796   50.3370 H   0  0  0  0  0  0  0  0  0  0  0  0
   65.1823   33.4955   48.4904 H   0  0  0  0  0  0  0  0  0  0  0  0
   64.2347   34.1303   46.2695 H   0  0  0  0  0  0  0  0  0  0  0  0
   61.7707   34.0666   45.8953 H   0  0  0  0  0  0  0  0  0  0  0  0
   60.9977   31.8310   45.7347 H   0  0  0  0  0  0  0  0  0  0  0  0
   60.7458   30.9976   47.3116 H   0  0  0  0  0  0  0  0  0  0  0  0
   60.2941   29.7260   44.9987 H   0  0  0  0  0  0  0  0  0  0  0  0
   59.2206   29.4758   46.4272 H   0  0  0  0  0  0  0  0  0  0  0  0
  1  2  2  0
  2  3  1  0
  3  4  2  0
  4  5  1  0
  5  6  2  0
  6  7  1  0
  7  8  2  0
  8  9  1  0
  9 10  1  0
 10 11  1  0
 11 12  1  0
  6 13  1  0
 13 14  2  0
  2 15  1  0
 15 16  1  0
 16 17  1  0
 17 18  1  0
 18 19  1  0
 19 20  2  0
 19 21  1  0
 21 22  2  0
 22 23  1  0
 23 24  2  0
 24 25  1  0
 25 26  2  0
 18 27  1  0
 27 28  1  0
 14  3  1  0
 28 15  1  0
 12  7  1  0
 26 21  1  0
  4 29  1  0
  5 30  1  0
  8 31  1  0
  9 32  1  0
  9 33  1  0
 10 34  1  0
 10 35  1  0
 11 36  1  0
 11 37  1  0
 12 38  1  0
 12 39  1  0
 13 40  1  0
 14 41  1  0
 16 42  1  0
 16 43  1  0
 17 44  1  0
 17 45  1  0
 18 46  1  0
 22 47  1  0
 23 48  1  0
 24 49  1  0
 25 50  1  0
 26 51  1  0
 27 52  1  0
 27 53  1  0
 28 54  1  0
 28 55  1  0
M  CHG  1  18   1
M  END
>  <UniqueID>  (17) 
16

>  <SMILES>  (17) 
O=C(c1ccc(C2=CCCCC2)cc1)N1CC[NH+](C(=O)c2ccccc2)CC1

>  <Energy>  (17) 
80.72078134448826

>  <Genealogy>  (17) 
O=C(c1ccc(C2=CCCCC2)cc1)N1CC[NH+](C(=O)c2ccccc2)CC1 (protonated)
O=C(c1ccc(C2=CCCCC2)cc1)N1CC[NH+](C(=O)c2ccccc2)CC1 (3D coordinates assigned)
O=C(c1ccc(C2=CCCCC2)cc1)N1CC[NH+](C(=O)c2ccccc2)CC1 (nonaromatic ring conformer: 80.72078134448826 kcal/mol)

>  <smiles>  (17) 
O=C(c1ccccc1)N1CCN(C(=O)c2ccc(C3=CCCCC3)cc2)CC1

>  <score_type>  (17) 
oracle

>  <origin>  (17) 
adg

>  <m_score__min__energy>  (17) 
-8.1199999999999992

>  <m_primary>  (17) 
energy

$$$$
17:0
     RDKit          3D

 58 62  0  0  0  0  0  0  0  0999 V2000
   57.3440   31.6910   42.1970 O   0  0  0  0  0  0  0  0  0  0  0  0
   57.1450   31.5850   43.4380 C   0  0  0  0  0  0  0  0  0  0  0  0
   56.4330   30.3610   43.9500 C   0  0  0  0  0  0  0  0  0  0  0  0
   57.3970   29.2530   44.2750 C   0  0  0  0  0  0  0  0  0  0  0  0
   57.7600   28.2110   43.4270 C   0  0  0  0  0  0  0  0  0  0  0  0
   58.6570   27.3980   44.0300 N   0  0  0  0  0  0  0  0  0  0  0  0
   58.8730   27.9220   45.2480 C   0  0  0  0  0  0  0  0  0  0  0  0
   59.7190   27.4270   46.2400 C   0  0  0  0  0  0  0  0  0  0  0  0
   59.7890   28.1290   47.4560 C   0  0  0  0  0  0  0  0  0  0  0  0
   59.0260   29.3020   47.6490 C   0  0  0  0  0  0  0  0  0  0  0  0
   58.1850   29.7830   46.6290 C   0  0  0  0  0  0  0  0  0  0  0  0
   58.1280   29.0590   45.4350 C   0  0  0  0  0  0  0  0  0  0  0  0
   57.6310   32.6100   44.3290 N   0  0  0  0  0  0  0  0  0  0  0  0
   58.8820   33.2890   43.9400 C   0  0  0  0  0  0  0  0  0  0  0  0
   59.4920   34.2180   45.0120 C   0  0  0  0  0  0  0  0  0  0  0  0
   59.0140   33.9200   46.4550 C   0  0  0  0  0  0  0  0  0  0  0  0
   59.5450   34.9480   47.4660 C   0  0  0  0  0  0  0  0  0  0  0  0
   59.5980   34.2030   48.7960 C   0  0  0  0  0  0  0  0  0  0  0  0
   59.2650   32.7480   48.4700 C   0  0  0  0  0  0  0  0  0  0  0  0
   59.3860   32.5900   47.0100 N   0  0  0  0  0  0  0  0  0  0  0  0
   60.6780   31.9670   46.5880 C   0  0  0  0  0  0  0  0  0  0  0  0
   61.9180   32.3790   47.3720 C   0  0  0  0  0  0  0  0  0  0  0  0
   62.3740   31.5770   48.4380 C   0  0  0  0  0  0  0  0  0  0  0  0
   63.5150   31.9340   49.1610 C   0  0  0  0  0  0  0  0  0  0  0  0
   64.2300   33.0820   48.8160 C   0  0  0  0  0  0  0  0  0  0  0  0
   63.8130   33.8650   47.7380 C   0  0  0  0  0  0  0  0  0  0  0  0
   62.6720   33.5100   47.0120 C   0  0  0  0  0  0  0  0  0  0  0  0
   57.4720   34.0300   46.3900 C   0  0  0  0  0  0  0  0  0  0  0  0
   56.8760   32.8940   45.5630 C   0  0  0  0  0  0  0  0  0  0  0  0
   55.8756   30.6272   44.8602 H   0  0  0  0  0  0  0  0  0  0  0  0
   55.7532   30.0045   43.1621 H   0  0  0  0  0  0  0  0  0  0  0  0
   57.3714   28.0684   42.4079 H   0  0  0  0  0  0  0  0  0  0  0  0
   59.0910   26.5370   43.6270 H   0  0  0  0  0  0  0  0  0  0  0  0
   60.3130   26.5158   46.0761 H   0  0  0  0  0  0  0  0  0  0  0  0
   60.4418   27.7627   48.2620 H   0  0  0  0  0  0  0  0  0  0  0  0
   59.0899   29.8436   48.6043 H   0  0  0  0  0  0  0  0  0  0  0  0
   57.5917   30.6990   46.7667 H   0  0  0  0  0  0  0  0  0  0  0  0
   59.6263   32.5163   43.6972 H   0  0  0  0  0  0  0  0  0  0  0  0
   58.6236   33.9365   43.0891 H   0  0  0  0  0  0  0  0  0  0  0  0
   60.5861   34.1088   44.9813 H   0  0  0  0  0  0  0  0  0  0  0  0
   59.1594   35.2388   44.7727 H   0  0  0  0  0  0  0  0  0  0  0  0
   60.5484   35.2929   47.1758 H   0  0  0  0  0  0  0  0  0  0  0  0
   58.9074   35.8428   47.5189 H   0  0  0  0  0  0  0  0  0  0  0  0
   60.6031   34.2767   49.2368 H   0  0  0  0  0  0  0  0  0  0  0  0
   58.8928   34.6265   49.5263 H   0  0  0  0  0  0  0  0  0  0  0  0
   59.9701   32.0763   48.9815 H   0  0  0  0  0  0  0  0  0  0  0  0
   58.2491   32.4949   48.8073 H   0  0  0  0  0  0  0  0  0  0  0  0
   60.5699   30.8764   46.6821 H   0  0  0  0  0  0  0  0  0  0  0  0
   60.8510   32.3213   45.5611 H   0  0  0  0  0  0  0  0  0  0  0  0
   61.8259   30.6609   48.7032 H   0  0  0  0  0  0  0  0  0  0  0  0
   63.8500   31.3100   50.0026 H   0  0  0  0  0  0  0  0  0  0  0  0
   65.1213   33.3696   49.3930 H   0  0  0  0  0  0  0  0  0  0  0  0
   64.3834   34.7633   47.4591 H   0  0  0  0  0  0  0  0  0  0  0  0
   62.3614   34.1209   46.1516 H   0  0  0  0  0  0  0  0  0  0  0  0
   57.0649   33.9835   47.4108 H   0  0  0  0  0  0  0  0  0  0  0  0
   57.2090   34.9856   45.9129 H   0  0  0  0  0  0  0  0  0  0  0  0
   56.8615   31.9836   46.1803 H   0  0  0  0  0  0  0  0  0  0  0  0
   55.8658   33.2074   45.2609 H   0  0  0  0  0  0  0  0  0  0  0  0
  1  2  2  0
  2  3  1  0
  3  4  1  0
  4  5  2  0
  5  6  1  0
  6  7  1  0
  7  8  2  0
  8  9  1  0
  9 10  2  0
 10 11  1  0
 11 12  2  0
  2 13  1  0
 13 14  1  0
 14 15  1  0
 15 16  1  0
 16 17  1  0
 17 18  1  0
 18 19  1  0
 19 20  1  0
 20 21  1  0
 21 22  1  0
 22 23  2  0
 23 24  1  0
 24 25  2  0
 25 26  1  0
 26 27  2  0
 16 28  1  0
 28 29  1  0
 12  4  1  0
 29 13  1  0
 12  7  1  0
 20 16  1  0
 27 22  1  0
  3 30  1  0
  3 31  1  0
  5 32  1  0
  6 33  1  0
  8 34  1  0
  9 35  1  0
 10 36  1  0
 11 37  1  0
 14 38  1  0
 14 39  1  0
 15 40  1  0
 15 41  1  0
 17 42  1  0
 17 43  1  0
 18 44  1  0
 18 45  1  0
 19 46  1  0
 19 47  1  0
 21 48  1  0
 21 49  1  0
 23 50  1  0
 24 51  1  0
 25 52  1  0
 26 53  1  0
 27 54  1  0
 28 55  1  0
 28 56  1  0
 29 57  1  0
 29 58  1  0
M  END
>  <UniqueID>  (18) 
17

>  <SMILES>  (18) 
O=C(Cc1c[nH]c2ccccc12)N1CCC2(CCCN2Cc2ccccc2)CC1

>  <Energy>  (18) 
113.22241122770826

>  <Genealogy>  (18) 
O=C(Cc1c[nH]c2ccccc12)N1CCC2(CCCN2Cc2ccccc2)CC1 (3D coordinates assigned)
O=C(Cc1c[nH]c2ccccc12)N1CCC2(CCCN2Cc2ccccc2)CC1 (nonaromatic ring conformer: 113.22241122770826 kcal/mol)

>  <smiles>  (18) 
O=C(Cc1c[nH]c2ccccc12)N1CCC2(CCCN2Cc2ccccc2)CC1

>  <score_type>  (18) 
oracle

>  <origin>  (18) 
adg

>  <m_score__min__energy>  (18) 
-9.5700000000000003

>  <m_primary>  (18) 
energy

$$$$
18:0
     RDKit          3D

 53 56  0  0  0  0  0  0  0  0999 V2000
   62.3100   31.4810   46.8660 O   0  0  0  0  0  0  0  0  0  0  0  0
   61.4950   30.8850   47.6210 C   0  0  0  0  0  0  0  0  0  0  0  0
   61.5090   31.1270   49.0310 N   0  0  0  0  0  0  0  0  0  0  0  0
   60.3710   31.4650   49.8320 C   0  0  0  0  0  0  0  0  0  0  0  0
   59.6280   30.4720   50.4940 C   0  0  0  0  0  0  0  0  0  0  0  0
   58.5450   30.8170   51.3220 C   0  0  0  0  0  0  0  0  0  0  0  0
   57.8010   29.7940   52.0100 N   0  0  0  0  0  0  0  0  0  0  0  0
   56.5530   29.7680   51.9520 O   0  0  0  0  0  0  0  0  0  0  0  0
   58.4480   28.8640   52.7920 O   0  0  0  0  0  0  0  0  0  0  0  0
   58.2140   32.1730   51.4830 C   0  0  0  0  0  0  0  0  0  0  0  0
   58.9550   33.1630   50.8360 C   0  0  0  0  0  0  0  0  0  0  0  0
   60.0340   32.8160   50.0150 C   0  0  0  0  0  0  0  0  0  0  0  0
   60.9550   34.1150   49.1810 S   0  0  0  0  0  0  0  0  0  0  0  0
   59.8720   34.0950   47.7550 C   0  0  0  0  0  0  0  0  0  0  0  0
   60.3250   34.5970   46.5290 C   0  0  0  0  0  0  0  0  0  0  0  0
   59.4790   34.5960   45.4160 C   0  0  0  0  0  0  0  0  0  0  0  0
   58.1830   34.0840   45.5240 C   0  0  0  0  0  0  0  0  0  0  0  0
   57.7330   33.5680   46.7470 C   0  0  0  0  0  0  0  0  0  0  0  0
   58.5770   33.5680   47.8600 C   0  0  0  0  0  0  0  0  0  0  0  0
   60.5820   29.8240   47.0720 C   0  0  0  0  0  0  0  0  0  0  0  0
   61.0460   29.4000   45.6620 C   0  0  0  0  0  0  0  0  0  0  0  0
   59.8820   28.7840   44.8790 C   0  0  0  0  0  0  0  0  0  0  0  0
   58.8030   29.7710   44.6400 N   0  0  0  0  0  0  0  0  0  0  0  0
   57.2950   28.9510   44.3110 S   0  0  0  0  0  0  0  0  0  0  0  0
   57.0220   28.9760   42.8350 O   0  0  0  0  0  0  0  0  0  0  0  0
   56.1700   29.6460   45.0270 O   0  0  0  0  0  0  0  0  0  0  0  0
   57.3640   27.2810   44.8410 C   0  0  0  0  0  0  0  0  0  0  0  0
   57.7700   26.2020   44.0710 C   0  0  0  0  0  0  0  0  0  0  0  0
   57.6990   24.9840   44.7570 C   0  0  0  0  0  0  0  0  0  0  0  0
   57.2350   25.1050   46.0620 C   0  0  0  0  0  0  0  0  0  0  0  0
   56.9160   26.7310   46.3640 S   0  0  0  0  0  0  0  0  0  0  0  0
   58.6350   30.7760   45.7190 C   0  0  0  0  0  0  0  0  0  0  0  0
   59.0930   30.2590   47.0930 C   0  0  0  0  0  0  0  0  0  0  0  0
   59.8968   29.4134   50.3628 H   0  0  0  0  0  0  0  0  0  0  0  0
   57.3654   32.4561   52.1231 H   0  0  0  0  0  0  0  0  0  0  0  0
   58.6895   34.2218   50.9721 H   0  0  0  0  0  0  0  0  0  0  0  0
   61.3477   34.9926   46.4414 H   0  0  0  0  0  0  0  0  0  0  0  0
   59.8333   34.9981   44.4554 H   0  0  0  0  0  0  0  0  0  0  0  0
   57.5162   34.0860   44.6492 H   0  0  0  0  0  0  0  0  0  0  0  0
   56.7139   33.1625   46.8304 H   0  0  0  0  0  0  0  0  0  0  0  0
   58.2262   33.1552   48.8174 H   0  0  0  0  0  0  0  0  0  0  0  0
   60.6462   28.9462   47.7318 H   0  0  0  0  0  0  0  0  0  0  0  0
   61.4187   30.2831   45.1223 H   0  0  0  0  0  0  0  0  0  0  0  0
   61.8459   28.6512   45.7599 H   0  0  0  0  0  0  0  0  0  0  0  0
   60.2556   28.4218   43.9099 H   0  0  0  0  0  0  0  0  0  0  0  0
   59.4666   27.9570   45.4736 H   0  0  0  0  0  0  0  0  0  0  0  0
   58.1122   26.2935   43.0296 H   0  0  0  0  0  0  0  0  0  0  0  0
   57.9835   24.0218   44.3061 H   0  0  0  0  0  0  0  0  0  0  0  0
   57.0993   24.2792   46.7759 H   0  0  0  0  0  0  0  0  0  0  0  0
   59.2269   31.6674   45.4640 H   0  0  0  0  0  0  0  0  0  0  0  0
   57.5618   31.0055   45.7930 H   0  0  0  0  0  0  0  0  0  0  0  0
   58.9654   31.0597   47.8364 H   0  0  0  0  0  0  0  0  0  0  0  0
   58.4818   29.3818   47.3518 H   0  0  0  0  0  0  0  0  0  0  0  0
  1  2  2  0
  2  3  1  0
  3  4  1  0
  4  5  2  0
  5  6  1  0
  6  7  1  0
  7  8  2  0
  7  9  1  0
  6 10  2  0
 10 11  1  0
 11 12  2  0
 12 13  1  0
 13 14  1  0
 14 15  2  0
 15 16  1  0
 16 17  2  0
 17 18  1  0
 18 19  2  0
  2 20  1  0
 20 21  1  0
 21 22  1  0
 22 23  1  0
 23 24  1  0
 24 25  2  0
 24 26  2  0
 24 27  1  0
 27 28  2  0
 28 29  1  0
 29 30  2  0
 30 31  1  0
 23 32  1  0
 32 33  1  0
 12  4  1  0
 19 14  1  0
 33 20  1  0
 31 27  1  0
  5 34  1  0
 10 35  1  0
 11 36  1  0
 15 37  1  0
 16 38  1  0
 17 39  1  0
 18 40  1  0
 19 41  1  0
 20 42  1  0
 21 43  1  0
 21 44  1  0
 22 45  1  0
 22 46  1  0
 28 47  1  0
 29 48  1  0
 30 49  1  0
 32 50  1  0
 32 51  1  0
 33 52  1  0
 33 53  1  0
M  CHG  3   3  -1   7   1   9  -1
M  END
>  <UniqueID>  (19) 
18

>  <SMILES>  (19) 
O=C([N-]c1cc([N+](=O)[O-])ccc1Sc1ccccc1)C1CCN(S(=O)(=O)c2cccs2)CC1

>  <Energy>  (19) 
88.74920958961638

>  <Genealogy>  (19) 
O=C([N-]c1cc([N+](=O)[O-])ccc1Sc1ccccc1)C1CCN(S(=O)(=O)c2cccs2)CC1 (protonated)
O=C([N-]c1cc([N+](=O)[O-])ccc1Sc1ccccc1)C1CCN(S(=O)(=O)c2cccs2)CC1 (3D coordinates assigned)
O=C([N-]c1cc([N+](=O)[O-])ccc1Sc1ccccc1)C1CCN(S(=O)(=O)c2cccs2)CC1 (nonaromatic ring conformer: 88.74920958961638 kcal/mol)

>  <smiles>  (19) 
O=C(Nc1cc([N+](=O)[O-])ccc1Sc1ccccc1)C1CCN(S(=O)(=O)c2cccs2)CC1

>  <score_type>  (19) 
oracle

>  <origin>  (19) 
adg

>  <m_score__min__energy>  (19) 
-11.49

>  <m_primary>  (19) 
energy

$$$$
19:0
     RDKit          3D

 57 59  0  0  0  0  0  0  0  0999 V2000
   57.8884   34.1035   47.7150 H   0  0  0  0  0  0  0  0  0  0  0  0
   58.3790   33.3080   47.1350 C   0  0  0  0  0  0  0  0  0  0  0  0
   58.6140   33.5330   45.8290 C   0  0  0  0  0  0  0  0  0  0  0  0
   58.6000   32.4130   44.9260 N   0  0  0  0  0  0  0  0  0  0  0  0
   59.4740   32.2200   44.3880 H   0  0  0  0  0  0  0  0  0  0  0  0
   57.4090   31.6600   44.6240 C   0  0  0  0  0  0  0  0  0  0  0  0
   56.2780   32.1560   44.8770 O   0  0  0  0  0  0  0  0  0  0  0  0
   57.4470   30.2940   43.9800 C   0  0  0  0  0  0  0  0  0  0  0  0
   58.5355   30.3180   43.8233 H   0  0  0  0  0  0  0  0  0  0  0  0
   56.4440   29.2800   44.5100 C   0  0  0  0  0  0  0  0  0  0  0  0
   56.7334   28.2242   44.6170 H   0  0  0  0  0  0  0  0  0  0  0  0
   55.8212   29.2006   45.4132 H   0  0  0  0  0  0  0  0  0  0  0  0
   56.2590   29.8830   43.1220 C   0  0  0  0  0  0  0  0  0  0  0  0
   56.4150   29.2624   42.2273 H   0  0  0  0  0  0  0  0  0  0  0  0
   55.4475   30.4192   42.6083 H   0  0  0  0  0  0  0  0  0  0  0  0
   58.9230   34.9160   45.3090 C   0  0  0  0  0  0  0  0  0  0  0  0
   59.0760   35.6006   46.1563 H   0  0  0  0  0  0  0  0  0  0  0  0
   59.8356   34.8818   44.6959 H   0  0  0  0  0  0  0  0  0  0  0  0
   58.0826   35.2735   44.6959 H   0  0  0  0  0  0  0  0  0  0  0  0
   58.7380   32.0620   47.8370 C   0  0  0  0  0  0  0  0  0  0  0  0
   59.2230   32.1260   49.1480 C   0  0  0  0  0  0  0  0  0  0  0  0
   59.3255   33.1005   49.6479 H   0  0  0  0  0  0  0  0  0  0  0  0
   59.5770   30.9570   49.8230 C   0  0  0  0  0  0  0  0  0  0  0  0
   59.9415   31.0115   50.8594 H   0  0  0  0  0  0  0  0  0  0  0  0
   59.4700   29.7180   49.1870 C   0  0  0  0  0  0  0  0  0  0  0  0
   59.7392   28.8003   49.7305 H   0  0  0  0  0  0  0  0  0  0  0  0
   59.0200   29.6350   47.8550 C   0  0  0  0  0  0  0  0  0  0  0  0
   58.9030   28.3080   47.2000 C   0  0  0  0  0  0  0  0  0  0  0  0
   57.6770   27.7240   47.1020 N   0  0  0  0  0  0  0  0  0  0  0  0
   57.4690   26.5220   46.5020 C   0  0  0  0  0  0  0  0  0  0  0  0
   56.1040   25.9390   46.4260 C   0  0  0  0  0  0  0  0  0  0  0  0
   55.1670   26.6460   45.9710 O   0  0  0  0  0  0  0  0  0  0  0  0
   55.7880   24.5980   46.8400 N   0  0  0  0  0  0  0  0  0  0  0  0
   55.2110   23.5100   46.0480 C   0  0  1  0  0  0  0  0  0  0  0  0
   54.5145   22.9145   46.6565 H   0  0  0  0  0  0  0  0  0  0  0  0
   54.4140   24.0880   44.8690 C   0  0  0  0  0  0  0  0  0  0  0  0
   53.5793   24.6933   45.2523 H   0  0  0  0  0  0  0  0  0  0  0  0
   55.0732   24.7194   44.2552 H   0  0  0  0  0  0  0  0  0  0  0  0
   54.0187   23.2652   44.2552 H   0  0  0  0  0  0  0  0  0  0  0  0
   56.3550   22.6020   45.5650 C   0  0  0  0  0  0  0  0  0  0  0  0
   57.2601   22.8447   46.1411 H   0  0  0  0  0  0  0  0  0  0  0  0
   56.0318   21.5618   45.7186 H   0  0  0  0  0  0  0  0  0  0  0  0
   56.7240   22.7910   43.8180 S   0  0  0  0  0  0  0  0  0  0  0  0
   57.9470   21.9810   43.4900 O   0  0  0  0  0  0  0  0  0  0  0  0
   55.5790   22.3080   42.9730 O   0  0  0  0  0  0  0  0  0  0  0  0
   57.0590   24.5000   43.4430 C   0  0  0  0  0  0  0  0  0  0  0  0
   57.1699   25.0660   44.3797 H   0  0  0  0  0  0  0  0  0  0  0  0
   57.9883   24.5719   42.8589 H   0  0  0  0  0  0  0  0  0  0  0  0
   56.2256   24.9174   42.8589 H   0  0  0  0  0  0  0  0  0  0  0  0
   58.5710   25.8300   45.9740 C   0  0  0  0  0  0  0  0  0  0  0  0
   58.4304   24.8532   45.4880 H   0  0  0  0  0  0  0  0  0  0  0  0
   59.8460   26.3900   46.0700 C   0  0  0  0  0  0  0  0  0  0  0  0
   60.7145   25.8522   45.6619 H   0  0  0  0  0  0  0  0  0  0  0  0
   60.0200   27.6310   46.6830 C   0  0  0  0  0  0  0  0  0  0  0  0
   61.0232   28.0755   46.7608 H   0  0  0  0  0  0  0  0  0  0  0  0
   58.6560   30.8200   47.1860 C   0  0  0  0  0  0  0  0  0  0  0  0
   58.3045   30.7723   46.1448 H   0  0  0  0  0  0  0  0  0  0  0  0
  1  2  1  0
  2  3  2  0
  3  4  1  0
  4  5  1  0
  4  6  1  0
  6  7  2  0
  6  8  1  0
  8  9  1  0
  8 10  1  0
 10 11  1  0
 10 12  1  0
 10 13  1  0
 13 14  1  0
 13 15  1  0
  3 16  1  0
 16 17  1  0
 16 18  1  0
 16 19  1  0
  2 20  1  0
 20 21  2  0
 21 22  1  0
 21 23  1  0
 23 24  1  0
 23 25  2  0
 25 26  1  0
 25 27  1  0
 27 28  1  0
 28 29  2  0
 29 30  1  0
 30 31  1  0
 31 32  2  0
 31 33  1  0
 33 34  1  0
 34 35  1  1
 34 36  1  0
 36 37  1  0
 36 38  1  0
 36 39  1  0
 34 40  1  0
 40 41  1  0
 40 42  1  0
 40 43  1  0
 43 44  2  0
 43 45  2  0
 43 46  1  0
 46 47  1  0
 46 48  1  0
 46 49  1  0
 30 50  2  0
 50 51  1  0
 50 52  1  0
 52 53  1  0
 52 54  2  0
 54 55  1  0
 27 56  2  0
 56 57  1  0
 13  8  1  0
 56 20  1  0
 54 28  1  0
M  CHG  1  33  -1
M  END
>  <UniqueID>  (20) 
19

>  <SMILES>  (20) 
C/C(=C\c1cccc(-c2cccc(C(=O)[N-][C@@H](C)CS(C)(=O)=O)n2)c1)NC(=O)C1CC1

>  <Energy>  (20) 
329.4485187888319

>  <Genealogy>  (20) 
CC(=Cc1cccc(-c2cccc(C(=O)[N-]C(C)CS(C)(=O)=O)n2)c1)NC(=O)C1CC1 (protonated)
CC(=Cc1cccc(-c2cccc(C(=O)[N-][C@@H](C)CS(C)(=O)=O)n2)c1)NC(=O)C1CC1 (chirality)
C/C(=C\c1cccc(-c2cccc(C(=O)[N-][C@@H](C)CS(C)(=O)=O)n2)c1)NC(=O)C1CC1 (cis-trans isomerization)
C/C(=C\c1cccc(-c2cccc(C(=O)[N-][C@@H](C)CS(C)(=O)=O)n2)c1)NC(=O)C1CC1 (3D coordinates assigned)
C/C(=C\c1cccc(-c2cccc(C(=O)[N-][C@@H](C)CS(C)(=O)=O)n2)c1)NC(=O)C1CC1 (nonaromatic ring conformer: 329.4485187888319 kcal/mol)

>  <smiles>  (20) 
CC(=Cc1cccc(-c2cccc(C(=O)NC(C)CS(C)(=O)=O)n2)c1)NC(=O)C1CC1

>  <score_type>  (20) 
oracle

>  <origin>  (20) 
adg

>  <m_score__min__energy>  (20) 
-13.48

>  <m_primary>  (20) 
energy

$$$$
20:0
     RDKit          3D

 54 57  0  0  0  0  0  0  0  0999 V2000
   64.8360   33.1150   49.4140 C   0  0  0  0  0  0  0  0  0  0  0  0
   63.6550   32.2990   48.9770 C   0  0  0  0  0  0  0  0  0  0  0  0
   62.8630   31.6400   49.9280 C   0  0  0  0  0  0  0  0  0  0  0  0
   61.7460   30.9030   49.5250 C   0  0  0  0  0  0  0  0  0  0  0  0
   61.4060   30.8210   48.1680 C   0  0  0  0  0  0  0  0  0  0  0  0
   60.0500   29.8150   47.6600 S   0  0  0  0  0  0  0  0  0  0  0  0
   59.9080   28.6490   48.5960 O   0  0  0  0  0  0  0  0  0  0  0  0
   60.3170   29.2850   46.2790 O   0  0  0  0  0  0  0  0  0  0  0  0
   58.5270   30.7530   47.6560 C   0  0  0  0  0  0  0  0  0  0  0  0
   58.1550   31.1570   46.2520 C   0  0  0  0  0  0  0  0  0  0  0  0
   57.4020   30.3760   45.3680 C   0  0  0  0  0  0  0  0  0  0  0  0
   56.8360   29.0460   45.6560 C   0  0  0  0  0  0  0  0  0  0  0  0
   55.7150   28.7390   45.1720 O   0  0  0  0  0  0  0  0  0  0  0  0
   57.5600   28.0660   46.4110 N   0  0  0  0  0  0  0  0  0  0  0  0
   57.6020   26.6560   46.1460 C   0  0  0  0  0  0  0  0  0  0  0  0
   58.8250   25.9890   45.9460 C   0  0  0  0  0  0  0  0  0  0  0  0
   58.8490   24.6140   45.7030 C   0  0  0  0  0  0  0  0  0  0  0  0
   57.6560   23.8880   45.6740 C   0  0  0  0  0  0  0  0  0  0  0  0
   56.4390   24.5360   45.8920 C   0  0  0  0  0  0  0  0  0  0  0  0
   56.4040   25.9150   46.1320 C   0  0  0  0  0  0  0  0  0  0  0  0
   55.1690   26.5290   46.3440 O   0  0  0  0  0  0  0  0  0  0  0  0
   57.4540   31.0250   44.1390 C   0  0  0  0  0  0  0  0  0  0  0  0
   56.8820   30.7340   42.8840 C   0  0  0  0  0  0  0  0  0  0  0  0
   55.9650   29.6520   42.6850 N   0  0  0  0  0  0  0  0  0  0  0  0
   57.1910   31.5910   41.8090 C   0  0  0  0  0  0  0  0  0  0  0  0
   58.0100   32.7190   42.0000 C   0  0  0  0  0  0  0  0  0  0  0  0
   58.5350   33.0110   43.2670 C   0  0  0  0  0  0  0  0  0  0  0  0
   58.2400   32.1430   44.3220 C   0  0  0  0  0  0  0  0  0  0  0  0
   58.6780   32.2290   45.5960 N   0  0  0  0  0  0  0  0  0  0  0  0
   59.5310   33.2890   46.1390 C   0  0  0  0  0  0  0  0  0  0  0  0
   62.1830   31.4970   47.2190 C   0  0  0  0  0  0  0  0  0  0  0  0
   63.2970   32.2390   47.6210 C   0  0  0  0  0  0  0  0  0  0  0  0
   64.8761   33.1427   50.5129 H   0  0  0  0  0  0  0  0  0  0  0  0
   65.7594   32.6613   49.0247 H   0  0  0  0  0  0  0  0  0  0  0  0
   64.7383   34.1392   49.0247 H   0  0  0  0  0  0  0  0  0  0  0  0
   63.1218   31.7033   50.9953 H   0  0  0  0  0  0  0  0  0  0  0  0
   61.1313   30.3852   50.2760 H   0  0  0  0  0  0  0  0  0  0  0  0
   57.7213   30.1356   48.0798 H   0  0  0  0  0  0  0  0  0  0  0  0
   58.6689   31.6613   48.2600 H   0  0  0  0  0  0  0  0  0  0  0  0
   59.7680   26.5543   45.9813 H   0  0  0  0  0  0  0  0  0  0  0  0
   59.8080   24.1023   45.5343 H   0  0  0  0  0  0  0  0  0  0  0  0
   57.6756   22.8055   45.4794 H   0  0  0  0  0  0  0  0  0  0  0  0
   55.5021   23.9599   45.8751 H   0  0  0  0  0  0  0  0  0  0  0  0
   55.0850   27.4530   46.7500 H   0  0  0  0  0  0  0  0  0  0  0  0
   55.1870   29.7450   41.9950 H   0  0  0  0  0  0  0  0  0  0  0  0
   55.9470   28.8220   43.3140 H   0  0  0  0  0  0  0  0  0  0  0  0
   56.7872   31.3756   40.8087 H   0  0  0  0  0  0  0  0  0  0  0  0
   58.2402   33.3768   41.1489 H   0  0  0  0  0  0  0  0  0  0  0  0
   59.1627   33.9001   43.4265 H   0  0  0  0  0  0  0  0  0  0  0  0
   59.5035   33.2548   47.2381 H   0  0  0  0  0  0  0  0  0  0  0  0
   60.5647   33.1410   45.7933 H   0  0  0  0  0  0  0  0  0  0  0  0
   59.1653   34.2671   45.7933 H   0  0  0  0  0  0  0  0  0  0  0  0
   61.9155   31.4438   46.1533 H   0  0  0  0  0  0  0  0  0  0  0  0
   63.8956   32.7781   46.8719 H   0  0  0  0  0  0  0  0  0  0  0  0
  1  2  1  0
  2  3  2  0
  3  4  1  0
  4  5  2  0
  5  6  1  0
  6  7  2  0
  6  8  2  0
  6  9  1  0
  9 10  1  0
 10 11  2  0
 11 12  1  0
 12 13  2  0
 12 14  1  0
 14 15  1  0
 15 16  2  0
 16 17  1  0
 17 18  2  0
 18 19  1  0
 19 20  2  0
 20 21  1  0
 11 22  1  0
 22 23  2  0
 23 24  1  0
 23 25  1  0
 25 26  2  0
 26 27  1  0
 27 28  2  0
 28 29  1  0
 29 30  1  0
  5 31  1  0
 31 32  2  0
 32  2  1  0
 29 10  1  0
 20 15  1  0
 28 22  1  0
  1 33  1  0
  1 34  1  0
  1 35  1  0
  3 36  1  0
  4 37  1  0
  9 38  1  0
  9 39  1  0
 16 40  1  0
 17 41  1  0
 18 42  1  0
 19 43  1  0
 21 44  1  0
 24 45  1  0
 24 46  1  0
 25 47  1  0
 26 48  1  0
 27 49  1  0
 30 50  1  0
 30 51  1  0
 30 52  1  0
 31 53  1  0
 32 54  1  0
M  CHG  1  14  -1
M  END
>  <UniqueID>  (21) 
20

>  <SMILES>  (21) 
Cc1ccc(S(=O)(=O)Cc2c(C(=O)[N-]c3ccccc3O)c3c(N)cccc3n2C)cc1

>  <Energy>  (21) 
95.90082774979176

>  <Genealogy>  (21) 
Cc1ccc(S(=O)(=O)Cc2c(C(=O)[N-]c3ccccc3O)c3c(N)cccc3n2C)cc1 (protonated)
Cc1ccc(S(=O)(=O)Cc2c(C(=O)[N-]c3ccccc3O)c3c(N)cccc3n2C)cc1 (3D coordinates assigned)
Cc1ccc(S(=O)(=O)Cc2c(C(=O)[N-]c3ccccc3O)c3c(N)cccc3n2C)cc1 (optimized conformer: 95.90082774979176 kcal/mol)

>  <smiles>  (21) 
Cc1ccc(S(=O)(=O)Cc2c(C(=O)Nc3ccccc3O)c3c(N)cccc3n2C)cc1

>  <score_type>  (21) 
oracle

>  <origin>  (21) 
adg

>  <m_score__min__energy>  (21) 
-11.73

>  <m_primary>  (21) 
energy

$$$$
21:0
     RDKit          3D

 55 58  0  0  0  0  0  0  0  0999 V2000
   60.5540   27.4630   45.8770 C   0  0  0  0  0  0  0  0  0  0  0  0
   59.4220   28.1380   45.6520 C   0  0  0  0  0  0  0  0  0  0  0  0
   59.3640   29.1520   44.7660 N   0  0  0  0  0  0  0  0  0  0  0  0
   58.0680   29.4900   44.6330 C   0  0  0  0  0  0  0  0  0  0  0  0
   57.5890   30.6590   43.8290 C   0  0  0  0  0  0  0  0  0  0  0  0
   57.9630   31.9320   44.5350 C   0  0  0  0  0  0  0  0  0  0  0  0
   58.0490   33.1400   43.8250 C   0  0  0  0  0  0  0  0  0  0  0  0
   58.2700   34.3400   44.5070 C   0  0  0  0  0  0  0  0  0  0  0  0
   58.3650   34.3490   45.9000 C   0  0  0  0  0  0  0  0  0  0  0  0
   58.2550   33.1500   46.6220 C   0  0  0  0  0  0  0  0  0  0  0  0
   58.2480   33.1350   48.0510 N   0  0  0  0  0  0  0  0  0  0  0  0
   59.3350   32.1730   49.0020 S   0  0  0  0  0  0  0  0  0  0  0  0
   59.2370   32.6320   50.4300 O   0  0  0  0  0  0  0  0  0  0  0  0
   58.9480   30.7210   48.9390 O   0  0  0  0  0  0  0  0  0  0  0  0
   60.9760   32.3960   48.4420 N   0  0  0  0  0  0  0  0  0  0  0  0
   61.1370   33.7310   47.8320 C   0  0  0  0  0  0  0  0  0  0  0  0
   62.3720   33.8140   46.9070 C   0  0  0  0  0  0  0  0  0  0  0  0
   63.3830   32.7870   47.2230 N   0  0  0  0  0  0  0  0  0  0  0  0
   64.0550   33.0540   48.5060 C   0  0  0  0  0  0  0  0  0  0  0  0
   62.8300   31.4120   47.1500 C   0  0  0  0  0  0  0  0  0  0  0  0
   61.3270   31.3380   47.4870 C   0  0  0  0  0  0  0  0  0  0  0  0
   58.0900   31.9430   45.9340 C   0  0  0  0  0  0  0  0  0  0  0  0
   57.2780   28.7120   45.4570 C   0  0  0  0  0  0  0  0  0  0  0  0
   58.1360   27.8630   46.1410 C   0  0  0  0  0  0  0  0  0  0  0  0
   57.7150   27.0100   47.0940 C   0  0  0  0  0  0  0  0  0  0  0  0
   57.1560   25.6690   46.8560 C   0  0  0  0  0  0  0  0  0  0  0  0
   57.7460   24.5170   47.2260 N   0  0  0  0  0  0  0  0  0  0  0  0
   56.8130   23.5830   46.9450 C   0  0  0  0  0  0  0  0  0  0  0  0
   57.0010   22.3560   47.1450 O   0  0  0  0  0  0  0  0  0  0  0  0
   55.6560   24.0710   46.4470 N   0  0  0  0  0  0  0  0  0  0  0  0
   55.8860   25.3950   46.4130 C   0  0  0  0  0  0  0  0  0  0  0  0
   54.9530   26.3360   45.9920 O   0  0  0  0  0  0  0  0  0  0  0  0
   60.5679   26.6402   46.6070 H   0  0  0  0  0  0  0  0  0  0  0  0
   61.4714   27.7304   45.3321 H   0  0  0  0  0  0  0  0  0  0  0  0
   60.1660   29.5810   44.2510 H   0  0  0  0  0  0  0  0  0  0  0  0
   58.0585   30.6385   42.8345 H   0  0  0  0  0  0  0  0  0  0  0  0
   56.4960   30.6067   43.7164 H   0  0  0  0  0  0  0  0  0  0  0  0
   57.9423   33.1422   42.7302 H   0  0  0  0  0  0  0  0  0  0  0  0
   58.3694   35.2801   43.9445 H   0  0  0  0  0  0  0  0  0  0  0  0
   58.5264   35.2977   46.4329 H   0  0  0  0  0  0  0  0  0  0  0  0
   60.2378   33.9596   47.2412 H   0  0  0  0  0  0  0  0  0  0  0  0
   61.2806   34.4557   48.6470 H   0  0  0  0  0  0  0  0  0  0  0  0
   62.0433   33.6773   45.8662 H   0  0  0  0  0  0  0  0  0  0  0  0
   62.8373   34.7993   47.0574 H   0  0  0  0  0  0  0  0  0  0  0  0
   63.3827   32.7869   49.3346 H   0  0  0  0  0  0  0  0  0  0  0  0
   64.9738   32.4526   48.5708 H   0  0  0  0  0  0  0  0  0  0  0  0
   64.3105   34.1220   48.5708 H   0  0  0  0  0  0  0  0  0  0  0  0
   62.9776   31.0305   46.1289 H   0  0  0  0  0  0  0  0  0  0  0  0
   63.3613   30.8079   47.9002 H   0  0  0  0  0  0  0  0  0  0  0  0
   60.7399   31.4687   46.5660 H   0  0  0  0  0  0  0  0  0  0  0  0
   61.1042   30.3581   47.9344 H   0  0  0  0  0  0  0  0  0  0  0  0
   58.0595   30.9958   46.4925 H   0  0  0  0  0  0  0  0  0  0  0  0
   56.1830   28.7569   45.5522 H   0  0  0  0  0  0  0  0  0  0  0  0
   57.7956   27.3434   48.1391 H   0  0  0  0  0  0  0  0  0  0  0  0
   54.0140   26.3360   46.3720 H   0  0  0  0  0  0  0  0  0  0  0  0
  1  2  2  0
  2  3  1  0
  3  4  1  0
  4  5  1  0
  5  6  1  0
  6  7  2  0
  7  8  1  0
  8  9  2  0
  9 10  1  0
 10 11  1  0
 11 12  1  0
 12 13  2  0
 12 14  2  0
 12 15  1  0
 15 16  1  0
 16 17  1  0
 17 18  1  0
 18 19  1  0
 18 20  1  0
 20 21  1  0
 10 22  2  0
  4 23  2  0
 23 24  1  0
 24 25  2  3
 25 26  1  0
 26 27  1  0
 27 28  1  0
 28 29  2  0
 28 30  1  0
 30 31  1  0
 31 32  1  0
 24  2  1  0
 31 26  2  0
 22  6  1  0
 21 15  1  0
  1 33  1  0
  1 34  1  0
  3 35  1  0
  5 36  1  0
  5 37  1  0
  7 38  1  0
  8 39  1  0
  9 40  1  0
 16 41  1  0
 16 42  1  0
 17 43  1  0
 17 44  1  0
 19 45  1  0
 19 46  1  0
 19 47  1  0
 20 48  1  0
 20 49  1  0
 21 50  1  0
 21 51  1  0
 22 52  1  0
 23 53  1  0
 25 54  1  0
 32 55  1  0
M  CHG  3  11  -1  27  -1  30  -1
M  END
>  <UniqueID>  (22) 
21

>  <SMILES>  (22) 
C=c1[nH]c(Cc2cccc([N-]S(=O)(=O)N3CCN(C)CC3)c2)cc1=Cc1[n-]c(=O)[n-]c1O

>  <Energy>  (22) 
132.66904430213256

>  <Genealogy>  (22) 
C=c1[nH]c(Cc2cccc([N-]S(=O)(=O)N3CCN(C)CC3)c2)cc1=Cc1[n-]c(=O)[n-]c1O (protonated)
C=c1[nH]c(Cc2cccc([N-]S(=O)(=O)N3CCN(C)CC3)c2)cc1=Cc1[n-]c(=O)[n-]c1O (3D coordinates assigned)
C=c1[nH]c(Cc2cccc([N-]S(=O)(=O)N3CCN(C)CC3)c2)cc1=Cc1[n-]c(=O)[n-]c1O (nonaromatic ring conformer: 132.66904430213256 kcal/mol)

>  <smiles>  (22) 
C=c1[nH]c(Cc2cccc(NS(=O)(=O)N3CCN(C)CC3)c2)cc1=Cc1[nH]c(=O)[nH]c1O

>  <score_type>  (22) 
oracle

>  <origin>  (22) 
adg

>  <m_score__min__energy>  (22) 
-15.81

>  <m_primary>  (22) 
energy

$$$$
22:0
     RDKit          3D

 50 52  0  0  0  0  0  0  0  0999 V2000
   56.3820   24.7600   44.5780 C   0  0  0  0  0  0  0  0  0  0  0  0
   55.5220   25.7090   45.8110 S   0  0  0  0  0  0  0  0  0  0  0  0
   54.0410   25.5240   45.6280 O   0  0  0  0  0  0  0  0  0  0  0  0
   55.9330   25.2320   47.1750 O   0  0  0  0  0  0  0  0  0  0  0  0
   55.9340   27.3820   45.6210 N   0  0  0  0  0  0  0  0  0  0  0  0
   57.2540   27.8850   45.3750 C   0  0  0  0  0  0  0  0  0  0  0  0
   57.9750   27.5510   44.2160 C   0  0  0  0  0  0  0  0  0  0  0  0
   59.2600   28.0610   44.0200 C   0  0  0  0  0  0  0  0  0  0  0  0
   59.8360   28.9050   44.9720 C   0  0  0  0  0  0  0  0  0  0  0  0
   59.1300   29.2520   46.1380 C   0  0  0  0  0  0  0  0  0  0  0  0
   59.7260   30.1220   47.1250 N   0  0  0  0  0  0  0  0  0  0  0  0
   60.7520   31.0990   46.7390 C   0  0  0  0  0  0  0  0  0  0  0  0
   61.6500   31.4220   47.9400 C   0  0  0  0  0  0  0  0  0  0  0  0
   60.8890   31.9400   49.1130 N   0  0  0  0  0  0  0  0  0  0  0  0
   60.8890   33.4270   49.1140 C   0  0  0  0  0  0  0  0  0  0  0  0
   59.4800   34.0440   48.9790 C   0  0  0  0  0  0  0  0  0  0  0  0
   59.0190   34.1040   47.5450 C   0  0  0  0  0  0  0  0  0  0  0  0
   57.9310   33.3240   47.1190 C   0  0  0  0  0  0  0  0  0  0  0  0
   57.5140   33.3630   45.7860 C   0  0  0  0  0  0  0  0  0  0  0  0
   58.1800   34.1790   44.8670 C   0  0  0  0  0  0  0  0  0  0  0  0
   59.2640   34.9570   45.2810 C   0  0  0  0  0  0  0  0  0  0  0  0
   59.6850   34.9230   46.6150 C   0  0  0  0  0  0  0  0  0  0  0  0
   59.5020   31.3990   49.2110 C   0  0  0  0  0  0  0  0  0  0  0  0
   59.3420   30.0300   48.5390 C   0  0  0  0  0  0  0  0  0  0  0  0
   57.8360   28.7320   46.3270 C   0  0  0  0  0  0  0  0  0  0  0  0
   57.0424   24.0313   45.0708 H   0  0  0  0  0  0  0  0  0  0  0  0
   55.6523   24.2277   43.9501 H   0  0  0  0  0  0  0  0  0  0  0  0
   56.9834   25.4339   43.9501 H   0  0  0  0  0  0  0  0  0  0  0  0
   57.5266   26.8870   43.4623 H   0  0  0  0  0  0  0  0  0  0  0  0
   59.8212   27.7968   43.1116 H   0  0  0  0  0  0  0  0  0  0  0  0
   60.8491   29.3012   44.8088 H   0  0  0  0  0  0  0  0  0  0  0  0
   61.3659   30.6808   45.9277 H   0  0  0  0  0  0  0  0  0  0  0  0
   60.2603   32.0221   46.3982 H   0  0  0  0  0  0  0  0  0  0  0  0
   62.1765   30.5043   48.2411 H   0  0  0  0  0  0  0  0  0  0  0  0
   62.3486   32.2115   47.6259 H   0  0  0  0  0  0  0  0  0  0  0  0
   61.4120   31.6220   49.9630 H   0  0  0  0  0  0  0  0  0  0  0  0
   61.3319   33.7744   50.0591 H   0  0  0  0  0  0  0  0  0  0  0  0
   61.4689   33.7507   48.2371 H   0  0  0  0  0  0  0  0  0  0  0  0
   58.7691   33.4327   49.5542 H   0  0  0  0  0  0  0  0  0  0  0  0
   59.5245   35.0740   49.3625 H   0  0  0  0  0  0  0  0  0  0  0  0
   57.4048   32.6794   47.8384 H   0  0  0  0  0  0  0  0  0  0  0  0
   56.6605   32.7508   45.4593 H   0  0  0  0  0  0  0  0  0  0  0  0
   57.8506   34.2086   43.8179 H   0  0  0  0  0  0  0  0  0  0  0  0
   59.7878   35.5979   44.5565 H   0  0  0  0  0  0  0  0  0  0  0  0
   60.5383   35.5378   46.9372 H   0  0  0  0  0  0  0  0  0  0  0  0
   59.2391   31.2999   50.2745 H   0  0  0  0  0  0  0  0  0  0  0  0
   58.8378   32.1017   48.6866 H   0  0  0  0  0  0  0  0  0  0  0  0
   59.9870   29.2970   49.0456 H   0  0  0  0  0  0  0  0  0  0  0  0
   58.2916   29.7112   48.6100 H   0  0  0  0  0  0  0  0  0  0  0  0
   57.2736   28.9944   47.2352 H   0  0  0  0  0  0  0  0  0  0  0  0
  1  2  1  0
  2  3  2  0
  2  4  2  0
  2  5  1  0
  5  6  1  0
  6  7  2  0
  7  8  1  0
  8  9  2  0
  9 10  1  0
 10 11  1  0
 11 12  1  0
 12 13  1  0
 13 14  1  0
 14 15  1  0
 15 16  1  0
 16 17  1  0
 17 18  2  0
 18 19  1  0
 19 20  2  0
 20 21  1  0
 21 22  2  0
 14 23  1  0
 23 24  1  0
 10 25  2  0
 25  6  1  0
 24 11  1  0
 22 17  1  0
  1 26  1  0
  1 27  1  0
  1 28  1  0
  7 29  1  0
  8 30  1  0
  9 31  1  0
 12 32  1  0
 12 33  1  0
 13 34  1  0
 13 35  1  0
 14 36  1  0
 15 37  1  0
 15 38  1  0
 16 39  1  0
 16 40  1  0
 18 41  1  0
 19 42  1  0
 20 43  1  0
 21 44  1  0
 22 45  1  0
 23 46  1  0
 23 47  1  0
 24 48  1  0
 24 49  1  0
 25 50  1  0
M  CHG  2   5  -1  14   1
M  END
>  <UniqueID>  (23) 
22

>  <SMILES>  (23) 
CS(=O)(=O)[N-]c1cccc(N2CC[NH+](CCc3ccccc3)CC2)c1

>  <Energy>  (23) 
60.09723957781314

>  <Genealogy>  (23) 
CS(=O)(=O)[N-]c1cccc(N2CC[NH+](CCc3ccccc3)CC2)c1 (protonated)
CS(=O)(=O)[N-]c1cccc(N2CC[NH+](CCc3ccccc3)CC2)c1 (3D coordinates assigned)
CS(=O)(=O)[N-]c1cccc(N2CC[NH+](CCc3ccccc3)CC2)c1 (nonaromatic ring conformer: 60.09723957781314 kcal/mol)

>  <smiles>  (23) 
CS(=O)(=O)Nc1cccc(N2CCN(CCc3ccccc3)CC2)c1

>  <score_type>  (23) 
oracle

>  <origin>  (23) 
adg

>  <m_score__min__energy>  (23) 
-9.4900000000000002

>  <m_primary>  (23) 
energy

$$$$
23:0
     RDKit          3D

 67 70  0  0  0  0  0  0  0  0999 V2000
   52.2830   23.3460   46.1760 C   0  0  0  0  0  0  0  0  0  0  0  0
   53.2580   22.6960   45.2890 N   0  0  0  0  0  0  0  0  0  0  0  0
   54.0920   23.7140   44.6070 C   0  0  0  0  0  0  0  0  0  0  0  0
   55.3760   23.0880   44.0450 C   0  0  0  0  0  0  0  0  0  0  0  0
   56.2060   22.4750   45.1140 N   0  0  0  0  0  0  0  0  0  0  0  0
   57.4820   23.1830   45.3780 C   0  0  0  0  0  0  0  0  0  0  0  0
   57.3670   24.6940   45.3300 C   0  0  0  0  0  0  0  0  0  0  0  0
   56.7320   25.3970   46.3620 C   0  0  0  0  0  0  0  0  0  0  0  0
   56.6520   26.7930   46.3280 C   0  0  0  0  0  0  0  0  0  0  0  0
   57.1960   27.5120   45.2500 C   0  0  0  0  0  0  0  0  0  0  0  0
   57.1410   28.9920   45.2210 C   0  0  0  0  0  0  0  0  0  0  0  0
   56.0230   29.5590   45.0890 O   0  0  0  0  0  0  0  0  0  0  0  0
   58.3460   29.7720   45.3300 N   0  0  0  0  0  0  0  0  0  0  0  0
   58.4110   31.2080   45.2440 C   0  0  0  0  0  0  0  0  0  0  0  0
   57.7210   31.8590   44.2100 C   0  0  0  0  0  0  0  0  0  0  0  0
   57.7140   33.2530   44.1260 C   0  0  0  0  0  0  0  0  0  0  0  0
   58.3850   34.0140   45.0850 C   0  0  0  0  0  0  0  0  0  0  0  0
   59.0700   33.3810   46.1330 C   0  0  0  0  0  0  0  0  0  0  0  0
   59.7670   34.1920   47.1480 C   0  0  0  0  0  0  0  0  0  0  0  0
   59.2900   35.3260   47.4430 O   0  0  0  0  0  0  0  0  0  0  0  0
   60.9550   33.7040   47.8180 N   0  0  0  0  0  0  0  0  0  0  0  0
   61.4930   34.4570   48.9700 C   0  0  0  0  0  0  0  0  0  0  0  0
   62.2080   33.5280   49.9580 C   0  0  0  0  0  0  0  0  0  0  0  0
   63.2490   32.6150   49.2780 C   0  0  0  0  0  0  0  0  0  0  0  0
   64.4620   33.4410   48.7730 C   0  0  0  0  0  0  0  0  0  0  0  0
   63.7120   31.7020   50.2510 O   0  0  0  0  0  0  0  0  0  0  0  0
   62.5680   31.8440   48.1170 C   0  0  0  0  0  0  0  0  0  0  0  0
   61.8620   32.7760   47.1240 C   0  0  0  0  0  0  0  0  0  0  0  0
   59.0720   31.9800   46.2180 C   0  0  0  0  0  0  0  0  0  0  0  0
   57.7780   26.8040   44.1860 C   0  0  0  0  0  0  0  0  0  0  0  0
   57.8700   25.4090   44.2300 C   0  0  0  0  0  0  0  0  0  0  0  0
   55.4620   22.1090   46.3410 C   0  0  0  0  0  0  0  0  0  0  0  0
   54.0390   21.6470   45.9980 C   0  0  0  0  0  0  0  0  0  0  0  0
   52.5606   23.1610   47.2242 H   0  0  0  0  0  0  0  0  0  0  0  0
   52.2775   24.4291   45.9838 H   0  0  0  0  0  0  0  0  0  0  0  0
   51.2811   22.9345   45.9838 H   0  0  0  0  0  0  0  0  0  0  0  0
   53.5159   24.1559   43.7806 H   0  0  0  0  0  0  0  0  0  0  0  0
   54.3705   24.4861   45.3393 H   0  0  0  0  0  0  0  0  0  0  0  0
   55.1034   22.3104   43.3162 H   0  0  0  0  0  0  0  0  0  0  0  0
   55.9656   23.8862   43.5704 H   0  0  0  0  0  0  0  0  0  0  0  0
   57.8379   22.8943   46.3780 H   0  0  0  0  0  0  0  0  0  0  0  0
   58.1807   22.8903   44.5804 H   0  0  0  0  0  0  0  0  0  0  0  0
   56.2924   24.8462   47.2066 H   0  0  0  0  0  0  0  0  0  0  0  0
   56.1598   27.3320   47.1509 H   0  0  0  0  0  0  0  0  0  0  0  0
   59.2400   29.2750   45.5570 H   0  0  0  0  0  0  0  0  0  0  0  0
   57.1803   31.2654   43.4581 H   0  0  0  0  0  0  0  0  0  0  0  0
   57.1796   33.7516   43.3039 H   0  0  0  0  0  0  0  0  0  0  0  0
   58.3766   35.1120   45.0188 H   0  0  0  0  0  0  0  0  0  0  0  0
   62.2074   35.2092   48.6043 H   0  0  0  0  0  0  0  0  0  0  0  0
   60.6535   34.9391   49.4922 H   0  0  0  0  0  0  0  0  0  0  0  0
   62.7206   34.1444   50.7112 H   0  0  0  0  0  0  0  0  0  0  0  0
   61.4450   32.8781   50.4111 H   0  0  0  0  0  0  0  0  0  0  0  0
   65.0275   33.8261   49.6343 H   0  0  0  0  0  0  0  0  0  0  0  0
   65.1146   32.7988   48.1634 H   0  0  0  0  0  0  0  0  0  0  0  0
   64.1036   34.2836   48.1634 H   0  0  0  0  0  0  0  0  0  0  0  0
   64.3520   32.1810   50.8380 H   0  0  0  0  0  0  0  0  0  0  0  0
   63.3357   31.2703   47.5770 H   0  0  0  0  0  0  0  0  0  0  0  0
   61.8043   31.1859   48.5569 H   0  0  0  0  0  0  0  0  0  0  0  0
   62.6190   33.3565   46.5763 H   0  0  0  0  0  0  0  0  0  0  0  0
   61.2684   32.1615   46.4311 H   0  0  0  0  0  0  0  0  0  0  0  0
   59.5926   31.4829   47.0498 H   0  0  0  0  0  0  0  0  0  0  0  0
   58.1640   27.3499   43.3125 H   0  0  0  0  0  0  0  0  0  0  0  0
   58.3402   24.8670   43.3962 H   0  0  0  0  0  0  0  0  0  0  0  0
   55.9921   21.2933   46.8544 H   0  0  0  0  0  0  0  0  0  0  0  0
   55.3983   22.9935   46.9919 H   0  0  0  0  0  0  0  0  0  0  0  0
   54.1019   20.7575   45.3540 H   0  0  0  0  0  0  0  0  0  0  0  0
   53.5216   21.4245   46.9429 H   0  0  0  0  0  0  0  0  0  0  0  0
  1  2  1  0
  2  3  1  0
  3  4  1  0
  4  5  1  0
  5  6  1  0
  6  7  1  0
  7  8  2  0
  8  9  1  0
  9 10  2  0
 10 11  1  0
 11 12  2  0
 11 13  1  0
 13 14  1  0
 14 15  2  0
 15 16  1  0
 16 17  2  0
 17 18  1  0
 18 19  1  0
 19 20  2  0
 19 21  1  0
 21 22  1  0
 22 23  1  0
 23 24  1  0
 24 25  1  0
 24 26  1  0
 24 27  1  0
 27 28  1  0
 18 29  2  0
 10 30  1  0
 30 31  2  0
  5 32  1  0
 32 33  1  0
 33  2  1  0
 31  7  1  0
 29 14  1  0
 28 21  1  0
  1 34  1  0
  1 35  1  0
  1 36  1  0
  3 37  1  0
  3 38  1  0
  4 39  1  0
  4 40  1  0
  6 41  1  0
  6 42  1  0
  8 43  1  0
  9 44  1  0
 13 45  1  0
 15 46  1  0
 16 47  1  0
 17 48  1  0
 22 49  1  0
 22 50  1  0
 23 51  1  0
 23 52  1  0
 25 53  1  0
 25 54  1  0
 25 55  1  0
 26 56  1  0
 27 57  1  0
 27 58  1  0
 28 59  1  0
 28 60  1  0
 29 61  1  0
 30 62  1  0
 31 63  1  0
 32 64  1  0
 32 65  1  0
 33 66  1  0
 33 67  1  0
M  END
>  <UniqueID>  (24) 
23

>  <SMILES>  (24) 
CN1CCN(Cc2ccc(C(=O)Nc3cccc(C(=O)N4CCC(C)(O)CC4)c3)cc2)CC1

>  <Energy>  (24) 
94.88429136756113

>  <Genealogy>  (24) 
CN1CCN(Cc2ccc(C(=O)Nc3cccc(C(=O)N4CCC(C)(O)CC4)c3)cc2)CC1 (3D coordinates assigned)
CN1CCN(Cc2ccc(C(=O)Nc3cccc(C(=O)N4CCC(C)(O)CC4)c3)cc2)CC1 (nonaromatic ring conformer: 94.88429136756113 kcal/mol)

>  <smiles>  (24) 
CN1CCN(Cc2ccc(C(=O)Nc3cccc(C(=O)N4CCC(C)(O)CC4)c3)cc2)CC1

>  <score_type>  (24) 
oracle

>  <origin>  (24) 
adg

>  <m_score__min__energy>  (24) 
-9.4100000000000001

>  <m_primary>  (24) 
energy

$$$$
24:0
     RDKit          3D

 41 44  0  0  0  0  0  0  0  0999 V2000
   61.4620   30.7990   47.7320 O   0  0  0  0  0  0  0  0  0  0  0  0
   60.4710   30.4560   47.0340 C   0  0  0  0  0  0  0  0  0  0  0  0
   60.3100   29.0200   46.6520 C   0  0  0  0  0  0  0  0  0  0  0  0
   58.8270   28.6460   46.6500 C   0  0  0  0  0  0  0  0  0  0  0  0
   58.0200   29.6080   45.8030 C   0  0  0  0  0  0  0  0  0  0  0  0
   56.8660   29.1810   45.1020 C   0  0  0  0  0  0  0  0  0  0  0  0
   56.3320   27.8980   45.2440 O   0  0  0  0  0  0  0  0  0  0  0  0
   56.2150   30.0650   44.2420 C   0  0  0  0  0  0  0  0  0  0  0  0
   56.6790   31.3660   44.0800 C   0  0  0  0  0  0  0  0  0  0  0  0
   57.7730   31.8280   44.8140 C   0  0  0  0  0  0  0  0  0  0  0  0
   58.3520   33.4460   44.4410 Cl  0  0  0  0  0  0  0  0  0  0  0  0
   58.4200   30.9690   45.7380 C   0  0  0  0  0  0  0  0  0  0  0  0
   59.4970   31.4270   46.5990 N   0  0  0  0  0  0  0  0  0  0  0  0
   59.3690   32.6830   47.3620 C   0  0  0  0  0  0  0  0  0  0  0  0
   60.3130   33.7690   46.8230 C   0  0  0  0  0  0  0  0  0  0  0  0
   61.7250   33.5140   47.2660 C   0  0  0  0  0  0  0  0  0  0  0  0
   62.8080   33.3530   46.4070 C   0  0  0  0  0  0  0  0  0  0  0  0
   63.9530   33.2150   47.1080 N   0  0  0  0  0  0  0  0  0  0  0  0
   63.6090   33.2970   48.4040 C   0  0  0  0  0  0  0  0  0  0  0  0
   64.4710   33.2240   49.4960 C   0  0  0  0  0  0  0  0  0  0  0  0
   63.9210   33.3470   50.7800 C   0  0  0  0  0  0  0  0  0  0  0  0
   62.5340   33.5400   50.9460 C   0  0  0  0  0  0  0  0  0  0  0  0
   61.6780   33.6130   49.8310 C   0  0  0  0  0  0  0  0  0  0  0  0
   59.9590   33.8460   50.1000 Cl  0  0  0  0  0  0  0  0  0  0  0  0
   62.2530   33.4860   48.5540 C   0  0  0  0  0  0  0  0  0  0  0  0
   60.7279   28.8607   45.6470 H   0  0  0  0  0  0  0  0  0  0  0  0
   60.8420   28.3894   47.3796 H   0  0  0  0  0  0  0  0  0  0  0  0
   58.7139   27.6296   46.2448 H   0  0  0  0  0  0  0  0  0  0  0  0
   58.4542   28.6954   47.6837 H   0  0  0  0  0  0  0  0  0  0  0  0
   56.3180   27.2130   44.5010 H   0  0  0  0  0  0  0  0  0  0  0  0
   55.3264   29.7302   43.6867 H   0  0  0  0  0  0  0  0  0  0  0  0
   56.1791   32.0376   43.3665 H   0  0  0  0  0  0  0  0  0  0  0  0
   58.3319   33.0421   47.2877 H   0  0  0  0  0  0  0  0  0  0  0  0
   59.6394   32.4796   48.4087 H   0  0  0  0  0  0  0  0  0  0  0  0
   60.2739   33.7680   45.7237 H   0  0  0  0  0  0  0  0  0  0  0  0
   59.9902   34.7444   47.2160 H   0  0  0  0  0  0  0  0  0  0  0  0
   62.7402   33.3400   45.3092 H   0  0  0  0  0  0  0  0  0  0  0  0
   64.9110   33.0840   46.7160 H   0  0  0  0  0  0  0  0  0  0  0  0
   65.5516   33.0742   49.3551 H   0  0  0  0  0  0  0  0  0  0  0  0
   64.5751   33.2926   51.6627 H   0  0  0  0  0  0  0  0  0  0  0  0
   62.1160   33.6346   51.9591 H   0  0  0  0  0  0  0  0  0  0  0  0
  1  2  2  0
  2  3  1  0
  3  4  1  0
  4  5  1  0
  5  6  2  0
  6  7  1  0
  6  8  1  0
  8  9  2  0
  9 10  1  0
 10 11  1  0
 10 12  2  0
 12 13  1  0
 13 14  1  0
 14 15  1  0
 15 16  1  0
 16 17  2  0
 17 18  1  0
 18 19  1  0
 19 20  2  0
 20 21  1  0
 21 22  2  0
 22 23  1  0
 23 24  1  0
 23 25  2  0
 13  2  1  0
 25 16  1  0
 12  5  1  0
 25 19  1  0
  3 26  1  0
  3 27  1  0
  4 28  1  0
  4 29  1  0
  7 30  1  0
  8 31  1  0
  9 32  1  0
 14 33  1  0
 14 34  1  0
 15 35  1  0
 15 36  1  0
 17 37  1  0
 18 38  1  0
 20 39  1  0
 21 40  1  0
 22 41  1  0
M  END
>  <UniqueID>  (25) 
24

>  <SMILES>  (25) 
O=C1CCc2c(O)ccc(Cl)c2N1CCc1c[nH]c2cccc(Cl)c12

>  <Energy>  (25) 
88.70194593302271

>  <Genealogy>  (25) 
O=C1CCc2c(O)ccc(Cl)c2N1CCc1c[nH]c2cccc(Cl)c12 (3D coordinates assigned)
O=C1CCc2c(O)ccc(Cl)c2N1CCc1c[nH]c2cccc(Cl)c12 (nonaromatic ring conformer: 88.70194593302271 kcal/mol)

>  <smiles>  (25) 
O=C1CCc2c(O)ccc(Cl)c2N1CCc1c[nH]c2cccc(Cl)c12

>  <score_type>  (25) 
oracle

>  <origin>  (25) 
adg

>  <m_score__min__energy>  (25) 
-9.1500000000000004

>  <m_primary>  (25) 
energy

$$$$
25:0
     RDKit          3D

 34 35  0  0  0  0  0  0  0  0999 V2000
   58.9250   34.9400   47.1740 C   0  0  0  0  0  0  0  0  0  0  0  0
   59.5170   33.7400   46.5810 N   0  0  0  0  0  0  0  0  0  0  0  0
   58.7840   32.9800   45.6000 C   0  0  0  0  0  0  0  0  0  0  0  0
   58.6220   33.4670   44.2910 C   0  0  0  0  0  0  0  0  0  0  0  0
   57.9260   32.7190   43.3380 C   0  0  0  0  0  0  0  0  0  0  0  0
   57.4010   31.4680   43.6750 C   0  0  0  0  0  0  0  0  0  0  0  0
   57.5780   30.9520   44.9620 C   0  0  0  0  0  0  0  0  0  0  0  0
   57.0270   29.6650   45.2780 N   0  0  0  0  0  0  0  0  0  0  0  0
   57.7240   28.5690   45.8850 C   0  0  0  0  0  0  0  0  0  0  0  0
   58.9110   28.7500   46.2680 O   0  0  0  0  0  0  0  0  0  0  0  0
   57.0670   27.2650   46.1310 C   0  0  0  0  0  0  0  0  0  0  0  0
   57.7600   26.2140   46.7480 C   0  0  0  0  0  0  0  0  0  0  0  0
   57.0950   25.0040   46.9530 C   0  0  0  0  0  0  0  0  0  0  0  0
   57.6910   24.0370   47.4960 O   0  0  0  0  0  0  0  0  0  0  0  0
   55.8020   24.8660   46.5620 N   0  0  0  0  0  0  0  0  0  0  0  0
   55.1390   25.8950   45.9740 C   0  0  0  0  0  0  0  0  0  0  0  0
   53.9410   25.7500   45.6200 O   0  0  0  0  0  0  0  0  0  0  0  0
   55.7680   27.0810   45.7680 N   0  0  0  0  0  0  0  0  0  0  0  0
   58.2440   31.7250   45.9300 C   0  0  0  0  0  0  0  0  0  0  0  0
   61.0890   33.2230   47.1210 S   0  0  0  0  0  0  0  0  0  0  0  0
   61.3390   33.7250   48.8100 C   0  0  0  0  0  0  0  0  0  0  0  0
   61.2050   31.7280   47.0180 O   0  0  0  0  0  0  0  0  0  0  0  0
   62.1450   33.8470   46.2520 O   0  0  0  0  0  0  0  0  0  0  0  0
   58.9626   34.8638   48.2707 H   0  0  0  0  0  0  0  0  0  0  0  0
   59.4892   35.8264   46.8485 H   0  0  0  0  0  0  0  0  0  0  0  0
   57.8783   35.0317   46.8485 H   0  0  0  0  0  0  0  0  0  0  0  0
   59.0462   34.4437   44.0153 H   0  0  0  0  0  0  0  0  0  0  0  0
   57.7909   33.1152   42.3208 H   0  0  0  0  0  0  0  0  0  0  0  0
   56.8460   30.8869   42.9238 H   0  0  0  0  0  0  0  0  0  0  0  0
   58.8060   26.3403   47.0640 H   0  0  0  0  0  0  0  0  0  0  0  0
   58.3434   31.3431   46.9568 H   0  0  0  0  0  0  0  0  0  0  0  0
   60.9517   32.9474   49.4848 H   0  0  0  0  0  0  0  0  0  0  0  0
   62.4139   33.8686   48.9946 H   0  0  0  0  0  0  0  0  0  0  0  0
   60.8059   34.6693   48.9946 H   0  0  0  0  0  0  0  0  0  0  0  0
  1  2  1  0
  2  3  1  0
  3  4  2  0
  4  5  1  0
  5  6  2  0
  6  7  1  0
  7  8  1  0
  8  9  1  0
  9 10  2  0
  9 11  1  0
 11 12  2  0
 12 13  1  0
 13 14  2  0
 13 15  1  0
 15 16  1  0
 16 17  2  0
 16 18  1  0
  7 19  2  0
  2 20  1  0
 20 21  1  0
 20 22  2  0
 20 23  2  0
 19  3  1  0
 18 11  1  0
  1 24  1  0
  1 25  1  0
  1 26  1  0
  4 27  1  0
  5 28  1  0
  6 29  1  0
 12 30  1  0
 19 31  1  0
 21 32  1  0
 21 33  1  0
 21 34  1  0
M  CHG  3   8  -1  15  -1  18  -1
M  END
>  <UniqueID>  (26) 
25

>  <SMILES>  (26) 
CN(c1cccc([N-]C(=O)c2cc(=O)[n-]c(=O)[n-]2)c1)S(C)(=O)=O

>  <Energy>  (26) 
40.34972505723069

>  <Genealogy>  (26) 
CN(c1cccc([N-]C(=O)c2cc(=O)[n-]c(=O)[n-]2)c1)S(C)(=O)=O (protonated)
CN(c1cccc([N-]C(=O)c2cc(=O)[n-]c(=O)[n-]2)c1)S(C)(=O)=O (3D coordinates assigned)
CN(c1cccc([N-]C(=O)c2cc(=O)[n-]c(=O)[n-]2)c1)S(C)(=O)=O (optimized conformer: 40.34972505723069 kcal/mol)

>  <smiles>  (26) 
CN(c1cccc(NC(=O)c2cc(=O)[nH]c(=O)[nH]2)c1)S(C)(=O)=O

>  <score_type>  (26) 
oracle

>  <origin>  (26) 
adg

>  <m_score__min__energy>  (26) 
-13.359999999999999

>  <m_primary>  (26) 
energy

$$$$
26:0
     RDKit          3D

 64 68  0  0  0  0  0  0  0  0999 V2000
   60.7652   27.6316   46.5612 H   0  0  0  0  0  0  0  0  0  0  0  0
   59.9990   27.1190   45.9610 C   0  0  0  0  0  0  0  0  0  0  0  0
   59.9586   26.0199   45.9433 H   0  0  0  0  0  0  0  0  0  0  0  0
   59.1130   27.8350   45.2500 C   0  0  0  0  0  0  0  0  0  0  0  0
   58.0820   27.3320   44.4400 C   0  0  0  0  0  0  0  0  0  0  0  0
   57.5770   26.0880   44.3140 C   0  0  0  0  0  0  0  0  0  0  0  0
   57.5839   25.6439   43.3076 H   0  0  0  0  0  0  0  0  0  0  0  0
   57.0170   25.2710   45.4040 C   0  0  0  0  0  0  0  0  0  0  0  0
   57.6020   24.1720   45.9180 N   0  0  0  0  0  0  0  0  0  0  0  0
   56.8090   23.8580   46.9650 C   0  0  0  0  0  0  0  0  0  0  0  0
   57.0210   22.8590   47.6980 O   0  0  0  0  0  0  0  0  0  0  0  0
   55.7780   24.7060   47.1700 N   0  0  0  0  0  0  0  0  0  0  0  0
   55.9370   25.6030   46.1840 C   0  0  0  0  0  0  0  0  0  0  0  0
   55.1150   26.7090   46.0050 O   0  0  0  0  0  0  0  0  0  0  0  0
   57.5750   28.4150   43.7440 C   0  0  0  0  0  0  0  0  0  0  0  0
   56.7826   28.3903   42.9815 H   0  0  0  0  0  0  0  0  0  0  0  0
   58.2520   29.5310   44.1880 C   0  0  0  0  0  0  0  0  0  0  0  0
   57.9250   30.9340   43.7650 C   0  0  0  0  0  0  0  0  0  0  0  0
   57.7788   31.5612   44.6568 H   0  0  0  0  0  0  0  0  0  0  0  0
   58.7530   31.3382   43.1642 H   0  0  0  0  0  0  0  0  0  0  0  0
   57.0036   30.9305   43.1642 H   0  0  0  0  0  0  0  0  0  0  0  0
   59.1800   29.1870   45.1120 N   0  0  0  0  0  0  0  0  0  0  0  0
   60.1100   30.1060   45.7920 C   0  0  0  0  0  0  0  0  0  0  0  0
   61.1135   29.6557   45.8058 H   0  0  0  0  0  0  0  0  0  0  0  0
   60.1205   31.0597   45.2439 H   0  0  0  0  0  0  0  0  0  0  0  0
   59.6710   30.3750   47.2120 C   0  0  0  0  0  0  0  0  0  0  0  0
   59.4090   29.3110   48.0910 C   0  0  0  0  0  0  0  0  0  0  0  0
   59.5057   28.2736   47.7381 H   0  0  0  0  0  0  0  0  0  0  0  0
   59.0260   29.5630   49.4120 C   0  0  0  0  0  0  0  0  0  0  0  0
   58.8276   28.7222   50.0930 H   0  0  0  0  0  0  0  0  0  0  0  0
   58.8930   30.8810   49.8750 C   0  0  0  0  0  0  0  0  0  0  0  0
   58.5270   31.1410   51.2440 N   0  0  0  0  0  0  0  0  0  0  0  0
   58.9760   30.2620   52.3280 C   0  0  0  0  0  0  0  0  0  0  0  0
   59.5818   29.4461   51.9069 H   0  0  0  0  0  0  0  0  0  0  0  0
   59.5771   30.8475   53.0393 H   0  0  0  0  0  0  0  0  0  0  0  0
   57.7670   29.6680   53.0640 C   0  0  0  0  0  0  0  0  0  0  0  0
   57.4180   28.7914   52.4986 H   0  0  0  0  0  0  0  0  0  0  0  0
   58.1117   29.4183   54.0783 H   0  0  0  0  0  0  0  0  0  0  0  0
   56.5610   30.6500   53.2350 C   0  0  0  0  0  0  0  0  0  0  0  0
   55.7820   30.4142   52.4950 H   0  0  0  0  0  0  0  0  0  0  0  0
   55.9510   30.4800   54.5880 N   0  0  0  0  0  0  0  0  0  0  0  0
   54.4670   30.4680   54.5660 C   0  0  0  0  0  0  0  0  0  0  0  0
   54.1009   31.5013   54.4752 H   0  0  0  0  0  0  0  0  0  0  0  0
   54.1357   29.8631   53.7091 H   0  0  0  0  0  0  0  0  0  0  0  0
   53.8980   29.8450   55.8520 C   0  0  0  0  0  0  0  0  0  0  0  0
   54.2545   30.4345   56.7095 H   0  0  0  0  0  0  0  0  0  0  0  0
   52.8023   29.8592   55.7560 H   0  0  0  0  0  0  0  0  0  0  0  0
   54.2770   28.4900   56.0520 O   0  0  0  0  0  0  0  0  0  0  0  0
   55.4870   28.1390   55.3970 C   0  0  0  0  0  0  0  0  0  0  0  0
   55.9537   27.3092   55.9481 H   0  0  0  0  0  0  0  0  0  0  0  0
   55.2282   27.8596   54.3650 H   0  0  0  0  0  0  0  0  0  0  0  0
   56.4970   29.2990   55.3140 C   0  0  0  0  0  0  0  0  0  0  0  0
   56.7661   29.6062   56.3354 H   0  0  0  0  0  0  0  0  0  0  0  0
   57.3739   28.9394   54.7556 H   0  0  0  0  0  0  0  0  0  0  0  0
   57.0180   32.1120   52.9660 C   0  0  0  0  0  0  0  0  0  0  0  0
   56.1502   32.7822   53.0545 H   0  0  0  0  0  0  0  0  0  0  0  0
   57.7885   32.3797   53.7040 H   0  0  0  0  0  0  0  0  0  0  0  0
   57.6190   32.2510   51.5580 C   0  0  0  0  0  0  0  0  0  0  0  0
   56.8023   32.2630   50.8212 H   0  0  0  0  0  0  0  0  0  0  0  0
   58.1958   33.1870   51.5219 H   0  0  0  0  0  0  0  0  0  0  0  0
   59.1610   31.9450   48.9980 C   0  0  0  0  0  0  0  0  0  0  0  0
   59.0621   32.9823   49.3504 H   0  0  0  0  0  0  0  0  0  0  0  0
   59.5530   31.6930   47.6790 C   0  0  0  0  0  0  0  0  0  0  0  0
   59.7702   32.5335   47.0035 H   0  0  0  0  0  0  0  0  0  0  0  0
  1  2  1  0
  2  3  1  0
  2  4  2  0
  4  5  1  0
  5  6  2  0
  6  7  1  0
  6  8  1  0
  8  9  1  0
  9 10  1  0
 10 11  2  0
 10 12  1  0
 12 13  1  0
 13 14  1  0
  5 15  1  0
 15 16  1  0
 15 17  2  0
 17 18  1  0
 18 19  1  0
 18 20  1  0
 18 21  1  0
 17 22  1  0
 22 23  1  0
 23 24  1  0
 23 25  1  0
 23 26  1  0
 26 27  2  0
 27 28  1  0
 27 29  1  0
 29 30  1  0
 29 31  2  0
 31 32  1  0
 32 33  1  0
 33 34  1  0
 33 35  1  0
 33 36  1  0
 36 37  1  0
 36 38  1  0
 36 39  1  0
 39 40  1  0
 39 41  1  0
 41 42  1  0
 42 43  1  0
 42 44  1  0
 42 45  1  0
 45 46  1  0
 45 47  1  0
 45 48  1  0
 48 49  1  0
 49 50  1  0
 49 51  1  0
 49 52  1  0
 52 53  1  0
 52 54  1  0
 39 55  1  0
 55 56  1  0
 55 57  1  0
 55 58  1  0
 58 59  1  0
 58 60  1  0
 31 61  1  0
 61 62  1  0
 61 63  2  0
 63 64  1  0
 22  4  1  0
 63 26  1  0
 13  8  2  0
 58 32  1  0
 52 41  1  0
M  CHG  3   9  -1  12  -1  14  -1
M  END
>  <UniqueID>  (27) 
26

>  <SMILES>  (27) 
C=c1/c(=C\c2[n-]c(=O)[n-]c2[O-])cc(C)n1Cc1ccc(N2CCC(N3CCOCC3)CC2)cc1

>  <Energy>  (27) 
161.81811050227319

>  <Genealogy>  (27) 
C=c1c(=Cc2[n-]c(=O)[n-]c2[O-])cc(C)n1Cc1ccc(N2CCC(N3CCOCC3)CC2)cc1 (protonated)
C=c1/c(=C\c2[n-]c(=O)[n-]c2[O-])cc(C)n1Cc1ccc(N2CCC(N3CCOCC3)CC2)cc1 (cis-trans isomerization)
C=c1/c(=C\c2[n-]c(=O)[n-]c2[O-])cc(C)n1Cc1ccc(N2CCC(N3CCOCC3)CC2)cc1 (3D coordinates assigned)
C=c1/c(=C\c2[n-]c(=O)[n-]c2[O-])cc(C)n1Cc1ccc(N2CCC(N3CCOCC3)CC2)cc1 (nonaromatic ring conformer: 161.81811050227319 kcal/mol)

>  <smiles>  (27) 
C=c1c(=Cc2[nH]c(=O)[nH]c2O)cc(C)n1Cc1ccc(N2CCC(N3CCOCC3)CC2)cc1

>  <score_type>  (27) 
oracle

>  <origin>  (27) 
adg

>  <m_score__min__energy>  (27) 
-16.699999999999999

>  <m_primary>  (27) 
energy

$$$$
27:0
     RDKit          3D

 28 29  0  0  0  0  0  0  0  0999 V2000
   55.1570   26.3130   46.0180 O   0  0  0  0  0  0  0  0  0  0  0  0
   56.2160   25.6400   45.8840 C   0  0  0  0  0  0  0  0  0  0  0  0
   57.3850   26.0300   46.5490 O   0  0  0  0  0  0  0  0  0  0  0  0
   58.3210   26.9610   46.0120 C   0  0  0  0  0  0  0  0  0  0  0  0
   57.8460   28.3690   46.2270 C   0  0  0  0  0  0  0  0  0  0  0  0
   58.1140   28.9490   47.3140 O   0  0  0  0  0  0  0  0  0  0  0  0
   57.0840   29.0890   45.1880 C   0  0  0  0  0  0  0  0  0  0  0  0
   57.5790   30.0680   44.3430 C   0  0  0  0  0  0  0  0  0  0  0  0
   56.5220   30.4620   43.5470 C   0  0  0  0  0  0  0  0  0  0  0  0
   55.4320   29.7110   43.9370 C   0  0  0  0  0  0  0  0  0  0  0  0
   55.7790   28.8770   44.9350 N   0  0  0  0  0  0  0  0  0  0  0  0
   56.2270   24.4370   45.0240 C   0  0  0  0  0  0  0  0  0  0  0  0
   55.8830   23.1780   45.5390 C   0  0  0  0  0  0  0  0  0  0  0  0
   55.9030   22.0530   44.7130 C   0  0  0  0  0  0  0  0  0  0  0  0
   56.2660   22.1940   43.3720 C   0  0  0  0  0  0  0  0  0  0  0  0
   56.2870   21.1850   42.6180 O   0  0  0  0  0  0  0  0  0  0  0  0
   56.5980   23.4200   42.8810 N   0  0  0  0  0  0  0  0  0  0  0  0
   56.5870   24.5310   43.6690 C   0  0  0  0  0  0  0  0  0  0  0  0
   59.2920   26.8265   46.5111 H   0  0  0  0  0  0  0  0  0  0  0  0
   58.4213   26.7809   44.9315 H   0  0  0  0  0  0  0  0  0  0  0  0
   58.6084   30.4545   44.3121 H   0  0  0  0  0  0  0  0  0  0  0  0
   56.5444   31.2259   42.7559 H   0  0  0  0  0  0  0  0  0  0  0  0
   54.4266   29.7833   43.4967 H   0  0  0  0  0  0  0  0  0  0  0  0
   55.1460   28.2000   45.4180 H   0  0  0  0  0  0  0  0  0  0  0  0
   55.5968   23.0773   46.5963 H   0  0  0  0  0  0  0  0  0  0  0  0
   55.6353   21.0646   45.1147 H   0  0  0  0  0  0  0  0  0  0  0  0
   56.8710   23.5170   41.8760 H   0  0  0  0  0  0  0  0  0  0  0  0
   56.8614   25.5070   43.2423 H   0  0  0  0  0  0  0  0  0  0  0  0
  1  2  2  0
  2  3  1  0
  3  4  1  0
  4  5  1  0
  5  6  2  0
  5  7  1  0
  7  8  2  0
  8  9  1  0
  9 10  2  0
 10 11  1  0
  2 12  1  0
 12 13  1  0
 13 14  2  0
 14 15  1  0
 15 16  2  0
 15 17  1  0
 17 18  1  0
 11  7  1  0
 18 12  2  0
  4 19  1  0
  4 20  1  0
  8 21  1  0
  9 22  1  0
 10 23  1  0
 11 24  1  0
 13 25  1  0
 14 26  1  0
 17 27  1  0
 18 28  1  0
M  END
>  <UniqueID>  (28) 
27

>  <SMILES>  (28) 
O=C(OCC(=O)c1ccc[nH]1)c1ccc(=O)[nH]c1

>  <Energy>  (28) 
51.31698053340239

>  <Genealogy>  (28) 
O=C(OCC(=O)c1ccc[nH]1)c1ccc(=O)[nH]c1 (3D coordinates assigned)
O=C(OCC(=O)c1ccc[nH]1)c1ccc(=O)[nH]c1 (optimized conformer: 51.31698053340239 kcal/mol)

>  <smiles>  (28) 
O=C(OCC(=O)c1ccc[nH]1)c1ccc(=O)[nH]c1

>  <score_type>  (28) 
oracle

>  <origin>  (28) 
adg

>  <m_score__min__energy>  (28) 
-6.7400000000000002

>  <m_primary>  (28) 
energy

$$$$
28:0
     RDKit          3D

 60 63  0  0  0  0  0  0  0  0999 V2000
   51.9250   24.1480   44.8720 C   0  0  0  0  0  0  0  0  0  0  0  0
   52.7090   23.2040   45.7450 C   0  0  0  0  0  0  0  0  0  0  0  0
   52.1670   21.9390   46.0320 C   0  0  0  0  0  0  0  0  0  0  0  0
   52.8340   21.0580   46.8860 C   0  0  0  0  0  0  0  0  0  0  0  0
   54.0490   21.4290   47.4630 C   0  0  0  0  0  0  0  0  0  0  0  0
   54.6130   22.6720   47.1680 C   0  0  0  0  0  0  0  0  0  0  0  0
   53.9720   23.5530   46.2860 C   0  0  0  0  0  0  0  0  0  0  0  0
   54.6060   24.8050   45.9970 N   0  0  0  0  0  0  0  0  0  0  0  0
   55.9510   25.1330   46.3670 C   0  0  0  0  0  0  0  0  0  0  0  0
   56.4000   24.7620   47.4860 O   0  0  0  0  0  0  0  0  0  0  0  0
   56.7780   25.9760   45.4700 C   0  0  0  0  0  0  0  0  0  0  0  0
   57.0510   27.3010   45.8600 C   0  0  0  0  0  0  0  0  0  0  0  0
   57.8800   28.1320   45.0890 C   0  0  0  0  0  0  0  0  0  0  0  0
   58.1740   29.5150   45.5410 C   0  0  0  0  0  0  0  0  0  0  0  0
   58.2350   29.7600   46.7780 O   0  0  0  0  0  0  0  0  0  0  0  0
   58.4470   30.5590   44.5920 N   0  0  0  0  0  0  0  0  0  0  0  0
   58.5280   31.9500   44.9470 C   0  0  0  0  0  0  0  0  0  0  0  0
   57.8690   32.9340   44.1890 C   0  0  0  0  0  0  0  0  0  0  0  0
   57.9520   34.2800   44.5570 C   0  0  0  0  0  0  0  0  0  0  0  0
   58.6940   34.6550   45.6800 C   0  0  0  0  0  0  0  0  0  0  0  0
   59.3720   33.6870   46.4410 C   0  0  0  0  0  0  0  0  0  0  0  0
   60.1580   34.0870   47.6290 C   0  0  0  0  0  0  0  0  0  0  0  0
   59.6210   34.8140   48.5110 O   0  0  0  0  0  0  0  0  0  0  0  0
   61.5170   33.6420   47.8020 N   0  0  0  0  0  0  0  0  0  0  0  0
   62.4930   33.8470   46.7260 C   0  0  0  0  0  0  0  0  0  0  0  0
   63.6080   32.8020   46.8420 C   0  0  0  0  0  0  0  0  0  0  0  0
   64.1710   32.8130   48.1410 O   0  0  0  0  0  0  0  0  0  0  0  0
   63.2000   32.4080   49.0890 C   0  0  0  0  0  0  0  0  0  0  0  0
   62.0410   33.4110   49.1500 C   0  0  0  0  0  0  0  0  0  0  0  0
   59.3050   32.3370   46.0520 C   0  0  0  0  0  0  0  0  0  0  0  0
   58.4170   27.6340   43.8940 C   0  0  0  0  0  0  0  0  0  0  0  0
   58.1370   26.3320   43.4790 C   0  0  0  0  0  0  0  0  0  0  0  0
   57.3090   25.4950   44.2450 C   0  0  0  0  0  0  0  0  0  0  0  0
   57.0090   24.1080   43.7330 C   0  0  0  0  0  0  0  0  0  0  0  0
   51.3500   24.8403   45.5045 H   0  0  0  0  0  0  0  0  0  0  0  0
   52.6171   24.7204   44.2369 H   0  0  0  0  0  0  0  0  0  0  0  0
   51.2352   23.5728   44.2369 H   0  0  0  0  0  0  0  0  0  0  0  0
   51.2095   21.6406   45.5801 H   0  0  0  0  0  0  0  0  0  0  0  0
   52.4010   20.0706   47.1040 H   0  0  0  0  0  0  0  0  0  0  0  0
   54.5631   20.7417   48.1510 H   0  0  0  0  0  0  0  0  0  0  0  0
   55.5676   22.9620   47.6313 H   0  0  0  0  0  0  0  0  0  0  0  0
   56.6063   27.6929   46.7866 H   0  0  0  0  0  0  0  0  0  0  0  0
   58.7570   30.2850   43.6310 H   0  0  0  0  0  0  0  0  0  0  0  0
   57.2857   32.6434   43.3028 H   0  0  0  0  0  0  0  0  0  0  0  0
   57.4324   35.0451   43.9616 H   0  0  0  0  0  0  0  0  0  0  0  0
   58.7479   35.7146   45.9704 H   0  0  0  0  0  0  0  0  0  0  0  0
   61.9924   33.7426   45.7521 H   0  0  0  0  0  0  0  0  0  0  0  0
   62.9250   34.8551   46.8099 H   0  0  0  0  0  0  0  0  0  0  0  0
   63.1910   31.8048   46.6376 H   0  0  0  0  0  0  0  0  0  0  0  0
   64.3958   33.0430   46.1131 H   0  0  0  0  0  0  0  0  0  0  0  0
   62.8073   31.4212   48.8028 H   0  0  0  0  0  0  0  0  0  0  0  0
   63.6754   32.3604   50.0798 H   0  0  0  0  0  0  0  0  0  0  0  0
   61.2416   33.0077   49.7890 H   0  0  0  0  0  0  0  0  0  0  0  0
   62.4035   34.3618   49.5679 H   0  0  0  0  0  0  0  0  0  0  0  0
   59.8655   31.5779   46.6174 H   0  0  0  0  0  0  0  0  0  0  0  0
   59.0647   28.2753   43.2782 H   0  0  0  0  0  0  0  0  0  0  0  0
   58.5700   25.9561   42.5403 H   0  0  0  0  0  0  0  0  0  0  0  0
   56.8617   23.4269   44.5841 H   0  0  0  0  0  0  0  0  0  0  0  0
   56.0954   24.1328   43.1208 H   0  0  0  0  0  0  0  0  0  0  0  0
   57.8511   23.7530   43.1208 H   0  0  0  0  0  0  0  0  0  0  0  0
  1  2  1  0
  2  3  2  0
  3  4  1  0
  4  5  2  0
  5  6  1  0
  6  7  2  0
  7  8  1  0
  8  9  1  0
  9 10  2  0
  9 11  1  0
 11 12  2  0
 12 13  1  0
 13 14  1  0
 14 15  2  0
 14 16  1  0
 16 17  1  0
 17 18  2  0
 18 19  1  0
 19 20  2  0
 20 21  1  0
 21 22  1  0
 22 23  2  0
 22 24  1  0
 24 25  1  0
 25 26  1  0
 26 27  1  0
 27 28  1  0
 28 29  1  0
 21 30  2  0
 13 31  2  0
 31 32  1  0
 32 33  2  0
 33 34  1  0
  7  2  1  0
 33 11  1  0
 30 17  1  0
 29 24  1  0
  1 35  1  0
  1 36  1  0
  1 37  1  0
  3 38  1  0
  4 39  1  0
  5 40  1  0
  6 41  1  0
 12 42  1  0
 16 43  1  0
 18 44  1  0
 19 45  1  0
 20 46  1  0
 25 47  1  0
 25 48  1  0
 26 49  1  0
 26 50  1  0
 28 51  1  0
 28 52  1  0
 29 53  1  0
 29 54  1  0
 30 55  1  0
 31 56  1  0
 32 57  1  0
 34 58  1  0
 34 59  1  0
 34 60  1  0
M  CHG  1   8  -1
M  END
>  <UniqueID>  (29) 
28

>  <SMILES>  (29) 
Cc1ccccc1[N-]C(=O)c1cc(C(=O)Nc2cccc(C(=O)N3CCOCC3)c2)ccc1C

>  <Energy>  (29) 
85.89266251845046

>  <Genealogy>  (29) 
Cc1ccccc1[N-]C(=O)c1cc(C(=O)Nc2cccc(C(=O)N3CCOCC3)c2)ccc1C (protonated)
Cc1ccccc1[N-]C(=O)c1cc(C(=O)Nc2cccc(C(=O)N3CCOCC3)c2)ccc1C (3D coordinates assigned)
Cc1ccccc1[N-]C(=O)c1cc(C(=O)Nc2cccc(C(=O)N3CCOCC3)c2)ccc1C (nonaromatic ring conformer: 85.89266251845046 kcal/mol)

>  <smiles>  (29) 
Cc1ccccc1NC(=O)c1cc(C(=O)Nc2cccc(C(=O)N3CCOCC3)c2)ccc1C

>  <score_type>  (29) 
oracle

>  <origin>  (29) 
adg

>  <m_score__min__energy>  (29) 
-11.93

>  <m_primary>  (29) 
energy

$$$$
29:0
     RDKit          3D

 66 69  0  0  0  0  0  0  0  0999 V2000
   58.1680   24.9098   44.8933 H   0  0  0  0  0  0  0  0  0  0  0  0
   57.9390   25.7430   45.5740 C   0  0  0  0  0  0  0  0  0  0  0  0
   58.6730   25.8430   46.8510 C   0  0  0  0  0  0  0  0  0  0  0  0
   58.2200   25.2960   47.8930 O   0  0  0  0  0  0  0  0  0  0  0  0
   59.9080   26.5710   46.9030 N   0  0  0  0  0  0  0  0  0  0  0  0
   60.3140   26.9520   46.0190 H   0  0  0  0  0  0  0  0  0  0  0  0
   60.6070   26.8400   48.1570 C   0  0  0  0  0  0  0  0  0  0  0  0
   61.6903   26.8756   47.9695 H   0  0  0  0  0  0  0  0  0  0  0  0
   60.3782   26.0396   48.8761 H   0  0  0  0  0  0  0  0  0  0  0  0
   60.1570   28.1570   48.7260 C   0  0  0  0  0  0  0  0  0  0  0  0
   60.4450   28.5060   50.0540 C   0  0  0  0  0  0  0  0  0  0  0  0
   61.0252   27.8195   50.6881 H   0  0  0  0  0  0  0  0  0  0  0  0
   60.0090   29.6900   50.5590 N   0  0  0  0  0  0  0  0  0  0  0  0
   59.2840   30.5680   49.8100 C   0  0  0  0  0  0  0  0  0  0  0  0
   58.8460   31.7810   50.3520 O   0  0  0  0  0  0  0  0  0  0  0  0
   59.5840   32.4950   51.3360 C   0  0  0  0  0  0  0  0  0  0  0  0
   59.2586   32.1802   52.3385 H   0  0  0  0  0  0  0  0  0  0  0  0
   60.6566   32.2830   51.2153 H   0  0  0  0  0  0  0  0  0  0  0  0
   59.4076   33.5740   51.2153 H   0  0  0  0  0  0  0  0  0  0  0  0
   58.9680   30.2550   48.4860 C   0  0  0  0  0  0  0  0  0  0  0  0
   58.3811   30.9564   47.8748 H   0  0  0  0  0  0  0  0  0  0  0  0
   59.4040   29.0430   47.9450 C   0  0  0  0  0  0  0  0  0  0  0  0
   59.1558   28.7843   46.9051 H   0  0  0  0  0  0  0  0  0  0  0  0
   57.0030   26.6330   45.2160 C   0  0  0  0  0  0  0  0  0  0  0  0
   55.9660   26.2793   45.1182 H   0  0  0  0  0  0  0  0  0  0  0  0
   57.2780   28.0670   44.9430 C   0  0  0  0  0  0  0  0  0  0  0  0
   58.5830   28.5850   44.8340 C   0  0  0  0  0  0  0  0  0  0  0  0
   59.4481   27.9151   44.9470 H   0  0  0  0  0  0  0  0  0  0  0  0
   58.7860   29.9460   44.5830 C   0  0  0  0  0  0  0  0  0  0  0  0
   59.8104   30.3383   44.5009 H   0  0  0  0  0  0  0  0  0  0  0  0
   57.6950   30.8150   44.4350 C   0  0  0  0  0  0  0  0  0  0  0  0
   57.9070   32.2560   44.1700 C   0  0  0  0  0  0  0  0  0  0  0  0
   57.7490   32.7020   43.0020 O   0  0  0  0  0  0  0  0  0  0  0  0
   58.3130   33.1540   45.2190 N   0  0  0  0  0  0  0  0  0  0  0  0
   59.2870   34.2120   44.9120 C   0  0  0  0  0  0  0  0  0  0  0  0
   60.1741   33.7567   44.4476 H   0  0  0  0  0  0  0  0  0  0  0  0
   58.8107   34.9303   44.2285 H   0  0  0  0  0  0  0  0  0  0  0  0
   59.7190   34.9670   46.1770 C   0  0  0  0  0  0  0  0  0  0  0  0
   60.6765   35.4749   45.9892 H   0  0  0  0  0  0  0  0  0  0  0  0
   58.9487   35.7081   46.4364 H   0  0  0  0  0  0  0  0  0  0  0  0
   59.8860   33.9800   47.3470 C   0  0  0  0  0  0  0  0  0  0  0  0
   60.5785   33.1958   47.0071 H   0  0  0  0  0  0  0  0  0  0  0  0
   60.5700   34.6170   48.5820 C   0  0  0  0  0  0  0  0  0  0  0  0
   60.6899   35.6938   48.3919 H   0  0  0  0  0  0  0  0  0  0  0  0
   59.9221   34.4040   49.4450 H   0  0  0  0  0  0  0  0  0  0  0  0
   61.9290   34.0400   48.9090 C   0  0  0  0  0  0  0  0  0  0  0  0
   62.4270   34.0960   50.2230 C   0  0  0  0  0  0  0  0  0  0  0  0
   61.8242   34.5600   51.0176 H   0  0  0  0  0  0  0  0  0  0  0  0
   63.6840   33.5650   50.5240 C   0  0  0  0  0  0  0  0  0  0  0  0
   64.0647   33.6062   51.5552 H   0  0  0  0  0  0  0  0  0  0  0  0
   64.4580   32.9820   49.5180 C   0  0  0  0  0  0  0  0  0  0  0  0
   65.4449   32.5599   49.7584 H   0  0  0  0  0  0  0  0  0  0  0  0
   63.9790   32.9350   48.2070 C   0  0  0  0  0  0  0  0  0  0  0  0
   64.5912   32.4797   47.4146 H   0  0  0  0  0  0  0  0  0  0  0  0
   62.7220   33.4660   47.9000 C   0  0  0  0  0  0  0  0  0  0  0  0
   62.3523   33.4343   46.8645 H   0  0  0  0  0  0  0  0  0  0  0  0
   58.5460   33.2810   47.6930 C   0  0  0  0  0  0  0  0  0  0  0  0
   58.7649   32.2641   48.0507 H   0  0  0  0  0  0  0  0  0  0  0  0
   58.0484   33.8923   48.4603 H   0  0  0  0  0  0  0  0  0  0  0  0
   57.5830   33.1810   46.4940 C   0  0  0  0  0  0  0  0  0  0  0  0
   56.9910   32.2585   46.5867 H   0  0  0  0  0  0  0  0  0  0  0  0
   56.9306   34.0666   46.5000 H   0  0  0  0  0  0  0  0  0  0  0  0
   56.3940   30.2930   44.5080 C   0  0  0  0  0  0  0  0  0  0  0  0
   55.5298   30.9585   44.3657 H   0  0  0  0  0  0  0  0  0  0  0  0
   56.1890   28.9350   44.7600 C   0  0  0  0  0  0  0  0  0  0  0  0
   55.1636   28.5407   44.8158 H   0  0  0  0  0  0  0  0  0  0  0  0
  1  2  1  0
  2  3  1  0
  3  4  2  0
  3  5  1  0
  5  6  1  0
  5  7  1  0
  7  8  1  0
  7  9  1  0
  7 10  1  0
 10 11  2  0
 11 12  1  0
 11 13  1  0
 13 14  2  0
 14 15  1  0
 15 16  1  0
 16 17  1  0
 16 18  1  0
 16 19  1  0
 14 20  1  0
 20 21  1  0
 20 22  2  0
 22 23  1  0
  2 24  2  0
 24 25  1  0
 24 26  1  0
 26 27  2  0
 27 28  1  0
 27 29  1  0
 29 30  1  0
 29 31  2  0
 31 32  1  0
 32 33  2  0
 32 34  1  0
 34 35  1  0
 35 36  1  0
 35 37  1  0
 35 38  1  0
 38 39  1  0
 38 40  1  0
 38 41  1  0
 41 42  1  0
 41 43  1  0
 43 44  1  0
 43 45  1  0
 43 46  1  0
 46 47  2  0
 47 48  1  0
 47 49  1  0
 49 50  1  0
 49 51  2  0
 51 52  1  0
 51 53  1  0
 53 54  1  0
 53 55  2  0
 55 56  1  0
 41 57  1  0
 57 58  1  0
 57 59  1  0
 57 60  1  0
 60 61  1  0
 60 62  1  0
 31 63  1  0
 63 64  1  0
 63 65  2  0
 65 66  1  0
 22 10  1  0
 65 26  1  0
 60 34  1  0
 55 46  1  0
M  END
>  <UniqueID>  (30) 
29

>  <SMILES>  (30) 
COc1ccc(CNC(=O)/C=C/c2ccc(C(=O)N3CCC(Cc4ccccc4)CC3)cc2)cn1

>  <Energy>  (30) 
72.90882626885652

>  <Genealogy>  (30) 
COc1ccc(CNC(=O)/C=C/c2ccc(C(=O)N3CCC(Cc4ccccc4)CC3)cc2)cn1 (cis-trans isomerization)
COc1ccc(CNC(=O)/C=C/c2ccc(C(=O)N3CCC(Cc4ccccc4)CC3)cc2)cn1 (3D coordinates assigned)
COc1ccc(CNC(=O)/C=C/c2ccc(C(=O)N3CCC(Cc4ccccc4)CC3)cc2)cn1 (nonaromatic ring conformer: 72.90882626885652 kcal/mol)

>  <smiles>  (30) 
COc1ccc(CNC(=O)C=Cc2ccc(C(=O)N3CCC(Cc4ccccc4)CC3)cc2)cn1

>  <score_type>  (30) 
oracle

>  <origin>  (30) 
adg

>  <m_score__min__energy>  (30) 
-9.2799999999999994

>  <m_primary>  (30) 
energy

$$$$
30:0
     RDKit          3D

 66 70  0  0  0  0  0  0  0  0999 V2000
   57.0124   32.6376   52.8156 H   0  0  0  0  0  0  0  0  0  0  0  0
   56.0670   32.2880   52.3750 C   0  0  0  0  0  0  0  0  0  0  0  0
   55.4729   32.9628   51.7412 H   0  0  0  0  0  0  0  0  0  0  0  0
   55.6380   31.0370   52.6110 C   0  0  0  0  0  0  0  0  0  0  0  0
   54.4580   30.4730   52.1120 C   0  0  0  0  0  0  0  0  0  0  0  0
   53.5190   31.0720   51.3520 C   0  0  0  0  0  0  0  0  0  0  0  0
   53.7495   31.2509   50.2914 H   0  0  0  0  0  0  0  0  0  0  0  0
   52.2010   31.5020   51.8570 C   0  0  0  0  0  0  0  0  0  0  0  0
   51.7880   31.2890   53.1180 N   0  0  0  0  0  0  0  0  0  0  0  0
   50.6170   31.9600   53.1810 C   0  0  0  0  0  0  0  0  0  0  0  0
   49.9130   31.9950   54.2220 O   0  0  0  0  0  0  0  0  0  0  0  0
   50.2780   32.6140   52.0500 N   0  0  0  0  0  0  0  0  0  0  0  0
   51.2940   32.3240   51.2250 C   0  0  0  0  0  0  0  0  0  0  0  0
   51.4150   32.8430   49.9440 O   0  0  0  0  0  0  0  0  0  0  0  0
   54.4240   29.1670   52.5710 C   0  0  0  0  0  0  0  0  0  0  0  0
   53.6383   28.4224   52.3756 H   0  0  0  0  0  0  0  0  0  0  0  0
   55.5670   28.9810   53.3210 C   0  0  0  0  0  0  0  0  0  0  0  0
   55.9570   27.6770   53.9490 C   0  0  0  0  0  0  0  0  0  0  0  0
   55.9279   27.7743   55.0443 H   0  0  0  0  0  0  0  0  0  0  0  0
   55.2542   26.8925   53.6318 H   0  0  0  0  0  0  0  0  0  0  0  0
   56.9751   27.4072   53.6318 H   0  0  0  0  0  0  0  0  0  0  0  0
   56.3140   30.1110   53.3440 N   0  0  0  0  0  0  0  0  0  0  0  0
   57.6540   30.2220   53.9490 C   0  0  0  0  0  0  0  0  0  0  0  0
   57.9385   31.2829   54.0086 H   0  0  0  0  0  0  0  0  0  0  0  0
   57.6294   29.7814   54.9566 H   0  0  0  0  0  0  0  0  0  0  0  0
   58.6680   29.4810   53.1140 C   0  0  0  0  0  0  0  0  0  0  0  0
   58.9330   28.1220   53.3530 C   0  0  0  0  0  0  0  0  0  0  0  0
   58.4543   27.6117   54.2018 H   0  0  0  0  0  0  0  0  0  0  0  0
   59.8020   27.4160   52.5170 C   0  0  0  0  0  0  0  0  0  0  0  0
   60.0123   26.3546   52.7151 H   0  0  0  0  0  0  0  0  0  0  0  0
   60.4040   28.0540   51.4310 C   0  0  0  0  0  0  0  0  0  0  0  0
   61.0678   27.4881   50.7608 H   0  0  0  0  0  0  0  0  0  0  0  0
   60.1640   29.4150   51.1930 C   0  0  0  0  0  0  0  0  0  0  0  0
   60.7510   30.0830   50.0180 C   0  0  0  0  0  0  0  0  0  0  0  0
   61.5920   31.0040   50.2020 O   0  0  0  0  0  0  0  0  0  0  0  0
   60.3470   29.7290   48.6790 N   0  0  0  0  0  0  0  0  0  0  0  0
   59.0000   29.1980   48.4180 C   0  0  0  0  0  0  0  0  0  0  0  0
   59.0593   28.1078   48.2842 H   0  0  0  0  0  0  0  0  0  0  0  0
   58.3491   29.4378   49.2717 H   0  0  0  0  0  0  0  0  0  0  0  0
   58.4140   29.8330   47.1490 C   0  0  0  0  0  0  0  0  0  0  0  0
   58.7118   29.2412   46.2709 H   0  0  0  0  0  0  0  0  0  0  0  0
   57.3165   29.8530   47.2202 H   0  0  0  0  0  0  0  0  0  0  0  0
   58.9280   31.2170   47.0110 N   0  0  0  0  0  0  0  0  0  0  0  0
   58.1120   32.0150   46.0510 C   0  0  0  0  0  0  0  0  0  0  0  0
   57.0652   31.7032   46.1812 H   0  0  0  0  0  0  0  0  0  0  0  0
   58.4990   31.7520   44.5740 C   0  0  0  0  0  0  0  0  0  0  0  0
   59.5810   31.9114   44.4566 H   0  0  0  0  0  0  0  0  0  0  0  0
   58.2206   30.7164   44.3289 H   0  0  0  0  0  0  0  0  0  0  0  0
   57.7480   32.6910   43.6030 C   0  0  0  0  0  0  0  0  0  0  0  0
   58.4433   32.9882   42.8041 H   0  0  0  0  0  0  0  0  0  0  0  0
   56.8810   32.1278   43.2272 H   0  0  0  0  0  0  0  0  0  0  0  0
   57.2370   33.8680   44.2080 O   0  0  0  0  0  0  0  0  0  0  0  0
   58.1850   34.4050   45.1030 C   0  0  0  0  0  0  0  0  0  0  0  0
   59.1682   34.4447   44.6112 H   0  0  0  0  0  0  0  0  0  0  0  0
   57.8718   35.4183   45.3947 H   0  0  0  0  0  0  0  0  0  0  0  0
   58.2800   33.5280   46.3570 C   0  0  0  0  0  0  0  0  0  0  0  0
   59.2649   33.6849   46.8211 H   0  0  0  0  0  0  0  0  0  0  0  0
   57.4594   33.8219   47.0280 H   0  0  0  0  0  0  0  0  0  0  0  0
   60.3790   31.1790   46.6800 C   0  0  0  0  0  0  0  0  0  0  0  0
   60.4915   30.9294   45.6146 H   0  0  0  0  0  0  0  0  0  0  0  0
   60.8006   32.1687   46.9098 H   0  0  0  0  0  0  0  0  0  0  0  0
   61.1490   30.1340   47.5180 C   0  0  0  0  0  0  0  0  0  0  0  0
   61.3595   29.2518   46.8955 H   0  0  0  0  0  0  0  0  0  0  0  0
   62.0923   30.5778   47.8689 H   0  0  0  0  0  0  0  0  0  0  0  0
   59.3170   30.1300   52.0530 C   0  0  0  0  0  0  0  0  0  0  0  0
   59.1607   31.2072   51.8942 H   0  0  0  0  0  0  0  0  0  0  0  0
  1  2  1  0
  2  3  1  0
  2  4  2  0
  4  5  1  0
  5  6  2  0
  6  7  1  0
  6  8  1  0
  8  9  1  0
  9 10  1  0
 10 11  2  0
 10 12  1  0
 12 13  1  0
 13 14  1  0
  5 15  1  0
 15 16  1  0
 15 17  2  0
 17 18  1  0
 18 19  1  0
 18 20  1  0
 18 21  1  0
 17 22  1  0
 22 23  1  0
 23 24  1  0
 23 25  1  0
 23 26  1  0
 26 27  2  0
 27 28  1  0
 27 29  1  0
 29 30  1  0
 29 31  2  0
 31 32  1  0
 31 33  1  0
 33 34  1  0
 34 35  2  0
 34 36  1  0
 36 37  1  0
 37 38  1  0
 37 39  1  0
 37 40  1  0
 40 41  1  0
 40 42  1  0
 40 43  1  0
 43 44  1  0
 44 45  1  0
 44 46  1  0
 46 47  1  0
 46 48  1  0
 46 49  1  0
 49 50  1  0
 49 51  1  0
 49 52  1  0
 52 53  1  0
 53 54  1  0
 53 55  1  0
 53 56  1  0
 56 57  1  0
 56 58  1  0
 43 59  1  0
 59 60  1  0
 59 61  1  0
 59 62  1  0
 62 63  1  0
 62 64  1  0
 33 65  2  0
 65 66  1  0
 22  4  1  0
 65 26  1  0
 13  8  2  0
 62 36  1  0
 56 44  1  0
M  CHG  3   9  -1  12  -1  14  -1
M  END
>  <UniqueID>  (31) 
30

>  <SMILES>  (31) 
C=c1/c(=C/c2[n-]c(=O)[n-]c2[O-])cc(C)n1Cc1cccc(C(=O)N2CCN(C3CCOCC3)CC2)c1

>  <Energy>  (31) 
157.85895219174628

>  <Genealogy>  (31) 
C=c1c(=Cc2[n-]c(=O)[n-]c2[O-])cc(C)n1Cc1cccc(C(=O)N2CCN(C3CCOCC3)CC2)c1 (protonated)
C=c1/c(=C/c2[n-]c(=O)[n-]c2[O-])cc(C)n1Cc1cccc(C(=O)N2CCN(C3CCOCC3)CC2)c1 (cis-trans isomerization)
C=c1/c(=C/c2[n-]c(=O)[n-]c2[O-])cc(C)n1Cc1cccc(C(=O)N2CCN(C3CCOCC3)CC2)c1 (3D coordinates assigned)
C=c1/c(=C/c2[n-]c(=O)[n-]c2[O-])cc(C)n1Cc1cccc(C(=O)N2CCN(C3CCOCC3)CC2)c1 (nonaromatic ring conformer: 157.85895219174628 kcal/mol)

>  <smiles>  (31) 
C=c1c(=Cc2[nH]c(=O)[nH]c2O)cc(C)n1Cc1cccc(C(=O)N2CCN(C3CCOCC3)CC2)c1

>  <score_type>  (31) 
oracle

>  <origin>  (31) 
adg

>  <m_score__min__energy>  (31) 
-19.050000000000001

>  <m_primary>  (31) 
energy

$$$$
31:0
     RDKit          3D

 39 40  0  0  0  0  0  0  0  0999 V2000
   58.2667   27.1383   45.6269 H   0  0  0  0  0  0  0  0  0  0  0  0
   57.2250   26.8950   45.8830 C   0  0  0  0  0  0  0  0  0  0  0  0
   56.2760   27.7360   45.6050 N   0  0  0  0  0  0  0  0  0  0  0  0
   56.4780   28.9640   44.8950 C   0  0  0  0  0  0  0  0  0  0  0  0
   55.5820   29.8510   44.8660 O   0  0  0  0  0  0  0  0  0  0  0  0
   57.7480   29.1670   44.1250 C   0  0  0  0  0  0  0  0  0  0  0  0
   58.1517   28.1856   43.8352 H   0  0  0  0  0  0  0  0  0  0  0  0
   57.5207   29.7734   43.2358 H   0  0  0  0  0  0  0  0  0  0  0  0
   58.7970   29.9110   44.9620 C   0  0  0  0  0  0  0  0  0  0  0  0
   58.9532   29.3650   45.9041 H   0  0  0  0  0  0  0  0  0  0  0  0
   59.7267   29.9636   44.3764 H   0  0  0  0  0  0  0  0  0  0  0  0
   58.3630   31.3220   45.2810 C   0  0  0  0  0  0  0  0  0  0  0  0
   58.0640   32.2200   44.2420 C   0  0  0  0  0  0  0  0  0  0  0  0
   58.1253   31.8859   43.1957 H   0  0  0  0  0  0  0  0  0  0  0  0
   57.6890   33.5360   44.5310 C   0  0  0  0  0  0  0  0  0  0  0  0
   57.4570   34.2340   43.7131 H   0  0  0  0  0  0  0  0  0  0  0  0
   57.6090   33.9640   45.8580 C   0  0  0  0  0  0  0  0  0  0  0  0
   57.3015   34.9955   46.0850 H   0  0  0  0  0  0  0  0  0  0  0  0
   57.9190   33.0840   46.8970 C   0  0  0  0  0  0  0  0  0  0  0  0
   57.8634   33.4269   47.9407 H   0  0  0  0  0  0  0  0  0  0  0  0
   58.3000   31.7680   46.6150 C   0  0  0  0  0  0  0  0  0  0  0  0
   58.6060   30.9310   47.6390 F   0  0  0  0  0  0  0  0  0  0  0  0
   56.9110   25.6230   46.5370 C   0  0  0  0  0  0  0  0  0  0  0  0
   57.7870   25.0580   47.2450 O   0  0  0  0  0  0  0  0  0  0  0  0
   55.6190   25.0290   46.3730 N   0  0  0  0  0  0  0  0  0  0  0  0
   55.3760   23.5940   46.4490 C   0  0  0  0  0  0  0  0  0  0  0  0
   55.7133   23.2192   47.4266 H   0  0  0  0  0  0  0  0  0  0  0  0
   54.2994   23.4043   46.3264 H   0  0  0  0  0  0  0  0  0  0  0  0
   56.1280   22.8840   45.3580 C   0  0  0  0  0  0  0  0  0  0  0  0
   55.9700   23.2750   44.0220 C   0  0  0  0  0  0  0  0  0  0  0  0
   55.3182   24.1248   43.7712 H   0  0  0  0  0  0  0  0  0  0  0  0
   56.6390   22.5870   43.0100 C   0  0  0  0  0  0  0  0  0  0  0  0
   56.5218   22.8922   41.9597 H   0  0  0  0  0  0  0  0  0  0  0  0
   57.4590   21.5070   43.3430 C   0  0  0  0  0  0  0  0  0  0  0  0
   57.9912   20.9576   42.5525 H   0  0  0  0  0  0  0  0  0  0  0  0
   57.6010   21.1330   44.6430 N   0  0  0  0  0  0  0  0  0  0  0  0
   58.2140   20.3200   44.8770 H   0  0  0  0  0  0  0  0  0  0  0  0
   56.9590   21.7910   45.6470 C   0  0  0  0  0  0  0  0  0  0  0  0
   57.0922   21.4645   46.6890 H   0  0  0  0  0  0  0  0  0  0  0  0
  1  2  1  0
  2  3  2  0
  3  4  1  0
  4  5  2  0
  4  6  1  0
  6  7  1  0
  6  8  1  0
  6  9  1  0
  9 10  1  0
  9 11  1  0
  9 12  1  0
 12 13  2  0
 13 14  1  0
 13 15  1  0
 15 16  1  0
 15 17  2  0
 17 18  1  0
 17 19  1  0
 19 20  1  0
 19 21  2  0
 21 22  1  0
  2 23  1  0
 23 24  2  0
 23 25  1  0
 25 26  1  0
 26 27  1  0
 26 28  1  0
 26 29  1  0
 29 30  2  0
 30 31  1  0
 30 32  1  0
 32 33  1  0
 32 34  2  0
 34 35  1  0
 34 36  1  0
 36 37  1  0
 36 38  2  0
 38 39  1  0
 21 12  1  0
 38 29  1  0
M  CHG  2  25  -1  36   1
M  END
>  <UniqueID>  (32) 
31

>  <SMILES>  (32) 
O=C(CCc1ccccc1F)/N=C/C(=O)[N-]Cc1ccc[nH+]c1

>  <Energy>  (32) 
28.844032620531994

>  <Genealogy>  (32) 
O=C(CCc1ccccc1F)N=CC(=O)[N-]Cc1ccc[nH+]c1 (protonated)
O=C(CCc1ccccc1F)/N=C/C(=O)[N-]Cc1ccc[nH+]c1 (cis-trans isomerization)
O=C(CCc1ccccc1F)/N=C/C(=O)[N-]Cc1ccc[nH+]c1 (3D coordinates assigned)
O=C(CCc1ccccc1F)/N=C/C(=O)[N-]Cc1ccc[nH+]c1 (optimized conformer: 28.844032620531994 kcal/mol)

>  <smiles>  (32) 
O=C(CCc1ccccc1F)N=CC(=O)NCc1cccnc1

>  <score_type>  (32) 
oracle

>  <origin>  (32) 
adg

>  <m_score__min__energy>  (32) 
-9.0199999999999996

>  <m_primary>  (32) 
energy

$$$$
32:0
     RDKit          3D

 41 42  0  0  0  0  0  0  0  0999 V2000
   59.6830   33.7390   50.4730 C   0  0  0  0  0  0  0  0  0  0  0  0
   59.1670   32.7620   49.4220 C   0  0  0  0  0  0  0  0  0  0  0  0
   59.1140   33.4170   48.0670 C   0  0  0  0  0  0  0  0  0  0  0  0
   60.0710   34.3800   47.7080 C   0  0  0  0  0  0  0  0  0  0  0  0
   60.0330   34.9720   46.4430 C   0  0  0  0  0  0  0  0  0  0  0  0
   59.0500   34.5980   45.5220 C   0  0  0  0  0  0  0  0  0  0  0  0
   58.1020   33.6190   45.8570 C   0  0  0  0  0  0  0  0  0  0  0  0
   57.0270   33.2370   44.8730 C   0  0  0  0  0  0  0  0  0  0  0  0
   57.3440   31.9050   44.1920 C   0  0  0  0  0  0  0  0  0  0  0  0
   56.3040   30.9260   44.4940 N   0  0  0  0  0  0  0  0  0  0  0  0
   56.5540   29.5910   44.9490 C   0  0  0  0  0  0  0  0  0  0  0  0
   55.6180   28.7500   44.9080 O   0  0  0  0  0  0  0  0  0  0  0  0
   57.8720   29.1810   45.4720 C   0  0  0  0  0  0  0  0  0  0  0  0
   58.3630   29.7640   46.6480 C   0  0  0  0  0  0  0  0  0  0  0  0
   59.6130   29.3960   47.1450 C   0  0  0  0  0  0  0  0  0  0  0  0
   60.3710   28.4520   46.4540 C   0  0  0  0  0  0  0  0  0  0  0  0
   59.8940   27.8980   45.3070 N   0  0  0  0  0  0  0  0  0  0  0  0
   58.6740   28.2350   44.8000 C   0  0  0  0  0  0  0  0  0  0  0  0
   58.1140   27.4370   43.2850 S   0  0  0  0  0  0  0  0  0  0  0  0
   57.7480   25.8570   44.1090 C   0  0  0  0  0  0  0  0  0  0  0  0
   58.1360   33.0350   47.1340 C   0  0  0  0  0  0  0  0  0  0  0  0
   59.4733   33.3419   51.4771 H   0  0  0  0  0  0  0  0  0  0  0  0
   60.7682   33.8705   50.3500 H   0  0  0  0  0  0  0  0  0  0  0  0
   59.1798   34.7094   50.3500 H   0  0  0  0  0  0  0  0  0  0  0  0
   59.8390   31.8923   49.3766 H   0  0  0  0  0  0  0  0  0  0  0  0
   58.1514   32.4454   49.7018 H   0  0  0  0  0  0  0  0  0  0  0  0
   60.8533   34.6692   48.4252 H   0  0  0  0  0  0  0  0  0  0  0  0
   60.7782   35.7341   46.1711 H   0  0  0  0  0  0  0  0  0  0  0  0
   59.0195   35.0732   44.5304 H   0  0  0  0  0  0  0  0  0  0  0  0
   56.0689   33.1477   45.4060 H   0  0  0  0  0  0  0  0  0  0  0  0
   56.9714   34.0174   44.0997 H   0  0  0  0  0  0  0  0  0  0  0  0
   57.3960   32.0563   43.1037 H   0  0  0  0  0  0  0  0  0  0  0  0
   58.3090   31.5312   44.5649 H   0  0  0  0  0  0  0  0  0  0  0  0
   57.7605   30.5144   47.1808 H   0  0  0  0  0  0  0  0  0  0  0  0
   59.9968   29.8459   48.0725 H   0  0  0  0  0  0  0  0  0  0  0  0
   61.3580   28.1542   46.8375 H   0  0  0  0  0  0  0  0  0  0  0  0
   60.4830   27.1930   44.8090 H   0  0  0  0  0  0  0  0  0  0  0  0
   57.7802   25.9962   45.1997 H   0  0  0  0  0  0  0  0  0  0  0  0
   56.7462   25.5124   43.8128 H   0  0  0  0  0  0  0  0  0  0  0  0
   58.4962   25.1070   43.8128 H   0  0  0  0  0  0  0  0  0  0  0  0
   57.3910   32.2726   47.4055 H   0  0  0  0  0  0  0  0  0  0  0  0
  1  2  1  0
  2  3  1  0
  3  4  2  0
  4  5  1  0
  5  6  2  0
  6  7  1  0
  7  8  1  0
  8  9  1  0
  9 10  1  0
 10 11  1  0
 11 12  2  0
 11 13  1  0
 13 14  2  0
 14 15  1  0
 15 16  2  0
 16 17  1  0
 17 18  2  0
 18 19  1  0
 19 20  1  0
  7 21  2  0
 21  3  1  0
 18 13  1  0
  1 22  1  0
  1 23  1  0
  1 24  1  0
  2 25  1  0
  2 26  1  0
  4 27  1  0
  5 28  1  0
  6 29  1  0
  8 30  1  0
  8 31  1  0
  9 32  1  0
  9 33  1  0
 14 34  1  0
 15 35  1  0
 16 36  1  0
 17 37  1  0
 20 38  1  0
 20 39  1  0
 20 40  1  0
 21 41  1  0
M  CHG  2  10  -1  17   1
M  END
>  <UniqueID>  (33) 
32

>  <SMILES>  (33) 
CCc1cccc(CC[N-]C(=O)c2ccc[nH+]c2SC)c1

>  <Energy>  (33) 
35.34027321810239

>  <Genealogy>  (33) 
CCc1cccc(CC[N-]C(=O)c2ccc[nH+]c2SC)c1 (protonated)
CCc1cccc(CC[N-]C(=O)c2ccc[nH+]c2SC)c1 (3D coordinates assigned)
CCc1cccc(CC[N-]C(=O)c2ccc[nH+]c2SC)c1 (optimized conformer: 35.34027321810239 kcal/mol)

>  <smiles>  (33) 
CCc1cccc(CCNC(=O)c2cccnc2SC)c1

>  <score_type>  (33) 
oracle

>  <origin>  (33) 
adg

>  <m_score__min__energy>  (33) 
-7.5999999999999996

>  <m_primary>  (33) 
energy

$$$$
33:0
     RDKit          3D

 48 51  0  0  0  0  0  0  0  0999 V2000
   53.6600   25.9790   46.3630 H   0  0  0  0  0  0  0  0  0  0  0  0
   54.3190   25.3380   45.8650 N   0  0  0  0  0  0  0  0  0  0  0  0
   55.5930   25.5530   45.8570 C   0  0  0  0  0  0  0  0  0  0  0  0
   56.0770   26.8190   45.9640 N   0  0  0  0  0  0  0  0  0  0  0  0
   57.4150   27.0750   45.9660 C   0  0  0  0  0  0  0  0  0  0  0  0
   57.8690   28.4810   46.0720 C   0  0  0  0  0  0  0  0  0  0  0  0
   57.1750   29.4440   45.4070 N   0  0  0  0  0  0  0  0  0  0  0  0
   57.5280   30.7550   45.4730 C   0  0  0  0  0  0  0  0  0  0  0  0
   56.8520   31.6620   44.8330 N   0  0  0  0  0  0  0  0  0  0  0  0
   56.6960   33.0400   45.2940 C   0  0  0  0  0  0  0  0  0  0  0  0
   55.7670   33.4611   44.8821 H   0  0  0  0  0  0  0  0  0  0  0  0
   56.6509   33.0552   46.3930 H   0  0  0  0  0  0  0  0  0  0  0  0
   57.8850   33.8740   44.8230 C   0  0  0  0  0  0  0  0  0  0  0  0
   58.3623   33.3727   43.9681 H   0  0  0  0  0  0  0  0  0  0  0  0
   57.5246   34.8702   44.5269 H   0  0  0  0  0  0  0  0  0  0  0  0
   58.8900   34.0310   45.9270 C   0  0  0  0  0  0  0  0  0  0  0  0
   58.4620   34.1330   47.2170 N   0  0  0  0  0  0  0  0  0  0  0  0
   59.3330   34.2450   48.2550 C   0  0  0  0  0  0  0  0  0  0  0  0
   58.9536   34.3333   49.2837 H   0  0  0  0  0  0  0  0  0  0  0  0
   60.7090   34.2480   48.0160 C   0  0  0  0  0  0  0  0  0  0  0  0
   61.4181   34.3408   48.8518 H   0  0  0  0  0  0  0  0  0  0  0  0
   61.1750   34.1320   46.7050 C   0  0  0  0  0  0  0  0  0  0  0  0
   62.2561   34.1297   46.5019 H   0  0  0  0  0  0  0  0  0  0  0  0
   60.2650   34.0190   45.6530 C   0  0  0  0  0  0  0  0  0  0  0  0
   60.6234   33.9214   44.6176 H   0  0  0  0  0  0  0  0  0  0  0  0
   58.6010   31.1260   46.2160 N   0  0  0  0  0  0  0  0  0  0  0  0
   59.3380   30.2110   46.8990 C   0  0  0  0  0  0  0  0  0  0  0  0
   60.4790   30.6670   47.7230 C   0  0  0  0  0  0  0  0  0  0  0  0
   61.6970   30.9440   47.0770 C   0  0  0  0  0  0  0  0  0  0  0  0
   61.7832   30.7978   45.9902 H   0  0  0  0  0  0  0  0  0  0  0  0
   62.7980   31.4030   47.8030 C   0  0  0  0  0  0  0  0  0  0  0  0
   63.7449   31.6189   47.2866 H   0  0  0  0  0  0  0  0  0  0  0  0
   62.6990   31.5880   49.1810 C   0  0  0  0  0  0  0  0  0  0  0  0
   63.5636   31.9630   49.7484 H   0  0  0  0  0  0  0  0  0  0  0  0
   61.5040   31.2980   49.8420 C   0  0  0  0  0  0  0  0  0  0  0  0
   61.4329   31.4492   50.9292 H   0  0  0  0  0  0  0  0  0  0  0  0
   60.3910   30.8150   49.1330 C   0  0  0  0  0  0  0  0  0  0  0  0
   59.1370   30.4770   49.8970 C   0  0  0  0  0  0  0  0  0  0  0  0
   59.3396   30.5316   50.9768 H   0  0  0  0  0  0  0  0  0  0  0  0
   58.3442   31.1935   49.6360 H   0  0  0  0  0  0  0  0  0  0  0  0
   58.8117   29.4591   49.6360 H   0  0  0  0  0  0  0  0  0  0  0  0
   58.9690   28.8600   46.8590 C   0  0  0  0  0  0  0  0  0  0  0  0
   59.5309   28.1092   47.4339 H   0  0  0  0  0  0  0  0  0  0  0  0
   58.3100   26.0000   45.8340 C   0  0  0  0  0  0  0  0  0  0  0  0
   59.3960   26.1738   45.8139 H   0  0  0  0  0  0  0  0  0  0  0  0
   57.7950   24.7090   45.7290 C   0  0  0  0  0  0  0  0  0  0  0  0
   58.4780   23.8518   45.6354 H   0  0  0  0  0  0  0  0  0  0  0  0
   56.4530   24.5070   45.7420 N   0  0  0  0  0  0  0  0  0  0  0  0
  1  2  1  0
  2  3  2  0
  3  4  1  0
  4  5  2  0
  5  6  1  0
  6  7  2  0
  7  8  1  0
  8  9  2  0
  9 10  1  0
 10 11  1  0
 10 12  1  0
 10 13  1  0
 13 14  1  0
 13 15  1  0
 13 16  1  0
 16 17  2  0
 17 18  1  0
 18 19  1  0
 18 20  2  0
 20 21  1  0
 20 22  1  0
 22 23  1  0
 22 24  2  0
 24 25  1  0
  8 26  1  0
 26 27  1  0
 27 28  1  0
 28 29  2  0
 29 30  1  0
 29 31  1  0
 31 32  1  0
 31 33  2  0
 33 34  1  0
 33 35  1  0
 35 36  1  0
 35 37  2  0
 37 38  1  0
 38 39  1  0
 38 40  1  0
 38 41  1  0
 27 42  2  0
 42 43  1  0
  5 44  1  0
 44 45  1  0
 44 46  2  0
 46 47  1  0
 46 48  1  0
 48  3  1  0
 42  6  1  0
 24 16  1  0
 37 28  1  0
M  CHG  2  26  -1  48  -1
M  END
>  <UniqueID>  (34) 
33

>  <SMILES>  (34) 
[H]/N=c1\nc(-c2cc(-c3ccccc3C)[n-]/c(=N/CCc3ccccn3)n2)cc[n-]1

>  <Energy>  (34) 
60.12490338745845

>  <Genealogy>  (34) 
Cc1ccccc1-c1cc(-c2cc[n-]c(=N)n2)nc(=NCCc2ccccn2)[n-]1 (protonated)
[H]/N=c1\nc(-c2cc(-c3ccccc3C)[n-]/c(=N/CCc3ccccn3)n2)cc[n-]1 (cis-trans isomerization)
[H]/N=c1\nc(-c2cc(-c3ccccc3C)[n-]/c(=N/CCc3ccccn3)n2)cc[n-]1 (3D coordinates assigned)
[H]/N=c1\nc(-c2cc(-c3ccccc3C)[n-]/c(=N/CCc3ccccn3)n2)cc[n-]1 (optimized conformer: 60.12490338745845 kcal/mol)

>  <smiles>  (34) 
Cc1ccccc1-c1cc(-c2cc[nH]c(=N)n2)nc(=NCCc2ccccn2)[nH]1

>  <score_type>  (34) 
oracle

>  <origin>  (34) 
adg

>  <m_score__min__energy>  (34) 
-12.119999999999999

>  <m_primary>  (34) 
energy

$$$$
34:0
     RDKit          3D

 57 60  0  0  0  0  0  0  0  0999 V2000
   55.8530   19.2230   44.9900 C   0  0  0  0  0  0  0  0  0  0  0  0
   56.3230   20.6450   45.0920 C   0  0  0  0  0  0  0  0  0  0  0  0
   55.3980   21.6840   45.2560 C   0  0  0  0  0  0  0  0  0  0  0  0
   55.8230   23.0200   45.3040 C   0  0  0  0  0  0  0  0  0  0  0  0
   54.8070   24.1180   45.4780 C   0  0  0  0  0  0  0  0  0  0  0  0
   57.1970   23.3210   45.1870 C   0  0  0  0  0  0  0  0  0  0  0  0
   57.6360   24.6860   45.2540 N   0  0  0  0  0  0  0  0  0  0  0  0
   57.7460   25.3880   46.5020 C   0  0  0  0  0  0  0  0  0  0  0  0
   57.6840   24.7450   47.5870 O   0  0  0  0  0  0  0  0  0  0  0  0
   57.9520   26.8540   46.5330 C   0  0  0  0  0  0  0  0  0  0  0  0
   58.8390   27.4380   47.4550 C   0  0  0  0  0  0  0  0  0  0  0  0
   59.0390   28.8190   47.4690 C   0  0  0  0  0  0  0  0  0  0  0  0
   58.3610   29.6500   46.5640 C   0  0  0  0  0  0  0  0  0  0  0  0
   57.4780   29.0700   45.6410 C   0  0  0  0  0  0  0  0  0  0  0  0
   57.2790   27.6840   45.6200 C   0  0  0  0  0  0  0  0  0  0  0  0
   56.6300   30.0910   44.5150 S   0  0  0  0  0  0  0  0  0  0  0  0
   57.0270   29.7400   43.1090 O   0  0  0  0  0  0  0  0  0  0  0  0
   55.1460   29.9310   44.6960 O   0  0  0  0  0  0  0  0  0  0  0  0
   57.0800   31.7200   44.8510 N   0  0  0  0  0  0  0  0  0  0  0  0
   57.9520   32.0550   45.7540 C   0  0  0  0  0  0  0  0  0  0  0  0
   58.2550   33.5250   45.9700 C   0  0  0  0  0  0  0  0  0  0  0  0
   59.6110   33.9240   45.3220 C   0  0  0  0  0  0  0  0  0  0  0  0
   60.6420   34.4560   46.3280 C   0  0  0  0  0  0  0  0  0  0  0  0
   60.7090   33.5550   47.5630 C   0  0  0  0  0  0  0  0  0  0  0  0
   59.3620   33.4890   48.3130 C   0  0  0  0  0  0  0  0  0  0  0  0
   58.1490   33.9210   47.4630 C   0  0  0  0  0  0  0  0  0  0  0  0
   58.5900   31.0720   46.6000 N   0  0  0  0  0  0  0  0  0  0  0  0
   58.1350   22.2740   45.0300 C   0  0  0  0  0  0  0  0  0  0  0  0
   59.6110   22.5530   44.9180 C   0  0  0  0  0  0  0  0  0  0  0  0
   57.6840   20.9470   44.9560 C   0  0  0  0  0  0  0  0  0  0  0  0
   55.7161   18.8088   45.9998 H   0  0  0  0  0  0  0  0  0  0  0  0
   54.8965   19.1910   44.4477 H   0  0  0  0  0  0  0  0  0  0  0  0
   56.6020   18.6273   44.4477 H   0  0  0  0  0  0  0  0  0  0  0  0
   54.3272   21.4499   45.3481 H   0  0  0  0  0  0  0  0  0  0  0  0
   54.6410   24.2974   46.5505 H   0  0  0  0  0  0  0  0  0  0  0  0
   55.1782   25.0393   45.0053 H   0  0  0  0  0  0  0  0  0  0  0  0
   53.8597   23.8193   45.0053 H   0  0  0  0  0  0  0  0  0  0  0  0
   58.0540   25.1110   44.3970 H   0  0  0  0  0  0  0  0  0  0  0  0
   59.3794   26.8011   48.1708 H   0  0  0  0  0  0  0  0  0  0  0  0
   59.7353   29.2608   48.1970 H   0  0  0  0  0  0  0  0  0  0  0  0
   56.5913   27.2419   44.8840 H   0  0  0  0  0  0  0  0  0  0  0  0
   57.4817   34.1104   45.4511 H   0  0  0  0  0  0  0  0  0  0  0  0
   60.0339   33.0372   44.8272 H   0  0  0  0  0  0  0  0  0  0  0  0
   59.4018   34.7394   44.6139 H   0  0  0  0  0  0  0  0  0  0  0  0
   61.6317   34.4858   45.8488 H   0  0  0  0  0  0  0  0  0  0  0  0
   60.3395   35.4655   46.6433 H   0  0  0  0  0  0  0  0  0  0  0  0
   60.9872   32.5393   47.2453 H   0  0  0  0  0  0  0  0  0  0  0  0
   61.4562   33.9797   48.2495 H   0  0  0  0  0  0  0  0  0  0  0  0
   59.2008   32.4525   48.6441 H   0  0  0  0  0  0  0  0  0  0  0  0
   59.4302   34.1961   49.1529 H   0  0  0  0  0  0  0  0  0  0  0  0
   57.2473   33.4510   47.8826 H   0  0  0  0  0  0  0  0  0  0  0  0
   58.1092   35.0197   47.4994 H   0  0  0  0  0  0  0  0  0  0  0  0
   59.2650   31.4260   47.3150 H   0  0  0  0  0  0  0  0  0  0  0  0
   60.0461   22.6352   45.9250 H   0  0  0  0  0  0  0  0  0  0  0  0
   60.0992   21.7312   44.3736 H   0  0  0  0  0  0  0  0  0  0  0  0
   59.7656   23.4963   44.3736 H   0  0  0  0  0  0  0  0  0  0  0  0
   58.4073   20.1352   44.7894 H   0  0  0  0  0  0  0  0  0  0  0  0
  1  2  1  0
  2  3  2  0
  3  4  1  0
  4  5  1  0
  4  6  2  0
  6  7  1  0
  7  8  1  0
  8  9  2  0
  8 10  1  0
 10 11  2  0
 11 12  1  0
 12 13  2  0
 13 14  1  0
 14 15  2  0
 14 16  1  0
 16 17  2  0
 16 18  2  0
 16 19  1  0
 19 20  2  0
 20 21  1  0
 21 22  1  0
 22 23  1  0
 23 24  1  0
 24 25  1  0
 25 26  1  0
 20 27  1  0
  6 28  1  0
 28 29  1  0
 28 30  2  0
 30  2  1  0
 15 10  1  0
 26 21  1  0
 27 13  1  0
  1 31  1  0
  1 32  1  0
  1 33  1  0
  3 34  1  0
  5 35  1  0
  5 36  1  0
  5 37  1  0
  7 38  1  0
 11 39  1  0
 12 40  1  0
 15 41  1  0
 21 42  1  0
 22 43  1  0
 22 44  1  0
 23 45  1  0
 23 46  1  0
 24 47  1  0
 24 48  1  0
 25 49  1  0
 25 50  1  0
 26 51  1  0
 26 52  1  0
 27 53  1  0
 29 54  1  0
 29 55  1  0
 29 56  1  0
 30 57  1  0
M  END
>  <UniqueID>  (35) 
34

>  <SMILES>  (35) 
Cc1cc(C)c(NC(=O)c2ccc3c(c2)S(=O)(=O)N=C(C2CCCCC2)N3)c(C)c1

>  <Energy>  (35) 
75.703591656686

>  <Genealogy>  (35) 
Cc1cc(C)c(NC(=O)c2ccc3c(c2)S(=O)(=O)N=C(C2CCCCC2)N3)c(C)c1 (3D coordinates assigned)
Cc1cc(C)c(NC(=O)c2ccc3c(c2)S(=O)(=O)N=C(C2CCCCC2)N3)c(C)c1 (nonaromatic ring conformer: 75.703591656686 kcal/mol)

>  <smiles>  (35) 
Cc1cc(C)c(NC(=O)c2ccc3c(c2)S(=O)(=O)N=C(C2CCCCC2)N3)c(C)c1

>  <score_type>  (35) 
oracle

>  <origin>  (35) 
adg

>  <m_score__min__energy>  (35) 
-10

>  <m_primary>  (35) 
energy

$$$$
35:0
     RDKit          3D

 61 64  0  0  0  0  0  0  0  0999 V2000
   50.2700   32.3370   50.8810 H   0  0  0  0  0  0  0  0  0  0  0  0
   51.2860   32.2400   51.1030 N   0  0  0  0  0  0  0  0  0  0  0  0
   52.0040   31.0570   50.7570 C   0  0  0  0  0  0  0  0  0  0  0  0
   51.6660   30.4280   49.7180 O   0  0  0  0  0  0  0  0  0  0  0  0
   53.1360   30.5650   51.5920 C   0  0  0  0  0  0  0  0  0  0  0  0
   54.3760   31.2260   51.5110 C   0  0  0  0  0  0  0  0  0  0  0  0
   54.4790   32.0997   50.8506 H   0  0  0  0  0  0  0  0  0  0  0  0
   55.4850   30.7920   52.2570 C   0  0  0  0  0  0  0  0  0  0  0  0
   56.7500   31.4740   52.1880 N   0  0  0  0  0  0  0  0  0  0  0  0
   57.6830   31.2930   51.2990 C   0  0  0  0  0  0  0  0  0  0  0  0
   58.6950   32.1880   51.1450 N   0  0  0  0  0  0  0  0  0  0  0  0
   59.6520   31.9940   50.2030 C   0  0  0  0  0  0  0  0  0  0  0  0
   60.7310   32.9340   50.0720 N   0  0  0  0  0  0  0  0  0  0  0  0
   61.5700   33.3140   51.1980 C   0  0  0  0  0  0  0  0  0  0  0  0
   60.9834   33.8728   51.9421 H   0  0  0  0  0  0  0  0  0  0  0  0
   61.9858   32.4337   51.7100 H   0  0  0  0  0  0  0  0  0  0  0  0
   62.6670   34.1960   50.6150 C   0  0  0  0  0  0  0  0  0  0  0  0
   62.4549   35.2565   50.8159 H   0  0  0  0  0  0  0  0  0  0  0  0
   63.6480   33.9751   51.0609 H   0  0  0  0  0  0  0  0  0  0  0  0
   62.6540   33.9250   49.1140 C   0  0  0  0  0  0  0  0  0  0  0  0
   62.8693   34.8479   48.5555 H   0  0  0  0  0  0  0  0  0  0  0  0
   63.4194   33.1889   48.8271 H   0  0  0  0  0  0  0  0  0  0  0  0
   61.2420   33.4260   48.7970 C   0  0  2  0  0  0  0  0  0  0  0  0
   61.2438   32.6501   48.0173 H   0  0  0  0  0  0  0  0  0  0  0  0
   60.3580   34.5690   48.2630 C   0  0  0  0  0  0  0  0  0  0  0  0
   60.9681   35.4790   48.1644 H   0  0  0  0  0  0  0  0  0  0  0  0
   59.9510   34.2688   47.2862 H   0  0  0  0  0  0  0  0  0  0  0  0
   59.2880   34.8270   49.1310 O   0  0  0  0  0  0  0  0  0  0  0  0
   59.1190   33.9850   49.6310 H   0  0  0  0  0  0  0  0  0  0  0  0
   59.5910   30.8960   49.4050 N   0  0  0  0  0  0  0  0  0  0  0  0
   58.5790   30.0040   49.5400 C   0  0  0  0  0  0  0  0  0  0  0  0
   58.5390   28.9620   48.7620 N   0  0  0  0  0  0  0  0  0  0  0  0
   58.9920   28.9400   47.3720 C   0  0  0  0  0  0  0  0  0  0  0  0
   58.7791   27.9522   46.9374 H   0  0  0  0  0  0  0  0  0  0  0  0
   60.0734   29.1401   47.3469 H   0  0  0  0  0  0  0  0  0  0  0  0
   58.2860   29.9920   46.5740 C   0  0  0  0  0  0  0  0  0  0  0  0
   57.2860   29.7520   45.7040 N   0  0  0  0  0  0  0  0  0  0  0  0
   56.9660   30.9190   45.1630 N   0  0  0  0  0  0  0  0  0  0  0  0
   57.7290   31.8840   45.6530 N   0  0  0  0  0  0  0  0  0  0  0  0
   57.6170   33.2550   45.2430 C   0  0  0  0  0  0  0  0  0  0  0  0
   56.7030   33.5759   44.7219 H   0  0  0  0  0  0  0  0  0  0  0  0
   58.5740   34.1560   45.4670 C   0  0  0  0  0  0  0  0  0  0  0  0
   58.4400   35.1954   45.1327 H   0  0  0  0  0  0  0  0  0  0  0  0
   59.4975   33.8599   45.9861 H   0  0  0  0  0  0  0  0  0  0  0  0
   58.5790   31.3370   46.5450 C   0  0  0  0  0  0  0  0  0  0  0  0
   59.3500   31.8591   47.1307 H   0  0  0  0  0  0  0  0  0  0  0  0
   57.6240   30.2090   50.4870 N   0  0  0  0  0  0  0  0  0  0  0  0
   55.3450   29.7210   53.1460 C   0  0  0  0  0  0  0  0  0  0  0  0
   56.4580   29.3380   53.9110 O   0  0  0  0  0  0  0  0  0  0  0  0
   57.5950   28.6480   53.4010 C   0  0  0  0  0  0  0  0  0  0  0  0
   58.2051   28.2777   54.2381 H   0  0  0  0  0  0  0  0  0  0  0  0
   57.2630   27.7989   52.7855 H   0  0  0  0  0  0  0  0  0  0  0  0
   58.1949   29.3345   52.7855 H   0  0  0  0  0  0  0  0  0  0  0  0
   54.1100   29.0560   53.2420 C   0  0  0  0  0  0  0  0  0  0  0  0
   54.0041   28.2079   53.9345 H   0  0  0  0  0  0  0  0  0  0  0  0
   53.0060   29.4590   52.4650 C   0  0  0  0  0  0  0  0  0  0  0  0
   51.7790   28.7770   52.5410 O   0  0  0  0  0  0  0  0  0  0  0  0
   50.6850   29.1500   53.3720 C   0  0  0  0  0  0  0  0  0  0  0  0
   50.9762   29.0507   54.4281 H   0  0  0  0  0  0  0  0  0  0  0  0
   50.4066   30.1939   53.1650 H   0  0  0  0  0  0  0  0  0  0  0  0
   49.8269   28.4937   53.1650 H   0  0  0  0  0  0  0  0  0  0  0  0
  1  2  1  0
  2  3  1  0
  3  4  2  0
  3  5  1  0
  5  6  2  0
  6  7  1  0
  6  8  1  0
  8  9  1  0
  9 10  2  3
 10 11  1  0
 11 12  1  0
 12 13  1  0
 13 14  1  0
 14 15  1  0
 14 16  1  0
 14 17  1  0
 17 18  1  0
 17 19  1  0
 17 20  1  0
 20 21  1  0
 20 22  1  0
 20 23  1  0
 23 24  1  6
 23 25  1  0
 25 26  1  0
 25 27  1  0
 25 28  1  0
 28 29  1  0
 12 30  2  0
 30 31  1  0
 31 32  2  0
 32 33  1  0
 33 34  1  0
 33 35  1  0
 33 36  1  0
 36 37  1  0
 37 38  2  0
 38 39  1  0
 39 40  1  0
 40 41  1  0
 40 42  2  0
 42 43  1  0
 42 44  1  0
 39 45  1  0
 45 46  1  0
 31 47  1  0
  8 48  2  0
 48 49  1  0
 49 50  1  0
 50 51  1  0
 50 52  1  0
 50 53  1  0
 48 54  1  0
 54 55  1  0
 54 56  2  0
 56 57  1  0
 57 58  1  0
 58 59  1  0
 58 60  1  0
 58 61  1  0
 56  5  1  0
 47 10  1  0
 23 13  1  0
 45 36  2  0
M  CHG  3   2  -1  11  -1  47  -1
M  END
>  <UniqueID>  (36) 
35

>  <SMILES>  (36) 
C=Cn1cc(C/N=c2/nc(N3CCC[C@@H]3CO)[n-]c(=Nc3cc(C([NH-])=O)c(OC)cc3OC)[n-]2)nn1

>  <Energy>  (36) 
102.80137235298511

>  <Genealogy>  (36) 
C=Cn1cc(CN=c2nc(N3CCCC3CO)[n-]c(=Nc3cc(C([NH-])=O)c(OC)cc3OC)[n-]2)nn1 (protonated)
C=Cn1cc(CN=c2nc(N3CCC[C@@H]3CO)[n-]c(=Nc3cc(C([NH-])=O)c(OC)cc3OC)[n-]2)nn1 (chirality)
C=Cn1cc(C/N=c2/nc(N3CCC[C@@H]3CO)[n-]c(=Nc3cc(C([NH-])=O)c(OC)cc3OC)[n-]2)nn1 (cis-trans isomerization)
C=Cn1cc(C/N=c2/nc(N3CCC[C@@H]3CO)[n-]c(=Nc3cc(C([NH-])=O)c(OC)cc3OC)[n-]2)nn1 (3D coordinates assigned)
C=Cn1cc(C/N=c2/nc(N3CCC[C@@H]3CO)[n-]c(=Nc3cc(C([NH-])=O)c(OC)cc3OC)[n-]2)nn1 (nonaromatic ring conformer: 102.80137235298511 kcal/mol)

>  <smiles>  (36) 
C=Cn1cc(CN=c2nc(N3CCCC3CO)[nH]c(=Nc3cc(C(N)=O)c(OC)cc3OC)[nH]2)nn1

>  <score_type>  (36) 
oracle

>  <origin>  (36) 
adg

>  <m_score__min__energy>  (36) 
-12.869999999999999

>  <m_primary>  (36) 
energy

$$$$
36:0
     RDKit          3D

 56 59  0  0  0  0  0  0  0  0999 V2000
   56.8400   30.7360   44.9510 O   0  0  0  0  0  0  0  0  0  0  0  0
   57.9360   30.9660   45.5300 C   0  0  0  0  0  0  0  0  0  0  0  0
   58.7120   29.8530   45.9930 N   0  0  0  0  0  0  0  0  0  0  0  0
   58.3610   28.4650   45.8750 C   0  0  0  0  0  0  0  0  0  0  0  0
   59.3350   27.4710   45.6790 C   0  0  0  0  0  0  0  0  0  0  0  0
   58.9560   26.1330   45.5530 C   0  0  0  0  0  0  0  0  0  0  0  0
   57.6100   25.7730   45.6480 C   0  0  0  0  0  0  0  0  0  0  0  0
   56.6330   26.7510   45.9000 C   0  0  0  0  0  0  0  0  0  0  0  0
   55.2390   26.4220   46.0100 N   0  0  0  0  0  0  0  0  0  0  0  0
   54.6170   25.1890   45.6200 C   0  0  0  0  0  0  0  0  0  0  0  0
   53.3610   25.1130   45.6380 O   0  0  0  0  0  0  0  0  0  0  0  0
   55.4010   24.0010   45.2200 C   0  0  0  0  0  0  0  0  0  0  0  0
   55.5170   23.7130   43.8500 C   0  0  0  0  0  0  0  0  0  0  0  0
   56.2650   22.6190   43.4150 C   0  0  0  0  0  0  0  0  0  0  0  0
   56.8940   21.7890   44.3420 C   0  0  0  0  0  0  0  0  0  0  0  0
   56.7640   22.0410   45.7090 C   0  0  0  0  0  0  0  0  0  0  0  0
   56.0120   23.1390   46.1690 C   0  0  0  0  0  0  0  0  0  0  0  0
   55.8280   23.3250   47.6560 C   0  0  0  0  0  0  0  0  0  0  0  0
   56.2540   24.6050   48.0290 O   0  0  0  0  0  0  0  0  0  0  0  0
   57.0160   28.0950   45.9970 C   0  0  0  0  0  0  0  0  0  0  0  0
   58.4070   32.3650   45.6650 C   0  0  0  0  0  0  0  0  0  0  0  0
   58.0650   33.3200   44.6920 C   0  0  0  0  0  0  0  0  0  0  0  0
   58.5000   34.6410   44.8190 C   0  0  0  0  0  0  0  0  0  0  0  0
   59.2760   35.0240   45.9150 C   0  0  0  0  0  0  0  0  0  0  0  0
   59.6240   34.0840   46.8980 C   0  0  0  0  0  0  0  0  0  0  0  0
   60.4390   34.4490   48.0260 N   0  0  0  0  0  0  0  0  0  0  0  0
   61.6770   33.8040   48.3660 C   0  0  0  0  0  0  0  0  0  0  0  0
   62.2690   33.0220   47.5110 N   0  0  0  0  0  0  0  0  0  0  0  0
   63.5270   32.3330   47.7980 C   0  0  0  0  0  0  0  0  0  0  0  0
   64.4080   33.1710   48.7270 C   0  0  0  0  0  0  0  0  0  0  0  0
   63.6120   33.5500   49.9780 C   0  0  0  0  0  0  0  0  0  0  0  0
   62.3210   34.1290   49.6100 N   0  0  0  0  0  0  0  0  0  0  0  0
   59.2120   32.7520   46.7500 C   0  0  0  0  0  0  0  0  0  0  0  0
   60.3983   27.7477   45.6247 H   0  0  0  0  0  0  0  0  0  0  0  0
   59.7195   25.3606   45.3785 H   0  0  0  0  0  0  0  0  0  0  0  0
   57.3138   24.7208   45.5252 H   0  0  0  0  0  0  0  0  0  0  0  0
   55.0133   24.3562   43.1134 H   0  0  0  0  0  0  0  0  0  0  0  0
   56.3588   22.4108   42.3390 H   0  0  0  0  0  0  0  0  0  0  0  0
   57.4936   20.9343   43.9958 H   0  0  0  0  0  0  0  0  0  0  0  0
   57.2541   21.3749   46.4343 H   0  0  0  0  0  0  0  0  0  0  0  0
   54.7645   23.2053   47.9104 H   0  0  0  0  0  0  0  0  0  0  0  0
   56.4240   22.5725   48.1931 H   0  0  0  0  0  0  0  0  0  0  0  0
   55.5290   25.2270   47.7600 H   0  0  0  0  0  0  0  0  0  0  0  0
   56.2524   28.8675   46.1708 H   0  0  0  0  0  0  0  0  0  0  0  0
   57.4523   33.0257   43.8271 H   0  0  0  0  0  0  0  0  0  0  0  0
   58.2303   35.3827   44.0527 H   0  0  0  0  0  0  0  0  0  0  0  0
   59.6158   36.0660   46.0085 H   0  0  0  0  0  0  0  0  0  0  0  0
   60.1670   35.2970   48.5730 H   0  0  0  0  0  0  0  0  0  0  0  0
   63.3079   31.3695   48.2814 H   0  0  0  0  0  0  0  0  0  0  0  0
   64.0649   32.1741   46.8517 H   0  0  0  0  0  0  0  0  0  0  0  0
   65.2934   32.5870   49.0184 H   0  0  0  0  0  0  0  0  0  0  0  0
   64.7279   34.0846   48.2045 H   0  0  0  0  0  0  0  0  0  0  0  0
   63.4440   32.6491   50.5864 H   0  0  0  0  0  0  0  0  0  0  0  0
   64.1844   34.2944   50.5508 H   0  0  0  0  0  0  0  0  0  0  0  0
   61.8210   34.7250   50.3060 H   0  0  0  0  0  0  0  0  0  0  0  0
   59.5224   32.0013   47.4917 H   0  0  0  0  0  0  0  0  0  0  0  0
  1  2  2  0
  2  3  1  0
  3  4  1  0
  4  5  2  0
  5  6  1  0
  6  7  2  0
  7  8  1  0
  8  9  1  0
  9 10  1  0
 10 11  2  0
 10 12  1  0
 12 13  2  0
 13 14  1  0
 14 15  2  0
 15 16  1  0
 16 17  2  0
 17 18  1  0
 18 19  1  0
  8 20  2  0
  2 21  1  0
 21 22  2  0
 22 23  1  0
 23 24  2  0
 24 25  1  0
 25 26  1  0
 26 27  1  0
 27 28  2  0
 28 29  1  0
 29 30  1  0
 30 31  1  0
 31 32  1  0
 25 33  2  0
 20  4  1  0
 33 21  1  0
 17 12  1  0
 32 27  1  0
  5 34  1  0
  6 35  1  0
  7 36  1  0
 13 37  1  0
 14 38  1  0
 15 39  1  0
 16 40  1  0
 18 41  1  0
 18 42  1  0
 19 43  1  0
 20 44  1  0
 22 45  1  0
 23 46  1  0
 24 47  1  0
 26 48  1  0
 29 49  1  0
 29 50  1  0
 30 51  1  0
 30 52  1  0
 31 53  1  0
 31 54  1  0
 32 55  1  0
 33 56  1  0
M  CHG  2   3  -1   9  -1
M  END
>  <UniqueID>  (37) 
36

>  <SMILES>  (37) 
O=C([N-]c1cccc([N-]C(=O)c2ccccc2CO)c1)c1cccc(NC2=NCCCN2)c1

>  <Energy>  (37) 
77.68673000627689

>  <Genealogy>  (37) 
O=C([N-]c1cccc([N-]C(=O)c2ccccc2CO)c1)c1cccc(NC2=NCCCN2)c1 (protonated)
O=C([N-]c1cccc([N-]C(=O)c2ccccc2CO)c1)c1cccc(NC2=NCCCN2)c1 (3D coordinates assigned)
O=C([N-]c1cccc([N-]C(=O)c2ccccc2CO)c1)c1cccc(NC2=NCCCN2)c1 (nonaromatic ring conformer: 77.68673000627689 kcal/mol)

>  <smiles>  (37) 
O=C(Nc1cccc(NC(=O)c2ccccc2CO)c1)c1cccc(NC2=NCCCN2)c1

>  <score_type>  (37) 
oracle

>  <origin>  (37) 
adg

>  <m_score__min__energy>  (37) 
-14.02

>  <m_primary>  (37) 
energy

$$$$
37:0
     RDKit          3D

 74 78  0  0  0  0  0  0  0  0999 V2000
   59.9100   33.8540   45.6430 C   0  0  0  0  0  0  0  0  0  0  0  0
   59.7310   33.6270   47.1230 C   0  0  0  0  0  0  0  0  0  0  0  0
   59.7570   34.7440   47.9700 C   0  0  0  0  0  0  0  0  0  0  0  0
   59.6650   34.5990   49.3530 C   0  0  0  0  0  0  0  0  0  0  0  0
   59.5420   33.3290   49.9280 C   0  0  0  0  0  0  0  0  0  0  0  0
   59.4790   33.1450   51.3990 C   0  0  0  0  0  0  0  0  0  0  0  0
   59.3600   34.1570   52.1460 O   0  0  0  0  0  0  0  0  0  0  0  0
   59.4870   31.8480   52.0040 N   0  0  0  0  0  0  0  0  0  0  0  0
   59.6140   30.4220   51.6380 C   0  0  0  0  0  0  0  0  0  0  0  0
   59.3370   29.8830   53.0060 C   0  0  0  0  0  0  0  0  0  0  0  0
   58.0600   29.0900   53.0930 C   0  0  0  0  0  0  0  0  0  0  0  0
   57.9470   28.2110   53.9910 O   0  0  0  0  0  0  0  0  0  0  0  0
   57.0030   29.3040   52.1530 N   0  0  0  0  0  0  0  0  0  0  0  0
   56.1760   30.8180   52.0020 S   0  0  0  0  0  0  0  0  0  0  0  0
   54.4640   30.5240   51.6240 C   0  0  0  0  0  0  0  0  0  0  0  0
   56.8020   31.6110   50.8890 O   0  0  0  0  0  0  0  0  0  0  0  0
   56.2990   31.5950   53.2830 O   0  0  0  0  0  0  0  0  0  0  0  0
   59.2160   31.3330   53.3600 C   0  0  0  0  0  0  0  0  0  0  0  0
   59.4640   32.2090   49.0840 C   0  0  0  0  0  0  0  0  0  0  0  0
   59.5420   32.3360   47.6830 C   0  0  0  0  0  0  0  0  0  0  0  0
   59.4420   31.1040   46.8570 C   0  0  0  0  0  0  0  0  0  0  0  0
   58.3060   30.3550   46.5850 C   0  0  0  0  0  0  0  0  0  0  0  0
   58.7210   29.2720   45.8320 C   0  0  0  0  0  0  0  0  0  0  0  0
   57.8160   28.2250   45.3170 C   0  0  0  0  0  0  0  0  0  0  0  0
   56.8510   28.5480   44.5750 O   0  0  0  0  0  0  0  0  0  0  0  0
   57.9840   26.8510   45.6910 N   0  0  0  0  0  0  0  0  0  0  0  0
   57.9730   25.8150   44.6560 C   0  0  0  0  0  0  0  0  0  0  0  0
   56.6110   25.0970   44.6200 C   0  0  0  0  0  0  0  0  0  0  0  0
   55.8310   25.1850   45.9640 C   0  0  0  0  0  0  0  0  0  0  0  0
   55.1270   26.3830   45.9830 F   0  0  0  0  0  0  0  0  0  0  0  0
   54.8070   24.0540   46.0330 C   0  0  0  0  0  0  0  0  0  0  0  0
   55.1080   22.7720   46.5430 C   0  0  0  0  0  0  0  0  0  0  0  0
   54.1360   21.7630   46.5550 C   0  0  0  0  0  0  0  0  0  0  0  0
   52.8580   22.0100   46.0470 C   0  0  0  0  0  0  0  0  0  0  0  0
   51.8610   20.9700   46.0620 C   0  0  0  0  0  0  0  0  0  0  0  0
   51.0610   20.1350   46.0750 N   0  0  0  0  0  0  0  0  0  0  0  0
   52.5540   23.2670   45.5180 C   0  0  0  0  0  0  0  0  0  0  0  0
   53.5180   24.2790   45.5100 C   0  0  0  0  0  0  0  0  0  0  0  0
   56.8230   25.2170   47.1540 C   0  0  0  0  0  0  0  0  0  0  0  0
   57.7430   26.4540   47.0840 C   0  0  0  0  0  0  0  0  0  0  0  0
   60.0570   29.3340   45.6250 N   0  0  0  0  0  0  0  0  0  0  0  0
   60.9010   28.4090   44.8760 C   0  0  0  0  0  0  0  0  0  0  0  0
   60.5000   30.4330   46.2660 C   0  0  0  0  0  0  0  0  0  0  0  0
   60.5838   34.7085   45.4820 H   0  0  0  0  0  0  0  0  0  0  0  0
   60.3437   32.9534   45.1837 H   0  0  0  0  0  0  0  0  0  0  0  0
   58.9331   34.0657   45.1837 H   0  0  0  0  0  0  0  0  0  0  0  0
   59.8515   35.7504   47.5362 H   0  0  0  0  0  0  0  0  0  0  0  0
   59.6893   35.4899   49.9978 H   0  0  0  0  0  0  0  0  0  0  0  0
   58.8652   30.1053   50.8970 H   0  0  0  0  0  0  0  0  0  0  0  0
   60.5524   30.1096   51.1565 H   0  0  0  0  0  0  0  0  0  0  0  0
   59.9877   29.1814   53.5486 H   0  0  0  0  0  0  0  0  0  0  0  0
   53.8936   30.4260   52.5594 H   0  0  0  0  0  0  0  0  0  0  0  0
   54.0675   31.3672   51.0393 H   0  0  0  0  0  0  0  0  0  0  0  0
   54.3716   29.5968   51.0393 H   0  0  0  0  0  0  0  0  0  0  0  0
   58.2122   31.5993   53.7226 H   0  0  0  0  0  0  0  0  0  0  0  0
   59.8551   31.7050   54.1743 H   0  0  0  0  0  0  0  0  0  0  0  0
   59.3392   31.2099   49.5270 H   0  0  0  0  0  0  0  0  0  0  0  0
   57.2777   30.5787   46.9053 H   0  0  0  0  0  0  0  0  0  0  0  0
   58.1621   26.2801   43.6773 H   0  0  0  0  0  0  0  0  0  0  0  0
   58.7561   25.0773   44.8852 H   0  0  0  0  0  0  0  0  0  0  0  0
   55.9969   25.5534   43.8297 H   0  0  0  0  0  0  0  0  0  0  0  0
   56.8098   24.0322   44.4287 H   0  0  0  0  0  0  0  0  0  0  0  0
   56.1147   22.5637   46.9344 H   0  0  0  0  0  0  0  0  0  0  0  0
   54.3800   20.7723   46.9660 H   0  0  0  0  0  0  0  0  0  0  0  0
   51.5525   23.4608   45.1064 H   0  0  0  0  0  0  0  0  0  0  0  0
   53.2671   25.2642   45.0899 H   0  0  0  0  0  0  0  0  0  0  0  0
   56.2534   25.2468   48.0946 H   0  0  0  0  0  0  0  0  0  0  0  0
   57.4504   24.3147   47.1074 H   0  0  0  0  0  0  0  0  0  0  0  0
   57.2655   27.2884   47.6186 H   0  0  0  0  0  0  0  0  0  0  0  0
   58.7074   26.2009   47.5487 H   0  0  0  0  0  0  0  0  0  0  0  0
   61.4719   27.7833   45.5778 H   0  0  0  0  0  0  0  0  0  0  0  0
   60.2702   27.7678   44.2428 H   0  0  0  0  0  0  0  0  0  0  0  0
   61.5971   28.9786   44.2428 H   0  0  0  0  0  0  0  0  0  0  0  0
   61.5517   30.7520   46.3133 H   0  0  0  0  0  0  0  0  0  0  0  0
  1  2  1  0
  2  3  2  0
  3  4  1  0
  4  5  2  0
  5  6  1  0
  6  7  2  0
  6  8  1  0
  8  9  1  0
  9 10  1  0
 10 11  1  0
 11 12  2  0
 11 13  1  0
 13 14  1  0
 14 15  1  0
 14 16  2  0
 14 17  2  0
 10 18  1  0
  5 19  1  0
 19 20  2  0
 20 21  1  0
 21 22  1  0
 22 23  2  0
 23 24  1  0
 24 25  2  0
 24 26  1  0
 26 27  1  0
 27 28  1  0
 28 29  1  0
 29 30  1  0
 29 31  1  0
 31 32  2  0
 32 33  1  0
 33 34  2  0
 34 35  1  0
 35 36  3  0
 34 37  1  0
 37 38  2  0
 29 39  1  0
 39 40  1  0
 23 41  1  0
 41 42  1  0
 41 43  1  0
 20  2  1  0
 43 21  2  0
 18  8  1  0
 40 26  1  0
 38 31  1  0
  1 44  1  0
  1 45  1  0
  1 46  1  0
  3 47  1  0
  4 48  1  0
  9 49  1  0
  9 50  1  0
 10 51  1  0
 15 52  1  0
 15 53  1  0
 15 54  1  0
 18 55  1  0
 18 56  1  0
 19 57  1  0
 22 58  1  0
 27 59  1  0
 27 60  1  0
 28 61  1  0
 28 62  1  0
 32 63  1  0
 33 64  1  0
 37 65  1  0
 38 66  1  0
 39 67  1  0
 39 68  1  0
 40 69  1  0
 40 70  1  0
 42 71  1  0
 42 72  1  0
 42 73  1  0
 43 74  1  0
M  CHG  1  13  -1
M  END
>  <UniqueID>  (38) 
37

>  <SMILES>  (38) 
Cc1ccc(C(=O)N2CC(C(=O)[N-]S(C)(=O)=O)C2)cc1-c1cc(C(=O)N2CCC(F)(c3ccc(C#N)cc3)CC2)n(C)c1

>  <Energy>  (38) 
168.95963708573265

>  <Genealogy>  (38) 
Cc1ccc(C(=O)N2CC(C(=O)[N-]S(C)(=O)=O)C2)cc1-c1cc(C(=O)N2CCC(F)(c3ccc(C#N)cc3)CC2)n(C)c1 (protonated)
Cc1ccc(C(=O)N2CC(C(=O)[N-]S(C)(=O)=O)C2)cc1-c1cc(C(=O)N2CCC(F)(c3ccc(C#N)cc3)CC2)n(C)c1 (3D coordinates assigned)
Cc1ccc(C(=O)N2CC(C(=O)[N-]S(C)(=O)=O)C2)cc1-c1cc(C(=O)N2CCC(F)(c3ccc(C#N)cc3)CC2)n(C)c1 (nonaromatic ring conformer: 168.95963708573265 kcal/mol)

>  <smiles>  (38) 
Cc1ccc(C(=O)N2CC(C(=O)NS(C)(=O)=O)C2)cc1-c1cc(C(=O)N2CCC(F)(c3ccc(C#N)cc3)CC2)n(C)c1

>  <score_type>  (38) 
oracle

>  <origin>  (38) 
adg

>  <m_score__min__energy>  (38) 
-10.81

>  <m_primary>  (38) 
energy

$$$$
38:0
     RDKit          3D

 43 45  0  0  0  0  0  0  0  0999 V2000
   61.3290   31.6940   50.3950 H   0  0  0  0  0  0  0  0  0  0  0  0
   60.6190   31.8230   49.6870 O   0  0  0  0  0  0  0  0  0  0  0  0
   60.2230   30.8120   48.8060 C   0  0  0  0  0  0  0  0  0  0  0  0
   60.8420   30.6490   47.5460 C   0  0  0  0  0  0  0  0  0  0  0  0
   61.9480   31.5640   47.0960 C   0  0  0  0  0  0  0  0  0  0  0  0
   62.4566   31.9848   47.9759 H   0  0  0  0  0  0  0  0  0  0  0  0
   62.6706   30.9961   46.4915 H   0  0  0  0  0  0  0  0  0  0  0  0
   61.5256   32.3802   46.4915 H   0  0  0  0  0  0  0  0  0  0  0  0
   60.4030   29.6280   46.6890 C   0  0  0  0  0  0  0  0  0  0  0  0
   60.9099   29.4718   45.7253 H   0  0  0  0  0  0  0  0  0  0  0  0
   59.3250   28.8040   47.0470 C   0  0  0  0  0  0  0  0  0  0  0  0
   58.8190   27.7630   46.1240 C   0  0  0  0  0  0  0  0  0  0  0  0
   59.4914   26.9290   45.8744 H   0  0  0  0  0  0  0  0  0  0  0  0
   57.5920   27.7670   45.5690 C   0  0  0  0  0  0  0  0  0  0  0  0
   56.6320   26.7840   46.0100 C   0  0  0  0  0  0  0  0  0  0  0  0
   55.8630   25.9950   46.3630 N   0  0  0  0  0  0  0  0  0  0  0  0
   57.1620   28.7540   44.5540 C   0  0  0  0  0  0  0  0  0  0  0  0
   57.1930   28.4490   43.3320 O   0  0  0  0  0  0  0  0  0  0  0  0
   56.6410   30.0250   44.9630 N   0  0  0  0  0  0  0  0  0  0  0  0
   57.3730   31.2560   45.0190 C   0  0  0  0  0  0  0  0  0  0  0  0
   57.6020   31.9550   43.8280 C   0  0  0  0  0  0  0  0  0  0  0  0
   57.2753   31.5217   42.8712 H   0  0  0  0  0  0  0  0  0  0  0  0
   58.2410   33.1970   43.8420 C   0  0  0  0  0  0  0  0  0  0  0  0
   58.4282   33.7287   42.8974 H   0  0  0  0  0  0  0  0  0  0  0  0
   58.6440   33.7670   45.0570 C   0  0  0  0  0  0  0  0  0  0  0  0
   59.2740   35.0220   45.0850 C   0  0  0  0  0  0  0  0  0  0  0  0
   59.4670   35.5609   44.1457 H   0  0  0  0  0  0  0  0  0  0  0  0
   59.6560   35.5870   46.3050 C   0  0  0  0  0  0  0  0  0  0  0  0
   60.1488   36.5703   46.3232 H   0  0  0  0  0  0  0  0  0  0  0  0
   59.4140   34.9070   47.5020 C   0  0  0  0  0  0  0  0  0  0  0  0
   59.7159   35.3575   48.4590 H   0  0  0  0  0  0  0  0  0  0  0  0
   58.7900   33.6570   47.4870 C   0  0  0  0  0  0  0  0  0  0  0  0
   58.6009   33.1265   48.4319 H   0  0  0  0  0  0  0  0  0  0  0  0
   58.4040   33.0770   46.2690 C   0  0  0  0  0  0  0  0  0  0  0  0
   57.7710   31.8260   46.2420 C   0  0  0  0  0  0  0  0  0  0  0  0
   57.5846   31.2872   47.1827 H   0  0  0  0  0  0  0  0  0  0  0  0
   58.7410   28.9460   48.3100 C   0  0  0  0  0  0  0  0  0  0  0  0
   57.9277   28.2706   48.6138 H   0  0  0  0  0  0  0  0  0  0  0  0
   59.1840   29.9430   49.1930 C   0  0  0  0  0  0  0  0  0  0  0  0
   58.5170   30.1090   50.5300 C   0  0  0  0  0  0  0  0  0  0  0  0
   59.2494   29.9267   51.3303 H   0  0  0  0  0  0  0  0  0  0  0  0
   58.1237   31.1324   50.6190 H   0  0  0  0  0  0  0  0  0  0  0  0
   57.6899   29.3893   50.6190 H   0  0  0  0  0  0  0  0  0  0  0  0
  1  2  1  0
  2  3  1  0
  3  4  2  0
  4  5  1  0
  5  6  1  0
  5  7  1  0
  5  8  1  0
  4  9  1  0
  9 10  1  0
  9 11  2  0
 11 12  1  0
 12 13  1  0
 12 14  2  0
 14 15  1  0
 15 16  3  0
 14 17  1  0
 17 18  2  0
 17 19  1  0
 19 20  1  0
 20 21  2  0
 21 22  1  0
 21 23  1  0
 23 24  1  0
 23 25  2  0
 25 26  1  0
 26 27  1  0
 26 28  2  0
 28 29  1  0
 28 30  1  0
 30 31  1  0
 30 32  2  0
 32 33  1  0
 32 34  1  0
 34 35  2  0
 35 36  1  0
 11 37  1  0
 37 38  1  0
 37 39  2  0
 39 40  1  0
 40 41  1  0
 40 42  1  0
 40 43  1  0
 39  3  1  0
 35 20  1  0
 34 25  1  0
M  CHG  1  19  -1
M  END
>  <UniqueID>  (39) 
38

>  <SMILES>  (39) 
Cc1cc(/C=C(/C#N)C(=O)[N-]c2ccc3ccccc3c2)cc(C)c1O

>  <Energy>  (39) 
57.587473183783

>  <Genealogy>  (39) 
Cc1cc(C=C(C#N)C(=O)[N-]c2ccc3ccccc3c2)cc(C)c1O (protonated)
Cc1cc(/C=C(/C#N)C(=O)[N-]c2ccc3ccccc3c2)cc(C)c1O (cis-trans isomerization)
Cc1cc(/C=C(/C#N)C(=O)[N-]c2ccc3ccccc3c2)cc(C)c1O (3D coordinates assigned)
Cc1cc(/C=C(/C#N)C(=O)[N-]c2ccc3ccccc3c2)cc(C)c1O (optimized conformer: 57.587473183783 kcal/mol)

>  <smiles>  (39) 
Cc1cc(C=C(C#N)C(=O)Nc2ccc3ccccc3c2)cc(C)c1O

>  <score_type>  (39) 
oracle

>  <origin>  (39) 
adg

>  <m_score__min__energy>  (39) 
-9.6099999999999994

>  <m_primary>  (39) 
energy

$$$$
40:0
     RDKit          3D

 42 45  0  0  0  0  0  0  0  0999 V2000
   54.2510   25.9680   45.6380 O   0  0  0  0  0  0  0  0  0  0  0  0
   54.7560   24.8470   45.9130 C   0  0  0  0  0  0  0  0  0  0  0  0
   55.7890   24.7760   46.8390 O   0  0  0  0  0  0  0  0  0  0  0  0
   54.3140   23.6140   45.1730 C   0  0  0  0  0  0  0  0  0  0  0  0
   54.8230   23.5360   43.7360 C   0  0  0  0  0  0  0  0  0  0  0  0
   55.6860   22.3820   44.0230 N   0  0  0  0  0  0  0  0  0  0  0  0
   57.1450   22.6290   43.8660 C   0  0  0  0  0  0  0  0  0  0  0  0
   57.6330   24.0500   44.1150 C   0  0  0  0  0  0  0  0  0  0  0  0
   58.2470   24.3900   45.3310 C   0  0  0  0  0  0  0  0  0  0  0  0
   58.6880   25.6970   45.5640 C   0  0  0  0  0  0  0  0  0  0  0  0
   58.4960   26.7000   44.5990 C   0  0  0  0  0  0  0  0  0  0  0  0
   58.9800   28.0770   44.8610 C   0  0  0  0  0  0  0  0  0  0  0  0
   58.1590   29.1240   45.0970 N   0  0  0  0  0  0  0  0  0  0  0  0
   59.0330   30.1390   45.2810 C   0  0  0  0  0  0  0  0  0  0  0  0
   58.6260   31.5370   45.5760 C   0  0  0  0  0  0  0  0  0  0  0  0
   58.8110   32.0350   46.8810 C   0  0  0  0  0  0  0  0  0  0  0  0
   58.4430   33.3430   47.2050 C   0  0  0  0  0  0  0  0  0  0  0  0
   57.8860   34.1740   46.2340 C   0  0  0  0  0  0  0  0  0  0  0  0
   57.6960   33.7000   44.9370 C   0  0  0  0  0  0  0  0  0  0  0  0
   58.0600   32.3900   44.5950 C   0  0  0  0  0  0  0  0  0  0  0  0
   57.7790   31.8850   42.9310 Cl  0  0  0  0  0  0  0  0  0  0  0  0
   60.2720   29.7230   45.1640 O   0  0  0  0  0  0  0  0  0  0  0  0
   60.2730   28.4530   44.9050 N   0  0  0  0  0  0  0  0  0  0  0  0
   57.8290   26.3710   43.4060 C   0  0  0  0  0  0  0  0  0  0  0  0
   57.3900   25.0650   43.1750 C   0  0  0  0  0  0  0  0  0  0  0  0
   55.1980   22.3940   45.4090 C   0  0  0  0  0  0  0  0  0  0  0  0
   53.2457   23.6419   45.4339 H   0  0  0  0  0  0  0  0  0  0  0  0
   54.0319   23.3188   43.0031 H   0  0  0  0  0  0  0  0  0  0  0  0
   55.2708   24.4329   43.2831 H   0  0  0  0  0  0  0  0  0  0  0  0
   57.6718   21.9683   44.5703 H   0  0  0  0  0  0  0  0  0  0  0  0
   57.3566   22.4346   42.8042 H   0  0  0  0  0  0  0  0  0  0  0  0
   58.3824   23.6222   46.1070 H   0  0  0  0  0  0  0  0  0  0  0  0
   59.1899   25.9418   46.5117 H   0  0  0  0  0  0  0  0  0  0  0  0
   59.2502   31.3865   47.6534 H   0  0  0  0  0  0  0  0  0  0  0  0
   58.5930   33.7180   48.2282 H   0  0  0  0  0  0  0  0  0  0  0  0
   57.5965   35.2035   46.4914 H   0  0  0  0  0  0  0  0  0  0  0  0
   57.2563   34.3600   44.1747 H   0  0  0  0  0  0  0  0  0  0  0  0
   61.1310   27.8750   44.7710 H   0  0  0  0  0  0  0  0  0  0  0  0
   57.6513   27.1483   42.6482 H   0  0  0  0  0  0  0  0  0  0  0  0
   56.8483   24.8291   42.2471 H   0  0  0  0  0  0  0  0  0  0  0  0
   54.6324   21.4906   45.6810 H   0  0  0  0  0  0  0  0  0  0  0  0
   55.9315   22.4224   46.2282 H   0  0  0  0  0  0  0  0  0  0  0  0
  1  2  2  0
  2  3  1  0
  2  4  1  0
  4  5  1  0
  5  6  1  0
  6  7  1  0
  7  8  1  0
  8  9  2  0
  9 10  1  0
 10 11  2  0
 11 12  1  0
 12 13  1  0
 13 14  2  0
 14 15  1  0
 15 16  2  0
 16 17  1  0
 17 18  2  0
 18 19  1  0
 19 20  2  0
 20 21  1  0
 14 22  1  0
 22 23  1  0
 11 24  1  0
 24 25  2  0
  6 26  1  0
 26  4  1  0
 25  8  1  0
 23 12  2  0
 20 15  1  0
  4 27  1  0
  5 28  1  0
  5 29  1  0
  7 30  1  0
  7 31  1  0
  9 32  1  0
 10 33  1  0
 16 34  1  0
 17 35  1  0
 18 36  1  0
 19 37  1  0
 23 38  1  0
 24 39  1  0
 25 40  1  0
 26 41  1  0
 26 42  1  0
M  CHG  2   3  -1  23   1
M  END
>  <UniqueID>  (40) 
39

>  <SMILES>  (40) 
O=C([O-])C1CN(Cc2ccc(-c3nc(-c4ccccc4Cl)o[nH+]3)cc2)C1

>  <Energy>  (40) 
160.77833138744126

>  <Genealogy>  (40) 
O=C([O-])C1CN(Cc2ccc(-c3nc(-c4ccccc4Cl)o[nH+]3)cc2)C1 (protonated)
O=C([O-])C1CN(Cc2ccc(-c3nc(-c4ccccc4Cl)o[nH+]3)cc2)C1 (3D coordinates assigned)
O=C([O-])C1CN(Cc2ccc(-c3nc(-c4ccccc4Cl)o[nH+]3)cc2)C1 (nonaromatic ring conformer: 160.77833138744126 kcal/mol)

>  <smiles>  (40) 
O=C(O)C1CN(Cc2ccc(-c3noc(-c4ccccc4Cl)n3)cc2)C1

>  <score_type>  (40) 
oracle

>  <origin>  (40) 
adg

>  <m_score__min__energy>  (40) 
-9.9299999999999997

>  <m_primary>  (40) 
energy

$$$$
41:0
     RDKit          3D

 43 45  0  0  0  0  0  0  0  0999 V2000
   55.1510   26.6670   46.0910 N   0  0  0  0  0  0  0  0  0  0  0  0
   56.3780   26.1060   46.5550 C   0  0  0  0  0  0  0  0  0  0  0  0
   56.3560   25.0070   47.1710 O   0  0  0  0  0  0  0  0  0  0  0  0
   57.6640   26.8050   46.3170 C   0  0  0  0  0  0  0  0  0  0  0  0
   58.8640   26.0780   46.2270 C   0  0  0  0  0  0  0  0  0  0  0  0
   60.0730   26.7340   45.9940 C   0  0  0  0  0  0  0  0  0  0  0  0
   60.1050   28.1230   45.8550 C   0  0  0  0  0  0  0  0  0  0  0  0
   58.9210   28.8720   45.9640 C   0  0  0  0  0  0  0  0  0  0  0  0
   58.9230   30.3010   45.8020 N   0  0  0  0  0  0  0  0  0  0  0  0
   57.8020   31.0550   45.3070 C   0  0  0  0  0  0  0  0  0  0  0  0
   56.8360   30.4610   44.7530 O   0  0  0  0  0  0  0  0  0  0  0  0
   57.7850   32.5270   45.4340 C   0  0  0  0  0  0  0  0  0  0  0  0
   57.0440   33.1990   44.6680 O   0  0  0  0  0  0  0  0  0  0  0  0
   58.6090   33.2300   46.4430 C   0  0  0  0  0  0  0  0  0  0  0  0
   58.8450   32.7200   47.7310 C   0  0  0  0  0  0  0  0  0  0  0  0
   59.6120   33.5630   48.5290 C   0  0  0  0  0  0  0  0  0  0  0  0
   60.0880   33.2550   49.9130 C   0  0  0  0  0  0  0  0  0  0  0  0
   61.5900   33.1900   49.9360 C   0  0  0  0  0  0  0  0  0  0  0  0
   62.3120   33.8410   50.9510 C   0  0  0  0  0  0  0  0  0  0  0  0
   63.7060   33.7460   50.9960 C   0  0  0  0  0  0  0  0  0  0  0  0
   64.3890   32.9960   50.0340 C   0  0  0  0  0  0  0  0  0  0  0  0
   66.1380   32.8760   50.0930 Cl  0  0  0  0  0  0  0  0  0  0  0  0
   63.6770   32.3340   49.0290 C   0  0  0  0  0  0  0  0  0  0  0  0
   62.2820   32.4270   48.9820 C   0  0  0  0  0  0  0  0  0  0  0  0
   60.0260   34.9340   47.6460 S   0  0  0  0  0  0  0  0  0  0  0  0
   59.2060   34.4800   46.2510 C   0  0  0  0  0  0  0  0  0  0  0  0
   59.2120   35.2410   45.0420 N   0  0  0  0  0  0  0  0  0  0  0  0
   57.7050   28.2050   46.1760 C   0  0  0  0  0  0  0  0  0  0  0  0
   54.4730   27.0990   46.7570 H   0  0  0  0  0  0  0  0  0  0  0  0
   58.8495   24.9840   46.3411 H   0  0  0  0  0  0  0  0  0  0  0  0
   61.0050   26.1545   45.9195 H   0  0  0  0  0  0  0  0  0  0  0  0
   61.0601   28.6326   45.6595 H   0  0  0  0  0  0  0  0  0  0  0  0
   59.8220   30.8090   45.9650 H   0  0  0  0  0  0  0  0  0  0  0  0
   58.4606   31.7484   48.0750 H   0  0  0  0  0  0  0  0  0  0  0  0
   59.7467   34.0435   50.5998 H   0  0  0  0  0  0  0  0  0  0  0  0
   59.6790   32.2838   50.2284 H   0  0  0  0  0  0  0  0  0  0  0  0
   61.7780   34.4276   51.7131 H   0  0  0  0  0  0  0  0  0  0  0  0
   64.2663   34.2621   51.7895 H   0  0  0  0  0  0  0  0  0  0  0  0
   64.2141   31.7398   48.2750 H   0  0  0  0  0  0  0  0  0  0  0  0
   61.7245   31.8998   48.1938 H   0  0  0  0  0  0  0  0  0  0  0  0
   59.8280   36.0740   44.9220 H   0  0  0  0  0  0  0  0  0  0  0  0
   58.5490   34.9990   44.2730 H   0  0  0  0  0  0  0  0  0  0  0  0
   56.7713   28.7837   46.2328 H   0  0  0  0  0  0  0  0  0  0  0  0
  1  2  1  0
  2  3  2  0
  2  4  1  0
  4  5  2  0
  5  6  1  0
  6  7  2  0
  7  8  1  0
  8  9  1  0
  9 10  1  0
 10 11  2  0
 10 12  1  0
 12 13  2  0
 12 14  1  0
 14 15  1  0
 15 16  2  0
 16 17  1  0
 17 18  1  0
 18 19  2  0
 19 20  1  0
 20 21  2  0
 21 22  1  0
 21 23  1  0
 23 24  2  0
 16 25  1  0
 25 26  1  0
 26 27  1  0
  8 28  2  0
 28  4  1  0
 26 14  2  0
 24 18  1  0
  1 29  1  0
  5 30  1  0
  6 31  1  0
  7 32  1  0
  9 33  1  0
 15 34  1  0
 17 35  1  0
 17 36  1  0
 19 37  1  0
 20 38  1  0
 23 39  1  0
 24 40  1  0
 27 41  1  0
 27 42  1  0
 28 43  1  0
M  CHG  1   1  -1
M  END
>  <UniqueID>  (41) 
40

>  <SMILES>  (41) 
[NH-]C(=O)c1cccc(NC(=O)C(=O)c2cc(Cc3ccc(Cl)cc3)sc2N)c1

>  <Energy>  (41) 
76.52511009481611

>  <Genealogy>  (41) 
[NH-]C(=O)c1cccc(NC(=O)C(=O)c2cc(Cc3ccc(Cl)cc3)sc2N)c1 (protonated)
[NH-]C(=O)c1cccc(NC(=O)C(=O)c2cc(Cc3ccc(Cl)cc3)sc2N)c1 (3D coordinates assigned)
[NH-]C(=O)c1cccc(NC(=O)C(=O)c2cc(Cc3ccc(Cl)cc3)sc2N)c1 (optimized conformer: 76.52511009481611 kcal/mol)

>  <smiles>  (41) 
NC(=O)c1cccc(NC(=O)C(=O)c2cc(Cc3ccc(Cl)cc3)sc2N)c1

>  <score_type>  (41) 
oracle

>  <origin>  (41) 
adg

>  <m_score__min__energy>  (41) 
-12.640000000000001

>  <m_primary>  (41) 
energy

$$$$
42:0
     RDKit          3D

 43 45  0  0  0  0  0  0  0  0999 V2000
   57.4100   23.9830   46.6320 O   0  0  0  0  0  0  0  0  0  0  0  0
   56.2520   24.4050   46.3660 C   0  0  0  0  0  0  0  0  0  0  0  0
   55.2210   23.4890   45.9940 N   0  0  0  0  0  0  0  0  0  0  0  0
   53.6750   24.0340   45.4370 S   0  0  0  0  0  0  0  0  0  0  0  0
   53.5220   23.7080   43.9780 O   0  0  0  0  0  0  0  0  0  0  0  0
   53.5740   25.5200   45.6290 O   0  0  0  0  0  0  0  0  0  0  0  0
   52.4090   23.2200   46.3420 C   0  0  0  0  0  0  0  0  0  0  0  0
   51.0580   23.2440   46.0340 C   0  0  0  0  0  0  0  0  0  0  0  0
   50.2920   22.4340   46.8790 C   0  0  0  0  0  0  0  0  0  0  0  0
   51.0390   21.7730   47.8460 C   0  0  0  0  0  0  0  0  0  0  0  0
   52.6570   22.1920   47.6470 S   0  0  0  0  0  0  0  0  0  0  0  0
   55.9690   25.8080   46.4260 N   0  0  0  0  0  0  0  0  0  0  0  0
   57.0100   26.7930   46.3480 C   0  0  0  0  0  0  0  0  0  0  0  0
   58.2520   26.5240   46.9230 C   0  0  0  0  0  0  0  0  0  0  0  0
   59.2920   27.4440   46.8060 C   0  0  0  0  0  0  0  0  0  0  0  0
   59.1040   28.6510   46.1270 C   0  0  0  0  0  0  0  0  0  0  0  0
   60.5040   29.7100   45.9860 Cl  0  0  0  0  0  0  0  0  0  0  0  0
   57.8370   28.9640   45.5750 C   0  0  0  0  0  0  0  0  0  0  0  0
   57.5250   30.4980   44.7190 S   0  0  0  0  0  0  0  0  0  0  0  0
   56.0830   30.8960   44.8680 O   0  0  0  0  0  0  0  0  0  0  0  0
   57.7650   30.2910   43.2500 O   0  0  0  0  0  0  0  0  0  0  0  0
   58.5300   31.8180   45.2880 N   0  0  0  0  0  0  0  0  0  0  0  0
   58.3810   33.0380   44.4760 C   0  0  0  0  0  0  0  0  0  0  0  0
   57.1650   33.9000   44.8960 C   0  0  0  0  0  0  0  0  0  0  0  0
   56.5460   33.4470   46.0830 O   0  0  0  0  0  0  0  0  0  0  0  0
   57.5200   33.2600   47.0840 C   0  0  0  0  0  0  0  0  0  0  0  0
   58.4200   32.0600   46.7430 C   0  0  0  0  0  0  0  0  0  0  0  0
   56.7900   28.0260   45.7070 C   0  0  0  0  0  0  0  0  0  0  0  0
   55.5220   28.3190   45.2150 O   0  0  0  0  0  0  0  0  0  0  0  0
   50.6327   23.8377   45.2114 H   0  0  0  0  0  0  0  0  0  0  0  0
   49.2008   22.3302   46.7865 H   0  0  0  0  0  0  0  0  0  0  0  0
   50.6406   21.0913   48.6119 H   0  0  0  0  0  0  0  0  0  0  0  0
   54.9880   26.1150   46.6080 H   0  0  0  0  0  0  0  0  0  0  0  0
   58.4109   25.5831   47.4703 H   0  0  0  0  0  0  0  0  0  0  0  0
   60.2714   27.2179   47.2528 H   0  0  0  0  0  0  0  0  0  0  0  0
   59.2932   33.6434   44.5824 H   0  0  0  0  0  0  0  0  0  0  0  0
   58.2166   32.7223   43.4352 H   0  0  0  0  0  0  0  0  0  0  0  0
   57.5064   34.9339   45.0522 H   0  0  0  0  0  0  0  0  0  0  0  0
   56.4194   33.8288   44.0903 H   0  0  0  0  0  0  0  0  0  0  0  0
   58.1388   34.1662   47.1607 H   0  0  0  0  0  0  0  0  0  0  0  0
   57.0137   33.0642   48.0407 H   0  0  0  0  0  0  0  0  0  0  0  0
   59.4263   32.2509   47.1441 H   0  0  0  0  0  0  0  0  0  0  0  0
   57.9628   31.1662   47.1926 H   0  0  0  0  0  0  0  0  0  0  0  0
  1  2  2  0
  2  3  1  0
  3  4  1  0
  4  5  2  0
  4  6  2  0
  4  7  1  0
  7  8  2  0
  8  9  1  0
  9 10  2  0
 10 11  1  0
  2 12  1  0
 12 13  1  0
 13 14  2  0
 14 15  1  0
 15 16  2  0
 16 17  1  0
 16 18  1  0
 18 19  1  0
 19 20  2  0
 19 21  2  0
 19 22  1  0
 22 23  1  0
 23 24  1  0
 24 25  1  0
 25 26  1  0
 26 27  1  0
 18 28  2  0
 28 29  1  0
 11  7  1  0
 28 13  1  0
 27 22  1  0
  8 30  1  0
  9 31  1  0
 10 32  1  0
 12 33  1  0
 14 34  1  0
 15 35  1  0
 23 36  1  0
 23 37  1  0
 24 38  1  0
 24 39  1  0
 26 40  1  0
 26 41  1  0
 27 42  1  0
 27 43  1  0
M  CHG  2   3  -1  29  -1
M  END
>  <UniqueID>  (42) 
41

>  <SMILES>  (42) 
O=C([N-]S(=O)(=O)c1cccs1)Nc1ccc(Cl)c(S(=O)(=O)N2CCOCC2)c1[O-]

>  <Energy>  (42) 
90.3838896805133

>  <Genealogy>  (42) 
O=C([N-]S(=O)(=O)c1cccs1)Nc1ccc(Cl)c(S(=O)(=O)N2CCOCC2)c1[O-] (protonated)
O=C([N-]S(=O)(=O)c1cccs1)Nc1ccc(Cl)c(S(=O)(=O)N2CCOCC2)c1[O-] (3D coordinates assigned)
O=C([N-]S(=O)(=O)c1cccs1)Nc1ccc(Cl)c(S(=O)(=O)N2CCOCC2)c1[O-] (nonaromatic ring conformer: 90.3838896805133 kcal/mol)

>  <smiles>  (42) 
O=C(Nc1ccc(Cl)c(S(=O)(=O)N2CCOCC2)c1O)NS(=O)(=O)c1cccs1

>  <score_type>  (42) 
oracle

>  <origin>  (42) 
adg

>  <m_score__min__energy>  (42) 
-14.720000000000001

>  <m_primary>  (42) 
energy

$$$$
43:0
     RDKit          3D

 61 64  0  0  0  0  0  0  0  0999 V2000
   58.7630   34.6180   45.1910 C   0  0  0  0  0  0  0  0  0  0  0  0
   58.9200   34.3400   46.6850 C   0  0  0  0  0  0  0  0  0  0  0  0
   59.7980   33.1880   46.9280 N   0  0  0  0  0  0  0  0  0  0  0  0
   61.2570   33.3580   46.8960 C   0  0  0  0  0  0  0  0  0  0  0  0
   61.8390   33.2900   48.2750 C   0  0  0  0  0  0  0  0  0  0  0  0
   63.1350   33.6140   48.6290 C   0  0  0  0  0  0  0  0  0  0  0  0
   63.2060   33.3160   49.9800 C   0  0  0  0  0  0  0  0  0  0  0  0
   64.4260   33.4280   50.8020 C   0  0  0  0  0  0  0  0  0  0  0  0
   64.7920   34.5670   51.1990 O   0  0  0  0  0  0  0  0  0  0  0  0
   65.1880   32.2660   51.1710 N   0  0  0  0  0  0  0  0  0  0  0  0
   64.4980   31.1130   51.7620 C   0  0  0  0  0  0  0  0  0  0  0  0
   65.3550   29.8500   51.6180 C   0  0  0  0  0  0  0  0  0  0  0  0
   66.6750   30.0750   52.0760 O   0  0  0  0  0  0  0  0  0  0  0  0
   67.3060   31.0390   51.2560 C   0  0  0  0  0  0  0  0  0  0  0  0
   66.6270   32.4020   51.4060 C   0  0  0  0  0  0  0  0  0  0  0  0
   62.0100   32.8270   50.3880 N   0  0  0  0  0  0  0  0  0  0  0  0
   61.6920   32.1890   51.6680 C   0  0  0  0  0  0  0  0  0  0  0  0
   60.7010   33.0390   52.4590 C   0  0  0  0  0  0  0  0  0  0  0  0
   60.0940   33.9590   51.6230 F   0  0  0  0  0  0  0  0  0  0  0  0
   61.3690   33.7120   53.4660 F   0  0  0  0  0  0  0  0  0  0  0  0
   61.1890   32.8070   49.3500 N   0  0  0  0  0  0  0  0  0  0  0  0
   59.2350   31.8890   47.1940 C   0  0  0  0  0  0  0  0  0  0  0  0
   58.5460   31.7080   48.2360 O   0  0  0  0  0  0  0  0  0  0  0  0
   59.4340   30.7410   46.2370 C   0  0  1  0  0  0  0  0  0  0  0  0
   59.9620   29.5050   46.9970 C   0  0  0  0  0  0  0  0  0  0  0  0
   60.0590   28.2710   46.0890 C   0  0  0  0  0  0  0  0  0  0  0  0
   58.7670   27.4440   46.0810 C   0  0  0  0  0  0  0  0  0  0  0  0
   57.5800   28.2240   46.2420 O   0  0  0  0  0  0  0  0  0  0  0  0
   57.3060   29.3860   45.5200 C   0  0  0  0  0  0  0  0  0  0  0  0
   56.1470   29.5150   44.8230 N   0  0  0  0  0  0  0  0  0  0  0  0
   56.0560   30.7050   44.1950 C   0  0  0  0  0  0  0  0  0  0  0  0
   57.4090   31.6530   44.5020 S   0  0  0  0  0  0  0  0  0  0  0  0
   58.1510   30.4990   45.4760 C   0  0  0  0  0  0  0  0  0  0  0  0
   58.2266   35.5678   45.0492 H   0  0  0  0  0  0  0  0  0  0  0  0
   59.7567   34.6848   44.7241 H   0  0  0  0  0  0  0  0  0  0  0  0
   58.1926   33.8015   44.7241 H   0  0  0  0  0  0  0  0  0  0  0  0
   59.3520   35.2275   47.1704 H   0  0  0  0  0  0  0  0  0  0  0  0
   57.9273   34.1114   47.1000 H   0  0  0  0  0  0  0  0  0  0  0  0
   61.6981   32.5603   46.2803 H   0  0  0  0  0  0  0  0  0  0  0  0
   61.4840   34.3463   46.4696 H   0  0  0  0  0  0  0  0  0  0  0  0
   63.9299   34.0171   47.9843 H   0  0  0  0  0  0  0  0  0  0  0  0
   64.3146   31.3075   52.8290 H   0  0  0  0  0  0  0  0  0  0  0  0
   63.5432   30.9597   51.2377 H   0  0  0  0  0  0  0  0  0  0  0  0
   64.9029   29.0398   52.2089 H   0  0  0  0  0  0  0  0  0  0  0  0
   65.3965   29.5755   50.5536 H   0  0  0  0  0  0  0  0  0  0  0  0
   68.3624   31.1273   51.5495 H   0  0  0  0  0  0  0  0  0  0  0  0
   67.2278   30.7177   50.2069 H   0  0  0  0  0  0  0  0  0  0  0  0
   66.7966   32.7849   52.4232 H   0  0  0  0  0  0  0  0  0  0  0  0
   67.0511   33.1026   50.6716 H   0  0  0  0  0  0  0  0  0  0  0  0
   61.2498   31.1997   51.4791 H   0  0  0  0  0  0  0  0  0  0  0  0
   62.6177   32.0859   52.2531 H   0  0  0  0  0  0  0  0  0  0  0  0
   59.9345   32.3815   52.8951 H   0  0  0  0  0  0  0  0  0  0  0  0
   60.2160   32.4250   49.3630 H   0  0  0  0  0  0  0  0  0  0  0  0
   60.2025   30.9806   45.4873 H   0  0  0  0  0  0  0  0  0  0  0  0
   60.9619   29.7329   47.3948 H   0  0  0  0  0  0  0  0  0  0  0  0
   59.2545   29.2762   47.8076 H   0  0  0  0  0  0  0  0  0  0  0  0
   60.2707   28.6043   45.0623 H   0  0  0  0  0  0  0  0  0  0  0  0
   60.8631   27.6306   46.4805 H   0  0  0  0  0  0  0  0  0  0  0  0
   58.7033   26.9101   45.1214 H   0  0  0  0  0  0  0  0  0  0  0  0
   58.8196   26.7606   46.9413 H   0  0  0  0  0  0  0  0  0  0  0  0
   55.2086   31.0140   43.5654 H   0  0  0  0  0  0  0  0  0  0  0  0
  1  2  1  0
  2  3  1  0
  3  4  1  0
  4  5  1  0
  5  6  1  0
  6  7  2  0
  7  8  1  0
  8  9  2  0
  8 10  1  0
 10 11  1  0
 11 12  1  0
 12 13  1  0
 13 14  1  0
 14 15  1  0
  7 16  1  0
 16 17  1  0
 17 18  1  0
 18 19  1  0
 18 20  1  0
 16 21  1  0
  3 22  1  0
 22 23  2  0
 22 24  1  0
 24 25  1  0
 25 26  1  0
 26 27  1  0
 27 28  1  0
 28 29  1  0
 29 30  1  0
 30 31  2  0
 31 32  1  0
 32 33  1  0
 21  5  2  0
 33 24  1  0
 15 10  1  0
 33 29  2  0
  1 34  1  0
  1 35  1  0
  1 36  1  0
  2 37  1  0
  2 38  1  0
  4 39  1  0
  4 40  1  0
  6 41  1  0
 11 42  1  0
 11 43  1  0
 12 44  1  0
 12 45  1  0
 14 46  1  0
 14 47  1  0
 15 48  1  0
 15 49  1  0
 17 50  1  0
 17 51  1  0
 18 52  1  0
 21 53  1  0
 24 54  1  6
 25 55  1  0
 25 56  1  0
 26 57  1  0
 26 58  1  0
 27 59  1  0
 27 60  1  0
 31 61  1  0
M  CHG  1  21   1
M  END
>  <UniqueID>  (43) 
42

>  <SMILES>  (43) 
CCN(Cc1cc(C(=O)N2CCOCC2)n(CC(F)F)[nH+]1)C(=O)[C@H]1CCCOc2ncsc21

>  <Energy>  (43) 
132.17326654997905

>  <Genealogy>  (43) 
CCN(Cc1cc(C(=O)N2CCOCC2)n(CC(F)F)[nH+]1)C(=O)C1CCCOc2ncsc21 (protonated)
CCN(Cc1cc(C(=O)N2CCOCC2)n(CC(F)F)[nH+]1)C(=O)[C@H]1CCCOc2ncsc21 (chirality)
CCN(Cc1cc(C(=O)N2CCOCC2)n(CC(F)F)[nH+]1)C(=O)[C@H]1CCCOc2ncsc21 (3D coordinates assigned)
CCN(Cc1cc(C(=O)N2CCOCC2)n(CC(F)F)[nH+]1)C(=O)[C@H]1CCCOc2ncsc21 (nonaromatic ring conformer: 132.17326654997905 kcal/mol)

>  <smiles>  (43) 
CCN(Cc1cc(C(=O)N2CCOCC2)n(CC(F)F)n1)C(=O)C1CCCOc2ncsc21

>  <score_type>  (43) 
oracle

>  <origin>  (43) 
adg

>  <m_score__min__energy>  (43) 
-3.8799999999999999

>  <m_primary>  (43) 
energy

$$$$
44:0
     RDKit          3D

 53 56  0  0  0  0  0  0  0  0999 V2000
   58.8600   35.0190   53.5890 C   0  0  0  0  0  0  0  0  0  0  0  0
   59.0350   34.0000   52.7510 C   0  0  0  0  0  0  0  0  0  0  0  0
   60.2960   33.8110   52.1050 N   0  0  0  0  0  0  0  0  0  0  0  0
   60.4850   32.8250   51.2790 C   0  0  0  0  0  0  0  0  0  0  0  0
   59.4020   31.8600   50.9720 C   0  0  0  0  0  0  0  0  0  0  0  0
   59.6700   30.7620   50.0090 C   0  0  0  0  0  0  0  0  0  0  0  0
   59.9050   29.4820   50.5090 C   0  0  0  0  0  0  0  0  0  0  0  0
   60.2130   28.4530   49.6280 C   0  0  0  0  0  0  0  0  0  0  0  0
   60.4330   27.3010   50.0940 O   0  0  0  0  0  0  0  0  0  0  0  0
   60.2780   28.6910   48.2800 N   0  0  0  0  0  0  0  0  0  0  0  0
   60.6550   27.6000   47.3560 C   0  0  0  0  0  0  0  0  0  0  0  0
   59.5420   27.3360   46.3750 C   0  0  0  0  0  0  0  0  0  0  0  0
   59.6780   27.7140   45.0310 C   0  0  0  0  0  0  0  0  0  0  0  0
   58.6320   27.5050   44.1300 C   0  0  0  0  0  0  0  0  0  0  0  0
   57.4390   26.9220   44.5630 C   0  0  0  0  0  0  0  0  0  0  0  0
   57.2790   26.5390   45.9060 C   0  0  0  0  0  0  0  0  0  0  0  0
   56.0100   25.9250   46.3660 C   0  0  0  0  0  0  0  0  0  0  0  0
   54.7650   26.3070   45.7830 N   0  0  0  0  0  0  0  0  0  0  0  0
   56.0180   25.0560   47.2790 O   0  0  0  0  0  0  0  0  0  0  0  0
   58.3400   26.7520   46.8070 C   0  0  0  0  0  0  0  0  0  0  0  0
   60.0360   29.9560   47.8000 C   0  0  0  0  0  0  0  0  0  0  0  0
   60.0740   30.1740   46.5550 O   0  0  0  0  0  0  0  0  0  0  0  0
   59.7360   30.9860   48.6570 N   0  0  0  0  0  0  0  0  0  0  0  0
   59.4580   32.2950   48.1190 C   0  0  0  0  0  0  0  0  0  0  0  0
   60.4480   33.2930   48.1340 C   0  0  0  0  0  0  0  0  0  0  0  0
   60.1820   34.5560   47.5960 C   0  0  0  0  0  0  0  0  0  0  0  0
   58.9270   34.8320   47.0450 C   0  0  0  0  0  0  0  0  0  0  0  0
   57.9360   33.8460   47.0330 C   0  0  0  0  0  0  0  0  0  0  0  0
   58.1990   32.5820   47.5680 C   0  0  0  0  0  0  0  0  0  0  0  0
   58.1960   31.9940   51.5570 C   0  0  0  0  0  0  0  0  0  0  0  0
   57.1730   31.0860   51.2430 O   0  0  0  0  0  0  0  0  0  0  0  0
   56.0430   30.8490   52.0720 C   0  0  0  0  0  0  0  0  0  0  0  0
   57.9720   33.0780   52.4790 N   0  0  0  0  0  0  0  0  0  0  0  0
   57.8888   35.1626   54.0851 H   0  0  0  0  0  0  0  0  0  0  0  0
   59.6866   35.7176   53.7856 H   0  0  0  0  0  0  0  0  0  0  0  0
   61.4672   32.7044   50.7987 H   0  0  0  0  0  0  0  0  0  0  0  0
   59.8471   29.2888   51.5903 H   0  0  0  0  0  0  0  0  0  0  0  0
   61.5627   27.8883   46.8056 H   0  0  0  0  0  0  0  0  0  0  0  0
   60.8415   26.6862   47.9392 H   0  0  0  0  0  0  0  0  0  0  0  0
   60.6137   28.1775   44.6850 H   0  0  0  0  0  0  0  0  0  0  0  0
   58.7478   27.8002   43.0767 H   0  0  0  0  0  0  0  0  0  0  0  0
   56.6187   26.7614   43.8479 H   0  0  0  0  0  0  0  0  0  0  0  0
   54.0000   26.7090   46.3690 H   0  0  0  0  0  0  0  0  0  0  0  0
   58.2261   26.4577   47.8608 H   0  0  0  0  0  0  0  0  0  0  0  0
   61.4350   33.0797   48.5703 H   0  0  0  0  0  0  0  0  0  0  0  0
   60.9607   35.3329   47.6063 H   0  0  0  0  0  0  0  0  0  0  0  0
   58.7193   35.8254   46.6207 H   0  0  0  0  0  0  0  0  0  0  0  0
   56.9480   34.0653   46.6019 H   0  0  0  0  0  0  0  0  0  0  0  0
   57.4165   31.8090   47.5573 H   0  0  0  0  0  0  0  0  0  0  0  0
   56.3435   30.9120   53.1283 H   0  0  0  0  0  0  0  0  0  0  0  0
   55.2711   31.6048   51.8646 H   0  0  0  0  0  0  0  0  0  0  0  0
   55.6399   29.8468   51.8646 H   0  0  0  0  0  0  0  0  0  0  0  0
   57.0450   33.2010   52.9460 H   0  0  0  0  0  0  0  0  0  0  0  0
  1  2  2  0
  2  3  1  0
  3  4  2  0
  4  5  1  0
  5  6  1  0
  6  7  2  0
  7  8  1  0
  8  9  2  0
  8 10  1  0
 10 11  1  0
 11 12  1  0
 12 13  2  0
 13 14  1  0
 14 15  2  0
 15 16  1  0
 16 17  1  0
 17 18  1  0
 17 19  2  0
 16 20  2  0
 10 21  1  0
 21 22  2  0
 21 23  1  0
 23 24  1  0
 24 25  2  0
 25 26  1  0
 26 27  2  0
 27 28  1  0
 28 29  2  0
  5 30  2  0
 30 31  1  0
 31 32  1  0
 30 33  1  0
 33  2  1  0
 23  6  1  0
 29 24  1  0
 20 12  1  0
  1 34  1  0
  1 35  1  0
  4 36  1  0
  7 37  1  0
 11 38  1  0
 11 39  1  0
 13 40  1  0
 14 41  1  0
 15 42  1  0
 18 43  1  0
 20 44  1  0
 25 45  1  0
 26 46  1  0
 27 47  1  0
 28 48  1  0
 29 49  1  0
 32 50  1  0
 32 51  1  0
 32 52  1  0
 33 53  1  0
M  CHG  1  18  -1
M  END
>  <UniqueID>  (44) 
43

>  <SMILES>  (44) 
C=C1N=CC(c2cc(=O)n(Cc3cccc(C([NH-])=O)c3)c(=O)n2-c2ccccc2)=C(OC)N1

>  <Energy>  (44) 
72.82819199331733

>  <Genealogy>  (44) 
C=C1N=CC(c2cc(=O)n(Cc3cccc(C([NH-])=O)c3)c(=O)n2-c2ccccc2)=C(OC)N1 (protonated)
C=C1N=CC(c2cc(=O)n(Cc3cccc(C([NH-])=O)c3)c(=O)n2-c2ccccc2)=C(OC)N1 (3D coordinates assigned)
C=C1N=CC(c2cc(=O)n(Cc3cccc(C([NH-])=O)c3)c(=O)n2-c2ccccc2)=C(OC)N1 (nonaromatic ring conformer: 72.82819199331733 kcal/mol)

>  <smiles>  (44) 
C=C1N=CC(c2cc(=O)n(Cc3cccc(C(N)=O)c3)c(=O)n2-c2ccccc2)=C(OC)N1

>  <score_type>  (44) 
oracle

>  <origin>  (44) 
adg

>  <m_score__min__energy>  (44) 
-11.869999999999999

>  <m_primary>  (44) 
energy

$$$$
45:0
     RDKit          3D

 53 55  0  0  0  0  0  0  0  0999 V2000
   58.0960   26.2680   46.9090 C   0  0  0  0  0  0  0  0  0  0  0  0
   58.0780   27.6000   46.1960 C   0  0  0  0  0  0  0  0  0  0  0  0
   57.0040   27.8810   45.3510 C   0  0  0  0  0  0  0  0  0  0  0  0
   56.9570   29.0980   44.6850 C   0  0  0  0  0  0  0  0  0  0  0  0
   55.9710   29.3470   43.9390 O   0  0  0  0  0  0  0  0  0  0  0  0
   57.9640   30.0110   44.8460 N   0  0  0  0  0  0  0  0  0  0  0  0
   57.8930   31.3170   44.1590 C   0  0  0  0  0  0  0  0  0  0  0  0
   57.5790   32.4360   45.1230 C   0  0  0  0  0  0  0  0  0  0  0  0
   56.4220   32.8150   45.2630 O   0  0  0  0  0  0  0  0  0  0  0  0
   58.6510   33.0640   45.8700 N   0  0  0  0  0  0  0  0  0  0  0  0
   58.1540   33.8490   47.0070 C   0  0  0  0  0  0  0  0  0  0  0  0
   59.2010   34.9170   47.2870 C   0  0  0  0  0  0  0  0  0  0  0  0
   60.0150   35.0350   46.0050 C   0  0  0  0  0  0  0  0  0  0  0  0
   59.4310   34.0000   45.0510 C   0  0  0  0  0  0  0  0  0  0  0  0
   59.0100   29.7340   45.6930 C   0  0  0  0  0  0  0  0  0  0  0  0
   59.9070   30.6050   45.8780 O   0  0  0  0  0  0  0  0  0  0  0  0
   59.0870   28.5240   46.3470 N   0  0  0  0  0  0  0  0  0  0  0  0
   60.2300   28.2570   47.2480 C   0  0  0  0  0  0  0  0  0  0  0  0
   60.0500   28.9790   48.5590 C   0  0  0  0  0  0  0  0  0  0  0  0
   60.8520   28.7460   49.5020 O   0  0  0  0  0  0  0  0  0  0  0  0
   59.0230   29.9610   48.7520 N   0  0  0  0  0  0  0  0  0  0  0  0
   59.1300   31.1410   49.5600 C   0  0  0  0  0  0  0  0  0  0  0  0
   58.3700   31.2210   50.7340 C   0  0  0  0  0  0  0  0  0  0  0  0
   58.4440   32.3520   51.5470 C   0  0  0  0  0  0  0  0  0  0  0  0
   59.2660   33.4200   51.1860 C   0  0  0  0  0  0  0  0  0  0  0  0
   60.0040   33.3670   50.0010 C   0  0  0  0  0  0  0  0  0  0  0  0
   59.9330   32.2330   49.1670 C   0  0  0  0  0  0  0  0  0  0  0  0
   60.6190   32.1670   47.9440 O   0  0  0  0  0  0  0  0  0  0  0  0
   62.0310   32.0350   47.8040 C   0  0  0  0  0  0  0  0  0  0  0  0
   62.5100   33.0910   47.0550 F   0  0  0  0  0  0  0  0  0  0  0  0
   62.3310   30.8520   47.1530 F   0  0  0  0  0  0  0  0  0  0  0  0
   58.0938   26.4341   47.9964 H   0  0  0  0  0  0  0  0  0  0  0  0
   57.2056   25.6879   46.6249 H   0  0  0  0  0  0  0  0  0  0  0  0
   59.0017   25.7122   46.6249 H   0  0  0  0  0  0  0  0  0  0  0  0
   56.1999   27.1431   45.2135 H   0  0  0  0  0  0  0  0  0  0  0  0
   58.8614   31.5208   43.6788 H   0  0  0  0  0  0  0  0  0  0  0  0
   57.0865   31.2696   43.4125 H   0  0  0  0  0  0  0  0  0  0  0  0
   59.3020   32.3290   46.2390 H   0  0  0  0  0  0  0  0  0  0  0  0
   57.1918   34.3178   46.7532 H   0  0  0  0  0  0  0  0  0  0  0  0
   57.9909   33.2118   47.8887 H   0  0  0  0  0  0  0  0  0  0  0  0
   58.7177   35.8760   47.5252 H   0  0  0  0  0  0  0  0  0  0  0  0
   59.8323   34.6536   48.1484 H   0  0  0  0  0  0  0  0  0  0  0  0
   59.9188   36.0454   45.5809 H   0  0  0  0  0  0  0  0  0  0  0  0
   61.0862   34.8625   46.1861 H   0  0  0  0  0  0  0  0  0  0  0  0
   58.7802   34.4902   44.3119 H   0  0  0  0  0  0  0  0  0  0  0  0
   60.2263   33.4761   44.5005 H   0  0  0  0  0  0  0  0  0  0  0  0
   60.2969   27.1754   47.4368 H   0  0  0  0  0  0  0  0  0  0  0  0
   61.1522   28.6164   46.7681 H   0  0  0  0  0  0  0  0  0  0  0  0
   57.7109   30.3869   51.0165 H   0  0  0  0  0  0  0  0  0  0  0  0
   57.8536   32.4020   52.4738 H   0  0  0  0  0  0  0  0  0  0  0  0
   59.3331   34.3052   51.8355 H   0  0  0  0  0  0  0  0  0  0  0  0
   60.6442   34.2153   49.7172 H   0  0  0  0  0  0  0  0  0  0  0  0
   62.4961   32.0324   48.8008 H   0  0  0  0  0  0  0  0  0  0  0  0
  1  2  1  0
  2  3  2  0
  3  4  1  0
  4  5  2  0
  4  6  1  0
  6  7  1  0
  7  8  1  0
  8  9  2  0
  8 10  1  0
 10 11  1  0
 11 12  1  0
 12 13  1  0
 13 14  1  0
  6 15  1  0
 15 16  2  0
 15 17  1  0
 17 18  1  0
 18 19  1  0
 19 20  2  0
 19 21  1  0
 21 22  1  0
 22 23  2  0
 23 24  1  0
 24 25  2  0
 25 26  1  0
 26 27  2  0
 27 28  1  0
 28 29  1  0
 29 30  1  0
 29 31  1  0
 17  2  1  0
 27 22  1  0
 14 10  1  0
  1 32  1  0
  1 33  1  0
  1 34  1  0
  3 35  1  0
  7 36  1  0
  7 37  1  0
 10 38  1  0
 11 39  1  0
 11 40  1  0
 12 41  1  0
 12 42  1  0
 13 43  1  0
 13 44  1  0
 14 45  1  0
 14 46  1  0
 18 47  1  0
 18 48  1  0
 23 49  1  0
 24 50  1  0
 25 51  1  0
 26 52  1  0
 29 53  1  0
M  CHG  2  10   1  21  -1
M  END
>  <UniqueID>  (45) 
44

>  <SMILES>  (45) 
Cc1cc(=O)n(CC(=O)[NH+]2CCCC2)c(=O)n1CC(=O)[N-]c1ccccc1OC(F)F

>  <Energy>  (45) 
70.24099159812252

>  <Genealogy>  (45) 
Cc1cc(=O)n(CC(=O)[NH+]2CCCC2)c(=O)n1CC(=O)[N-]c1ccccc1OC(F)F (protonated)
Cc1cc(=O)n(CC(=O)[NH+]2CCCC2)c(=O)n1CC(=O)[N-]c1ccccc1OC(F)F (3D coordinates assigned)
Cc1cc(=O)n(CC(=O)[NH+]2CCCC2)c(=O)n1CC(=O)[N-]c1ccccc1OC(F)F (nonaromatic ring conformer: 70.24099159812252 kcal/mol)

>  <smiles>  (45) 
Cc1cc(=O)n(CC(=O)N2CCCC2)c(=O)n1CC(=O)Nc1ccccc1OC(F)F

>  <score_type>  (45) 
oracle

>  <origin>  (45) 
adg

>  <m_score__min__energy>  (45) 
-10.16

>  <m_primary>  (45) 
energy

$$$$
46:0
     RDKit          3D

 52 55  0  0  0  0  0  0  0  0999 V2000
   67.3160   31.0880   50.4610 H   0  0  0  0  0  0  0  0  0  0  0  0
   66.3730   31.2360   50.1220 O   0  0  0  0  0  0  0  0  0  0  0  0
   65.6060   32.3350   50.5100 C   0  0  0  0  0  0  0  0  0  0  0  0
   64.2830   32.4250   50.0620 C   0  0  0  0  0  0  0  0  0  0  0  0
   63.8732   31.6337   49.4171 H   0  0  0  0  0  0  0  0  0  0  0  0
   63.4700   33.5150   50.4260 C   0  0  0  0  0  0  0  0  0  0  0  0
   62.0680   33.6010   49.9460 C   0  0  0  0  0  0  0  0  0  0  0  0
   61.0770   33.2300   50.6960 N   0  0  0  0  0  0  0  0  0  0  0  0
   59.8220   33.3730   50.0590 C   0  0  0  0  0  0  0  0  0  0  0  0
   58.7410   33.1490   50.6640 O   0  0  0  0  0  0  0  0  0  0  0  0
   59.9240   33.8650   48.6900 C   0  0  0  0  0  0  0  0  0  0  0  0
   58.9330   34.0840   47.8140 C   0  0  0  0  0  0  0  0  0  0  0  0
   58.3179   34.9848   47.9560 H   0  0  0  0  0  0  0  0  0  0  0  0
   58.6060   33.2070   46.6740 C   0  0  0  0  0  0  0  0  0  0  0  0
   58.0020   33.7540   45.5340 C   0  0  0  0  0  0  0  0  0  0  0  0
   57.7392   34.8219   45.5127 H   0  0  0  0  0  0  0  0  0  0  0  0
   57.7320   32.9490   44.4240 C   0  0  0  0  0  0  0  0  0  0  0  0
   57.2397   33.3845   43.5420 H   0  0  0  0  0  0  0  0  0  0  0  0
   58.0820   31.5940   44.4240 C   0  0  0  0  0  0  0  0  0  0  0  0
   57.7910   30.8330   43.2790 O   0  0  0  0  0  0  0  0  0  0  0  0
   56.9610   29.6720   43.2510 C   0  0  0  0  0  0  0  0  0  0  0  0
   56.4153   29.6405   42.2964 H   0  0  0  0  0  0  0  0  0  0  0  0
   57.5954   28.7795   43.3558 H   0  0  0  0  0  0  0  0  0  0  0  0
   55.9780   29.7010   44.3790 C   0  0  0  0  0  0  0  0  0  0  0  0
   55.3070   30.7460   44.5930 O   0  0  0  0  0  0  0  0  0  0  0  0
   55.8550   28.5630   45.2400 N   0  0  0  0  0  0  0  0  0  0  0  0
   56.8920   27.6190   45.5440 C   0  0  0  0  0  0  0  0  0  0  0  0
   56.6070   26.2810   45.8780 C   0  0  0  0  0  0  0  0  0  0  0  0
   55.5627   25.9398   45.9329 H   0  0  0  0  0  0  0  0  0  0  0  0
   57.6480   25.3850   46.1400 C   0  0  0  0  0  0  0  0  0  0  0  0
   57.4203   24.3434   46.4105 H   0  0  0  0  0  0  0  0  0  0  0  0
   58.9780   25.8100   46.0590 C   0  0  0  0  0  0  0  0  0  0  0  0
   59.9850   24.9400   46.3120 F   0  0  0  0  0  0  0  0  0  0  0  0
   59.2660   27.1320   45.7060 C   0  0  0  0  0  0  0  0  0  0  0  0
   60.3117   27.4660   45.6361 H   0  0  0  0  0  0  0  0  0  0  0  0
   58.2290   28.0290   45.4420 C   0  0  0  0  0  0  0  0  0  0  0  0
   58.4625   29.0641   45.1521 H   0  0  0  0  0  0  0  0  0  0  0  0
   58.7120   31.0490   45.5590 C   0  0  0  0  0  0  0  0  0  0  0  0
   58.9923   29.9854   45.5720 H   0  0  0  0  0  0  0  0  0  0  0  0
   58.9830   31.8540   46.6700 C   0  0  0  0  0  0  0  0  0  0  0  0
   59.4938   31.4255   47.5449 H   0  0  0  0  0  0  0  0  0  0  0  0
   61.6290   34.2300   48.3020 S   0  0  0  0  0  0  0  0  0  0  0  0
   64.0140   34.5150   51.2500 C   0  0  0  0  0  0  0  0  0  0  0  0
   63.3939   35.3746   51.5443 H   0  0  0  0  0  0  0  0  0  0  0  0
   65.3330   34.4290   51.6990 C   0  0  0  0  0  0  0  0  0  0  0  0
   65.7422   35.2207   52.3438 H   0  0  0  0  0  0  0  0  0  0  0  0
   66.1430   33.3390   51.3340 C   0  0  0  0  0  0  0  0  0  0  0  0
   67.4740   33.2220   51.7670 O   0  0  0  0  0  0  0  0  0  0  0  0
   68.5750   33.9170   51.1910 C   0  0  0  0  0  0  0  0  0  0  0  0
   69.2133   34.3200   51.9911 H   0  0  0  0  0  0  0  0  0  0  0  0
   69.1606   33.2245   50.5684 H   0  0  0  0  0  0  0  0  0  0  0  0
   68.2017   34.7435   50.5684 H   0  0  0  0  0  0  0  0  0  0  0  0
  1  2  1  0
  2  3  1  0
  3  4  2  0
  4  5  1  0
  4  6  1  0
  6  7  1  0
  7  8  2  0
  8  9  1  0
  9 10  2  0
  9 11  1  0
 11 12  2  0
 12 13  1  0
 12 14  1  0
 14 15  2  0
 15 16  1  0
 15 17  1  0
 17 18  1  0
 17 19  2  0
 19 20  1  0
 20 21  1  0
 21 22  1  0
 21 23  1  0
 21 24  1  0
 24 25  2  0
 24 26  1  0
 26 27  1  0
 27 28  2  0
 28 29  1  0
 28 30  1  0
 30 31  1  0
 30 32  2  0
 32 33  1  0
 32 34  1  0
 34 35  1  0
 34 36  2  0
 36 37  1  0
 19 38  1  0
 38 39  1  0
 38 40  2  0
 40 41  1  0
 11 42  1  0
  6 43  2  0
 43 44  1  0
 43 45  1  0
 45 46  1  0
 45 47  2  0
 47 48  1  0
 48 49  1  0
 49 50  1  0
 49 51  1  0
 49 52  1  0
 47  3  1  0
 42  7  1  0
 40 14  1  0
 36 27  1  0
M  CHG  1  26  -1
M  END
>  <UniqueID>  (46) 
45

>  <SMILES>  (46) 
COc1ccc(C2=NC(=O)/C(=C\c3ccc(OCC(=O)[N-]c4ccc(F)cc4)cc3)S2)cc1O

>  <Energy>  (46) 
86.86093661319197

>  <Genealogy>  (46) 
COc1ccc(C2=NC(=O)C(=Cc3ccc(OCC(=O)[N-]c4ccc(F)cc4)cc3)S2)cc1O (protonated)
COc1ccc(C2=NC(=O)/C(=C\c3ccc(OCC(=O)[N-]c4ccc(F)cc4)cc3)S2)cc1O (cis-trans isomerization)
COc1ccc(C2=NC(=O)/C(=C\c3ccc(OCC(=O)[N-]c4ccc(F)cc4)cc3)S2)cc1O (3D coordinates assigned)
COc1ccc(C2=NC(=O)/C(=C\c3ccc(OCC(=O)[N-]c4ccc(F)cc4)cc3)S2)cc1O (nonaromatic ring conformer: 86.86093661319197 kcal/mol)

>  <smiles>  (46) 
COc1ccc(C2=NC(=O)C(=Cc3ccc(OCC(=O)Nc4ccc(F)cc4)cc3)S2)cc1O

>  <score_type>  (46) 
oracle

>  <origin>  (46) 
adg

>  <m_score__min__energy>  (46) 
-11.09

>  <m_primary>  (46) 
energy

$$$$
47:0
     RDKit          3D

 43 45  0  0  0  0  0  0  0  0999 V2000
   60.0680   29.6580   52.4150 C   0  0  0  0  0  0  0  0  0  0  0  0
   59.6580   29.9530   50.7100 S   0  0  0  0  0  0  0  0  0  0  0  0
   58.1780   29.7950   50.5100 O   0  0  0  0  0  0  0  0  0  0  0  0
   60.3730   28.9510   49.8480 O   0  0  0  0  0  0  0  0  0  0  0  0
   60.1390   31.5880   50.2710 C   0  0  0  0  0  0  0  0  0  0  0  0
   59.2230   32.6460   50.3510 C   0  0  0  0  0  0  0  0  0  0  0  0
   59.6060   33.9340   49.9690 C   0  0  0  0  0  0  0  0  0  0  0  0
   60.9030   34.1750   49.5080 C   0  0  0  0  0  0  0  0  0  0  0  0
   61.8320   33.1250   49.4350 C   0  0  0  0  0  0  0  0  0  0  0  0
   63.2100   33.3740   48.8920 C   0  0  0  0  0  0  0  0  0  0  0  0
   63.4720   32.3440   47.4120 S   0  0  0  0  0  0  0  0  0  0  0  0
   61.7760   32.4970   46.8660 C   0  0  0  0  0  0  0  0  0  0  0  0
   61.2710   33.7150   46.5520 N   0  0  0  0  0  0  0  0  0  0  0  0
   59.9850   33.8560   46.1430 C   0  0  0  0  0  0  0  0  0  0  0  0
   59.5470   35.0060   45.8710 O   0  0  0  0  0  0  0  0  0  0  0  0
   59.1560   32.7280   46.0330 C   0  0  0  0  0  0  0  0  0  0  0  0
   57.7650   32.8870   45.6670 C   0  0  0  0  0  0  0  0  0  0  0  0
   56.6530   33.0140   45.3740 N   0  0  0  0  0  0  0  0  0  0  0  0
   59.7040   31.4660   46.3480 C   0  0  0  0  0  0  0  0  0  0  0  0
   58.9240   30.2090   46.2600 C   0  0  0  0  0  0  0  0  0  0  0  0
   58.1370   29.9570   45.1270 C   0  0  0  0  0  0  0  0  0  0  0  0
   57.3720   28.7900   45.0400 C   0  0  0  0  0  0  0  0  0  0  0  0
   57.3690   27.8610   46.0950 C   0  0  0  0  0  0  0  0  0  0  0  0
   56.5480   26.6330   46.0150 C   0  0  0  0  0  0  0  0  0  0  0  0
   57.0930   25.4970   46.0200 O   0  0  0  0  0  0  0  0  0  0  0  0
   55.1630   26.7160   45.9300 O   0  0  0  0  0  0  0  0  0  0  0  0
   58.1450   28.1220   47.2350 C   0  0  0  0  0  0  0  0  0  0  0  0
   58.9110   29.2890   47.3200 C   0  0  0  0  0  0  0  0  0  0  0  0
   60.9950   31.3920   46.7680 N   0  0  0  0  0  0  0  0  0  0  0  0
   61.4390   31.8290   49.8040 C   0  0  0  0  0  0  0  0  0  0  0  0
   59.3454   30.1779   53.0611 H   0  0  0  0  0  0  0  0  0  0  0  0
   60.0316   28.5777   52.6193 H   0  0  0  0  0  0  0  0  0  0  0  0
   61.0807   30.0358   52.6193 H   0  0  0  0  0  0  0  0  0  0  0  0
   58.2014   32.4619   50.7150 H   0  0  0  0  0  0  0  0  0  0  0  0
   58.8840   34.7615   50.0313 H   0  0  0  0  0  0  0  0  0  0  0  0
   61.1967   35.1898   49.2016 H   0  0  0  0  0  0  0  0  0  0  0  0
   63.3123   34.4357   48.6231 H   0  0  0  0  0  0  0  0  0  0  0  0
   63.9583   33.1167   49.6561 H   0  0  0  0  0  0  0  0  0  0  0  0
   58.1215   30.6829   44.3006 H   0  0  0  0  0  0  0  0  0  0  0  0
   56.7688   28.5976   44.1405 H   0  0  0  0  0  0  0  0  0  0  0  0
   58.1507   27.4033   48.0678 H   0  0  0  0  0  0  0  0  0  0  0  0
   59.5070   29.4871   48.2231 H   0  0  0  0  0  0  0  0  0  0  0  0
   62.1550   30.9976   49.7264 H   0  0  0  0  0  0  0  0  0  0  0  0
  1  2  1  0
  2  3  2  0
  2  4  2  0
  2  5  1  0
  5  6  2  0
  6  7  1  0
  7  8  2  0
  8  9  1  0
  9 10  1  0
 10 11  1  0
 11 12  1  0
 12 13  2  0
 13 14  1  0
 14 15  2  0
 14 16  1  0
 16 17  1  0
 17 18  3  0
 16 19  2  0
 19 20  1  0
 20 21  2  0
 21 22  1  0
 22 23  2  0
 23 24  1  0
 24 25  2  0
 24 26  1  0
 23 27  1  0
 27 28  2  0
 19 29  1  0
  9 30  2  0
 30  5  1  0
 29 12  1  0
 28 20  1  0
  1 31  1  0
  1 32  1  0
  1 33  1  0
  6 34  1  0
  7 35  1  0
  8 36  1  0
 10 37  1  0
 10 38  1  0
 21 39  1  0
 22 40  1  0
 27 41  1  0
 28 42  1  0
 30 43  1  0
M  CHG  2  26  -1  29  -1
M  END
>  <UniqueID>  (47) 
46

>  <SMILES>  (47) 
CS(=O)(=O)c1cccc(CSc2nc(=O)c(C#N)c(-c3ccc(C(=O)[O-])cc3)[n-]2)c1

>  <Energy>  (47) 
47.253390151183886

>  <Genealogy>  (47) 
CS(=O)(=O)c1cccc(CSc2nc(=O)c(C#N)c(-c3ccc(C(=O)[O-])cc3)[n-]2)c1 (protonated)
CS(=O)(=O)c1cccc(CSc2nc(=O)c(C#N)c(-c3ccc(C(=O)[O-])cc3)[n-]2)c1 (3D coordinates assigned)
CS(=O)(=O)c1cccc(CSc2nc(=O)c(C#N)c(-c3ccc(C(=O)[O-])cc3)[n-]2)c1 (optimized conformer: 47.253390151183886 kcal/mol)

>  <smiles>  (47) 
CS(=O)(=O)c1cccc(CSc2nc(=O)c(C#N)c(-c3ccc(C(=O)O)cc3)[nH]2)c1

>  <score_type>  (47) 
oracle

>  <origin>  (47) 
adg

>  <m_score__min__energy>  (47) 
-11.42

>  <m_primary>  (47) 
energy

$$$$
48:0
     RDKit          3D

 38 40  0  0  0  0  0  0  0  0999 V2000
   56.6050   29.2700   44.2060 C   0  0  0  0  0  0  0  0  0  0  0  0
   57.3190   29.0500   45.3120 C   0  0  0  0  0  0  0  0  0  0  0  0
   57.6000   30.0190   46.1540 O   0  0  0  0  0  0  0  0  0  0  0  0
   58.3850   29.5540   47.0970 C   0  0  0  0  0  0  0  0  0  0  0  0
   58.8770   30.3710   48.2180 C   0  0  0  0  0  0  0  0  0  0  0  0
   58.3510   30.2220   49.3530 O   0  0  0  0  0  0  0  0  0  0  0  0
   59.9360   31.3310   48.0460 N   0  0  0  0  0  0  0  0  0  0  0  0
   60.8930   31.5330   49.1400 C   0  0  0  0  0  0  0  0  0  0  0  0
   62.2430   32.0090   48.5930 C   0  0  0  0  0  0  0  0  0  0  0  0
   62.0800   33.0940   47.6140 N   0  0  0  0  0  0  0  0  0  0  0  0
   63.2330   33.7880   47.1140 C   0  0  0  0  0  0  0  0  0  0  0  0
   64.3940   33.4360   47.4510 O   0  0  0  0  0  0  0  0  0  0  0  0
   60.7400   33.5260   47.2020 C   0  0  0  0  0  0  0  0  0  0  0  0
   59.8520   32.3060   46.9450 C   0  0  0  0  0  0  0  0  0  0  0  0
   58.6320   28.2110   46.8870 C   0  0  0  0  0  0  0  0  0  0  0  0
   57.9260   27.8640   45.7490 C   0  0  0  0  0  0  0  0  0  0  0  0
   57.8850   26.6100   45.2610 C   0  0  0  0  0  0  0  0  0  0  0  0
   57.1900   25.4740   45.8810 C   0  0  0  0  0  0  0  0  0  0  0  0
   57.8210   24.3740   46.3280 N   0  0  0  0  0  0  0  0  0  0  0  0
   56.8310   23.6610   46.9080 C   0  0  0  0  0  0  0  0  0  0  0  0
   57.0280   22.5380   47.4400 O   0  0  0  0  0  0  0  0  0  0  0  0
   55.6180   24.2520   46.8850 N   0  0  0  0  0  0  0  0  0  0  0  0
   55.8610   25.4060   46.2450 C   0  0  0  0  0  0  0  0  0  0  0  0
   54.8900   26.3790   46.0250 O   0  0  0  0  0  0  0  0  0  0  0  0
   56.3850   28.4395   43.5191 H   0  0  0  0  0  0  0  0  0  0  0  0
   56.2366   30.2818   43.9814 H   0  0  0  0  0  0  0  0  0  0  0  0
   60.4962   32.2898   49.8326 H   0  0  0  0  0  0  0  0  0  0  0  0
   61.0394   30.5774   49.6648 H   0  0  0  0  0  0  0  0  0  0  0  0
   62.8585   32.3725   49.4291 H   0  0  0  0  0  0  0  0  0  0  0  0
   62.7272   31.1604   48.0876 H   0  0  0  0  0  0  0  0  0  0  0  0
   63.1005   34.6377   46.4281 H   0  0  0  0  0  0  0  0  0  0  0  0
   60.2942   34.1396   47.9987 H   0  0  0  0  0  0  0  0  0  0  0  0
   60.8195   34.1157   46.2769 H   0  0  0  0  0  0  0  0  0  0  0  0
   58.8088   32.6394   46.8425 H   0  0  0  0  0  0  0  0  0  0  0  0
   60.2006   31.8153   46.0243 H   0  0  0  0  0  0  0  0  0  0  0  0
   59.2626   27.5509   47.5007 H   0  0  0  0  0  0  0  0  0  0  0  0
   58.4174   26.4198   44.3174 H   0  0  0  0  0  0  0  0  0  0  0  0
   54.2370   26.6500   46.7520 H   0  0  0  0  0  0  0  0  0  0  0  0
  1  2  2  0
  2  3  1  0
  3  4  1  0
  4  5  1  0
  5  6  2  0
  5  7  1  0
  7  8  1  0
  8  9  1  0
  9 10  1  0
 10 11  1  0
 11 12  2  0
 10 13  1  0
 13 14  1  0
  4 15  2  0
 15 16  1  0
 16 17  2  3
 17 18  1  0
 18 19  1  0
 19 20  1  0
 20 21  2  0
 20 22  1  0
 22 23  1  0
 23 24  1  0
 16  2  1  0
 23 18  2  0
 14  7  1  0
  1 25  1  0
  1 26  1  0
  8 27  1  0
  8 28  1  0
  9 29  1  0
  9 30  1  0
 11 31  1  0
 13 32  1  0
 13 33  1  0
 14 34  1  0
 14 35  1  0
 15 36  1  0
 17 37  1  0
 24 38  1  0
M  CHG  2  19  -1  22  -1
M  END
>  <UniqueID>  (48) 
47

>  <SMILES>  (48) 
C=c1oc(C(=O)N2CCN(C=O)CC2)cc1=Cc1[n-]c(=O)[n-]c1O

>  <Energy>  (48) 
108.59551812562594

>  <Genealogy>  (48) 
C=c1oc(C(=O)N2CCN(C=O)CC2)cc1=Cc1[n-]c(=O)[n-]c1O (protonated)
C=c1oc(C(=O)N2CCN(C=O)CC2)cc1=Cc1[n-]c(=O)[n-]c1O (3D coordinates assigned)
C=c1oc(C(=O)N2CCN(C=O)CC2)cc1=Cc1[n-]c(=O)[n-]c1O (nonaromatic ring conformer: 108.59551812562594 kcal/mol)

>  <smiles>  (48) 
C=c1oc(C(=O)N2CCN(C=O)CC2)cc1=Cc1[nH]c(=O)[nH]c1O

>  <score_type>  (48) 
oracle

>  <origin>  (48) 
adg

>  <m_score__min__energy>  (48) 
-11.880000000000001

>  <m_primary>  (48) 
energy

$$$$
49:0
     RDKit          3D

 62 66  0  0  0  0  0  0  0  0999 V2000
   57.3880   28.0110   46.9380 O   0  0  0  0  0  0  0  0  0  0  0  0
   58.1980   27.0460   46.9420 C   0  0  0  0  0  0  0  0  0  0  0  0
   59.3760   27.0970   47.7680 N   0  0  0  0  0  0  0  0  0  0  0  0
   59.9070   28.3140   48.3190 C   0  0  0  0  0  0  0  0  0  0  0  0
   60.6870   28.2630   49.4830 C   0  0  0  0  0  0  0  0  0  0  0  0
   61.2130   29.4330   50.0330 C   0  0  0  0  0  0  0  0  0  0  0  0
   60.9770   30.6670   49.4200 C   0  0  0  0  0  0  0  0  0  0  0  0
   60.2290   30.7370   48.2330 C   0  0  0  0  0  0  0  0  0  0  0  0
   59.9780   32.0440   47.5780 C   0  0  0  0  0  0  0  0  0  0  0  0
   59.0970   32.1400   46.5680 C   0  0  0  0  0  0  0  0  0  0  0  0
   58.7700   33.4090   45.9680 N   0  0  0  0  0  0  0  0  0  0  0  0
   57.7720   33.4610   44.8930 C   0  0  0  0  0  0  0  0  0  0  0  0
   57.0670   32.1080   44.7180 C   0  0  0  0  0  0  0  0  0  0  0  0
   57.6860   31.3190   43.6260 N   0  0  0  0  0  0  0  0  0  0  0  0
   58.5340   30.2130   44.1350 C   0  0  0  0  0  0  0  0  0  0  0  0
   57.7540   28.8870   44.2620 C   0  0  0  0  0  0  0  0  0  0  0  0
   56.3810   29.1360   44.4810 O   0  0  0  0  0  0  0  0  0  0  0  0
   55.7960   29.7140   43.3260 C   0  0  0  0  0  0  0  0  0  0  0  0
   56.6780   30.8090   42.6770 C   0  0  0  0  0  0  0  0  0  0  0  0
   59.4960   34.6300   46.3420 C   0  0  0  0  0  0  0  0  0  0  0  0
   59.9840   34.5460   47.7880 C   0  0  0  0  0  0  0  0  0  0  0  0
   60.7770   33.2560   48.0010 C   0  0  0  0  0  0  0  0  0  0  0  0
   59.7000   29.5530   47.6860 C   0  0  0  0  0  0  0  0  0  0  0  0
   57.9100   25.8640   46.1050 C   0  0  0  0  0  0  0  0  0  0  0  0
   58.4690   24.5940   46.2630 C   0  0  0  0  0  0  0  0  0  0  0  0
   57.9410   23.8430   45.2360 C   0  0  0  0  0  0  0  0  0  0  0  0
   58.1580   22.5120   44.8820 C   0  0  0  0  0  0  0  0  0  0  0  0
   57.4920   22.0190   43.7460 C   0  0  0  0  0  0  0  0  0  0  0  0
   56.6330   22.8570   43.0010 C   0  0  0  0  0  0  0  0  0  0  0  0
   56.4370   24.1980   43.3830 C   0  0  0  0  0  0  0  0  0  0  0  0
   57.1100   24.6570   44.5130 C   0  0  0  0  0  0  0  0  0  0  0  0
   57.0820   25.8950   45.0320 N   0  0  0  0  0  0  0  0  0  0  0  0
   59.8060   26.1960   48.0770 H   0  0  0  0  0  0  0  0  0  0  0  0
   60.8856   27.2948   49.9658 H   0  0  0  0  0  0  0  0  0  0  0  0
   61.8154   29.3839   50.9521 H   0  0  0  0  0  0  0  0  0  0  0  0
   61.3788   31.5873   49.8691 H   0  0  0  0  0  0  0  0  0  0  0  0
   58.6133   31.2274   46.1897 H   0  0  0  0  0  0  0  0  0  0  0  0
   57.0213   34.2268   45.1381 H   0  0  0  0  0  0  0  0  0  0  0  0
   58.2877   33.7071   43.9531 H   0  0  0  0  0  0  0  0  0  0  0  0
   57.1411   31.5405   45.6574 H   0  0  0  0  0  0  0  0  0  0  0  0
   56.0141   32.2943   44.4599 H   0  0  0  0  0  0  0  0  0  0  0  0
   59.3746   30.0638   43.4413 H   0  0  0  0  0  0  0  0  0  0  0  0
   58.8860   30.4936   45.1387 H   0  0  0  0  0  0  0  0  0  0  0  0
   57.8727   28.3077   43.3345 H   0  0  0  0  0  0  0  0  0  0  0  0
   58.1525   28.3221   45.1176 H   0  0  0  0  0  0  0  0  0  0  0  0
   55.6252   28.9186   42.5856 H   0  0  0  0  0  0  0  0  0  0  0  0
   54.8580   30.1946   43.6409 H   0  0  0  0  0  0  0  0  0  0  0  0
   57.1923   30.3831   41.8028 H   0  0  0  0  0  0  0  0  0  0  0  0
   56.0288   31.6452   42.3781 H   0  0  0  0  0  0  0  0  0  0  0  0
   60.3620   34.7539   45.6751 H   0  0  0  0  0  0  0  0  0  0  0  0
   58.8158   35.4893   46.2473 H   0  0  0  0  0  0  0  0  0  0  0  0
   60.6295   35.4099   48.0049 H   0  0  0  0  0  0  0  0  0  0  0  0
   59.1147   34.5497   48.4621 H   0  0  0  0  0  0  0  0  0  0  0  0
   61.7013   33.3012   47.4064 H   0  0  0  0  0  0  0  0  0  0  0  0
   61.0078   33.1631   49.0725 H   0  0  0  0  0  0  0  0  0  0  0  0
   59.1184   29.5970   46.7534 H   0  0  0  0  0  0  0  0  0  0  0  0
   59.1766   24.2651   47.0384 H   0  0  0  0  0  0  0  0  0  0  0  0
   58.8279   21.8690   45.4718 H   0  0  0  0  0  0  0  0  0  0  0  0
   57.6409   20.9743   43.4356 H   0  0  0  0  0  0  0  0  0  0  0  0
   56.1137   22.4594   42.1166 H   0  0  0  0  0  0  0  0  0  0  0  0
   55.7742   24.8614   42.8080 H   0  0  0  0  0  0  0  0  0  0  0  0
   56.5440   26.7140   44.6700 H   0  0  0  0  0  0  0  0  0  0  0  0
  1  2  2  0
  2  3  1  0
  3  4  1  0
  4  5  2  0
  5  6  1  0
  6  7  2  0
  7  8  1  0
  8  9  1  0
  9 10  2  0
 10 11  1  0
 11 12  1  0
 12 13  1  0
 13 14  1  0
 14 15  1  0
 15 16  1  0
 16 17  1  0
 17 18  1  0
 18 19  1  0
 11 20  1  0
 20 21  1  0
 21 22  1  0
  8 23  2  0
  2 24  1  0
 24 25  2  0
 25 26  1  0
 26 27  2  0
 27 28  1  0
 28 29  2  0
 29 30  1  0
 30 31  2  0
 31 32  1  0
 23  4  1  0
 32 24  1  0
 22  9  1  0
 31 26  1  0
 19 14  1  0
  3 33  1  0
  5 34  1  0
  6 35  1  0
  7 36  1  0
 10 37  1  0
 12 38  1  0
 12 39  1  0
 13 40  1  0
 13 41  1  0
 15 42  1  0
 15 43  1  0
 16 44  1  0
 16 45  1  0
 18 46  1  0
 18 47  1  0
 19 48  1  0
 19 49  1  0
 20 50  1  0
 20 51  1  0
 21 52  1  0
 21 53  1  0
 22 54  1  0
 22 55  1  0
 23 56  1  0
 25 57  1  0
 27 58  1  0
 28 59  1  0
 29 60  1  0
 30 61  1  0
 32 62  1  0
M  END
>  <UniqueID>  (49) 
48

>  <SMILES>  (49) 
O=C(Nc1cccc(C2=CN(CCN3CCOCC3)CCC2)c1)c1cc2ccccc2[nH]1

>  <Energy>  (49) 
112.54845127093937

>  <Genealogy>  (49) 
O=C(Nc1cccc(C2=CN(CCN3CCOCC3)CCC2)c1)c1cc2ccccc2[nH]1 (3D coordinates assigned)
O=C(Nc1cccc(C2=CN(CCN3CCOCC3)CCC2)c1)c1cc2ccccc2[nH]1 (nonaromatic ring conformer: 112.54845127093937 kcal/mol)

>  <smiles>  (49) 
O=C(Nc1cccc(C2=CN(CCN3CCOCC3)CCC2)c1)c1cc2ccccc2[nH]1

>  <score_type>  (49) 
oracle

>  <origin>  (49) 
adg

>  <m_score__min__energy>  (49) 
-9.9800000000000004

>  <m_primary>  (49) 
energy

$$$$
50:0
     RDKit          3D

 42 44  0  0  0  0  0  0  0  0999 V2000
   60.3630   30.6260   48.1350 C   0  0  0  0  0  0  0  0  0  0  0  0
   61.4640   31.6420   47.9640 C   0  0  0  0  0  0  0  0  0  0  0  0
   62.6800   31.2200   47.3940 C   0  0  0  0  0  0  0  0  0  0  0  0
   63.7200   32.1250   47.1840 C   0  0  0  0  0  0  0  0  0  0  0  0
   63.5650   33.4610   47.5400 C   0  0  0  0  0  0  0  0  0  0  0  0
   62.3730   33.8980   48.1200 C   0  0  0  0  0  0  0  0  0  0  0  0
   61.3110   33.0020   48.3530 C   0  0  0  0  0  0  0  0  0  0  0  0
   60.0800   33.5260   49.0000 C   0  0  0  0  0  0  0  0  0  0  0  0
   60.1500   34.1970   50.0630 O   0  0  0  0  0  0  0  0  0  0  0  0
   58.8000   33.2440   48.4150 N   0  0  0  0  0  0  0  0  0  0  0  0
   58.4750   33.2590   47.0160 C   0  0  0  0  0  0  0  0  0  0  0  0
   57.7150   32.2350   46.4220 C   0  0  0  0  0  0  0  0  0  0  0  0
   57.4050   32.2770   45.0580 C   0  0  0  0  0  0  0  0  0  0  0  0
   56.6200   31.2170   44.4920 N   0  0  0  0  0  0  0  0  0  0  0  0
   56.6430   29.8400   44.8960 C   0  0  0  0  0  0  0  0  0  0  0  0
   55.5490   29.2220   44.9870 O   0  0  0  0  0  0  0  0  0  0  0  0
   57.9010   29.1470   45.2590 C   0  0  0  0  0  0  0  0  0  0  0  0
   59.1040   29.4880   44.6160 C   0  0  0  0  0  0  0  0  0  0  0  0
   60.2950   28.8350   44.9510 C   0  0  0  0  0  0  0  0  0  0  0  0
   60.2950   27.8300   45.9220 C   0  0  0  0  0  0  0  0  0  0  0  0
   59.1010   27.4730   46.5550 C   0  0  0  0  0  0  0  0  0  0  0  0
   57.9080   28.1230   46.2230 C   0  0  0  0  0  0  0  0  0  0  0  0
   57.8150   33.3790   44.2900 C   0  0  0  0  0  0  0  0  0  0  0  0
   58.5470   34.4120   44.8790 C   0  0  0  0  0  0  0  0  0  0  0  0
   58.8760   34.3580   46.2400 C   0  0  0  0  0  0  0  0  0  0  0  0
   59.6030   35.3910   46.8270 O   0  0  0  0  0  0  0  0  0  0  0  0
   60.1817   30.4587   49.2070 H   0  0  0  0  0  0  0  0  0  0  0  0
   59.4430   30.9991   47.6614 H   0  0  0  0  0  0  0  0  0  0  0  0
   60.6611   29.6790   47.6614 H   0  0  0  0  0  0  0  0  0  0  0  0
   62.8113   30.1651   47.1112 H   0  0  0  0  0  0  0  0  0  0  0  0
   64.6644   31.7820   46.7362 H   0  0  0  0  0  0  0  0  0  0  0  0
   64.3836   34.1744   47.3640 H   0  0  0  0  0  0  0  0  0  0  0  0
   62.2613   34.9562   48.3989 H   0  0  0  0  0  0  0  0  0  0  0  0
   57.3611   31.3934   47.0355 H   0  0  0  0  0  0  0  0  0  0  0  0
   59.1087   30.2727   43.8452 H   0  0  0  0  0  0  0  0  0  0  0  0
   61.2334   29.1132   44.4490 H   0  0  0  0  0  0  0  0  0  0  0  0
   61.2331   27.3207   46.1877 H   0  0  0  0  0  0  0  0  0  0  0  0
   59.0997   26.6789   47.3161 H   0  0  0  0  0  0  0  0  0  0  0  0
   56.9701   27.8318   46.7185 H   0  0  0  0  0  0  0  0  0  0  0  0
   57.5588   33.4285   43.2214 H   0  0  0  0  0  0  0  0  0  0  0  0
   58.8667   35.2718   44.2720 H   0  0  0  0  0  0  0  0  0  0  0  0
   59.7630   35.4270   47.8280 H   0  0  0  0  0  0  0  0  0  0  0  0
  1  2  1  0
  2  3  2  0
  3  4  1  0
  4  5  2  0
  5  6  1  0
  6  7  2  0
  7  8  1  0
  8  9  2  0
  8 10  1  0
 10 11  1  0
 11 12  2  0
 12 13  1  0
 13 14  1  0
 14 15  1  0
 15 16  2  0
 15 17  1  0
 17 18  2  0
 18 19  1  0
 19 20  2  0
 20 21  1  0
 21 22  2  0
 13 23  2  0
 23 24  1  0
 24 25  2  0
 25 26  1  0
  7  2  1  0
 25 11  1  0
 22 17  1  0
  1 27  1  0
  1 28  1  0
  1 29  1  0
  3 30  1  0
  4 31  1  0
  5 32  1  0
  6 33  1  0
 12 34  1  0
 18 35  1  0
 19 36  1  0
 20 37  1  0
 21 38  1  0
 22 39  1  0
 23 40  1  0
 24 41  1  0
 26 42  1  0
M  CHG  2  10  -1  14  -1
M  END
>  <UniqueID>  (50) 
49

>  <SMILES>  (50) 
Cc1ccccc1C(=O)[N-]c1cc([N-]C(=O)c2ccccc2)ccc1O

>  <Energy>  (50) 
59.696396743231304

>  <Genealogy>  (50) 
Cc1ccccc1C(=O)[N-]c1cc([N-]C(=O)c2ccccc2)ccc1O (protonated)
Cc1ccccc1C(=O)[N-]c1cc([N-]C(=O)c2ccccc2)ccc1O (3D coordinates assigned)
Cc1ccccc1C(=O)[N-]c1cc([N-]C(=O)c2ccccc2)ccc1O (optimized conformer: 59.696396743231304 kcal/mol)

>  <smiles>  (50) 
Cc1ccccc1C(=O)Nc1cc(NC(=O)c2ccccc2)ccc1O

>  <score_type>  (50) 
oracle

>  <origin>  (50) 
adg

>  <m_score__min__energy>  (50) 
-11.68

>  <m_primary>  (50) 
energy

$$$$
51:0
     RDKit          3D

 46 48  0  0  0  0  0  0  0  0999 V2000
   56.0450   31.1080   44.7060 O   0  0  0  0  0  0  0  0  0  0  0  0
   57.0880   31.1250   43.9960 C   0  0  0  0  0  0  0  0  0  0  0  0
   57.6880   32.4370   43.5770 C   0  0  0  0  0  0  0  0  0  0  0  0
   58.1940   33.2220   44.7600 C   0  0  0  0  0  0  0  0  0  0  0  0
   59.1610   34.2310   44.5830 C   0  0  0  0  0  0  0  0  0  0  0  0
   59.6440   34.9410   45.6890 C   0  0  0  0  0  0  0  0  0  0  0  0
   59.1520   34.6690   46.9710 C   0  0  0  0  0  0  0  0  0  0  0  0
   58.1750   33.6820   47.1500 C   0  0  0  0  0  0  0  0  0  0  0  0
   57.6970   32.9590   46.0490 C   0  0  0  0  0  0  0  0  0  0  0  0
   57.7510   29.8940   43.6540 N   0  0  0  0  0  0  0  0  0  0  0  0
   57.2930   28.5930   44.1340 C   0  0  0  0  0  0  0  0  0  0  0  0
   58.1230   28.0840   45.2820 C   0  0  0  0  0  0  0  0  0  0  0  0
   58.1780   26.8370   45.4830 O   0  0  0  0  0  0  0  0  0  0  0  0
   58.9480   28.9560   46.0740 N   0  0  0  0  0  0  0  0  0  0  0  0
   60.3890   28.6930   46.1310 C   0  0  0  0  0  0  0  0  0  0  0  0
   61.1540   30.0000   46.3530 C   0  0  0  0  0  0  0  0  0  0  0  0
   60.5580   30.8100   47.4280 N   0  0  0  0  0  0  0  0  0  0  0  0
   61.2620   31.9830   47.8890 C   0  0  0  0  0  0  0  0  0  0  0  0
   60.8030   32.6760   48.9700 N   0  0  0  0  0  0  0  0  0  0  0  0
   61.4550   33.7770   49.4290 C   0  0  0  0  0  0  0  0  0  0  0  0
   62.6190   34.2090   48.7950 C   0  0  0  0  0  0  0  0  0  0  0  0
   63.0800   33.4940   47.6900 C   0  0  0  0  0  0  0  0  0  0  0  0
   62.3950   32.4030   47.2590 N   0  0  0  0  0  0  0  0  0  0  0  0
   59.3310   30.3530   48.0980 C   0  0  0  0  0  0  0  0  0  0  0  0
   58.3190   29.8350   47.0700 C   0  0  0  0  0  0  0  0  0  0  0  0
   58.5271   32.2429   42.8928 H   0  0  0  0  0  0  0  0  0  0  0  0
   56.9046   33.0297   43.0820 H   0  0  0  0  0  0  0  0  0  0  0  0
   59.5369   34.4613   43.5752 H   0  0  0  0  0  0  0  0  0  0  0  0
   60.4128   35.7153   45.5500 H   0  0  0  0  0  0  0  0  0  0  0  0
   59.5326   35.2302   47.8371 H   0  0  0  0  0  0  0  0  0  0  0  0
   57.7822   33.4740   48.1562 H   0  0  0  0  0  0  0  0  0  0  0  0
   56.9306   32.1833   46.1934 H   0  0  0  0  0  0  0  0  0  0  0  0
   58.6330   29.9330   43.0990 H   0  0  0  0  0  0  0  0  0  0  0  0
   56.2485   28.6861   44.4664 H   0  0  0  0  0  0  0  0  0  0  0  0
   57.3881   27.8757   43.3055 H   0  0  0  0  0  0  0  0  0  0  0  0
   60.6002   28.0024   46.9607 H   0  0  0  0  0  0  0  0  0  0  0  0
   60.7110   28.2446   45.1795 H   0  0  0  0  0  0  0  0  0  0  0  0
   62.1937   29.7620   46.6220 H   0  0  0  0  0  0  0  0  0  0  0  0
   61.1085   30.5836   45.4217 H   0  0  0  0  0  0  0  0  0  0  0  0
   61.0650   34.3259   50.2988 H   0  0  0  0  0  0  0  0  0  0  0  0
   63.1617   35.0941   49.1583 H   0  0  0  0  0  0  0  0  0  0  0  0
   63.9951   33.8124   47.1692 H   0  0  0  0  0  0  0  0  0  0  0  0
   59.5815   29.5432   48.7991 H   0  0  0  0  0  0  0  0  0  0  0  0
   58.8853   31.1999   48.6404 H   0  0  0  0  0  0  0  0  0  0  0  0
   57.5347   29.2713   47.5964 H   0  0  0  0  0  0  0  0  0  0  0  0
   57.8978   30.7023   46.5405 H   0  0  0  0  0  0  0  0  0  0  0  0
  1  2  2  0
  2  3  1  0
  3  4  1  0
  4  5  2  0
  5  6  1  0
  6  7  2  0
  7  8  1  0
  8  9  2  0
  2 10  1  0
 10 11  1  0
 11 12  1  0
 12 13  2  0
 12 14  1  0
 14 15  1  0
 15 16  1  0
 16 17  1  0
 17 18  1  0
 18 19  2  0
 19 20  1  0
 20 21  2  0
 21 22  1  0
 22 23  2  0
 17 24  1  0
 24 25  1  0
  9  4  1  0
 25 14  1  0
 23 18  1  0
  3 26  1  0
  3 27  1  0
  5 28  1  0
  6 29  1  0
  7 30  1  0
  8 31  1  0
  9 32  1  0
 10 33  1  0
 11 34  1  0
 11 35  1  0
 15 36  1  0
 15 37  1  0
 16 38  1  0
 16 39  1  0
 20 40  1  0
 21 41  1  0
 22 42  1  0
 24 43  1  0
 24 44  1  0
 25 45  1  0
 25 46  1  0
M  END
>  <UniqueID>  (51) 
50

>  <SMILES>  (51) 
O=C(Cc1ccccc1)NCC(=O)N1CCN(c2ncccn2)CC1

>  <Energy>  (51) 
46.10343909945654

>  <Genealogy>  (51) 
O=C(Cc1ccccc1)NCC(=O)N1CCN(c2ncccn2)CC1 (3D coordinates assigned)
O=C(Cc1ccccc1)NCC(=O)N1CCN(c2ncccn2)CC1 (nonaromatic ring conformer: 46.10343909945654 kcal/mol)

>  <smiles>  (51) 
O=C(Cc1ccccc1)NCC(=O)N1CCN(c2ncccn2)CC1

>  <score_type>  (51) 
oracle

>  <origin>  (51) 
adg

>  <m_score__min__energy>  (51) 
-7.9400000000000004

>  <m_primary>  (51) 
energy

$$$$
52:0
     RDKit          3D

 69 72  0  0  0  0  0  0  0  0999 V2000
   55.7010   28.7040   53.2370 C   0  0  0  0  0  0  0  0  0  0  0  0
   56.3270   30.0310   52.7850 C   0  0  0  0  0  0  0  0  0  0  0  0
   56.8050   30.8060   54.0280 C   0  0  0  0  0  0  0  0  0  0  0  0
   55.2690   30.8400   52.0090 C   0  0  0  0  0  0  0  0  0  0  0  0
   57.4330   29.7060   51.9310 O   0  0  0  0  0  0  0  0  0  0  0  0
   58.5510   30.5160   51.6750 C   0  0  0  0  0  0  0  0  0  0  0  0
   58.4310   31.7710   51.6250 O   0  0  0  0  0  0  0  0  0  0  0  0
   59.8330   29.9030   51.4390 N   0  0  0  0  0  0  0  0  0  0  0  0
   59.9580   28.4320   51.4460 C   0  0  0  0  0  0  0  0  0  0  0  0
   60.9640   27.9660   50.3840 C   0  0  0  0  0  0  0  0  0  0  0  0
   60.9470   28.9240   49.2750 N   0  0  0  0  0  0  0  0  0  0  0  0
   60.0710   28.6700   48.1600 C   0  0  0  0  0  0  0  0  0  0  0  0
   60.0670   29.5210   47.0410 C   0  0  0  0  0  0  0  0  0  0  0  0
   59.1610   29.3120   45.9990 C   0  0  0  0  0  0  0  0  0  0  0  0
   58.2270   28.2730   46.0740 C   0  0  0  0  0  0  0  0  0  0  0  0
   57.2590   28.1250   45.0250 N   0  0  0  0  0  0  0  0  0  0  0  0
   56.4000   29.1650   44.5370 C   0  0  0  0  0  0  0  0  0  0  0  0
   55.1550   28.9800   44.5640 O   0  0  0  0  0  0  0  0  0  0  0  0
   56.9380   30.4240   43.9630 C   0  0  0  0  0  0  0  0  0  0  0  0
   56.9480   30.6160   42.5710 C   0  0  0  0  0  0  0  0  0  0  0  0
   57.4430   31.8060   42.0270 C   0  0  0  0  0  0  0  0  0  0  0  0
   57.9310   32.8130   42.8640 C   0  0  0  0  0  0  0  0  0  0  0  0
   57.9340   32.6320   44.2520 C   0  0  0  0  0  0  0  0  0  0  0  0
   58.5210   33.9060   45.3200 S   0  0  0  0  0  0  0  0  0  0  0  0
   59.2570   34.9340   44.5080 O   0  0  0  0  0  0  0  0  0  0  0  0
   57.3510   34.5760   45.9870 O   0  0  0  0  0  0  0  0  0  0  0  0
   59.6000   33.2230   46.5110 N   0  0  0  0  0  0  0  0  0  0  0  0
   59.1320   33.4900   47.8710 C   0  0  0  0  0  0  0  0  0  0  0  0
   60.3670   33.4910   48.7590 C   0  0  0  0  0  0  0  0  0  0  0  0
   61.5400   33.7190   47.8170 C   0  0  0  0  0  0  0  0  0  0  0  0
   60.9260   33.8310   46.4300 C   0  0  0  0  0  0  0  0  0  0  0  0
   57.4600   31.4310   44.7940 C   0  0  0  0  0  0  0  0  0  0  0  0
   58.2440   27.4060   47.1780 C   0  0  0  0  0  0  0  0  0  0  0  0
   59.1570   27.6080   48.2170 C   0  0  0  0  0  0  0  0  0  0  0  0
   61.4080   30.2900   49.5750 C   0  0  0  0  0  0  0  0  0  0  0  0
   60.9900   30.7010   50.9990 C   0  0  0  0  0  0  0  0  0  0  0  0
   55.6818   28.6632   54.3361 H   0  0  0  0  0  0  0  0  0  0  0  0
   54.6741   28.6322   52.8494 H   0  0  0  0  0  0  0  0  0  0  0  0
   56.2987   27.8658   52.8494 H   0  0  0  0  0  0  0  0  0  0  0  0
   56.4796   30.2783   54.9367 H   0  0  0  0  0  0  0  0  0  0  0  0
   57.9028   30.8750   54.0174 H   0  0  0  0  0  0  0  0  0  0  0  0
   56.3739   31.8180   54.0174 H   0  0  0  0  0  0  0  0  0  0  0  0
   54.6026   31.3496   52.7205 H   0  0  0  0  0  0  0  0  0  0  0  0
   55.7703   31.5873   51.3764 H   0  0  0  0  0  0  0  0  0  0  0  0
   54.6791   30.1604   51.3764 H   0  0  0  0  0  0  0  0  0  0  0  0
   60.3025   28.1039   52.4378 H   0  0  0  0  0  0  0  0  0  0  0  0
   58.9754   27.9933   51.2179 H   0  0  0  0  0  0  0  0  0  0  0  0
   61.9723   27.9229   50.8216 H   0  0  0  0  0  0  0  0  0  0  0  0
   60.6915   26.9641   50.0207 H   0  0  0  0  0  0  0  0  0  0  0  0
   60.7812   30.3558   46.9859 H   0  0  0  0  0  0  0  0  0  0  0  0
   59.1818   29.9670   45.1155 H   0  0  0  0  0  0  0  0  0  0  0  0
   56.5651   29.8275   41.9065 H   0  0  0  0  0  0  0  0  0  0  0  0
   57.4481   31.9495   40.9364 H   0  0  0  0  0  0  0  0  0  0  0  0
   58.3134   33.7493   42.4314 H   0  0  0  0  0  0  0  0  0  0  0  0
   58.6309   34.4682   47.9155 H   0  0  0  0  0  0  0  0  0  0  0  0
   58.4064   32.7310   48.1987 H   0  0  0  0  0  0  0  0  0  0  0  0
   60.3066   34.3001   49.5017 H   0  0  0  0  0  0  0  0  0  0  0  0
   60.4690   32.5503   49.3200 H   0  0  0  0  0  0  0  0  0  0  0  0
   62.0702   34.6463   48.0795 H   0  0  0  0  0  0  0  0  0  0  0  0
   62.2763   32.9038   47.8746 H   0  0  0  0  0  0  0  0  0  0  0  0
   60.8419   34.8877   46.1362 H   0  0  0  0  0  0  0  0  0  0  0  0
   61.5494   33.3253   45.6779 H   0  0  0  0  0  0  0  0  0  0  0  0
   57.4964   31.2736   45.8821 H   0  0  0  0  0  0  0  0  0  0  0  0
   57.5366   26.5650   47.2256 H   0  0  0  0  0  0  0  0  0  0  0  0
   59.1585   26.9306   49.0836 H   0  0  0  0  0  0  0  0  0  0  0  0
   62.5044   30.3276   49.4948 H   0  0  0  0  0  0  0  0  0  0  0  0
   60.9505   30.9853   48.8558 H   0  0  0  0  0  0  0  0  0  0  0  0
   61.8310   30.5322   51.6877 H   0  0  0  0  0  0  0  0  0  0  0  0
   60.7130   31.7655   50.9989 H   0  0  0  0  0  0  0  0  0  0  0  0
  1  2  1  0
  2  3  1  0
  2  4  1  0
  2  5  1  0
  5  6  1  0
  6  7  2  0
  6  8  1  0
  8  9  1  0
  9 10  1  0
 10 11  1  0
 11 12  1  0
 12 13  2  0
 13 14  1  0
 14 15  2  0
 15 16  1  0
 16 17  1  0
 17 18  2  0
 17 19  1  0
 19 20  2  0
 20 21  1  0
 21 22  2  0
 22 23  1  0
 23 24  1  0
 24 25  2  0
 24 26  2  0
 24 27  1  0
 27 28  1  0
 28 29  1  0
 29 30  1  0
 30 31  1  0
 23 32  2  0
 15 33  1  0
 33 34  2  0
 11 35  1  0
 35 36  1  0
 36  8  1  0
 34 12  1  0
 32 19  1  0
 31 27  1  0
  1 37  1  0
  1 38  1  0
  1 39  1  0
  3 40  1  0
  3 41  1  0
  3 42  1  0
  4 43  1  0
  4 44  1  0
  4 45  1  0
  9 46  1  0
  9 47  1  0
 10 48  1  0
 10 49  1  0
 13 50  1  0
 14 51  1  0
 20 52  1  0
 21 53  1  0
 22 54  1  0
 28 55  1  0
 28 56  1  0
 29 57  1  0
 29 58  1  0
 30 59  1  0
 30 60  1  0
 31 61  1  0
 31 62  1  0
 32 63  1  0
 33 64  1  0
 34 65  1  0
 35 66  1  0
 35 67  1  0
 36 68  1  0
 36 69  1  0
M  CHG  1  16  -1
M  END
>  <UniqueID>  (52) 
51

>  <SMILES>  (52) 
CC(C)(C)OC(=O)N1CCN(c2ccc([N-]C(=O)c3cccc(S(=O)(=O)N4CCCC4)c3)cc2)CC1

>  <Energy>  (52) 
78.88183380710561

>  <Genealogy>  (52) 
CC(C)(C)OC(=O)N1CCN(c2ccc([N-]C(=O)c3cccc(S(=O)(=O)N4CCCC4)c3)cc2)CC1 (protonated)
CC(C)(C)OC(=O)N1CCN(c2ccc([N-]C(=O)c3cccc(S(=O)(=O)N4CCCC4)c3)cc2)CC1 (3D coordinates assigned)
CC(C)(C)OC(=O)N1CCN(c2ccc([N-]C(=O)c3cccc(S(=O)(=O)N4CCCC4)c3)cc2)CC1 (nonaromatic ring conformer: 78.88183380710561 kcal/mol)

>  <smiles>  (52) 
CC(C)(C)OC(=O)N1CCN(c2ccc(NC(=O)c3cccc(S(=O)(=O)N4CCCC4)c3)cc2)CC1

>  <score_type>  (52) 
oracle

>  <origin>  (52) 
adg

>  <m_score__min__energy>  (52) 
-11.359999999999999

>  <m_primary>  (52) 
energy

$$$$
53:0
     RDKit          3D

 68 70  0  0  0  0  0  0  0  0999 V2000
   62.5600   33.8900   49.5510 C   0  0  0  0  0  0  0  0  0  0  0  0
   63.4200   32.7130   49.0640 C   0  0  0  0  0  0  0  0  0  0  0  0
   63.0820   32.4340   47.5860 C   0  0  0  0  0  0  0  0  0  0  0  0
   64.9030   33.0920   49.1950 C   0  0  0  0  0  0  0  0  0  0  0  0
   63.0640   31.2820   50.1870 S   0  0  0  0  0  0  0  0  0  0  0  0
   61.2970   31.0630   49.8930 C   0  0  0  0  0  0  0  0  0  0  0  0
   60.8860   30.2640   48.8200 C   0  0  0  0  0  0  0  0  0  0  0  0
   59.5230   30.0780   48.5500 C   0  0  0  0  0  0  0  0  0  0  0  0
   59.1010   29.2760   47.3900 C   0  0  0  0  0  0  0  0  0  0  0  0
   59.1000   28.0200   47.4760 O   0  0  0  0  0  0  0  0  0  0  0  0
   58.6880   29.8900   46.1620 N   0  0  0  0  0  0  0  0  0  0  0  0
   57.6820   29.3420   45.2530 C   0  0  2  0  0  0  0  0  0  0  0  0
   58.3690   28.5500   44.1270 C   0  0  0  0  0  0  0  0  0  0  0  0
   57.9050   27.1230   44.0820 C   0  0  0  0  0  0  0  0  0  0  0  0
   57.9180   26.5000   42.9850 O   0  0  0  0  0  0  0  0  0  0  0  0
   57.4980   26.4610   45.2910 N   0  0  0  0  0  0  0  0  0  0  0  0
   56.8660   25.1710   45.3110 C   0  0  0  0  0  0  0  0  0  0  0  0
   57.6390   24.0250   45.0620 C   0  0  0  0  0  0  0  0  0  0  0  0
   57.0520   22.7560   45.0900 C   0  0  0  0  0  0  0  0  0  0  0  0
   55.6910   22.6210   45.3800 C   0  0  0  0  0  0  0  0  0  0  0  0
   54.9190   23.7520   45.6550 C   0  0  0  0  0  0  0  0  0  0  0  0
   55.5020   25.0250   45.6310 C   0  0  0  0  0  0  0  0  0  0  0  0
   54.7460   26.0990   45.9700 F   0  0  0  0  0  0  0  0  0  0  0  0
   56.8570   30.4690   44.7060 C   0  0  0  0  0  0  0  0  0  0  0  0
   55.6140   30.3230   44.5410 O   0  0  0  0  0  0  0  0  0  0  0  0
   57.4890   31.7100   44.3780 N   0  0  0  0  0  0  0  0  0  0  0  0
   57.0640   32.9990   44.9110 C   0  0  0  0  0  0  0  0  0  0  0  0
   58.1220   33.5540   45.8250 C   0  0  0  0  0  0  0  0  0  0  0  0
   59.0320   34.5100   45.3460 C   0  0  0  0  0  0  0  0  0  0  0  0
   60.0030   35.0470   46.1980 C   0  0  0  0  0  0  0  0  0  0  0  0
   60.0700   34.6350   47.5320 C   0  0  0  0  0  0  0  0  0  0  0  0
   59.1630   33.6880   48.0170 C   0  0  0  0  0  0  0  0  0  0  0  0
   58.1900   33.1490   47.1690 C   0  0  0  0  0  0  0  0  0  0  0  0
   58.5670   30.6410   49.4020 C   0  0  0  0  0  0  0  0  0  0  0  0
   58.9670   31.4150   50.4920 C   0  0  0  0  0  0  0  0  0  0  0  0
   60.3290   31.6480   50.7440 C   0  0  0  0  0  0  0  0  0  0  0  0
   60.7190   32.4310   51.9710 C   0  0  0  0  0  0  0  0  0  0  0  0
   61.3560   31.5780   52.8810 O   0  0  0  0  0  0  0  0  0  0  0  0
   62.5487   33.9055   50.6508 H   0  0  0  0  0  0  0  0  0  0  0  0
   62.9831   34.8333   49.1754 H   0  0  0  0  0  0  0  0  0  0  0  0
   61.5327   33.7736   49.1754 H   0  0  0  0  0  0  0  0  0  0  0  0
   62.2348   31.7347   47.5293 H   0  0  0  0  0  0  0  0  0  0  0  0
   62.8133   33.3768   47.0870 H   0  0  0  0  0  0  0  0  0  0  0  0
   63.9568   31.9915   47.0870 H   0  0  0  0  0  0  0  0  0  0  0  0
   65.1713   33.1606   50.2596 H   0  0  0  0  0  0  0  0  0  0  0  0
   65.5222   32.3232   48.7096 H   0  0  0  0  0  0  0  0  0  0  0  0
   65.0774   34.0636   48.7096 H   0  0  0  0  0  0  0  0  0  0  0  0
   61.6392   29.7776   48.1828 H   0  0  0  0  0  0  0  0  0  0  0  0
   57.0192   28.6487   45.7916 H   0  0  0  0  0  0  0  0  0  0  0  0
   58.1391   29.0291   43.1639 H   0  0  0  0  0  0  0  0  0  0  0  0
   59.4516   28.5502   44.3219 H   0  0  0  0  0  0  0  0  0  0  0  0
   57.8170   26.8640   46.2010 H   0  0  0  0  0  0  0  0  0  0  0  0
   58.7124   24.1263   44.8437 H   0  0  0  0  0  0  0  0  0  0  0  0
   57.6613   21.8637   44.8838 H   0  0  0  0  0  0  0  0  0  0  0  0
   55.2279   21.6233   45.3916 H   0  0  0  0  0  0  0  0  0  0  0  0
   53.8502   23.6425   45.8911 H   0  0  0  0  0  0  0  0  0  0  0  0
   56.8974   33.6996   44.0795 H   0  0  0  0  0  0  0  0  0  0  0  0
   56.1317   32.8643   45.4790 H   0  0  0  0  0  0  0  0  0  0  0  0
   58.9813   34.8378   44.2972 H   0  0  0  0  0  0  0  0  0  0  0  0
   60.7147   35.7945   45.8176 H   0  0  0  0  0  0  0  0  0  0  0  0
   60.8361   35.0557   48.2000 H   0  0  0  0  0  0  0  0  0  0  0  0
   59.2147   33.3662   49.0676 H   0  0  0  0  0  0  0  0  0  0  0  0
   57.4763   32.4063   47.5550 H   0  0  0  0  0  0  0  0  0  0  0  0
   57.4966   30.4731   49.2121 H   0  0  0  0  0  0  0  0  0  0  0  0
   58.2079   31.8471   51.1607 H   0  0  0  0  0  0  0  0  0  0  0  0
   61.4046   33.2428   51.6864 H   0  0  0  0  0  0  0  0  0  0  0  0
   59.8191   32.8601   52.4359 H   0  0  0  0  0  0  0  0  0  0  0  0
   61.9740   31.0120   52.3460 H   0  0  0  0  0  0  0  0  0  0  0  0
  1  2  1  0
  2  3  1  0
  2  4  1  0
  2  5  1  0
  5  6  1  0
  6  7  2  0
  7  8  1  0
  8  9  1  0
  9 10  2  0
  9 11  1  0
 11 12  1  0
 12 13  1  0
 13 14  1  0
 14 15  2  0
 14 16  1  0
 16 17  1  0
 17 18  2  0
 18 19  1  0
 19 20  2  0
 20 21  1  0
 21 22  2  0
 22 23  1  0
 12 24  1  0
 24 25  2  0
 24 26  1  0
 26 27  1  0
 27 28  1  0
 28 29  2  0
 29 30  1  0
 30 31  2  0
 31 32  1  0
 32 33  2  0
  8 34  2  0
 34 35  1  0
 35 36  2  0
 36 37  1  0
 37 38  1  0
 36  6  1  0
 22 17  1  0
 33 28  1  0
  1 39  1  0
  1 40  1  0
  1 41  1  0
  3 42  1  0
  3 43  1  0
  3 44  1  0
  4 45  1  0
  4 46  1  0
  4 47  1  0
  7 48  1  0
 12 49  1  1
 13 50  1  0
 13 51  1  0
 16 52  1  0
 18 53  1  0
 19 54  1  0
 20 55  1  0
 21 56  1  0
 27 57  1  0
 27 58  1  0
 29 59  1  0
 30 60  1  0
 31 61  1  0
 32 62  1  0
 33 63  1  0
 34 64  1  0
 35 65  1  0
 37 66  1  0
 37 67  1  0
 38 68  1  0
M  CHG  2  11  -1  26  -1
M  END
>  <UniqueID>  (53) 
52

>  <SMILES>  (53) 
CC(C)(C)Sc1cc(C(=O)[N-][C@H](CC(=O)Nc2ccccc2F)C(=O)[N-]Cc2ccccc2)ccc1CO

>  <Energy>  (53) 
65.37456989075096

>  <Genealogy>  (53) 
CC(C)(C)Sc1cc(C(=O)[N-]C(CC(=O)Nc2ccccc2F)C(=O)[N-]Cc2ccccc2)ccc1CO (protonated)
CC(C)(C)Sc1cc(C(=O)[N-][C@H](CC(=O)Nc2ccccc2F)C(=O)[N-]Cc2ccccc2)ccc1CO (chirality)
CC(C)(C)Sc1cc(C(=O)[N-][C@H](CC(=O)Nc2ccccc2F)C(=O)[N-]Cc2ccccc2)ccc1CO (3D coordinates assigned)
CC(C)(C)Sc1cc(C(=O)[N-][C@H](CC(=O)Nc2ccccc2F)C(=O)[N-]Cc2ccccc2)ccc1CO (optimized conformer: 65.37456989075096 kcal/mol)

>  <smiles>  (53) 
CC(C)(C)Sc1cc(C(=O)NC(CC(=O)Nc2ccccc2F)C(=O)NCc2ccccc2)ccc1CO

>  <score_type>  (53) 
oracle

>  <origin>  (53) 
adg

>  <m_score__min__energy>  (53) 
-12.859999999999999

>  <m_primary>  (53) 
energy

$$$$
54:0
     RDKit          3D

 60 63  0  0  0  0  0  0  0  0999 V2000
   57.0223   20.3700   45.4678 H   0  0  0  0  0  0  0  0  0  0  0  0
   56.8640   21.4580   45.5030 C   0  0  0  0  0  0  0  0  0  0  0  0
   57.4330   22.2050   44.5340 C   0  0  0  0  0  0  0  0  0  0  0  0
   58.8740   22.6110   44.6950 C   0  0  0  0  0  0  0  0  0  0  0  0
   59.1182   22.6798   45.7654 H   0  0  0  0  0  0  0  0  0  0  0  0
   59.5218   21.8604   44.2186 H   0  0  0  0  0  0  0  0  0  0  0  0
   59.0347   23.5894   44.2186 H   0  0  0  0  0  0  0  0  0  0  0  0
   56.6690   22.6410   43.3070 C   0  0  0  0  0  0  0  0  0  0  0  0
   55.7514   23.1647   43.6133 H   0  0  0  0  0  0  0  0  0  0  0  0
   57.2946   23.3181   42.7069 H   0  0  0  0  0  0  0  0  0  0  0  0
   56.4043   21.7579   42.7069 H   0  0  0  0  0  0  0  0  0  0  0  0
   56.0250   22.0080   46.6330 C   0  0  0  0  0  0  0  0  0  0  0  0
   55.6612   21.1684   47.2434 H   0  0  0  0  0  0  0  0  0  0  0  0
   56.6591   22.6891   47.2196 H   0  0  0  0  0  0  0  0  0  0  0  0
   54.8280   22.8040   46.1350 C   0  0  0  0  0  0  0  0  0  0  0  0
   53.6760   22.1250   45.6810 C   0  0  0  0  0  0  0  0  0  0  0  0
   53.6230   20.7340   45.6690 O   0  0  0  0  0  0  0  0  0  0  0  0
   52.5610   22.8390   45.2390 C   0  0  0  0  0  0  0  0  0  0  0  0
   51.6680   22.2978   44.8929 H   0  0  0  0  0  0  0  0  0  0  0  0
   52.5710   24.2310   45.2330 C   0  0  0  0  0  0  0  0  0  0  0  0
   51.6838   24.7846   44.8917 H   0  0  0  0  0  0  0  0  0  0  0  0
   53.7040   24.9260   45.6590 C   0  0  0  0  0  0  0  0  0  0  0  0
   53.6950   26.3170   45.6290 O   0  0  0  0  0  0  0  0  0  0  0  0
   54.8420   24.2270   46.1040 C   0  0  0  0  0  0  0  0  0  0  0  0
   56.0270   25.0000   46.5370 C   0  0  0  0  0  0  0  0  0  0  0  0
   56.9760   24.4120   47.3840 C   0  0  0  0  0  0  0  0  0  0  0  0
   56.8340   23.3789   47.7340 H   0  0  0  0  0  0  0  0  0  0  0  0
   58.1000   25.1340   47.7840 C   0  0  0  0  0  0  0  0  0  0  0  0
   58.8414   24.6689   48.4503 H   0  0  0  0  0  0  0  0  0  0  0  0
   58.2880   26.4450   47.3420 C   0  0  0  0  0  0  0  0  0  0  0  0
   59.1746   27.0093   47.6668 H   0  0  0  0  0  0  0  0  0  0  0  0
   57.3510   27.0490   46.4840 C   0  0  0  0  0  0  0  0  0  0  0  0
   57.5710   28.4410   46.0250 C   0  0  0  0  0  0  0  0  0  0  0  0
   58.7260   29.1080   46.2300 N   0  0  0  0  0  0  0  0  0  0  0  0
   58.5710   30.3270   45.6690 C   0  0  0  0  0  0  0  0  0  0  0  0
   59.6420   31.3360   45.6920 C   0  0  0  0  0  0  0  0  0  0  0  0
   59.5624   32.2254   45.0496 H   0  0  0  0  0  0  0  0  0  0  0  0
   60.6790   31.1920   46.4590 N   0  0  0  0  0  0  0  0  0  0  0  0
   61.2540   32.1960   47.3140 C   0  0  0  0  0  0  0  0  0  0  0  0
   60.3960   33.1320   47.9020 C   0  0  0  0  0  0  0  0  0  0  0  0
   59.3146   33.0775   47.7080 H   0  0  0  0  0  0  0  0  0  0  0  0
   60.9010   34.1360   48.7340 C   0  0  0  0  0  0  0  0  0  0  0  0
   60.2163   34.8610   49.1983 H   0  0  0  0  0  0  0  0  0  0  0  0
   62.2740   34.2190   48.9760 C   0  0  0  0  0  0  0  0  0  0  0  0
   62.6681   35.0063   49.6354 H   0  0  0  0  0  0  0  0  0  0  0  0
   63.1510   33.3020   48.3810 C   0  0  0  0  0  0  0  0  0  0  0  0
   64.5590   33.3980   48.6170 N   0  0  0  0  0  0  0  0  0  0  0  0
   65.2440   33.0750   47.8990 H   0  0  0  0  0  0  0  0  0  0  0  0
   64.9250   33.7890   49.5130 H   0  0  0  0  0  0  0  0  0  0  0  0
   62.6420   32.2940   47.5480 C   0  0  0  0  0  0  0  0  0  0  0  0
   63.3286   31.5765   47.0750 H   0  0  0  0  0  0  0  0  0  0  0  0
   57.3110   30.4450   45.0930 C   0  0  0  0  0  0  0  0  0  0  0  0
   56.7430   31.6110   44.3440 C   0  0  0  0  0  0  0  0  0  0  0  0
   56.3768   32.3627   45.0587 H   0  0  0  0  0  0  0  0  0  0  0  0
   57.5249   32.0567   43.7116 H   0  0  0  0  0  0  0  0  0  0  0  0
   55.9101   31.2700   43.7116 H   0  0  0  0  0  0  0  0  0  0  0  0
   56.6880   29.2380   45.3160 C   0  0  0  0  0  0  0  0  0  0  0  0
   55.4210   28.8840   44.8660 O   0  0  0  0  0  0  0  0  0  0  0  0
   56.2090   26.3220   46.1020 C   0  0  0  0  0  0  0  0  0  0  0  0
   55.4526   26.7933   45.4572 H   0  0  0  0  0  0  0  0  0  0  0  0
  1  2  1  0
  2  3  2  3
  3  4  1  0
  4  5  1  0
  4  6  1  0
  4  7  1  0
  3  8  1  0
  8  9  1  0
  8 10  1  0
  8 11  1  0
  2 12  1  0
 12 13  1  0
 12 14  1  0
 12 15  1  0
 15 16  2  0
 16 17  1  0
 16 18  1  0
 18 19  1  0
 18 20  2  0
 20 21  1  0
 20 22  1  0
 22 23  1  0
 22 24  2  0
 24 25  1  0
 25 26  2  0
 26 27  1  0
 26 28  1  0
 28 29  1  0
 28 30  2  0
 30 31  1  0
 30 32  1  0
 32 33  1  0
 33 34  1  0
 34 35  1  0
 35 36  1  0
 36 37  1  0
 36 38  2  0
 38 39  1  0
 39 40  2  0
 40 41  1  0
 40 42  1  0
 42 43  1  0
 42 44  2  0
 44 45  1  0
 44 46  1  0
 46 47  1  0
 47 48  1  0
 47 49  1  0
 46 50  2  0
 50 51  1  0
 35 52  2  0
 52 53  1  0
 53 54  1  0
 53 55  1  0
 53 56  1  0
 52 57  1  0
 57 58  1  0
 32 59  2  0
 59 60  1  0
 24 15  1  0
 59 25  1  0
 57 33  2  0
 50 39  1  0
M  CHG  4  17  -1  23  -1  34  -1  58  -1
M  END
>  <UniqueID>  (54) 
53

>  <SMILES>  (54) 
CC(C)=CCc1c([O-])ccc([O-])c1-c1cccc(-c2[n-]c(/C=N/c3cccc(N)c3)c(C)c2[O-])c1

>  <Energy>  (54) 
98.98037897656737

>  <Genealogy>  (54) 
CC(C)=CCc1c([O-])ccc([O-])c1-c1cccc(-c2[n-]c(C=Nc3cccc(N)c3)c(C)c2[O-])c1 (protonated)
CC(C)=CCc1c([O-])ccc([O-])c1-c1cccc(-c2[n-]c(/C=N/c3cccc(N)c3)c(C)c2[O-])c1 (cis-trans isomerization)
CC(C)=CCc1c([O-])ccc([O-])c1-c1cccc(-c2[n-]c(/C=N/c3cccc(N)c3)c(C)c2[O-])c1 (3D coordinates assigned)
CC(C)=CCc1c([O-])ccc([O-])c1-c1cccc(-c2[n-]c(/C=N/c3cccc(N)c3)c(C)c2[O-])c1 (optimized conformer: 98.98037897656737 kcal/mol)

>  <smiles>  (54) 
CC(C)=CCc1c(O)ccc(O)c1-c1cccc(-c2[nH]c(C=Nc3cccc(N)c3)c(C)c2O)c1

>  <score_type>  (54) 
oracle

>  <origin>  (54) 
adg

>  <m_score__min__energy>  (54) 
-16.129999999999999

>  <m_primary>  (54) 
energy

$$$$
55:0
     RDKit          3D

 58 61  0  0  0  0  0  0  0  0999 V2000
   62.8520   31.6590   47.9800 C   0  0  0  0  0  0  0  0  0  0  0  0
   63.8670   32.6560   48.5340 C   0  0  0  0  0  0  0  0  0  0  0  0
   63.3640   33.2920   49.7730 N   0  0  0  0  0  0  0  0  0  0  0  0
   62.5910   32.3430   50.6260 C   0  0  0  0  0  0  0  0  0  0  0  0
   61.1800   32.8300   50.9920 C   0  0  0  0  0  0  0  0  0  0  0  0
   60.5150   33.3480   49.7950 N   0  0  0  0  0  0  0  0  0  0  0  0
   59.2080   32.8640   49.4320 C   0  0  0  0  0  0  0  0  0  0  0  0
   58.3750   32.5670   50.3310 O   0  0  0  0  0  0  0  0  0  0  0  0
   58.8820   32.5540   48.0320 C   0  0  0  0  0  0  0  0  0  0  0  0
   58.1170   33.4300   47.2460 C   0  0  0  0  0  0  0  0  0  0  0  0
   57.9420   33.1740   45.8820 C   0  0  0  0  0  0  0  0  0  0  0  0
   58.5330   32.0510   45.2970 C   0  0  0  0  0  0  0  0  0  0  0  0
   59.2720   31.1600   46.0820 C   0  0  0  0  0  0  0  0  0  0  0  0
   60.1020   29.7640   45.3250 S   0  0  0  0  0  0  0  0  0  0  0  0
   58.6610   28.7070   45.5070 C   0  0  0  0  0  0  0  0  0  0  0  0
   58.7800   27.4470   46.1050 C   0  0  0  0  0  0  0  0  0  0  0  0
   57.6510   26.6390   46.2750 C   0  0  0  0  0  0  0  0  0  0  0  0
   56.3840   27.0980   45.8610 C   0  0  0  0  0  0  0  0  0  0  0  0
   55.2030   26.2910   45.9760 N   0  0  0  0  0  0  0  0  0  0  0  0
   55.1410   24.8670   46.1170 C   0  0  0  0  0  0  0  0  0  0  0  0
   55.4660   24.3540   47.2210 O   0  0  0  0  0  0  0  0  0  0  0  0
   54.7220   24.0380   45.0240 N   0  0  0  0  0  0  0  0  0  0  0  0
   55.4850   23.0010   44.3920 C   0  0  0  0  0  0  0  0  0  0  0  0
   56.2300   22.0620   45.1270 C   0  0  0  0  0  0  0  0  0  0  0  0
   56.9610   21.0800   44.4560 C   0  0  0  0  0  0  0  0  0  0  0  0
   56.9670   21.0630   43.0560 C   0  0  0  0  0  0  0  0  0  0  0  0
   56.2760   22.0050   42.3600 N   0  0  0  0  0  0  0  0  0  0  0  0
   55.5510   22.9670   42.9900 C   0  0  0  0  0  0  0  0  0  0  0  0
   56.2770   28.3510   45.2420 C   0  0  0  0  0  0  0  0  0  0  0  0
   57.4090   29.1520   45.0660 C   0  0  0  0  0  0  0  0  0  0  0  0
   59.4190   31.3970   47.4540 C   0  0  0  0  0  0  0  0  0  0  0  0
   61.2410   34.2910   48.9360 C   0  0  0  0  0  0  0  0  0  0  0  0
   62.6490   34.5530   49.4840 C   0  0  0  0  0  0  0  0  0  0  0  0
   62.3398   31.1559   48.8134 H   0  0  0  0  0  0  0  0  0  0  0  0
   62.1131   32.1922   47.3637 H   0  0  0  0  0  0  0  0  0  0  0  0
   63.3719   30.9107   47.3637 H   0  0  0  0  0  0  0  0  0  0  0  0
   64.8058   32.1276   48.7564 H   0  0  0  0  0  0  0  0  0  0  0  0
   64.0352   33.4400   47.7810 H   0  0  0  0  0  0  0  0  0  0  0  0
   62.4973   31.3903   50.0842 H   0  0  0  0  0  0  0  0  0  0  0  0
   63.1458   32.2437   51.5706 H   0  0  0  0  0  0  0  0  0  0  0  0
   60.5975   31.9912   51.4007 H   0  0  0  0  0  0  0  0  0  0  0  0
   61.2523   33.6286   51.7450 H   0  0  0  0  0  0  0  0  0  0  0  0
   57.6551   34.3178   47.7027 H   0  0  0  0  0  0  0  0  0  0  0  0
   57.3377   33.8583   45.2684 H   0  0  0  0  0  0  0  0  0  0  0  0
   58.4170   31.8676   44.2186 H   0  0  0  0  0  0  0  0  0  0  0  0
   59.7646   27.0911   46.4423 H   0  0  0  0  0  0  0  0  0  0  0  0
   57.7519   25.6438   46.7325 H   0  0  0  0  0  0  0  0  0  0  0  0
   56.2368   22.1010   46.2263 H   0  0  0  0  0  0  0  0  0  0  0  0
   57.5274   20.3261   45.0223 H   0  0  0  0  0  0  0  0  0  0  0  0
   57.5313   20.2867   42.5184 H   0  0  0  0  0  0  0  0  0  0  0  0
   55.0134   23.7226   42.3984 H   0  0  0  0  0  0  0  0  0  0  0  0
   55.2963   28.7062   44.8926 H   0  0  0  0  0  0  0  0  0  0  0  0
   57.3159   30.1343   44.5798 H   0  0  0  0  0  0  0  0  0  0  0  0
   59.9585   30.6714   48.0805 H   0  0  0  0  0  0  0  0  0  0  0  0
   61.3208   33.8686   47.9235 H   0  0  0  0  0  0  0  0  0  0  0  0
   60.6894   35.2424   48.9114 H   0  0  0  0  0  0  0  0  0  0  0  0
   63.2213   35.1251   48.7389 H   0  0  0  0  0  0  0  0  0  0  0  0
   62.5530   35.1171   50.4235 H   0  0  0  0  0  0  0  0  0  0  0  0
  1  2  1  0
  2  3  1  0
  3  4  1  0
  4  5  1  0
  5  6  1  0
  6  7  1  0
  7  8  2  0
  7  9  1  0
  9 10  2  0
 10 11  1  0
 11 12  2  0
 12 13  1  0
 13 14  1  0
 14 15  1  0
 15 16  2  0
 16 17  1  0
 17 18  2  0
 18 19  1  0
 19 20  1  0
 20 21  2  0
 20 22  1  0
 22 23  1  0
 23 24  2  0
 24 25  1  0
 25 26  2  0
 26 27  1  0
 27 28  2  0
 18 29  1  0
 29 30  2  0
 13 31  2  0
  6 32  1  0
 32 33  1  0
 33  3  1  0
 31  9  1  0
 30 15  1  0
 28 23  1  0
  1 34  1  0
  1 35  1  0
  1 36  1  0
  2 37  1  0
  2 38  1  0
  4 39  1  0
  4 40  1  0
  5 41  1  0
  5 42  1  0
 10 43  1  0
 11 44  1  0
 12 45  1  0
 16 46  1  0
 17 47  1  0
 24 48  1  0
 25 49  1  0
 26 50  1  0
 28 51  1  0
 29 52  1  0
 30 53  1  0
 31 54  1  0
 32 55  1  0
 32 56  1  0
 33 57  1  0
 33 58  1  0
M  CHG  2  19  -1  22  -1
M  END
>  <UniqueID>  (55) 
54

>  <SMILES>  (55) 
CCN1CCN(C(=O)c2cccc(Sc3ccc([N-]C(=O)[N-]c4cccnc4)cc3)c2)CC1

>  <Energy>  (55) 
77.45986651185007

>  <Genealogy>  (55) 
CCN1CCN(C(=O)c2cccc(Sc3ccc([N-]C(=O)[N-]c4cccnc4)cc3)c2)CC1 (protonated)
CCN1CCN(C(=O)c2cccc(Sc3ccc([N-]C(=O)[N-]c4cccnc4)cc3)c2)CC1 (3D coordinates assigned)
CCN1CCN(C(=O)c2cccc(Sc3ccc([N-]C(=O)[N-]c4cccnc4)cc3)c2)CC1 (nonaromatic ring conformer: 77.45986651185007 kcal/mol)

>  <smiles>  (55) 
CCN1CCN(C(=O)c2cccc(Sc3ccc(NC(=O)Nc4cccnc4)cc3)c2)CC1

>  <score_type>  (55) 
oracle

>  <origin>  (55) 
adg

>  <m_score__min__energy>  (55) 
-13.949999999999999

>  <m_primary>  (55) 
energy

$$$$
56:0
     RDKit          3D

 50 53  0  0  0  0  0  0  0  0999 V2000
   56.7210   29.7253   42.5084 H   0  0  0  0  0  0  0  0  0  0  0  0
   56.6680   30.7600   42.8780 C   0  0  0  0  0  0  0  0  0  0  0  0
   56.0728   31.5084   42.3343 H   0  0  0  0  0  0  0  0  0  0  0  0
   57.3270   31.1080   43.9880 C   0  0  0  0  0  0  0  0  0  0  0  0
   58.0070   30.2730   44.8910 C   0  0  0  0  0  0  0  0  0  0  0  0
   58.3080   28.9600   44.8010 C   0  0  0  0  0  0  0  0  0  0  0  0
   59.2739   28.6937   44.3469 H   0  0  0  0  0  0  0  0  0  0  0  0
   57.4510   27.8560   45.2600 C   0  0  0  0  0  0  0  0  0  0  0  0
   57.9890   26.4350   45.9970 S   0  0  0  0  0  0  0  0  0  0  0  0
   56.4270   25.9380   46.3660 C   0  0  0  0  0  0  0  0  0  0  0  0
   56.1450   24.8590   46.9490 O   0  0  0  0  0  0  0  0  0  0  0  0
   55.4920   26.8320   45.9790 N   0  0  0  0  0  0  0  0  0  0  0  0
   56.0650   27.9080   45.3800 C   0  0  0  0  0  0  0  0  0  0  0  0
   55.3080   28.9800   44.9260 O   0  0  0  0  0  0  0  0  0  0  0  0
   58.3150   31.0810   45.9870 C   0  0  0  0  0  0  0  0  0  0  0  0
   59.0430   30.6740   47.2110 C   0  0  0  0  0  0  0  0  0  0  0  0
   58.4890   29.8700   48.0110 O   0  0  0  0  0  0  0  0  0  0  0  0
   60.3230   31.2640   47.5450 N   0  0  0  0  0  0  0  0  0  0  0  0
   60.3190   32.2550   47.2120 H   0  0  0  0  0  0  0  0  0  0  0  0
   61.4110   30.5710   46.8280 C   0  0  0  0  0  0  0  0  0  0  0  0
   61.4405   29.5171   47.1416 H   0  0  0  0  0  0  0  0  0  0  0  0
   61.2268   30.6331   45.7453 H   0  0  0  0  0  0  0  0  0  0  0  0
   62.7580   31.2350   47.1490 C   0  0  0  0  0  0  0  0  0  0  0  0
   63.5633   30.6201   46.7208 H   0  0  0  0  0  0  0  0  0  0  0  0
   62.7396   32.2456   46.7149 H   0  0  0  0  0  0  0  0  0  0  0  0
   62.9980   31.3810   48.6100 N   0  0  0  0  0  0  0  0  0  0  0  0
   63.5360   32.6790   49.0980 C   0  0  0  0  0  0  0  0  0  0  0  0
   64.5735   32.3500   49.2569 H   0  0  0  0  0  0  0  0  0  0  0  0
   63.2220   33.8750   48.2000 C   0  0  0  0  0  0  0  0  0  0  0  0
   64.1092   34.4346   47.8688 H   0  0  0  0  0  0  0  0  0  0  0  0
   62.7382   33.7294   47.2229 H   0  0  0  0  0  0  0  0  0  0  0  0
   62.4640   34.5300   49.3520 C   0  0  0  0  0  0  0  0  0  0  0  0
   62.9073   35.4750   49.6992 H   0  0  0  0  0  0  0  0  0  0  0  0
   61.4253   34.8637   49.2112 H   0  0  0  0  0  0  0  0  0  0  0  0
   62.7700   33.3350   50.2490 C   0  0  0  0  0  0  0  0  0  0  0  0
   63.3914   33.5761   51.1241 H   0  0  0  0  0  0  0  0  0  0  0  0
   61.9585   32.7964   50.7602 H   0  0  0  0  0  0  0  0  0  0  0  0
   61.9250   30.8420   49.4720 C   0  0  0  0  0  0  0  0  0  0  0  0
   61.9726   29.7433   49.4471 H   0  0  0  0  0  0  0  0  0  0  0  0
   62.0867   31.2343   50.4869 H   0  0  0  0  0  0  0  0  0  0  0  0
   60.5170   31.2850   49.0210 C   0  0  0  0  0  0  0  0  0  0  0  0
   59.7784   30.6094   49.4772 H   0  0  0  0  0  0  0  0  0  0  0  0
   60.3910   32.3285   49.3453 H   0  0  0  0  0  0  0  0  0  0  0  0
   57.8800   32.3620   45.6740 C   0  0  0  0  0  0  0  0  0  0  0  0
   58.0170   33.5880   46.5220 C   0  0  0  0  0  0  0  0  0  0  0  0
   57.9853   33.3044   47.5844 H   0  0  0  0  0  0  0  0  0  0  0  0
   58.9758   34.0805   46.3024 H   0  0  0  0  0  0  0  0  0  0  0  0
   57.1906   34.2800   46.3024 H   0  0  0  0  0  0  0  0  0  0  0  0
   57.2840   32.3670   44.4690 N   0  0  0  0  0  0  0  0  0  0  0  0
   56.8290   33.1920   44.0160 H   0  0  0  0  0  0  0  0  0  0  0  0
  1  2  1  0
  2  3  1  0
  2  4  2  0
  4  5  1  0
  5  6  2  0
  6  7  1  0
  6  8  1  0
  8  9  1  0
  9 10  1  0
 10 11  2  0
 10 12  1  0
 12 13  1  0
 13 14  1  0
  5 15  1  0
 15 16  1  0
 16 17  2  0
 16 18  1  0
 18 19  1  0
 18 20  1  0
 20 21  1  0
 20 22  1  0
 20 23  1  0
 23 24  1  0
 23 25  1  0
 23 26  1  0
 26 27  1  0
 27 28  1  0
 27 29  1  0
 29 30  1  0
 29 31  1  0
 29 32  1  0
 32 33  1  0
 32 34  1  0
 32 35  1  0
 35 36  1  0
 35 37  1  0
 26 38  1  0
 38 39  1  0
 38 40  1  0
 38 41  1  0
 41 42  1  0
 41 43  1  0
 15 44  2  0
 44 45  1  0
 45 46  1  0
 45 47  1  0
 45 48  1  0
 44 49  1  0
 49 50  1  0
 49  4  1  0
 13  8  2  0
 41 18  1  0
 35 27  1  0
M  CHG  3  12  -1  14  -1  18   1
M  END
>  <UniqueID>  (56) 
55

>  <SMILES>  (56) 
C=c1[nH]c(C)c(C(=O)[NH+]2CCN(C3CCC3)CC2)/c1=C/c1sc(=O)[n-]c1[O-]

>  <Energy>  (56) 
207.50658596173855

>  <Genealogy>  (56) 
C=c1[nH]c(C)c(C(=O)[NH+]2CCN(C3CCC3)CC2)c1=Cc1sc(=O)[n-]c1[O-] (protonated)
C=c1[nH]c(C)c(C(=O)[NH+]2CCN(C3CCC3)CC2)/c1=C/c1sc(=O)[n-]c1[O-] (cis-trans isomerization)
C=c1[nH]c(C)c(C(=O)[NH+]2CCN(C3CCC3)CC2)/c1=C/c1sc(=O)[n-]c1[O-] (3D coordinates assigned)
C=c1[nH]c(C)c(C(=O)[NH+]2CCN(C3CCC3)CC2)/c1=C/c1sc(=O)[n-]c1[O-] (nonaromatic ring conformer: 207.50658596173855 kcal/mol)

>  <smiles>  (56) 
C=c1[nH]c(C)c(C(=O)N2CCN(C3CCC3)CC2)c1=Cc1sc(=O)[nH]c1O

>  <score_type>  (56) 
oracle

>  <origin>  (56) 
adg

>  <m_score__min__energy>  (56) 
-13.26

>  <m_primary>  (56) 
energy

$$$$
57:0
     RDKit          3D

 47 50  0  0  1  0  0  0  0  0999 V2000
   55.5580   30.5220   44.5240 O   0  0  0  0  0  0  0  0  0  0  0  0
   56.7090   30.1760   44.1730 C   0  0  0  0  0  0  0  0  0  0  0  0
   57.7290   31.2430   43.9730 C   0  0  0  0  0  0  0  0  0  0  0  0
   58.1340   31.8760   45.2120 N   0  0  0  0  0  0  0  0  0  0  0  0
   58.1030   31.2020   46.4020 C   0  0  0  0  0  0  0  0  0  0  0  0
   58.5510   32.0420   47.3610 N   0  0  0  0  0  0  0  0  0  0  0  0
   58.8430   33.1960   46.7740 C   0  0  0  0  0  0  0  0  0  0  0  0
   59.3230   34.4000   47.2450 C   0  0  0  0  0  0  0  0  0  0  0  0
   59.5780   34.5390   48.4910 N   0  0  0  0  0  0  0  0  0  0  0  0
   60.4310   33.7530   49.3170 C   0  0  0  0  0  0  0  0  0  0  0  0
   61.5640   33.1530   48.5350 C   0  0  0  0  0  0  0  0  0  0  0  0
   61.5560   31.8280   48.1630 C   0  0  0  0  0  0  0  0  0  0  0  0
   62.6590   31.3620   47.4510 C   0  0  0  0  0  0  0  0  0  0  0  0
   63.7190   32.1790   47.1240 C   0  0  0  0  0  0  0  0  0  0  0  0
   63.6630   33.5010   47.5290 C   0  0  0  0  0  0  0  0  0  0  0  0
   62.6020   34.0190   48.2320 C   0  0  0  0  0  0  0  0  0  0  0  0
   59.5430   35.4590   46.4480 N   0  0  0  0  0  0  0  0  0  0  0  0
   59.2820   35.3440   45.1240 C   0  0  0  0  0  0  0  0  0  0  0  0
   58.8040   34.1710   44.6000 N   0  0  0  0  0  0  0  0  0  0  0  0
   58.5910   33.1210   45.4160 C   0  0  0  0  0  0  0  0  0  0  0  0
   57.1000   28.8660   43.9580 O   0  0  0  0  0  0  0  0  0  0  0  0
   58.4120   28.3720   44.0550 C   0  0  0  0  0  0  0  0  0  0  0  0
   58.8240   27.9880   45.4300 C   0  0  0  0  0  0  0  0  0  0  0  0
   59.9270   28.6960   45.9340 C   0  0  0  0  0  0  0  0  0  0  0  0
   60.3720   28.3980   47.2250 C   0  0  0  0  0  0  0  0  0  0  0  0
   59.7250   27.4320   47.9590 C   0  0  0  0  0  0  0  0  0  0  0  0
   58.6390   26.7330   47.4670 C   0  0  0  0  0  0  0  0  0  0  0  0
   58.1930   27.0260   46.1820 C   0  0  0  0  0  0  0  0  0  0  0  0
   58.6163   30.7961   43.5009 H   0  0  0  0  0  0  0  0  0  0  0  0
   57.2748   32.0189   43.3393 H   0  0  0  0  0  0  0  0  0  0  0  0
   57.7729   30.1634   46.5513 H   0  0  0  0  0  0  0  0  0  0  0  0
   60.8451   34.3915   50.1113 H   0  0  0  0  0  0  0  0  0  0  0  0
   59.8350   32.9317   49.7414 H   0  0  0  0  0  0  0  0  0  0  0  0
   60.7152   31.1657   48.4168 H   0  0  0  0  0  0  0  0  0  0  0  0
   62.6844   30.3073   47.1397 H   0  0  0  0  0  0  0  0  0  0  0  0
   64.5810   31.7934   46.5599 H   0  0  0  0  0  0  0  0  0  0  0  0
   64.5031   34.1651   47.2776 H   0  0  0  0  0  0  0  0  0  0  0  0
   62.5779   35.0746   48.5405 H   0  0  0  0  0  0  0  0  0  0  0  0
   59.9010   36.3570   46.7970 H   0  0  0  0  0  0  0  0  0  0  0  0
   59.4560   36.2036   44.4601 H   0  0  0  0  0  0  0  0  0  0  0  0
   58.4936   27.4840   43.4109 H   0  0  0  0  0  0  0  0  0  0  0  0
   59.0788   29.1900   43.7448 H   0  0  0  0  0  0  0  0  0  0  0  0
   60.4280   29.4655   45.3282 H   0  0  0  0  0  0  0  0  0  0  0  0
   61.2339   28.9326   47.6509 H   0  0  0  0  0  0  0  0  0  0  0  0
   60.0846   27.2075   48.9740 H   0  0  0  0  0  0  0  0  0  0  0  0
   58.1400   25.9646   48.0757 H   0  0  0  0  0  0  0  0  0  0  0  0
   57.3306   26.4847   45.7657 H   0  0  0  0  0  0  0  0  0  0  0  0
  1  2  2  0
  2  3  1  0
  3  4  1  0
  4  5  1  0
  5  6  2  0
  6  7  1  0
  7  8  1  0
  8  9  2  0
  9 10  1  0
 10 11  1  0
 11 12  2  0
 12 13  1  0
 13 14  2  0
 14 15  1  0
 15 16  2  0
  8 17  1  0
 17 18  1  0
 18 19  2  0
 19 20  1  0
  2 21  1  0
 21 22  1  0
 22 23  1  0
 23 24  2  0
 24 25  1  0
 25 26  2  0
 26 27  1  0
 27 28  2  0
 20  4  1  0
 28 23  1  0
 20  7  2  0
 16 11  1  0
  3 29  1  0
  3 30  1  0
  5 31  1  0
 10 32  1  0
 10 33  1  0
 12 34  1  0
 13 35  1  0
 14 36  1  0
 15 37  1  0
 16 38  1  0
 17 39  1  0
 18 40  1  0
 22 41  1  0
 22 42  1  0
 24 43  1  0
 25 44  1  0
 26 45  1  0
 27 46  1  0
 28 47  1  0
M  END
>  <smiles>  (57) 
O=C(Cn1cnc2c(=NCc3ccccc3)[nH]cnc21)OCc1ccccc1

>  <score_type>  (57) 
oracle

>  <origin>  (57) 
adg

>  <m_score__min__energy>  (57) 
-8.1400000000000006

>  <m_primary>  (57) 
energy

$$$$
58:0
     RDKit          3D

 64 68  0  0  0  0  0  0  0  0999 V2000
   55.3570   29.9790   44.0400 C   0  0  0  0  0  0  0  0  0  0  0  0
   56.8210   29.7030   44.2050 C   0  0  0  0  0  0  0  0  0  0  0  0
   57.8910   30.5430   43.8800 C   0  0  0  0  0  0  0  0  0  0  0  0
   57.8080   31.8950   43.2900 C   0  0  0  0  0  0  0  0  0  0  0  0
   57.7210   32.0300   42.0410 O   0  0  0  0  0  0  0  0  0  0  0  0
   57.7450   33.0670   44.1130 N   0  0  0  0  0  0  0  0  0  0  0  0
   58.4880   33.2930   45.3200 C   0  0  0  0  0  0  0  0  0  0  0  0
   58.0980   32.6340   46.4910 C   0  0  0  0  0  0  0  0  0  0  0  0
   58.7980   32.8360   47.6830 C   0  0  0  0  0  0  0  0  0  0  0  0
   59.8880   33.7210   47.7270 C   0  0  0  0  0  0  0  0  0  0  0  0
   60.6310   33.9020   48.9490 N   0  0  0  0  0  0  0  0  0  0  0  0
   59.9650   33.7380   50.2470 C   0  0  0  0  0  0  0  0  0  0  0  0
   60.9890   33.3950   51.3430 C   0  0  0  0  0  0  0  0  0  0  0  0
   62.0560   32.5020   50.8400 N   0  0  0  0  0  0  0  0  0  0  0  0
   61.5390   31.1600   50.5180 C   0  0  0  0  0  0  0  0  0  0  0  0
   62.8280   33.0830   49.7090 C   0  0  0  0  0  0  0  0  0  0  0  0
   62.0690   34.1790   48.9370 C   0  0  0  0  0  0  0  0  0  0  0  0
   60.2640   34.4000   46.5550 C   0  0  0  0  0  0  0  0  0  0  0  0
   59.5610   34.1980   45.3640 C   0  0  0  0  0  0  0  0  0  0  0  0
   59.0350   29.9580   44.1900 O   0  0  0  0  0  0  0  0  0  0  0  0
   58.7620   28.7820   44.6980 C   0  0  0  0  0  0  0  0  0  0  0  0
   59.6660   27.8310   45.1590 C   0  0  0  0  0  0  0  0  0  0  0  0
   59.1500   26.6300   45.6780 C   0  0  0  0  0  0  0  0  0  0  0  0
   57.7520   26.4080   45.7290 C   0  0  0  0  0  0  0  0  0  0  0  0
   57.1200   24.9070   46.4070 S   0  0  0  0  0  0  0  0  0  0  0  0
   58.1530   24.3000   47.3150 O   0  0  0  0  0  0  0  0  0  0  0  0
   55.9000   25.2140   47.2300 O   0  0  0  0  0  0  0  0  0  0  0  0
   56.7000   23.7580   45.1600 N   0  0  0  0  0  0  0  0  0  0  0  0
   57.6340   22.6180   45.1710 C   0  0  0  0  0  0  0  0  0  0  0  0
   57.4660   21.7590   43.9020 C   0  0  0  0  0  0  0  0  0  0  0  0
   56.2480   22.0570   43.2490 O   0  0  0  0  0  0  0  0  0  0  0  0
   56.2730   23.3880   42.7620 C   0  0  0  0  0  0  0  0  0  0  0  0
   56.7010   24.4060   43.8420 C   0  0  0  0  0  0  0  0  0  0  0  0
   56.8650   27.3920   45.2460 C   0  0  0  0  0  0  0  0  0  0  0  0
   57.4090   28.5720   44.7360 C   0  0  0  0  0  0  0  0  0  0  0  0
   54.8867   30.0677   45.0304 H   0  0  0  0  0  0  0  0  0  0  0  0
   55.2214   30.9185   43.4842 H   0  0  0  0  0  0  0  0  0  0  0  0
   54.8886   29.1533   43.4842 H   0  0  0  0  0  0  0  0  0  0  0  0
   57.2347   31.9525   46.4729 H   0  0  0  0  0  0  0  0  0  0  0  0
   58.4936   32.2985   48.5932 H   0  0  0  0  0  0  0  0  0  0  0  0
   59.4531   34.6750   50.5114 H   0  0  0  0  0  0  0  0  0  0  0  0
   59.2388   32.9153   50.1709 H   0  0  0  0  0  0  0  0  0  0  0  0
   61.4469   34.3269   51.7063 H   0  0  0  0  0  0  0  0  0  0  0  0
   60.4596   32.8717   52.1529 H   0  0  0  0  0  0  0  0  0  0  0  0
   61.3289   30.6147   51.4499 H   0  0  0  0  0  0  0  0  0  0  0  0
   60.6130   31.2547   49.9319 H   0  0  0  0  0  0  0  0  0  0  0  0
   62.2892   30.6090   49.9319 H   0  0  0  0  0  0  0  0  0  0  0  0
   63.7549   33.5194   50.1096 H   0  0  0  0  0  0  0  0  0  0  0  0
   63.0206   32.2654   48.9988 H   0  0  0  0  0  0  0  0  0  0  0  0
   62.2554   35.1535   49.4120 H   0  0  0  0  0  0  0  0  0  0  0  0
   62.4229   34.1953   47.8956 H   0  0  0  0  0  0  0  0  0  0  0  0
   61.1167   35.0946   46.5753 H   0  0  0  0  0  0  0  0  0  0  0  0
   59.8494   34.7502   44.4574 H   0  0  0  0  0  0  0  0  0  0  0  0
   60.7502   28.0124   45.1190 H   0  0  0  0  0  0  0  0  0  0  0  0
   59.8385   25.8559   46.0478 H   0  0  0  0  0  0  0  0  0  0  0  0
   58.6655   22.9976   45.2154 H   0  0  0  0  0  0  0  0  0  0  0  0
   57.4171   21.9935   46.0502 H   0  0  0  0  0  0  0  0  0  0  0  0
   58.3016   21.9624   43.2161 H   0  0  0  0  0  0  0  0  0  0  0  0
   57.4581   20.6985   44.1938 H   0  0  0  0  0  0  0  0  0  0  0  0
   56.9833   23.4435   41.9239 H   0  0  0  0  0  0  0  0  0  0  0  0
   55.2519   23.6468   42.4452 H   0  0  0  0  0  0  0  0  0  0  0  0
   57.7125   24.7750   43.6166 H   0  0  0  0  0  0  0  0  0  0  0  0
   55.9940   25.2487   43.8494 H   0  0  0  0  0  0  0  0  0  0  0  0
   55.7766   27.2344   45.2704 H   0  0  0  0  0  0  0  0  0  0  0  0
  1  2  1  0
  2  3  2  0
  3  4  1  0
  4  5  2  0
  4  6  1  0
  6  7  1  0
  7  8  2  0
  8  9  1  0
  9 10  2  0
 10 11  1  0
 11 12  1  0
 12 13  1  0
 13 14  1  0
 14 15  1  0
 14 16  1  0
 16 17  1  0
 10 18  1  0
 18 19  2  0
  3 20  1  0
 20 21  1  0
 21 22  2  0
 22 23  1  0
 23 24  2  0
 24 25  1  0
 25 26  2  0
 25 27  2  0
 25 28  1  0
 28 29  1  0
 29 30  1  0
 30 31  1  0
 31 32  1  0
 32 33  1  0
 24 34  1  0
 34 35  2  0
 35  2  1  0
 19  7  1  0
 35 21  1  0
 17 11  1  0
 33 28  1  0
  1 36  1  0
  1 37  1  0
  1 38  1  0
  8 39  1  0
  9 40  1  0
 12 41  1  0
 12 42  1  0
 13 43  1  0
 13 44  1  0
 15 45  1  0
 15 46  1  0
 15 47  1  0
 16 48  1  0
 16 49  1  0
 17 50  1  0
 17 51  1  0
 18 52  1  0
 19 53  1  0
 22 54  1  0
 23 55  1  0
 29 56  1  0
 29 57  1  0
 30 58  1  0
 30 59  1  0
 32 60  1  0
 32 61  1  0
 33 62  1  0
 33 63  1  0
 34 64  1  0
M  CHG  1   6  -1
M  END
>  <UniqueID>  (58) 
56

>  <SMILES>  (58) 
Cc1c(C(=O)[N-]c2ccc(N3CCN(C)CC3)cc2)oc2ccc(S(=O)(=O)N3CCOCC3)cc12

>  <Energy>  (58) 
124.33218434722964

>  <Genealogy>  (58) 
Cc1c(C(=O)[N-]c2ccc(N3CCN(C)CC3)cc2)oc2ccc(S(=O)(=O)N3CCOCC3)cc12 (protonated)
Cc1c(C(=O)[N-]c2ccc(N3CCN(C)CC3)cc2)oc2ccc(S(=O)(=O)N3CCOCC3)cc12 (3D coordinates assigned)
Cc1c(C(=O)[N-]c2ccc(N3CCN(C)CC3)cc2)oc2ccc(S(=O)(=O)N3CCOCC3)cc12 (nonaromatic ring conformer: 124.33218434722964 kcal/mol)

>  <smiles>  (58) 
Cc1c(C(=O)Nc2ccc(N3CCN(C)CC3)cc2)oc2ccc(S(=O)(=O)N3CCOCC3)cc12

>  <score_type>  (58) 
oracle

>  <origin>  (58) 
adg

>  <m_score__min__energy>  (58) 
-11.19

>  <m_primary>  (58) 
energy

$$$$
59:0
     RDKit          3D

 55 58  0  0  0  0  0  0  0  0999 V2000
   59.2380   34.9970   45.9730 C   0  0  0  0  0  0  0  0  0  0  0  0
   58.5850   33.6980   45.6410 C   0  0  0  0  0  0  0  0  0  0  0  0
   58.4880   33.1340   44.3800 C   0  0  0  0  0  0  0  0  0  0  0  0
   57.8090   31.9500   44.6200 C   0  0  0  0  0  0  0  0  0  0  0  0
   57.4230   31.0620   43.7490 N   0  0  0  0  0  0  0  0  0  0  0  0
   56.7950   29.7970   44.0140 C   0  0  0  0  0  0  0  0  0  0  0  0
   55.9130   29.6750   44.9060 O   0  0  0  0  0  0  0  0  0  0  0  0
   57.2080   28.6000   43.2200 C   0  0  0  0  0  0  0  0  0  0  0  0
   58.7150   27.8430   43.9250 S   0  0  0  0  0  0  0  0  0  0  0  0
   57.9090   26.3080   44.4330 C   0  0  0  0  0  0  0  0  0  0  0  0
   57.4300   25.4640   43.4200 C   0  0  0  0  0  0  0  0  0  0  0  0
   56.7120   24.3110   43.7370 C   0  0  0  0  0  0  0  0  0  0  0  0
   56.4690   23.9860   45.0710 C   0  0  0  0  0  0  0  0  0  0  0  0
   56.9550   24.8060   46.0930 C   0  0  0  0  0  0  0  0  0  0  0  0
   57.6940   25.9660   45.7930 C   0  0  0  0  0  0  0  0  0  0  0  0
   58.2020   26.7910   46.9140 C   0  0  0  0  0  0  0  0  0  0  0  0
   58.8500   26.2390   47.8440 O   0  0  0  0  0  0  0  0  0  0  0  0
   57.9480   28.2020   46.9470 N   0  0  0  0  0  0  0  0  0  0  0  0
   58.8970   29.2490   47.1910 C   0  0  0  0  0  0  0  0  0  0  0  0
   58.8840   30.0130   48.3710 C   0  0  0  0  0  0  0  0  0  0  0  0
   59.8390   31.0140   48.5720 C   0  0  0  0  0  0  0  0  0  0  0  0
   60.8350   31.2540   47.6110 C   0  0  0  0  0  0  0  0  0  0  0  0
   61.8060   32.2990   47.8150 N   0  0  0  0  0  0  0  0  0  0  0  0
   62.6040   32.3260   49.0460 C   0  0  0  0  0  0  0  0  0  0  0  0
   63.7660   33.3110   48.9040 C   0  0  0  0  0  0  0  0  0  0  0  0
   64.2810   33.2410   47.5910 O   0  0  0  0  0  0  0  0  0  0  0  0
   63.3830   33.8500   46.6780 C   0  0  0  0  0  0  0  0  0  0  0  0
   61.9090   33.4160   46.8690 C   0  0  0  0  0  0  0  0  0  0  0  0
   60.8580   30.4740   46.4440 C   0  0  0  0  0  0  0  0  0  0  0  0
   59.9020   29.4740   46.2440 C   0  0  0  0  0  0  0  0  0  0  0  0
   57.5300   31.8520   45.9320 N   0  0  0  0  0  0  0  0  0  0  0  0
   58.0090   32.9070   46.5180 O   0  0  0  0  0  0  0  0  0  0  0  0
   59.2949   35.1101   47.0657 H   0  0  0  0  0  0  0  0  0  0  0  0
   60.2529   35.0161   45.5491 H   0  0  0  0  0  0  0  0  0  0  0  0
   58.6479   35.8229   45.5491 H   0  0  0  0  0  0  0  0  0  0  0  0
   58.8589   33.5289   43.4227 H   0  0  0  0  0  0  0  0  0  0  0  0
   56.3936   27.8607   43.2318 H   0  0  0  0  0  0  0  0  0  0  0  0
   57.4218   28.9172   42.1887 H   0  0  0  0  0  0  0  0  0  0  0  0
   57.6224   25.7138   42.3661 H   0  0  0  0  0  0  0  0  0  0  0  0
   56.3375   23.6582   42.9348 H   0  0  0  0  0  0  0  0  0  0  0  0
   55.8935   23.0821   45.3195 H   0  0  0  0  0  0  0  0  0  0  0  0
   56.7581   24.5423   47.1426 H   0  0  0  0  0  0  0  0  0  0  0  0
   58.1197   29.8225   49.1389 H   0  0  0  0  0  0  0  0  0  0  0  0
   59.8102   31.6187   49.4904 H   0  0  0  0  0  0  0  0  0  0  0  0
   61.9652   32.6370   49.8858 H   0  0  0  0  0  0  0  0  0  0  0  0
   63.0083   31.3201   49.2325 H   0  0  0  0  0  0  0  0  0  0  0  0
   63.4086   34.3319   49.1043 H   0  0  0  0  0  0  0  0  0  0  0  0
   64.5569   33.0531   49.6237 H   0  0  0  0  0  0  0  0  0  0  0  0
   63.4431   34.9407   46.8075 H   0  0  0  0  0  0  0  0  0  0  0  0
   63.6838   33.5290   45.6698 H   0  0  0  0  0  0  0  0  0  0  0  0
   61.3306   34.2683   47.2550 H   0  0  0  0  0  0  0  0  0  0  0  0
   61.5123   33.0884   45.8967 H   0  0  0  0  0  0  0  0  0  0  0  0
   61.6324   30.6507   45.6830 H   0  0  0  0  0  0  0  0  0  0  0  0
   59.9402   28.8581   45.3334 H   0  0  0  0  0  0  0  0  0  0  0  0
   57.0180   31.0790   46.4110 H   0  0  0  0  0  0  0  0  0  0  0  0
  1  2  1  0
  2  3  2  0
  3  4  1  0
  4  5  2  3
  5  6  1  0
  6  7  2  0
  6  8  1  0
  8  9  1  0
  9 10  1  0
 10 11  2  0
 11 12  1  0
 12 13  2  0
 13 14  1  0
 14 15  2  0
 15 16  1  0
 16 17  2  0
 16 18  1  0
 18 19  1  0
 19 20  2  0
 20 21  1  0
 21 22  2  0
 22 23  1  0
 23 24  1  0
 24 25  1  0
 25 26  1  0
 26 27  1  0
 27 28  1  0
 22 29  1  0
 29 30  2  0
  4 31  1  0
 31 32  1  0
 32  2  1  0
 15 10  1  0
 30 19  1  0
 28 23  1  0
  1 33  1  0
  1 34  1  0
  1 35  1  0
  3 36  1  0
  8 37  1  0
  8 38  1  0
 11 39  1  0
 12 40  1  0
 13 41  1  0
 14 42  1  0
 20 43  1  0
 21 44  1  0
 24 45  1  0
 24 46  1  0
 25 47  1  0
 25 48  1  0
 27 49  1  0
 27 50  1  0
 28 51  1  0
 28 52  1  0
 29 53  1  0
 30 54  1  0
 31 55  1  0
M  CHG  1  18  -1
M  END
>  <UniqueID>  (59) 
57

>  <SMILES>  (59) 
Cc1cc(=NC(=O)CSc2ccccc2C(=O)[N-]c2ccc(N3CCOCC3)cc2)[nH]o1

>  <Energy>  (59) 
105.57031305210724

>  <Genealogy>  (59) 
Cc1cc(=NC(=O)CSc2ccccc2C(=O)[N-]c2ccc(N3CCOCC3)cc2)[nH]o1 (protonated)
Cc1cc(=NC(=O)CSc2ccccc2C(=O)[N-]c2ccc(N3CCOCC3)cc2)[nH]o1 (3D coordinates assigned)
Cc1cc(=NC(=O)CSc2ccccc2C(=O)[N-]c2ccc(N3CCOCC3)cc2)[nH]o1 (nonaromatic ring conformer: 105.57031305210724 kcal/mol)

>  <smiles>  (59) 
Cc1cc(=NC(=O)CSc2ccccc2C(=O)Nc2ccc(N3CCOCC3)cc2)[nH]o1

>  <score_type>  (59) 
oracle

>  <origin>  (59) 
adg

>  <m_score__min__energy>  (59) 
-10.039999999999999

>  <m_primary>  (59) 
energy

$$$$
60:0
     RDKit          3D

 48 50  0  0  0  0  0  0  0  0999 V2000
   64.6690   32.0420   50.7850 C   0  0  0  0  0  0  0  0  0  0  0  0
   64.0060   32.2500   49.6480 C   0  0  0  0  0  0  0  0  0  0  0  0
   64.4630   33.1180   48.6040 N   0  0  0  0  0  0  0  0  0  0  0  0
   63.4130   32.9930   47.6210 C   0  0  0  0  0  0  0  0  0  0  0  0
   63.3940   33.8420   46.3840 C   0  0  0  0  0  0  0  0  0  0  0  0
   62.4310   32.1520   47.9730 C   0  0  0  0  0  0  0  0  0  0  0  0
   61.1900   31.8720   47.2270 C   0  0  0  0  0  0  0  0  0  0  0  0
   61.1120   30.8060   46.5600 O   0  0  0  0  0  0  0  0  0  0  0  0
   60.0910   32.8010   47.2220 N   0  0  0  0  0  0  0  0  0  0  0  0
   58.7150   32.2980   47.2200 C   0  0  0  0  0  0  0  0  0  0  0  0
   57.7470   33.3770   46.7140 C   0  0  0  0  0  0  0  0  0  0  0  0
   58.3340   34.1610   45.6060 N   0  0  0  0  0  0  0  0  0  0  0  0
   58.6240   33.3640   44.3870 C   0  0  0  0  0  0  0  0  0  0  0  0
   57.4090   32.5410   43.9040 C   0  0  0  0  0  0  0  0  0  0  0  0
   57.4940   31.0810   44.2840 C   0  0  0  0  0  0  0  0  0  0  0  0
   58.7410   30.4700   44.5020 C   0  0  0  0  0  0  0  0  0  0  0  0
   58.8130   29.1200   44.8620 C   0  0  0  0  0  0  0  0  0  0  0  0
   57.6430   28.3750   45.0230 C   0  0  0  0  0  0  0  0  0  0  0  0
   56.3970   28.9790   44.8350 C   0  0  0  0  0  0  0  0  0  0  0  0
   56.3200   30.3280   44.4750 C   0  0  0  0  0  0  0  0  0  0  0  0
   59.5270   34.9260   46.0540 C   0  0  0  0  0  0  0  0  0  0  0  0
   60.3250   34.2500   47.1920 C   0  0  0  0  0  0  0  0  0  0  0  0
   62.7430   31.6470   49.2880 C   0  0  0  0  0  0  0  0  0  0  0  0
   62.0580   30.8430   49.9740 O   0  0  0  0  0  0  0  0  0  0  0  0
   64.2581   31.3607   51.5446 H   0  0  0  0  0  0  0  0  0  0  0  0
   65.6272   32.5516   50.9640 H   0  0  0  0  0  0  0  0  0  0  0  0
   65.3700   32.7760   48.2100 H   0  0  0  0  0  0  0  0  0  0  0  0
   64.5210   34.1030   48.9510 H   0  0  0  0  0  0  0  0  0  0  0  0
   63.3702   34.9043   46.6687 H   0  0  0  0  0  0  0  0  0  0  0  0
   64.2968   33.6422   45.7882 H   0  0  0  0  0  0  0  0  0  0  0  0
   62.5010   33.6020   45.7882 H   0  0  0  0  0  0  0  0  0  0  0  0
   58.6523   31.4186   46.5622 H   0  0  0  0  0  0  0  0  0  0  0  0
   58.4356   32.0242   48.2481 H   0  0  0  0  0  0  0  0  0  0  0  0
   56.8260   32.8916   46.3587 H   0  0  0  0  0  0  0  0  0  0  0  0
   57.5340   34.0645   47.5458 H   0  0  0  0  0  0  0  0  0  0  0  0
   58.9253   34.0506   43.5821 H   0  0  0  0  0  0  0  0  0  0  0  0
   59.4247   32.6534   44.6398 H   0  0  0  0  0  0  0  0  0  0  0  0
   56.4981   32.9665   44.3502 H   0  0  0  0  0  0  0  0  0  0  0  0
   57.3925   32.5939   42.8054 H   0  0  0  0  0  0  0  0  0  0  0  0
   59.6649   31.0562   44.3890 H   0  0  0  0  0  0  0  0  0  0  0  0
   59.7926   28.6448   45.0184 H   0  0  0  0  0  0  0  0  0  0  0  0
   57.7022   27.3116   45.2981 H   0  0  0  0  0  0  0  0  0  0  0  0
   55.4761   28.3928   44.9703 H   0  0  0  0  0  0  0  0  0  0  0  0
   55.3371   30.8032   44.3404 H   0  0  0  0  0  0  0  0  0  0  0  0
   60.1979   35.0542   45.1917 H   0  0  0  0  0  0  0  0  0  0  0  0
   59.1569   35.8818   46.4533 H   0  0  0  0  0  0  0  0  0  0  0  0
   61.3979   34.4362   47.0365 H   0  0  0  0  0  0  0  0  0  0  0  0
   59.9902   34.6749   48.1498 H   0  0  0  0  0  0  0  0  0  0  0  0
  1  2  2  0
  2  3  1  0
  3  4  1  0
  4  5  1  0
  4  6  2  0
  6  7  1  0
  7  8  2  0
  7  9  1  0
  9 10  1  0
 10 11  1  0
 11 12  1  0
 12 13  1  0
 13 14  1  0
 14 15  1  0
 15 16  2  0
 16 17  1  0
 17 18  2  0
 18 19  1  0
 19 20  2  0
 12 21  1  0
 21 22  1  0
  6 23  1  0
 23 24  2  0
 23  2  1  0
 22  9  1  0
 20 15  1  0
  1 25  1  0
  1 26  1  0
  3 27  1  0
  3 28  1  0
  5 29  1  0
  5 30  1  0
  5 31  1  0
 10 32  1  0
 10 33  1  0
 11 34  1  0
 11 35  1  0
 13 36  1  0
 13 37  1  0
 14 38  1  0
 14 39  1  0
 16 40  1  0
 17 41  1  0
 18 42  1  0
 19 43  1  0
 20 44  1  0
 21 45  1  0
 21 46  1  0
 22 47  1  0
 22 48  1  0
M  CHG  1   3   1
M  END
>  <UniqueID>  (60) 
58

>  <SMILES>  (60) 
C=C1[NH2+]C(C)=C(C(=O)N2CCN(CCc3ccccc3)CC2)C1=O

>  <Energy>  (60) 
81.06554797665777

>  <Genealogy>  (60) 
C=C1[NH2+]C(C)=C(C(=O)N2CCN(CCc3ccccc3)CC2)C1=O (protonated)
C=C1[NH2+]C(C)=C(C(=O)N2CCN(CCc3ccccc3)CC2)C1=O (3D coordinates assigned)
C=C1[NH2+]C(C)=C(C(=O)N2CCN(CCc3ccccc3)CC2)C1=O (nonaromatic ring conformer: 81.06554797665777 kcal/mol)

>  <smiles>  (60) 
C=C1NC(C)=C(C(=O)N2CCN(CCc3ccccc3)CC2)C1=O

>  <score_type>  (60) 
oracle

>  <origin>  (60) 
adg

>  <m_score__min__energy>  (60) 
-6.9500000000000002

>  <m_primary>  (60) 
energy

$$$$
61:0
     RDKit          3D

 58 62  0  0  0  0  0  0  0  0999 V2000
   58.1900   26.8000   43.7510 C   0  0  0  0  0  0  0  0  0  0  0  0
   58.5290   27.2790   45.1380 C   0  0  0  0  0  0  0  0  0  0  0  0
   59.2750   26.4380   45.9780 C   0  0  0  0  0  0  0  0  0  0  0  0
   59.6230   26.8440   47.2660 C   0  0  0  0  0  0  0  0  0  0  0  0
   59.2380   28.1010   47.7590 C   0  0  0  0  0  0  0  0  0  0  0  0
   59.6310   28.4730   49.1930 C   0  0  0  0  0  0  0  0  0  0  0  0
   58.7070   29.5620   49.7790 C   0  0  0  0  0  0  0  0  0  0  0  0
   59.1100   30.9580   49.3060 C   0  0  0  0  0  0  0  0  0  0  0  0
   60.4950   31.2490   49.7330 N   0  0  0  0  0  0  0  0  0  0  0  0
   60.8260   32.6930   49.5600 C   0  0  0  0  0  0  0  0  0  0  0  0
   59.5840   33.6170   49.3960 C   0  0  0  0  0  0  0  0  0  0  0  0
   59.6040   33.9640   47.9550 C   0  0  0  0  0  0  0  0  0  0  0  0
   58.5870   34.5900   47.2300 C   0  0  0  0  0  0  0  0  0  0  0  0
   58.7830   34.8230   45.8600 C   0  0  0  0  0  0  0  0  0  0  0  0
   59.9890   34.4400   45.2430 C   0  0  0  0  0  0  0  0  0  0  0  0
   60.9990   33.8190   45.9920 C   0  0  0  0  0  0  0  0  0  0  0  0
   60.7790   33.5850   47.3520 C   0  0  0  0  0  0  0  0  0  0  0  0
   61.7050   32.9230   48.3040 C   0  0  0  0  0  0  0  0  0  0  0  0
   61.4490   30.3190   49.0860 C   0  0  0  0  0  0  0  0  0  0  0  0
   61.1160   28.8500   49.4250 C   0  0  0  0  0  0  0  0  0  0  0  0
   58.5090   28.9520   46.9060 C   0  0  0  0  0  0  0  0  0  0  0  0
   58.1170   28.5450   45.6200 C   0  0  0  0  0  0  0  0  0  0  0  0
   57.2430   29.4500   44.8340 C   0  0  0  0  0  0  0  0  0  0  0  0
   56.0800   29.7220   45.2420 O   0  0  0  0  0  0  0  0  0  0  0  0
   57.7420   30.0800   43.6460 N   0  0  0  0  0  0  0  0  0  0  0  0
   57.1610   31.3250   43.1430 C   0  0  0  0  0  0  0  0  0  0  0  0
   57.8050   32.5670   43.7430 C   0  0  0  0  0  0  0  0  0  0  0  0
   58.1210   32.1620   42.3100 C   0  0  0  0  0  0  0  0  0  0  0  0
   57.5557   25.9038   43.8174 H   0  0  0  0  0  0  0  0  0  0  0  0
   57.6502   27.5920   43.2113 H   0  0  0  0  0  0  0  0  0  0  0  0
   59.1165   26.5543   43.2113 H   0  0  0  0  0  0  0  0  0  0  0  0
   59.5887   25.4476   45.6165 H   0  0  0  0  0  0  0  0  0  0  0  0
   60.2089   26.1682   47.9063 H   0  0  0  0  0  0  0  0  0  0  0  0
   59.4925   27.5272   49.7373 H   0  0  0  0  0  0  0  0  0  0  0  0
   57.6733   29.3620   49.4604 H   0  0  0  0  0  0  0  0  0  0  0  0
   58.7937   29.5325   50.8752 H   0  0  0  0  0  0  0  0  0  0  0  0
   59.0485   31.0040   48.2087 H   0  0  0  0  0  0  0  0  0  0  0  0
   58.4296   31.7019   49.7460 H   0  0  0  0  0  0  0  0  0  0  0  0
   61.3523   32.9559   50.4895 H   0  0  0  0  0  0  0  0  0  0  0  0
   58.6588   33.0838   49.6600 H   0  0  0  0  0  0  0  0  0  0  0  0
   59.6151   34.4998   50.0515 H   0  0  0  0  0  0  0  0  0  0  0  0
   57.6518   34.8940   47.7229 H   0  0  0  0  0  0  0  0  0  0  0  0
   57.9925   35.3060   45.2669 H   0  0  0  0  0  0  0  0  0  0  0  0
   60.1396   34.6285   44.1698 H   0  0  0  0  0  0  0  0  0  0  0  0
   61.9461   33.5218   45.5181 H   0  0  0  0  0  0  0  0  0  0  0  0
   62.0695   31.9677   47.8985 H   0  0  0  0  0  0  0  0  0  0  0  0
   62.6047   33.5203   48.5133 H   0  0  0  0  0  0  0  0  0  0  0  0
   61.3992   30.4555   47.9956 H   0  0  0  0  0  0  0  0  0  0  0  0
   62.4593   30.5417   49.4598 H   0  0  0  0  0  0  0  0  0  0  0  0
   61.7409   28.1992   48.7958 H   0  0  0  0  0  0  0  0  0  0  0  0
   61.3151   28.7171   50.4986 H   0  0  0  0  0  0  0  0  0  0  0  0
   58.2400   29.9598   47.2552 H   0  0  0  0  0  0  0  0  0  0  0  0
   58.5500   29.6510   43.1390 H   0  0  0  0  0  0  0  0  0  0  0  0
   56.1322   30.9599   43.0079 H   0  0  0  0  0  0  0  0  0  0  0  0
   57.1961   33.4616   43.9402 H   0  0  0  0  0  0  0  0  0  0  0  0
   58.4031   32.7759   44.6422 H   0  0  0  0  0  0  0  0  0  0  0  0
   57.7405   32.7641   41.4717 H   0  0  0  0  0  0  0  0  0  0  0  0
   59.0422   31.9571   41.7448 H   0  0  0  0  0  0  0  0  0  0  0  0
  1  2  1  0
  2  3  2  0
  3  4  1  0
  4  5  2  0
  5  6  1  0
  6  7  1  0
  7  8  1  0
  8  9  1  0
  9 10  1  0
 10 11  1  0
 11 12  1  0
 12 13  2  0
 13 14  1  0
 14 15  2  0
 15 16  1  0
 16 17  2  0
 17 18  1  0
  9 19  1  0
 19 20  1  0
  5 21  1  0
 21 22  2  0
 22 23  1  0
 23 24  2  0
 23 25  1  0
 25 26  1  0
 26 27  1  0
 27 28  1  0
 22  2  1  0
 28 26  1  0
 20  6  1  0
 18 10  1  0
 17 12  1  0
  1 29  1  0
  1 30  1  0
  1 31  1  0
  3 32  1  0
  4 33  1  0
  6 34  1  0
  7 35  1  0
  7 36  1  0
  8 37  1  0
  8 38  1  0
 10 39  1  0
 11 40  1  0
 11 41  1  0
 13 42  1  0
 14 43  1  0
 15 44  1  0
 16 45  1  0
 18 46  1  0
 18 47  1  0
 19 48  1  0
 19 49  1  0
 20 50  1  0
 20 51  1  0
 21 52  1  0
 25 53  1  0
 26 54  1  0
 27 55  1  0
 27 56  1  0
 28 57  1  0
 28 58  1  0
M  END
>  <UniqueID>  (61) 
59

>  <SMILES>  (61) 
Cc1ccc(C2CCN(C3Cc4ccccc4C3)CC2)cc1C(=O)NC1CC1

>  <Energy>  (61) 
346.1319774132077

>  <Genealogy>  (61) 
Cc1ccc(C2CCN(C3Cc4ccccc4C3)CC2)cc1C(=O)NC1CC1 (3D coordinates assigned)
Cc1ccc(C2CCN(C3Cc4ccccc4C3)CC2)cc1C(=O)NC1CC1 (nonaromatic ring conformer: 346.1319774132077 kcal/mol)

>  <smiles>  (61) 
Cc1ccc(C2CCN(C3Cc4ccccc4C3)CC2)cc1C(=O)NC1CC1

>  <score_type>  (61) 
oracle

>  <origin>  (61) 
adg

>  <m_score__min__energy>  (61) 
-9.3399999999999999

>  <m_primary>  (61) 
energy

$$$$
62:0
     RDKit          3D

 47 49  0  0  0  0  0  0  0  0999 V2000
   57.2030   34.1510   44.8090 O   0  0  0  0  0  0  0  0  0  0  0  0
   57.6130   32.9790   45.0290 C   0  0  0  0  0  0  0  0  0  0  0  0
   56.7590   31.8180   44.6140 C   0  0  0  0  0  0  0  0  0  0  0  0
   57.3890   30.5620   45.0130 N   0  0  0  0  0  0  0  0  0  0  0  0
   56.6330   29.3610   45.2400 C   0  0  0  0  0  0  0  0  0  0  0  0
   55.3720   29.3940   45.2020 O   0  0  0  0  0  0  0  0  0  0  0  0
   57.3190   28.0810   45.5380 C   0  0  0  0  0  0  0  0  0  0  0  0
   56.5810   26.9330   45.8830 C   0  0  0  0  0  0  0  0  0  0  0  0
   55.1930   27.0160   45.9720 O   0  0  0  0  0  0  0  0  0  0  0  0
   57.2190   25.7480   46.1530 N   0  0  0  0  0  0  0  0  0  0  0  0
   56.4320   24.5410   46.4760 C   0  0  0  0  0  0  0  0  0  0  0  0
   56.5410   23.5280   45.3650 C   0  0  0  0  0  0  0  0  0  0  0  0
   56.1090   23.8470   44.0660 C   0  0  0  0  0  0  0  0  0  0  0  0
   56.2420   22.9170   43.0300 C   0  0  0  0  0  0  0  0  0  0  0  0
   56.8100   21.6650   43.2800 C   0  0  0  0  0  0  0  0  0  0  0  0
   57.2440   21.3400   44.5670 C   0  0  0  0  0  0  0  0  0  0  0  0
   57.1130   22.2670   45.6070 C   0  0  0  0  0  0  0  0  0  0  0  0
   58.5890   25.6840   46.0820 C   0  0  0  0  0  0  0  0  0  0  0  0
   59.2010   24.6100   46.3310 O   0  0  0  0  0  0  0  0  0  0  0  0
   59.3090   26.7820   45.7430 N   0  0  0  0  0  0  0  0  0  0  0  0
   58.7160   27.9660   45.4640 C   0  0  0  0  0  0  0  0  0  0  0  0
   59.4310   28.9440   45.1180 O   0  0  0  0  0  0  0  0  0  0  0  0
   58.8840   32.7520   45.6590 N   0  0  0  0  0  0  0  0  0  0  0  0
   59.8180   33.7990   45.9690 C   0  0  0  0  0  0  0  0  0  0  0  0
   59.6820   34.9450   45.4570 O   0  0  0  0  0  0  0  0  0  0  0  0
   60.9850   33.5310   46.8360 C   0  0  0  0  0  0  0  0  0  0  0  0
   62.2720   33.8270   46.3540 C   0  0  0  0  0  0  0  0  0  0  0  0
   63.4010   33.5710   47.1380 C   0  0  0  0  0  0  0  0  0  0  0  0
   63.2570   33.0260   48.4150 C   0  0  0  0  0  0  0  0  0  0  0  0
   61.9840   32.7450   48.9150 C   0  0  0  0  0  0  0  0  0  0  0  0
   60.8440   32.9960   48.1390 C   0  0  0  0  0  0  0  0  0  0  0  0
   59.2680   32.7080   48.8700 Cl  0  0  0  0  0  0  0  0  0  0  0  0
   55.7741   31.9002   45.0968 H   0  0  0  0  0  0  0  0  0  0  0  0
   56.6425   31.8302   43.5203 H   0  0  0  0  0  0  0  0  0  0  0  0
   58.4210   30.5590   45.1730 H   0  0  0  0  0  0  0  0  0  0  0  0
   56.8134   24.0987   47.4082 H   0  0  0  0  0  0  0  0  0  0  0  0
   55.3763   24.8257   46.5961 H   0  0  0  0  0  0  0  0  0  0  0  0
   55.6643   24.8325   43.8634 H   0  0  0  0  0  0  0  0  0  0  0  0
   55.8988   23.1716   42.0164 H   0  0  0  0  0  0  0  0  0  0  0  0
   56.9153   20.9356   42.4633 H   0  0  0  0  0  0  0  0  0  0  0  0
   57.6896   20.3537   44.7635 H   0  0  0  0  0  0  0  0  0  0  0  0
   57.4592   22.0078   46.6184 H   0  0  0  0  0  0  0  0  0  0  0  0
   59.1590   31.7690   45.8770 H   0  0  0  0  0  0  0  0  0  0  0  0
   62.3918   34.2637   45.3515 H   0  0  0  0  0  0  0  0  0  0  0  0
   64.4039   33.7993   46.7480 H   0  0  0  0  0  0  0  0  0  0  0  0
   64.1466   32.8179   49.0275 H   0  0  0  0  0  0  0  0  0  0  0  0
   61.8749   32.3236   49.9252 H   0  0  0  0  0  0  0  0  0  0  0  0
  1  2  2  0
  2  3  1  0
  3  4  1  0
  4  5  1  0
  5  6  2  0
  5  7  1  0
  7  8  2  0
  8  9  1  0
  8 10  1  0
 10 11  1  0
 11 12  1  0
 12 13  2  0
 13 14  1  0
 14 15  2  0
 15 16  1  0
 16 17  2  0
 10 18  1  0
 18 19  2  0
 18 20  1  0
 20 21  1  0
 21 22  2  0
  2 23  1  0
 23 24  1  0
 24 25  2  0
 24 26  1  0
 26 27  2  0
 27 28  1  0
 28 29  2  0
 29 30  1  0
 30 31  2  0
 31 32  1  0
 21  7  1  0
 31 26  1  0
 17 12  1  0
  3 33  1  0
  3 34  1  0
  4 35  1  0
 11 36  1  0
 11 37  1  0
 13 38  1  0
 14 39  1  0
 15 40  1  0
 16 41  1  0
 17 42  1  0
 23 43  1  0
 27 44  1  0
 28 45  1  0
 29 46  1  0
 30 47  1  0
M  CHG  2   9  -1  20  -1
M  END
>  <UniqueID>  (62) 
60

>  <SMILES>  (62) 
O=C(CNC(=O)c1c([O-])n(Cc2ccccc2)c(=O)[n-]c1=O)NC(=O)c1ccccc1Cl

>  <Energy>  (62) 
61.85074075959155

>  <Genealogy>  (62) 
O=C(CNC(=O)c1c([O-])n(Cc2ccccc2)c(=O)[n-]c1=O)NC(=O)c1ccccc1Cl (protonated)
O=C(CNC(=O)c1c([O-])n(Cc2ccccc2)c(=O)[n-]c1=O)NC(=O)c1ccccc1Cl (3D coordinates assigned)
O=C(CNC(=O)c1c([O-])n(Cc2ccccc2)c(=O)[n-]c1=O)NC(=O)c1ccccc1Cl (optimized conformer: 61.85074075959155 kcal/mol)

>  <smiles>  (62) 
O=C(CNC(=O)c1c(O)n(Cc2ccccc2)c(=O)[nH]c1=O)NC(=O)c1ccccc1Cl

>  <score_type>  (62) 
oracle

>  <origin>  (62) 
adg

>  <m_score__min__energy>  (62) 
-14.81

>  <m_primary>  (62) 
energy

$$$$
63:0
     RDKit          3D

 47 49  0  0  0  0  0  0  0  0999 V2000
   58.3310   27.9000   48.2810 O   0  0  0  0  0  0  0  0  0  0  0  0
   59.4210   28.4810   48.5340 C   0  0  0  0  0  0  0  0  0  0  0  0
   60.6560   27.9080   48.0750 N   0  0  0  0  0  0  0  0  0  0  0  0
   60.7140   26.5950   47.4280 C   0  0  0  0  0  0  0  0  0  0  0  0
   59.5780   26.4060   46.4510 C   0  0  0  0  0  0  0  0  0  0  0  0
   58.9990   25.2870   46.3880 O   0  0  0  0  0  0  0  0  0  0  0  0
   59.1280   27.4960   45.6140 N   0  0  0  0  0  0  0  0  0  0  0  0
   57.9140   27.3490   44.7960 C   0  0  0  0  0  0  0  0  0  0  0  0
   57.0680   28.6280   44.8570 C   0  0  0  0  0  0  0  0  0  0  0  0
   57.8920   29.8340   44.7130 N   0  0  0  0  0  0  0  0  0  0  0  0
   57.2420   31.1120   44.5880 C   0  0  0  0  0  0  0  0  0  0  0  0
   56.1980   31.2090   43.8870 O   0  0  0  0  0  0  0  0  0  0  0  0
   57.7600   32.3140   45.2830 C   0  0  0  0  0  0  0  0  0  0  0  0
   57.9920   32.2860   46.6700 C   0  0  0  0  0  0  0  0  0  0  0  0
   58.4910   33.4150   47.3260 C   0  0  0  0  0  0  0  0  0  0  0  0
   58.7730   34.5780   46.6040 C   0  0  0  0  0  0  0  0  0  0  0  0
   58.5610   34.6110   45.2250 C   0  0  0  0  0  0  0  0  0  0  0  0
   58.0610   33.4840   44.5630 C   0  0  0  0  0  0  0  0  0  0  0  0
   59.3380   29.7120   44.4950 C   0  0  0  0  0  0  0  0  0  0  0  0
   59.9380   28.7220   45.4990 C   0  0  0  0  0  0  0  0  0  0  0  0
   59.4060   29.7570   49.2910 C   0  0  0  0  0  0  0  0  0  0  0  0
   58.4620   29.9840   50.3110 C   0  0  0  0  0  0  0  0  0  0  0  0
   58.4560   31.1940   51.0130 C   0  0  0  0  0  0  0  0  0  0  0  0
   59.3850   32.1900   50.7040 C   0  0  0  0  0  0  0  0  0  0  0  0
   59.3720   33.8410   51.6640 Br  0  0  0  0  0  0  0  0  0  0  0  0
   60.3200   31.9800   49.6860 C   0  0  0  0  0  0  0  0  0  0  0  0
   60.3300   30.7720   48.9810 C   0  0  0  0  0  0  0  0  0  0  0  0
   61.4920   28.5290   47.9900 H   0  0  0  0  0  0  0  0  0  0  0  0
   61.6680   26.5050   46.8879 H   0  0  0  0  0  0  0  0  0  0  0  0
   60.6295   25.8234   48.2074 H   0  0  0  0  0  0  0  0  0  0  0  0
   58.2019   27.1546   43.7523 H   0  0  0  0  0  0  0  0  0  0  0  0
   57.3200   26.5100   45.1876 H   0  0  0  0  0  0  0  0  0  0  0  0
   56.3271   28.6039   44.0443 H   0  0  0  0  0  0  0  0  0  0  0  0
   56.5757   28.6657   45.8399 H   0  0  0  0  0  0  0  0  0  0  0  0
   57.7796   31.3705   47.2417 H   0  0  0  0  0  0  0  0  0  0  0  0
   58.6620   33.3881   48.4123 H   0  0  0  0  0  0  0  0  0  0  0  0
   59.1618   35.4669   47.1224 H   0  0  0  0  0  0  0  0  0  0  0  0
   58.7875   35.5253   44.6569 H   0  0  0  0  0  0  0  0  0  0  0  0
   57.9027   33.5134   43.4748 H   0  0  0  0  0  0  0  0  0  0  0  0
   59.5230   29.3510   43.4725 H   0  0  0  0  0  0  0  0  0  0  0  0
   59.8083   30.6966   44.6339 H   0  0  0  0  0  0  0  0  0  0  0  0
   60.9507   28.4492   45.1674 H   0  0  0  0  0  0  0  0  0  0  0  0
   59.9610   29.2088   46.4851 H   0  0  0  0  0  0  0  0  0  0  0  0
   57.7251   29.2053   50.5572 H   0  0  0  0  0  0  0  0  0  0  0  0
   57.7174   31.3615   51.8107 H   0  0  0  0  0  0  0  0  0  0  0  0
   61.0489   32.7660   49.4391 H   0  0  0  0  0  0  0  0  0  0  0  0
   61.0655   30.6143   48.1784 H   0  0  0  0  0  0  0  0  0  0  0  0
  1  2  2  0
  2  3  1  0
  3  4  1  0
  4  5  1  0
  5  6  2  0
  5  7  1  0
  7  8  1  0
  8  9  1  0
  9 10  1  0
 10 11  1  0
 11 12  2  0
 11 13  1  0
 13 14  2  0
 14 15  1  0
 15 16  2  0
 16 17  1  0
 17 18  2  0
 10 19  1  0
 19 20  1  0
  2 21  1  0
 21 22  2  0
 22 23  1  0
 23 24  2  0
 24 25  1  0
 24 26  1  0
 26 27  2  0
 20  7  1  0
 27 21  1  0
 18 13  1  0
  3 28  1  0
  4 29  1  0
  4 30  1  0
  8 31  1  0
  8 32  1  0
  9 33  1  0
  9 34  1  0
 14 35  1  0
 15 36  1  0
 16 37  1  0
 17 38  1  0
 18 39  1  0
 19 40  1  0
 19 41  1  0
 20 42  1  0
 20 43  1  0
 22 44  1  0
 23 45  1  0
 26 46  1  0
 27 47  1  0
M  END
>  <UniqueID>  (63) 
61

>  <SMILES>  (63) 
O=C(NCC(=O)N1CCN(C(=O)c2ccccc2)CC1)c1ccc(Br)cc1

>  <Energy>  (63) 
55.744069552765275

>  <Genealogy>  (63) 
O=C(NCC(=O)N1CCN(C(=O)c2ccccc2)CC1)c1ccc(Br)cc1 (3D coordinates assigned)
O=C(NCC(=O)N1CCN(C(=O)c2ccccc2)CC1)c1ccc(Br)cc1 (nonaromatic ring conformer: 55.744069552765275 kcal/mol)

>  <smiles>  (63) 
O=C(NCC(=O)N1CCN(C(=O)c2ccccc2)CC1)c1ccc(Br)cc1

>  <score_type>  (63) 
oracle

>  <origin>  (63) 
adg

>  <m_score__min__energy>  (63) 
-8.6999999999999993

>  <m_primary>  (63) 
energy

$$$$
64:0
     RDKit          3D

 66 70  0  0  0  0  0  0  0  0999 V2000
   62.8790   31.9750   47.1750 C   0  0  0  0  0  0  0  0  0  0  0  0
   61.7460   32.6700   47.8820 C   0  0  0  0  0  0  0  0  0  0  0  0
   62.0200   33.5370   48.9520 C   0  0  0  0  0  0  0  0  0  0  0  0
   60.9840   34.2160   49.5940 C   0  0  0  0  0  0  0  0  0  0  0  0
   59.6650   34.0440   49.1730 C   0  0  0  0  0  0  0  0  0  0  0  0
   59.3670   33.1880   48.1010 C   0  0  0  0  0  0  0  0  0  0  0  0
   57.9400   33.0110   47.6570 C   0  0  0  0  0  0  0  0  0  0  0  0
   60.4140   32.5040   47.4460 C   0  0  0  0  0  0  0  0  0  0  0  0
   60.1240   31.6300   46.3480 N   0  0  0  0  0  0  0  0  0  0  0  0
   60.3420   30.2150   46.4350 C   0  0  0  0  0  0  0  0  0  0  0  0
   60.8350   29.7110   47.4830 O   0  0  0  0  0  0  0  0  0  0  0  0
   60.0220   29.3280   45.2680 C   0  0  0  0  0  0  0  0  0  0  0  0
   58.5870   28.9640   45.2660 N   0  0  0  0  0  0  0  0  0  0  0  0
   57.6580   29.8980   44.8600 C   0  0  0  0  0  0  0  0  0  0  0  0
   58.0190   31.0470   44.4780 O   0  0  0  0  0  0  0  0  0  0  0  0
   56.2940   29.5840   44.8640 C   0  0  0  0  0  0  0  0  0  0  0  0
   55.4380   30.4370   44.5070 O   0  0  0  0  0  0  0  0  0  0  0  0
   55.8890   28.3530   45.2510 N   0  0  0  0  0  0  0  0  0  0  0  0
   56.7780   27.4030   45.6290 C   0  0  0  0  0  0  0  0  0  0  0  0
   56.3130   26.1380   46.0020 C   0  0  0  0  0  0  0  0  0  0  0  0
   57.2140   25.1270   46.3620 C   0  0  0  0  0  0  0  0  0  0  0  0
   56.7270   23.7900   46.7660 C   0  0  0  0  0  0  0  0  0  0  0  0
   57.5550   22.9430   47.2030 O   0  0  0  0  0  0  0  0  0  0  0  0
   55.3330   23.4360   46.6720 N   0  0  0  0  0  0  0  0  0  0  0  0
   54.5690   23.8060   45.4730 C   0  0  0  0  0  0  0  0  0  0  0  0
   53.2570   23.0230   45.3960 C   0  0  0  0  0  0  0  0  0  0  0  0
   52.5220   23.1470   46.6690 N   0  0  0  0  0  0  0  0  0  0  0  0
   51.1420   22.6100   46.5340 C   0  0  0  0  0  0  0  0  0  0  0  0
   51.0260   21.3000   45.7520 C   0  0  0  0  0  0  0  0  0  0  0  0
   50.1450   22.0050   44.7230 C   0  0  0  0  0  0  0  0  0  0  0  0
   50.2580   23.3120   45.5000 C   0  0  0  0  0  0  0  0  0  0  0  0
   53.2950   22.7050   47.8670 C   0  0  0  0  0  0  0  0  0  0  0  0
   54.7830   22.4320   47.5900 C   0  0  0  0  0  0  0  0  0  0  0  0
   58.5860   25.4100   46.3810 C   0  0  0  0  0  0  0  0  0  0  0  0
   59.0590   26.6740   46.0200 C   0  0  0  0  0  0  0  0  0  0  0  0
   58.1630   27.6990   45.6350 C   0  0  0  0  0  0  0  0  0  0  0  0
   63.5701   31.5511   47.9184 H   0  0  0  0  0  0  0  0  0  0  0  0
   62.4778   31.1675   46.5450 H   0  0  0  0  0  0  0  0  0  0  0  0
   63.4170   32.6986   46.5450 H   0  0  0  0  0  0  0  0  0  0  0  0
   63.0580   33.6818   49.2861 H   0  0  0  0  0  0  0  0  0  0  0  0
   61.2078   34.8891   50.4348 H   0  0  0  0  0  0  0  0  0  0  0  0
   58.8535   34.5825   49.6843 H   0  0  0  0  0  0  0  0  0  0  0  0
   57.2887   32.9302   48.5398 H   0  0  0  0  0  0  0  0  0  0  0  0
   57.6336   33.8780   47.0534 H   0  0  0  0  0  0  0  0  0  0  0  0
   57.8547   32.0954   47.0534 H   0  0  0  0  0  0  0  0  0  0  0  0
   59.6930   32.0390   45.4880 H   0  0  0  0  0  0  0  0  0  0  0  0
   60.2613   29.8587   44.3347 H   0  0  0  0  0  0  0  0  0  0  0  0
   60.6202   28.4084   45.3480 H   0  0  0  0  0  0  0  0  0  0  0  0
   55.2319   25.9351   46.0129 H   0  0  0  0  0  0  0  0  0  0  0  0
   54.3442   24.8822   45.5076 H   0  0  0  0  0  0  0  0  0  0  0  0
   55.1726   23.5669   44.5850 H   0  0  0  0  0  0  0  0  0  0  0  0
   52.6403   23.4244   44.5783 H   0  0  0  0  0  0  0  0  0  0  0  0
   53.4792   21.9622   45.2083 H   0  0  0  0  0  0  0  0  0  0  0  0
   50.8746   22.6455   47.6004 H   0  0  0  0  0  0  0  0  0  0  0  0
   51.9803   20.9292   45.3497 H   0  0  0  0  0  0  0  0  0  0  0  0
   50.6823   20.3801   46.2476 H   0  0  0  0  0  0  0  0  0  0  0  0
   50.5813   22.0457   43.7141 H   0  0  0  0  0  0  0  0  0  0  0  0
   49.1552   21.5963   44.4715 H   0  0  0  0  0  0  0  0  0  0  0  0
   50.7626   24.1204   44.9506 H   0  0  0  0  0  0  0  0  0  0  0  0
   49.3552   23.8570   45.8130 H   0  0  0  0  0  0  0  0  0  0  0  0
   53.2250   23.4918   48.6326 H   0  0  0  0  0  0  0  0  0  0  0  0
   52.8538   21.7521   48.1947 H   0  0  0  0  0  0  0  0  0  0  0  0
   55.3391   22.4670   48.5384 H   0  0  0  0  0  0  0  0  0  0  0  0
   54.8799   21.4390   47.1269 H   0  0  0  0  0  0  0  0  0  0  0  0
   59.2985   24.6285   46.6834 H   0  0  0  0  0  0  0  0  0  0  0  0
   60.1404   26.8746   46.0353 H   0  0  0  0  0  0  0  0  0  0  0  0
  1  2  1  0
  2  3  2  0
  3  4  1  0
  4  5  2  0
  5  6  1  0
  6  7  1  0
  6  8  2  0
  8  9  1  0
  9 10  1  0
 10 11  2  0
 10 12  1  0
 12 13  1  0
 13 14  1  0
 14 15  2  0
 14 16  1  0
 16 17  2  0
 16 18  1  0
 18 19  1  0
 19 20  2  0
 20 21  1  0
 21 22  1  0
 22 23  2  0
 22 24  1  0
 24 25  1  0
 25 26  1  0
 26 27  1  0
 27 28  1  0
 28 29  1  0
 29 30  1  0
 30 31  1  0
 27 32  1  0
 32 33  1  0
 21 34  2  0
 34 35  1  0
 35 36  2  0
  8  2  1  0
 36 13  1  0
 36 19  1  0
 33 24  1  0
 31 28  1  0
  1 37  1  0
  1 38  1  0
  1 39  1  0
  3 40  1  0
  4 41  1  0
  5 42  1  0
  7 43  1  0
  7 44  1  0
  7 45  1  0
  9 46  1  0
 12 47  1  0
 12 48  1  0
 20 49  1  0
 25 50  1  0
 25 51  1  0
 26 52  1  0
 26 53  1  0
 28 54  1  0
 29 55  1  0
 29 56  1  0
 30 57  1  0
 30 58  1  0
 31 59  1  0
 31 60  1  0
 32 61  1  0
 32 62  1  0
 33 63  1  0
 33 64  1  0
 34 65  1  0
 35 66  1  0
M  CHG  1  18  -1
M  END
>  <UniqueID>  (64) 
62

>  <SMILES>  (64) 
Cc1cccc(C)c1NC(=O)Cn1c(=O)c(=O)[n-]c2cc(C(=O)N3CCN(C4CCC4)CC3)ccc21

>  <Energy>  (64) 
161.70382463540722

>  <Genealogy>  (64) 
Cc1cccc(C)c1NC(=O)Cn1c(=O)c(=O)[n-]c2cc(C(=O)N3CCN(C4CCC4)CC3)ccc21 (protonated)
Cc1cccc(C)c1NC(=O)Cn1c(=O)c(=O)[n-]c2cc(C(=O)N3CCN(C4CCC4)CC3)ccc21 (3D coordinates assigned)
Cc1cccc(C)c1NC(=O)Cn1c(=O)c(=O)[n-]c2cc(C(=O)N3CCN(C4CCC4)CC3)ccc21 (nonaromatic ring conformer: 161.70382463540722 kcal/mol)

>  <smiles>  (64) 
Cc1cccc(C)c1NC(=O)Cn1c(=O)c(=O)[nH]c2cc(C(=O)N3CCN(C4CCC4)CC3)ccc21

>  <score_type>  (64) 
oracle

>  <origin>  (64) 
adg

>  <m_score__min__energy>  (64) 
-10.77

>  <m_primary>  (64) 
energy

$$$$
65:0
     RDKit          3D

 68 72  0  0  0  0  0  0  0  0999 V2000
   57.0410   33.5040   45.2200 C   0  0  0  0  0  0  0  0  0  0  0  0
   57.6620   32.1470   45.3620 C   0  0  0  0  0  0  0  0  0  0  0  0
   57.7480   31.1500   44.3910 C   0  0  0  0  0  0  0  0  0  0  0  0
   57.1200   31.2270   43.0270 C   0  0  0  0  0  0  0  0  0  0  0  0
   58.3930   30.0560   44.8890 N   0  0  0  0  0  0  0  0  0  0  0  0
   58.5730   28.7600   44.2200 C   0  0  0  0  0  0  0  0  0  0  0  0
   58.2210   27.6360   45.1570 C   0  0  0  0  0  0  0  0  0  0  0  0
   56.8940   27.4610   45.5820 C   0  0  0  0  0  0  0  0  0  0  0  0
   56.5560   26.3930   46.4180 C   0  0  0  0  0  0  0  0  0  0  0  0
   57.5400   25.4900   46.8360 C   0  0  0  0  0  0  0  0  0  0  0  0
   57.2080   24.4540   47.6460 F   0  0  0  0  0  0  0  0  0  0  0  0
   58.8650   25.6600   46.4220 C   0  0  0  0  0  0  0  0  0  0  0  0
   59.2060   26.7260   45.5830 C   0  0  0  0  0  0  0  0  0  0  0  0
   58.7340   30.3750   46.1590 C   0  0  0  0  0  0  0  0  0  0  0  0
   59.4120   29.5890   47.0990 C   0  0  0  0  0  0  0  0  0  0  0  0
   59.6460   30.1300   48.3750 C   0  0  0  0  0  0  0  0  0  0  0  0
   59.1950   31.4310   48.7030 C   0  0  0  0  0  0  0  0  0  0  0  0
   59.4560   32.0080   50.0370 C   0  0  0  0  0  0  0  0  0  0  0  0
   59.7500   33.2310   50.1180 O   0  0  0  0  0  0  0  0  0  0  0  0
   59.3540   31.2250   51.2420 N   0  0  0  0  0  0  0  0  0  0  0  0
   60.4910   30.4300   51.7110 C   0  0  0  0  0  0  0  0  0  0  0  0
   58.0540   30.9860   51.7990 C   0  0  0  0  0  0  0  0  0  0  0  0
   57.1300   32.0330   51.8930 C   0  0  0  0  0  0  0  0  0  0  0  0
   55.8400   31.7930   52.3750 C   0  0  0  0  0  0  0  0  0  0  0  0
   55.4540   30.4970   52.7510 C   0  0  0  0  0  0  0  0  0  0  0  0
   54.0350   30.2270   53.2020 C   0  0  0  0  0  0  0  0  0  0  0  0
   53.1950   29.7000   52.0950 N   0  0  2  0  0  0  0  0  0  0  0  0
   53.2200   30.5880   50.9110 C   0  0  0  0  0  0  0  0  0  0  0  0
   52.5930   31.9620   51.1960 C   0  0  0  0  0  0  0  0  0  0  0  0
   51.3070   31.8270   51.8680 N   0  0  0  0  0  0  0  0  0  0  0  0
   50.9790   30.6750   52.6430 C   0  0  0  0  0  0  0  0  0  0  0  0
   49.9350   30.6780   53.3490 O   0  0  0  0  0  0  0  0  0  0  0  0
   51.8040   29.4220   52.5240 C   0  0  0  0  0  0  0  0  0  0  0  0
   56.3860   29.4500   52.6620 C   0  0  0  0  0  0  0  0  0  0  0  0
   57.6810   29.6940   52.1960 C   0  0  0  0  0  0  0  0  0  0  0  0
   58.5310   32.2050   47.7290 C   0  0  0  0  0  0  0  0  0  0  0  0
   58.3120   31.6430   46.4710 C   0  0  0  0  0  0  0  0  0  0  0  0
   56.8482   33.9252   46.2177 H   0  0  0  0  0  0  0  0  0  0  0  0
   57.7262   34.1650   44.6691 H   0  0  0  0  0  0  0  0  0  0  0  0
   56.0929   33.4175   44.6691 H   0  0  0  0  0  0  0  0  0  0  0  0
   56.0330   31.3603   43.1308 H   0  0  0  0  0  0  0  0  0  0  0  0
   57.5431   32.0800   42.4762 H   0  0  0  0  0  0  0  0  0  0  0  0
   57.3245   30.2971   42.4762 H   0  0  0  0  0  0  0  0  0  0  0  0
   57.9198   28.7139   43.3362 H   0  0  0  0  0  0  0  0  0  0  0  0
   59.6252   28.6568   43.9162 H   0  0  0  0  0  0  0  0  0  0  0  0
   56.1169   28.1677   45.2555 H   0  0  0  0  0  0  0  0  0  0  0  0
   55.5148   26.2621   46.7479 H   0  0  0  0  0  0  0  0  0  0  0  0
   59.6399   24.9546   46.7566 H   0  0  0  0  0  0  0  0  0  0  0  0
   60.2482   26.8534   45.2550 H   0  0  0  0  0  0  0  0  0  0  0  0
   59.7527   28.5743   46.8453 H   0  0  0  0  0  0  0  0  0  0  0  0
   60.1856   29.5357   49.1271 H   0  0  0  0  0  0  0  0  0  0  0  0
   60.5035   30.4213   52.8109 H   0  0  0  0  0  0  0  0  0  0  0  0
   60.3971   29.3997   51.3372 H   0  0  0  0  0  0  0  0  0  0  0  0
   61.4264   30.8719   51.3372 H   0  0  0  0  0  0  0  0  0  0  0  0
   57.4201   33.0488   51.5864 H   0  0  0  0  0  0  0  0  0  0  0  0
   55.1240   32.6238   52.4600 H   0  0  0  0  0  0  0  0  0  0  0  0
   54.0548   29.4882   54.0167 H   0  0  0  0  0  0  0  0  0  0  0  0
   53.5972   31.1775   53.5408 H   0  0  0  0  0  0  0  0  0  0  0  0
   53.6090   28.7910   51.7800 H   0  0  0  0  0  0  0  0  0  0  0  0
   54.2652   30.7341   50.6010 H   0  0  0  0  0  0  0  0  0  0  0  0
   52.6280   30.1070   50.1184 H   0  0  0  0  0  0  0  0  0  0  0  0
   53.2738   32.5406   51.8377 H   0  0  0  0  0  0  0  0  0  0  0  0
   52.4318   32.4762   50.2370 H   0  0  0  0  0  0  0  0  0  0  0  0
   51.8297   28.9216   53.5033 H   0  0  0  0  0  0  0  0  0  0  0  0
   51.3378   28.7850   51.7579 H   0  0  0  0  0  0  0  0  0  0  0  0
   56.0951   28.4321   52.9608 H   0  0  0  0  0  0  0  0  0  0  0  0
   58.4088   28.8710   52.1406 H   0  0  0  0  0  0  0  0  0  0  0  0
   58.1939   33.2272   47.9557 H   0  0  0  0  0  0  0  0  0  0  0  0
  1  2  1  0
  2  3  2  0
  3  4  1  0
  3  5  1  0
  5  6  1  0
  6  7  1  0
  7  8  2  0
  8  9  1  0
  9 10  2  0
 10 11  1  0
 10 12  1  0
 12 13  2  0
  5 14  1  0
 14 15  2  0
 15 16  1  0
 16 17  2  0
 17 18  1  0
 18 19  2  0
 18 20  1  0
 20 21  1  0
 20 22  1  0
 22 23  2  0
 23 24  1  0
 24 25  2  0
 25 26  1  0
 26 27  1  0
 27 28  1  0
 28 29  1  0
 29 30  1  0
 30 31  1  0
 31 32  2  0
 31 33  1  0
 25 34  1  0
 34 35  2  0
 17 36  1  0
 36 37  2  0
 37  2  1  0
 13  7  1  0
 37 14  1  0
 35 22  1  0
 33 27  1  0
  1 38  1  0
  1 39  1  0
  1 40  1  0
  4 41  1  0
  4 42  1  0
  4 43  1  0
  6 44  1  0
  6 45  1  0
  8 46  1  0
  9 47  1  0
 12 48  1  0
 13 49  1  0
 15 50  1  0
 16 51  1  0
 21 52  1  0
 21 53  1  0
 21 54  1  0
 23 55  1  0
 24 56  1  0
 26 57  1  0
 26 58  1  0
 27 59  1  6
 28 60  1  0
 28 61  1  0
 29 62  1  0
 29 63  1  0
 33 64  1  0
 33 65  1  0
 34 66  1  0
 35 67  1  0
 36 68  1  0
M  CHG  2  27   1  30  -1
M  END
>  <UniqueID>  (65) 
63

>  <SMILES>  (65) 
Cc1c(C)n(Cc2ccc(F)cc2)c2ccc(C(=O)N(C)c3ccc(C[N@@H+]4CC[N-]C(=O)C4)cc3)cc12

>  <Energy>  (65) 
121.92049113824973

>  <Genealogy>  (65) 
Cc1c(C)n(Cc2ccc(F)cc2)c2ccc(C(=O)N(C)c3ccc(C[NH+]4CC[N-]C(=O)C4)cc3)cc12 (protonated)
Cc1c(C)n(Cc2ccc(F)cc2)c2ccc(C(=O)N(C)c3ccc(C[N@@H+]4CC[N-]C(=O)C4)cc3)cc12 (chirality)
Cc1c(C)n(Cc2ccc(F)cc2)c2ccc(C(=O)N(C)c3ccc(C[N@@H+]4CC[N-]C(=O)C4)cc3)cc12 (3D coordinates assigned)
Cc1c(C)n(Cc2ccc(F)cc2)c2ccc(C(=O)N(C)c3ccc(C[N@@H+]4CC[N-]C(=O)C4)cc3)cc12 (nonaromatic ring conformer: 121.92049113824973 kcal/mol)

>  <smiles>  (65) 
Cc1c(C)n(Cc2ccc(F)cc2)c2ccc(C(=O)N(C)c3ccc(CN4CCNC(=O)C4)cc3)cc12

>  <score_type>  (65) 
oracle

>  <origin>  (65) 
adg

>  <m_score__min__energy>  (65) 
-10.26

>  <m_primary>  (65) 
energy

$$$$
66:0
     RDKit          3D

 44 47  0  0  0  0  0  0  0  0999 V2000
   59.0372   27.4530   44.7482 H   0  0  0  0  0  0  0  0  0  0  0  0
   58.4420   27.6200   45.6580 C   0  0  0  0  0  0  0  0  0  0  0  0
   57.2130   26.8250   45.8140 C   0  0  0  0  0  0  0  0  0  0  0  0
   57.1920   25.5830   46.3270 N   0  0  0  0  0  0  0  0  0  0  0  0
   55.8740   25.2940   46.3940 C   0  0  0  0  0  0  0  0  0  0  0  0
   55.4420   24.1910   46.8170 O   0  0  0  0  0  0  0  0  0  0  0  0
   55.0550   26.2860   45.9850 N   0  0  0  0  0  0  0  0  0  0  0  0
   55.9160   27.2540   45.6350 C   0  0  0  0  0  0  0  0  0  0  0  0
   55.5250   28.5110   45.1890 O   0  0  0  0  0  0  0  0  0  0  0  0
   58.9000   28.5350   46.5350 C   0  0  0  0  0  0  0  0  0  0  0  0
   59.2540   28.2190   47.8320 C   0  0  0  0  0  0  0  0  0  0  0  0
   59.2558   27.2158   48.2832 H   0  0  0  0  0  0  0  0  0  0  0  0
   59.6050   29.3990   48.4550 C   0  0  0  0  0  0  0  0  0  0  0  0
   60.0930   29.4590   49.8470 C   0  0  0  0  0  0  0  0  0  0  0  0
   61.3010   29.7570   50.0570 O   0  0  0  0  0  0  0  0  0  0  0  0
   59.1820   29.2650   50.9410 N   0  0  0  0  0  0  0  0  0  0  0  0
   58.2810   30.1020   51.3680 C   0  0  0  0  0  0  0  0  0  0  0  0
   57.0950   29.6740   51.8840 N   0  0  0  0  0  0  0  0  0  0  0  0
   56.1560   30.5500   52.3240 C   0  0  0  0  0  0  0  0  0  0  0  0
   55.2055   30.1827   52.7384 H   0  0  0  0  0  0  0  0  0  0  0  0
   56.4070   31.9210   52.2460 C   0  0  0  0  0  0  0  0  0  0  0  0
   55.6563   32.6439   52.5979 H   0  0  0  0  0  0  0  0  0  0  0  0
   57.5880   32.3540   51.7310 N   0  0  0  0  0  0  0  0  0  0  0  0
   58.5290   31.4780   51.2900 C   0  0  0  0  0  0  0  0  0  0  0  0
   59.4784   31.8472   50.8749 H   0  0  0  0  0  0  0  0  0  0  0  0
   59.4740   30.4450   47.5980 N   0  0  0  0  0  0  0  0  0  0  0  0
   59.6310   31.8770   47.9180 C   0  0  0  0  0  0  0  0  0  0  0  0
   58.8607   32.4491   47.3801 H   0  0  0  0  0  0  0  0  0  0  0  0
   59.5245   31.9991   49.0060 H   0  0  0  0  0  0  0  0  0  0  0  0
   60.9970   32.3940   47.5160 C   0  0  0  0  0  0  0  0  0  0  0  0
   62.1490   31.7040   47.9420 C   0  0  0  0  0  0  0  0  0  0  0  0
   62.0455   30.8032   48.5648 H   0  0  0  0  0  0  0  0  0  0  0  0
   63.4210   32.1530   47.5810 C   0  0  0  0  0  0  0  0  0  0  0  0
   64.3126   31.5978   47.9080 H   0  0  0  0  0  0  0  0  0  0  0  0
   63.5630   33.3050   46.8060 C   0  0  0  0  0  0  0  0  0  0  0  0
   64.5654   33.6531   46.5162 H   0  0  0  0  0  0  0  0  0  0  0  0
   62.4330   34.0150   46.3990 C   0  0  0  0  0  0  0  0  0  0  0  0
   62.5493   34.9269   45.7949 H   0  0  0  0  0  0  0  0  0  0  0  0
   61.1520   33.5750   46.7540 C   0  0  0  0  0  0  0  0  0  0  0  0
   59.7770   34.5510   46.2520 Cl  0  0  0  0  0  0  0  0  0  0  0  0
   59.1150   29.9130   46.3970 C   0  0  0  0  0  0  0  0  0  0  0  0
   59.1420   30.6020   45.2440 C   0  0  0  0  0  0  0  0  0  0  0  0
   59.3203   31.6874   45.2559 H   0  0  0  0  0  0  0  0  0  0  0  0
   58.9858   30.0808   44.2880 H   0  0  0  0  0  0  0  0  0  0  0  0
  1  2  1  0
  2  3  1  0
  3  4  1  0
  4  5  1  0
  5  6  2  0
  5  7  1  0
  7  8  1  0
  8  9  1  0
  2 10  2  3
 10 11  1  0
 11 12  1  0
 11 13  2  0
 13 14  1  0
 14 15  2  0
 14 16  1  0
 16 17  2  0
 17 18  1  0
 18 19  1  0
 19 20  1  0
 19 21  2  0
 21 22  1  0
 21 23  1  0
 23 24  2  0
 24 25  1  0
 13 26  1  0
 26 27  1  0
 27 28  1  0
 27 29  1  0
 27 30  1  0
 30 31  2  0
 31 32  1  0
 31 33  1  0
 33 34  1  0
 33 35  2  0
 35 36  1  0
 35 37  1  0
 37 38  1  0
 37 39  2  0
 39 40  1  0
 26 41  1  0
 41 42  2  0
 42 43  1  0
 42 44  1  0
  8  3  2  0
 41 10  1  0
 24 17  1  0
 39 30  1  0
M  CHG  4   4  -1   7  -1   9  -1  18  -1
M  END
>  <UniqueID>  (66) 
64

>  <SMILES>  (66) 
C=c1c(=Cc2[n-]c(=O)[n-]c2[O-])cc(C(=O)/N=c2/cncc[n-]2)n1Cc1ccccc1Cl

>  <Energy>  (66) 
129.15399956810225

>  <Genealogy>  (66) 
C=c1c(=Cc2[n-]c(=O)[n-]c2[O-])cc(C(=O)N=c2cncc[n-]2)n1Cc1ccccc1Cl (protonated)
C=c1c(=Cc2[n-]c(=O)[n-]c2[O-])cc(C(=O)/N=c2/cncc[n-]2)n1Cc1ccccc1Cl (cis-trans isomerization)
C=c1c(=Cc2[n-]c(=O)[n-]c2[O-])cc(C(=O)/N=c2/cncc[n-]2)n1Cc1ccccc1Cl (3D coordinates assigned)
C=c1c(=Cc2[n-]c(=O)[n-]c2[O-])cc(C(=O)/N=c2/cncc[n-]2)n1Cc1ccccc1Cl (optimized conformer: 129.15399956810225 kcal/mol)

>  <smiles>  (66) 
C=c1c(=Cc2[nH]c(=O)[nH]c2O)cc(C(=O)N=c2cncc[nH]2)n1Cc1ccccc1Cl

>  <score_type>  (66) 
oracle

>  <origin>  (66) 
adg

>  <m_score__min__energy>  (66) 
-17.289999999999999

>  <m_primary>  (66) 
energy

$$$$
67:0
     RDKit          3D

 45 47  0  0  0  0  0  0  0  0999 V2000
   58.4920   33.3700   53.7420 C   0  0  0  0  0  0  0  0  0  0  0  0
   58.5110   32.5000   52.5200 C   0  0  0  0  0  0  0  0  0  0  0  0
   57.9580   31.2340   52.4110 C   0  0  0  0  0  0  0  0  0  0  0  0
   57.2080   30.5350   53.4150 N   0  0  0  0  0  0  0  0  0  0  0  0
   57.3040   29.1220   53.6380 C   0  0  0  0  0  0  0  0  0  0  0  0
   58.2970   28.4730   53.2100 O   0  0  0  0  0  0  0  0  0  0  0  0
   56.2510   28.4180   54.4350 C   0  0  0  0  0  0  0  0  0  0  0  0
   54.9540   28.7330   53.9310 O   0  0  0  0  0  0  0  0  0  0  0  0
   54.2920   29.9350   54.2120 C   0  0  0  0  0  0  0  0  0  0  0  0
   54.4050   30.4750   55.3470 O   0  0  0  0  0  0  0  0  0  0  0  0
   53.4590   30.5580   53.1700 C   0  0  0  0  0  0  0  0  0  0  0  0
   53.8090   30.4840   51.8120 C   0  0  0  0  0  0  0  0  0  0  0  0
   52.9910   31.0930   50.8590 C   0  0  0  0  0  0  0  0  0  0  0  0
   51.8340   31.7670   51.2590 C   0  0  0  0  0  0  0  0  0  0  0  0
   51.0220   32.3710   50.3040 O   0  0  0  0  0  0  0  0  0  0  0  0
   51.5130   31.8210   52.6230 C   0  0  0  0  0  0  0  0  0  0  0  0
   50.1700   32.5990   53.1430 S   0  0  0  0  0  0  0  0  0  0  0  0
   52.3260   31.2210   53.5340 N   0  0  0  0  0  0  0  0  0  0  0  0
   58.1570   30.8740   51.0920 C   0  0  0  0  0  0  0  0  0  0  0  0
   57.7650   29.8080   50.5450 O   0  0  0  0  0  0  0  0  0  0  0  0
   58.8140   31.8620   50.4510 N   0  0  0  0  0  0  0  0  0  0  0  0
   59.2180   31.8450   49.0700 C   0  0  0  0  0  0  0  0  0  0  0  0
   60.2910   31.0390   48.6540 C   0  0  0  0  0  0  0  0  0  0  0  0
   60.6870   31.0320   47.3130 C   0  0  0  0  0  0  0  0  0  0  0  0
   60.0210   31.8320   46.3810 C   0  0  0  0  0  0  0  0  0  0  0  0
   58.9580   32.6440   46.7890 C   0  0  0  0  0  0  0  0  0  0  0  0
   58.5590   32.6530   48.1300 C   0  0  0  0  0  0  0  0  0  0  0  0
   59.0100   32.8610   51.3110 N   0  0  0  0  0  0  0  0  0  0  0  0
   59.6400   34.1440   50.9890 C   0  0  0  0  0  0  0  0  0  0  0  0
   58.5058   32.7381   54.6423 H   0  0  0  0  0  0  0  0  0  0  0  0
   59.3761   34.0245   53.7399 H   0  0  0  0  0  0  0  0  0  0  0  0
   57.5802   33.9853   53.7399 H   0  0  0  0  0  0  0  0  0  0  0  0
   56.5710   31.0880   54.0330 H   0  0  0  0  0  0  0  0  0  0  0  0
   56.4118   27.3318   54.3691 H   0  0  0  0  0  0  0  0  0  0  0  0
   56.3167   28.7462   55.4828 H   0  0  0  0  0  0  0  0  0  0  0  0
   54.7198   29.9508   51.5021 H   0  0  0  0  0  0  0  0  0  0  0  0
   53.2571   31.0424   49.7929 H   0  0  0  0  0  0  0  0  0  0  0  0
   60.8212   30.4115   49.3855 H   0  0  0  0  0  0  0  0  0  0  0  0
   61.5244   30.3955   46.9912 H   0  0  0  0  0  0  0  0  0  0  0  0
   60.3328   31.8231   45.3262 H   0  0  0  0  0  0  0  0  0  0  0  0
   58.4355   33.2757   46.0555 H   0  0  0  0  0  0  0  0  0  0  0  0
   57.7254   33.2959   48.4491 H   0  0  0  0  0  0  0  0  0  0  0  0
   59.8981   34.6697   51.9202 H   0  0  0  0  0  0  0  0  0  0  0  0
   60.5536   33.9669   50.4025 H   0  0  0  0  0  0  0  0  0  0  0  0
   58.9412   34.7587   50.4025 H   0  0  0  0  0  0  0  0  0  0  0  0
  1  2  1  0
  2  3  2  0
  3  4  1  0
  4  5  1  0
  5  6  2  0
  5  7  1  0
  7  8  1  0
  8  9  1  0
  9 10  2  0
  9 11  1  0
 11 12  2  0
 12 13  1  0
 13 14  2  0
 14 15  1  0
 14 16  1  0
 16 17  2  0
 16 18  1  0
  3 19  1  0
 19 20  2  0
 19 21  1  0
 21 22  1  0
 22 23  2  0
 23 24  1  0
 24 25  2  0
 25 26  1  0
 26 27  2  0
 21 28  1  0
 28 29  1  0
 28  2  1  0
 18 11  1  0
 27 22  1  0
  1 30  1  0
  1 31  1  0
  1 32  1  0
  4 33  1  0
  7 34  1  0
  7 35  1  0
 12 36  1  0
 13 37  1  0
 23 38  1  0
 24 39  1  0
 25 40  1  0
 26 41  1  0
 27 42  1  0
 29 43  1  0
 29 44  1  0
 29 45  1  0
M  CHG  2  15  -1  18  -1
M  END
>  <UniqueID>  (67) 
65

>  <SMILES>  (67) 
Cc1c(NC(=O)COC(=O)c2ccc([O-])c(=S)[n-]2)c(=O)n(-c2ccccc2)n1C

>  <Energy>  (67) 
89.39370673978095

>  <Genealogy>  (67) 
Cc1c(NC(=O)COC(=O)c2ccc([O-])c(=S)[n-]2)c(=O)n(-c2ccccc2)n1C (protonated)
Cc1c(NC(=O)COC(=O)c2ccc([O-])c(=S)[n-]2)c(=O)n(-c2ccccc2)n1C (3D coordinates assigned)
Cc1c(NC(=O)COC(=O)c2ccc([O-])c(=S)[n-]2)c(=O)n(-c2ccccc2)n1C (optimized conformer: 89.39370673978095 kcal/mol)

>  <smiles>  (67) 
Cc1c(NC(=O)COC(=O)c2ccc(O)c(=S)[nH]2)c(=O)n(-c2ccccc2)n1C

>  <score_type>  (67) 
oracle

>  <origin>  (67) 
adg

>  <m_score__min__energy>  (67) 
-13.49

>  <m_primary>  (67) 
energy

$$$$
68:0
     RDKit          3D

 48 51  0  0  0  0  0  0  0  0999 V2000
   55.1610   27.4660   45.2920 H   0  0  0  0  0  0  0  0  0  0  0  0
   55.1840   26.7630   46.0200 O   0  0  0  0  0  0  0  0  0  0  0  0
   55.2040   25.4090   45.6970 C   0  0  0  0  0  0  0  0  0  0  0  0
   54.1430   24.5940   45.8260 N   0  0  0  0  0  0  0  0  0  0  0  0
   54.6090   23.4230   45.3400 C   0  0  0  0  0  0  0  0  0  0  0  0
   53.9010   22.3850   45.2810 O   0  0  0  0  0  0  0  0  0  0  0  0
   55.8900   23.4550   44.9140 N   0  0  0  0  0  0  0  0  0  0  0  0
   56.2730   24.7190   45.1670 C   0  0  0  0  0  0  0  0  0  0  0  0
   58.2800   28.1000   43.6210 C   0  0  0  0  0  0  0  0  0  0  0  0
   58.9938   27.8711   42.8160 H   0  0  0  0  0  0  0  0  0  0  0  0
   58.5330   27.5610   44.8370 C   0  0  0  0  0  0  0  0  0  0  0  0
   58.1800   26.3050   45.4000 C   0  0  0  0  0  0  0  0  0  0  0  0
   57.5890   25.2590   44.7850 C   0  0  0  0  0  0  0  0  0  0  0  0
   58.1216   24.7817   43.9492 H   0  0  0  0  0  0  0  0  0  0  0  0
   57.1150   28.9820   43.2680 C   0  0  0  0  0  0  0  0  0  0  0  0
   57.4736   29.8309   42.6673 H   0  0  0  0  0  0  0  0  0  0  0  0
   56.3846   28.3913   42.6956 H   0  0  0  0  0  0  0  0  0  0  0  0
   56.4510   29.5010   44.5050 C   0  0  0  0  0  0  0  0  0  0  0  0
   57.0450   30.3290   45.2440 O   0  0  0  0  0  0  0  0  0  0  0  0
   55.1960   29.0300   44.8690 O   0  0  0  0  0  0  0  0  0  0  0  0
   59.2050   28.2300   45.8580 C   0  0  0  0  0  0  0  0  0  0  0  0
   59.7930   29.5020   45.9050 C   0  0  0  0  0  0  0  0  0  0  0  0
   59.7742   30.1613   45.0247 H   0  0  0  0  0  0  0  0  0  0  0  0
   60.4110   29.9210   47.1070 C   0  0  0  0  0  0  0  0  0  0  0  0
   61.0590   31.2590   47.1910 C   0  0  0  0  0  0  0  0  0  0  0  0
   62.3620   31.3600   47.5070 C   0  0  0  0  0  0  0  0  0  0  0  0
   62.9095   30.4475   47.7857 H   0  0  0  0  0  0  0  0  0  0  0  0
   63.1040   32.6740   47.4950 C   0  0  0  0  0  0  0  0  0  0  0  0
   63.6361   32.7662   46.5367 H   0  0  0  0  0  0  0  0  0  0  0  0
   63.7937   32.6676   48.3519 H   0  0  0  0  0  0  0  0  0  0  0  0
   62.2180   33.8440   47.6540 N   0  0  0  0  0  0  0  0  0  0  0  0
   61.8290   34.0520   49.0600 C   0  0  0  0  0  0  0  0  0  0  0  0
   62.6048   33.6372   49.7203 H   0  0  0  0  0  0  0  0  0  0  0  0
   61.7194   35.1291   49.2546 H   0  0  0  0  0  0  0  0  0  0  0  0
   60.8724   33.5450   49.2546 H   0  0  0  0  0  0  0  0  0  0  0  0
   61.0560   33.7560   46.7510 C   0  0  0  0  0  0  0  0  0  0  0  0
   61.4153   33.7281   45.7117 H   0  0  0  0  0  0  0  0  0  0  0  0
   60.4202   34.6358   46.9290 H   0  0  0  0  0  0  0  0  0  0  0  0
   60.2130   32.5000   47.0180 C   0  0  0  0  0  0  0  0  0  0  0  0
   59.5311   32.3461   46.1687 H   0  0  0  0  0  0  0  0  0  0  0  0
   59.6619   32.6614   47.9562 H   0  0  0  0  0  0  0  0  0  0  0  0
   60.4300   29.0390   48.2200 C   0  0  0  0  0  0  0  0  0  0  0  0
   60.9200   29.3530   49.1534 H   0  0  0  0  0  0  0  0  0  0  0  0
   59.8320   27.7730   48.1440 C   0  0  0  0  0  0  0  0  0  0  0  0
   59.8448   27.0894   49.0057 H   0  0  0  0  0  0  0  0  0  0  0  0
   59.2220   27.4050   46.9490 C   0  0  0  0  0  0  0  0  0  0  0  0
   58.6080   26.2430   46.6880 N   0  0  0  0  0  0  0  0  0  0  0  0
   58.5510   25.4350   47.3470 H   0  0  0  0  0  0  0  0  0  0  0  0
  1  2  1  0
  2  3  1  0
  3  4  1  0
  4  5  1  0
  5  6  2  0
  5  7  1  0
  7  8  1  0
  8  9  1  0
  9 10  1  0
  9 11  2  0
 11 12  1  0
 12 13  2  0
 13 14  1  0
 13 15  1  0
 15 16  1  0
 15 17  1  0
 15 18  1  0
 18 19  2  0
 18 20  1  0
 12 21  1  0
 21 22  2  0
 22 23  1  0
 22 24  1  0
 24 25  1  0
 25 26  2  0
 26 27  1  0
 26 28  1  0
 28 29  1  0
 28 30  1  0
 28 31  1  0
 31 32  1  0
 32 33  1  0
 32 34  1  0
 32 35  1  0
 31 36  1  0
 36 37  1  0
 36 38  1  0
 36 39  1  0
 39 40  1  0
 39 41  1  0
 24 42  2  0
 42 43  1  0
 42 44  1  0
 44 45  1  0
 44 46  2  0
 46 47  1  0
 47 48  1  0
  8  3  2  0
 47 11  1  0
 46 21  1  0
 39 25  1  0
M  CHG  3   4  -1   7  -1  20  -1
M  END
>  <UniqueID>  (68) 
66

>  <SMILES>  (68) 
CN1CC=C(c2ccc3[nH]/c(=C\c4[n-]c(=O)[n-]c4O)c(=CCC(=O)[O-])c3c2)CC1

>  <Energy>  (68) 
134.7041638916395

>  <Genealogy>  (68) 
CN1CC=C(c2ccc3[nH]c(=Cc4[n-]c(=O)[n-]c4O)c(=CCC(=O)[O-])c3c2)CC1 (protonated)
CN1CC=C(c2ccc3[nH]/c(=C\c4[n-]c(=O)[n-]c4O)c(=CCC(=O)[O-])c3c2)CC1 (cis-trans isomerization)
CN1CC=C(c2ccc3[nH]/c(=C\c4[n-]c(=O)[n-]c4O)c(=CCC(=O)[O-])c3c2)CC1 (3D coordinates assigned)
CN1CC=C(c2ccc3[nH]/c(=C\c4[n-]c(=O)[n-]c4O)c(=CCC(=O)[O-])c3c2)CC1 (nonaromatic ring conformer: 134.7041638916395 kcal/mol)

>  <smiles>  (68) 
CN1CC=C(c2ccc3[nH]c(=Cc4[nH]c(=O)[nH]c4O)c(=CCC(=O)O)c3c2)CC1

>  <score_type>  (68) 
oracle

>  <origin>  (68) 
adg

>  <m_score__min__energy>  (68) 
-16.68

>  <m_primary>  (68) 
energy

$$$$
69:0
     RDKit          3D

 64 67  0  0  0  0  0  0  0  0999 V2000
   63.5030   28.4520   52.1420 C   0  0  0  0  0  0  0  0  0  0  0  0
   62.6240   27.3760   52.6490 N   0  0  0  0  0  0  0  0  0  0  0  0
   61.3230   27.9140   53.1110 C   0  0  0  0  0  0  0  0  0  0  0  0
   60.4970   28.4950   51.9490 C   0  0  0  0  0  0  0  0  0  0  0  0
   60.6780   27.6940   50.7340 N   0  0  0  0  0  0  0  0  0  0  0  0
   60.3850   28.2610   49.4430 C   0  0  0  0  0  0  0  0  0  0  0  0
   60.2630   27.4330   48.3130 C   0  0  0  0  0  0  0  0  0  0  0  0
   60.0280   27.9890   47.0510 C   0  0  0  0  0  0  0  0  0  0  0  0
   59.9080   29.3790   46.9010 C   0  0  0  0  0  0  0  0  0  0  0  0
   59.6530   29.9840   45.5480 C   0  0  0  0  0  0  0  0  0  0  0  0
   58.2010   30.1010   45.3210 N   0  0  0  0  0  0  0  0  0  0  0  0
   57.6020   28.9790   44.5660 C   0  0  0  0  0  0  0  0  0  0  0  0
   56.2010   28.6270   44.9940 C   0  0  0  0  0  0  0  0  0  0  0  0
   55.2670   29.4530   44.8040 O   0  0  0  0  0  0  0  0  0  0  0  0
   55.9330   27.3700   45.6260 N   0  0  0  0  0  0  0  0  0  0  0  0
   56.9130   26.6340   46.4180 C   0  0  0  0  0  0  0  0  0  0  0  0
   57.3550   25.4070   45.6820 C   0  0  0  0  0  0  0  0  0  0  0  0
   56.6270   24.7360   44.7070 C   0  0  0  0  0  0  0  0  0  0  0  0
   57.2570   23.5660   44.2610 C   0  0  0  0  0  0  0  0  0  0  0  0
   58.4680   23.3060   44.8900 C   0  0  0  0  0  0  0  0  0  0  0  0
   58.7560   24.5330   46.0040 S   0  0  0  0  0  0  0  0  0  0  0  0
   57.7570   31.6770   44.7020 S   0  0  0  0  0  0  0  0  0  0  0  0
   58.2350   31.8380   43.2820 O   0  0  0  0  0  0  0  0  0  0  0  0
   56.2640   31.8690   44.7450 O   0  0  0  0  0  0  0  0  0  0  0  0
   58.5060   32.8980   45.7290 C   0  0  0  0  0  0  0  0  0  0  0  0
   59.2000   33.9800   45.1670 C   0  0  0  0  0  0  0  0  0  0  0  0
   59.7620   34.9600   45.9940 C   0  0  0  0  0  0  0  0  0  0  0  0
   59.6260   34.8640   47.3870 C   0  0  0  0  0  0  0  0  0  0  0  0
   58.9380   33.7830   47.9500 C   0  0  0  0  0  0  0  0  0  0  0  0
   58.3750   32.8060   47.1230 C   0  0  0  0  0  0  0  0  0  0  0  0
   60.0070   30.2050   48.0310 C   0  0  0  0  0  0  0  0  0  0  0  0
   60.2520   29.6500   49.2910 C   0  0  0  0  0  0  0  0  0  0  0  0
   61.1510   26.3170   50.8690 C   0  0  0  0  0  0  0  0  0  0  0  0
   62.4780   26.2770   51.6530 C   0  0  0  0  0  0  0  0  0  0  0  0
   63.9458   28.9941   52.9906 H   0  0  0  0  0  0  0  0  0  0  0  0
   64.3040   28.0129   51.5292 H   0  0  0  0  0  0  0  0  0  0  0  0
   62.9129   29.1493   51.5292 H   0  0  0  0  0  0  0  0  0  0  0  0
   63.1040   26.9780   53.4930 H   0  0  0  0  0  0  0  0  0  0  0  0
   60.7502   27.1025   53.5836 H   0  0  0  0  0  0  0  0  0  0  0  0
   61.5241   28.7257   53.8256 H   0  0  0  0  0  0  0  0  0  0  0  0
   59.4326   28.4945   52.2268 H   0  0  0  0  0  0  0  0  0  0  0  0
   60.8388   29.5215   51.7504 H   0  0  0  0  0  0  0  0  0  0  0  0
   60.3528   26.3421   48.4220 H   0  0  0  0  0  0  0  0  0  0  0  0
   59.9369   27.3336   46.1723 H   0  0  0  0  0  0  0  0  0  0  0  0
   60.1118   30.9827   45.5018 H   0  0  0  0  0  0  0  0  0  0  0  0
   60.0919   29.3392   44.7724 H   0  0  0  0  0  0  0  0  0  0  0  0
   57.5791   29.2528   43.5009 H   0  0  0  0  0  0  0  0  0  0  0  0
   58.2255   28.0948   44.7646 H   0  0  0  0  0  0  0  0  0  0  0  0
   57.7845   27.2778   46.6077 H   0  0  0  0  0  0  0  0  0  0  0  0
   56.4530   26.3350   47.3714 H   0  0  0  0  0  0  0  0  0  0  0  0
   55.6569   25.0866   44.3248 H   0  0  0  0  0  0  0  0  0  0  0  0
   56.8315   22.9136   43.4842 H   0  0  0  0  0  0  0  0  0  0  0  0
   59.1252   22.4461   44.6935 H   0  0  0  0  0  0  0  0  0  0  0  0
   59.3028   34.0585   44.0746 H   0  0  0  0  0  0  0  0  0  0  0  0
   60.3100   35.8050   45.5517 H   0  0  0  0  0  0  0  0  0  0  0  0
   60.0601   35.6383   48.0367 H   0  0  0  0  0  0  0  0  0  0  0  0
   58.8402   33.7020   49.0426 H   0  0  0  0  0  0  0  0  0  0  0  0
   57.8272   31.9618   47.5671 H   0  0  0  0  0  0  0  0  0  0  0  0
   59.8914   31.2938   47.9253 H   0  0  0  0  0  0  0  0  0  0  0  0
   60.3411   30.3065   50.1691 H   0  0  0  0  0  0  0  0  0  0  0  0
   60.3950   25.7255   51.4062 H   0  0  0  0  0  0  0  0  0  0  0  0
   61.3174   25.8977   49.8657 H   0  0  0  0  0  0  0  0  0  0  0  0
   62.5367   25.3165   52.1859 H   0  0  0  0  0  0  0  0  0  0  0  0
   63.2870   26.4023   50.9183 H   0  0  0  0  0  0  0  0  0  0  0  0
  1  2  1  0
  2  3  1  0
  3  4  1  0
  4  5  1  0
  5  6  1  0
  6  7  2  0
  7  8  1  0
  8  9  2  0
  9 10  1  0
 10 11  1  0
 11 12  1  0
 12 13  1  0
 13 14  2  0
 13 15  1  0
 15 16  1  0
 16 17  1  0
 17 18  2  0
 18 19  1  0
 19 20  2  0
 20 21  1  0
 11 22  1  0
 22 23  2  0
 22 24  2  0
 22 25  1  0
 25 26  2  0
 26 27  1  0
 27 28  2  0
 28 29  1  0
 29 30  2  0
  9 31  1  0
 31 32  2  0
  5 33  1  0
 33 34  1  0
 34  2  1  0
 32  6  1  0
 21 17  1  0
 30 25  1  0
  1 35  1  0
  1 36  1  0
  1 37  1  0
  2 38  1  0
  3 39  1  0
  3 40  1  0
  4 41  1  0
  4 42  1  0
  7 43  1  0
  8 44  1  0
 10 45  1  0
 10 46  1  0
 12 47  1  0
 12 48  1  0
 16 49  1  0
 16 50  1  0
 18 51  1  0
 19 52  1  0
 20 53  1  0
 26 54  1  0
 27 55  1  0
 28 56  1  0
 29 57  1  0
 30 58  1  0
 31 59  1  0
 32 60  1  0
 33 61  1  0
 33 62  1  0
 34 63  1  0
 34 64  1  0
M  CHG  2   2   1  15  -1
M  END
>  <UniqueID>  (69) 
67

>  <SMILES>  (69) 
C[NH+]1CCN(c2ccc(CN(CC(=O)[N-]Cc3cccs3)S(=O)(=O)c3ccccc3)cc2)CC1

>  <Energy>  (69) 
103.19653369840158

>  <Genealogy>  (69) 
C[NH+]1CCN(c2ccc(CN(CC(=O)[N-]Cc3cccs3)S(=O)(=O)c3ccccc3)cc2)CC1 (protonated)
C[NH+]1CCN(c2ccc(CN(CC(=O)[N-]Cc3cccs3)S(=O)(=O)c3ccccc3)cc2)CC1 (3D coordinates assigned)
C[NH+]1CCN(c2ccc(CN(CC(=O)[N-]Cc3cccs3)S(=O)(=O)c3ccccc3)cc2)CC1 (nonaromatic ring conformer: 103.19653369840158 kcal/mol)

>  <smiles>  (69) 
CN1CCN(c2ccc(CN(CC(=O)NCc3cccs3)S(=O)(=O)c3ccccc3)cc2)CC1

>  <score_type>  (69) 
oracle

>  <origin>  (69) 
adg

>  <m_score__min__energy>  (69) 
-10.380000000000001

>  <m_primary>  (69) 
energy

$$$$
70:0
     RDKit          3D

 41 43  0  0  0  0  0  0  0  0999 V2000
   55.6570   29.3860   42.1640 H   0  0  0  0  0  0  0  0  0  0  0  0
   55.6400   29.7700   43.1350 N   0  0  0  0  0  0  0  0  0  0  0  0
   56.4910   30.6650   43.5240 C   0  0  0  0  0  0  0  0  0  0  0  0
   56.8630   30.7290   44.8310 N   0  0  0  0  0  0  0  0  0  0  0  0
   57.7540   31.6540   45.2790 C   0  0  0  0  0  0  0  0  0  0  0  0
   58.1120   31.6880   46.6310 C   0  0  0  0  0  0  0  0  0  0  0  0
   57.6639   30.9707   47.3344 H   0  0  0  0  0  0  0  0  0  0  0  0
   59.0410   32.6340   47.0940 C   0  0  0  0  0  0  0  0  0  0  0  0
   59.4170   32.6700   48.5520 C   0  0  0  0  0  0  0  0  0  0  0  0
   60.2408   33.3849   48.6943 H   0  0  0  0  0  0  0  0  0  0  0  0
   58.5368   32.9784   49.1352 H   0  0  0  0  0  0  0  0  0  0  0  0
   59.8340   31.3800   49.0010 O   0  0  0  0  0  0  0  0  0  0  0  0
   59.7100   30.1880   48.2700 C   0  0  0  0  0  0  0  0  0  0  0  0
   60.5800   29.8470   47.2170 C   0  0  0  0  0  0  0  0  0  0  0  0
   61.4004   30.5268   46.9432 H   0  0  0  0  0  0  0  0  0  0  0  0
   60.4070   28.6500   46.5180 C   0  0  0  0  0  0  0  0  0  0  0  0
   61.0928   28.3914   45.6978 H   0  0  0  0  0  0  0  0  0  0  0  0
   59.3620   27.7750   46.8570 C   0  0  0  0  0  0  0  0  0  0  0  0
   59.1940   26.4670   46.1270 C   0  0  0  0  0  0  0  0  0  0  0  0
   60.0144   26.3557   45.4027 H   0  0  0  0  0  0  0  0  0  0  0  0
   59.2098   25.6564   46.8704 H   0  0  0  0  0  0  0  0  0  0  0  0
   57.8570   26.4000   45.3770 C   0  0  0  0  0  0  0  0  0  0  0  0
   57.6398   27.3886   44.9464 H   0  0  0  0  0  0  0  0  0  0  0  0
   57.9435   25.6375   44.5889 H   0  0  0  0  0  0  0  0  0  0  0  0
   56.7320   26.0080   46.2850 C   0  0  0  0  0  0  0  0  0  0  0  0
   56.9620   25.3120   47.3110 O   0  0  0  0  0  0  0  0  0  0  0  0
   55.4060   26.4530   46.0120 N   0  0  0  0  0  0  0  0  0  0  0  0
   55.1720   27.4700   46.0020 H   0  0  0  0  0  0  0  0  0  0  0  0
   58.5040   28.1080   47.9150 C   0  0  0  0  0  0  0  0  0  0  0  0
   57.6907   27.4231   48.1970 H   0  0  0  0  0  0  0  0  0  0  0  0
   58.6780   29.3070   48.6130 C   0  0  0  0  0  0  0  0  0  0  0  0
   57.9975   29.5602   49.4393 H   0  0  0  0  0  0  0  0  0  0  0  0
   59.5900   33.5640   46.1940 C   0  0  0  0  0  0  0  0  0  0  0  0
   60.3033   34.3192   46.5557 H   0  0  0  0  0  0  0  0  0  0  0  0
   59.2350   33.5350   44.8420 C   0  0  0  0  0  0  0  0  0  0  0  0
   59.6743   34.2617   44.1428 H   0  0  0  0  0  0  0  0  0  0  0  0
   58.3200   32.5810   44.3770 C   0  0  0  0  0  0  0  0  0  0  0  0
   57.9470   32.5280   43.0280 C   0  0  0  0  0  0  0  0  0  0  0  0
   58.3750   33.2421   42.3090 H   0  0  0  0  0  0  0  0  0  0  0  0
   57.0300   31.5660   42.5980 C   0  0  0  0  0  0  0  0  0  0  0  0
   56.7337   31.5168   41.5398 H   0  0  0  0  0  0  0  0  0  0  0  0
  1  2  1  0
  2  3  2  0
  3  4  1  0
  4  5  1  0
  5  6  2  0
  6  7  1  0
  6  8  1  0
  8  9  1  0
  9 10  1  0
  9 11  1  0
  9 12  1  0
 12 13  1  0
 13 14  2  0
 14 15  1  0
 14 16  1  0
 16 17  1  0
 16 18  2  0
 18 19  1  0
 19 20  1  0
 19 21  1  0
 19 22  1  0
 22 23  1  0
 22 24  1  0
 22 25  1  0
 25 26  2  0
 25 27  1  0
 27 28  1  0
 18 29  1  0
 29 30  1  0
 29 31  2  0
 31 32  1  0
  8 33  2  0
 33 34  1  0
 33 35  1  0
 35 36  1  0
 35 37  2  0
 37 38  1  0
 38 39  1  0
 38 40  2  0
 40 41  1  0
 40  3  1  0
 37  5  1  0
 31 13  1  0
M  CHG  2   4  -1  27  -1
M  END
>  <UniqueID>  (70) 
68

>  <SMILES>  (70) 
[H]/N=c1/ccc2ccc(COc3ccc(CCC([NH-])=O)cc3)cc2[n-]1

>  <Energy>  (70) 
41.68153171157355

>  <Genealogy>  (70) 
N=c1ccc2ccc(COc3ccc(CCC([NH-])=O)cc3)cc2[n-]1 (protonated)
[H]/N=c1/ccc2ccc(COc3ccc(CCC([NH-])=O)cc3)cc2[n-]1 (cis-trans isomerization)
[H]/N=c1/ccc2ccc(COc3ccc(CCC([NH-])=O)cc3)cc2[n-]1 (3D coordinates assigned)
[H]/N=c1/ccc2ccc(COc3ccc(CCC([NH-])=O)cc3)cc2[n-]1 (optimized conformer: 41.68153171157355 kcal/mol)

>  <smiles>  (70) 
N=c1ccc2ccc(COc3ccc(CCC(N)=O)cc3)cc2[nH]1

>  <score_type>  (70) 
oracle

>  <origin>  (70) 
adg

>  <m_score__min__energy>  (70) 
-12.33

>  <m_primary>  (70) 
energy

$$$$
71:0
     RDKit          3D

 57 60  0  0  0  0  0  0  0  0999 V2000
   55.7625   29.4067   42.4967 H   0  0  0  0  0  0  0  0  0  0  0  0
   56.3110   30.3530   42.6140 C   0  0  0  0  0  0  0  0  0  0  0  0
   56.3421   31.0769   41.7864 H   0  0  0  0  0  0  0  0  0  0  0  0
   56.9440   30.6250   43.7700 C   0  0  0  0  0  0  0  0  0  0  0  0
   57.6290   31.8530   43.8590 C   0  0  0  0  0  0  0  0  0  0  0  0
   57.4553   32.6260   43.0959 H   0  0  0  0  0  0  0  0  0  0  0  0
   58.5220   32.1040   44.8970 C   0  0  0  0  0  0  0  0  0  0  0  0
   59.0508   33.0674   44.9430 H   0  0  0  0  0  0  0  0  0  0  0  0
   58.7500   31.1380   45.8810 C   0  0  0  0  0  0  0  0  0  0  0  0
   59.7800   31.3770   46.9570 C   0  0  0  0  0  0  0  0  0  0  0  0
   60.6362   31.9093   46.5170 H   0  0  0  0  0  0  0  0  0  0  0  0
   59.3079   31.9716   47.7530 H   0  0  0  0  0  0  0  0  0  0  0  0
   60.2720   30.0820   47.5700 C   0  0  0  0  0  0  0  0  0  0  0  0
   61.4490   29.7620   47.4530 O   0  0  0  0  0  0  0  0  0  0  0  0
   59.3540   29.2460   48.3340 N   0  0  1  0  0  0  0  0  0  0  0  0
   58.4150   29.2290   47.8680 H   0  0  0  0  0  0  0  0  0  0  0  0
   59.8940   27.8790   48.3910 C   0  0  0  0  0  0  0  0  0  0  0  0
   59.0727   27.1508   48.4628 H   0  0  0  0  0  0  0  0  0  0  0  0
   60.4720   27.6466   47.4844 H   0  0  0  0  0  0  0  0  0  0  0  0
   60.7760   27.8000   49.6360 C   0  0  0  0  0  0  0  0  0  0  0  0
   60.6059   26.8521   50.1675 H   0  0  0  0  0  0  0  0  0  0  0  0
   61.8452   27.8381   49.3803 H   0  0  0  0  0  0  0  0  0  0  0  0
   60.3620   28.9810   50.5080 C   0  0  0  0  0  0  0  0  0  0  0  0
   60.0426   28.6356   51.5023 H   0  0  0  0  0  0  0  0  0  0  0  0
   61.1900   29.6860   50.6735 H   0  0  0  0  0  0  0  0  0  0  0  0
   59.1930   29.6270   49.7600 C   0  0  1  0  0  0  0  0  0  0  0  0
   58.2295   29.2455   50.1290 H   0  0  0  0  0  0  0  0  0  0  0  0
   59.0030   31.1210   50.0440 C   0  0  0  0  0  0  0  0  0  0  0  0
   57.8660   31.5370   50.3960 O   0  0  0  0  0  0  0  0  0  0  0  0
   60.1020   32.0720   49.9810 N   0  0  0  0  0  0  0  0  0  0  0  0
   61.5000   31.5990   49.8410 C   0  0  0  0  0  0  0  0  0  0  0  0
   61.6324   30.7134   50.4799 H   0  0  0  0  0  0  0  0  0  0  0  0
   61.6582   31.3760   48.7755 H   0  0  0  0  0  0  0  0  0  0  0  0
   62.5490   32.6450   50.2400 C   0  0  0  0  0  0  0  0  0  0  0  0
   62.4584   32.8583   51.3153 H   0  0  0  0  0  0  0  0  0  0  0  0
   63.5515   32.2502   50.0181 H   0  0  0  0  0  0  0  0  0  0  0  0
   62.3010   34.1460   49.3210 S   0  0  0  0  0  0  0  0  0  0  0  0
   62.9290   34.0310   47.9600 O   0  0  0  0  0  0  0  0  0  0  0  0
   62.9110   35.3030   50.0680 O   0  0  0  0  0  0  0  0  0  0  0  0
   60.5430   34.3750   49.1600 C   0  0  0  0  0  0  0  0  0  0  0  0
   60.2942   35.4329   49.3301 H   0  0  0  0  0  0  0  0  0  0  0  0
   60.2267   34.0814   48.1482 H   0  0  0  0  0  0  0  0  0  0  0  0
   59.8190   33.5100   50.1900 C   0  0  0  0  0  0  0  0  0  0  0  0
   60.1531   33.7979   51.1977 H   0  0  0  0  0  0  0  0  0  0  0  0
   58.7365   33.6701   50.0776 H   0  0  0  0  0  0  0  0  0  0  0  0
   58.0410   29.9300   45.8400 C   0  0  0  0  0  0  0  0  0  0  0  0
   58.2423   29.1612   46.6006 H   0  0  0  0  0  0  0  0  0  0  0  0
   57.0730   29.6790   44.8420 C   0  0  0  0  0  0  0  0  0  0  0  0
   56.3130   28.5640   44.9940 C   0  0  0  0  0  0  0  0  0  0  0  0
   55.4093   28.4856   44.3717 H   0  0  0  0  0  0  0  0  0  0  0  0
   56.5900   27.4490   45.9180 C   0  0  0  0  0  0  0  0  0  0  0  0
   57.7930   27.1800   46.4530 N   0  0  0  0  0  0  0  0  0  0  0  0
   57.5850   26.0240   47.1160 C   0  0  0  0  0  0  0  0  0  0  0  0
   58.4900   25.4450   47.7700 O   0  0  0  0  0  0  0  0  0  0  0  0
   56.3330   25.5280   47.0170 N   0  0  0  0  0  0  0  0  0  0  0  0
   55.7200   26.4370   46.2460 C   0  0  0  0  0  0  0  0  0  0  0  0
   54.3960   26.3370   45.8430 O   0  0  0  0  0  0  0  0  0  0  0  0
  1  2  1  0
  2  3  1  0
  2  4  2  0
  4  5  1  0
  5  6  1  0
  5  7  2  0
  7  8  1  0
  7  9  1  0
  9 10  1  0
 10 11  1  0
 10 12  1  0
 10 13  1  0
 13 14  2  0
 13 15  1  0
 15 16  1  6
 15 17  1  0
 17 18  1  0
 17 19  1  0
 17 20  1  0
 20 21  1  0
 20 22  1  0
 20 23  1  0
 23 24  1  0
 23 25  1  0
 23 26  1  0
 26 27  1  1
 26 28  1  0
 28 29  2  0
 28 30  1  0
 30 31  1  0
 31 32  1  0
 31 33  1  0
 31 34  1  0
 34 35  1  0
 34 36  1  0
 34 37  1  0
 37 38  2  0
 37 39  2  0
 37 40  1  0
 40 41  1  0
 40 42  1  0
 40 43  1  0
 43 44  1  0
 43 45  1  0
  9 46  2  0
 46 47  1  0
 46 48  1  0
 48 49  2  0
 49 50  1  0
 49 51  1  0
 51 52  1  0
 52 53  1  0
 53 54  2  0
 53 55  1  0
 55 56  1  0
 56 57  1  0
 48  4  1  0
 56 51  2  0
 26 15  1  0
 43 30  1  0
M  CHG  4  15   1  52  -1  55  -1  57  -1
M  END
>  <UniqueID>  (71) 
69

>  <SMILES>  (71) 
C=c1ccc(CC(=O)[N@H+]2CCC[C@H]2C(=O)N2CCS(=O)(=O)CC2)c/c1=C/c1[n-]c(=O)[n-]c1[O-]

>  <Energy>  (71) 
118.10896938137915

>  <Genealogy>  (71) 
C=c1ccc(CC(=O)[NH+]2CCCC2C(=O)N2CCS(=O)(=O)CC2)cc1=Cc1[n-]c(=O)[n-]c1[O-] (protonated)
C=c1ccc(CC(=O)[N@H+]2CCC[C@H]2C(=O)N2CCS(=O)(=O)CC2)cc1=Cc1[n-]c(=O)[n-]c1[O-] (chirality)
C=c1ccc(CC(=O)[N@H+]2CCC[C@H]2C(=O)N2CCS(=O)(=O)CC2)c/c1=C/c1[n-]c(=O)[n-]c1[O-] (cis-trans isomerization)
C=c1ccc(CC(=O)[N@H+]2CCC[C@H]2C(=O)N2CCS(=O)(=O)CC2)c/c1=C/c1[n-]c(=O)[n-]c1[O-] (3D coordinates assigned)
C=c1ccc(CC(=O)[N@H+]2CCC[C@H]2C(=O)N2CCS(=O)(=O)CC2)c/c1=C/c1[n-]c(=O)[n-]c1[O-] (nonaromatic ring conformer: 118.10896938137915 kcal/mol)

>  <smiles>  (71) 
C=c1ccc(CC(=O)N2CCCC2C(=O)N2CCS(=O)(=O)CC2)cc1=Cc1[nH]c(=O)[nH]c1O

>  <score_type>  (71) 
oracle

>  <origin>  (71) 
adg

>  <m_score__min__energy>  (71) 
-17.399999999999999

>  <m_primary>  (71) 
energy

$$$$
72:0
     RDKit          3D

 75 79  0  0  0  0  0  0  0  0999 V2000
   55.8270   24.4990   55.6210 H   0  0  0  0  0  0  0  0  0  0  0  0
   56.1570   24.9310   54.7660 O   0  0  0  0  0  0  0  0  0  0  0  0
   56.0750   26.3070   54.5280 C   0  0  0  0  0  0  0  0  0  0  0  0
   57.2060   27.0450   54.3250 C   0  0  0  0  0  0  0  0  0  0  0  0
   57.0770   28.3770   53.8720 C   0  0  0  0  0  0  0  0  0  0  0  0
   56.0931   28.7418   53.5421 H   0  0  0  0  0  0  0  0  0  0  0  0
   58.1770   29.2410   53.8350 C   0  0  0  0  0  0  0  0  0  0  0  0
   58.0240   30.6580   53.4340 C   0  0  0  0  0  0  0  0  0  0  0  0
   57.8240   31.5220   54.3320 O   0  0  0  0  0  0  0  0  0  0  0  0
   58.1170   31.0740   52.0550 N   0  0  0  0  0  0  0  0  0  0  0  0
   59.0290   30.3860   51.1220 C   0  0  0  0  0  0  0  0  0  0  0  0
   59.8311   29.9009   51.6976 H   0  0  0  0  0  0  0  0  0  0  0  0
   58.4497   29.6410   50.5569 H   0  0  0  0  0  0  0  0  0  0  0  0
   59.6570   31.3740   50.1210 C   0  0  0  0  0  0  0  0  0  0  0  0
   60.5869   30.9448   49.7197 H   0  0  0  0  0  0  0  0  0  0  0  0
   58.9477   31.5579   49.3005 H   0  0  0  0  0  0  0  0  0  0  0  0
   59.9730   32.7090   50.8280 C   0  0  0  0  0  0  0  0  0  0  0  0
   60.6251   32.4788   51.6835 H   0  0  0  0  0  0  0  0  0  0  0  0
   60.7420   33.6770   49.9050 C   0  0  0  0  0  0  0  0  0  0  0  0
   61.3625   34.3431   50.5224 H   0  0  0  0  0  0  0  0  0  0  0  0
   61.3672   33.0818   49.2232 H   0  0  0  0  0  0  0  0  0  0  0  0
   59.8480   34.4700   49.1190 O   0  0  0  0  0  0  0  0  0  0  0  0
   59.3350   34.1150   47.8590 C   0  0  0  0  0  0  0  0  0  0  0  0
   59.8570   34.7630   46.7300 C   0  0  0  0  0  0  0  0  0  0  0  0
   60.6520   35.5137   46.8501 H   0  0  0  0  0  0  0  0  0  0  0  0
   59.3730   34.4610   45.4500 C   0  0  0  0  0  0  0  0  0  0  0  0
   59.7904   34.9747   44.5714 H   0  0  0  0  0  0  0  0  0  0  0  0
   58.3570   33.5050   45.2840 C   0  0  0  0  0  0  0  0  0  0  0  0
   57.8660   33.1570   43.9090 C   0  0  0  0  0  0  0  0  0  0  0  0
   56.9709   32.5226   43.9889 H   0  0  0  0  0  0  0  0  0  0  0  0
   57.6143   34.0794   43.3652 H   0  0  0  0  0  0  0  0  0  0  0  0
   58.6530   32.6139   43.3652 H   0  0  0  0  0  0  0  0  0  0  0  0
   57.8510   32.8360   46.4090 C   0  0  0  0  0  0  0  0  0  0  0  0
   57.0733   32.0681   46.2845 H   0  0  0  0  0  0  0  0  0  0  0  0
   58.3300   33.1400   47.6890 C   0  0  0  0  0  0  0  0  0  0  0  0
   57.9209   32.6164   48.5656 H   0  0  0  0  0  0  0  0  0  0  0  0
   58.6780   33.3740   51.3670 C   0  0  0  0  0  0  0  0  0  0  0  0
   58.9159   33.8940   52.3067 H   0  0  0  0  0  0  0  0  0  0  0  0
   58.3179   34.0682   50.5935 H   0  0  0  0  0  0  0  0  0  0  0  0
   57.5520   32.3630   51.6380 C   0  0  0  0  0  0  0  0  0  0  0  0
   56.9011   32.7495   52.4360 H   0  0  0  0  0  0  0  0  0  0  0  0
   56.9703   32.2182   50.7157 H   0  0  0  0  0  0  0  0  0  0  0  0
   59.4190   28.7640   54.2550 C   0  0  0  0  0  0  0  0  0  0  0  0
   60.2827   29.4438   54.2986 H   0  0  0  0  0  0  0  0  0  0  0  0
   59.5620   27.4650   54.6090 N   0  0  0  0  0  0  0  0  0  0  0  0
   58.5270   26.5820   54.6250 C   0  0  0  0  0  0  0  0  0  0  0  0
   58.8360   25.2920   54.8020 C   0  0  0  0  0  0  0  0  0  0  0  0
   58.0395   24.5336   54.8235 H   0  0  0  0  0  0  0  0  0  0  0  0
   59.8865   24.9901   54.9259 H   0  0  0  0  0  0  0  0  0  0  0  0
   54.7560   26.8880   54.4400 N   0  0  0  0  0  0  0  0  0  0  0  0
   54.4450   28.0690   55.2620 C   0  0  0  0  0  0  0  0  0  0  0  0
   54.8969   27.9354   56.2560 H   0  0  0  0  0  0  0  0  0  0  0  0
   54.8529   28.9509   54.7463 H   0  0  0  0  0  0  0  0  0  0  0  0
   52.9310   28.2880   55.4340 C   0  0  0  0  0  0  0  0  0  0  0  0
   52.5616   27.5624   56.1737 H   0  0  0  0  0  0  0  0  0  0  0  0
   52.8023   29.3332   55.7517 H   0  0  0  0  0  0  0  0  0  0  0  0
   52.0990   28.1190   54.1330 C   0  0  0  0  0  0  0  0  0  0  0  0
   51.1502   27.6789   54.4737 H   0  0  0  0  0  0  0  0  0  0  0  0
   51.7890   29.4480   53.4600 C   0  0  0  0  0  0  0  0  0  0  0  0
   50.8100   30.3180   53.9810 C   0  0  0  0  0  0  0  0  0  0  0  0
   50.2452   30.0302   54.8799 H   0  0  0  0  0  0  0  0  0  0  0  0
   50.5530   31.5440   53.3620 C   0  0  0  0  0  0  0  0  0  0  0  0
   49.7778   32.2102   53.7686 H   0  0  0  0  0  0  0  0  0  0  0  0
   51.2760   31.9290   52.2280 C   0  0  0  0  0  0  0  0  0  0  0  0
   51.0170   33.1510   51.6170 O   0  0  0  0  0  0  0  0  0  0  0  0
   52.2650   31.0850   51.7120 C   0  0  0  0  0  0  0  0  0  0  0  0
   52.8424   31.3904   50.8270 H   0  0  0  0  0  0  0  0  0  0  0  0
   52.5190   29.8530   52.3220 C   0  0  0  0  0  0  0  0  0  0  0  0
   53.2962   29.1921   51.9106 H   0  0  0  0  0  0  0  0  0  0  0  0
   52.7040   27.1180   53.1200 C   0  0  0  0  0  0  0  0  0  0  0  0
   51.8876   26.5470   52.6536 H   0  0  0  0  0  0  0  0  0  0  0  0
   53.2666   27.6917   52.3688 H   0  0  0  0  0  0  0  0  0  0  0  0
   53.6690   26.1420   53.7900 C   0  0  0  0  0  0  0  0  0  0  0  0
   53.1277   25.5526   54.5447 H   0  0  0  0  0  0  0  0  0  0  0  0
   54.0926   25.4690   53.0300 H   0  0  0  0  0  0  0  0  0  0  0  0
  1  2  1  0
  2  3  1  0
  3  4  2  0
  4  5  1  0
  5  6  1  0
  5  7  2  0
  7  8  1  0
  8  9  2  0
  8 10  1  0
 10 11  1  0
 11 12  1  0
 11 13  1  0
 11 14  1  0
 14 15  1  0
 14 16  1  0
 14 17  1  0
 17 18  1  0
 17 19  1  0
 19 20  1  0
 19 21  1  0
 19 22  1  0
 22 23  1  0
 23 24  2  0
 24 25  1  0
 24 26  1  0
 26 27  1  0
 26 28  2  0
 28 29  1  0
 29 30  1  0
 29 31  1  0
 29 32  1  0
 28 33  1  0
 33 34  1  0
 33 35  2  0
 35 36  1  0
 17 37  1  0
 37 38  1  0
 37 39  1  0
 37 40  1  0
 40 41  1  0
 40 42  1  0
  7 43  1  0
 43 44  1  0
 43 45  2  0
 45 46  1  0
 46 47  2  0
 47 48  1  0
 47 49  1  0
  3 50  1  0
 50 51  1  0
 51 52  1  0
 51 53  1  0
 51 54  1  0
 54 55  1  0
 54 56  1  0
 54 57  1  0
 57 58  1  0
 57 59  1  0
 59 60  2  0
 60 61  1  0
 60 62  1  0
 62 63  1  0
 62 64  2  0
 64 65  1  0
 64 66  1  0
 66 67  1  0
 66 68  2  0
 68 69  1  0
 57 70  1  0
 70 71  1  0
 70 72  1  0
 70 73  1  0
 73 74  1  0
 73 75  1  0
 46  4  1  0
 73 50  1  0
 40 10  1  0
 68 59  1  0
 35 23  1  0
M  CHG  1  65  -1
M  END
>  <UniqueID>  (72) 
70

>  <SMILES>  (72) 
C=c1ncc(C(=O)N2CCC(COc3ccc(C)cc3)CC2)c/c1=C(\O)N1CCC(c2ccc([O-])cc2)CC1

>  <Energy>  (72) 
113.40514623995948

>  <Genealogy>  (72) 
C=c1ncc(C(=O)N2CCC(COc3ccc(C)cc3)CC2)cc1=C(O)N1CCC(c2ccc([O-])cc2)CC1 (protonated)
C=c1ncc(C(=O)N2CCC(COc3ccc(C)cc3)CC2)c/c1=C(\O)N1CCC(c2ccc([O-])cc2)CC1 (cis-trans isomerization)
C=c1ncc(C(=O)N2CCC(COc3ccc(C)cc3)CC2)c/c1=C(\O)N1CCC(c2ccc([O-])cc2)CC1 (3D coordinates assigned)
C=c1ncc(C(=O)N2CCC(COc3ccc(C)cc3)CC2)c/c1=C(\O)N1CCC(c2ccc([O-])cc2)CC1 (nonaromatic ring conformer: 113.40514623995948 kcal/mol)

>  <smiles>  (72) 
C=c1ncc(C(=O)N2CCC(COc3ccc(C)cc3)CC2)cc1=C(O)N1CCC(c2ccc(O)cc2)CC1

>  <score_type>  (72) 
oracle

>  <origin>  (72) 
adg

>  <m_score__min__energy>  (72) 
-12.81

>  <m_primary>  (72) 
energy

$$$$
73:0
     RDKit          3D

 49 51  0  0  0  0  0  0  0  0999 V2000
   60.5070   28.1580   48.9270 O   0  0  0  0  0  0  0  0  0  0  0  0
   59.3500   28.5770   48.6550 C   0  0  0  0  0  0  0  0  0  0  0  0
   58.4670   27.7530   47.7570 C   0  0  0  0  0  0  0  0  0  0  0  0
   59.4310   27.0300   46.3840 S   0  0  0  0  0  0  0  0  0  0  0  0
   58.1070   25.9570   45.8310 C   0  0  0  0  0  0  0  0  0  0  0  0
   56.8130   26.3020   46.0530 N   0  0  0  0  0  0  0  0  0  0  0  0
   55.7900   25.5110   45.6370 C   0  0  0  0  0  0  0  0  0  0  0  0
   54.6050   25.8750   45.8620 O   0  0  0  0  0  0  0  0  0  0  0  0
   56.0660   24.3030   44.9610 C   0  0  0  0  0  0  0  0  0  0  0  0
   54.9970   23.3960   44.4740 C   0  0  0  0  0  0  0  0  0  0  0  0
   55.1570   22.7050   43.4330 O   0  0  0  0  0  0  0  0  0  0  0  0
   53.7940   23.2970   45.1650 O   0  0  0  0  0  0  0  0  0  0  0  0
   57.4140   23.9720   44.7530 C   0  0  0  0  0  0  0  0  0  0  0  0
   58.4000   24.7980   45.1900 N   0  0  0  0  0  0  0  0  0  0  0  0
   58.9560   29.8730   49.1220 N   0  0  0  0  0  0  0  0  0  0  0  0
   59.7180   31.0780   48.9880 C   0  0  0  0  0  0  0  0  0  0  0  0
   60.9850   31.1530   49.5730 C   0  0  0  0  0  0  0  0  0  0  0  0
   61.7260   32.3340   49.5040 C   0  0  0  0  0  0  0  0  0  0  0  0
   61.2000   33.4590   48.8610 C   0  0  0  0  0  0  0  0  0  0  0  0
   61.9260   34.6040   48.8290 F   0  0  0  0  0  0  0  0  0  0  0  0
   59.9190   33.4050   48.2820 C   0  0  0  0  0  0  0  0  0  0  0  0
   59.2960   34.6360   47.6770 C   0  0  0  0  0  0  0  0  0  0  0  0
   59.4330   34.5820   46.1870 C   0  0  0  0  0  0  0  0  0  0  0  0
   59.6080   35.6450   45.5350 O   0  0  0  0  0  0  0  0  0  0  0  0
   59.3010   33.3300   45.5040 N   0  0  0  0  0  0  0  0  0  0  0  0
   58.5320   33.2160   44.2680 C   0  0  0  0  0  0  0  0  0  0  0  0
   57.9210   31.8370   44.1810 C   0  0  0  0  0  0  0  0  0  0  0  0
   57.8070   31.0730   45.3560 C   0  0  0  0  0  0  0  0  0  0  0  0
   57.1910   29.8180   45.3330 C   0  0  0  0  0  0  0  0  0  0  0  0
   56.6730   29.3170   44.1380 C   0  0  0  0  0  0  0  0  0  0  0  0
   56.7670   30.0690   42.9660 C   0  0  0  0  0  0  0  0  0  0  0  0
   57.3830   31.3270   42.9760 C   0  0  0  0  0  0  0  0  0  0  0  0
   57.4420   32.2300   41.4640 Cl  0  0  0  0  0  0  0  0  0  0  0  0
   59.1760   32.2160   48.3690 C   0  0  0  0  0  0  0  0  0  0  0  0
   58.0121   26.9418   48.3444 H   0  0  0  0  0  0  0  0  0  0  0  0
   57.6874   28.4045   47.3353 H   0  0  0  0  0  0  0  0  0  0  0  0
   57.6736   23.0381   44.2330 H   0  0  0  0  0  0  0  0  0  0  0  0
   61.4008   30.2762   50.0909 H   0  0  0  0  0  0  0  0  0  0  0  0
   62.7273   32.3799   49.9571 H   0  0  0  0  0  0  0  0  0  0  0  0
   58.2303   34.6780   47.9462 H   0  0  0  0  0  0  0  0  0  0  0  0
   59.8059   35.5321   48.0605 H   0  0  0  0  0  0  0  0  0  0  0  0
   59.4680   32.4530   46.0450 H   0  0  0  0  0  0  0  0  0  0  0  0
   57.7331   33.9722   44.2620 H   0  0  0  0  0  0  0  0  0  0  0  0
   59.1963   33.3780   43.4063 H   0  0  0  0  0  0  0  0  0  0  0  0
   58.2063   31.4665   46.3024 H   0  0  0  0  0  0  0  0  0  0  0  0
   57.1147   29.2257   46.2568 H   0  0  0  0  0  0  0  0  0  0  0  0
   56.1903   28.3287   44.1197 H   0  0  0  0  0  0  0  0  0  0  0  0
   56.3542   29.6708   42.0274 H   0  0  0  0  0  0  0  0  0  0  0  0
   58.1604   32.1760   47.9484 H   0  0  0  0  0  0  0  0  0  0  0  0
  1  2  2  0
  2  3  1  0
  3  4  1  0
  4  5  1  0
  5  6  2  0
  6  7  1  0
  7  8  2  0
  7  9  1  0
  9 10  1  0
 10 11  2  0
 10 12  1  0
  9 13  2  0
 13 14  1  0
  2 15  1  0
 15 16  1  0
 16 17  2  0
 17 18  1  0
 18 19  2  0
 19 20  1  0
 19 21  1  0
 21 22  1  0
 22 23  1  0
 23 24  2  0
 23 25  1  0
 25 26  1  0
 26 27  1  0
 27 28  2  0
 28 29  1  0
 29 30  2  0
 30 31  1  0
 31 32  2  0
 32 33  1  0
 21 34  2  0
 14  5  1  0
 34 16  1  0
 32 27  1  0
  3 35  1  0
  3 36  1  0
 13 37  1  0
 17 38  1  0
 18 39  1  0
 22 40  1  0
 22 41  1  0
 25 42  1  0
 26 43  1  0
 26 44  1  0
 28 45  1  0
 29 46  1  0
 30 47  1  0
 31 48  1  0
 34 49  1  0
M  CHG  3  12  -1  14  -1  15  -1
M  END
>  <UniqueID>  (73) 
71

>  <SMILES>  (73) 
O=C(CSc1nc(=O)c(C(=O)[O-])c[n-]1)[N-]c1ccc(F)c(CC(=O)NCc2ccccc2Cl)c1

>  <Energy>  (73) 
49.85557545351052

>  <Genealogy>  (73) 
O=C(CSc1nc(=O)c(C(=O)[O-])c[n-]1)[N-]c1ccc(F)c(CC(=O)NCc2ccccc2Cl)c1 (protonated)
O=C(CSc1nc(=O)c(C(=O)[O-])c[n-]1)[N-]c1ccc(F)c(CC(=O)NCc2ccccc2Cl)c1 (3D coordinates assigned)
O=C(CSc1nc(=O)c(C(=O)[O-])c[n-]1)[N-]c1ccc(F)c(CC(=O)NCc2ccccc2Cl)c1 (optimized conformer: 49.85557545351052 kcal/mol)

>  <smiles>  (73) 
O=C(Cc1cc(NC(=O)CSc2nc(=O)c(C(=O)O)c[nH]2)ccc1F)NCc1ccccc1Cl

>  <score_type>  (73) 
oracle

>  <origin>  (73) 
adg

>  <m_score__min__energy>  (73) 
-14.720000000000001

>  <m_primary>  (73) 
energy

$$$$
74:0
     RDKit          3D

 68 71  0  0  0  0  0  0  0  0999 V2000
   58.1120   27.6140   43.4750 C   0  0  0  0  0  0  0  0  0  0  0  0
   59.3050   28.3170   44.1160 C   0  0  0  0  0  0  0  0  0  0  0  0
   58.8800   29.1340   45.2650 N   0  0  0  0  0  0  0  0  0  0  0  0
   57.9590   30.2420   45.1410 C   0  0  0  0  0  0  0  0  0  0  0  0
   56.7190   30.0280   45.2460 O   0  0  0  0  0  0  0  0  0  0  0  0
   58.4130   31.6530   44.8730 C   0  0  0  0  0  0  0  0  0  0  0  0
   57.8680   32.5950   45.8490 N   0  0  0  0  0  0  0  0  0  0  0  0
   59.1030   33.4640   46.7260 S   0  0  0  0  0  0  0  0  0  0  0  0
   58.9020   34.9370   46.5030 O   0  0  0  0  0  0  0  0  0  0  0  0
   60.4480   33.0900   46.1660 O   0  0  0  0  0  0  0  0  0  0  0  0
   59.0820   33.1570   48.4650 C   0  0  0  0  0  0  0  0  0  0  0  0
   58.4710   32.0040   48.9800 C   0  0  0  0  0  0  0  0  0  0  0  0
   58.4350   31.7850   50.3600 C   0  0  0  0  0  0  0  0  0  0  0  0
   59.0180   32.7100   51.2310 C   0  0  0  0  0  0  0  0  0  0  0  0
   59.6420   33.8520   50.7230 C   0  0  0  0  0  0  0  0  0  0  0  0
   59.6760   34.0750   49.3430 C   0  0  0  0  0  0  0  0  0  0  0  0
   59.4790   28.8780   46.5480 C   0  0  0  0  0  0  0  0  0  0  0  0
   60.2030   29.9020   47.1730 C   0  0  0  0  0  0  0  0  0  0  0  0
   60.8530   29.6860   48.3990 C   0  0  0  0  0  0  0  0  0  0  0  0
   61.6190   30.7710   49.0610 C   0  0  0  0  0  0  0  0  0  0  0  0
   61.8690   30.6670   50.2950 O   0  0  0  0  0  0  0  0  0  0  0  0
   62.0290   31.9610   48.3380 N   0  0  0  0  0  0  0  0  0  0  0  0
   62.5930   32.9740   49.2690 C   0  0  0  0  0  0  0  0  0  0  0  0
   64.1190   33.1080   49.1240 C   0  0  0  0  0  0  0  0  0  0  0  0
   64.5180   33.4720   47.8100 O   0  0  0  0  0  0  0  0  0  0  0  0
   63.7380   32.8650   46.7840 C   0  0  0  0  0  0  0  0  0  0  0  0
   62.9580   31.6180   47.2350 C   0  0  0  0  0  0  0  0  0  0  0  0
   60.7500   28.4250   49.0090 C   0  0  0  0  0  0  0  0  0  0  0  0
   60.0230   27.4000   48.4000 C   0  0  0  0  0  0  0  0  0  0  0  0
   59.3760   27.6160   47.1740 C   0  0  0  0  0  0  0  0  0  0  0  0
   58.5850   26.5630   46.5990 N   0  0  0  0  0  0  0  0  0  0  0  0
   59.2350   25.3860   46.0200 C   0  0  0  0  0  0  0  0  0  0  0  0
   58.1960   24.5240   45.2980 C   0  0  0  0  0  0  0  0  0  0  0  0
   57.1330   24.1700   46.1630 O   0  0  0  0  0  0  0  0  0  0  0  0
   56.4920   25.2890   46.7830 C   0  0  0  0  0  0  0  0  0  0  0  0
   57.1270   26.6720   46.5300 C   0  0  0  0  0  0  0  0  0  0  0  0
   57.4500   27.2239   44.2621 H   0  0  0  0  0  0  0  0  0  0  0  0
   57.5570   28.3295   42.8504 H   0  0  0  0  0  0  0  0  0  0  0  0
   58.4690   26.7819   42.8504 H   0  0  0  0  0  0  0  0  0  0  0  0
   60.0264   27.5609   44.4593 H   0  0  0  0  0  0  0  0  0  0  0  0
   59.7667   28.9776   43.3674 H   0  0  0  0  0  0  0  0  0  0  0  0
   59.5114   31.6882   44.9196 H   0  0  0  0  0  0  0  0  0  0  0  0
   58.0491   31.9451   43.8769 H   0  0  0  0  0  0  0  0  0  0  0  0
   58.0191   31.2705   48.2961 H   0  0  0  0  0  0  0  0  0  0  0  0
   57.9475   30.8841   50.7610 H   0  0  0  0  0  0  0  0  0  0  0  0
   58.9854   32.5385   52.3171 H   0  0  0  0  0  0  0  0  0  0  0  0
   60.1066   34.5759   51.4087 H   0  0  0  0  0  0  0  0  0  0  0  0
   60.1703   34.9734   48.9449 H   0  0  0  0  0  0  0  0  0  0  0  0
   60.2632   30.8912   46.6956 H   0  0  0  0  0  0  0  0  0  0  0  0
   61.1870   32.3810   47.8790 H   0  0  0  0  0  0  0  0  0  0  0  0
   62.1296   33.9486   49.0557 H   0  0  0  0  0  0  0  0  0  0  0  0
   62.3781   32.6460   50.2967 H   0  0  0  0  0  0  0  0  0  0  0  0
   64.4721   33.8790   49.8246 H   0  0  0  0  0  0  0  0  0  0  0  0
   64.5598   32.1243   49.3431 H   0  0  0  0  0  0  0  0  0  0  0  0
   63.0158   33.6082   46.4151 H   0  0  0  0  0  0  0  0  0  0  0  0
   64.4430   32.5318   46.0081 H   0  0  0  0  0  0  0  0  0  0  0  0
   62.3817   31.2238   46.3850 H   0  0  0  0  0  0  0  0  0  0  0  0
   63.6713   30.8604   47.5916 H   0  0  0  0  0  0  0  0  0  0  0  0
   61.2459   28.2434   49.9740 H   0  0  0  0  0  0  0  0  0  0  0  0
   59.9571   26.4151   48.8855 H   0  0  0  0  0  0  0  0  0  0  0  0
   60.0039   25.7090   45.3027 H   0  0  0  0  0  0  0  0  0  0  0  0
   59.7021   24.7966   46.8228 H   0  0  0  0  0  0  0  0  0  0  0  0
   57.7915   25.0889   44.4452 H   0  0  0  0  0  0  0  0  0  0  0  0
   58.6872   23.6015   44.9548 H   0  0  0  0  0  0  0  0  0  0  0  0
   55.4552   25.3252   46.4174 H   0  0  0  0  0  0  0  0  0  0  0  0
   56.5886   25.1175   47.8652 H   0  0  0  0  0  0  0  0  0  0  0  0
   56.8336   27.0327   45.5331 H   0  0  0  0  0  0  0  0  0  0  0  0
   56.7770   27.3802   47.2955 H   0  0  0  0  0  0  0  0  0  0  0  0
  1  2  1  0
  2  3  1  0
  3  4  1  0
  4  5  2  0
  4  6  1  0
  6  7  1  0
  7  8  1  0
  8  9  2  0
  8 10  2  0
  8 11  1  0
 11 12  2  0
 12 13  1  0
 13 14  2  0
 14 15  1  0
 15 16  2  0
  3 17  1  0
 17 18  2  0
 18 19  1  0
 19 20  1  0
 20 21  2  0
 20 22  1  0
 22 23  1  0
 23 24  1  0
 24 25  1  0
 25 26  1  0
 26 27  1  0
 19 28  2  0
 28 29  1  0
 29 30  2  0
 30 31  1  0
 31 32  1  0
 32 33  1  0
 33 34  1  0
 34 35  1  0
 35 36  1  0
 16 11  1  0
 30 17  1  0
 36 31  1  0
 27 22  1  0
  1 37  1  0
  1 38  1  0
  1 39  1  0
  2 40  1  0
  2 41  1  0
  6 42  1  0
  6 43  1  0
 12 44  1  0
 13 45  1  0
 14 46  1  0
 15 47  1  0
 16 48  1  0
 18 49  1  0
 22 50  1  0
 23 51  1  0
 23 52  1  0
 24 53  1  0
 24 54  1  0
 26 55  1  0
 26 56  1  0
 27 57  1  0
 27 58  1  0
 28 59  1  0
 29 60  1  0
 32 61  1  0
 32 62  1  0
 33 63  1  0
 33 64  1  0
 35 65  1  0
 35 66  1  0
 36 67  1  0
 36 68  1  0
M  CHG  2   7  -1  22   1
M  END
>  <UniqueID>  (74) 
72

>  <SMILES>  (74) 
CCN(C(=O)C[N-]S(=O)(=O)c1ccccc1)c1cc(C(=O)[NH+]2CCOCC2)ccc1N1CCOCC1

>  <Energy>  (74) 
102.5767652019283

>  <Genealogy>  (74) 
CCN(C(=O)C[N-]S(=O)(=O)c1ccccc1)c1cc(C(=O)[NH+]2CCOCC2)ccc1N1CCOCC1 (protonated)
CCN(C(=O)C[N-]S(=O)(=O)c1ccccc1)c1cc(C(=O)[NH+]2CCOCC2)ccc1N1CCOCC1 (3D coordinates assigned)
CCN(C(=O)C[N-]S(=O)(=O)c1ccccc1)c1cc(C(=O)[NH+]2CCOCC2)ccc1N1CCOCC1 (nonaromatic ring conformer: 102.5767652019283 kcal/mol)

>  <smiles>  (74) 
CCN(C(=O)CNS(=O)(=O)c1ccccc1)c1cc(C(=O)N2CCOCC2)ccc1N1CCOCC1

>  <score_type>  (74) 
oracle

>  <origin>  (74) 
adg

>  <m_score__min__energy>  (74) 
-9.5199999999999996

>  <m_primary>  (74) 
energy

$$$$
75:0
     RDKit          3D

 63 66  0  0  0  0  0  0  0  0999 V2000
   59.2430   27.4080   44.4600 O   0  0  0  0  0  0  0  0  0  0  0  0
   58.1380   27.3860   43.8500 C   0  0  0  0  0  0  0  0  0  0  0  0
   57.7700   26.1750   43.0300 C   0  0  0  0  0  0  0  0  0  0  0  0
   57.2260   25.0630   43.8370 N   0  0  0  0  0  0  0  0  0  0  0  0
   56.6390   23.9750   43.0150 C   0  0  0  0  0  0  0  0  0  0  0  0
   56.7640   22.5780   43.6520 C   0  0  0  0  0  0  0  0  0  0  0  0
   56.6350   22.6600   45.1100 N   0  0  0  0  0  0  0  0  0  0  0  0
   55.9920   21.5890   45.8270 C   0  0  0  0  0  0  0  0  0  0  0  0
   56.0470   20.4110   45.3760 O   0  0  0  0  0  0  0  0  0  0  0  0
   55.2850   21.8370   47.1010 C   0  0  0  0  0  0  0  0  0  0  0  0
   53.8910   22.0110   47.0990 C   0  0  0  0  0  0  0  0  0  0  0  0
   53.2080   22.2520   48.2950 C   0  0  0  0  0  0  0  0  0  0  0  0
   53.9110   22.3370   49.4980 C   0  0  0  0  0  0  0  0  0  0  0  0
   55.3000   22.1830   49.5090 C   0  0  0  0  0  0  0  0  0  0  0  0
   55.9920   21.9420   48.3160 C   0  0  0  0  0  0  0  0  0  0  0  0
   57.3780   21.8310   48.3450 O   0  0  0  0  0  0  0  0  0  0  0  0
   57.3950   23.6770   45.8490 C   0  0  0  0  0  0  0  0  0  0  0  0
   58.1470   24.6010   44.8920 C   0  0  0  0  0  0  0  0  0  0  0  0
   57.2000   28.4620   44.0020 N   0  0  0  0  0  0  0  0  0  0  0  0
   57.5070   29.7350   44.5980 C   0  0  0  0  0  0  0  0  0  0  0  0
   57.3100   30.9080   43.8520 C   0  0  0  0  0  0  0  0  0  0  0  0
   57.6220   32.1580   44.3950 C   0  0  0  0  0  0  0  0  0  0  0  0
   58.1420   32.2540   45.6960 C   0  0  0  0  0  0  0  0  0  0  0  0
   58.4410   33.5970   46.3070 C   0  0  0  0  0  0  0  0  0  0  0  0
   59.7300   33.5520   47.0310 N   0  0  0  0  0  0  0  0  0  0  0  0
   60.8090   34.1580   46.2290 C   0  0  0  0  0  0  0  0  0  0  0  0
   62.1810   33.8500   46.8600 C   0  0  0  0  0  0  0  0  0  0  0  0
   62.0960   33.6460   48.3830 C   0  0  0  0  0  0  0  0  0  0  0  0
   60.9970   34.5180   48.9920 C   0  0  0  0  0  0  0  0  0  0  0  0
   59.6210   34.2080   48.3590 C   0  0  0  0  0  0  0  0  0  0  0  0
   58.3500   31.0840   46.4410 C   0  0  0  0  0  0  0  0  0  0  0  0
   58.0520   29.8330   45.8910 C   0  0  0  0  0  0  0  0  0  0  0  0
   57.0122   26.4721   42.2901 H   0  0  0  0  0  0  0  0  0  0  0  0
   58.6935   25.8108   42.5561 H   0  0  0  0  0  0  0  0  0  0  0  0
   55.5715   24.1926   42.8629 H   0  0  0  0  0  0  0  0  0  0  0  0
   57.2019   23.9479   42.0703 H   0  0  0  0  0  0  0  0  0  0  0  0
   55.9703   21.9279   43.2553 H   0  0  0  0  0  0  0  0  0  0  0  0
   57.7536   22.1649   43.4072 H   0  0  0  0  0  0  0  0  0  0  0  0
   53.3341   21.9574   46.1519 H   0  0  0  0  0  0  0  0  0  0  0  0
   52.1149   22.3748   48.2879 H   0  0  0  0  0  0  0  0  0  0  0  0
   53.3714   22.5253   50.4379 H   0  0  0  0  0  0  0  0  0  0  0  0
   55.8515   22.2514   50.4583 H   0  0  0  0  0  0  0  0  0  0  0  0
   56.6995   24.2759   46.4552 H   0  0  0  0  0  0  0  0  0  0  0  0
   58.1274   23.1682   46.4930 H   0  0  0  0  0  0  0  0  0  0  0  0
   58.5348   25.4680   45.4469 H   0  0  0  0  0  0  0  0  0  0  0  0
   58.9862   24.0554   44.4359 H   0  0  0  0  0  0  0  0  0  0  0  0
   56.2070   28.2730   43.7430 H   0  0  0  0  0  0  0  0  0  0  0  0
   56.9064   30.8429   42.8308 H   0  0  0  0  0  0  0  0  0  0  0  0
   57.4596   33.0695   43.8011 H   0  0  0  0  0  0  0  0  0  0  0  0
   58.4974   34.3541   45.5110 H   0  0  0  0  0  0  0  0  0  0  0  0
   57.6400   33.8561   47.0150 H   0  0  0  0  0  0  0  0  0  0  0  0
   60.7780   33.7469   45.2092 H   0  0  0  0  0  0  0  0  0  0  0  0
   60.6647   35.2481   46.2001 H   0  0  0  0  0  0  0  0  0  0  0  0
   62.5818   32.9332   46.4030 H   0  0  0  0  0  0  0  0  0  0  0  0
   62.8362   34.7139   46.6742 H   0  0  0  0  0  0  0  0  0  0  0  0
   61.8743   32.5892   48.5926 H   0  0  0  0  0  0  0  0  0  0  0  0
   63.0593   33.9334   48.8295 H   0  0  0  0  0  0  0  0  0  0  0  0
   60.9454   34.3264   50.0739 H   0  0  0  0  0  0  0  0  0  0  0  0
   61.2407   35.5725   48.7956 H   0  0  0  0  0  0  0  0  0  0  0  0
   59.0658   33.5413   49.0352 H   0  0  0  0  0  0  0  0  0  0  0  0
   59.1020   35.1666   48.2119 H   0  0  0  0  0  0  0  0  0  0  0  0
   58.7498   31.1506   47.4636 H   0  0  0  0  0  0  0  0  0  0  0  0
   58.2451   28.9200   46.4733 H   0  0  0  0  0  0  0  0  0  0  0  0
  1  2  2  0
  2  3  1  0
  3  4  1  0
  4  5  1  0
  5  6  1  0
  6  7  1  0
  7  8  1  0
  8  9  2  0
  8 10  1  0
 10 11  2  0
 11 12  1  0
 12 13  2  0
 13 14  1  0
 14 15  2  0
 15 16  1  0
  7 17  1  0
 17 18  1  0
  2 19  1  0
 19 20  1  0
 20 21  2  0
 21 22  1  0
 22 23  2  0
 23 24  1  0
 24 25  1  0
 25 26  1  0
 26 27  1  0
 27 28  1  0
 28 29  1  0
 29 30  1  0
 23 31  1  0
 31 32  2  0
 18  4  1  0
 32 20  1  0
 15 10  1  0
 30 25  1  0
  3 33  1  0
  3 34  1  0
  5 35  1  0
  5 36  1  0
  6 37  1  0
  6 38  1  0
 11 39  1  0
 12 40  1  0
 13 41  1  0
 14 42  1  0
 17 43  1  0
 17 44  1  0
 18 45  1  0
 18 46  1  0
 19 47  1  0
 21 48  1  0
 22 49  1  0
 24 50  1  0
 24 51  1  0
 26 52  1  0
 26 53  1  0
 27 54  1  0
 27 55  1  0
 28 56  1  0
 28 57  1  0
 29 58  1  0
 29 59  1  0
 30 60  1  0
 30 61  1  0
 31 62  1  0
 32 63  1  0
M  CHG  1  16  -1
M  END
>  <UniqueID>  (75) 
73

>  <SMILES>  (75) 
O=C(CN1CCN(C(=O)c2ccccc2[O-])CC1)Nc1ccc(CN2CCCCC2)cc1

>  <Energy>  (75) 
87.10767695524903

>  <Genealogy>  (75) 
O=C(CN1CCN(C(=O)c2ccccc2[O-])CC1)Nc1ccc(CN2CCCCC2)cc1 (protonated)
O=C(CN1CCN(C(=O)c2ccccc2[O-])CC1)Nc1ccc(CN2CCCCC2)cc1 (3D coordinates assigned)
O=C(CN1CCN(C(=O)c2ccccc2[O-])CC1)Nc1ccc(CN2CCCCC2)cc1 (nonaromatic ring conformer: 87.10767695524903 kcal/mol)

>  <smiles>  (75) 
O=C(CN1CCN(C(=O)c2ccccc2O)CC1)Nc1ccc(CN2CCCCC2)cc1

>  <score_type>  (75) 
oracle

>  <origin>  (75) 
adg

>  <m_score__min__energy>  (75) 
-12.050000000000001

>  <m_primary>  (75) 
energy

$$$$
76:0
     RDKit          3D

 42 44  0  0  0  0  0  0  0  0999 V2000
   50.0700   32.0457   54.4925 H   0  0  0  0  0  0  0  0  0  0  0  0
   50.7720   31.8960   53.6590 C   0  0  0  0  0  0  0  0  0  0  0  0
   50.4590   32.3840   52.3880 C   0  0  0  0  0  0  0  0  0  0  0  0
   49.5080   32.9105   52.2196 H   0  0  0  0  0  0  0  0  0  0  0  0
   51.3550   32.2030   51.3300 C   0  0  0  0  0  0  0  0  0  0  0  0
   51.0510   32.7040   50.0690 O   0  0  0  0  0  0  0  0  0  0  0  0
   52.5590   31.5220   51.5400 C   0  0  0  0  0  0  0  0  0  0  0  0
   53.2649   31.3873   50.7072 H   0  0  0  0  0  0  0  0  0  0  0  0
   52.8700   31.0090   52.8120 C   0  0  0  0  0  0  0  0  0  0  0  0
   54.1090   30.3250   53.0630 N   0  0  0  0  0  0  0  0  0  0  0  0
   54.9180   30.8970   53.3980 H   0  0  0  0  0  0  0  0  0  0  0  0
   54.2580   28.8960   53.0460 C   0  0  0  0  0  0  0  0  0  0  0  0
   53.2590   28.1480   52.8700 O   0  0  0  0  0  0  0  0  0  0  0  0
   55.5960   28.2740   53.3150 C   0  0  0  0  0  0  0  0  0  0  0  0
   55.9127   27.7010   52.4311 H   0  0  0  0  0  0  0  0  0  0  0  0
   55.5097   27.6099   54.1877 H   0  0  0  0  0  0  0  0  0  0  0  0
   56.5940   29.3050   53.6030 N   0  0  0  0  0  0  0  0  0  0  0  0
   57.0560   30.1540   52.7340 C   0  0  0  0  0  0  0  0  0  0  0  0
   56.9670   31.4980   52.9960 N   0  0  0  0  0  0  0  0  0  0  0  0
   57.4310   32.4280   52.1090 C   0  0  0  0  0  0  0  0  0  0  0  0
   57.3440   33.6580   52.3630 O   0  0  0  0  0  0  0  0  0  0  0  0
   57.9930   31.9710   50.9260 C   0  0  0  0  0  0  0  0  0  0  0  0
   58.5170   32.6650   49.9070 N   0  0  0  0  0  0  0  0  0  0  0  0
   58.8950   31.6760   49.0450 C   0  0  0  0  0  0  0  0  0  0  0  0
   59.6230   31.9540   47.7440 C   0  0  0  0  0  0  0  0  0  0  0  0
   61.0320   31.3400   47.8260 C   0  0  0  0  0  0  0  0  0  0  0  0
   61.3170   31.2158   48.8812 H   0  0  0  0  0  0  0  0  0  0  0  0
   61.0342   30.3593   47.3277 H   0  0  0  0  0  0  0  0  0  0  0  0
   61.7518   32.0061   47.3277 H   0  0  0  0  0  0  0  0  0  0  0  0
   59.7370   33.4730   47.5080 C   0  0  0  0  0  0  0  0  0  0  0  0
   59.7760   33.9927   48.4767 H   0  0  0  0  0  0  0  0  0  0  0  0
   60.6538   33.6879   46.9394 H   0  0  0  0  0  0  0  0  0  0  0  0
   58.8625   33.8224   46.9394 H   0  0  0  0  0  0  0  0  0  0  0  0
   58.8560   31.3240   46.5620 C   0  0  0  0  0  0  0  0  0  0  0  0
   58.0601   30.6702   46.9481 H   0  0  0  0  0  0  0  0  0  0  0  0
   58.4106   32.1204   45.9477 H   0  0  0  0  0  0  0  0  0  0  0  0
   59.5507   30.7323   45.9477 H   0  0  0  0  0  0  0  0  0  0  0  0
   58.6550   30.4130   49.5000 N   0  0  0  0  0  0  0  0  0  0  0  0
   58.0760   30.6470   50.6840 C   0  0  0  0  0  0  0  0  0  0  0  0
   57.6240   29.7210   51.5620 N   0  0  0  0  0  0  0  0  0  0  0  0
   51.9750   31.2180   53.8740 C   0  0  0  0  0  0  0  0  0  0  0  0
   52.2220   30.8464   54.8794 H   0  0  0  0  0  0  0  0  0  0  0  0
  1  2  1  0
  2  3  2  0
  3  4  1  0
  3  5  1  0
  5  6  1  0
  5  7  2  0
  7  8  1  0
  7  9  1  0
  9 10  1  0
 10 11  1  0
 10 12  1  0
 12 13  2  0
 12 14  1  0
 14 15  1  0
 14 16  1  0
 14 17  1  0
 17 18  2  0
 18 19  1  0
 19 20  1  0
 20 21  2  0
 20 22  1  0
 22 23  1  0
 23 24  1  0
 24 25  1  0
 25 26  1  0
 26 27  1  0
 26 28  1  0
 26 29  1  0
 25 30  1  0
 30 31  1  0
 30 32  1  0
 30 33  1  0
 25 34  1  0
 34 35  1  0
 34 36  1  0
 34 37  1  0
 24 38  2  0
 38 39  1  0
 39 40  1  0
  9 41  2  0
 41 42  1  0
 41  2  1  0
 40 18  1  0
 39 22  2  0
M  CHG  4   6  -1  19  -1  23  -1  40  -1
M  END
>  <UniqueID>  (76) 
74

>  <SMILES>  (76) 
CC(C)(C)c1nc2[n-]/c(=N\CC(=O)Nc3cccc([O-])c3)[n-]c(=O)c2[n-]1

>  <Energy>  (76) 
79.5622067287965

>  <Genealogy>  (76) 
CC(C)(C)c1nc2[n-]c(=NCC(=O)Nc3cccc([O-])c3)[n-]c(=O)c2[n-]1 (protonated)
CC(C)(C)c1nc2[n-]/c(=N\CC(=O)Nc3cccc([O-])c3)[n-]c(=O)c2[n-]1 (cis-trans isomerization)
CC(C)(C)c1nc2[n-]/c(=N\CC(=O)Nc3cccc([O-])c3)[n-]c(=O)c2[n-]1 (3D coordinates assigned)
CC(C)(C)c1nc2[n-]/c(=N\CC(=O)Nc3cccc([O-])c3)[n-]c(=O)c2[n-]1 (optimized conformer: 79.5622067287965 kcal/mol)

>  <smiles>  (76) 
CC(C)(C)c1nc2[nH]c(=NCC(=O)Nc3cccc(O)c3)[nH]c(=O)c2[nH]1

>  <score_type>  (76) 
oracle

>  <origin>  (76) 
adg

>  <m_score__min__energy>  (76) 
-14.050000000000001

>  <m_primary>  (76) 
energy

$$$$
77:0
     RDKit          3D

 41 43  0  0  0  0  0  0  0  0999 V2000
   57.1140   22.2430   47.8700 N   0  0  0  0  0  0  0  0  0  0  0  0
   55.9130   22.9310   46.8360 S   0  0  0  0  0  0  0  0  0  0  0  0
   55.7430   22.0540   45.6270 O   0  0  0  0  0  0  0  0  0  0  0  0
   54.6030   23.0170   47.5650 O   0  0  0  0  0  0  0  0  0  0  0  0
   56.4160   24.5350   46.3310 C   0  0  0  0  0  0  0  0  0  0  0  0
   57.7210   24.7670   45.9010 C   0  0  0  0  0  0  0  0  0  0  0  0
   58.0890   26.0500   45.5010 C   0  0  0  0  0  0  0  0  0  0  0  0
   57.1420   27.0820   45.5490 C   0  0  0  0  0  0  0  0  0  0  0  0
   57.4680   28.4200   45.1270 N   0  0  0  0  0  0  0  0  0  0  0  0
   56.9770   28.9620   43.8530 C   0  0  0  0  0  0  0  0  0  0  0  0
   56.5240   30.4280   44.0170 C   0  0  0  0  0  0  0  0  0  0  0  0
   57.1350   31.1030   45.1910 N   0  0  0  0  0  0  0  0  0  0  0  0
   57.0990   32.5730   45.0450 C   0  0  0  0  0  0  0  0  0  0  0  0
   58.0750   33.2270   45.9900 C   0  0  0  0  0  0  0  0  0  0  0  0
   57.9730   33.0130   47.3750 C   0  0  0  0  0  0  0  0  0  0  0  0
   58.8940   33.5990   48.2490 C   0  0  0  0  0  0  0  0  0  0  0  0
   59.9240   34.3990   47.7480 C   0  0  0  0  0  0  0  0  0  0  0  0
   60.8170   34.9650   48.5980 F   0  0  0  0  0  0  0  0  0  0  0  0
   60.0370   34.6120   46.3720 C   0  0  0  0  0  0  0  0  0  0  0  0
   59.1200   34.0280   45.4920 C   0  0  0  0  0  0  0  0  0  0  0  0
   59.2510   34.2380   44.1570 F   0  0  0  0  0  0  0  0  0  0  0  0
   58.5160   30.6390   45.4180 C   0  0  0  0  0  0  0  0  0  0  0  0
   58.4830   29.1760   45.8710 C   0  0  0  0  0  0  0  0  0  0  0  0
   55.8760   26.7910   45.9620 N   0  0  0  0  0  0  0  0  0  0  0  0
   55.5270   25.5620   46.3430 N   0  0  0  0  0  0  0  0  0  0  0  0
   57.7350   23.0230   48.1800 H   0  0  0  0  0  0  0  0  0  0  0  0
   58.4528   23.9461   45.8776 H   0  0  0  0  0  0  0  0  0  0  0  0
   59.1124   26.2508   45.1511 H   0  0  0  0  0  0  0  0  0  0  0  0
   57.7839   28.9156   43.1069 H   0  0  0  0  0  0  0  0  0  0  0  0
   56.1154   28.3623   43.5244 H   0  0  0  0  0  0  0  0  0  0  0  0
   56.8038   30.9837   43.1098 H   0  0  0  0  0  0  0  0  0  0  0  0
   55.4357   30.4173   44.1767 H   0  0  0  0  0  0  0  0  0  0  0  0
   57.3636   32.8397   44.0111 H   0  0  0  0  0  0  0  0  0  0  0  0
   56.0851   32.9271   45.2832 H   0  0  0  0  0  0  0  0  0  0  0  0
   57.1651   32.3817   47.7735 H   0  0  0  0  0  0  0  0  0  0  0  0
   58.8074   33.4298   49.3325 H   0  0  0  0  0  0  0  0  0  0  0  0
   60.8496   35.2409   45.9794 H   0  0  0  0  0  0  0  0  0  0  0  0
   59.0913   30.7230   44.4842 H   0  0  0  0  0  0  0  0  0  0  0  0
   58.9929   31.2571   46.1929 H   0  0  0  0  0  0  0  0  0  0  0  0
   59.4698   28.7225   45.6962 H   0  0  0  0  0  0  0  0  0  0  0  0
   58.2300   29.1450   46.9411 H   0  0  0  0  0  0  0  0  0  0  0  0
  1  2  1  0
  2  3  2  0
  2  4  2  0
  2  5  1  0
  5  6  2  0
  6  7  1  0
  7  8  2  0
  8  9  1  0
  9 10  1  0
 10 11  1  0
 11 12  1  0
 12 13  1  0
 13 14  1  0
 14 15  2  0
 15 16  1  0
 16 17  2  0
 17 18  1  0
 17 19  1  0
 19 20  2  0
 20 21  1  0
 12 22  1  0
 22 23  1  0
  8 24  1  0
 24 25  2  0
 25  5  1  0
 23  9  1  0
 20 14  1  0
  1 26  1  0
  6 27  1  0
  7 28  1  0
 10 29  1  0
 10 30  1  0
 11 31  1  0
 11 32  1  0
 13 33  1  0
 13 34  1  0
 15 35  1  0
 16 36  1  0
 19 37  1  0
 22 38  1  0
 22 39  1  0
 23 40  1  0
 23 41  1  0
M  CHG  1   1  -1
M  END
>  <UniqueID>  (77) 
75

>  <SMILES>  (77) 
[NH-]S(=O)(=O)c1ccc(N2CCN(Cc3ccc(F)cc3F)CC2)nn1

>  <Energy>  (77) 
52.24949749056797

>  <Genealogy>  (77) 
[NH-]S(=O)(=O)c1ccc(N2CCN(Cc3ccc(F)cc3F)CC2)nn1 (protonated)
[NH-]S(=O)(=O)c1ccc(N2CCN(Cc3ccc(F)cc3F)CC2)nn1 (3D coordinates assigned)
[NH-]S(=O)(=O)c1ccc(N2CCN(Cc3ccc(F)cc3F)CC2)nn1 (nonaromatic ring conformer: 52.24949749056797 kcal/mol)

>  <smiles>  (77) 
NS(=O)(=O)c1ccc(N2CCN(Cc3ccc(F)cc3F)CC2)nn1

>  <score_type>  (77) 
oracle

>  <origin>  (77) 
adg

>  <m_score__min__energy>  (77) 
-10.41

>  <m_primary>  (77) 
energy

$$$$
78:0
     RDKit          3D

 38 40  0  0  0  0  0  0  0  0999 V2000
   57.0040   30.8630   43.9450 C   0  0  0  0  0  0  0  0  0  0  0  0
   57.7340   30.8090   45.0650 C   0  0  0  0  0  0  0  0  0  0  0  0
   57.9560   31.9030   45.8270 N   0  0  0  0  0  0  0  0  0  0  0  0
   58.6100   31.4500   46.9140 C   0  0  0  0  0  0  0  0  0  0  0  0
   58.7900   30.1200   46.8890 N   0  0  0  0  0  0  0  0  0  0  0  0
   58.2960   29.6890   45.7030 C   0  0  0  0  0  0  0  0  0  0  0  0
   58.3980   28.4090   45.2790 C   0  0  0  0  0  0  0  0  0  0  0  0
   57.5210   27.2990   45.6940 C   0  0  0  0  0  0  0  0  0  0  0  0
   56.1220   27.4080   45.6190 C   0  0  0  0  0  0  0  0  0  0  0  0
   55.5250   28.5850   45.1840 O   0  0  0  0  0  0  0  0  0  0  0  0
   55.3410   26.3540   45.9680 N   0  0  0  0  0  0  0  0  0  0  0  0
   55.8880   25.1800   46.3760 C   0  0  0  0  0  0  0  0  0  0  0  0
   55.1450   24.2180   46.6970 O   0  0  0  0  0  0  0  0  0  0  0  0
   57.2380   25.0420   46.4300 N   0  0  0  0  0  0  0  0  0  0  0  0
   58.0620   26.0670   46.0920 C   0  0  0  0  0  0  0  0  0  0  0  0
   59.3110   25.9020   46.1480 O   0  0  0  0  0  0  0  0  0  0  0  0
   59.5360   29.4050   47.9290 C   0  0  0  0  0  0  0  0  0  0  0  0
   59.3970   30.1500   49.2720 C   0  0  0  0  0  0  0  0  0  0  0  0
   59.5260   31.6070   49.1070 N   0  0  0  0  0  0  0  0  0  0  0  0
   59.1080   32.2480   48.0520 C   0  0  0  0  0  0  0  0  0  0  0  0
   59.2590   33.7140   47.9940 C   0  0  0  0  0  0  0  0  0  0  0  0
   59.8700   34.3110   48.9230 O   0  0  0  0  0  0  0  0  0  0  0  0
   58.7650   34.4340   46.9010 O   0  0  0  0  0  0  0  0  0  0  0  0
   59.5950   34.9870   45.8820 C   0  0  0  0  0  0  0  0  0  0  0  0
   59.2240   34.4130   44.5200 C   0  0  0  0  0  0  0  0  0  0  0  0
   56.8434   29.9527   43.3487 H   0  0  0  0  0  0  0  0  0  0  0  0
   56.5644   31.8177   43.6205 H   0  0  0  0  0  0  0  0  0  0  0  0
   57.6310   32.8760   45.6340 H   0  0  0  0  0  0  0  0  0  0  0  0
   59.2021   28.1767   44.5652 H   0  0  0  0  0  0  0  0  0  0  0  0
   59.1343   28.3862   48.0325 H   0  0  0  0  0  0  0  0  0  0  0  0
   60.5982   29.3558   47.6474 H   0  0  0  0  0  0  0  0  0  0  0  0
   58.4094   29.9268   49.7020 H   0  0  0  0  0  0  0  0  0  0  0  0
   60.2048   29.8092   49.9363 H   0  0  0  0  0  0  0  0  0  0  0  0
   59.4645   36.0791   45.8621 H   0  0  0  0  0  0  0  0  0  0  0  0
   60.6428   34.7337   46.1009 H   0  0  0  0  0  0  0  0  0  0  0  0
   58.6316   33.4964   44.6574 H   0  0  0  0  0  0  0  0  0  0  0  0
   58.6320   35.1517   43.9597 H   0  0  0  0  0  0  0  0  0  0  0  0
   60.1406   34.1766   43.9597 H   0  0  0  0  0  0  0  0  0  0  0  0
  1  2  2  0
  2  3  1  0
  3  4  2  0
  4  5  1  0
  5  6  1  0
  6  7  2  3
  7  8  1  0
  8  9  2  0
  9 10  1  0
  9 11  1  0
 11 12  1  0
 12 13  2  0
 12 14  1  0
 14 15  1  0
 15 16  2  0
  5 17  1  0
 17 18  1  0
 18 19  1  0
 19 20  2  0
 20 21  1  0
 21 22  2  0
 21 23  1  0
 23 24  1  0
 24 25  1  0
  6  2  1  0
 15  8  1  0
 20  4  1  0
  1 26  1  0
  1 27  1  0
  3 28  1  0
  7 29  1  0
 17 30  1  0
 17 31  1  0
 18 32  1  0
 18 33  1  0
 24 34  1  0
 24 35  1  0
 25 36  1  0
 25 37  1  0
 25 38  1  0
M  CHG  4   3   1  10  -1  11  -1  14  -1
M  END
>  <UniqueID>  (78) 
76

>  <SMILES>  (78) 
C=c1[nH+]c2n(c1=Cc1c([O-])[n-]c(=O)[n-]c1=O)CCN=C2C(=O)OCC

>  <Energy>  (78) 
88.35062469102833

>  <Genealogy>  (78) 
C=c1[nH+]c2n(c1=Cc1c([O-])[n-]c(=O)[n-]c1=O)CCN=C2C(=O)OCC (protonated)
C=c1[nH+]c2n(c1=Cc1c([O-])[n-]c(=O)[n-]c1=O)CCN=C2C(=O)OCC (3D coordinates assigned)
C=c1[nH+]c2n(c1=Cc1c([O-])[n-]c(=O)[n-]c1=O)CCN=C2C(=O)OCC (nonaromatic ring conformer: 88.35062469102833 kcal/mol)

>  <smiles>  (78) 
C=c1nc2n(c1=Cc1c(O)[nH]c(=O)[nH]c1=O)CCN=C2C(=O)OCC

>  <score_type>  (78) 
oracle

>  <origin>  (78) 
adg

>  <m_score__min__energy>  (78) 
-13.220000000000001

>  <m_primary>  (78) 
energy

$$$$
79:0
     RDKit          3D

 55 58  0  0  0  0  0  0  0  0999 V2000
   51.3840   32.7660   49.7550 O   0  0  0  0  0  0  0  0  0  0  0  0
   51.5400   32.3080   50.9170 C   0  0  0  0  0  0  0  0  0  0  0  0
   52.6540   31.3400   51.1980 C   0  0  0  0  0  0  0  0  0  0  0  0
   52.4320   30.5650   52.4310 N   0  0  0  0  0  0  0  0  0  0  0  0
   53.4150   29.5790   52.7950 C   0  0  0  0  0  0  0  0  0  0  0  0
   53.0650   28.3720   52.8950 O   0  0  0  0  0  0  0  0  0  0  0  0
   54.8210   29.9510   53.0810 C   0  0  0  0  0  0  0  0  0  0  0  0
   55.5060   29.3830   54.1680 C   0  0  0  0  0  0  0  0  0  0  0  0
   56.8400   29.7150   54.4150 C   0  0  0  0  0  0  0  0  0  0  0  0
   57.5160   30.5860   53.5590 C   0  0  0  0  0  0  0  0  0  0  0  0
   56.8670   31.1280   52.4390 C   0  0  0  0  0  0  0  0  0  0  0  0
   57.5990   31.9930   51.5550 N   0  0  0  0  0  0  0  0  0  0  0  0
   58.2950   31.5370   50.3790 C   0  0  0  0  0  0  0  0  0  0  0  0
   58.2350   30.3250   50.0360 O   0  0  0  0  0  0  0  0  0  0  0  0
   59.1390   32.4710   49.6020 C   0  0  0  0  0  0  0  0  0  0  0  0
   60.4060   32.8570   50.0670 C   0  0  0  0  0  0  0  0  0  0  0  0
   61.1420   33.7820   49.3270 C   0  0  0  0  0  0  0  0  0  0  0  0
   62.2730   34.1620   49.7310 O   0  0  0  0  0  0  0  0  0  0  0  0
   60.6150   34.2860   48.1390 C   0  0  0  0  0  0  0  0  0  0  0  0
   59.3620   33.8330   47.7080 C   0  0  0  0  0  0  0  0  0  0  0  0
   58.7600   34.3240   46.4580 C   0  0  0  0  0  0  0  0  0  0  0  0
   59.2830   35.3160   45.8850 O   0  0  0  0  0  0  0  0  0  0  0  0
   57.5850   33.7330   45.8820 N   0  0  0  0  0  0  0  0  0  0  0  0
   57.5020   33.0870   44.5720 C   0  0  0  0  0  0  0  0  0  0  0  0
   57.4710   31.5890   44.7230 C   0  0  0  0  0  0  0  0  0  0  0  0
   56.7150   30.7920   43.8420 C   0  0  0  0  0  0  0  0  0  0  0  0
   56.7160   29.4000   43.9750 C   0  0  0  0  0  0  0  0  0  0  0  0
   57.4670   28.7940   44.9860 C   0  0  0  0  0  0  0  0  0  0  0  0
   58.2210   29.5780   45.8640 C   0  0  0  0  0  0  0  0  0  0  0  0
   58.2290   30.9700   45.7310 C   0  0  0  0  0  0  0  0  0  0  0  0
   58.6780   32.9680   48.4530 O   0  0  0  0  0  0  0  0  0  0  0  0
   55.5080   30.8290   52.2240 C   0  0  0  0  0  0  0  0  0  0  0  0
   51.2580   30.7820   53.2940 C   0  0  0  0  0  0  0  0  0  0  0  0
   50.8860   32.2600   53.3250 C   0  0  0  0  0  0  0  0  0  0  0  0
   50.6720   32.7310   51.9670 N   0  0  0  0  0  0  0  0  0  0  0  0
   52.7356   30.6413   50.3523 H   0  0  0  0  0  0  0  0  0  0  0  0
   53.5770   31.9232   51.3321 H   0  0  0  0  0  0  0  0  0  0  0  0
   54.9884   28.6722   54.8289 H   0  0  0  0  0  0  0  0  0  0  0  0
   57.3591   29.2890   55.2862 H   0  0  0  0  0  0  0  0  0  0  0  0
   58.5642   30.8493   53.7637 H   0  0  0  0  0  0  0  0  0  0  0  0
   57.7690   32.9740   51.8760 H   0  0  0  0  0  0  0  0  0  0  0  0
   60.8115   32.4370   50.9993 H   0  0  0  0  0  0  0  0  0  0  0  0
   61.1743   35.0275   47.5496 H   0  0  0  0  0  0  0  0  0  0  0  0
   56.5852   33.4184   44.0625 H   0  0  0  0  0  0  0  0  0  0  0  0
   58.3867   33.3665   43.9811 H   0  0  0  0  0  0  0  0  0  0  0  0
   56.1216   31.2661   43.0464 H   0  0  0  0  0  0  0  0  0  0  0  0
   56.1252   28.7814   43.2834 H   0  0  0  0  0  0  0  0  0  0  0  0
   57.4647   27.6990   45.0909 H   0  0  0  0  0  0  0  0  0  0  0  0
   58.8090   29.0992   46.6608 H   0  0  0  0  0  0  0  0  0  0  0  0
   58.8310   31.5826   46.4182 H   0  0  0  0  0  0  0  0  0  0  0  0
   54.9778   31.2874   51.3762 H   0  0  0  0  0  0  0  0  0  0  0  0
   50.4087   30.2028   52.9026 H   0  0  0  0  0  0  0  0  0  0  0  0
   51.5010   30.4541   54.3155 H   0  0  0  0  0  0  0  0  0  0  0  0
   49.9642   32.3945   53.9099 H   0  0  0  0  0  0  0  0  0  0  0  0
   51.7005   32.8349   53.7899 H   0  0  0  0  0  0  0  0  0  0  0  0
  1  2  2  0
  2  3  1  0
  3  4  1  0
  4  5  1  0
  5  6  2  0
  5  7  1  0
  7  8  2  0
  8  9  1  0
  9 10  2  0
 10 11  1  0
 11 12  1  0
 12 13  1  0
 13 14  2  0
 13 15  1  0
 15 16  2  0
 16 17  1  0
 17 18  2  0
 17 19  1  0
 19 20  2  0
 20 21  1  0
 21 22  2  0
 21 23  1  0
 23 24  1  0
 24 25  1  0
 25 26  2  0
 26 27  1  0
 27 28  2  0
 28 29  1  0
 29 30  2  0
 20 31  1  0
 11 32  2  0
  4 33  1  0
 33 34  1  0
 34 35  1  0
 35  2  1  0
 32  7  1  0
 31 15  1  0
 30 25  1  0
  3 36  1  0
  3 37  1  0
  8 38  1  0
  9 39  1  0
 10 40  1  0
 12 41  1  0
 16 42  1  0
 19 43  1  0
 24 44  1  0
 24 45  1  0
 26 46  1  0
 27 47  1  0
 28 48  1  0
 29 49  1  0
 30 50  1  0
 32 51  1  0
 33 52  1  0
 33 53  1  0
 34 54  1  0
 34 55  1  0
M  CHG  2  23  -1  35  -1
M  END
>  <UniqueID>  (79) 
77

>  <SMILES>  (79) 
O=C1CN(C(=O)c2cccc(NC(=O)c3cc(=O)cc(C(=O)[N-]Cc4ccccc4)o3)c2)CC[N-]1

>  <Energy>  (79) 
71.23668596741042

>  <Genealogy>  (79) 
O=C1CN(C(=O)c2cccc(NC(=O)c3cc(=O)cc(C(=O)[N-]Cc4ccccc4)o3)c2)CC[N-]1 (protonated)
O=C1CN(C(=O)c2cccc(NC(=O)c3cc(=O)cc(C(=O)[N-]Cc4ccccc4)o3)c2)CC[N-]1 (3D coordinates assigned)
O=C1CN(C(=O)c2cccc(NC(=O)c3cc(=O)cc(C(=O)[N-]Cc4ccccc4)o3)c2)CC[N-]1 (nonaromatic ring conformer: 71.23668596741042 kcal/mol)

>  <smiles>  (79) 
O=C1CN(C(=O)c2cccc(NC(=O)c3cc(=O)cc(C(=O)NCc4ccccc4)o3)c2)CCN1

>  <score_type>  (79) 
oracle

>  <origin>  (79) 
adg

>  <m_score__min__energy>  (79) 
-14.109999999999999

>  <m_primary>  (79) 
energy

$$$$
80:0
     RDKit          3D

 63 66  0  0  0  0  0  0  0  0999 V2000
   57.6460   27.1300   46.7260 C   0  0  0  0  0  0  0  0  0  0  0  0
   56.9960   27.2800   45.3560 C   0  0  0  0  0  0  0  0  0  0  0  0
   56.3630   28.5540   45.2330 O   0  0  0  0  0  0  0  0  0  0  0  0
   56.7580   29.5920   44.3710 C   0  0  0  0  0  0  0  0  0  0  0  0
   56.2360   29.7220   43.0670 C   0  0  0  0  0  0  0  0  0  0  0  0
   56.6690   30.7560   42.2320 C   0  0  0  0  0  0  0  0  0  0  0  0
   57.6270   31.6640   42.6800 C   0  0  0  0  0  0  0  0  0  0  0  0
   58.1510   31.5490   43.9680 C   0  0  0  0  0  0  0  0  0  0  0  0
   57.7040   30.5340   44.8310 C   0  0  0  0  0  0  0  0  0  0  0  0
   58.2910   30.4270   46.2150 C   0  0  0  0  0  0  0  0  0  0  0  0
   59.6080   29.7980   46.1570 N   0  0  0  0  0  0  0  0  0  0  0  0
   60.2660   29.1890   47.2740 C   0  0  0  0  0  0  0  0  0  0  0  0
   60.6870   28.0080   47.1640 O   0  0  0  0  0  0  0  0  0  0  0  0
   60.3930   29.8820   48.5680 C   0  0  0  0  0  0  0  0  0  0  0  0
   61.5950   30.5320   48.8830 C   0  0  0  0  0  0  0  0  0  0  0  0
   61.7810   31.1150   50.1410 C   0  0  0  0  0  0  0  0  0  0  0  0
   63.3360   31.8470   50.5640 S   0  0  0  0  0  0  0  0  0  0  0  0
   64.3890   30.7770   50.4790 O   0  0  0  0  0  0  0  0  0  0  0  0
   63.2700   32.2990   51.9960 O   0  0  0  0  0  0  0  0  0  0  0  0
   63.8120   33.1770   49.5070 N   0  0  0  0  0  0  0  0  0  0  0  0
   63.8160   32.8110   48.0650 C   0  0  0  0  0  0  0  0  0  0  0  0
   62.7040   33.4720   47.2210 C   0  0  0  0  0  0  0  0  0  0  0  0
   61.4890   33.7510   47.9980 N   0  0  0  0  0  0  0  0  0  0  0  0
   60.2040   33.7940   47.3330 C   0  0  0  0  0  0  0  0  0  0  0  0
   60.0790   34.3440   46.0420 C   0  0  0  0  0  0  0  0  0  0  0  0
   58.8340   34.3970   45.4100 C   0  0  0  0  0  0  0  0  0  0  0  0
   57.7010   33.8910   46.0490 C   0  0  0  0  0  0  0  0  0  0  0  0
   57.8070   33.3530   47.3310 C   0  0  0  0  0  0  0  0  0  0  0  0
   59.0460   33.3140   47.9770 C   0  0  0  0  0  0  0  0  0  0  0  0
   61.6090   34.3390   49.3380 C   0  0  0  0  0  0  0  0  0  0  0  0
   63.0710   34.4210   49.7900 C   0  0  0  0  0  0  0  0  0  0  0  0
   60.7290   31.0990   51.0680 C   0  0  0  0  0  0  0  0  0  0  0  0
   59.5100   30.5020   50.7400 C   0  0  0  0  0  0  0  0  0  0  0  0
   59.3380   29.8940   49.4930 C   0  0  0  0  0  0  0  0  0  0  0  0
   58.1330   29.3520   49.1790 F   0  0  0  0  0  0  0  0  0  0  0  0
   56.8939   27.3036   47.5097 H   0  0  0  0  0  0  0  0  0  0  0  0
   58.0547   26.1139   46.8287 H   0  0  0  0  0  0  0  0  0  0  0  0
   58.4586   27.8642   46.8287 H   0  0  0  0  0  0  0  0  0  0  0  0
   57.7677   27.1839   44.5780 H   0  0  0  0  0  0  0  0  0  0  0  0
   56.2347   26.4947   45.2385 H   0  0  0  0  0  0  0  0  0  0  0  0
   55.4838   29.0055   42.7051 H   0  0  0  0  0  0  0  0  0  0  0  0
   56.2526   30.8534   41.2185 H   0  0  0  0  0  0  0  0  0  0  0  0
   57.9703   32.4721   42.0174 H   0  0  0  0  0  0  0  0  0  0  0  0
   58.9194   32.2578   44.3103 H   0  0  0  0  0  0  0  0  0  0  0  0
   58.3879   31.4338   46.6474 H   0  0  0  0  0  0  0  0  0  0  0  0
   57.6268   29.8121   46.8401 H   0  0  0  0  0  0  0  0  0  0  0  0
   62.3990   30.5839   48.1341 H   0  0  0  0  0  0  0  0  0  0  0  0
   64.8060   33.3790   49.7680 H   0  0  0  0  0  0  0  0  0  0  0  0
   64.7872   33.1057   47.6408 H   0  0  0  0  0  0  0  0  0  0  0  0
   63.6316   31.7274   48.0222 H   0  0  0  0  0  0  0  0  0  0  0  0
   63.0872   34.4200   46.8155 H   0  0  0  0  0  0  0  0  0  0  0  0
   62.4314   32.7668   46.4220 H   0  0  0  0  0  0  0  0  0  0  0  0
   60.9690   34.7350   45.5272 H   0  0  0  0  0  0  0  0  0  0  0  0
   58.7466   34.8386   44.4063 H   0  0  0  0  0  0  0  0  0  0  0  0
   56.7253   33.9166   45.5417 H   0  0  0  0  0  0  0  0  0  0  0  0
   56.9129   32.9581   47.8356 H   0  0  0  0  0  0  0  0  0  0  0  0
   59.1177   32.9055   48.9958 H   0  0  0  0  0  0  0  0  0  0  0  0
   61.1830   35.3530   49.3222 H   0  0  0  0  0  0  0  0  0  0  0  0
   61.0660   33.6953   50.0457 H   0  0  0  0  0  0  0  0  0  0  0  0
   63.5594   35.2525   49.2608 H   0  0  0  0  0  0  0  0  0  0  0  0
   63.0798   34.5793   50.8785 H   0  0  0  0  0  0  0  0  0  0  0  0
   60.8646   31.5588   52.0580 H   0  0  0  0  0  0  0  0  0  0  0  0
   58.6827   30.5102   51.4649 H   0  0  0  0  0  0  0  0  0  0  0  0
  1  2  1  0
  2  3  1  0
  3  4  1  0
  4  5  2  0
  5  6  1  0
  6  7  2  0
  7  8  1  0
  8  9  2  0
  9 10  1  0
 10 11  1  0
 11 12  1  0
 12 13  2  0
 12 14  1  0
 14 15  2  0
 15 16  1  0
 16 17  1  0
 17 18  2  0
 17 19  2  0
 17 20  1  0
 20 21  1  0
 21 22  1  0
 22 23  1  0
 23 24  1  0
 24 25  2  0
 25 26  1  0
 26 27  2  0
 27 28  1  0
 28 29  2  0
 23 30  1  0
 30 31  1  0
 16 32  2  0
 32 33  1  0
 33 34  2  0
 34 35  1  0
  9  4  1  0
 34 14  1  0
 31 20  1  0
 29 24  1  0
  1 36  1  0
  1 37  1  0
  1 38  1  0
  2 39  1  0
  2 40  1  0
  5 41  1  0
  6 42  1  0
  7 43  1  0
  8 44  1  0
 10 45  1  0
 10 46  1  0
 15 47  1  0
 20 48  1  0
 21 49  1  0
 21 50  1  0
 22 51  1  0
 22 52  1  0
 25 53  1  0
 26 54  1  0
 27 55  1  0
 28 56  1  0
 29 57  1  0
 30 58  1  0
 30 59  1  0
 31 60  1  0
 31 61  1  0
 32 62  1  0
 33 63  1  0
M  CHG  2  11  -1  20   1
M  END
>  <UniqueID>  (80) 
78

>  <SMILES>  (80) 
CCOc1ccccc1C[N-]C(=O)c1cc(S(=O)(=O)[NH+]2CCN(c3ccccc3)CC2)ccc1F

>  <Energy>  (80) 
78.05396029989832

>  <Genealogy>  (80) 
CCOc1ccccc1C[N-]C(=O)c1cc(S(=O)(=O)[NH+]2CCN(c3ccccc3)CC2)ccc1F (protonated)
CCOc1ccccc1C[N-]C(=O)c1cc(S(=O)(=O)[NH+]2CCN(c3ccccc3)CC2)ccc1F (3D coordinates assigned)
CCOc1ccccc1C[N-]C(=O)c1cc(S(=O)(=O)[NH+]2CCN(c3ccccc3)CC2)ccc1F (nonaromatic ring conformer: 78.05396029989832 kcal/mol)

>  <smiles>  (80) 
CCOc1ccccc1CNC(=O)c1cc(S(=O)(=O)N2CCN(c3ccccc3)CC2)ccc1F

>  <score_type>  (80) 
oracle

>  <origin>  (80) 
adg

>  <m_score__min__energy>  (80) 
-9.8100000000000005

>  <m_primary>  (80) 
energy

$$$$
81:0
     RDKit          3D

 62 65  0  0  0  0  0  0  0  0999 V2000
   54.9530   24.4460   45.4950 C   0  0  0  0  0  0  0  0  0  0  0  0
   55.5320   24.8870   46.7600 N   0  0  0  0  0  0  0  0  0  0  0  0
   57.1270   24.2220   46.9310 S   0  0  0  0  0  0  0  0  0  0  0  0
   57.0890   23.0780   47.9060 O   0  0  0  0  0  0  0  0  0  0  0  0
   57.6050   23.7300   45.5940 O   0  0  0  0  0  0  0  0  0  0  0  0
   58.1950   25.4730   47.5070 N   0  0  0  0  0  0  0  0  0  0  0  0
   59.1290   25.9080   46.4630 C   0  0  0  0  0  0  0  0  0  0  0  0
   58.6090   27.1250   45.7480 C   0  0  0  0  0  0  0  0  0  0  0  0
   57.2270   27.3340   45.6280 C   0  0  0  0  0  0  0  0  0  0  0  0
   56.7400   28.5330   45.1080 C   0  0  0  0  0  0  0  0  0  0  0  0
   57.6270   29.5320   44.6790 C   0  0  0  0  0  0  0  0  0  0  0  0
   57.1000   30.8430   44.2600 C   0  0  0  0  0  0  0  0  0  0  0  0
   56.8450   31.0630   43.0460 O   0  0  0  0  0  0  0  0  0  0  0  0
   56.8600   31.8670   45.2320 N   0  0  0  0  0  0  0  0  0  0  0  0
   57.8340   32.8830   45.5010 C   0  0  0  0  0  0  0  0  0  0  0  0
   58.4100   33.6060   44.4460 C   0  0  0  0  0  0  0  0  0  0  0  0
   59.3980   34.5590   44.7030 C   0  0  0  0  0  0  0  0  0  0  0  0
   59.8430   34.7690   46.0110 C   0  0  0  0  0  0  0  0  0  0  0  0
   59.3010   34.0240   47.0700 C   0  0  0  0  0  0  0  0  0  0  0  0
   59.8470   34.1750   48.4340 C   0  0  0  0  0  0  0  0  0  0  0  0
   59.2840   34.9750   49.2330 O   0  0  0  0  0  0  0  0  0  0  0  0
   61.0230   33.4540   48.8550 N   0  0  0  0  0  0  0  0  0  0  0  0
   61.1650   33.0050   50.2460 C   0  0  0  0  0  0  0  0  0  0  0  0
   62.5410   33.3970   50.7800 C   0  0  0  0  0  0  0  0  0  0  0  0
   63.5790   32.9870   49.8290 N   0  0  0  0  0  0  0  0  0  0  0  0
   64.8060   32.3960   50.2980 C   0  0  0  0  0  0  0  0  0  0  0  0
   64.7970   31.1530   50.9530 C   0  0  0  0  0  0  0  0  0  0  0  0
   65.9920   30.5870   51.4100 C   0  0  0  0  0  0  0  0  0  0  0  0
   67.2020   31.2580   51.2200 C   0  0  0  0  0  0  0  0  0  0  0  0
   67.2200   32.4960   50.5730 C   0  0  0  0  0  0  0  0  0  0  0  0
   66.0290   33.0640   50.1120 C   0  0  0  0  0  0  0  0  0  0  0  0
   63.4490   33.4330   48.4370 C   0  0  0  0  0  0  0  0  0  0  0  0
   62.0650   33.0630   47.8960 C   0  0  0  0  0  0  0  0  0  0  0  0
   58.2670   33.1080   46.8130 C   0  0  0  0  0  0  0  0  0  0  0  0
   59.0090   29.3010   44.7380 C   0  0  0  0  0  0  0  0  0  0  0  0
   59.4980   28.1090   45.2830 C   0  0  0  0  0  0  0  0  0  0  0  0
   54.0924   23.7905   45.6944 H   0  0  0  0  0  0  0  0  0  0  0  0
   54.6209   25.3220   44.9186 H   0  0  0  0  0  0  0  0  0  0  0  0
   55.7093   23.8930   44.9186 H   0  0  0  0  0  0  0  0  0  0  0  0
   60.0980   26.1486   46.9247 H   0  0  0  0  0  0  0  0  0  0  0  0
   59.2421   25.0936   45.7322 H   0  0  0  0  0  0  0  0  0  0  0  0
   56.5247   26.5491   45.9453 H   0  0  0  0  0  0  0  0  0  0  0  0
   55.6547   28.6964   45.0338 H   0  0  0  0  0  0  0  0  0  0  0  0
   58.0823   33.4216   43.4123 H   0  0  0  0  0  0  0  0  0  0  0  0
   59.8259   35.1444   43.8758 H   0  0  0  0  0  0  0  0  0  0  0  0
   60.6207   35.5207   46.2113 H   0  0  0  0  0  0  0  0  0  0  0  0
   60.3862   33.4769   50.8630 H   0  0  0  0  0  0  0  0  0  0  0  0
   61.0587   31.9109   50.2864 H   0  0  0  0  0  0  0  0  0  0  0  0
   62.5821   34.4876   50.9175 H   0  0  0  0  0  0  0  0  0  0  0  0
   62.7128   32.8948   51.7435 H   0  0  0  0  0  0  0  0  0  0  0  0
   63.8459   30.6224   51.1072 H   0  0  0  0  0  0  0  0  0  0  0  0
   65.9785   29.6123   51.9196 H   0  0  0  0  0  0  0  0  0  0  0  0
   68.1408   30.8117   51.5798 H   0  0  0  0  0  0  0  0  0  0  0  0
   68.1733   33.0248   50.4261 H   0  0  0  0  0  0  0  0  0  0  0  0
   66.0487   34.0381   49.6013 H   0  0  0  0  0  0  0  0  0  0  0  0
   63.5786   34.5243   48.3905 H   0  0  0  0  0  0  0  0  0  0  0  0
   64.2194   32.9397   47.8262 H   0  0  0  0  0  0  0  0  0  0  0  0
   61.8960   33.5857   46.9430 H   0  0  0  0  0  0  0  0  0  0  0  0
   62.0197   31.9749   47.7414 H   0  0  0  0  0  0  0  0  0  0  0  0
   57.7959   32.5656   47.6460 H   0  0  0  0  0  0  0  0  0  0  0  0
   59.7093   30.0580   44.3553 H   0  0  0  0  0  0  0  0  0  0  0  0
   60.5832   27.9412   45.3478 H   0  0  0  0  0  0  0  0  0  0  0  0
  1  2  1  0
  2  3  1  0
  3  4  2  0
  3  5  2  0
  3  6  1  0
  6  7  1  0
  7  8  1  0
  8  9  2  0
  9 10  1  0
 10 11  2  0
 11 12  1  0
 12 13  2  0
 12 14  1  0
 14 15  1  0
 15 16  2  0
 16 17  1  0
 17 18  2  0
 18 19  1  0
 19 20  1  0
 20 21  2  0
 20 22  1  0
 22 23  1  0
 23 24  1  0
 24 25  1  0
 25 26  1  0
 26 27  2  0
 27 28  1  0
 28 29  2  0
 29 30  1  0
 30 31  2  0
 25 32  1  0
 32 33  1  0
 19 34  2  0
 11 35  1  0
 35 36  2  0
 36  8  1  0
 34 15  1  0
 33 22  1  0
 31 26  1  0
  1 37  1  0
  1 38  1  0
  1 39  1  0
  7 40  1  0
  7 41  1  0
  9 42  1  0
 10 43  1  0
 16 44  1  0
 17 45  1  0
 18 46  1  0
 23 47  1  0
 23 48  1  0
 24 49  1  0
 24 50  1  0
 27 51  1  0
 28 52  1  0
 29 53  1  0
 30 54  1  0
 31 55  1  0
 32 56  1  0
 32 57  1  0
 33 58  1  0
 33 59  1  0
 34 60  1  0
 35 61  1  0
 36 62  1  0
M  CHG  3   2  -1   6  -1  14  -1
M  END
>  <UniqueID>  (81) 
79

>  <SMILES>  (81) 
C[N-]S(=O)(=O)[N-]Cc1ccc(C(=O)[N-]c2cccc(C(=O)N3CCN(c4ccccc4)CC3)c2)cc1

>  <Energy>  (81) 
76.91695726030282

>  <Genealogy>  (81) 
C[N-]S(=O)(=O)[N-]Cc1ccc(C(=O)[N-]c2cccc(C(=O)N3CCN(c4ccccc4)CC3)c2)cc1 (protonated)
C[N-]S(=O)(=O)[N-]Cc1ccc(C(=O)[N-]c2cccc(C(=O)N3CCN(c4ccccc4)CC3)c2)cc1 (3D coordinates assigned)
C[N-]S(=O)(=O)[N-]Cc1ccc(C(=O)[N-]c2cccc(C(=O)N3CCN(c4ccccc4)CC3)c2)cc1 (nonaromatic ring conformer: 76.91695726030282 kcal/mol)

>  <smiles>  (81) 
CNS(=O)(=O)NCc1ccc(C(=O)Nc2cccc(C(=O)N3CCN(c4ccccc4)CC3)c2)cc1

>  <score_type>  (81) 
oracle

>  <origin>  (81) 
adg

>  <m_score__min__energy>  (81) 
-14.75

>  <m_primary>  (81) 
energy

$$$$
82:0
     RDKit          3D

 65 69  0  0  0  0  0  0  0  0999 V2000
   59.0680   29.5470   48.9730 C   0  0  0  0  0  0  0  0  0  0  0  0
   59.9800   28.1320   48.3910 S   0  0  0  0  0  0  0  0  0  0  0  0
   60.7540   28.5270   47.1660 O   0  0  0  0  0  0  0  0  0  0  0  0
   60.9430   27.6810   49.4530 O   0  0  0  0  0  0  0  0  0  0  0  0
   58.9010   26.8360   47.9740 N   0  0  0  0  0  0  0  0  0  0  0  0
   57.7370   27.3570   47.2630 C   0  0  0  0  0  0  0  0  0  0  0  0
   57.3150   26.3680   46.2210 C   0  0  0  0  0  0  0  0  0  0  0  0
   56.4450   25.3700   46.4770 N   0  0  0  0  0  0  0  0  0  0  0  0
   56.3010   24.7400   45.2930 C   0  0  0  0  0  0  0  0  0  0  0  0
   57.0760   25.3610   44.3410 C   0  0  0  0  0  0  0  0  0  0  0  0
   57.7100   26.3910   44.9270 N   0  0  0  0  0  0  0  0  0  0  0  0
   58.6760   27.2830   44.2800 C   0  0  0  0  0  0  0  0  0  0  0  0
   58.0970   28.6650   44.1580 C   0  0  0  0  0  0  0  0  0  0  0  0
   57.1190   28.9430   43.1910 C   0  0  0  0  0  0  0  0  0  0  0  0
   56.5450   30.2130   43.1160 C   0  0  0  0  0  0  0  0  0  0  0  0
   56.9260   31.2100   44.0170 C   0  0  0  0  0  0  0  0  0  0  0  0
   57.8840   30.9440   45.0100 C   0  0  0  0  0  0  0  0  0  0  0  0
   58.2800   32.0030   45.9670 C   0  0  0  0  0  0  0  0  0  0  0  0
   57.3830   32.6440   46.5800 O   0  0  0  0  0  0  0  0  0  0  0  0
   59.6630   32.3200   46.2170 N   0  0  0  0  0  0  0  0  0  0  0  0
   60.0490   33.7270   46.3870 C   0  0  0  0  0  0  0  0  0  0  0  0
   61.5130   33.8740   46.8270 C   0  0  0  0  0  0  0  0  0  0  0  0
   61.9440   32.8600   47.9140 C   0  0  0  0  0  0  0  0  0  0  0  0
   61.6580   33.3730   49.2760 N   0  0  0  0  0  0  0  0  0  0  0  0
   60.2530   33.6460   49.6380 C   0  0  0  0  0  0  0  0  0  0  0  0
   59.9880   33.5640   51.1240 C   0  0  0  0  0  0  0  0  0  0  0  0
   58.6670   33.4450   51.5870 C   0  0  0  0  0  0  0  0  0  0  0  0
   58.3960   33.4590   52.9580 C   0  0  0  0  0  0  0  0  0  0  0  0
   59.4390   33.6060   53.8760 C   0  0  0  0  0  0  0  0  0  0  0  0
   60.7550   33.7350   53.4250 C   0  0  0  0  0  0  0  0  0  0  0  0
   61.0320   33.7150   52.0530 C   0  0  0  0  0  0  0  0  0  0  0  0
   62.3780   33.8460   51.6030 N   0  0  0  0  0  0  0  0  0  0  0  0
   62.7010   33.6890   50.2260 C   0  0  0  0  0  0  0  0  0  0  0  0
   63.8980   33.8310   49.8630 O   0  0  0  0  0  0  0  0  0  0  0  0
   61.4080   31.4180   47.6990 C   0  0  0  0  0  0  0  0  0  0  0  0
   60.6620   31.2540   46.3710 C   0  0  0  0  0  0  0  0  0  0  0  0
   58.4760   29.6700   45.0640 C   0  0  0  0  0  0  0  0  0  0  0  0
   59.0638   29.5535   50.0730 H   0  0  0  0  0  0  0  0  0  0  0  0
   59.5434   30.4673   48.6027 H   0  0  0  0  0  0  0  0  0  0  0  0
   58.0335   29.4941   48.6027 H   0  0  0  0  0  0  0  0  0  0  0  0
   56.9128   27.5173   47.9737 H   0  0  0  0  0  0  0  0  0  0  0  0
   57.9935   28.3132   46.7835 H   0  0  0  0  0  0  0  0  0  0  0  0
   55.6611   23.8630   45.1156 H   0  0  0  0  0  0  0  0  0  0  0  0
   57.1618   25.0661   43.2848 H   0  0  0  0  0  0  0  0  0  0  0  0
   59.5946   27.3247   44.8837 H   0  0  0  0  0  0  0  0  0  0  0  0
   58.9071   26.8981   43.2758 H   0  0  0  0  0  0  0  0  0  0  0  0
   56.8034   28.1569   42.4893 H   0  0  0  0  0  0  0  0  0  0  0  0
   55.7906   30.4293   42.3453 H   0  0  0  0  0  0  0  0  0  0  0  0
   56.4731   32.2101   43.9488 H   0  0  0  0  0  0  0  0  0  0  0  0
   59.9119   34.2508   45.4295 H   0  0  0  0  0  0  0  0  0  0  0  0
   59.4133   34.1606   47.1731 H   0  0  0  0  0  0  0  0  0  0  0  0
   62.1558   33.7318   45.9458 H   0  0  0  0  0  0  0  0  0  0  0  0
   61.6161   34.8772   47.2662 H   0  0  0  0  0  0  0  0  0  0  0  0
   63.0348   32.7629   47.8104 H   0  0  0  0  0  0  0  0  0  0  0  0
   59.9947   34.6581   49.2933 H   0  0  0  0  0  0  0  0  0  0  0  0
   59.6377   32.8722   49.1557 H   0  0  0  0  0  0  0  0  0  0  0  0
   57.8420   33.3403   50.8670 H   0  0  0  0  0  0  0  0  0  0  0  0
   57.3607   33.3542   53.3146 H   0  0  0  0  0  0  0  0  0  0  0  0
   59.2238   33.6202   54.9547 H   0  0  0  0  0  0  0  0  0  0  0  0
   61.5747   33.8525   54.1491 H   0  0  0  0  0  0  0  0  0  0  0  0
   62.2589   30.7211   47.7125 H   0  0  0  0  0  0  0  0  0  0  0  0
   60.6940   31.2059   48.5084 H   0  0  0  0  0  0  0  0  0  0  0  0
   61.3816   31.3073   45.5407 H   0  0  0  0  0  0  0  0  0  0  0  0
   60.1520   30.2794   46.3630 H   0  0  0  0  0  0  0  0  0  0  0  0
   59.2434   29.4578   45.8230 H   0  0  0  0  0  0  0  0  0  0  0  0
  1  2  1  0
  2  3  2  0
  2  4  2  0
  2  5  1  0
  5  6  1  0
  6  7  1  0
  7  8  2  0
  8  9  1  0
  9 10  2  0
 10 11  1  0
 11 12  1  0
 12 13  1  0
 13 14  2  0
 14 15  1  0
 15 16  2  0
 16 17  1  0
 17 18  1  0
 18 19  2  0
 18 20  1  0
 20 21  1  0
 21 22  1  0
 22 23  1  0
 23 24  1  0
 24 25  1  0
 25 26  1  0
 26 27  2  0
 27 28  1  0
 28 29  2  0
 29 30  1  0
 30 31  2  0
 31 32  1  0
 32 33  1  0
 33 34  2  0
 23 35  1  0
 35 36  1  0
 17 37  2  0
 11  7  1  0
 37 13  1  0
 36 20  1  0
 33 24  1  0
 31 26  1  0
  1 38  1  0
  1 39  1  0
  1 40  1  0
  6 41  1  0
  6 42  1  0
  9 43  1  0
 10 44  1  0
 12 45  1  0
 12 46  1  0
 14 47  1  0
 15 48  1  0
 16 49  1  0
 21 50  1  0
 21 51  1  0
 22 52  1  0
 22 53  1  0
 23 54  1  0
 25 55  1  0
 25 56  1  0
 27 57  1  0
 28 58  1  0
 29 59  1  0
 30 60  1  0
 35 61  1  0
 35 62  1  0
 36 63  1  0
 36 64  1  0
 37 65  1  0
M  CHG  2   5  -1  32  -1
M  END
>  <UniqueID>  (82) 
80

>  <SMILES>  (82) 
CS(=O)(=O)[N-]Cc1nccn1Cc1cccc(C(=O)N2CCC(N3Cc4ccccc4[N-]C3=O)CC2)c1

>  <Energy>  (82) 
101.67756887702801

>  <Genealogy>  (82) 
CS(=O)(=O)[N-]Cc1nccn1Cc1cccc(C(=O)N2CCC(N3Cc4ccccc4[N-]C3=O)CC2)c1 (protonated)
CS(=O)(=O)[N-]Cc1nccn1Cc1cccc(C(=O)N2CCC(N3Cc4ccccc4[N-]C3=O)CC2)c1 (3D coordinates assigned)
CS(=O)(=O)[N-]Cc1nccn1Cc1cccc(C(=O)N2CCC(N3Cc4ccccc4[N-]C3=O)CC2)c1 (nonaromatic ring conformer: 101.67756887702801 kcal/mol)

>  <smiles>  (82) 
CS(=O)(=O)NCc1nccn1Cc1cccc(C(=O)N2CCC(N3Cc4ccccc4NC3=O)CC2)c1

>  <score_type>  (82) 
oracle

>  <origin>  (82) 
adg

>  <m_score__min__energy>  (82) 
-12.73

>  <m_primary>  (82) 
energy

$$$$
