0:0
     RDKit          3D

 46 48  0  0  0  0  0  0  0  0999 V2000
   51.5890   21.5870   46.0440 C   0  0  0  0  0  0  0  0  0  0  0  0
   51.3660   23.2210   45.2750 S   0  0  0  0  0  0  0  0  0  0  0  0
   53.1140   23.6010   45.3050 C   0  0  0  0  0  0  0  0  0  0  0  0
   54.0220   22.6310   45.0360 N   0  0  0  0  0  0  0  0  0  0  0  0
   55.3530   22.8960   45.0540 C   0  0  0  0  0  0  0  0  0  0  0  0
   55.8190   24.1860   45.3560 C   0  0  0  0  0  0  0  0  0  0  0  0
   57.2810   24.4620   45.3770 C   0  0  0  0  0  0  0  0  0  0  0  0
   58.0470   23.7230   46.0540 O   0  0  0  0  0  0  0  0  0  0  0  0
   57.8370   25.5290   44.5980 N   0  0  0  0  0  0  0  0  0  0  0  0
   58.3560   26.7590   45.1190 C   0  0  0  0  0  0  0  0  0  0  0  0
   57.7610   27.9610   44.7150 C   0  0  0  0  0  0  0  0  0  0  0  0
   58.2260   29.1890   45.2050 C   0  0  0  0  0  0  0  0  0  0  0  0
   57.4850   30.7040   44.6960 S   0  0  0  0  0  0  0  0  0  0  0  0
   58.0720   31.1040   43.3710 O   0  0  0  0  0  0  0  0  0  0  0  0
   56.0000   30.5280   44.5330 O   0  0  0  0  0  0  0  0  0  0  0  0
   57.8050   31.9390   45.8890 N   0  0  0  0  0  0  0  0  0  0  0  0
   56.9920   33.1550   45.6310 C   0  0  0  0  0  0  0  0  0  0  0  0
   57.7950   34.2890   44.9770 C   0  0  0  0  0  0  0  0  0  0  0  0
   58.9950   34.6950   45.8490 C   0  0  0  0  0  0  0  0  0  0  0  0
   59.5660   33.5180   46.6600 C   0  0  0  0  0  0  0  0  0  0  0  0
   59.2630   32.1810   45.9780 C   0  0  0  0  0  0  0  0  0  0  0  0
   59.2820   29.2120   46.1230 C   0  0  0  0  0  0  0  0  0  0  0  0
   59.8610   28.0180   46.5580 C   0  0  0  0  0  0  0  0  0  0  0  0
   59.3950   26.7870   46.0740 C   0  0  0  0  0  0  0  0  0  0  0  0
   59.9370   25.6000   46.5660 O   0  0  0  0  0  0  0  0  0  0  0  0
   54.8490   25.1730   45.6380 C   0  0  0  0  0  0  0  0  0  0  0  0
   55.1840   26.3530   45.9250 O   0  0  0  0  0  0  0  0  0  0  0  0
   53.5300   24.8560   45.6040 N   0  0  0  0  0  0  0  0  0  0  0  0
   51.5747   21.6920   47.1389 H   0  0  0  0  0  0  0  0  0  0  0  0
   50.7737   20.9192   45.7290 H   0  0  0  0  0  0  0  0  0  0  0  0
   52.5535   21.1621   45.7290 H   0  0  0  0  0  0  0  0  0  0  0  0
   56.0722   22.0943   44.8304 H   0  0  0  0  0  0  0  0  0  0  0  0
   56.9203   27.9409   44.0060 H   0  0  0  0  0  0  0  0  0  0  0  0
   56.1603   32.8850   44.9636 H   0  0  0  0  0  0  0  0  0  0  0  0
   56.6360   33.5241   46.6042 H   0  0  0  0  0  0  0  0  0  0  0  0
   58.1619   33.9500   43.9970 H   0  0  0  0  0  0  0  0  0  0  0  0
   57.1357   35.1621   44.8633 H   0  0  0  0  0  0  0  0  0  0  0  0
   59.7873   35.0892   45.1956 H   0  0  0  0  0  0  0  0  0  0  0  0
   58.6437   35.4523   46.5653 H   0  0  0  0  0  0  0  0  0  0  0  0
   60.6559   33.6376   46.7482 H   0  0  0  0  0  0  0  0  0  0  0  0
   59.0957   33.5178   47.6544 H   0  0  0  0  0  0  0  0  0  0  0  0
   59.6866   32.1928   44.9629 H   0  0  0  0  0  0  0  0  0  0  0  0
   59.7118   31.3761   46.5785 H   0  0  0  0  0  0  0  0  0  0  0  0
   59.6572   30.1736   46.5031 H   0  0  0  0  0  0  0  0  0  0  0  0
   60.6869   28.0432   47.2841 H   0  0  0  0  0  0  0  0  0  0  0  0
   59.5760   24.6950   46.2890 H   0  0  0  0  0  0  0  0  0  0  0  0
  1  2  1  0
  2  3  1  0
  3  4  2  0
  4  5  1  0
  5  6  2  0
  6  7  1  0
  7  8  2  0
  7  9  1  0
  9 10  1  0
 10 11  2  0
 11 12  1  0
 12 13  1  0
 13 14  2  0
 13 15  2  0
 13 16  1  0
 16 17  1  0
 17 18  1  0
 18 19  1  0
 19 20  1  0
 20 21  1  0
 12 22  2  0
 22 23  1  0
 23 24  2  0
 24 25  1  0
  6 26  1  0
 26 27  2  0
 26 28  1  0
 28  3  1  0
 24 10  1  0
 21 16  1  0
  1 29  1  0
  1 30  1  0
  1 31  1  0
  5 32  1  0
 11 33  1  0
 17 34  1  0
 17 35  1  0
 18 36  1  0
 18 37  1  0
 19 38  1  0
 19 39  1  0
 20 40  1  0
 20 41  1  0
 21 42  1  0
 21 43  1  0
 22 44  1  0
 23 45  1  0
 25 46  1  0
M  CHG  2   9  -1  28  -1
M  END
>  <UniqueID>  (1) 
1

>  <SMILES>  (1) 
CSc1ncc(C(=O)[N-]c2cc(S(=O)(=O)N3CCCCC3)ccc2O)c(=O)[n-]1

>  <Energy>  (1) 
57.43887733099952

>  <Genealogy>  (1) 
CSc1ncc(C(=O)[N-]c2cc(S(=O)(=O)N3CCCCC3)ccc2O)c(=O)[n-]1 (protonated)
CSc1ncc(C(=O)[N-]c2cc(S(=O)(=O)N3CCCCC3)ccc2O)c(=O)[n-]1 (3D coordinates assigned)
CSc1ncc(C(=O)[N-]c2cc(S(=O)(=O)N3CCCCC3)ccc2O)c(=O)[n-]1 (nonaromatic ring conformer: 57.43887733099952 kcal/mol)

>  <smiles>  (1) 
CSc1ncc(C(=O)Nc2cc(S(=O)(=O)N3CCCCC3)ccc2O)c(=O)[nH]1

>  <score_type>  (1) 
oracle

>  <origin>  (1) 
adg

>  <m_score__min__energy>  (1) 
-12.34

>  <m_primary>  (1) 
energy

$$$$
1:0
     RDKit          3D

 46 49  0  0  0  0  0  0  0  0999 V2000
   58.3370   27.2840   43.3750 C   0  0  0  0  0  0  0  0  0  0  0  0
   58.2140   27.2740   44.7120 C   0  0  0  0  0  0  0  0  0  0  0  0
   57.8100   26.1940   45.5150 C   0  0  0  0  0  0  0  0  0  0  0  0
   57.3120   24.9830   45.1920 C   0  0  0  0  0  0  0  0  0  0  0  0
   55.9000   24.5850   45.2680 C   0  0  0  0  0  0  0  0  0  0  0  0
   55.4750   23.3190   45.1120 N   0  0  0  0  0  0  0  0  0  0  0  0
   54.1550   23.3970   45.3910 C   0  0  0  0  0  0  0  0  0  0  0  0
   53.3920   22.3980   45.3360 O   0  0  0  0  0  0  0  0  0  0  0  0
   53.7200   24.6260   45.7430 N   0  0  0  0  0  0  0  0  0  0  0  0
   54.8400   25.3640   45.6750 C   0  0  0  0  0  0  0  0  0  0  0  0
   54.8970   26.7130   46.0040 O   0  0  0  0  0  0  0  0  0  0  0  0
   57.9910   26.5970   46.8260 C   0  0  0  0  0  0  0  0  0  0  0  0
   58.4390   27.8990   46.7890 C   0  0  0  0  0  0  0  0  0  0  0  0
   58.6600   28.7480   48.0050 C   0  0  0  0  0  0  0  0  0  0  0  0
   58.5760   28.3180   45.5080 N   0  0  0  0  0  0  0  0  0  0  0  0
   59.0910   29.6310   45.0810 C   0  0  0  0  0  0  0  0  0  0  0  0
   59.9480   30.2870   46.1750 C   0  0  0  0  0  0  0  0  0  0  0  0
   59.2950   31.4800   46.7220 N   0  0  0  0  0  0  0  0  0  0  0  0
   58.6310   32.4480   46.0590 C   0  0  0  0  0  0  0  0  0  0  0  0
   58.4810   32.5530   44.5690 C   0  0  0  0  0  0  0  0  0  0  0  0
   57.4190   31.6140   44.0910 C   0  0  0  0  0  0  0  0  0  0  0  0
   56.6560   30.9330   44.8880 N   0  0  0  0  0  0  0  0  0  0  0  0
   55.8390   30.1260   44.0370 C   0  0  0  0  0  0  0  0  0  0  0  0
   54.9650   29.3320   44.4730 O   0  0  0  0  0  0  0  0  0  0  0  0
   56.1120   30.3030   42.6540 N   0  0  0  0  0  0  0  0  0  0  0  0
   57.1450   31.2670   42.7010 C   0  0  0  0  0  0  0  0  0  0  0  0
   57.7270   31.7350   41.6860 O   0  0  0  0  0  0  0  0  0  0  0  0
   58.1730   33.3710   46.9780 C   0  0  0  0  0  0  0  0  0  0  0  0
   58.5280   32.9850   48.2210 N   0  0  0  0  0  0  0  0  0  0  0  0
   59.2040   31.8360   48.0200 C   0  0  0  0  0  0  0  0  0  0  0  0
   59.7040   31.1660   48.9630 O   0  0  0  0  0  0  0  0  0  0  0  0
   58.6645   28.1990   42.8596 H   0  0  0  0  0  0  0  0  0  0  0  0
   58.1103   26.3772   42.7950 H   0  0  0  0  0  0  0  0  0  0  0  0
   58.0274   24.2252   44.8400 H   0  0  0  0  0  0  0  0  0  0  0  0
   57.8112   25.9923   47.7271 H   0  0  0  0  0  0  0  0  0  0  0  0
   58.5022   28.1417   48.9091 H   0  0  0  0  0  0  0  0  0  0  0  0
   59.6892   29.1363   47.9990 H   0  0  0  0  0  0  0  0  0  0  0  0
   57.9508   29.5888   47.9990 H   0  0  0  0  0  0  0  0  0  0  0  0
   59.7058   29.4968   44.1788 H   0  0  0  0  0  0  0  0  0  0  0  0
   58.2320   30.2874   44.8778 H   0  0  0  0  0  0  0  0  0  0  0  0
   60.1080   29.5624   46.9870 H   0  0  0  0  0  0  0  0  0  0  0  0
   60.9064   30.5907   45.7286 H   0  0  0  0  0  0  0  0  0  0  0  0
   58.2019   33.5833   44.3033 H   0  0  0  0  0  0  0  0  0  0  0  0
   59.4362   32.2886   44.0918 H   0  0  0  0  0  0  0  0  0  0  0  0
   55.6780   29.8360   41.8270 H   0  0  0  0  0  0  0  0  0  0  0  0
   57.6057   34.2813   46.7341 H   0  0  0  0  0  0  0  0  0  0  0  0
  1  2  2  0
  2  3  1  0
  3  4  2  3
  4  5  1  0
  5  6  1  0
  6  7  1  0
  7  8  2  0
  7  9  1  0
  9 10  1  0
 10 11  1  0
  3 12  1  0
 12 13  2  0
 13 14  1  0
 13 15  1  0
 15 16  1  0
 16 17  1  0
 17 18  1  0
 18 19  1  0
 19 20  1  0
 20 21  1  0
 21 22  2  0
 22 23  1  0
 23 24  2  0
 23 25  1  0
 25 26  1  0
 26 27  2  0
 19 28  2  0
 28 29  1  0
 29 30  1  0
 30 31  2  0
 15  2  1  0
 30 18  1  0
 10  5  2  0
 26 21  1  0
  1 32  1  0
  1 33  1  0
  4 34  1  0
 12 35  1  0
 14 36  1  0
 14 37  1  0
 14 38  1  0
 16 39  1  0
 16 40  1  0
 17 41  1  0
 17 42  1  0
 20 43  1  0
 20 44  1  0
 25 45  1  0
 28 46  1  0
M  CHG  4   6  -1   9  -1  11  -1  29  -1
M  END
>  <UniqueID>  (2) 
2

>  <SMILES>  (2) 
C=c1c(=Cc2[n-]c(=O)[n-]c2[O-])cc(C)n1CCn1c(CC2=NC(=O)NC2=O)c[n-]c1=O

>  <Energy>  (2) 
171.94618114170908

>  <Genealogy>  (2) 
C=c1c(=Cc2[n-]c(=O)[n-]c2[O-])cc(C)n1CCn1c(CC2=NC(=O)NC2=O)c[n-]c1=O (protonated)
C=c1c(=Cc2[n-]c(=O)[n-]c2[O-])cc(C)n1CCn1c(CC2=NC(=O)NC2=O)c[n-]c1=O (3D coordinates assigned)
C=c1c(=Cc2[n-]c(=O)[n-]c2[O-])cc(C)n1CCn1c(CC2=NC(=O)NC2=O)c[n-]c1=O (nonaromatic ring conformer: 171.94618114170908 kcal/mol)

>  <smiles>  (2) 
C=c1c(=Cc2[nH]c(=O)[nH]c2O)cc(C)n1CCn1c(CC2=NC(=O)NC2=O)c[nH]c1=O

>  <score_type>  (2) 
oracle

>  <origin>  (2) 
adg

>  <m_score__min__energy>  (2) 
-17.969999999999999

>  <m_primary>  (2) 
energy

$$$$
2:0
     RDKit          3D

 33 35  0  0  0  0  0  0  0  0999 V2000
   56.2690   29.7450   42.6570 C   0  0  0  0  0  0  0  0  0  0  0  0
   56.2030   29.7090   43.9890 C   0  0  0  0  0  0  0  0  0  0  0  0
   57.3860   29.5510   44.8720 C   0  0  0  0  0  0  0  0  0  0  0  0
   57.9720   28.2920   45.1140 C   0  0  0  0  0  0  0  0  0  0  0  0
   59.1080   28.1740   45.9280 C   0  0  0  0  0  0  0  0  0  0  0  0
   59.7060   26.8250   46.2000 C   0  0  0  0  0  0  0  0  0  0  0  0
   59.6530   29.3190   46.5250 C   0  0  0  0  0  0  0  0  0  0  0  0
   59.0750   30.5730   46.2970 C   0  0  0  0  0  0  0  0  0  0  0  0
   57.9590   30.6930   45.4680 C   0  0  0  0  0  0  0  0  0  0  0  0
   57.4120   31.9590   45.2490 O   0  0  0  0  0  0  0  0  0  0  0  0
   57.7480   33.1190   46.0200 C   0  0  2  0  0  0  0  0  0  0  0  0
   58.3570   34.2160   45.1530 C   0  0  0  0  0  0  0  0  0  0  0  0
   59.2320   34.9010   46.1260 C   0  0  0  0  0  0  0  0  0  0  0  0
   59.7980   35.9600   45.9080 O   0  0  0  0  0  0  0  0  0  0  0  0
   59.3430   34.1500   47.4020 C   0  0  0  0  0  0  0  0  0  0  0  0
   58.6910   32.8520   47.1400 N   0  0  2  0  0  0  0  0  0  0  0  0
   59.7100   31.8280   46.8100 C   0  0  0  0  0  0  0  0  0  0  0  0
   55.3504   29.8647   42.0638 H   0  0  0  0  0  0  0  0  0  0  0  0
   57.2420   29.6550   42.1519 H   0  0  0  0  0  0  0  0  0  0  0  0
   55.2137   29.8019   44.4609 H   0  0  0  0  0  0  0  0  0  0  0  0
   57.5332   27.3917   44.6591 H   0  0  0  0  0  0  0  0  0  0  0  0
   59.7759   26.6672   47.2864 H   0  0  0  0  0  0  0  0  0  0  0  0
   59.0691   26.0454   45.7565 H   0  0  0  0  0  0  0  0  0  0  0  0
   60.7113   26.7734   45.7565 H   0  0  0  0  0  0  0  0  0  0  0  0
   60.5368   29.2318   47.1741 H   0  0  0  0  0  0  0  0  0  0  0  0
   56.7872   33.4436   46.4460 H   0  0  0  0  0  0  0  0  0  0  0  0
   58.9357   33.7946   44.3178 H   0  0  0  0  0  0  0  0  0  0  0  0
   57.6174   34.8727   44.6717 H   0  0  0  0  0  0  0  0  0  0  0  0
   60.3988   34.0042   47.6741 H   0  0  0  0  0  0  0  0  0  0  0  0
   58.8729   34.6867   48.2392 H   0  0  0  0  0  0  0  0  0  0  0  0
   58.1580   32.5440   47.9890 H   0  0  0  0  0  0  0  0  0  0  0  0
   60.3843   32.2292   46.0391 H   0  0  0  0  0  0  0  0  0  0  0  0
   60.2671   31.5851   47.7268 H   0  0  0  0  0  0  0  0  0  0  0  0
  1  2  2  0
  2  3  1  0
  3  4  2  0
  4  5  1  0
  5  6  1  0
  5  7  2  0
  7  8  1  0
  8  9  2  0
  9 10  1  0
 10 11  1  0
 11 12  1  0
 12 13  1  0
 13 14  2  0
 13 15  1  0
 15 16  1  0
 16 17  1  0
  9  3  1  0
 16 11  1  0
 17  8  1  0
  1 18  1  0
  1 19  1  0
  2 20  1  0
  4 21  1  0
  6 22  1  0
  6 23  1  0
  6 24  1  0
  7 25  1  0
 11 26  1  1
 12 27  1  0
 12 28  1  0
 15 29  1  0
 15 30  1  0
 16 31  1  1
 17 32  1  0
 17 33  1  0
M  CHG  1  16   1
M  END
>  <UniqueID>  (3) 
3

>  <SMILES>  (3) 
C=Cc1cc(C)cc2c1O[C@@H]1CC(=O)C[N@@H+]1C2

>  <Energy>  (3) 
46.52347940278533

>  <Genealogy>  (3) 
C=Cc1cc(C)cc2c1OC1CC(=O)C[NH+]1C2 (protonated)
C=Cc1cc(C)cc2c1O[C@@H]1CC(=O)C[N@@H+]1C2 (chirality)
C=Cc1cc(C)cc2c1O[C@@H]1CC(=O)C[N@@H+]1C2 (3D coordinates assigned)
C=Cc1cc(C)cc2c1O[C@@H]1CC(=O)C[N@@H+]1C2 (nonaromatic ring conformer: 46.52347940278533 kcal/mol)

>  <smiles>  (3) 
C=Cc1cc(C)cc2c1OC1CC(=O)CN1C2

>  <score_type>  (3) 
oracle

>  <origin>  (3) 
adg

>  <m_score__min__energy>  (3) 
-5.1799999999999997

>  <m_primary>  (3) 
energy

$$$$
3:0
     RDKit          3D

 44 46  0  0  0  0  0  0  0  0999 V2000
   60.4370   28.5670   44.6710 C   0  0  0  0  0  0  0  0  0  0  0  0
   59.3480   27.8050   45.3630 C   0  0  0  0  0  0  0  0  0  0  0  0
   58.2460   28.3250   45.8960 C   0  0  0  0  0  0  0  0  0  0  0  0
   57.9600   29.7680   46.0150 C   0  0  0  0  0  0  0  0  0  0  0  0
   57.0370   30.2740   45.3190 O   0  0  0  0  0  0  0  0  0  0  0  0
   58.7450   30.6050   46.8790 N   0  0  0  0  0  0  0  0  0  0  0  0
   59.0170   31.9890   46.4740 C   0  0  0  0  0  0  0  0  0  0  0  0
   60.3460   32.4610   47.0660 C   0  0  0  0  0  0  0  0  0  0  0  0
   60.3930   32.1390   48.4940 N   0  0  0  0  0  0  0  0  0  0  0  0
   60.9050   33.0950   49.4280 C   0  0  0  0  0  0  0  0  0  0  0  0
   60.0900   33.8360   50.0410 O   0  0  0  0  0  0  0  0  0  0  0  0
   62.3630   33.2240   49.6730 C   0  0  0  0  0  0  0  0  0  0  0  0
   63.2860   32.6090   48.8040 C   0  0  0  0  0  0  0  0  0  0  0  0
   64.6600   32.7260   49.0310 C   0  0  0  0  0  0  0  0  0  0  0  0
   65.1310   33.4560   50.1240 C   0  0  0  0  0  0  0  0  0  0  0  0
   66.4630   33.5710   50.3420 F   0  0  0  0  0  0  0  0  0  0  0  0
   64.2260   34.0690   50.9950 C   0  0  0  0  0  0  0  0  0  0  0  0
   62.8500   33.9560   50.7730 C   0  0  0  0  0  0  0  0  0  0  0  0
   60.1230   30.7640   48.9180 C   0  0  0  0  0  0  0  0  0  0  0  0
   58.8040   30.2800   48.3110 C   0  0  0  0  0  0  0  0  0  0  0  0
   57.4420   27.2480   46.5690 C   0  0  1  0  0  0  0  0  0  0  0  0
   56.0660   27.1060   45.9890 C   0  0  0  0  0  0  0  0  0  0  0  0
   55.3980   26.0510   46.1610 O   0  0  0  0  0  0  0  0  0  0  0  0
   55.5260   28.1440   45.2410 O   0  0  0  0  0  0  0  0  0  0  0  0
   58.2820   26.0400   46.2890 C   0  0  0  0  0  0  0  0  0  0  0  0
   59.3640   26.3720   45.6030 C   0  0  0  0  0  0  0  0  0  0  0  0
   61.0959   29.0280   45.4216 H   0  0  0  0  0  0  0  0  0  0  0  0
   61.0222   27.8803   44.0417 H   0  0  0  0  0  0  0  0  0  0  0  0
   59.9924   29.3521   44.0417 H   0  0  0  0  0  0  0  0  0  0  0  0
   59.0685   32.0430   45.3765 H   0  0  0  0  0  0  0  0  0  0  0  0
   58.2088   32.6368   46.8443 H   0  0  0  0  0  0  0  0  0  0  0  0
   61.1759   31.9561   46.5499 H   0  0  0  0  0  0  0  0  0  0  0  0
   60.4368   33.5494   46.9351 H   0  0  0  0  0  0  0  0  0  0  0  0
   62.9224   32.0326   47.9406 H   0  0  0  0  0  0  0  0  0  0  0  0
   65.3723   32.2417   48.3468 H   0  0  0  0  0  0  0  0  0  0  0  0
   64.5972   34.6419   51.8575 H   0  0  0  0  0  0  0  0  0  0  0  0
   62.1435   34.4420   51.4620 H   0  0  0  0  0  0  0  0  0  0  0  0
   60.9411   30.1110   48.5800 H   0  0  0  0  0  0  0  0  0  0  0  0
   60.0497   30.7316   50.0151 H   0  0  0  0  0  0  0  0  0  0  0  0
   58.7256   29.1902   48.4381 H   0  0  0  0  0  0  0  0  0  0  0  0
   57.9711   30.7832   48.8240 H   0  0  0  0  0  0  0  0  0  0  0  0
   57.2557   27.4409   47.6358 H   0  0  0  0  0  0  0  0  0  0  0  0
   58.0337   25.0174   46.6095 H   0  0  0  0  0  0  0  0  0  0  0  0
   60.1478   25.6763   45.2689 H   0  0  0  0  0  0  0  0  0  0  0  0
  1  2  1  0
  2  3  2  0
  3  4  1  0
  4  5  2  0
  4  6  1  0
  6  7  1  0
  7  8  1  0
  8  9  1  0
  9 10  1  0
 10 11  2  0
 10 12  1  0
 12 13  2  0
 13 14  1  0
 14 15  2  0
 15 16  1  0
 15 17  1  0
 17 18  2  0
  9 19  1  0
 19 20  1  0
  3 21  1  0
 21 22  1  0
 22 23  2  0
 22 24  1  0
 21 25  1  0
 25 26  2  0
 26  2  1  0
 20  6  1  0
 18 12  1  0
  1 27  1  0
  1 28  1  0
  1 29  1  0
  7 30  1  0
  7 31  1  0
  8 32  1  0
  8 33  1  0
 13 34  1  0
 14 35  1  0
 17 36  1  0
 18 37  1  0
 19 38  1  0
 19 39  1  0
 20 40  1  0
 20 41  1  0
 21 42  1  1
 25 43  1  0
 26 44  1  0
M  CHG  1  24  -1
M  END
>  <UniqueID>  (4) 
4

>  <SMILES>  (4) 
CC1=C(C(=O)N2CCN(C(=O)c3ccc(F)cc3)CC2)[C@@H](C(=O)[O-])C=C1

>  <Energy>  (4) 
69.03615304084808

>  <Genealogy>  (4) 
CC1=C(C(=O)N2CCN(C(=O)c3ccc(F)cc3)CC2)C(C(=O)[O-])C=C1 (protonated)
CC1=C(C(=O)N2CCN(C(=O)c3ccc(F)cc3)CC2)[C@@H](C(=O)[O-])C=C1 (chirality)
CC1=C(C(=O)N2CCN(C(=O)c3ccc(F)cc3)CC2)[C@@H](C(=O)[O-])C=C1 (3D coordinates assigned)
CC1=C(C(=O)N2CCN(C(=O)c3ccc(F)cc3)CC2)[C@@H](C(=O)[O-])C=C1 (nonaromatic ring conformer: 69.03615304084808 kcal/mol)

>  <smiles>  (4) 
CC1=C(C(=O)N2CCN(C(=O)c3ccc(F)cc3)CC2)C(C(=O)O)C=C1

>  <score_type>  (4) 
oracle

>  <origin>  (4) 
adg

>  <m_score__min__energy>  (4) 
-10.34

>  <m_primary>  (4) 
energy

$$$$
4:0
     RDKit          3D

 56 59  0  0  0  0  0  0  0  0999 V2000
   56.3360   21.8810   47.5260 C   0  0  0  0  0  0  0  0  0  0  0  0
   56.1280   23.1220   47.0800 C   0  0  0  0  0  0  0  0  0  0  0  0
   57.0660   24.1360   47.0710 C   0  0  0  0  0  0  0  0  0  0  0  0
   56.4180   25.2330   46.5310 C   0  0  0  0  0  0  0  0  0  0  0  0
   57.0090   26.5630   46.3220 C   0  0  0  0  0  0  0  0  0  0  0  0
   57.5910   27.1420   47.2780 O   0  0  0  0  0  0  0  0  0  0  0  0
   56.9520   27.1800   45.0250 N   0  0  0  0  0  0  0  0  0  0  0  0
   57.2570   28.5640   44.7830 C   0  0  0  0  0  0  0  0  0  0  0  0
   58.4310   29.1150   45.3170 C   0  0  0  0  0  0  0  0  0  0  0  0
   58.7580   30.4530   45.0770 C   0  0  0  0  0  0  0  0  0  0  0  0
   57.9200   31.2600   44.2890 C   0  0  0  0  0  0  0  0  0  0  0  0
   58.2760   32.6710   44.0180 C   0  0  0  0  0  0  0  0  0  0  0  0
   58.4200   33.0580   42.8260 O   0  0  0  0  0  0  0  0  0  0  0  0
   58.4770   33.6040   45.0910 N   0  0  0  0  0  0  0  0  0  0  0  0
   59.6720   34.4490   45.0900 C   0  0  0  0  0  0  0  0  0  0  0  0
   59.6280   35.4930   46.2190 C   0  0  0  0  0  0  0  0  0  0  0  0
   59.1940   34.9250   47.5160 N   0  0  0  0  0  0  0  0  0  0  0  0
   60.2830   34.5980   48.4640 C   0  0  0  0  0  0  0  0  0  0  0  0
   61.1830   33.4730   47.9940 C   0  0  0  0  0  0  0  0  0  0  0  0
   62.5790   33.6430   47.9500 C   0  0  0  0  0  0  0  0  0  0  0  0
   63.4060   32.5950   47.5330 C   0  0  0  0  0  0  0  0  0  0  0  0
   62.8480   31.3800   47.1320 C   0  0  0  0  0  0  0  0  0  0  0  0
   61.4610   31.2130   47.1370 C   0  0  0  0  0  0  0  0  0  0  0  0
   60.6300   32.2570   47.5550 C   0  0  0  0  0  0  0  0  0  0  0  0
   58.0870   33.9360   47.4810 C   0  0  0  0  0  0  0  0  0  0  0  0
   57.4370   33.8130   46.1010 C   0  0  0  0  0  0  0  0  0  0  0  0
   56.7650   30.6980   43.7230 C   0  0  0  0  0  0  0  0  0  0  0  0
   56.4340   29.3620   43.9690 C   0  0  0  0  0  0  0  0  0  0  0  0
   55.1750   24.9240   46.2290 O   0  0  0  0  0  0  0  0  0  0  0  0
   54.9640   23.6660   46.5440 C   0  0  0  0  0  0  0  0  0  0  0  0
   53.7920   23.0590   46.3570 C   0  0  0  0  0  0  0  0  0  0  0  0
   55.5231   21.1407   47.4915 H   0  0  0  0  0  0  0  0  0  0  0  0
   57.3203   21.5988   47.9280 H   0  0  0  0  0  0  0  0  0  0  0  0
   58.1080   24.0827   47.4195 H   0  0  0  0  0  0  0  0  0  0  0  0
   56.7580   26.5700   44.1990 H   0  0  0  0  0  0  0  0  0  0  0  0
   59.0988   28.4905   45.9286 H   0  0  0  0  0  0  0  0  0  0  0  0
   59.6772   30.8767   45.5078 H   0  0  0  0  0  0  0  0  0  0  0  0
   60.5591   33.8130   45.2262 H   0  0  0  0  0  0  0  0  0  0  0  0
   59.7153   34.9828   44.1292 H   0  0  0  0  0  0  0  0  0  0  0  0
   60.6348   35.9187   46.3421 H   0  0  0  0  0  0  0  0  0  0  0  0
   58.8911   36.2575   45.9316 H   0  0  0  0  0  0  0  0  0  0  0  0
   60.8989   35.4978   48.6091 H   0  0  0  0  0  0  0  0  0  0  0  0
   59.8068   34.2603   49.3963 H   0  0  0  0  0  0  0  0  0  0  0  0
   63.0224   34.6054   48.2452 H   0  0  0  0  0  0  0  0  0  0  0  0
   64.4978   32.7284   47.5210 H   0  0  0  0  0  0  0  0  0  0  0  0
   63.5003   30.5541   46.8121 H   0  0  0  0  0  0  0  0  0  0  0  0
   61.0218   30.2585   46.8115 H   0  0  0  0  0  0  0  0  0  0  0  0
   59.5379   32.1263   47.5403 H   0  0  0  0  0  0  0  0  0  0  0  0
   58.4867   32.9525   47.7689 H   0  0  0  0  0  0  0  0  0  0  0  0
   57.3121   34.2854   48.1792 H   0  0  0  0  0  0  0  0  0  0  0  0
   56.7439   32.9588   46.0965 H   0  0  0  0  0  0  0  0  0  0  0  0
   56.8823   34.7350   45.8723 H   0  0  0  0  0  0  0  0  0  0  0  0
   56.1161   31.3126   43.0818 H   0  0  0  0  0  0  0  0  0  0  0  0
   55.5246   28.9329   43.5232 H   0  0  0  0  0  0  0  0  0  0  0  0
   53.6685   22.0028   46.6385 H   0  0  0  0  0  0  0  0  0  0  0  0
   52.9484   23.6143   45.9212 H   0  0  0  0  0  0  0  0  0  0  0  0
  1  2  2  0
  2  3  1  0
  3  4  2  0
  4  5  1  0
  5  6  2  0
  5  7  1  0
  7  8  1  0
  8  9  2  0
  9 10  1  0
 10 11  2  0
 11 12  1  0
 12 13  2  0
 12 14  1  0
 14 15  1  0
 15 16  1  0
 16 17  1  0
 17 18  1  0
 18 19  1  0
 19 20  2  0
 20 21  1  0
 21 22  2  0
 22 23  1  0
 23 24  2  0
 17 25  1  0
 25 26  1  0
 11 27  1  0
 27 28  2  0
  4 29  1  0
 29 30  1  0
 30 31  2  0
 30  2  1  0
 28  8  1  0
 26 14  1  0
 24 19  1  0
  1 32  1  0
  1 33  1  0
  3 34  1  0
  7 35  1  0
  9 36  1  0
 10 37  1  0
 15 38  1  0
 15 39  1  0
 16 40  1  0
 16 41  1  0
 18 42  1  0
 18 43  1  0
 20 44  1  0
 21 45  1  0
 22 46  1  0
 23 47  1  0
 24 48  1  0
 25 49  1  0
 25 50  1  0
 26 51  1  0
 26 52  1  0
 27 53  1  0
 28 54  1  0
 31 55  1  0
 31 56  1  0
M  END
>  <UniqueID>  (5) 
5

>  <SMILES>  (5) 
C=c1cc(C(=O)Nc2ccc(C(=O)N3CCN(Cc4ccccc4)CC3)cc2)oc1=C

>  <Energy>  (5) 
104.2346983382816

>  <Genealogy>  (5) 
C=c1cc(C(=O)Nc2ccc(C(=O)N3CCN(Cc4ccccc4)CC3)cc2)oc1=C (3D coordinates assigned)
C=c1cc(C(=O)Nc2ccc(C(=O)N3CCN(Cc4ccccc4)CC3)cc2)oc1=C (nonaromatic ring conformer: 104.2346983382816 kcal/mol)

>  <smiles>  (5) 
C=c1cc(C(=O)Nc2ccc(C(=O)N3CCN(Cc4ccccc4)CC3)cc2)oc1=C

>  <score_type>  (5) 
oracle

>  <origin>  (5) 
adg

>  <m_score__min__energy>  (5) 
-9.7899999999999991

>  <m_primary>  (5) 
energy

$$$$
5:0
     RDKit          3D

 59 63  0  0  0  0  0  0  0  0999 V2000
   59.6450   35.6150   46.7220 C   0  0  0  0  0  0  0  0  0  0  0  0
   59.4610   34.1630   46.3840 C   0  0  0  0  0  0  0  0  0  0  0  0
   58.3090   33.7880   45.9010 N   0  0  0  0  0  0  0  0  0  0  0  0
   58.1020   32.4420   45.4850 C   0  0  0  0  0  0  0  0  0  0  0  0
   56.9910   31.9770   44.8890 N   0  0  0  0  0  0  0  0  0  0  0  0
   57.3060   30.6640   44.7550 C   0  0  0  0  0  0  0  0  0  0  0  0
   56.2260   29.4670   43.9770 S   0  0  0  0  0  0  0  0  0  0  0  0
   57.5580   28.2540   43.6650 C   0  0  0  0  0  0  0  0  0  0  0  0
   57.9970   27.5950   44.9450 C   0  0  0  0  0  0  0  0  0  0  0  0
   57.0480   27.0790   45.8440 C   0  0  0  0  0  0  0  0  0  0  0  0
   57.4630   26.4350   47.0140 C   0  0  0  0  0  0  0  0  0  0  0  0
   58.8260   26.3050   47.2950 C   0  0  0  0  0  0  0  0  0  0  0  0
   59.7770   26.8150   46.4040 C   0  0  0  0  0  0  0  0  0  0  0  0
   61.0990   26.6830   46.6760 F   0  0  0  0  0  0  0  0  0  0  0  0
   59.3650   27.4560   45.2310 C   0  0  0  0  0  0  0  0  0  0  0  0
   58.5250   30.3480   45.2500 N   0  0  0  0  0  0  0  0  0  0  0  0
   59.0110   31.4910   45.6900 N   0  0  0  0  0  0  0  0  0  0  0  0
   60.2630   31.6900   46.4150 C   0  0  2  0  0  0  0  0  0  0  0  0
   60.1340   31.1330   47.8240 C   0  0  0  0  0  0  0  0  0  0  0  0
   61.1910   30.4260   48.4290 C   0  0  0  0  0  0  0  0  0  0  0  0
   61.0340   29.8750   49.7040 C   0  0  0  0  0  0  0  0  0  0  0  0
   59.8210   30.0150   50.3890 C   0  0  0  0  0  0  0  0  0  0  0  0
   59.6510   29.4650   51.6570 O   0  0  0  0  0  0  0  0  0  0  0  0
   58.7660   30.7120   49.7930 C   0  0  0  0  0  0  0  0  0  0  0  0
   58.9190   31.2680   48.5210 C   0  0  0  0  0  0  0  0  0  0  0  0
   60.6640   33.2070   46.3780 C   0  0  2  0  0  0  0  0  0  0  0  0
   61.6870   33.5360   47.4390 C   0  0  0  0  0  0  0  0  0  0  0  0
   62.8790   33.1400   47.3160 O   0  0  0  0  0  0  0  0  0  0  0  0
   61.3020   34.3330   48.5650 N   0  0  0  0  0  0  0  0  0  0  0  0
   61.0450   33.8390   49.8880 C   0  0  0  0  0  0  0  0  0  0  0  0
   62.0900   33.2340   50.5970 C   0  0  0  0  0  0  0  0  0  0  0  0
   61.8660   32.7050   51.8710 C   0  0  0  0  0  0  0  0  0  0  0  0
   60.5910   32.7610   52.4400 C   0  0  0  0  0  0  0  0  0  0  0  0
   59.5310   33.3580   51.7400 C   0  0  0  0  0  0  0  0  0  0  0  0
   58.1490   33.3610   52.3260 C   0  0  0  0  0  0  0  0  0  0  0  0
   59.7570   33.8780   50.4550 C   0  0  0  0  0  0  0  0  0  0  0  0
   59.6606   35.7379   47.8150 H   0  0  0  0  0  0  0  0  0  0  0  0
   60.5956   35.9723   46.2993 H   0  0  0  0  0  0  0  0  0  0  0  0
   58.8136   36.1981   46.2993 H   0  0  0  0  0  0  0  0  0  0  0  0
   57.1883   27.4838   42.9721 H   0  0  0  0  0  0  0  0  0  0  0  0
   58.4188   28.7825   43.2294 H   0  0  0  0  0  0  0  0  0  0  0  0
   55.9746   27.1821   45.6266 H   0  0  0  0  0  0  0  0  0  0  0  0
   56.7165   26.0306   47.7134 H   0  0  0  0  0  0  0  0  0  0  0  0
   59.1514   25.8014   48.2172 H   0  0  0  0  0  0  0  0  0  0  0  0
   60.1147   27.8524   44.5304 H   0  0  0  0  0  0  0  0  0  0  0  0
   61.0813   31.1371   45.9305 H   0  0  0  0  0  0  0  0  0  0  0  0
   62.1454   30.3067   47.8953 H   0  0  0  0  0  0  0  0  0  0  0  0
   61.8670   29.3291   50.1711 H   0  0  0  0  0  0  0  0  0  0  0  0
   60.2880   29.6790   52.4170 H   0  0  0  0  0  0  0  0  0  0  0  0
   57.8113   30.8230   50.3281 H   0  0  0  0  0  0  0  0  0  0  0  0
   58.0835   31.8156   48.0605 H   0  0  0  0  0  0  0  0  0  0  0  0
   61.1457   33.3759   45.4036 H   0  0  0  0  0  0  0  0  0  0  0  0
   63.0928   33.1748   50.1487 H   0  0  0  0  0  0  0  0  0  0  0  0
   62.6953   32.2435   52.4271 H   0  0  0  0  0  0  0  0  0  0  0  0
   60.4175   32.3359   53.4396 H   0  0  0  0  0  0  0  0  0  0  0  0
   58.2163   33.3609   53.4239 H   0  0  0  0  0  0  0  0  0  0  0  0
   57.6109   34.2603   51.9917 H   0  0  0  0  0  0  0  0  0  0  0  0
   57.6070   32.4640   51.9917 H   0  0  0  0  0  0  0  0  0  0  0  0
   58.9231   34.3181   49.8886 H   0  0  0  0  0  0  0  0  0  0  0  0
  1  2  1  0
  2  3  2  0
  3  4  1  0
  4  5  2  0
  5  6  1  0
  6  7  1  0
  7  8  1  0
  8  9  1  0
  9 10  2  0
 10 11  1  0
 11 12  2  0
 12 13  1  0
 13 14  1  0
 13 15  2  0
  6 16  2  0
 16 17  1  0
 17 18  1  0
 18 19  1  0
 19 20  2  0
 20 21  1  0
 21 22  2  0
 22 23  1  0
 22 24  1  0
 24 25  2  0
 18 26  1  0
 26 27  1  0
 27 28  2  0
 27 29  1  0
 29 30  1  0
 30 31  2  0
 31 32  1  0
 32 33  2  0
 33 34  1  0
 34 35  1  0
 34 36  2  0
 26  2  1  0
 36 30  1  0
 17  4  1  0
 25 19  1  0
 15  9  1  0
  1 37  1  0
  1 38  1  0
  1 39  1  0
  8 40  1  0
  8 41  1  0
 10 42  1  0
 11 43  1  0
 12 44  1  0
 15 45  1  0
 18 46  1  6
 20 47  1  0
 21 48  1  0
 23 49  1  0
 24 50  1  0
 25 51  1  0
 26 52  1  6
 31 53  1  0
 32 54  1  0
 33 55  1  0
 35 56  1  0
 35 57  1  0
 35 58  1  0
 36 59  1  0
M  CHG  1  29  -1
M  END
>  <UniqueID>  (6) 
6

>  <SMILES>  (6) 
CC1=Nc2nc(SCc3cccc(F)c3)nn2[C@H](c2ccc(O)cc2)[C@@H]1C(=O)[N-]c1cccc(C)c1

>  <Energy>  (6) 
100.74824969364523

>  <Genealogy>  (6) 
CC1=Nc2nc(SCc3cccc(F)c3)nn2C(c2ccc(O)cc2)C1C(=O)[N-]c1cccc(C)c1 (protonated)
CC1=Nc2nc(SCc3cccc(F)c3)nn2[C@H](c2ccc(O)cc2)[C@@H]1C(=O)[N-]c1cccc(C)c1 (chirality)
CC1=Nc2nc(SCc3cccc(F)c3)nn2[C@H](c2ccc(O)cc2)[C@@H]1C(=O)[N-]c1cccc(C)c1 (3D coordinates assigned)
CC1=Nc2nc(SCc3cccc(F)c3)nn2[C@H](c2ccc(O)cc2)[C@@H]1C(=O)[N-]c1cccc(C)c1 (nonaromatic ring conformer: 100.74824969364523 kcal/mol)

>  <smiles>  (6) 
CC1=Nc2nc(SCc3cccc(F)c3)nn2C(c2ccc(O)cc2)C1C(=O)Nc1cccc(C)c1

>  <score_type>  (6) 
oracle

>  <origin>  (6) 
adg

>  <m_score__min__energy>  (6) 
-9.9600000000000009

>  <m_primary>  (6) 
energy

$$$$
6:0
     RDKit          3D

 69 73  0  0  0  0  0  0  0  0999 V2000
   62.4630   33.1500   50.1610 O   0  0  0  0  0  0  0  0  0  0  0  0
   62.8630   32.3310   49.2880 C   0  0  0  0  0  0  0  0  0  0  0  0
   64.2700   32.2310   49.0170 N   0  0  0  0  0  0  0  0  0  0  0  0
   65.2710   32.3420   50.0470 C   0  0  0  0  0  0  0  0  0  0  0  0
   65.5820   33.6040   50.5740 C   0  0  0  0  0  0  0  0  0  0  0  0
   66.5910   33.7420   51.5350 C   0  0  0  0  0  0  0  0  0  0  0  0
   67.3030   32.6180   51.9670 C   0  0  0  0  0  0  0  0  0  0  0  0
   67.0070   31.3440   51.4480 C   0  0  0  0  0  0  0  0  0  0  0  0
   67.7970   30.1600   51.8600 C   0  0  0  0  0  0  0  0  0  0  0  0
   68.9140   30.3260   52.4260 O   0  0  0  0  0  0  0  0  0  0  0  0
   67.3340   28.8260   51.5970 N   0  0  0  0  0  0  0  0  0  0  0  0
   65.9990   28.4400   52.0660 C   0  0  0  0  0  0  0  0  0  0  0  0
   65.6460   27.0320   51.6270 C   0  0  0  0  0  0  0  0  0  0  0  0
   66.7210   26.1830   51.9350 O   0  0  0  0  0  0  0  0  0  0  0  0
   67.7730   26.4030   51.0180 C   0  0  0  0  0  0  0  0  0  0  0  0
   68.2630   27.8720   50.9750 C   0  0  0  0  0  0  0  0  0  0  0  0
   66.0010   31.2160   50.4800 C   0  0  0  0  0  0  0  0  0  0  0  0
   61.8810   31.4840   48.5670 C   0  0  0  0  0  0  0  0  0  0  0  0
   60.9140   30.7510   49.2780 C   0  0  0  0  0  0  0  0  0  0  0  0
   60.0630   29.8670   48.6150 C   0  0  0  0  0  0  0  0  0  0  0  0
   60.1660   29.7080   47.2170 C   0  0  0  0  0  0  0  0  0  0  0  0
   59.3710   28.7320   46.4850 N   0  0  0  0  0  0  0  0  0  0  0  0
   58.2410   28.0470   47.1540 C   0  0  0  0  0  0  0  0  0  0  0  0
   57.2880   27.3760   46.1570 C   0  0  0  0  0  0  0  0  0  0  0  0
   58.0630   26.6480   45.1570 N   0  0  0  0  0  0  0  0  0  0  0  0
   58.3390   25.2520   45.3350 C   0  0  0  0  0  0  0  0  0  0  0  0
   59.3560   24.9030   45.9890 O   0  0  0  0  0  0  0  0  0  0  0  0
   57.4880   24.2590   44.7450 N   0  0  0  0  0  0  0  0  0  0  0  0
   56.0410   24.4790   44.6610 C   0  0  0  0  0  0  0  0  0  0  0  0
   55.3440   23.2080   44.1620 C   0  0  0  0  0  0  0  0  0  0  0  0
   55.8780   22.0940   44.8430 O   0  0  0  0  0  0  0  0  0  0  0  0
   57.1950   21.8140   44.3940 C   0  0  0  0  0  0  0  0  0  0  0  0
   58.0690   23.0680   44.1190 C   0  0  0  0  0  0  0  0  0  0  0  0
   58.9900   27.4520   44.3760 C   0  0  0  0  0  0  0  0  0  0  0  0
   60.0100   28.1040   45.3100 C   0  0  0  0  0  0  0  0  0  0  0  0
   61.0940   30.4460   46.5510 N   0  0  0  0  0  0  0  0  0  0  0  0
   61.9340   31.3160   47.1740 C   0  0  0  0  0  0  0  0  0  0  0  0
   64.5770   32.1190   48.0210 H   0  0  0  0  0  0  0  0  0  0  0  0
   65.0297   34.4910   50.2302 H   0  0  0  0  0  0  0  0  0  0  0  0
   66.8237   34.7338   51.9501 H   0  0  0  0  0  0  0  0  0  0  0  0
   68.0994   32.7308   52.7173 H   0  0  0  0  0  0  0  0  0  0  0  0
   65.9773   28.4887   53.1647 H   0  0  0  0  0  0  0  0  0  0  0  0
   65.2644   29.1336   51.6309 H   0  0  0  0  0  0  0  0  0  0  0  0
   64.7434   26.6940   52.1572 H   0  0  0  0  0  0  0  0  0  0  0  0
   65.4517   27.0140   50.5445 H   0  0  0  0  0  0  0  0  0  0  0  0
   68.6208   25.7620   51.3015 H   0  0  0  0  0  0  0  0  0  0  0  0
   67.3832   26.1642   50.0175 H   0  0  0  0  0  0  0  0  0  0  0  0
   69.2263   27.9318   51.5027 H   0  0  0  0  0  0  0  0  0  0  0  0
   68.3458   28.1510   49.9142 H   0  0  0  0  0  0  0  0  0  0  0  0
   65.7788   30.2266   50.0537 H   0  0  0  0  0  0  0  0  0  0  0  0
   60.8280   30.8761   50.3675 H   0  0  0  0  0  0  0  0  0  0  0  0
   59.3130   29.2949   49.1810 H   0  0  0  0  0  0  0  0  0  0  0  0
   58.6444   27.2777   47.8289 H   0  0  0  0  0  0  0  0  0  0  0  0
   57.6677   28.8074   47.7045 H   0  0  0  0  0  0  0  0  0  0  0  0
   56.6308   26.6753   46.6928 H   0  0  0  0  0  0  0  0  0  0  0  0
   56.6776   28.1442   45.6597 H   0  0  0  0  0  0  0  0  0  0  0  0
   55.6539   24.7392   45.6572 H   0  0  0  0  0  0  0  0  0  0  0  0
   55.8415   25.2998   43.9564 H   0  0  0  0  0  0  0  0  0  0  0  0
   54.2641   23.2779   44.3592 H   0  0  0  0  0  0  0  0  0  0  0  0
   55.5068   23.0952   43.0800 H   0  0  0  0  0  0  0  0  0  0  0  0
   57.6973   21.2085   45.1628 H   0  0  0  0  0  0  0  0  0  0  0  0
   57.0899   21.2923   43.4313 H   0  0  0  0  0  0  0  0  0  0  0  0
   59.0764   22.9014   44.5281 H   0  0  0  0  0  0  0  0  0  0  0  0
   58.1173   23.2308   43.0322 H   0  0  0  0  0  0  0  0  0  0  0  0
   59.5133   26.8095   43.6526 H   0  0  0  0  0  0  0  0  0  0  0  0
   58.4341   28.2333   43.8370 H   0  0  0  0  0  0  0  0  0  0  0  0
   60.7135   27.3337   45.6590 H   0  0  0  0  0  0  0  0  0  0  0  0
   60.5277   28.8935   44.7455 H   0  0  0  0  0  0  0  0  0  0  0  0
   62.6602   31.8922   46.5820 H   0  0  0  0  0  0  0  0  0  0  0  0
  1  2  2  0
  2  3  1  0
  3  4  1  0
  4  5  2  0
  5  6  1  0
  6  7  2  0
  7  8  1  0
  8  9  1  0
  9 10  2  0
  9 11  1  0
 11 12  1  0
 12 13  1  0
 13 14  1  0
 14 15  1  0
 15 16  1  0
  8 17  2  0
  2 18  1  0
 18 19  2  0
 19 20  1  0
 20 21  2  0
 21 22  1  0
 22 23  1  0
 23 24  1  0
 24 25  1  0
 25 26  1  0
 26 27  2  0
 26 28  1  0
 28 29  1  0
 29 30  1  0
 30 31  1  0
 31 32  1  0
 32 33  1  0
 25 34  1  0
 34 35  1  0
 21 36  1  0
 36 37  2  0
 17  4  1  0
 37 18  1  0
 16 11  1  0
 35 22  1  0
 33 28  1  0
  3 38  1  0
  5 39  1  0
  6 40  1  0
  7 41  1  0
 12 42  1  0
 12 43  1  0
 13 44  1  0
 13 45  1  0
 15 46  1  0
 15 47  1  0
 16 48  1  0
 16 49  1  0
 17 50  1  0
 19 51  1  0
 20 52  1  0
 23 53  1  0
 23 54  1  0
 24 55  1  0
 24 56  1  0
 29 57  1  0
 29 58  1  0
 30 59  1  0
 30 60  1  0
 32 61  1  0
 32 62  1  0
 33 63  1  0
 33 64  1  0
 34 65  1  0
 34 66  1  0
 35 67  1  0
 35 68  1  0
 37 69  1  0
M  END
>  <UniqueID>  (7) 
7

>  <SMILES>  (7) 
O=C(Nc1cccc(C(=O)N2CCOCC2)c1)c1ccc(N2CCN(C(=O)N3CCOCC3)CC2)nc1

>  <Energy>  (7) 
108.65904594099726

>  <Genealogy>  (7) 
O=C(Nc1cccc(C(=O)N2CCOCC2)c1)c1ccc(N2CCN(C(=O)N3CCOCC3)CC2)nc1 (3D coordinates assigned)
O=C(Nc1cccc(C(=O)N2CCOCC2)c1)c1ccc(N2CCN(C(=O)N3CCOCC3)CC2)nc1 (nonaromatic ring conformer: 108.65904594099726 kcal/mol)

>  <smiles>  (7) 
O=C(Nc1cccc(C(=O)N2CCOCC2)c1)c1ccc(N2CCN(C(=O)N3CCOCC3)CC2)nc1

>  <score_type>  (7) 
oracle

>  <origin>  (7) 
adg

>  <m_score__min__energy>  (7) 
-8.1500000000000004

>  <m_primary>  (7) 
energy

$$$$
7:0
     RDKit          3D

 37 39  0  0  0  0  0  0  0  0999 V2000
   59.6760   24.7880   45.9746 H   0  0  0  0  0  0  0  0  0  0  0  0
   58.6490   25.1820   45.9850 C   0  0  0  0  0  0  0  0  0  0  0  0
   58.4310   26.5170   45.8390 N   0  0  0  0  0  0  0  0  0  0  0  0
   57.1760   27.0500   45.8480 C   0  0  0  0  0  0  0  0  0  0  0  0
   56.9840   28.3310   45.7070 N   0  0  0  0  0  0  0  0  0  0  0  0
   57.7950   29.3980   46.2260 C   0  0  0  0  0  0  0  0  0  0  0  0
   58.5070   29.2150   47.2530 O   0  0  0  0  0  0  0  0  0  0  0  0
   57.8230   30.7210   45.5450 C   0  0  0  0  0  0  0  0  0  0  0  0
   57.6700   30.7740   44.1450 C   0  0  0  0  0  0  0  0  0  0  0  0
   57.5546   29.8399   43.5757 H   0  0  0  0  0  0  0  0  0  0  0  0
   57.6630   31.9960   43.4720 C   0  0  0  0  0  0  0  0  0  0  0  0
   57.4450   32.0410   41.5740 Br  0  0  0  0  0  0  0  0  0  0  0  0
   57.8100   33.1850   44.1830 C   0  0  0  0  0  0  0  0  0  0  0  0
   57.7983   34.1477   43.6510 H   0  0  0  0  0  0  0  0  0  0  0  0
   57.9720   33.1570   45.5680 C   0  0  0  0  0  0  0  0  0  0  0  0
   58.0900   34.1000   46.1219 H   0  0  0  0  0  0  0  0  0  0  0  0
   57.9860   31.9310   46.2650 C   0  0  0  0  0  0  0  0  0  0  0  0
   58.1740   31.8880   47.6580 O   0  0  0  0  0  0  0  0  0  0  0  0
   58.9040   32.8420   48.4290 C   0  0  0  0  0  0  0  0  0  0  0  0
   58.4294   33.8290   48.3256 H   0  0  0  0  0  0  0  0  0  0  0  0
   58.8985   32.5243   49.4821 H   0  0  0  0  0  0  0  0  0  0  0  0
   60.3000   32.9260   47.9670 N   0  0  0  0  0  0  0  0  0  0  0  0
   61.1300   31.8600   48.1810 C   0  0  0  0  0  0  0  0  0  0  0  0
   60.7495   30.9697   48.7031 H   0  0  0  0  0  0  0  0  0  0  0  0
   62.4530   31.8910   47.7440 C   0  0  0  0  0  0  0  0  0  0  0  0
   63.1254   31.0396   47.9256 H   0  0  0  0  0  0  0  0  0  0  0  0
   62.9040   33.0230   47.0730 C   0  0  0  0  0  0  0  0  0  0  0  0
   64.0940   33.0870   46.6650 O   0  0  0  0  0  0  0  0  0  0  0  0
   62.0560   34.0570   46.8520 N   0  0  0  0  0  0  0  0  0  0  0  0
   60.7680   34.0200   47.2820 C   0  0  0  0  0  0  0  0  0  0  0  0
   60.0160   35.0020   47.0380 O   0  0  0  0  0  0  0  0  0  0  0  0
   56.0690   26.2020   46.0110 C   0  0  0  0  0  0  0  0  0  0  0  0
   54.7760   26.7150   46.0260 O   0  0  0  0  0  0  0  0  0  0  0  0
   56.2730   24.8270   46.1620 C   0  0  0  0  0  0  0  0  0  0  0  0
   55.4133   24.1531   46.2915 H   0  0  0  0  0  0  0  0  0  0  0  0
   57.5690   24.3120   46.1480 C   0  0  0  0  0  0  0  0  0  0  0  0
   57.7387   23.2314   46.2642 H   0  0  0  0  0  0  0  0  0  0  0  0
  1  2  1  0
  2  3  1  0
  3  4  1  0
  4  5  2  0
  5  6  1  0
  6  7  2  0
  6  8  1  0
  8  9  2  0
  9 10  1  0
  9 11  1  0
 11 12  1  0
 11 13  2  0
 13 14  1  0
 13 15  1  0
 15 16  1  0
 15 17  2  0
 17 18  1  0
 18 19  1  0
 19 20  1  0
 19 21  1  0
 19 22  1  0
 22 23  1  0
 23 24  1  0
 23 25  2  0
 25 26  1  0
 25 27  1  0
 27 28  2  0
 27 29  1  0
 29 30  1  0
 30 31  2  0
  4 32  1  0
 32 33  1  0
 32 34  2  0
 34 35  1  0
 34 36  1  0
 36 37  1  0
 36  2  2  0
 17  8  1  0
 30 22  1  0
M  CHG  3   3  -1  29  -1  33  -1
M  END
>  <UniqueID>  (8) 
8

>  <SMILES>  (8) 
O=C(/N=c1\[n-]cccc1[O-])c1cc(Br)ccc1OCn1ccc(=O)[n-]c1=O

>  <Energy>  (8) 
49.171874840905055

>  <Genealogy>  (8) 
O=C(N=c1[n-]cccc1[O-])c1cc(Br)ccc1OCn1ccc(=O)[n-]c1=O (protonated)
O=C(/N=c1\[n-]cccc1[O-])c1cc(Br)ccc1OCn1ccc(=O)[n-]c1=O (cis-trans isomerization)
O=C(/N=c1\[n-]cccc1[O-])c1cc(Br)ccc1OCn1ccc(=O)[n-]c1=O (3D coordinates assigned)
O=C(/N=c1\[n-]cccc1[O-])c1cc(Br)ccc1OCn1ccc(=O)[n-]c1=O (optimized conformer: 49.171874840905055 kcal/mol)

>  <smiles>  (8) 
O=C(N=c1[nH]cccc1O)c1cc(Br)ccc1OCn1ccc(=O)[nH]c1=O

>  <score_type>  (8) 
oracle

>  <origin>  (8) 
adg

>  <m_score__min__energy>  (8) 
-14.59

>  <m_primary>  (8) 
energy

$$$$
8:0
     RDKit          3D

 43 45  0  0  0  0  0  0  0  0999 V2000
   57.3260   29.3340   43.4640 C   0  0  0  0  0  0  0  0  0  0  0  0
   57.2990   30.0940   44.7450 C   0  0  0  0  0  0  0  0  0  0  0  0
   56.6260   31.1570   44.8280 O   0  0  0  0  0  0  0  0  0  0  0  0
   58.0730   29.6510   45.8220 O   0  0  0  0  0  0  0  0  0  0  0  0
   58.5850   28.3500   45.9100 C   0  0  0  0  0  0  0  0  0  0  0  0
   59.9790   28.1570   45.9120 C   0  0  0  0  0  0  0  0  0  0  0  0
   60.9160   29.3410   45.8060 C   0  0  0  0  0  0  0  0  0  0  0  0
   60.5420   30.4050   46.8040 C   0  0  0  0  0  0  0  0  0  0  0  0
   60.6690   30.1560   48.1770 C   0  0  0  0  0  0  0  0  0  0  0  0
   60.3530   31.1470   49.1210 C   0  0  0  0  0  0  0  0  0  0  0  0
   60.5020   30.8440   50.5870 C   0  0  0  0  0  0  0  0  0  0  0  0
   59.9060   32.4120   48.6760 C   0  0  0  0  0  0  0  0  0  0  0  0
   59.5810   33.4290   49.5800 O   0  0  0  0  0  0  0  0  0  0  0  0
   59.7810   32.6660   47.2970 C   0  0  0  0  0  0  0  0  0  0  0  0
   59.3070   34.0090   46.8150 C   0  0  0  0  0  0  0  0  0  0  0  0
   60.0980   31.6610   46.3710 C   0  0  0  0  0  0  0  0  0  0  0  0
   60.4720   26.8380   45.9960 C   0  0  0  0  0  0  0  0  0  0  0  0
   61.7120   26.6150   45.9950 O   0  0  0  0  0  0  0  0  0  0  0  0
   59.6350   25.8090   46.0760 O   0  0  0  0  0  0  0  0  0  0  0  0
   58.3150   25.9490   46.0690 C   0  0  0  0  0  0  0  0  0  0  0  0
   57.5000   24.8140   46.1450 C   0  0  0  0  0  0  0  0  0  0  0  0
   56.1110   24.9430   46.1120 C   0  0  0  0  0  0  0  0  0  0  0  0
   55.5260   26.2080   45.9960 C   0  0  0  0  0  0  0  0  0  0  0  0
   54.1430   26.3300   45.9520 O   0  0  0  0  0  0  0  0  0  0  0  0
   56.3310   27.3500   45.9240 C   0  0  0  0  0  0  0  0  0  0  0  0
   57.7320   27.2320   45.9760 C   0  0  0  0  0  0  0  0  0  0  0  0
   57.3643   28.2557   43.6781 H   0  0  0  0  0  0  0  0  0  0  0  0
   56.4192   29.5607   42.8840 H   0  0  0  0  0  0  0  0  0  0  0  0
   58.2144   29.6244   42.8840 H   0  0  0  0  0  0  0  0  0  0  0  0
   61.9451   29.0062   46.0033 H   0  0  0  0  0  0  0  0  0  0  0  0
   60.8403   29.7631   44.7930 H   0  0  0  0  0  0  0  0  0  0  0  0
   61.0207   29.1718   48.5200 H   0  0  0  0  0  0  0  0  0  0  0  0
   60.0923   31.6771   51.1771 H   0  0  0  0  0  0  0  0  0  0  0  0
   59.9553   29.9204   50.8279 H   0  0  0  0  0  0  0  0  0  0  0  0
   61.5673   30.7130   50.8279 H   0  0  0  0  0  0  0  0  0  0  0  0
   59.1900   33.2520   50.4960 H   0  0  0  0  0  0  0  0  0  0  0  0
   59.0808   34.6500   47.6798 H   0  0  0  0  0  0  0  0  0  0  0  0
   60.0937   34.4787   46.2063 H   0  0  0  0  0  0  0  0  0  0  0  0
   58.3998   33.8808   46.2063 H   0  0  0  0  0  0  0  0  0  0  0  0
   59.9969   31.8613   45.2941 H   0  0  0  0  0  0  0  0  0  0  0  0
   57.9559   23.8166   46.2311 H   0  0  0  0  0  0  0  0  0  0  0  0
   55.4749   24.0480   46.1774 H   0  0  0  0  0  0  0  0  0  0  0  0
   55.8673   28.3427   45.8265 H   0  0  0  0  0  0  0  0  0  0  0  0
  1  2  1  0
  2  3  2  0
  2  4  1  0
  4  5  1  0
  5  6  2  0
  6  7  1  0
  7  8  1  0
  8  9  2  0
  9 10  1  0
 10 11  1  0
 10 12  2  0
 12 13  1  0
 12 14  1  0
 14 15  1  0
 14 16  2  0
  6 17  1  0
 17 18  2  0
 17 19  1  0
 19 20  1  0
 20 21  2  0
 21 22  1  0
 22 23  2  0
 23 24  1  0
 23 25  1  0
 25 26  2  0
 26  5  1  0
 16  8  1  0
 26 20  1  0
  1 27  1  0
  1 28  1  0
  1 29  1  0
  7 30  1  0
  7 31  1  0
  9 32  1  0
 11 33  1  0
 11 34  1  0
 11 35  1  0
 13 36  1  0
 15 37  1  0
 15 38  1  0
 15 39  1  0
 16 40  1  0
 21 41  1  0
 22 42  1  0
 25 43  1  0
M  CHG  1  24  -1
M  END
>  <UniqueID>  (9) 
9

>  <SMILES>  (9) 
CC(=O)Oc1c(Cc2cc(C)c(O)c(C)c2)c(=O)oc2ccc([O-])cc12

>  <Energy>  (9) 
55.541907919259835

>  <Genealogy>  (9) 
CC(=O)Oc1c(Cc2cc(C)c(O)c(C)c2)c(=O)oc2ccc([O-])cc12 (protonated)
CC(=O)Oc1c(Cc2cc(C)c(O)c(C)c2)c(=O)oc2ccc([O-])cc12 (3D coordinates assigned)
CC(=O)Oc1c(Cc2cc(C)c(O)c(C)c2)c(=O)oc2ccc([O-])cc12 (optimized conformer: 55.541907919259835 kcal/mol)

>  <smiles>  (9) 
CC(=O)Oc1c(Cc2cc(C)c(O)c(C)c2)c(=O)oc2ccc(O)cc12

>  <score_type>  (9) 
oracle

>  <origin>  (9) 
adg

>  <m_score__min__energy>  (9) 
-10.08

>  <m_primary>  (9) 
energy

$$$$
9:0
     RDKit          3D

 40 41  0  0  0  0  0  0  0  0999 V2000
   59.2420   34.7650   44.8610 C   0  0  0  0  0  0  0  0  0  0  0  0
   58.9680   33.7150   45.3870 C   0  0  0  0  0  0  0  0  0  0  0  0
   58.6340   32.4290   46.0340 C   0  0  0  0  0  0  0  0  0  0  0  0
   59.9550   31.7570   46.4620 C   0  0  0  0  0  0  0  0  0  0  0  0
   57.7790   32.7000   47.2840 C   0  0  0  0  0  0  0  0  0  0  0  0
   57.8510   31.5540   45.0600 C   0  0  0  0  0  0  0  0  0  0  0  0
   57.7510   31.8980   43.6990 C   0  0  0  0  0  0  0  0  0  0  0  0
   57.0150   31.0900   42.8350 C   0  0  0  0  0  0  0  0  0  0  0  0
   56.3670   29.9550   43.3230 C   0  0  0  0  0  0  0  0  0  0  0  0
   56.4500   29.6460   44.6950 C   0  0  0  0  0  0  0  0  0  0  0  0
   55.8740   28.5990   45.2170 N   0  0  0  0  0  0  0  0  0  0  0  0
   56.5070   27.4230   45.7500 C   0  0  0  0  0  0  0  0  0  0  0  0
   57.9010   27.3190   45.8410 C   0  0  0  0  0  0  0  0  0  0  0  0
   58.4850   26.1740   46.3030 N   0  0  0  0  0  0  0  0  0  0  0  0
   59.9520   26.0950   46.3840 C   0  0  0  0  0  0  0  0  0  0  0  0
   60.5410   27.4780   46.4830 C   0  0  0  0  0  0  0  0  0  0  0  0
   60.8250   28.2950   45.2590 C   0  0  0  0  0  0  0  0  0  0  0  0
   60.7910   27.9450   47.5840 O   0  0  0  0  0  0  0  0  0  0  0  0
   57.7020   25.0960   46.6310 C   0  0  0  0  0  0  0  0  0  0  0  0
   58.2210   24.0220   47.0390 O   0  0  0  0  0  0  0  0  0  0  0  0
   56.3520   25.1720   46.5110 N   0  0  0  0  0  0  0  0  0  0  0  0
   55.7420   26.3010   46.0720 C   0  0  0  0  0  0  0  0  0  0  0  0
   54.4870   26.3300   45.9650 O   0  0  0  0  0  0  0  0  0  0  0  0
   57.1920   30.4460   45.5070 N   0  0  0  0  0  0  0  0  0  0  0  0
   59.4919   35.7228   44.3812 H   0  0  0  0  0  0  0  0  0  0  0  0
   60.0125   31.7277   47.5601 H   0  0  0  0  0  0  0  0  0  0  0  0
   59.9900   30.7315   46.0655 H   0  0  0  0  0  0  0  0  0  0  0  0
   60.8044   32.3326   46.0655 H   0  0  0  0  0  0  0  0  0  0  0  0
   58.3785   32.5100   48.1865 H   0  0  0  0  0  0  0  0  0  0  0  0
   57.4450   33.7481   47.2796 H   0  0  0  0  0  0  0  0  0  0  0  0
   56.9022   32.0357   47.2796 H   0  0  0  0  0  0  0  0  0  0  0  0
   58.2517   32.8008   43.3191 H   0  0  0  0  0  0  0  0  0  0  0  0
   56.9448   31.3470   41.7678 H   0  0  0  0  0  0  0  0  0  0  0  0
   55.7960   29.3067   42.6421 H   0  0  0  0  0  0  0  0  0  0  0  0
   58.5314   28.1677   45.5374 H   0  0  0  0  0  0  0  0  0  0  0  0
   60.2363   25.5141   47.2737 H   0  0  0  0  0  0  0  0  0  0  0  0
   60.3364   25.6044   45.4776 H   0  0  0  0  0  0  0  0  0  0  0  0
   61.1726   29.2949   45.5581 H   0  0  0  0  0  0  0  0  0  0  0  0
   61.6038   27.8000   44.6603 H   0  0  0  0  0  0  0  0  0  0  0  0
   59.9071   28.3898   44.6603 H   0  0  0  0  0  0  0  0  0  0  0  0
  1  2  3  0
  2  3  1  0
  3  4  1  0
  3  5  1  0
  3  6  1  0
  6  7  2  0
  7  8  1  0
  8  9  2  0
  9 10  1  0
 10 11  2  3
 11 12  1  0
 12 13  2  0
 13 14  1  0
 14 15  1  0
 15 16  1  0
 16 17  1  0
 16 18  2  0
 14 19  1  0
 19 20  2  0
 19 21  1  0
 21 22  1  0
 22 23  2  0
 10 24  1  0
 24  6  1  0
 22 12  1  0
  1 25  1  0
  4 26  1  0
  4 27  1  0
  4 28  1  0
  5 29  1  0
  5 30  1  0
  5 31  1  0
  7 32  1  0
  8 33  1  0
  9 34  1  0
 13 35  1  0
 15 36  1  0
 15 37  1  0
 17 38  1  0
 17 39  1  0
 17 40  1  0
M  CHG  2  21  -1  24  -1
M  END
>  <UniqueID>  (10) 
10

>  <SMILES>  (10) 
C#CC(C)(C)c1cccc(=Nc2cn(CC(C)=O)c(=O)[n-]c2=O)[n-]1

>  <Energy>  (10) 
46.05973982664399

>  <Genealogy>  (10) 
C#CC(C)(C)c1cccc(=Nc2cn(CC(C)=O)c(=O)[n-]c2=O)[n-]1 (protonated)
C#CC(C)(C)c1cccc(=Nc2cn(CC(C)=O)c(=O)[n-]c2=O)[n-]1 (3D coordinates assigned)
C#CC(C)(C)c1cccc(=Nc2cn(CC(C)=O)c(=O)[n-]c2=O)[n-]1 (optimized conformer: 46.05973982664399 kcal/mol)

>  <smiles>  (10) 
C#CC(C)(C)c1cccc(=Nc2cn(CC(C)=O)c(=O)[nH]c2=O)[nH]1

>  <score_type>  (10) 
oracle

>  <origin>  (10) 
adg

>  <m_score__min__energy>  (10) 
-11.539999999999999

>  <m_primary>  (10) 
energy

$$$$
10:0
     RDKit          3D

 37 39  0  0  0  0  0  0  0  0999 V2000
   61.0300   27.5270   46.9020 H   0  0  0  0  0  0  0  0  0  0  0  0
   60.6250   28.3840   46.5470 O   0  0  0  0  0  0  0  0  0  0  0  0
   59.2660   28.5260   46.2490 C   0  0  0  0  0  0  0  0  0  0  0  0
   58.7830   29.7610   45.7730 C   0  0  0  0  0  0  0  0  0  0  0  0
   59.7210   30.8430   45.6250 N   0  0  0  0  0  0  0  0  0  0  0  0
   59.9080   31.7420   46.5040 N   0  0  0  0  0  0  0  0  0  0  0  0
   61.2170   32.1290   46.9370 C   0  0  0  0  0  0  0  0  0  0  0  0
   62.0780   31.2200   47.5810 C   0  0  0  0  0  0  0  0  0  0  0  0
   61.7484   30.1863   47.7620 H   0  0  0  0  0  0  0  0  0  0  0  0
   63.3510   31.6280   47.9910 C   0  0  0  0  0  0  0  0  0  0  0  0
   64.0214   30.9144   48.4923 H   0  0  0  0  0  0  0  0  0  0  0  0
   63.7730   32.9410   47.7650 C   0  0  0  0  0  0  0  0  0  0  0  0
   64.7745   33.2607   48.0887 H   0  0  0  0  0  0  0  0  0  0  0  0
   62.9210   33.8480   47.1270 C   0  0  0  0  0  0  0  0  0  0  0  0
   63.2534   34.8815   46.9495 H   0  0  0  0  0  0  0  0  0  0  0  0
   61.6470   33.4440   46.7140 C   0  0  0  0  0  0  0  0  0  0  0  0
   60.8300   34.3350   46.0960 F   0  0  0  0  0  0  0  0  0  0  0  0
   57.4090   29.9080   45.4780 C   0  0  0  0  0  0  0  0  0  0  0  0
   56.9040   31.1500   44.9710 N   0  0  0  0  0  0  0  0  0  0  0  0
   57.5260   31.9300   43.9410 C   0  0  0  0  0  0  0  0  0  0  0  0
   58.1810   32.9550   44.2620 O   0  0  0  0  0  0  0  0  0  0  0  0
   57.4060   31.5620   42.4930 C   0  0  0  0  0  0  0  0  0  0  0  0
   57.0660   30.5194   42.4066 H   0  0  0  0  0  0  0  0  0  0  0  0
   56.6781   32.2267   42.0049 H   0  0  0  0  0  0  0  0  0  0  0  0
   58.3858   31.6698   42.0049 H   0  0  0  0  0  0  0  0  0  0  0  0
   56.5390   28.8150   45.6150 C   0  0  0  0  0  0  0  0  0  0  0  0
   55.2100   28.9700   45.2270 O   0  0  0  0  0  0  0  0  0  0  0  0
   57.0060   27.5780   46.1080 C   0  0  0  0  0  0  0  0  0  0  0  0
   56.1320   26.4750   46.2860 C   0  0  0  0  0  0  0  0  0  0  0  0
   54.7750   26.5640   45.9910 O   0  0  0  0  0  0  0  0  0  0  0  0
   56.6190   25.2620   46.7690 C   0  0  0  0  0  0  0  0  0  0  0  0
   55.9328   24.4127   46.9026 H   0  0  0  0  0  0  0  0  0  0  0  0
   57.9640   25.1170   47.0830 C   0  0  0  0  0  0  0  0  0  0  0  0
   58.3343   24.1534   47.4629 H   0  0  0  0  0  0  0  0  0  0  0  0
   58.8490   26.1820   46.9210 C   0  0  0  0  0  0  0  0  0  0  0  0
   60.1840   25.9760   47.2550 O   0  0  0  0  0  0  0  0  0  0  0  0
   58.3850   27.4310   46.4310 C   0  0  0  0  0  0  0  0  0  0  0  0
  1  2  1  0
  2  3  1  0
  3  4  2  0
  4  5  1  0
  5  6  2  0
  6  7  1  0
  7  8  2  0
  8  9  1  0
  8 10  1  0
 10 11  1  0
 10 12  2  0
 12 13  1  0
 12 14  1  0
 14 15  1  0
 14 16  2  0
 16 17  1  0
  4 18  1  0
 18 19  1  0
 19 20  1  0
 20 21  2  0
 20 22  1  0
 22 23  1  0
 22 24  1  0
 22 25  1  0
 18 26  2  0
 26 27  1  0
 26 28  1  0
 28 29  2  0
 29 30  1  0
 29 31  1  0
 31 32  1  0
 31 33  2  0
 33 34  1  0
 33 35  1  0
 35 36  1  0
 35 37  2  0
 37  3  1  0
 16  7  1  0
 37 28  1  0
M  CHG  4  19  -1  27  -1  30  -1  36  -1
M  END
>  <UniqueID>  (11) 
11

>  <SMILES>  (11) 
CC(=O)[N-]c1c(/N=N/c2ccccc2F)c(O)c2c([O-])ccc([O-])c2c1[O-]

>  <Energy>  (11) 
58.12835011314152

>  <Genealogy>  (11) 
CC(=O)[N-]c1c(N=Nc2ccccc2F)c(O)c2c([O-])ccc([O-])c2c1[O-] (protonated)
CC(=O)[N-]c1c(/N=N/c2ccccc2F)c(O)c2c([O-])ccc([O-])c2c1[O-] (cis-trans isomerization)
CC(=O)[N-]c1c(/N=N/c2ccccc2F)c(O)c2c([O-])ccc([O-])c2c1[O-] (3D coordinates assigned)
CC(=O)[N-]c1c(/N=N/c2ccccc2F)c(O)c2c([O-])ccc([O-])c2c1[O-] (optimized conformer: 58.12835011314152 kcal/mol)

>  <smiles>  (11) 
CC(=O)Nc1c(N=Nc2ccccc2F)c(O)c2c(O)ccc(O)c2c1O

>  <score_type>  (11) 
oracle

>  <origin>  (11) 
adg

>  <m_score__min__energy>  (11) 
-17.27

>  <m_primary>  (11) 
energy

$$$$
11:0
     RDKit          3D

 53 56  0  0  0  0  0  0  0  0999 V2000
   59.2540   30.0630   48.0970 C   0  0  0  0  0  0  0  0  0  0  0  0
   58.8300   30.4040   46.8700 C   0  0  0  0  0  0  0  0  0  0  0  0
   58.4970   29.5280   45.8300 C   0  0  0  0  0  0  0  0  0  0  0  0
   58.5560   28.1840   45.8480 C   0  0  0  0  0  0  0  0  0  0  0  0
   57.3870   27.3100   46.0560 C   0  0  0  0  0  0  0  0  0  0  0  0
   57.4650   26.0970   46.6300 N   0  0  0  0  0  0  0  0  0  0  0  0
   56.1990   25.6300   46.5560 C   0  0  0  0  0  0  0  0  0  0  0  0
   55.8630   24.5080   47.0140 O   0  0  0  0  0  0  0  0  0  0  0  0
   55.3250   26.4580   45.9450 N   0  0  0  0  0  0  0  0  0  0  0  0
   56.0940   27.5120   45.6220 C   0  0  0  0  0  0  0  0  0  0  0  0
   55.6380   28.6100   44.8990 O   0  0  0  0  0  0  0  0  0  0  0  0
   58.0300   30.3200   44.7880 C   0  0  0  0  0  0  0  0  0  0  0  0
   58.1180   31.6290   45.2130 C   0  0  0  0  0  0  0  0  0  0  0  0
   57.6850   32.8170   44.4100 C   0  0  0  0  0  0  0  0  0  0  0  0
   58.6120   31.6840   46.4690 N   0  0  0  0  0  0  0  0  0  0  0  0
   58.8380   32.8880   47.2240 C   0  0  0  0  0  0  0  0  0  0  0  0
   57.8500   33.5780   47.6000 O   0  0  0  0  0  0  0  0  0  0  0  0
   60.1770   33.3280   47.5240 N   0  0  0  0  0  0  0  0  0  0  0  0
   61.2490   33.0070   46.5690 C   0  0  0  0  0  0  0  0  0  0  0  0
   62.5990   33.5660   47.0010 C   0  0  0  0  0  0  0  0  0  0  0  0
   62.7340   33.3980   48.4500 N   0  0  0  0  0  0  0  0  0  0  0  0
   64.1380   33.4620   48.9210 C   0  0  0  0  0  0  0  0  0  0  0  0
   64.5310   32.3410   49.8680 C   0  0  0  0  0  0  0  0  0  0  0  0
   63.5530   31.4520   50.3510 C   0  0  0  0  0  0  0  0  0  0  0  0
   63.9010   30.4220   51.2290 C   0  0  0  0  0  0  0  0  0  0  0  0
   65.2300   30.2580   51.6190 C   0  0  0  0  0  0  0  0  0  0  0  0
   65.5660   29.2540   52.4630 F   0  0  0  0  0  0  0  0  0  0  0  0
   66.2150   31.1170   51.1230 C   0  0  0  0  0  0  0  0  0  0  0  0
   65.8740   32.1520   50.2490 C   0  0  0  0  0  0  0  0  0  0  0  0
   66.8560   32.9530   49.7610 F   0  0  0  0  0  0  0  0  0  0  0  0
   61.8450   34.3400   49.1500 C   0  0  0  0  0  0  0  0  0  0  0  0
   60.3750   34.2130   48.6870 C   0  0  0  0  0  0  0  0  0  0  0  0
   59.4868   30.8444   48.8354 H   0  0  0  0  0  0  0  0  0  0  0  0
   59.3687   29.0021   48.3642 H   0  0  0  0  0  0  0  0  0  0  0  0
   59.5364   27.7081   45.6984 H   0  0  0  0  0  0  0  0  0  0  0  0
   55.8420   28.6980   43.9110 H   0  0  0  0  0  0  0  0  0  0  0  0
   57.6613   29.9703   43.8124 H   0  0  0  0  0  0  0  0  0  0  0  0
   57.3886   33.6302   45.0889 H   0  0  0  0  0  0  0  0  0  0  0  0
   58.5180   33.1542   43.7757 H   0  0  0  0  0  0  0  0  0  0  0  0
   56.8304   32.5391   43.7757 H   0  0  0  0  0  0  0  0  0  0  0  0
   61.3305   31.9133   46.4840 H   0  0  0  0  0  0  0  0  0  0  0  0
   60.9882   33.4681   45.6050 H   0  0  0  0  0  0  0  0  0  0  0  0
   63.4062   33.0222   46.4884 H   0  0  0  0  0  0  0  0  0  0  0  0
   62.6646   34.6324   46.7392 H   0  0  0  0  0  0  0  0  0  0  0  0
   64.7985   33.4184   48.0425 H   0  0  0  0  0  0  0  0  0  0  0  0
   64.2387   34.4010   49.4851 H   0  0  0  0  0  0  0  0  0  0  0  0
   62.5059   31.5688   50.0348 H   0  0  0  0  0  0  0  0  0  0  0  0
   63.1270   29.7408   51.6124 H   0  0  0  0  0  0  0  0  0  0  0  0
   67.2642   30.9772   51.4225 H   0  0  0  0  0  0  0  0  0  0  0  0
   61.8946   34.1373   50.2300 H   0  0  0  0  0  0  0  0  0  0  0  0
   62.1846   35.3600   48.9170 H   0  0  0  0  0  0  0  0  0  0  0  0
   59.7832   33.8170   49.5254 H   0  0  0  0  0  0  0  0  0  0  0  0
   60.0563   35.2183   48.3744 H   0  0  0  0  0  0  0  0  0  0  0  0
  1  2  2  0
  2  3  1  0
  3  4  2  3
  4  5  1  0
  5  6  1  0
  6  7  1  0
  7  8  2  0
  7  9  1  0
  9 10  1  0
 10 11  1  0
  3 12  1  0
 12 13  2  0
 13 14  1  0
 13 15  1  0
 15 16  1  0
 16 17  2  0
 16 18  1  0
 18 19  1  0
 19 20  1  0
 20 21  1  0
 21 22  1  0
 22 23  1  0
 23 24  2  0
 24 25  1  0
 25 26  2  0
 26 27  1  0
 26 28  1  0
 28 29  2  0
 29 30  1  0
 21 31  1  0
 31 32  1  0
 15  2  1  0
 32 18  1  0
 10  5  2  0
 29 23  1  0
  1 33  1  0
  1 34  1  0
  4 35  1  0
 11 36  1  0
 12 37  1  0
 14 38  1  0
 14 39  1  0
 14 40  1  0
 19 41  1  0
 19 42  1  0
 20 43  1  0
 20 44  1  0
 22 45  1  0
 22 46  1  0
 24 47  1  0
 25 48  1  0
 28 49  1  0
 31 50  1  0
 31 51  1  0
 32 52  1  0
 32 53  1  0
M  CHG  2   6  -1   9  -1
M  END
>  <UniqueID>  (12) 
12

>  <SMILES>  (12) 
C=c1c(=Cc2[n-]c(=O)[n-]c2O)cc(C)n1C(=O)N1CCN(Cc2ccc(F)cc2F)CC1

>  <Energy>  (12) 
133.94371739455246

>  <Genealogy>  (12) 
C=c1c(=Cc2[n-]c(=O)[n-]c2O)cc(C)n1C(=O)N1CCN(Cc2ccc(F)cc2F)CC1 (protonated)
C=c1c(=Cc2[n-]c(=O)[n-]c2O)cc(C)n1C(=O)N1CCN(Cc2ccc(F)cc2F)CC1 (3D coordinates assigned)
C=c1c(=Cc2[n-]c(=O)[n-]c2O)cc(C)n1C(=O)N1CCN(Cc2ccc(F)cc2F)CC1 (nonaromatic ring conformer: 133.94371739455246 kcal/mol)

>  <smiles>  (12) 
C=c1c(=Cc2[nH]c(=O)[nH]c2O)cc(C)n1C(=O)N1CCN(Cc2ccc(F)cc2F)CC1

>  <score_type>  (12) 
oracle

>  <origin>  (12) 
adg

>  <m_score__min__energy>  (12) 
-13.43

>  <m_primary>  (12) 
energy

$$$$
12:0
     RDKit          3D

 53 56  0  0  0  0  0  0  0  0999 V2000
   55.2750   30.0900   45.6610 H   0  0  0  0  0  0  0  0  0  0  0  0
   55.4920   29.3580   44.9950 O   0  0  0  0  0  0  0  0  0  0  0  0
   56.2680   28.2660   45.3720 C   0  0  0  0  0  0  0  0  0  0  0  0
   55.7630   27.1060   45.8240 N   0  0  0  0  0  0  0  0  0  0  0  0
   56.8720   26.3890   46.1040 C   0  0  0  0  0  0  0  0  0  0  0  0
   56.8250   25.2190   46.5670 O   0  0  0  0  0  0  0  0  0  0  0  0
   58.0370   27.0280   45.8590 N   0  0  0  0  0  0  0  0  0  0  0  0
   57.6440   28.2130   45.3610 C   0  0  0  0  0  0  0  0  0  0  0  0
   58.5690   29.3140   45.0580 C   0  0  0  0  0  0  0  0  0  0  0  0
   59.6454   29.0909   45.0970 H   0  0  0  0  0  0  0  0  0  0  0  0
   58.2110   30.5790   44.7350 C   0  0  0  0  0  0  0  0  0  0  0  0
   58.5280   31.7900   45.3820 C   0  0  0  0  0  0  0  0  0  0  0  0
   59.1570   32.0110   46.7460 C   0  0  0  0  0  0  0  0  0  0  0  0
   58.4050   32.4586   47.4125 H   0  0  0  0  0  0  0  0  0  0  0  0
   59.4982   31.0337   47.1180 H   0  0  0  0  0  0  0  0  0  0  0  0
   60.3570   32.9230   46.6900 C   0  0  0  0  0  0  0  0  0  0  0  0
   60.4390   33.7660   45.7580 O   0  0  0  0  0  0  0  0  0  0  0  0
   61.4480   32.7940   47.6240 N   0  0  0  0  0  0  0  0  0  0  0  0
   62.8080   32.6680   47.0800 C   0  0  0  0  0  0  0  0  0  0  0  0
   63.0367   31.6038   46.9211 H   0  0  0  0  0  0  0  0  0  0  0  0
   62.8610   33.2149   46.1271 H   0  0  0  0  0  0  0  0  0  0  0  0
   63.8300   33.2620   48.0460 C   0  0  0  0  0  0  0  0  0  0  0  0
   64.8444   32.9871   47.7213 H   0  0  0  0  0  0  0  0  0  0  0  0
   63.7323   34.3576   48.0552 H   0  0  0  0  0  0  0  0  0  0  0  0
   63.5900   32.7390   49.3930 N   0  0  0  0  0  0  0  0  0  0  0  0
   64.6510   32.1420   50.1600 C   0  0  0  0  0  0  0  0  0  0  0  0
   64.4070   31.0030   50.9480 C   0  0  0  0  0  0  0  0  0  0  0  0
   63.3955   30.5730   50.9912 H   0  0  0  0  0  0  0  0  0  0  0  0
   65.4460   30.4150   51.6770 C   0  0  0  0  0  0  0  0  0  0  0  0
   65.2494   29.5251   52.2930 H   0  0  0  0  0  0  0  0  0  0  0  0
   66.7330   30.9560   51.6240 C   0  0  0  0  0  0  0  0  0  0  0  0
   67.5486   30.4913   52.1975 H   0  0  0  0  0  0  0  0  0  0  0  0
   66.9850   32.0870   50.8430 C   0  0  0  0  0  0  0  0  0  0  0  0
   67.9988   32.5119   50.8014 H   0  0  0  0  0  0  0  0  0  0  0  0
   65.9480   32.6790   50.1140 C   0  0  0  0  0  0  0  0  0  0  0  0
   66.1496   33.5701   49.5013 H   0  0  0  0  0  0  0  0  0  0  0  0
   62.2540   32.9290   49.9630 C   0  0  0  0  0  0  0  0  0  0  0  0
   62.1911   32.4066   50.9290 H   0  0  0  0  0  0  0  0  0  0  0  0
   62.0709   34.0035   50.1111 H   0  0  0  0  0  0  0  0  0  0  0  0
   61.1990   32.3620   49.0080 C   0  0  0  0  0  0  0  0  0  0  0  0
   61.2287   31.2633   49.0519 H   0  0  0  0  0  0  0  0  0  0  0  0
   60.2118   32.7357   49.3175 H   0  0  0  0  0  0  0  0  0  0  0  0
   57.9580   32.7970   44.6070 C   0  0  0  0  0  0  0  0  0  0  0  0
   57.9930   34.2680   44.8830 C   0  0  0  0  0  0  0  0  0  0  0  0
   57.9970   34.4371   45.9699 H   0  0  0  0  0  0  0  0  0  0  0  0
   58.9017   34.7025   44.4409 H   0  0  0  0  0  0  0  0  0  0  0  0
   57.1060   34.7452   44.4409 H   0  0  0  0  0  0  0  0  0  0  0  0
   57.2650   32.2700   43.5830 N   0  0  0  0  0  0  0  0  0  0  0  0
   56.7190   32.8080   42.8710 H   0  0  0  0  0  0  0  0  0  0  0  0
   57.3970   30.9340   43.6520 C   0  0  0  0  0  0  0  0  0  0  0  0
   56.8270   30.1150   42.7590 C   0  0  0  0  0  0  0  0  0  0  0  0
   56.9580   29.0265   42.8489 H   0  0  0  0  0  0  0  0  0  0  0  0
   56.2278   30.5307   41.9355 H   0  0  0  0  0  0  0  0  0  0  0  0
  1  2  1  0
  2  3  1  0
  3  4  1  0
  4  5  1  0
  5  6  2  0
  5  7  1  0
  7  8  1  0
  8  9  1  0
  9 10  1  0
  9 11  2  0
 11 12  1  0
 12 13  1  0
 13 14  1  0
 13 15  1  0
 13 16  1  0
 16 17  2  0
 16 18  1  0
 18 19  1  0
 19 20  1  0
 19 21  1  0
 19 22  1  0
 22 23  1  0
 22 24  1  0
 22 25  1  0
 25 26  1  0
 26 27  2  0
 27 28  1  0
 27 29  1  0
 29 30  1  0
 29 31  2  0
 31 32  1  0
 31 33  1  0
 33 34  1  0
 33 35  2  0
 35 36  1  0
 25 37  1  0
 37 38  1  0
 37 39  1  0
 37 40  1  0
 40 41  1  0
 40 42  1  0
 12 43  2  0
 43 44  1  0
 44 45  1  0
 44 46  1  0
 44 47  1  0
 43 48  1  0
 48 49  1  0
 48 50  1  0
 50 51  2  0
 51 52  1  0
 51 53  1  0
  8  3  2  0
 50 11  1  0
 40 18  1  0
 35 26  1  0
M  CHG  2   4  -1   7  -1
M  END
>  <UniqueID>  (13) 
13

>  <SMILES>  (13) 
C=c1[nH]c(C)c(CC(=O)N2CCN(c3ccccc3)CC2)/c1=C\c1[n-]c(=O)[n-]c1O

>  <Energy>  (13) 
128.78881280992428

>  <Genealogy>  (13) 
C=c1[nH]c(C)c(CC(=O)N2CCN(c3ccccc3)CC2)c1=Cc1[n-]c(=O)[n-]c1O (protonated)
C=c1[nH]c(C)c(CC(=O)N2CCN(c3ccccc3)CC2)/c1=C\c1[n-]c(=O)[n-]c1O (cis-trans isomerization)
C=c1[nH]c(C)c(CC(=O)N2CCN(c3ccccc3)CC2)/c1=C\c1[n-]c(=O)[n-]c1O (3D coordinates assigned)
C=c1[nH]c(C)c(CC(=O)N2CCN(c3ccccc3)CC2)/c1=C\c1[n-]c(=O)[n-]c1O (nonaromatic ring conformer: 128.78881280992428 kcal/mol)

>  <smiles>  (13) 
C=c1[nH]c(C)c(CC(=O)N2CCN(c3ccccc3)CC2)c1=Cc1[nH]c(=O)[nH]c1O

>  <score_type>  (13) 
oracle

>  <origin>  (13) 
adg

>  <m_score__min__energy>  (13) 
-13.619999999999999

>  <m_primary>  (13) 
energy

$$$$
13:0
     RDKit          3D

 46 48  0  0  0  0  0  0  0  0999 V2000
   59.0760   27.9910   46.2350 O   0  0  0  0  0  0  0  0  0  0  0  0
   57.9530   27.4080   46.0910 C   0  0  0  0  0  0  0  0  0  0  0  0
   57.6660   26.0840   46.6950 C   0  0  0  0  0  0  0  0  0  0  0  0
   57.2310   25.0950   45.6750 C   0  0  0  0  0  0  0  0  0  0  0  0
   58.0810   24.2740   45.0320 N   0  0  0  0  0  0  0  0  0  0  0  0
   57.6400   23.4000   44.1220 N   0  0  0  0  0  0  0  0  0  0  0  0
   56.3090   23.3520   43.8540 C   0  0  0  0  0  0  0  0  0  0  0  0
   55.8970   22.5140   42.9830 O   0  0  0  0  0  0  0  0  0  0  0  0
   55.4180   24.1460   44.4660 N   0  0  0  0  0  0  0  0  0  0  0  0
   55.8860   25.0160   45.3770 C   0  0  0  0  0  0  0  0  0  0  0  0
   55.0670   25.7870   45.9800 O   0  0  0  0  0  0  0  0  0  0  0  0
   56.8960   28.0050   45.3320 N   0  0  0  0  0  0  0  0  0  0  0  0
   57.0460   29.2750   44.7010 C   0  0  0  0  0  0  0  0  0  0  0  0
   56.8050   29.2970   43.3220 C   0  0  0  0  0  0  0  0  0  0  0  0
   56.9280   30.4830   42.6350 C   0  0  0  0  0  0  0  0  0  0  0  0
   57.2850   31.6400   43.2990 C   0  0  0  0  0  0  0  0  0  0  0  0
   57.5170   31.5990   44.6580 C   0  0  0  0  0  0  0  0  0  0  0  0
   57.9750   33.0760   45.5150 S   0  0  0  0  0  0  0  0  0  0  0  0
   57.8870   34.2530   44.5530 O   0  0  0  0  0  0  0  0  0  0  0  0
   57.0130   33.3460   46.6100 O   0  0  0  0  0  0  0  0  0  0  0  0
   59.6010   32.9480   45.9840 N   0  0  0  0  0  0  0  0  0  0  0  0
   59.8650   31.8810   46.9090 C   0  0  0  0  0  0  0  0  0  0  0  0
   59.5640   32.2250   48.3330 C   0  0  0  0  0  0  0  0  0  0  0  0
   59.5580   33.6650   48.6610 C   0  0  0  0  0  0  0  0  0  0  0  0
   60.2470   34.5850   47.7010 C   0  0  0  0  0  0  0  0  0  0  0  0
   60.2690   34.1670   46.2830 C   0  0  0  0  0  0  0  0  0  0  0  0
   57.4040   30.4170   45.3920 C   0  0  0  0  0  0  0  0  0  0  0  0
   58.5771   25.7117   47.1862 H   0  0  0  0  0  0  0  0  0  0  0  0
   56.8487   26.2090   47.4205 H   0  0  0  0  0  0  0  0  0  0  0  0
   58.3000   22.7640   43.6220 H   0  0  0  0  0  0  0  0  0  0  0  0
   54.4010   24.0890   44.2420 H   0  0  0  0  0  0  0  0  0  0  0  0
   55.9670   27.4980   45.2260 H   0  0  0  0  0  0  0  0  0  0  0  0
   56.5202   28.3755   42.7930 H   0  0  0  0  0  0  0  0  0  0  0  0
   56.7410   30.5095   41.5513 H   0  0  0  0  0  0  0  0  0  0  0  0
   57.3836   32.5871   42.7483 H   0  0  0  0  0  0  0  0  0  0  0  0
   59.2489   31.0154   46.6242 H   0  0  0  0  0  0  0  0  0  0  0  0
   60.9429   31.6691   46.8527 H   0  0  0  0  0  0  0  0  0  0  0  0
   58.5702   31.8201   48.5748 H   0  0  0  0  0  0  0  0  0  0  0  0
   60.3823   31.7883   48.9243 H   0  0  0  0  0  0  0  0  0  0  0  0
   58.5078   33.9848   48.7310 H   0  0  0  0  0  0  0  0  0  0  0  0
   60.1317   33.7469   49.5960 H   0  0  0  0  0  0  0  0  0  0  0  0
   59.7421   35.5609   47.7534 H   0  0  0  0  0  0  0  0  0  0  0  0
   61.3008   34.5965   48.0162 H   0  0  0  0  0  0  0  0  0  0  0  0
   59.7974   34.9640   45.6894 H   0  0  0  0  0  0  0  0  0  0  0  0
   61.3278   33.9932   46.0405 H   0  0  0  0  0  0  0  0  0  0  0  0
   57.5921   30.3955   46.4756 H   0  0  0  0  0  0  0  0  0  0  0  0
  1  2  2  0
  2  3  1  0
  3  4  1  0
  4  5  2  0
  5  6  1  0
  6  7  1  0
  7  8  2  0
  7  9  1  0
  9 10  1  0
 10 11  2  0
  2 12  1  0
 12 13  1  0
 13 14  2  0
 14 15  1  0
 15 16  2  0
 16 17  1  0
 17 18  1  0
 18 19  2  0
 18 20  2  0
 18 21  1  0
 21 22  1  0
 22 23  1  0
 23 24  1  0
 24 25  1  0
 25 26  1  0
 17 27  2  0
 10  4  1  0
 27 13  1  0
 26 21  1  0
  3 28  1  0
  3 29  1  0
  6 30  1  0
  9 31  1  0
 12 32  1  0
 14 33  1  0
 15 34  1  0
 16 35  1  0
 22 36  1  0
 22 37  1  0
 23 38  1  0
 23 39  1  0
 24 40  1  0
 24 41  1  0
 25 42  1  0
 25 43  1  0
 26 44  1  0
 26 45  1  0
 27 46  1  0
M  END
>  <smiles>  (14) 
O=C(Cc1n[nH]c(=O)[nH]c1=O)Nc1cccc(S(=O)(=O)N2CCCCC2)c1

>  <score_type>  (14) 
oracle

>  <origin>  (14) 
adg

>  <m_score__min__energy>  (14) 
-9.7100000000000009

>  <m_primary>  (14) 
energy

$$$$
14:0
     RDKit          3D

 34 36  0  0  0  0  0  0  0  0999 V2000
   59.6240   28.9470   46.7130 O   0  0  0  0  0  0  0  0  0  0  0  0
   58.9780   29.9140   47.1650 N   0  0  0  0  0  0  0  0  0  0  0  0
   58.5000   29.8460   48.4510 O   0  0  0  0  0  0  0  0  0  0  0  0
   58.5720   30.9810   46.2900 C   0  0  0  0  0  0  0  0  0  0  0  0
   59.0480   32.2810   46.5360 C   0  0  0  0  0  0  0  0  0  0  0  0
   58.6990   33.3390   45.6960 C   0  0  0  0  0  0  0  0  0  0  0  0
   57.8670   33.1160   44.6010 C   0  0  0  0  0  0  0  0  0  0  0  0
   57.3700   31.8360   44.3510 C   0  0  0  0  0  0  0  0  0  0  0  0
   57.7020   30.7610   45.1910 C   0  0  0  0  0  0  0  0  0  0  0  0
   56.9320   29.1920   44.8930 S   0  0  0  0  0  0  0  0  0  0  0  0
   57.4280   28.6450   43.5850 O   0  0  0  0  0  0  0  0  0  0  0  0
   55.4380   29.3430   44.8140 O   0  0  0  0  0  0  0  0  0  0  0  0
   57.3090   28.0810   46.1730 N   0  0  0  0  0  0  0  0  0  0  0  0
   57.2650   26.6530   46.0070 C   0  0  0  0  0  0  0  0  0  0  0  0
   58.4490   25.8970   45.9160 C   0  0  0  0  0  0  0  0  0  0  0  0
   58.3940   24.5100   45.7260 C   0  0  0  0  0  0  0  0  0  0  0  0
   59.5650   23.7480   45.6190 C   0  0  0  0  0  0  0  0  0  0  0  0
   59.4880   22.4030   45.4340 N   0  0  0  0  0  0  0  0  0  0  0  0
   58.2960   21.7580   45.3460 C   0  0  0  0  0  0  0  0  0  0  0  0
   57.1010   22.4720   45.4460 C   0  0  0  0  0  0  0  0  0  0  0  0
   57.1440   23.8610   45.6370 C   0  0  0  0  0  0  0  0  0  0  0  0
   55.9650   24.6100   45.7430 C   0  0  0  0  0  0  0  0  0  0  0  0
   56.0240   25.9950   45.9280 C   0  0  0  0  0  0  0  0  0  0  0  0
   54.8390   26.7170   46.0170 O   0  0  0  0  0  0  0  0  0  0  0  0
   59.7028   32.4660   47.4003 H   0  0  0  0  0  0  0  0  0  0  0  0
   59.0812   34.3504   45.8986 H   0  0  0  0  0  0  0  0  0  0  0  0
   57.6017   33.9490   43.9333 H   0  0  0  0  0  0  0  0  0  0  0  0
   56.7110   31.6675   43.4865 H   0  0  0  0  0  0  0  0  0  0  0  0
   57.4350   28.4840   47.1280 H   0  0  0  0  0  0  0  0  0  0  0  0
   59.4246   26.3990   45.9947 H   0  0  0  0  0  0  0  0  0  0  0  0
   60.5475   24.2383   45.6847 H   0  0  0  0  0  0  0  0  0  0  0  0
   58.2724   20.6686   45.1953 H   0  0  0  0  0  0  0  0  0  0  0  0
   56.1349   21.9507   45.3757 H   0  0  0  0  0  0  0  0  0  0  0  0
   54.9889   24.1068   45.6805 H   0  0  0  0  0  0  0  0  0  0  0  0
  1  2  2  0
  2  3  1  0
  2  4  1  0
  4  5  2  0
  5  6  1  0
  6  7  2  0
  7  8  1  0
  8  9  2  0
  9 10  1  0
 10 11  2  0
 10 12  2  0
 10 13  1  0
 13 14  1  0
 14 15  2  0
 15 16  1  0
 16 17  2  0
 17 18  1  0
 18 19  2  0
 19 20  1  0
 20 21  2  0
 21 22  1  0
 22 23  2  0
 23 24  1  0
  9  4  1  0
 23 14  1  0
 21 16  1  0
  5 25  1  0
  6 26  1  0
  7 27  1  0
  8 28  1  0
 13 29  1  0
 15 30  1  0
 17 31  1  0
 19 32  1  0
 20 33  1  0
 22 34  1  0
M  CHG  3   2   1   3  -1  24  -1
M  END
>  <UniqueID>  (15) 
14

>  <SMILES>  (15) 
O=[N+]([O-])c1ccccc1S(=O)(=O)Nc1cc2cnccc2cc1[O-]

>  <Energy>  (15) 
49.921581228955525

>  <Genealogy>  (15) 
O=[N+]([O-])c1ccccc1S(=O)(=O)Nc1cc2cnccc2cc1[O-] (protonated)
O=[N+]([O-])c1ccccc1S(=O)(=O)Nc1cc2cnccc2cc1[O-] (3D coordinates assigned)
O=[N+]([O-])c1ccccc1S(=O)(=O)Nc1cc2cnccc2cc1[O-] (optimized conformer: 49.921581228955525 kcal/mol)

>  <smiles>  (15) 
O=[N+]([O-])c1ccccc1S(=O)(=O)Nc1cc2cnccc2cc1O

>  <score_type>  (15) 
oracle

>  <origin>  (15) 
adg

>  <m_score__min__energy>  (15) 
-12.18

>  <m_primary>  (15) 
energy

$$$$
15:0
     RDKit          3D

 39 40  0  0  0  0  0  0  0  0999 V2000
   55.5280   29.7190   43.8300 C   0  0  0  0  0  0  0  0  0  0  0  0
   56.9680   30.0820   43.7070 C   0  0  0  0  0  0  0  0  0  0  0  0
   57.4480   31.0680   44.7060 C   0  0  0  0  0  0  0  0  0  0  0  0
   57.0050   32.3540   44.6250 N   0  0  0  0  0  0  0  0  0  0  0  0
   57.3590   33.3210   45.4550 C   0  0  0  0  0  0  0  0  0  0  0  0
   56.8590   34.5170   45.2690 N   0  0  0  0  0  0  0  0  0  0  0  0
   58.2090   33.0520   46.4520 N   0  0  0  0  0  0  0  0  0  0  0  0
   58.6880   31.7930   46.5880 C   0  0  0  0  0  0  0  0  0  0  0  0
   59.6240   31.5380   47.6970 C   0  0  0  0  0  0  0  0  0  0  0  0
   58.3220   30.7690   45.7220 C   0  0  0  0  0  0  0  0  0  0  0  0
   58.8420   29.4200   45.8750 C   0  0  0  0  0  0  0  0  0  0  0  0
   60.1480   29.0850   45.5070 C   0  0  0  0  0  0  0  0  0  0  0  0
   60.5440   27.7760   45.6940 C   0  0  0  0  0  0  0  0  0  0  0  0
   59.7210   26.8050   46.2190 C   0  0  0  0  0  0  0  0  0  0  0  0
   58.4410   27.1300   46.5810 C   0  0  0  0  0  0  0  0  0  0  0  0
   57.5010   26.2200   47.1280 N   0  0  0  0  0  0  0  0  0  0  0  0
   56.2320   25.4870   46.2260 S   0  0  0  0  0  0  0  0  0  0  0  0
   56.8290   24.8370   44.6880 C   0  0  0  0  0  0  0  0  0  0  0  0
   55.6280   24.4010   47.0790 O   0  0  0  0  0  0  0  0  0  0  0  0
   55.1490   26.5180   46.0160 O   0  0  0  0  0  0  0  0  0  0  0  0
   58.0200   28.4450   46.4010 C   0  0  0  0  0  0  0  0  0  0  0  0
   55.2567   29.6506   44.8938 H   0  0  0  0  0  0  0  0  0  0  0  0
   54.9126   30.4901   43.3435 H   0  0  0  0  0  0  0  0  0  0  0  0
   55.3517   28.7483   43.3435 H   0  0  0  0  0  0  0  0  0  0  0  0
   57.5632   29.1638   43.8190 H   0  0  0  0  0  0  0  0  0  0  0  0
   57.0847   30.5571   42.7218 H   0  0  0  0  0  0  0  0  0  0  0  0
   55.9320   34.6880   45.7330 H   0  0  0  0  0  0  0  0  0  0  0  0
   58.4850   33.8210   47.1040 H   0  0  0  0  0  0  0  0  0  0  0  0
   59.1038   31.6797   48.6558 H   0  0  0  0  0  0  0  0  0  0  0  0
   59.9974   30.5054   47.6316 H   0  0  0  0  0  0  0  0  0  0  0  0
   60.4696   32.2385   47.6316 H   0  0  0  0  0  0  0  0  0  0  0  0
   60.8333   29.8349   45.0850 H   0  0  0  0  0  0  0  0  0  0  0  0
   61.5685   27.4944   45.4093 H   0  0  0  0  0  0  0  0  0  0  0  0
   60.0889   25.7762   46.3466 H   0  0  0  0  0  0  0  0  0  0  0  0
   57.6280   26.0080   48.1620 H   0  0  0  0  0  0  0  0  0  0  0  0
   57.5609   24.0401   44.8861 H   0  0  0  0  0  0  0  0  0  0  0  0
   55.9867   24.4263   44.1119 H   0  0  0  0  0  0  0  0  0  0  0  0
   57.3097   25.6414   44.1119 H   0  0  0  0  0  0  0  0  0  0  0  0
   56.9937   28.7165   46.6890 H   0  0  0  0  0  0  0  0  0  0  0  0
  1  2  1  0
  2  3  1  0
  3  4  2  0
  4  5  1  0
  5  6  2  3
  5  7  1  0
  7  8  1  0
  8  9  1  0
  8 10  2  0
 10 11  1  0
 11 12  2  0
 12 13  1  0
 13 14  2  0
 14 15  1  0
 15 16  1  0
 16 17  1  0
 17 18  1  0
 17 19  2  0
 17 20  2  0
 15 21  2  0
 10  3  1  0
 21 11  1  0
  1 22  1  0
  1 23  1  0
  1 24  1  0
  2 25  1  0
  2 26  1  0
  6 27  1  0
  7 28  1  0
  9 29  1  0
  9 30  1  0
  9 31  1  0
 12 32  1  0
 13 33  1  0
 14 34  1  0
 16 35  1  0
 18 36  1  0
 18 37  1  0
 18 38  1  0
 21 39  1  0
M  END
>  <smiles>  (16) 
CCc1nc(=N)[nH]c(C)c1-c1cccc(NS(C)(=O)=O)c1

>  <score_type>  (16) 
oracle

>  <origin>  (16) 
adg

>  <m_score__min__energy>  (16) 
-8.0500000000000007

>  <m_primary>  (16) 
energy

$$$$
16:0
     RDKit          3D

 54 57  0  0  0  0  0  0  0  0999 V2000
   53.6300   28.6790   53.1660 C   0  0  0  0  0  0  0  0  0  0  0  0
   54.5710   29.4640   52.6060 C   0  0  0  0  0  0  0  0  0  0  0  0
   54.3530   30.5560   51.7480 C   0  0  0  0  0  0  0  0  0  0  0  0
   53.2420   30.9720   51.1110 C   0  0  0  0  0  0  0  0  0  0  0  0
   52.0480   31.5380   51.7540 C   0  0  0  0  0  0  0  0  0  0  0  0
   51.7940   31.4420   53.0710 N   0  0  0  0  0  0  0  0  0  0  0  0
   50.6610   32.1620   53.2230 C   0  0  0  0  0  0  0  0  0  0  0  0
   50.0890   32.2980   54.3350 O   0  0  0  0  0  0  0  0  0  0  0  0
   50.1930   32.7320   52.0880 N   0  0  0  0  0  0  0  0  0  0  0  0
   51.0890   32.3370   51.1700 C   0  0  0  0  0  0  0  0  0  0  0  0
   51.0420   32.7150   49.8330 O   0  0  0  0  0  0  0  0  0  0  0  0
   55.5690   31.2090   51.6380 C   0  0  0  0  0  0  0  0  0  0  0  0
   56.4940   30.4700   52.3510 C   0  0  0  0  0  0  0  0  0  0  0  0
   57.9270   30.9050   52.5400 C   0  0  0  0  0  0  0  0  0  0  0  0
   58.8480   30.0850   51.6720 C   0  0  0  0  0  0  0  0  0  0  0  0
   59.3420   29.0620   52.1290 O   0  0  0  0  0  0  0  0  0  0  0  0
   59.1360   30.4960   50.3100 N   0  0  1  0  0  0  0  0  0  0  0  0
   60.3680   31.3190   50.2670 C   0  0  0  0  0  0  0  0  0  0  0  0
   61.0350   31.3800   48.8680 C   0  0  0  0  0  0  0  0  0  0  0  0
   60.1360   30.9700   47.6720 C   0  0  2  0  0  0  0  0  0  0  0  0
   59.3500   32.1250   47.0600 C   0  0  0  0  0  0  0  0  0  0  0  0
   59.6040   33.4750   47.3840 C   0  0  0  0  0  0  0  0  0  0  0  0
   58.8250   34.4980   46.8300 C   0  0  0  0  0  0  0  0  0  0  0  0
   57.7700   34.1890   45.9700 C   0  0  0  0  0  0  0  0  0  0  0  0
   57.4880   32.8540   45.6600 C   0  0  0  0  0  0  0  0  0  0  0  0
   58.2690   31.8280   46.2040 C   0  0  0  0  0  0  0  0  0  0  0  0
   59.2220   29.7510   47.9600 C   0  0  0  0  0  0  0  0  0  0  0  0
   59.2350   29.3170   49.4320 C   0  0  0  0  0  0  0  0  0  0  0  0
   55.8910   29.3940   52.9260 N   0  0  0  0  0  0  0  0  0  0  0  0
   56.5130   28.3780   53.7920 C   0  0  0  0  0  0  0  0  0  0  0  0
   53.9265   27.8494   53.8246 H   0  0  0  0  0  0  0  0  0  0  0  0
   52.5652   28.8677   52.9646 H   0  0  0  0  0  0  0  0  0  0  0  0
   53.2269   30.8803   50.0149 H   0  0  0  0  0  0  0  0  0  0  0  0
   55.7625   32.1410   51.0866 H   0  0  0  0  0  0  0  0  0  0  0  0
   58.0220   31.9663   52.2667 H   0  0  0  0  0  0  0  0  0  0  0  0
   58.2070   30.7576   53.5935 H   0  0  0  0  0  0  0  0  0  0  0  0
   58.3350   31.0840   49.9750 H   0  0  0  0  0  0  0  0  0  0  0  0
   61.0926   30.8951   50.9779 H   0  0  0  0  0  0  0  0  0  0  0  0
   60.0742   32.3470   50.5256 H   0  0  0  0  0  0  0  0  0  0  0  0
   61.9067   30.7091   48.8803 H   0  0  0  0  0  0  0  0  0  0  0  0
   61.2865   32.4381   48.7032 H   0  0  0  0  0  0  0  0  0  0  0  0
   60.8584   30.6463   46.9082 H   0  0  0  0  0  0  0  0  0  0  0  0
   60.4205   33.7254   48.0773 H   0  0  0  0  0  0  0  0  0  0  0  0
   59.0450   35.5480   47.0732 H   0  0  0  0  0  0  0  0  0  0  0  0
   57.1602   34.9950   45.5359 H   0  0  0  0  0  0  0  0  0  0  0  0
   56.6517   32.6107   44.9881 H   0  0  0  0  0  0  0  0  0  0  0  0
   58.0377   30.7802   45.9618 H   0  0  0  0  0  0  0  0  0  0  0  0
   59.5626   28.9059   47.3438 H   0  0  0  0  0  0  0  0  0  0  0  0
   58.1919   30.0517   47.7180 H   0  0  0  0  0  0  0  0  0  0  0  0
   60.1726   28.7827   49.6452 H   0  0  0  0  0  0  0  0  0  0  0  0
   58.3758   28.6562   49.6194 H   0  0  0  0  0  0  0  0  0  0  0  0
   56.3495   28.6451   54.8465 H   0  0  0  0  0  0  0  0  0  0  0  0
   56.0611   27.3961   53.5882 H   0  0  0  0  0  0  0  0  0  0  0  0
   57.5931   28.3340   53.5882 H   0  0  0  0  0  0  0  0  0  0  0  0
  1  2  2  0
  2  3  1  0
  3  4  2  3
  4  5  1  0
  5  6  1  0
  6  7  1  0
  7  8  2  0
  7  9  1  0
  9 10  1  0
 10 11  1  0
  3 12  1  0
 12 13  2  0
 13 14  1  0
 14 15  1  0
 15 16  2  0
 15 17  1  0
 17 18  1  0
 18 19  1  0
 19 20  1  0
 20 21  1  0
 21 22  2  0
 22 23  1  0
 23 24  2  0
 24 25  1  0
 25 26  2  0
 20 27  1  0
 27 28  1  0
 13 29  1  0
 29 30  1  0
 29  2  1  0
 10  5  2  0
 28 17  1  0
 26 21  1  0
  1 31  1  0
  1 32  1  0
  4 33  1  0
 12 34  1  0
 14 35  1  0
 14 36  1  0
 17 37  1  6
 18 38  1  0
 18 39  1  0
 19 40  1  0
 19 41  1  0
 20 42  1  6
 22 43  1  0
 23 44  1  0
 24 45  1  0
 25 46  1  0
 26 47  1  0
 27 48  1  0
 27 49  1  0
 28 50  1  0
 28 51  1  0
 30 52  1  0
 30 53  1  0
 30 54  1  0
M  CHG  4   6  -1   9  -1  11  -1  17   1
M  END
>  <UniqueID>  (17) 
15

>  <SMILES>  (17) 
C=c1c(=Cc2[n-]c(=O)[n-]c2[O-])cc(CC(=O)[NH+]2CCC(c3ccccc3)CC2)n1C

>  <Energy>  (17) 
138.525786174303

>  <Genealogy>  (17) 
C=c1c(=Cc2[n-]c(=O)[n-]c2[O-])cc(CC(=O)[NH+]2CCC(c3ccccc3)CC2)n1C (protonated)
C=c1c(=Cc2[n-]c(=O)[n-]c2[O-])cc(CC(=O)[NH+]2CCC(c3ccccc3)CC2)n1C (3D coordinates assigned)
C=c1c(=Cc2[n-]c(=O)[n-]c2[O-])cc(CC(=O)[NH+]2CCC(c3ccccc3)CC2)n1C (nonaromatic ring conformer: 138.525786174303 kcal/mol)

>  <smiles>  (17) 
C=c1c(=Cc2[nH]c(=O)[nH]c2O)cc(CC(=O)N2CCC(c3ccccc3)CC2)n1C

>  <score_type>  (17) 
oracle

>  <origin>  (17) 
adg

>  <m_score__min__energy>  (17) 
-18.120000000000001

>  <m_primary>  (17) 
energy

$$$$
17:0
     RDKit          3D

 46 48  0  0  0  0  0  0  0  0999 V2000
   59.9920   27.4930   46.8510 C   0  0  0  0  0  0  0  0  0  0  0  0
   59.2010   28.4430   46.3270 C   0  0  0  0  0  0  0  0  0  0  0  0
   58.1160   28.2340   45.4640 C   0  0  0  0  0  0  0  0  0  0  0  0
   57.6610   27.0490   45.0040 C   0  0  0  0  0  0  0  0  0  0  0  0
   57.1410   25.9440   45.8380 C   0  0  0  0  0  0  0  0  0  0  0  0
   57.8610   24.9220   46.3350 N   0  0  0  0  0  0  0  0  0  0  0  0
   56.9620   24.2240   47.0610 C   0  0  0  0  0  0  0  0  0  0  0  0
   57.2640   23.1740   47.6870 O   0  0  0  0  0  0  0  0  0  0  0  0
   55.7160   24.7420   47.0690 N   0  0  0  0  0  0  0  0  0  0  0  0
   55.8490   25.8320   46.2970 C   0  0  0  0  0  0  0  0  0  0  0  0
   54.8090   26.7120   46.0210 O   0  0  0  0  0  0  0  0  0  0  0  0
   57.5810   29.4910   45.2090 C   0  0  0  0  0  0  0  0  0  0  0  0
   58.3560   30.4020   45.8980 C   0  0  0  0  0  0  0  0  0  0  0  0
   58.0620   31.8690   45.9650 C   0  0  0  0  0  0  0  0  0  0  0  0
   59.3400   29.7710   46.5810 N   0  0  0  0  0  0  0  0  0  0  0  0
   60.3750   30.4250   47.4020 C   0  0  0  0  0  0  0  0  0  0  0  0
   60.2260   30.0700   48.8890 C   0  0  0  0  0  0  0  0  0  0  0  0
   58.9720   30.6360   49.4810 C   0  0  0  0  0  0  0  0  0  0  0  0
   58.1520   29.8680   50.0550 O   0  0  0  0  0  0  0  0  0  0  0  0
   58.7110   32.0410   49.3960 N   0  0  0  0  0  0  0  0  0  0  0  0
   59.6810   33.0660   49.7680 C   0  0  0  0  0  0  0  0  0  0  0  0
   60.5840   33.3790   48.6080 C   0  0  0  0  0  0  0  0  0  0  0  0
   60.0490   33.9160   47.4250 C   0  0  0  0  0  0  0  0  0  0  0  0
   60.8790   34.1760   46.3310 C   0  0  0  0  0  0  0  0  0  0  0  0
   62.2460   33.8960   46.4060 C   0  0  0  0  0  0  0  0  0  0  0  0
   62.7890   33.3540   47.5790 C   0  0  0  0  0  0  0  0  0  0  0  0
   64.1500   33.0650   47.6640 O   0  0  0  0  0  0  0  0  0  0  0  0
   61.9600   33.0970   48.6760 C   0  0  0  0  0  0  0  0  0  0  0  0
   60.8188   27.7732   47.5202 H   0  0  0  0  0  0  0  0  0  0  0  0
   59.8132   26.4345   46.6111 H   0  0  0  0  0  0  0  0  0  0  0  0
   57.6786   26.8920   43.9154 H   0  0  0  0  0  0  0  0  0  0  0  0
   56.7078   29.7166   44.5792 H   0  0  0  0  0  0  0  0  0  0  0  0
   57.9991   32.1827   47.0175 H   0  0  0  0  0  0  0  0  0  0  0  0
   58.8661   32.4274   45.4634 H   0  0  0  0  0  0  0  0  0  0  0  0
   57.1048   32.0744   45.4634 H   0  0  0  0  0  0  0  0  0  0  0  0
   61.3659   30.0974   47.0545 H   0  0  0  0  0  0  0  0  0  0  0  0
   60.2611   31.5139   47.2954 H   0  0  0  0  0  0  0  0  0  0  0  0
   60.2038   28.9750   48.9916 H   0  0  0  0  0  0  0  0  0  0  0  0
   61.0808   30.5044   49.4280 H   0  0  0  0  0  0  0  0  0  0  0  0
   59.1462   33.9793   50.0676 H   0  0  0  0  0  0  0  0  0  0  0  0
   60.2908   32.6933   50.6042 H   0  0  0  0  0  0  0  0  0  0  0  0
   58.9725   34.1327   47.3596 H   0  0  0  0  0  0  0  0  0  0  0  0
   60.4555   34.6018   45.4094 H   0  0  0  0  0  0  0  0  0  0  0  0
   62.8968   34.1012   45.5433 H   0  0  0  0  0  0  0  0  0  0  0  0
   64.5840   32.3770   47.0600 H   0  0  0  0  0  0  0  0  0  0  0  0
   62.3866   32.6721   49.5966 H   0  0  0  0  0  0  0  0  0  0  0  0
  1  2  2  0
  2  3  1  0
  3  4  2  3
  4  5  1  0
  5  6  1  0
  6  7  1  0
  7  8  2  0
  7  9  1  0
  9 10  1  0
 10 11  1  0
  3 12  1  0
 12 13  2  0
 13 14  1  0
 13 15  1  0
 15 16  1  0
 16 17  1  0
 17 18  1  0
 18 19  2  0
 18 20  1  0
 20 21  1  0
 21 22  1  0
 22 23  2  0
 23 24  1  0
 24 25  2  0
 25 26  1  0
 26 27  1  0
 26 28  2  0
 15  2  1  0
 28 22  1  0
 10  5  2  0
  1 29  1  0
  1 30  1  0
  4 31  1  0
 12 32  1  0
 14 33  1  0
 14 34  1  0
 14 35  1  0
 16 36  1  0
 16 37  1  0
 17 38  1  0
 17 39  1  0
 21 40  1  0
 21 41  1  0
 23 42  1  0
 24 43  1  0
 25 44  1  0
 27 45  1  0
 28 46  1  0
M  CHG  4   6  -1   9  -1  11  -1  20  -1
M  END
>  <UniqueID>  (18) 
16

>  <SMILES>  (18) 
C=c1c(=Cc2[n-]c(=O)[n-]c2[O-])cc(C)n1CCC(=O)[N-]Cc1cccc(O)c1

>  <Energy>  (18) 
101.03975911886867

>  <Genealogy>  (18) 
C=c1c(=Cc2[n-]c(=O)[n-]c2[O-])cc(C)n1CCC(=O)[N-]Cc1cccc(O)c1 (protonated)
C=c1c(=Cc2[n-]c(=O)[n-]c2[O-])cc(C)n1CCC(=O)[N-]Cc1cccc(O)c1 (3D coordinates assigned)
C=c1c(=Cc2[n-]c(=O)[n-]c2[O-])cc(C)n1CCC(=O)[N-]Cc1cccc(O)c1 (optimized conformer: 101.03975911886867 kcal/mol)

>  <smiles>  (18) 
C=c1c(=Cc2[nH]c(=O)[nH]c2O)cc(C)n1CCC(=O)NCc1cccc(O)c1

>  <score_type>  (18) 
oracle

>  <origin>  (18) 
adg

>  <m_score__min__energy>  (18) 
-16.949999999999999

>  <m_primary>  (18) 
energy

$$$$
18:0
     RDKit          3D

 43 45  0  0  0  0  0  0  0  0999 V2000
   61.1310   34.1550   49.1170 C   0  0  0  0  0  0  0  0  0  0  0  0
   59.6580   33.8770   49.4090 C   0  0  0  0  0  0  0  0  0  0  0  0
   59.0430   32.8930   48.4950 N   0  0  0  0  0  0  0  0  0  0  0  0
   59.4150   31.4790   48.6990 C   0  0  0  0  0  0  0  0  0  0  0  0
   60.4580   30.9770   47.6890 C   0  0  0  0  0  0  0  0  0  0  0  0
   60.1320   31.3290   46.2990 N   0  0  0  0  0  0  0  0  0  0  0  0
   58.8690   30.3370   45.6020 S   0  0  0  0  0  0  0  0  0  0  0  0
   57.5880   30.4960   46.3740 O   0  0  0  0  0  0  0  0  0  0  0  0
   58.5930   30.7740   44.1900 O   0  0  0  0  0  0  0  0  0  0  0  0
   59.3270   28.6160   45.6050 C   0  0  0  0  0  0  0  0  0  0  0  0
   60.7060   28.3490   45.6090 C   0  0  0  0  0  0  0  0  0  0  0  0
   61.1940   27.0900   45.9430 C   0  0  0  0  0  0  0  0  0  0  0  0
   60.3180   26.0830   46.3280 C   0  0  0  0  0  0  0  0  0  0  0  0
   58.9330   26.3000   46.2970 C   0  0  0  0  0  0  0  0  0  0  0  0
   58.0750   25.2840   46.7340 C   0  0  0  0  0  0  0  0  0  0  0  0
   56.6980   25.4610   46.6950 C   0  0  0  0  0  0  0  0  0  0  0  0
   56.1550   26.6120   46.1290 C   0  0  0  0  0  0  0  0  0  0  0  0
   54.7720   26.7070   46.0070 O   0  0  0  0  0  0  0  0  0  0  0  0
   56.9920   27.6380   45.6480 C   0  0  0  0  0  0  0  0  0  0  0  0
   56.3770   28.6340   44.7510 C   0  0  0  0  0  0  0  0  0  0  0  0
   56.8910   28.8670   43.6260 O   0  0  0  0  0  0  0  0  0  0  0  0
   55.1820   29.2520   45.1000 O   0  0  0  0  0  0  0  0  0  0  0  0
   58.4060   27.5420   45.8340 C   0  0  0  0  0  0  0  0  0  0  0  0
   59.8970   32.7700   46.1310 C   0  0  0  0  0  0  0  0  0  0  0  0
   58.8390   33.3250   47.0990 C   0  0  0  0  0  0  0  0  0  0  0  0
   61.6795   34.2585   50.0649 H   0  0  0  0  0  0  0  0  0  0  0  0
   61.5538   33.3208   48.5379 H   0  0  0  0  0  0  0  0  0  0  0  0
   61.2207   35.0859   48.5379 H   0  0  0  0  0  0  0  0  0  0  0  0
   59.5747   33.4944   50.4370 H   0  0  0  0  0  0  0  0  0  0  0  0
   59.1193   34.8255   49.2670 H   0  0  0  0  0  0  0  0  0  0  0  0
   59.8281   31.3687   49.7125 H   0  0  0  0  0  0  0  0  0  0  0  0
   58.5052   30.8773   48.5565 H   0  0  0  0  0  0  0  0  0  0  0  0
   61.4324   31.4199   47.9428 H   0  0  0  0  0  0  0  0  0  0  0  0
   60.4748   29.8790   47.7537 H   0  0  0  0  0  0  0  0  0  0  0  0
   61.4123   29.1494   45.3434 H   0  0  0  0  0  0  0  0  0  0  0  0
   62.2752   26.8915   45.9022 H   0  0  0  0  0  0  0  0  0  0  0  0
   60.7126   25.1109   46.6587 H   0  0  0  0  0  0  0  0  0  0  0  0
   58.4941   24.3393   47.1107 H   0  0  0  0  0  0  0  0  0  0  0  0
   56.0341   24.6897   47.1125 H   0  0  0  0  0  0  0  0  0  0  0  0
   60.8440   33.3019   46.3049 H   0  0  0  0  0  0  0  0  0  0  0  0
   59.5200   32.9241   45.1092 H   0  0  0  0  0  0  0  0  0  0  0  0
   58.8760   34.4238   47.0644 H   0  0  0  0  0  0  0  0  0  0  0  0
   57.8633   32.9333   46.7755 H   0  0  0  0  0  0  0  0  0  0  0  0
  1  2  1  0
  2  3  1  0
  3  4  1  0
  4  5  1  0
  5  6  1  0
  6  7  1  0
  7  8  2  0
  7  9  2  0
  7 10  1  0
 10 11  2  0
 11 12  1  0
 12 13  2  0
 13 14  1  0
 14 15  2  0
 15 16  1  0
 16 17  2  0
 17 18  1  0
 17 19  1  0
 19 20  1  0
 20 21  2  0
 20 22  1  0
 19 23  2  0
  6 24  1  0
 24 25  1  0
 25  3  1  0
 23 10  1  0
 23 14  1  0
  1 26  1  0
  1 27  1  0
  1 28  1  0
  2 29  1  0
  2 30  1  0
  4 31  1  0
  4 32  1  0
  5 33  1  0
  5 34  1  0
 11 35  1  0
 12 36  1  0
 13 37  1  0
 15 38  1  0
 16 39  1  0
 24 40  1  0
 24 41  1  0
 25 42  1  0
 25 43  1  0
M  CHG  2  18  -1  22  -1
M  END
>  <UniqueID>  (19) 
17

>  <SMILES>  (19) 
CCN1CCN(S(=O)(=O)c2cccc3ccc([O-])c(C(=O)[O-])c23)CC1

>  <Energy>  (19) 
80.33168862546415

>  <Genealogy>  (19) 
CCN1CCN(S(=O)(=O)c2cccc3ccc([O-])c(C(=O)[O-])c23)CC1 (protonated)
CCN1CCN(S(=O)(=O)c2cccc3ccc([O-])c(C(=O)[O-])c23)CC1 (3D coordinates assigned)
CCN1CCN(S(=O)(=O)c2cccc3ccc([O-])c(C(=O)[O-])c23)CC1 (nonaromatic ring conformer: 80.33168862546415 kcal/mol)

>  <smiles>  (19) 
CCN1CCN(S(=O)(=O)c2cccc3ccc(O)c(C(=O)O)c23)CC1

>  <score_type>  (19) 
oracle

>  <origin>  (19) 
adg

>  <m_score__min__energy>  (19) 
-14.199999999999999

>  <m_primary>  (19) 
energy

$$$$
19:0
     RDKit          3D

 48 50  0  0  0  0  0  0  0  0999 V2000
   63.0190   33.8420   46.3640 C   0  0  0  0  0  0  0  0  0  0  0  0
   61.5910   33.8170   46.8230 C   0  0  0  0  0  0  0  0  0  0  0  0
   61.2970   33.8360   48.1930 C   0  0  0  0  0  0  0  0  0  0  0  0
   59.9670   33.8590   48.6340 C   0  0  0  0  0  0  0  0  0  0  0  0
   59.6600   33.8310   50.1020 C   0  0  0  0  0  0  0  0  0  0  0  0
   58.9260   33.8450   47.6940 C   0  0  0  0  0  0  0  0  0  0  0  0
   59.2080   33.8340   46.3190 C   0  0  0  0  0  0  0  0  0  0  0  0
   58.0870   33.8770   45.3130 C   0  0  0  0  0  0  0  0  0  0  0  0
   57.9510   32.5760   44.6460 N   0  0  0  0  0  0  0  0  0  0  0  0
   58.1230   32.4830   43.1910 C   0  0  0  0  0  0  0  0  0  0  0  0
   57.0470   31.5860   42.5840 C   0  0  0  0  0  0  0  0  0  0  0  0
   57.0460   30.2410   43.2500 C   0  0  0  0  0  0  0  0  0  0  0  0
   56.7920   29.2170   42.5590 O   0  0  0  0  0  0  0  0  0  0  0  0
   57.2810   30.1340   44.7140 C   0  0  0  0  0  0  0  0  0  0  0  0
   57.0650   28.9540   45.3400 C   0  0  0  0  0  0  0  0  0  0  0  0
   58.1130   28.1200   45.9650 C   0  0  0  0  0  0  0  0  0  0  0  0
   58.5970   28.4660   47.2390 C   0  0  0  0  0  0  0  0  0  0  0  0
   59.5610   27.6750   47.8660 C   0  0  0  0  0  0  0  0  0  0  0  0
   60.0390   26.5240   47.2380 C   0  0  0  0  0  0  0  0  0  0  0  0
   59.5500   26.1570   45.9810 C   0  0  0  0  0  0  0  0  0  0  0  0
   58.5830   26.9460   45.3340 C   0  0  0  0  0  0  0  0  0  0  0  0
   58.0660   26.5310   43.9810 C   0  0  0  0  0  0  0  0  0  0  0  0
   57.7650   31.3660   45.4050 C   0  0  0  0  0  0  0  0  0  0  0  0
   58.0340   31.3580   46.6360 O   0  0  0  0  0  0  0  0  0  0  0  0
   60.5430   33.8350   45.8900 C   0  0  0  0  0  0  0  0  0  0  0  0
   63.6853   33.8537   47.2392 H   0  0  0  0  0  0  0  0  0  0  0  0
   63.2251   32.9473   45.7581 H   0  0  0  0  0  0  0  0  0  0  0  0
   63.1937   34.7433   45.7581 H   0  0  0  0  0  0  0  0  0  0  0  0
   62.1159   33.8328   48.9274 H   0  0  0  0  0  0  0  0  0  0  0  0
   60.5957   33.9163   50.6740 H   0  0  0  0  0  0  0  0  0  0  0  0
   58.9980   34.6725   50.3543 H   0  0  0  0  0  0  0  0  0  0  0  0
   59.1612   32.8836   50.3543 H   0  0  0  0  0  0  0  0  0  0  0  0
   57.8808   33.8426   48.0369 H   0  0  0  0  0  0  0  0  0  0  0  0
   57.1462   34.1208   45.8282 H   0  0  0  0  0  0  0  0  0  0  0  0
   58.3129   34.6444   44.5580 H   0  0  0  0  0  0  0  0  0  0  0  0
   58.0465   33.4887   42.7520 H   0  0  0  0  0  0  0  0  0  0  0  0
   59.1112   32.0506   42.9755 H   0  0  0  0  0  0  0  0  0  0  0  0
   56.0629   32.0582   42.7205 H   0  0  0  0  0  0  0  0  0  0  0  0
   57.2584   31.4522   41.5128 H   0  0  0  0  0  0  0  0  0  0  0  0
   56.0291   28.5870   45.3874 H   0  0  0  0  0  0  0  0  0  0  0  0
   58.2139   29.3649   47.7442 H   0  0  0  0  0  0  0  0  0  0  0  0
   59.9447   27.9593   48.8569 H   0  0  0  0  0  0  0  0  0  0  0  0
   60.8016   25.9047   47.7329 H   0  0  0  0  0  0  0  0  0  0  0  0
   59.9245   25.2442   45.4946 H   0  0  0  0  0  0  0  0  0  0  0  0
   57.2139   25.8470   44.1081 H   0  0  0  0  0  0  0  0  0  0  0  0
   57.7411   27.4219   43.4236 H   0  0  0  0  0  0  0  0  0  0  0  0
   58.8655   26.0211   43.4236 H   0  0  0  0  0  0  0  0  0  0  0  0
   60.7705   33.8500   44.8139 H   0  0  0  0  0  0  0  0  0  0  0  0
  1  2  1  0
  2  3  2  0
  3  4  1  0
  4  5  1  0
  4  6  2  0
  6  7  1  0
  7  8  1  0
  8  9  1  0
  9 10  1  0
 10 11  1  0
 11 12  1  0
 12 13  2  0
 12 14  1  0
 14 15  2  3
 15 16  1  0
 16 17  2  0
 17 18  1  0
 18 19  2  0
 19 20  1  0
 20 21  2  0
 21 22  1  0
 14 23  1  0
 23 24  2  0
  7 25  2  0
 25  2  1  0
 23  9  1  0
 21 16  1  0
  1 26  1  0
  1 27  1  0
  1 28  1  0
  3 29  1  0
  5 30  1  0
  5 31  1  0
  5 32  1  0
  6 33  1  0
  8 34  1  0
  8 35  1  0
 10 36  1  0
 10 37  1  0
 11 38  1  0
 11 39  1  0
 15 40  1  0
 17 41  1  0
 18 42  1  0
 19 43  1  0
 20 44  1  0
 22 45  1  0
 22 46  1  0
 22 47  1  0
 25 48  1  0
M  END
>  <UniqueID>  (20) 
18

>  <SMILES>  (20) 
Cc1cc(C)cc(CN2CCC(=O)C(=Cc3ccccc3C)C2=O)c1

>  <Energy>  (20) 
56.581527365498246

>  <Genealogy>  (20) 
Cc1cc(C)cc(CN2CCC(=O)C(=Cc3ccccc3C)C2=O)c1 (3D coordinates assigned)
Cc1cc(C)cc(CN2CCC(=O)C(=Cc3ccccc3C)C2=O)c1 (nonaromatic ring conformer: 56.581527365498246 kcal/mol)

>  <smiles>  (20) 
Cc1cc(C)cc(CN2CCC(=O)C(=Cc3ccccc3C)C2=O)c1

>  <score_type>  (20) 
oracle

>  <origin>  (20) 
adg

>  <m_score__min__energy>  (20) 
-8.9199999999999999

>  <m_primary>  (20) 
energy

$$$$
20:0
     RDKit          3D

 56 59  0  0  0  0  0  0  0  0999 V2000
   57.1470   28.5820   43.4650 N   0  0  0  0  0  0  0  0  0  0  0  0
   58.3930   27.3820   43.5310 S   0  0  0  0  0  0  0  0  0  0  0  0
   58.8760   27.0700   42.1430 O   0  0  0  0  0  0  0  0  0  0  0  0
   59.5410   27.9480   44.3210 O   0  0  0  0  0  0  0  0  0  0  0  0
   57.8030   25.9000   44.3090 C   0  0  0  0  0  0  0  0  0  0  0  0
   57.1310   24.9450   43.5250 C   0  0  0  0  0  0  0  0  0  0  0  0
   56.6890   23.7460   44.0870 C   0  0  0  0  0  0  0  0  0  0  0  0
   56.9140   23.4810   45.4380 C   0  0  0  0  0  0  0  0  0  0  0  0
   57.5740   24.4180   46.2330 C   0  0  0  0  0  0  0  0  0  0  0  0
   58.0150   25.6340   45.6860 C   0  0  0  0  0  0  0  0  0  0  0  0
   58.6890   26.5950   46.5790 C   0  0  0  0  0  0  0  0  0  0  0  0
   60.0430   26.4330   46.9050 C   0  0  0  0  0  0  0  0  0  0  0  0
   60.6790   27.3500   47.7450 C   0  0  0  0  0  0  0  0  0  0  0  0
   59.9770   28.4550   48.2530 C   0  0  0  0  0  0  0  0  0  0  0  0
   60.6650   29.4510   49.1650 C   0  0  0  0  0  0  0  0  0  0  0  0
   60.4790   30.8620   48.7620 N   0  0  0  0  0  0  0  0  0  0  0  0
   61.6380   31.7190   49.0910 C   0  0  0  0  0  0  0  0  0  0  0  0
   61.3710   33.2080   48.7690 C   0  0  0  0  0  0  0  0  0  0  0  0
   60.1520   33.4180   47.8470 C   0  0  0  0  0  0  0  0  0  0  0  0
   60.4130   32.9430   46.3960 C   0  0  0  0  0  0  0  0  0  0  0  0
   59.2210   32.3010   45.8230 N   0  0  0  0  0  0  0  0  0  0  0  0
   58.1820   33.0770   45.5000 N   0  0  0  0  0  0  0  0  0  0  0  0
   57.0490   32.5640   44.9580 C   0  0  0  0  0  0  0  0  0  0  0  0
   56.9760   31.1940   44.7350 C   0  0  0  0  0  0  0  0  0  0  0  0
   55.9420   30.6820   44.2340 O   0  0  0  0  0  0  0  0  0  0  0  0
   58.0310   30.4110   45.0660 N   0  0  0  0  0  0  0  0  0  0  0  0
   59.1540   30.9480   45.6070 C   0  0  0  0  0  0  0  0  0  0  0  0
   60.1170   30.1920   45.9030 O   0  0  0  0  0  0  0  0  0  0  0  0
   58.8950   32.7370   48.4500 C   0  0  0  0  0  0  0  0  0  0  0  0
   59.2140   31.4490   49.2350 C   0  0  0  0  0  0  0  0  0  0  0  0
   58.6220   28.6180   47.9200 C   0  0  0  0  0  0  0  0  0  0  0  0
   57.9860   27.7000   47.0790 C   0  0  0  0  0  0  0  0  0  0  0  0
   56.7900   28.7220   44.4370 H   0  0  0  0  0  0  0  0  0  0  0  0
   57.5900   29.4790   43.1660 H   0  0  0  0  0  0  0  0  0  0  0  0
   56.9519   25.1449   42.4582 H   0  0  0  0  0  0  0  0  0  0  0  0
   56.1623   23.0087   43.4633 H   0  0  0  0  0  0  0  0  0  0  0  0
   56.5707   22.5325   45.8766 H   0  0  0  0  0  0  0  0  0  0  0  0
   57.7505   24.2027   47.2972 H   0  0  0  0  0  0  0  0  0  0  0  0
   60.6065   25.5806   46.4977 H   0  0  0  0  0  0  0  0  0  0  0  0
   61.7367   27.2056   48.0103 H   0  0  0  0  0  0  0  0  0  0  0  0
   60.2627   29.3253   50.1810 H   0  0  0  0  0  0  0  0  0  0  0  0
   61.7436   29.2428   49.1085 H   0  0  0  0  0  0  0  0  0  0  0  0
   61.8573   31.6221   50.1646 H   0  0  0  0  0  0  0  0  0  0  0  0
   62.4891   31.3874   48.4781 H   0  0  0  0  0  0  0  0  0  0  0  0
   61.1926   33.7439   49.7129 H   0  0  0  0  0  0  0  0  0  0  0  0
   62.2543   33.5925   48.2380 H   0  0  0  0  0  0  0  0  0  0  0  0
   59.9696   34.5011   47.7862 H   0  0  0  0  0  0  0  0  0  0  0  0
   60.6847   33.8114   45.7778 H   0  0  0  0  0  0  0  0  0  0  0  0
   61.2303   32.2070   46.4127 H   0  0  0  0  0  0  0  0  0  0  0  0
   56.2043   33.2197   44.7000 H   0  0  0  0  0  0  0  0  0  0  0  0
   58.4059   33.4486   49.1314 H   0  0  0  0  0  0  0  0  0  0  0  0
   58.2449   32.4526   47.6095 H   0  0  0  0  0  0  0  0  0  0  0  0
   59.3029   31.6888   50.3049 H   0  0  0  0  0  0  0  0  0  0  0  0
   58.4021   30.7237   49.0775 H   0  0  0  0  0  0  0  0  0  0  0  0
   58.0585   29.4724   48.3231 H   0  0  0  0  0  0  0  0  0  0  0  0
   56.9297   27.8453   46.8085 H   0  0  0  0  0  0  0  0  0  0  0  0
  1  2  1  0
  2  3  2  0
  2  4  2  0
  2  5  1  0
  5  6  2  0
  6  7  1  0
  7  8  2  0
  8  9  1  0
  9 10  2  0
 10 11  1  0
 11 12  2  0
 12 13  1  0
 13 14  2  0
 14 15  1  0
 15 16  1  0
 16 17  1  0
 17 18  1  0
 18 19  1  0
 19 20  1  0
 20 21  1  0
 21 22  1  0
 22 23  2  0
 23 24  1  0
 24 25  2  0
 24 26  1  0
 26 27  1  0
 27 28  2  0
 19 29  1  0
 29 30  1  0
 14 31  1  0
 31 32  2  0
 10  5  1  0
 32 11  1  0
 30 16  1  0
 27 21  1  0
  1 33  1  0
  1 34  1  0
  6 35  1  0
  7 36  1  0
  8 37  1  0
  9 38  1  0
 12 39  1  0
 13 40  1  0
 15 41  1  0
 15 42  1  0
 17 43  1  0
 17 44  1  0
 18 45  1  0
 18 46  1  0
 19 47  1  0
 20 48  1  0
 20 49  1  0
 23 50  1  0
 29 51  1  0
 29 52  1  0
 30 53  1  0
 30 54  1  0
 31 55  1  0
 32 56  1  0
M  CHG  1  26  -1
M  END
>  <UniqueID>  (21) 
19

>  <SMILES>  (21) 
NS(=O)(=O)c1ccccc1-c1ccc(CN2CCC(Cn3ncc(=O)[n-]c3=O)CC2)cc1

>  <Energy>  (21) 
77.45113557984055

>  <Genealogy>  (21) 
NS(=O)(=O)c1ccccc1-c1ccc(CN2CCC(Cn3ncc(=O)[n-]c3=O)CC2)cc1 (protonated)
NS(=O)(=O)c1ccccc1-c1ccc(CN2CCC(Cn3ncc(=O)[n-]c3=O)CC2)cc1 (3D coordinates assigned)
NS(=O)(=O)c1ccccc1-c1ccc(CN2CCC(Cn3ncc(=O)[n-]c3=O)CC2)cc1 (nonaromatic ring conformer: 77.45113557984055 kcal/mol)

>  <smiles>  (21) 
NS(=O)(=O)c1ccccc1-c1ccc(CN2CCC(Cn3ncc(=O)[nH]c3=O)CC2)cc1

>  <score_type>  (21) 
oracle

>  <origin>  (21) 
adg

>  <m_score__min__energy>  (21) 
-10.369999999999999

>  <m_primary>  (21) 
energy

$$$$
21:0
     RDKit          3D

 43 45  0  0  0  0  0  0  0  0999 V2000
   53.3000   28.8820   52.3210 O   0  0  0  0  0  0  0  0  0  0  0  0
   53.9410   29.9640   52.4170 C   0  0  0  0  0  0  0  0  0  0  0  0
   53.2330   31.2880   52.2630 C   0  0  0  0  0  0  0  0  0  0  0  0
   52.2810   31.2980   51.1050 C   0  0  0  0  0  0  0  0  0  0  0  0
   52.2920   30.3920   50.1090 N   0  0  0  0  0  0  0  0  0  0  0  0
   51.3180   30.8300   49.2810 C   0  0  0  0  0  0  0  0  0  0  0  0
   51.0140   30.2320   48.2160 O   0  0  0  0  0  0  0  0  0  0  0  0
   50.6980   31.9620   49.6830 N   0  0  0  0  0  0  0  0  0  0  0  0
   51.3240   32.2470   50.8350 C   0  0  0  0  0  0  0  0  0  0  0  0
   51.0310   33.3540   51.6210 O   0  0  0  0  0  0  0  0  0  0  0  0
   55.3440   29.9080   52.6980 N   0  0  0  0  0  0  0  0  0  0  0  0
   56.3720   30.4900   51.8450 C   0  0  0  0  0  0  0  0  0  0  0  0
   57.1580   31.4990   52.6310 C   0  0  0  0  0  0  0  0  0  0  0  0
   56.9340   31.6040   53.8680 O   0  0  0  0  0  0  0  0  0  0  0  0
   58.1770   32.3140   52.0090 N   0  0  0  0  0  0  0  0  0  0  0  0
   59.1190   33.0810   52.8440 C   0  0  0  0  0  0  0  0  0  0  0  0
   60.5350   33.0060   52.2570 C   0  0  0  0  0  0  0  0  0  0  0  0
   60.5300   33.2090   50.8010 N   0  0  0  0  0  0  0  0  0  0  0  0
   61.7410   33.0060   50.0550 C   0  0  0  0  0  0  0  0  0  0  0  0
   62.7030   32.0920   50.5150 C   0  0  0  0  0  0  0  0  0  0  0  0
   63.8890   31.8960   49.8010 C   0  0  0  0  0  0  0  0  0  0  0  0
   64.1230   32.6110   48.6240 C   0  0  0  0  0  0  0  0  0  0  0  0
   63.1690   33.5190   48.1560 C   0  0  0  0  0  0  0  0  0  0  0  0
   61.9810   33.7190   48.8660 C   0  0  0  0  0  0  0  0  0  0  0  0
   61.0530   34.5800   48.3780 F   0  0  0  0  0  0  0  0  0  0  0  0
   59.2700   33.4810   50.1020 C   0  0  0  0  0  0  0  0  0  0  0  0
   58.2070   32.4700   50.5430 C   0  0  0  0  0  0  0  0  0  0  0  0
   52.6698   31.4963   53.1846 H   0  0  0  0  0  0  0  0  0  0  0  0
   53.9974   32.0561   52.0742 H   0  0  0  0  0  0  0  0  0  0  0  0
   57.0455   29.6968   51.4883 H   0  0  0  0  0  0  0  0  0  0  0  0
   55.8991   30.9827   50.9827 H   0  0  0  0  0  0  0  0  0  0  0  0
   58.7972   34.1322   52.8818 H   0  0  0  0  0  0  0  0  0  0  0  0
   59.1289   32.6529   53.8572 H   0  0  0  0  0  0  0  0  0  0  0  0
   61.1563   33.7846   52.7236 H   0  0  0  0  0  0  0  0  0  0  0  0
   60.9395   32.0040   52.4627 H   0  0  0  0  0  0  0  0  0  0  0  0
   62.5225   31.5275   51.4417 H   0  0  0  0  0  0  0  0  0  0  0  0
   64.6383   31.1783   50.1663 H   0  0  0  0  0  0  0  0  0  0  0  0
   65.0583   32.4594   48.0653 H   0  0  0  0  0  0  0  0  0  0  0  0
   63.3532   34.0778   47.2266 H   0  0  0  0  0  0  0  0  0  0  0  0
   58.9297   34.4986   50.3441 H   0  0  0  0  0  0  0  0  0  0  0  0
   59.4287   33.3933   49.0171 H   0  0  0  0  0  0  0  0  0  0  0  0
   57.2209   32.8178   50.2013 H   0  0  0  0  0  0  0  0  0  0  0  0
   58.4567   31.4948   50.0996 H   0  0  0  0  0  0  0  0  0  0  0  0
  1  2  2  0
  2  3  1  0
  3  4  1  0
  4  5  1  0
  5  6  1  0
  6  7  2  0
  6  8  1  0
  8  9  1  0
  9 10  1  0
  2 11  1  0
 11 12  1  0
 12 13  1  0
 13 14  2  0
 13 15  1  0
 15 16  1  0
 16 17  1  0
 17 18  1  0
 18 19  1  0
 19 20  2  0
 20 21  1  0
 21 22  2  0
 22 23  1  0
 23 24  2  0
 24 25  1  0
 18 26  1  0
 26 27  1  0
  9  4  2  0
 27 15  1  0
 24 19  1  0
  3 28  1  0
  3 29  1  0
 12 30  1  0
 12 31  1  0
 16 32  1  0
 16 33  1  0
 17 34  1  0
 17 35  1  0
 20 36  1  0
 21 37  1  0
 22 38  1  0
 23 39  1  0
 26 40  1  0
 26 41  1  0
 27 42  1  0
 27 43  1  0
M  CHG  4   5  -1   8  -1  10  -1  11  -1
M  END
>  <UniqueID>  (22) 
20

>  <SMILES>  (22) 
O=C(Cc1[n-]c(=O)[n-]c1[O-])[N-]CC(=O)N1CCN(c2ccccc2F)CC1

>  <Energy>  (22) 
76.00390779179479

>  <Genealogy>  (22) 
O=C(Cc1[n-]c(=O)[n-]c1[O-])[N-]CC(=O)N1CCN(c2ccccc2F)CC1 (protonated)
O=C(Cc1[n-]c(=O)[n-]c1[O-])[N-]CC(=O)N1CCN(c2ccccc2F)CC1 (3D coordinates assigned)
O=C(Cc1[n-]c(=O)[n-]c1[O-])[N-]CC(=O)N1CCN(c2ccccc2F)CC1 (nonaromatic ring conformer: 76.00390779179479 kcal/mol)

>  <smiles>  (22) 
O=C(Cc1[nH]c(=O)[nH]c1O)NCC(=O)N1CCN(c2ccccc2F)CC1

>  <score_type>  (22) 
oracle

>  <origin>  (22) 
adg

>  <m_score__min__energy>  (22) 
-19.079999999999998

>  <m_primary>  (22) 
energy

$$$$
22:0
     RDKit          3D

 62 65  0  0  0  0  0  0  0  0999 V2000
   60.3320   25.5730   46.0110 C   0  0  0  0  0  0  0  0  0  0  0  0
   59.4440   26.7130   46.2860 N   0  0  0  0  0  0  0  0  0  0  0  0
   59.6700   27.8210   45.3200 C   0  0  0  0  0  0  0  0  0  0  0  0
   58.5910   27.8840   44.2280 C   0  0  0  0  0  0  0  0  0  0  0  0
   57.1830   28.1020   44.8440 C   0  0  0  0  0  0  0  0  0  0  0  0
   56.8000   29.5710   44.9540 C   0  0  0  0  0  0  0  0  0  0  0  0
   55.6650   29.9500   44.5490 O   0  0  0  0  0  0  0  0  0  0  0  0
   57.7380   30.5590   45.4390 N   0  0  0  0  0  0  0  0  0  0  0  0
   58.6380   30.2690   46.5700 C   0  0  0  0  0  0  0  0  0  0  0  0
   59.9760   30.9880   46.3850 C   0  0  0  0  0  0  0  0  0  0  0  0
   59.7310   32.3970   46.0660 N   0  0  0  0  0  0  0  0  0  0  0  0
   59.9730   33.4250   47.0450 C   0  0  0  0  0  0  0  0  0  0  0  0
   59.0680   34.2690   47.2910 O   0  0  0  0  0  0  0  0  0  0  0  0
   61.2670   33.5150   47.7610 C   0  0  0  0  0  0  0  0  0  0  0  0
   61.3190   34.0230   49.0700 C   0  0  0  0  0  0  0  0  0  0  0  0
   62.5390   34.1150   49.7450 C   0  0  0  0  0  0  0  0  0  0  0  0
   63.7280   33.7110   49.1280 C   0  0  0  0  0  0  0  0  0  0  0  0
   64.9230   33.8180   49.8570 O   0  0  0  0  0  0  0  0  0  0  0  0
   65.0890   33.4520   51.2280 C   0  0  0  0  0  0  0  0  0  0  0  0
   65.5160   32.0130   51.3490 C   0  0  0  0  0  0  0  0  0  0  0  0
   64.6700   31.0790   51.9710 C   0  0  0  0  0  0  0  0  0  0  0  0
   65.0650   29.7430   52.0920 C   0  0  0  0  0  0  0  0  0  0  0  0
   66.3070   29.3330   51.6020 C   0  0  0  0  0  0  0  0  0  0  0  0
   67.1590   30.2570   50.9940 C   0  0  0  0  0  0  0  0  0  0  0  0
   66.7690   31.5950   50.8710 C   0  0  0  0  0  0  0  0  0  0  0  0
   63.6820   33.2190   47.8100 C   0  0  0  0  0  0  0  0  0  0  0  0
   62.4620   33.1250   47.1340 C   0  0  0  0  0  0  0  0  0  0  0  0
   58.8910   32.6680   44.8970 C   0  0  0  0  0  0  0  0  0  0  0  0
   57.5410   31.9710   45.0690 C   0  0  0  0  0  0  0  0  0  0  0  0
   57.0570   27.4260   46.2330 C   0  0  0  0  0  0  0  0  0  0  0  0
   58.0360   26.2570   46.3770 C   0  0  0  0  0  0  0  0  0  0  0  0
   60.6725   25.1359   46.9613 H   0  0  0  0  0  0  0  0  0  0  0  0
   59.7852   24.8134   45.4330 H   0  0  0  0  0  0  0  0  0  0  0  0
   61.2023   25.9172   45.4330 H   0  0  0  0  0  0  0  0  0  0  0  0
   59.6699   28.7734   45.8704 H   0  0  0  0  0  0  0  0  0  0  0  0
   60.6347   27.6383   44.8241 H   0  0  0  0  0  0  0  0  0  0  0  0
   58.8178   28.7173   43.5468 H   0  0  0  0  0  0  0  0  0  0  0  0
   58.5894   26.9282   43.6835 H   0  0  0  0  0  0  0  0  0  0  0  0
   56.4801   27.6264   44.1442 H   0  0  0  0  0  0  0  0  0  0  0  0
   58.1685   30.6117   47.5039 H   0  0  0  0  0  0  0  0  0  0  0  0
   58.8186   29.1848   46.6134 H   0  0  0  0  0  0  0  0  0  0  0  0
   60.5616   30.9183   47.3136 H   0  0  0  0  0  0  0  0  0  0  0  0
   60.5358   30.5171   45.5635 H   0  0  0  0  0  0  0  0  0  0  0  0
   60.3936   34.3503   49.5665 H   0  0  0  0  0  0  0  0  0  0  0  0
   62.5649   34.5090   50.7717 H   0  0  0  0  0  0  0  0  0  0  0  0
   65.8566   34.0955   51.6827 H   0  0  0  0  0  0  0  0  0  0  0  0
   64.1270   33.5792   51.7460 H   0  0  0  0  0  0  0  0  0  0  0  0
   63.6940   31.3999   52.3639 H   0  0  0  0  0  0  0  0  0  0  0  0
   64.3967   29.0141   52.5737 H   0  0  0  0  0  0  0  0  0  0  0  0
   66.6143   28.2809   51.6952 H   0  0  0  0  0  0  0  0  0  0  0  0
   68.1379   29.9327   50.6113 H   0  0  0  0  0  0  0  0  0  0  0  0
   67.4458   32.3220   50.3984 H   0  0  0  0  0  0  0  0  0  0  0  0
   64.6105   32.9070   47.3095 H   0  0  0  0  0  0  0  0  0  0  0  0
   62.4376   32.7426   46.1029 H   0  0  0  0  0  0  0  0  0  0  0  0
   58.7345   33.7526   44.8011 H   0  0  0  0  0  0  0  0  0  0  0  0
   59.3877   32.2886   43.9918 H   0  0  0  0  0  0  0  0  0  0  0  0
   56.9695   32.4773   45.8609 H   0  0  0  0  0  0  0  0  0  0  0  0
   56.9903   32.0181   44.1179 H   0  0  0  0  0  0  0  0  0  0  0  0
   57.2713   28.1704   47.0140 H   0  0  0  0  0  0  0  0  0  0  0  0
   56.0339   27.0352   46.3360 H   0  0  0  0  0  0  0  0  0  0  0  0
   57.8782   25.7769   47.3540 H   0  0  0  0  0  0  0  0  0  0  0  0
   57.8493   25.5475   45.5574 H   0  0  0  0  0  0  0  0  0  0  0  0
  1  2  1  0
  2  3  1  0
  3  4  1  0
  4  5  1  0
  5  6  1  0
  6  7  2  0
  6  8  1  0
  8  9  1  0
  9 10  1  0
 10 11  1  0
 11 12  1  0
 12 13  2  0
 12 14  1  0
 14 15  2  0
 15 16  1  0
 16 17  2  0
 17 18  1  0
 18 19  1  0
 19 20  1  0
 20 21  2  0
 21 22  1  0
 22 23  2  0
 23 24  1  0
 24 25  2  0
 17 26  1  0
 26 27  2  0
 11 28  1  0
 28 29  1  0
  5 30  1  0
 30 31  1  0
 31  2  1  0
 29  8  1  0
 27 14  1  0
 25 20  1  0
  1 32  1  0
  1 33  1  0
  1 34  1  0
  3 35  1  0
  3 36  1  0
  4 37  1  0
  4 38  1  0
  5 39  1  0
  9 40  1  0
  9 41  1  0
 10 42  1  0
 10 43  1  0
 15 44  1  0
 16 45  1  0
 19 46  1  0
 19 47  1  0
 21 48  1  0
 22 49  1  0
 23 50  1  0
 24 51  1  0
 25 52  1  0
 26 53  1  0
 27 54  1  0
 28 55  1  0
 28 56  1  0
 29 57  1  0
 29 58  1  0
 30 59  1  0
 30 60  1  0
 31 61  1  0
 31 62  1  0
M  END
>  <UniqueID>  (23) 
21

>  <SMILES>  (23) 
CN1CCC(C(=O)N2CCN(C(=O)c3ccc(OCc4ccccc4)cc3)CC2)CC1

>  <Energy>  (23) 
79.05012332022058

>  <Genealogy>  (23) 
CN1CCC(C(=O)N2CCN(C(=O)c3ccc(OCc4ccccc4)cc3)CC2)CC1 (3D coordinates assigned)
CN1CCC(C(=O)N2CCN(C(=O)c3ccc(OCc4ccccc4)cc3)CC2)CC1 (nonaromatic ring conformer: 79.05012332022058 kcal/mol)

>  <smiles>  (23) 
CN1CCC(C(=O)N2CCN(C(=O)c3ccc(OCc4ccccc4)cc3)CC2)CC1

>  <score_type>  (23) 
oracle

>  <origin>  (23) 
adg

>  <m_score__min__energy>  (23) 
-8.5399999999999991

>  <m_primary>  (23) 
energy

$$$$
23:0
     RDKit          3D

 43 45  0  0  0  0  0  0  0  0999 V2000
   52.7664   28.8899   54.0578 H   0  0  0  0  0  0  0  0  0  0  0  0
   53.8460   28.6920   54.1310 C   0  0  0  0  0  0  0  0  0  0  0  0
   54.2127   27.8685   54.7613 H   0  0  0  0  0  0  0  0  0  0  0  0
   54.7200   29.4590   53.4480 C   0  0  0  0  0  0  0  0  0  0  0  0
   56.0880   29.1480   53.5890 C   0  0  0  0  0  0  0  0  0  0  0  0
   56.3890   28.3360   54.2673 H   0  0  0  0  0  0  0  0  0  0  0  0
   57.0640   29.8470   52.8880 C   0  0  0  0  0  0  0  0  0  0  0  0
   58.1231   29.5732   53.0040 H   0  0  0  0  0  0  0  0  0  0  0  0
   56.7070   30.8930   52.0390 C   0  0  0  0  0  0  0  0  0  0  0  0
   57.7580   31.6290   51.3040 C   0  0  0  0  0  0  0  0  0  0  0  0
   58.1560   31.3540   50.0080 C   0  0  0  0  0  0  0  0  0  0  0  0
   57.7679   30.5578   49.3558 H   0  0  0  0  0  0  0  0  0  0  0  0
   59.1340   32.2730   49.6940 C   0  0  0  0  0  0  0  0  0  0  0  0
   59.6558   32.3320   48.7274 H   0  0  0  0  0  0  0  0  0  0  0  0
   59.3580   33.0880   50.7420 N   0  0  0  0  0  0  0  0  0  0  0  0
   60.0640   33.8570   50.7760 H   0  0  0  0  0  0  0  0  0  0  0  0
   58.5320   32.7040   51.7340 C   0  0  0  0  0  0  0  0  0  0  0  0
   58.5600   33.3080   53.0790 C   0  0  0  0  0  0  0  0  0  0  0  0
   59.1630   34.4020   53.2560 O   0  0  0  0  0  0  0  0  0  0  0  0
   57.9490   32.6570   54.1570 O   0  0  0  0  0  0  0  0  0  0  0  0
   58.6630   32.0240   55.2170 C   0  0  0  0  0  0  0  0  0  0  0  0
   59.1038   32.7872   55.8752 H   0  0  0  0  0  0  0  0  0  0  0  0
   59.7690   31.1600   54.6110 C   0  0  0  0  0  0  0  0  0  0  0  0
   60.3583   30.6997   55.4178 H   0  0  0  0  0  0  0  0  0  0  0  0
   59.3194   30.3715   53.9896 H   0  0  0  0  0  0  0  0  0  0  0  0
   60.4252   31.7871   53.9896 H   0  0  0  0  0  0  0  0  0  0  0  0
   57.7170   31.1630   56.0600 C   0  0  0  0  0  0  0  0  0  0  0  0
   57.9126   31.3411   57.1277 H   0  0  0  0  0  0  0  0  0  0  0  0
   56.6750   31.4291   55.8288 H   0  0  0  0  0  0  0  0  0  0  0  0
   57.8841   30.1006   55.8288 H   0  0  0  0  0  0  0  0  0  0  0  0
   55.3560   31.2150   51.8690 C   0  0  0  0  0  0  0  0  0  0  0  0
   55.0811   32.0230   51.1750 H   0  0  0  0  0  0  0  0  0  0  0  0
   54.3320   30.5270   52.5680 C   0  0  0  0  0  0  0  0  0  0  0  0
   53.0370   30.9240   52.4380 C   0  0  0  0  0  0  0  0  0  0  0  0
   52.4958   31.1874   53.3587 H   0  0  0  0  0  0  0  0  0  0  0  0
   52.2960   31.0310   51.1620 C   0  0  0  0  0  0  0  0  0  0  0  0
   51.3680   31.9970   50.8450 C   0  0  0  0  0  0  0  0  0  0  0  0
   51.0460   33.0990   51.6270 O   0  0  0  0  0  0  0  0  0  0  0  0
   50.8000   31.7340   49.6520 N   0  0  0  0  0  0  0  0  0  0  0  0
   51.3970   30.5800   49.2850 C   0  0  0  0  0  0  0  0  0  0  0  0
   51.1260   29.9810   48.2110 O   0  0  0  0  0  0  0  0  0  0  0  0
   52.2970   30.1170   50.1750 N   0  0  0  0  0  0  0  0  0  0  0  0
   52.8340   29.2220   50.1270 H   0  0  0  0  0  0  0  0  0  0  0  0
  1  2  1  0
  2  3  1  0
  2  4  2  0
  4  5  1  0
  5  6  1  0
  5  7  2  0
  7  8  1  0
  7  9  1  0
  9 10  1  0
 10 11  1  0
 11 12  1  0
 11 13  2  0
 13 14  1  0
 13 15  1  0
 15 16  1  0
 15 17  1  0
 17 18  1  0
 18 19  2  0
 18 20  1  0
 20 21  1  0
 21 22  1  0
 21 23  1  0
 23 24  1  0
 23 25  1  0
 23 26  1  0
 21 27  1  0
 27 28  1  0
 27 29  1  0
 27 30  1  0
  9 31  2  0
 31 32  1  0
 31 33  1  0
 33 34  2  0
 34 35  1  0
 34 36  1  0
 36 37  2  0
 37 38  1  0
 37 39  1  0
 39 40  1  0
 40 41  2  0
 40 42  1  0
 42 43  1  0
 33  4  1  0
 42 36  1  0
 17 10  2  0
M  CHG  2  38  -1  39  -1
M  END
>  <UniqueID>  (24) 
22

>  <SMILES>  (24) 
C=c1ccc(-c2cc[nH]c2C(=O)OC(C)C)c/c1=C\c1[nH]c(=O)[n-]c1[O-]

>  <Energy>  (24) 
113.54576280709307

>  <Genealogy>  (24) 
C=c1ccc(-c2cc[nH]c2C(=O)OC(C)C)cc1=Cc1[nH]c(=O)[n-]c1[O-] (protonated)
C=c1ccc(-c2cc[nH]c2C(=O)OC(C)C)c/c1=C\c1[nH]c(=O)[n-]c1[O-] (cis-trans isomerization)
C=c1ccc(-c2cc[nH]c2C(=O)OC(C)C)c/c1=C\c1[nH]c(=O)[n-]c1[O-] (3D coordinates assigned)
C=c1ccc(-c2cc[nH]c2C(=O)OC(C)C)c/c1=C\c1[nH]c(=O)[n-]c1[O-] (optimized conformer: 113.54576280709307 kcal/mol)

>  <smiles>  (24) 
C=c1ccc(-c2cc[nH]c2C(=O)OC(C)C)cc1=Cc1[nH]c(=O)[nH]c1O

>  <score_type>  (24) 
oracle

>  <origin>  (24) 
adg

>  <m_score__min__energy>  (24) 
-14.199999999999999

>  <m_primary>  (24) 
energy

$$$$
24:0
     RDKit          3D

 47 50  0  0  0  0  0  0  0  0999 V2000
   57.7990   32.6260   42.8440 O   0  0  0  0  0  0  0  0  0  0  0  0
   57.7580   32.7510   44.0970 C   0  0  0  0  0  0  0  0  0  0  0  0
   58.6530   33.7590   44.7680 C   0  0  0  0  0  0  0  0  0  0  0  0
   58.1500   34.0800   46.4980 S   0  0  0  0  0  0  0  0  0  0  0  0
   59.8100   33.9730   47.1690 C   0  0  0  0  0  0  0  0  0  0  0  0
   60.8850   33.6370   46.3360 C   0  0  0  0  0  0  0  0  0  0  0  0
   62.1800   33.5670   46.8580 C   0  0  0  0  0  0  0  0  0  0  0  0
   62.4030   33.8300   48.2140 C   0  0  0  0  0  0  0  0  0  0  0  0
   61.3310   34.1550   49.0490 C   0  0  0  0  0  0  0  0  0  0  0  0
   60.0340   34.2220   48.5300 C   0  0  0  0  0  0  0  0  0  0  0  0
   56.9960   31.8030   44.8570 N   0  0  0  0  0  0  0  0  0  0  0  0
   57.4210   30.4810   45.2080 C   0  0  0  0  0  0  0  0  0  0  0  0
   56.5960   29.3910   44.9080 C   0  0  0  0  0  0  0  0  0  0  0  0
   56.9860   28.0940   45.2550 C   0  0  0  0  0  0  0  0  0  0  0  0
   58.2060   27.8730   45.9170 C   0  0  0  0  0  0  0  0  0  0  0  0
   58.6140   26.5020   46.2820 C   0  0  0  0  0  0  0  0  0  0  0  0
   59.1750   26.3080   47.3950 O   0  0  0  0  0  0  0  0  0  0  0  0
   58.3700   25.3860   45.4080 N   0  0  0  0  0  0  0  0  0  0  0  0
   58.9750   24.0680   45.6190 C   0  0  0  0  0  0  0  0  0  0  0  0
   58.2380   23.2010   44.6680 C   0  0  0  0  0  0  0  0  0  0  0  0
   58.4140   21.8350   44.4410 C   0  0  0  0  0  0  0  0  0  0  0  0
   57.5950   21.2040   43.4900 C   0  0  0  0  0  0  0  0  0  0  0  0
   56.6200   21.9410   42.7910 C   0  0  0  0  0  0  0  0  0  0  0  0
   56.4610   23.3140   43.0380 C   0  0  0  0  0  0  0  0  0  0  0  0
   57.2860   23.9210   43.9870 C   0  0  0  0  0  0  0  0  0  0  0  0
   57.3010   25.3430   44.4050 C   0  0  0  0  0  0  0  0  0  0  0  0
   59.0000   28.9740   46.2720 C   0  0  0  0  0  0  0  0  0  0  0  0
   58.6090   30.2680   45.9200 C   0  0  0  0  0  0  0  0  0  0  0  0
   59.6844   33.3765   44.7634 H   0  0  0  0  0  0  0  0  0  0  0  0
   58.5762   34.7046   44.2113 H   0  0  0  0  0  0  0  0  0  0  0  0
   60.7100   33.4281   45.2703 H   0  0  0  0  0  0  0  0  0  0  0  0
   63.0237   33.3051   46.2026 H   0  0  0  0  0  0  0  0  0  0  0  0
   63.4230   33.7809   48.6229 H   0  0  0  0  0  0  0  0  0  0  0  0
   61.5073   34.3584   50.1156 H   0  0  0  0  0  0  0  0  0  0  0  0
   59.1897   34.4701   49.1900 H   0  0  0  0  0  0  0  0  0  0  0  0
   55.6361   29.5555   44.3967 H   0  0  0  0  0  0  0  0  0  0  0  0
   56.3348   27.2423   45.0087 H   0  0  0  0  0  0  0  0  0  0  0  0
   60.0498   24.0853   45.3855 H   0  0  0  0  0  0  0  0  0  0  0  0
   58.9047   23.7228   46.6611 H   0  0  0  0  0  0  0  0  0  0  0  0
   59.1761   21.2661   44.9938 H   0  0  0  0  0  0  0  0  0  0  0  0
   57.7160   20.1290   43.2905 H   0  0  0  0  0  0  0  0  0  0  0  0
   55.9809   21.4397   42.0492 H   0  0  0  0  0  0  0  0  0  0  0  0
   55.7032   23.8986   42.4958 H   0  0  0  0  0  0  0  0  0  0  0  0
   57.5312   26.0017   43.5546 H   0  0  0  0  0  0  0  0  0  0  0  0
   56.3315   25.6890   44.7927 H   0  0  0  0  0  0  0  0  0  0  0  0
   59.9348   28.8174   46.8302 H   0  0  0  0  0  0  0  0  0  0  0  0
   59.2375   31.1251   46.2035 H   0  0  0  0  0  0  0  0  0  0  0  0
  1  2  2  0
  2  3  1  0
  3  4  1  0
  4  5  1  0
  5  6  2  0
  6  7  1  0
  7  8  2  0
  8  9  1  0
  9 10  2  0
  2 11  1  0
 11 12  1  0
 12 13  2  0
 13 14  1  0
 14 15  2  0
 15 16  1  0
 16 17  2  0
 16 18  1  0
 18 19  1  0
 19 20  1  0
 20 21  2  0
 21 22  1  0
 22 23  2  0
 23 24  1  0
 24 25  2  0
 25 26  1  0
 15 27  1  0
 27 28  2  0
 10  5  1  0
 28 12  1  0
 26 18  1  0
 25 20  1  0
  3 29  1  0
  3 30  1  0
  6 31  1  0
  7 32  1  0
  8 33  1  0
  9 34  1  0
 10 35  1  0
 13 36  1  0
 14 37  1  0
 19 38  1  0
 19 39  1  0
 21 40  1  0
 22 41  1  0
 23 42  1  0
 24 43  1  0
 26 44  1  0
 26 45  1  0
 27 46  1  0
 28 47  1  0
M  CHG  1  11  -1
M  END
>  <UniqueID>  (25) 
23

>  <SMILES>  (25) 
O=C(CSc1ccccc1)[N-]c1ccc(C(=O)N2Cc3ccccc3C2)cc1

>  <Energy>  (25) 
65.67480902945205

>  <Genealogy>  (25) 
O=C(CSc1ccccc1)[N-]c1ccc(C(=O)N2Cc3ccccc3C2)cc1 (protonated)
O=C(CSc1ccccc1)[N-]c1ccc(C(=O)N2Cc3ccccc3C2)cc1 (3D coordinates assigned)
O=C(CSc1ccccc1)[N-]c1ccc(C(=O)N2Cc3ccccc3C2)cc1 (nonaromatic ring conformer: 65.67480902945205 kcal/mol)

>  <smiles>  (25) 
O=C(CSc1ccccc1)Nc1ccc(C(=O)N2Cc3ccccc3C2)cc1

>  <score_type>  (25) 
oracle

>  <origin>  (25) 
adg

>  <m_score__min__energy>  (25) 
-10.119999999999999

>  <m_primary>  (25) 
energy

$$$$
25:0
     RDKit          3D

 60 64  0  0  0  0  0  0  0  0999 V2000
   65.3670   33.0300   49.5990 C   0  0  0  0  0  0  0  0  0  0  0  0
   63.9630   33.2000   49.1130 C   0  0  0  0  0  0  0  0  0  0  0  0
   63.4550   32.8470   47.5490 S   0  0  0  0  0  0  0  0  0  0  0  0
   61.8200   33.0540   47.9020 C   0  0  0  0  0  0  0  0  0  0  0  0
   60.7020   32.8620   46.9510 C   0  0  0  0  0  0  0  0  0  0  0  0
   60.2310   33.9450   46.1860 C   0  0  0  0  0  0  0  0  0  0  0  0
   59.1500   33.7800   45.3150 C   0  0  0  0  0  0  0  0  0  0  0  0
   58.5220   32.5320   45.1920 C   0  0  0  0  0  0  0  0  0  0  0  0
   57.3600   32.3570   44.2570 C   0  0  0  0  0  0  0  0  0  0  0  0
   56.3730   31.4720   44.8690 N   0  0  0  0  0  0  0  0  0  0  0  0
   56.2520   30.0010   43.9520 S   0  0  0  0  0  0  0  0  0  0  0  0
   54.8040   29.7110   43.6710 O   0  0  0  0  0  0  0  0  0  0  0  0
   56.9690   30.1650   42.6410 O   0  0  0  0  0  0  0  0  0  0  0  0
   56.9560   28.6540   44.8350 C   0  0  0  0  0  0  0  0  0  0  0  0
   58.3420   28.4920   44.9010 C   0  0  0  0  0  0  0  0  0  0  0  0
   58.8680   27.3990   45.5900 C   0  0  0  0  0  0  0  0  0  0  0  0
   58.0140   26.4750   46.1920 C   0  0  0  0  0  0  0  0  0  0  0  0
   56.6190   26.6610   46.0980 C   0  0  0  0  0  0  0  0  0  0  0  0
   55.7690   25.8250   46.6230 N   0  0  0  0  0  0  0  0  0  0  0  0
   55.6480   24.4090   46.2810 C   0  0  0  0  0  0  0  0  0  0  0  0
   54.4690   24.1250   45.3700 C   0  0  0  0  0  0  0  0  0  0  0  0
   55.8860   24.1100   44.8130 C   0  0  0  0  0  0  0  0  0  0  0  0
   56.1390   27.7400   45.4250 N   0  0  0  0  0  0  0  0  0  0  0  0
   59.0100   31.4420   45.9270 C   0  0  0  0  0  0  0  0  0  0  0  0
   60.0840   31.6060   46.8070 C   0  0  0  0  0  0  0  0  0  0  0  0
   61.6470   33.3700   49.2070 N   0  0  0  0  0  0  0  0  0  0  0  0
   62.8250   33.4620   49.8830 C   0  0  0  0  0  0  0  0  0  0  0  0
   62.8470   33.7540   51.3260 C   0  0  0  0  0  0  0  0  0  0  0  0
   63.5030   34.7450   51.7410 O   0  0  0  0  0  0  0  0  0  0  0  0
   62.1720   32.9050   52.2670 N   0  0  0  0  0  0  0  0  0  0  0  0
   62.3720   31.4500   52.1770 C   0  0  0  0  0  0  0  0  0  0  0  0
   61.8470   30.7190   53.4150 C   0  0  0  0  0  0  0  0  0  0  0  0
   60.6120   31.2570   53.8370 O   0  0  0  0  0  0  0  0  0  0  0  0
   60.8280   32.5600   54.3350 C   0  0  0  0  0  0  0  0  0  0  0  0
   61.2230   33.5170   53.2060 C   0  0  0  0  0  0  0  0  0  0  0  0
   65.3766   33.0288   50.6990 H   0  0  0  0  0  0  0  0  0  0  0  0
   65.7706   32.0764   49.2278 H   0  0  0  0  0  0  0  0  0  0  0  0
   65.9865   33.8597   49.2278 H   0  0  0  0  0  0  0  0  0  0  0  0
   60.7166   34.9281   46.2739 H   0  0  0  0  0  0  0  0  0  0  0  0
   58.7899   34.6340   44.7226 H   0  0  0  0  0  0  0  0  0  0  0  0
   56.9003   33.3359   44.0559 H   0  0  0  0  0  0  0  0  0  0  0  0
   57.7120   31.9168   43.3124 H   0  0  0  0  0  0  0  0  0  0  0  0
   59.0108   29.2178   44.4153 H   0  0  0  0  0  0  0  0  0  0  0  0
   59.9577   27.2657   45.6586 H   0  0  0  0  0  0  0  0  0  0  0  0
   58.4241   25.6103   46.7344 H   0  0  0  0  0  0  0  0  0  0  0  0
   56.0289   23.9950   47.2263 H   0  0  0  0  0  0  0  0  0  0  0  0
   53.9081   23.1843   45.4728 H   0  0  0  0  0  0  0  0  0  0  0  0
   53.5377   24.6518   45.1148 H   0  0  0  0  0  0  0  0  0  0  0  0
   56.3495   23.1585   44.5132 H   0  0  0  0  0  0  0  0  0  0  0  0
   56.4038   24.6215   43.9882 H   0  0  0  0  0  0  0  0  0  0  0  0
   58.5450   30.4520   45.8105 H   0  0  0  0  0  0  0  0  0  0  0  0
   60.4483   30.7477   47.3906 H   0  0  0  0  0  0  0  0  0  0  0  0
   61.8407   31.0731   51.2906 H   0  0  0  0  0  0  0  0  0  0  0  0
   63.4532   31.2605   52.1048 H   0  0  0  0  0  0  0  0  0  0  0  0
   61.7113   29.6545   53.1731 H   0  0  0  0  0  0  0  0  0  0  0  0
   62.5774   30.8405   54.2285 H   0  0  0  0  0  0  0  0  0  0  0  0
   59.9035   32.9228   54.8080 H   0  0  0  0  0  0  0  0  0  0  0  0
   61.6464   32.5250   55.0691 H   0  0  0  0  0  0  0  0  0  0  0  0
   60.3167   33.8078   52.6546 H   0  0  0  0  0  0  0  0  0  0  0  0
   61.7130   34.3910   53.6599 H   0  0  0  0  0  0  0  0  0  0  0  0
  1  2  1  0
  2  3  1  0
  3  4  1  0
  4  5  1  0
  5  6  2  0
  6  7  1  0
  7  8  2  0
  8  9  1  0
  9 10  1  0
 10 11  1  0
 11 12  2  0
 11 13  2  0
 11 14  1  0
 14 15  2  0
 15 16  1  0
 16 17  2  0
 17 18  1  0
 18 19  2  3
 19 20  1  0
 20 21  1  0
 21 22  1  0
 18 23  1  0
  8 24  1  0
 24 25  2  0
  4 26  2  0
 26 27  1  0
 27 28  1  0
 28 29  2  0
 28 30  1  0
 30 31  1  0
 31 32  1  0
 32 33  1  0
 33 34  1  0
 34 35  1  0
 27  2  2  0
 35 30  1  0
 25  5  1  0
 23 14  1  0
 22 20  1  0
  1 36  1  0
  1 37  1  0
  1 38  1  0
  6 39  1  0
  7 40  1  0
  9 41  1  0
  9 42  1  0
 15 43  1  0
 16 44  1  0
 17 45  1  0
 20 46  1  0
 21 47  1  0
 21 48  1  0
 22 49  1  0
 22 50  1  0
 24 51  1  0
 25 52  1  0
 31 53  1  0
 31 54  1  0
 32 55  1  0
 32 56  1  0
 34 57  1  0
 34 58  1  0
 35 59  1  0
 35 60  1  0
M  CHG  2  10  -1  23  -1
M  END
>  <UniqueID>  (26) 
24

>  <SMILES>  (26) 
Cc1sc(-c2ccc(C[N-]S(=O)(=O)c3cccc(=NC4CC4)[n-]3)cc2)nc1C(=O)N1CCOCC1

>  <Energy>  (26) 
366.9233805905278

>  <Genealogy>  (26) 
Cc1sc(-c2ccc(C[N-]S(=O)(=O)c3cccc(=NC4CC4)[n-]3)cc2)nc1C(=O)N1CCOCC1 (protonated)
Cc1sc(-c2ccc(C[N-]S(=O)(=O)c3cccc(=NC4CC4)[n-]3)cc2)nc1C(=O)N1CCOCC1 (3D coordinates assigned)
Cc1sc(-c2ccc(C[N-]S(=O)(=O)c3cccc(=NC4CC4)[n-]3)cc2)nc1C(=O)N1CCOCC1 (nonaromatic ring conformer: 366.9233805905278 kcal/mol)

>  <smiles>  (26) 
Cc1sc(-c2ccc(CNS(=O)(=O)c3cccc(=NC4CC4)[nH]3)cc2)nc1C(=O)N1CCOCC1

>  <score_type>  (26) 
oracle

>  <origin>  (26) 
adg

>  <m_score__min__energy>  (26) 
-13.199999999999999

>  <m_primary>  (26) 
energy

$$$$
26:0
     RDKit          3D

 45 47  0  0  0  0  0  0  0  0999 V2000
   56.6260   29.3980   42.7700 C   0  0  0  0  0  0  0  0  0  0  0  0
   55.9600   30.2990   43.8060 C   0  0  0  0  0  0  0  0  0  0  0  0
   56.8960   30.5820   44.9190 N   0  0  0  0  0  0  0  0  0  0  0  0
   57.4510   29.3290   45.4820 C   0  0  0  0  0  0  0  0  0  0  0  0
   58.9430   29.4860   45.7560 C   0  0  0  0  0  0  0  0  0  0  0  0
   57.9770   31.4990   44.4890 C   0  0  0  0  0  0  0  0  0  0  0  0
   57.3950   32.8790   44.1550 C   0  0  0  0  0  0  0  0  0  0  0  0
   57.3520   33.8070   45.3780 C   0  0  0  0  0  0  0  0  0  0  0  0
   58.4970   33.5690   46.2750 N   0  0  0  0  0  0  0  0  0  0  0  0
   58.2580   33.1120   47.5550 C   0  0  0  0  0  0  0  0  0  0  0  0
   59.3110   32.8930   48.4590 C   0  0  0  0  0  0  0  0  0  0  0  0
   60.5960   33.1560   48.0090 C   0  0  0  0  0  0  0  0  0  0  0  0
   60.8380   33.6110   46.7350 C   0  0  0  0  0  0  0  0  0  0  0  0
   62.1580   33.8010   46.5140 N   0  0  0  0  0  0  0  0  0  0  0  0
   62.7520   33.4570   47.6780 C   0  0  0  0  0  0  0  0  0  0  0  0
   64.1150   33.4780   47.9680 C   0  0  0  0  0  0  0  0  0  0  0  0
   64.5230   33.0770   49.2530 C   0  0  0  0  0  0  0  0  0  0  0  0
   63.5700   32.6670   50.2140 C   0  0  0  0  0  0  0  0  0  0  0  0
   62.1980   32.6530   49.9000 C   0  0  0  0  0  0  0  0  0  0  0  0
   61.8260   33.0550   48.6190 C   0  0  0  0  0  0  0  0  0  0  0  0
   59.7830   33.8230   45.8480 C   0  0  0  0  0  0  0  0  0  0  0  0
   60.0140   34.2420   44.6800 O   0  0  0  0  0  0  0  0  0  0  0  0
   57.2045   28.6153   43.2825 H   0  0  0  0  0  0  0  0  0  0  0  0
   55.8545   28.9307   42.1403 H   0  0  0  0  0  0  0  0  0  0  0  0
   57.2990   29.9985   42.1403 H   0  0  0  0  0  0  0  0  0  0  0  0
   55.6669   31.2457   43.3287 H   0  0  0  0  0  0  0  0  0  0  0  0
   55.0719   29.7881   44.2064 H   0  0  0  0  0  0  0  0  0  0  0  0
   56.9323   29.0932   46.4229 H   0  0  0  0  0  0  0  0  0  0  0  0
   57.3046   28.5155   44.7563 H   0  0  0  0  0  0  0  0  0  0  0  0
   59.1164   29.5042   46.8421 H   0  0  0  0  0  0  0  0  0  0  0  0
   59.4884   28.6403   45.3118 H   0  0  0  0  0  0  0  0  0  0  0  0
   59.3004   30.4267   45.3118 H   0  0  0  0  0  0  0  0  0  0  0  0
   58.7123   31.6009   45.3008 H   0  0  0  0  0  0  0  0  0  0  0  0
   58.4640   31.0868   43.5929 H   0  0  0  0  0  0  0  0  0  0  0  0
   58.0179   33.3467   43.3782 H   0  0  0  0  0  0  0  0  0  0  0  0
   56.3614   32.7325   43.8082 H   0  0  0  0  0  0  0  0  0  0  0  0
   57.3772   34.8519   45.0353 H   0  0  0  0  0  0  0  0  0  0  0  0
   56.4267   33.6011   45.9361 H   0  0  0  0  0  0  0  0  0  0  0  0
   57.2236   32.9155   47.8735 H   0  0  0  0  0  0  0  0  0  0  0  0
   59.1241   32.5286   49.4799 H   0  0  0  0  0  0  0  0  0  0  0  0
   62.6190   34.1400   45.6400 H   0  0  0  0  0  0  0  0  0  0  0  0
   64.8496   33.7985   47.2146 H   0  0  0  0  0  0  0  0  0  0  0  0
   65.5919   33.0824   49.5125 H   0  0  0  0  0  0  0  0  0  0  0  0
   63.9037   32.3565   51.2151 H   0  0  0  0  0  0  0  0  0  0  0  0
   61.4471   32.3363   50.6388 H   0  0  0  0  0  0  0  0  0  0  0  0
  1  2  1  0
  2  3  1  0
  3  4  1  0
  4  5  1  0
  3  6  1  0
  6  7  1  0
  7  8  1  0
  8  9  1  0
  9 10  1  0
 10 11  2  0
 11 12  1  0
 12 13  2  0
 13 14  1  0
 14 15  1  0
 15 16  2  0
 16 17  1  0
 17 18  2  0
 18 19  1  0
 19 20  2  0
 13 21  1  0
 21 22  2  0
 21  9  1  0
 20 12  1  0
 20 15  1  0
  1 23  1  0
  1 24  1  0
  1 25  1  0
  2 26  1  0
  2 27  1  0
  4 28  1  0
  4 29  1  0
  5 30  1  0
  5 31  1  0
  5 32  1  0
  6 33  1  0
  6 34  1  0
  7 35  1  0
  7 36  1  0
  8 37  1  0
  8 38  1  0
 10 39  1  0
 11 40  1  0
 14 41  1  0
 16 42  1  0
 17 43  1  0
 18 44  1  0
 19 45  1  0
M  END
>  <UniqueID>  (27) 
25

>  <SMILES>  (27) 
CCN(CC)CCCn1ccc2c([nH]c3ccccc32)c1=O

>  <Energy>  (27) 
85.11021708437065

>  <Genealogy>  (27) 
CCN(CC)CCCn1ccc2c([nH]c3ccccc32)c1=O (3D coordinates assigned)
CCN(CC)CCCn1ccc2c([nH]c3ccccc32)c1=O (optimized conformer: 85.11021708437065 kcal/mol)

>  <smiles>  (27) 
CCN(CC)CCCn1ccc2c([nH]c3ccccc32)c1=O

>  <score_type>  (27) 
oracle

>  <origin>  (27) 
adg

>  <m_score__min__energy>  (27) 
-7.5700000000000003

>  <m_primary>  (27) 
energy

$$$$
27:0
     RDKit          3D

 56 59  0  0  0  0  0  0  0  0999 V2000
   55.1760   26.6880   46.0160 O   0  0  0  0  0  0  0  0  0  0  0  0
   56.0740   25.8520   46.2960 C   0  0  0  0  0  0  0  0  0  0  0  0
   57.5160   26.2500   46.1260 C   0  0  0  0  0  0  0  0  0  0  0  0
   57.6590   27.4580   45.1940 C   0  0  0  0  0  0  0  0  0  0  0  0
   56.9780   28.6290   45.7390 N   0  0  0  0  0  0  0  0  0  0  0  0
   56.3230   29.6180   44.9350 C   0  0  0  0  0  0  0  0  0  0  0  0
   55.1120   29.4660   44.6170 O   0  0  0  0  0  0  0  0  0  0  0  0
   57.0650   30.8170   44.4790 C   0  0  0  0  0  0  0  0  0  0  0  0
   57.2950   31.0380   43.1090 C   0  0  0  0  0  0  0  0  0  0  0  0
   57.9990   32.1680   42.6830 C   0  0  0  0  0  0  0  0  0  0  0  0
   58.4780   33.0900   43.6150 C   0  0  0  0  0  0  0  0  0  0  0  0
   58.2530   32.8890   44.9830 C   0  0  0  0  0  0  0  0  0  0  0  0
   58.8500   34.0380   46.1760 S   0  0  0  0  0  0  0  0  0  0  0  0
   57.7270   34.4050   47.1070 O   0  0  0  0  0  0  0  0  0  0  0  0
   59.3190   35.2890   45.4840 O   0  0  0  0  0  0  0  0  0  0  0  0
   60.1680   33.3460   47.0900 N   0  0  0  0  0  0  0  0  0  0  0  0
   61.4350   34.0730   47.1900 C   0  0  0  0  0  0  0  0  0  0  0  0
   62.5770   33.1540   46.7690 C   0  0  0  0  0  0  0  0  0  0  0  0
   62.6360   31.9230   47.6840 C   0  0  0  0  0  0  0  0  0  0  0  0
   61.2780   31.2950   47.9100 C   0  0  0  0  0  0  0  0  0  0  0  0
   61.2060   30.0060   48.4610 C   0  0  0  0  0  0  0  0  0  0  0  0
   59.9690   29.4310   48.7570 C   0  0  0  0  0  0  0  0  0  0  0  0
   58.7930   30.1450   48.5240 C   0  0  0  0  0  0  0  0  0  0  0  0
   58.8480   31.4330   47.9860 C   0  0  0  0  0  0  0  0  0  0  0  0
   60.0870   32.0200   47.6600 C   0  0  0  0  0  0  0  0  0  0  0  0
   57.5470   31.7550   45.4100 C   0  0  0  0  0  0  0  0  0  0  0  0
   55.6860   24.5360   46.7100 N   0  0  0  0  0  0  0  0  0  0  0  0
   54.8390   23.6180   45.9530 C   0  0  0  0  0  0  0  0  0  0  0  0
   55.5630   23.1060   44.7490 C   0  0  0  0  0  0  0  0  0  0  0  0
   56.0930   23.8770   43.7330 C   0  0  0  0  0  0  0  0  0  0  0  0
   56.6710   22.9850   42.8540 C   0  0  0  0  0  0  0  0  0  0  0  0
   56.4590   21.7300   43.3880 C   0  0  0  0  0  0  0  0  0  0  0  0
   55.7970   21.8340   44.5180 O   0  0  0  0  0  0  0  0  0  0  0  0
   57.9345   26.5065   47.1104 H   0  0  0  0  0  0  0  0  0  0  0  0
   58.0574   25.4032   45.6790 H   0  0  0  0  0  0  0  0  0  0  0  0
   58.7269   27.6900   45.0686 H   0  0  0  0  0  0  0  0  0  0  0  0
   57.2003   27.2074   44.2261 H   0  0  0  0  0  0  0  0  0  0  0  0
   56.9185   30.3171   42.3683 H   0  0  0  0  0  0  0  0  0  0  0  0
   58.1761   32.3311   41.6097 H   0  0  0  0  0  0  0  0  0  0  0  0
   59.0334   33.9764   43.2746 H   0  0  0  0  0  0  0  0  0  0  0  0
   61.4077   34.9519   46.5291 H   0  0  0  0  0  0  0  0  0  0  0  0
   61.5902   34.4026   48.2279 H   0  0  0  0  0  0  0  0  0  0  0  0
   62.4158   32.8271   45.7311 H   0  0  0  0  0  0  0  0  0  0  0  0
   63.5263   33.7041   46.8481 H   0  0  0  0  0  0  0  0  0  0  0  0
   63.2973   31.1742   47.2236 H   0  0  0  0  0  0  0  0  0  0  0  0
   63.0143   32.2551   48.6621 H   0  0  0  0  0  0  0  0  0  0  0  0
   62.1309   29.4451   48.6609 H   0  0  0  0  0  0  0  0  0  0  0  0
   59.9212   28.4143   49.1742 H   0  0  0  0  0  0  0  0  0  0  0  0
   57.8198   29.6923   48.7647 H   0  0  0  0  0  0  0  0  0  0  0  0
   57.9169   31.9934   47.8155 H   0  0  0  0  0  0  0  0  0  0  0  0
   57.3683   31.5974   46.4839 H   0  0  0  0  0  0  0  0  0  0  0  0
   54.5608   22.7696   46.5955 H   0  0  0  0  0  0  0  0  0  0  0  0
   53.9384   24.1566   45.6230 H   0  0  0  0  0  0  0  0  0  0  0  0
   56.0609   24.9729   43.6436 H   0  0  0  0  0  0  0  0  0  0  0  0
   57.1949   23.2252   41.9171 H   0  0  0  0  0  0  0  0  0  0  0  0
   56.7939   20.7850   42.9355 H   0  0  0  0  0  0  0  0  0  0  0  0
  1  2  2  0
  2  3  1  0
  3  4  1  0
  4  5  1  0
  5  6  1  0
  6  7  2  0
  6  8  1  0
  8  9  2  0
  9 10  1  0
 10 11  2  0
 11 12  1  0
 12 13  1  0
 13 14  2  0
 13 15  2  0
 13 16  1  0
 16 17  1  0
 17 18  1  0
 18 19  1  0
 19 20  1  0
 20 21  2  0
 21 22  1  0
 22 23  2  0
 23 24  1  0
 24 25  2  0
 12 26  2  0
  2 27  1  0
 27 28  1  0
 28 29  1  0
 29 30  2  0
 30 31  1  0
 31 32  2  0
 32 33  1  0
 26  8  1  0
 33 29  1  0
 25 16  1  0
 25 20  1  0
  3 34  1  0
  3 35  1  0
  4 36  1  0
  4 37  1  0
  9 38  1  0
 10 39  1  0
 11 40  1  0
 17 41  1  0
 17 42  1  0
 18 43  1  0
 18 44  1  0
 19 45  1  0
 19 46  1  0
 21 47  1  0
 22 48  1  0
 23 49  1  0
 24 50  1  0
 26 51  1  0
 28 52  1  0
 28 53  1  0
 30 54  1  0
 31 55  1  0
 32 56  1  0
M  CHG  2   5  -1  27  -1
M  END
>  <UniqueID>  (28) 
26

>  <SMILES>  (28) 
O=C(CC[N-]C(=O)c1cccc(S(=O)(=O)N2CCCc3ccccc32)c1)[N-]Cc1ccco1

>  <Energy>  (28) 
82.73147893171294

>  <Genealogy>  (28) 
O=C(CC[N-]C(=O)c1cccc(S(=O)(=O)N2CCCc3ccccc32)c1)[N-]Cc1ccco1 (protonated)
O=C(CC[N-]C(=O)c1cccc(S(=O)(=O)N2CCCc3ccccc32)c1)[N-]Cc1ccco1 (3D coordinates assigned)
O=C(CC[N-]C(=O)c1cccc(S(=O)(=O)N2CCCc3ccccc32)c1)[N-]Cc1ccco1 (nonaromatic ring conformer: 82.73147893171294 kcal/mol)

>  <smiles>  (28) 
O=C(CCNC(=O)c1cccc(S(=O)(=O)N2CCCc3ccccc32)c1)NCc1ccco1

>  <score_type>  (28) 
oracle

>  <origin>  (28) 
adg

>  <m_score__min__energy>  (28) 
-15.050000000000001

>  <m_primary>  (28) 
energy

$$$$
28:0
     RDKit          3D

 41 43  0  0  0  0  0  0  0  0999 V2000
   57.5510   26.4850   44.2990 O   0  0  0  0  0  0  0  0  0  0  0  0
   57.5120   26.9130   45.4840 C   0  0  0  0  0  0  0  0  0  0  0  0
   56.3680   26.6540   46.3180 N   0  0  0  0  0  0  0  0  0  0  0  0
   55.5430   25.6510   46.2310 C   0  0  0  0  0  0  0  0  0  0  0  0
   54.3260   25.7830   45.6320 N   0  0  0  0  0  0  0  0  0  0  0  0
   53.4680   24.7330   45.5440 C   0  0  0  0  0  0  0  0  0  0  0  0
   53.8310   23.4940   46.0720 C   0  0  0  0  0  0  0  0  0  0  0  0
   55.0780   23.3740   46.6820 C   0  0  0  0  0  0  0  0  0  0  0  0
   55.9060   24.4490   46.7500 N   0  0  0  0  0  0  0  0  0  0  0  0
   58.6210   27.6680   46.0130 N   0  0  0  0  0  0  0  0  0  0  0  0
   59.8200   27.9230   45.2030 C   0  0  0  0  0  0  0  0  0  0  0  0
   60.3260   29.3670   45.3970 C   0  0  0  0  0  0  0  0  0  0  0  0
   60.0950   29.9260   46.7570 N   0  0  0  0  0  0  0  0  0  0  0  0
   59.0410   30.9630   46.7710 C   0  0  0  0  0  0  0  0  0  0  0  0
   58.1570   30.8240   45.5600 C   0  0  0  0  0  0  0  0  0  0  0  0
   58.4160   31.5640   44.3940 C   0  0  0  0  0  0  0  0  0  0  0  0
   57.5820   31.4360   43.2790 C   0  0  0  0  0  0  0  0  0  0  0  0
   56.4870   30.5680   43.3190 C   0  0  0  0  0  0  0  0  0  0  0  0
   56.2200   29.8270   44.4730 C   0  0  0  0  0  0  0  0  0  0  0  0
   55.1230   28.9670   44.4990 O   0  0  0  0  0  0  0  0  0  0  0  0
   57.0540   29.9550   45.5940 C   0  0  0  0  0  0  0  0  0  0  0  0
   59.8600   28.8840   47.7780 C   0  0  0  0  0  0  0  0  0  0  0  0
   58.6280   28.0360   47.4330 C   0  0  0  0  0  0  0  0  0  0  0  0
   52.4896   24.8598   45.0576 H   0  0  0  0  0  0  0  0  0  0  0  0
   53.1496   22.6328   46.0084 H   0  0  0  0  0  0  0  0  0  0  0  0
   55.3918   22.4097   47.1082 H   0  0  0  0  0  0  0  0  0  0  0  0
   60.6122   27.2215   45.5036 H   0  0  0  0  0  0  0  0  0  0  0  0
   59.5610   27.7836   44.1430 H   0  0  0  0  0  0  0  0  0  0  0  0
   61.4080   29.3811   45.1993 H   0  0  0  0  0  0  0  0  0  0  0  0
   59.7523   29.9952   44.6997 H   0  0  0  0  0  0  0  0  0  0  0  0
   58.4321   30.8496   47.6800 H   0  0  0  0  0  0  0  0  0  0  0  0
   59.5147   31.9557   46.7570 H   0  0  0  0  0  0  0  0  0  0  0  0
   59.2779   32.2465   44.3582 H   0  0  0  0  0  0  0  0  0  0  0  0
   57.7878   32.0191   42.3692 H   0  0  0  0  0  0  0  0  0  0  0  0
   55.8338   30.4681   42.4396 H   0  0  0  0  0  0  0  0  0  0  0  0
   55.1370   28.1080   45.0370 H   0  0  0  0  0  0  0  0  0  0  0  0
   56.8432   29.3725   46.5030 H   0  0  0  0  0  0  0  0  0  0  0  0
   60.7423   28.2294   47.8321 H   0  0  0  0  0  0  0  0  0  0  0  0
   59.6831   29.3777   48.7449 H   0  0  0  0  0  0  0  0  0  0  0  0
   58.6407   27.1197   48.0415 H   0  0  0  0  0  0  0  0  0  0  0  0
   57.7257   28.6284   47.6449 H   0  0  0  0  0  0  0  0  0  0  0  0
  1  2  2  0
  2  3  1  0
  3  4  2  3
  4  5  1  0
  5  6  2  0
  6  7  1  0
  7  8  2  0
  8  9  1  0
  2 10  1  0
 10 11  1  0
 11 12  1  0
 12 13  1  0
 13 14  1  0
 14 15  1  0
 15 16  2  0
 16 17  1  0
 17 18  2  0
 18 19  1  0
 19 20  1  0
 19 21  2  0
 13 22  1  0
 22 23  1  0
  9  4  1  0
 23 10  1  0
 21 15  1  0
  6 24  1  0
  7 25  1  0
  8 26  1  0
 11 27  1  0
 11 28  1  0
 12 29  1  0
 12 30  1  0
 14 31  1  0
 14 32  1  0
 16 33  1  0
 17 34  1  0
 18 35  1  0
 20 36  1  0
 21 37  1  0
 22 38  1  0
 22 39  1  0
 23 40  1  0
 23 41  1  0
M  CHG  1   9  -1
M  END
>  <UniqueID>  (29) 
27

>  <SMILES>  (29) 
O=C(N=c1nccc[n-]1)N1CCN(Cc2cccc(O)c2)CC1

>  <Energy>  (29) 
53.324785104544745

>  <Genealogy>  (29) 
O=C(N=c1nccc[n-]1)N1CCN(Cc2cccc(O)c2)CC1 (protonated)
O=C(N=c1nccc[n-]1)N1CCN(Cc2cccc(O)c2)CC1 (3D coordinates assigned)
O=C(N=c1nccc[n-]1)N1CCN(Cc2cccc(O)c2)CC1 (nonaromatic ring conformer: 53.324785104544745 kcal/mol)

>  <smiles>  (29) 
O=C(N=c1nccc[nH]1)N1CCN(Cc2cccc(O)c2)CC1

>  <score_type>  (29) 
oracle

>  <origin>  (29) 
adg

>  <m_score__min__energy>  (29) 
-9.5800000000000001

>  <m_primary>  (29) 
energy

$$$$
29:0
     RDKit          3D

 58 60  0  0  0  0  0  0  0  0999 V2000
   65.0120   34.2850   51.7440 C   0  0  0  0  0  0  0  0  0  0  0  0
   65.9540   33.7740   50.9370 C   0  0  0  0  0  0  0  0  0  0  0  0
   67.4050   34.0460   51.2250 C   0  0  0  0  0  0  0  0  0  0  0  0
   65.5720   32.9280   49.7450 C   0  0  0  0  0  0  0  0  0  0  0  0
   64.1780   33.2020   49.3420 N   0  0  0  0  0  0  0  0  0  0  0  0
   63.2180   32.2390   49.9490 C   0  0  0  0  0  0  0  0  0  0  0  0
   62.5510   31.3020   48.9310 C   0  0  0  0  0  0  0  0  0  0  0  0
   61.9500   32.0850   47.8440 N   0  0  0  0  0  0  0  0  0  0  0  0
   60.7650   31.6170   47.1630 C   0  0  0  0  0  0  0  0  0  0  0  0
   60.7740   30.3910   46.4720 C   0  0  0  0  0  0  0  0  0  0  0  0
   59.6260   29.9360   45.8170 C   0  0  0  0  0  0  0  0  0  0  0  0
   58.4530   30.7060   45.8260 C   0  0  0  0  0  0  0  0  0  0  0  0
   57.2540   30.2400   45.1970 N   0  0  0  0  0  0  0  0  0  0  0  0
   56.6450   28.9580   45.3990 C   0  0  0  0  0  0  0  0  0  0  0  0
   55.5270   28.7320   44.8640 O   0  0  0  0  0  0  0  0  0  0  0  0
   57.3780   27.8550   46.1270 C   0  0  0  0  0  0  0  0  0  0  0  0
   57.1220   26.4980   45.5210 C   0  0  0  0  0  0  0  0  0  0  0  0
   56.2840   25.5760   46.1690 C   0  0  0  0  0  0  0  0  0  0  0  0
   56.0670   24.3110   45.6150 C   0  0  0  0  0  0  0  0  0  0  0  0
   56.6930   23.9480   44.4150 C   0  0  0  0  0  0  0  0  0  0  0  0
   56.3980   22.3560   43.7220 S   0  0  0  0  0  0  0  0  0  0  0  0
   57.9450   21.5050   43.5160 C   0  0  0  0  0  0  0  0  0  0  0  0
   55.5080   21.5520   44.6280 O   0  0  0  0  0  0  0  0  0  0  0  0
   55.7210   22.5080   42.3880 O   0  0  0  0  0  0  0  0  0  0  0  0
   57.5370   24.8630   43.7700 C   0  0  0  0  0  0  0  0  0  0  0  0
   57.7530   26.1300   44.3220 C   0  0  0  0  0  0  0  0  0  0  0  0
   58.4260   31.9060   46.5420 C   0  0  0  0  0  0  0  0  0  0  0  0
   59.5730   32.3640   47.1970 C   0  0  0  0  0  0  0  0  0  0  0  0
   62.6240   33.3110   47.3990 C   0  0  0  0  0  0  0  0  0  0  0  0
   64.0810   33.3220   47.8700 C   0  0  0  0  0  0  0  0  0  0  0  0
   63.9487   34.0907   51.5402 H   0  0  0  0  0  0  0  0  0  0  0  0
   65.3029   34.8983   52.6095 H   0  0  0  0  0  0  0  0  0  0  0  0
   67.5635   34.0757   52.3131 H   0  0  0  0  0  0  0  0  0  0  0  0
   68.0218   33.2478   50.7863 H   0  0  0  0  0  0  0  0  0  0  0  0
   67.6908   35.0134   50.7863 H   0  0  0  0  0  0  0  0  0  0  0  0
   66.2439   33.1607   48.9057 H   0  0  0  0  0  0  0  0  0  0  0  0
   65.6611   31.8664   50.0189 H   0  0  0  0  0  0  0  0  0  0  0  0
   63.7606   31.6243   50.6822 H   0  0  0  0  0  0  0  0  0  0  0  0
   62.4157   32.8343   50.4094 H   0  0  0  0  0  0  0  0  0  0  0  0
   63.3070   30.6205   48.5138 H   0  0  0  0  0  0  0  0  0  0  0  0
   61.7638   30.7230   49.4360 H   0  0  0  0  0  0  0  0  0  0  0  0
   61.6921   29.7857   46.4471 H   0  0  0  0  0  0  0  0  0  0  0  0
   59.6422   28.9696   45.2919 H   0  0  0  0  0  0  0  0  0  0  0  0
   58.4576   28.0619   46.0870 H   0  0  0  0  0  0  0  0  0  0  0  0
   57.0099   27.8346   47.1634 H   0  0  0  0  0  0  0  0  0  0  0  0
   55.7965   25.8503   47.1161 H   0  0  0  0  0  0  0  0  0  0  0  0
   55.4019   23.5974   46.1233 H   0  0  0  0  0  0  0  0  0  0  0  0
   58.3694   21.2715   44.5036 H   0  0  0  0  0  0  0  0  0  0  0  0
   57.7786   20.5715   42.9585 H   0  0  0  0  0  0  0  0  0  0  0  0
   58.6443   22.1454   42.9585 H   0  0  0  0  0  0  0  0  0  0  0  0
   58.0306   24.5838   42.8274 H   0  0  0  0  0  0  0  0  0  0  0  0
   58.4206   26.8416   43.8141 H   0  0  0  0  0  0  0  0  0  0  0  0
   57.4972   32.4933   46.5904 H   0  0  0  0  0  0  0  0  0  0  0  0
   59.5434   33.3177   47.7443 H   0  0  0  0  0  0  0  0  0  0  0  0
   62.5981   33.3602   46.3004 H   0  0  0  0  0  0  0  0  0  0  0  0
   62.1040   34.1796   47.8293 H   0  0  0  0  0  0  0  0  0  0  0  0
   64.6123   32.4774   47.4071 H   0  0  0  0  0  0  0  0  0  0  0  0
   64.5319   34.2801   47.5722 H   0  0  0  0  0  0  0  0  0  0  0  0
  1  2  2  0
  2  3  1  0
  2  4  1  0
  4  5  1  0
  5  6  1  0
  6  7  1  0
  7  8  1  0
  8  9  1  0
  9 10  2  0
 10 11  1  0
 11 12  2  0
 12 13  1  0
 13 14  1  0
 14 15  2  0
 14 16  1  0
 16 17  1  0
 17 18  2  0
 18 19  1  0
 19 20  2  0
 20 21  1  0
 21 22  1  0
 21 23  2  0
 21 24  2  0
 20 25  1  0
 25 26  2  0
 12 27  1  0
 27 28  2  0
  8 29  1  0
 29 30  1  0
 30  5  1  0
 28  9  1  0
 26 17  1  0
  1 31  1  0
  1 32  1  0
  3 33  1  0
  3 34  1  0
  3 35  1  0
  4 36  1  0
  4 37  1  0
  6 38  1  0
  6 39  1  0
  7 40  1  0
  7 41  1  0
 10 42  1  0
 11 43  1  0
 16 44  1  0
 16 45  1  0
 18 46  1  0
 19 47  1  0
 22 48  1  0
 22 49  1  0
 22 50  1  0
 25 51  1  0
 26 52  1  0
 27 53  1  0
 28 54  1  0
 29 55  1  0
 29 56  1  0
 30 57  1  0
 30 58  1  0
M  CHG  1  13  -1
M  END
>  <UniqueID>  (30) 
28

>  <SMILES>  (30) 
C=C(C)CN1CCN(c2ccc([N-]C(=O)Cc3ccc(S(C)(=O)=O)cc3)cc2)CC1

>  <Energy>  (30) 
68.7663833625919

>  <Genealogy>  (30) 
C=C(C)CN1CCN(c2ccc([N-]C(=O)Cc3ccc(S(C)(=O)=O)cc3)cc2)CC1 (protonated)
C=C(C)CN1CCN(c2ccc([N-]C(=O)Cc3ccc(S(C)(=O)=O)cc3)cc2)CC1 (3D coordinates assigned)
C=C(C)CN1CCN(c2ccc([N-]C(=O)Cc3ccc(S(C)(=O)=O)cc3)cc2)CC1 (nonaromatic ring conformer: 68.7663833625919 kcal/mol)

>  <smiles>  (30) 
C=C(C)CN1CCN(c2ccc(NC(=O)Cc3ccc(S(C)(=O)=O)cc3)cc2)CC1

>  <score_type>  (30) 
oracle

>  <origin>  (30) 
adg

>  <m_score__min__energy>  (30) 
-10.119999999999999

>  <m_primary>  (30) 
energy

$$$$
30:0
     RDKit          3D

 50 53  0  0  1  0  0  0  0  0999 V2000
   62.5160   33.0220   48.9740 N   0  0  0  0  0  0  0  0  0  0  0  0
   62.4000   32.2040   47.4570 S   0  0  0  0  0  0  0  0  0  0  0  0
   61.9410   33.1570   46.3950 O   0  0  0  0  0  0  0  0  0  0  0  0
   63.7370   31.6020   47.1440 O   0  0  0  0  0  0  0  0  0  0  0  0
   61.2540   30.8940   47.6200 C   0  0  0  0  0  0  0  0  0  0  0  0
   60.8260   30.4630   48.8570 C   0  0  0  0  0  0  0  0  0  0  0  0
   59.9130   29.4120   48.8840 C   0  0  0  0  0  0  0  0  0  0  0  0
   59.4670   28.8420   47.7140 C   0  0  0  0  0  0  0  0  0  0  0  0
   59.8950   29.2740   46.4620 C   0  0  0  0  0  0  0  0  0  0  0  0
   59.3920   28.6400   45.3020 N   0  0  0  0  0  0  0  0  0  0  0  0
   58.4000   29.2080   44.6940 C   0  0  0  0  0  0  0  0  0  0  0  0
   57.7130   28.6120   43.7020 N   0  0  0  0  0  0  0  0  0  0  0  0
   56.6900   29.2740   43.1200 C   0  0  0  0  0  0  0  0  0  0  0  0
   56.3220   30.5380   43.5020 C   0  0  0  0  0  0  0  0  0  0  0  0
   57.0480   31.1230   44.5250 C   0  0  0  0  0  0  0  0  0  0  0  0
   56.7710   32.2940   44.9390 N   0  0  0  0  0  0  0  0  0  0  0  0
   57.7340   33.1760   45.5040 C   0  0  0  0  0  0  0  0  0  0  0  0
   58.3400   34.1800   44.7750 C   0  0  0  0  0  0  0  0  0  0  0  0
   59.2670   34.9850   45.4260 C   0  0  0  0  0  0  0  0  0  0  0  0
   59.5800   34.7890   46.7660 C   0  0  0  0  0  0  0  0  0  0  0  0
   58.9750   33.7850   47.4960 C   0  0  0  0  0  0  0  0  0  0  0  0
   59.3390   33.6240   48.9000 C   0  0  0  0  0  0  0  0  0  0  0  0
   60.2850   34.3100   49.3420 O   0  0  0  0  0  0  0  0  0  0  0  0
   58.6790   32.7400   49.7670 N   0  0  0  0  0  0  0  0  0  0  0  0
   59.0790   32.6130   51.1610 C   0  0  0  0  0  0  0  0  0  0  0  0
   58.8870   33.7560   52.0950 C   0  0  0  0  0  0  0  0  0  0  0  0
   57.9100   32.6180   52.1540 C   0  0  0  0  0  0  0  0  0  0  0  0
   58.0630   32.9980   46.8470 C   0  0  0  0  0  0  0  0  0  0  0  0
   58.0600   30.4540   45.0920 N   0  0  0  0  0  0  0  0  0  0  0  0
   60.7970   30.3110   46.4440 C   0  0  0  0  0  0  0  0  0  0  0  0
   61.7170   32.7180   49.5920 H   0  0  0  0  0  0  0  0  0  0  0  0
   62.3510   34.0520   48.8040 H   0  0  0  0  0  0  0  0  0  0  0  0
   61.1903   30.9296   49.7841 H   0  0  0  0  0  0  0  0  0  0  0  0
   59.5451   29.0341   49.8493 H   0  0  0  0  0  0  0  0  0  0  0  0
   58.7452   28.0139   47.7701 H   0  0  0  0  0  0  0  0  0  0  0  0
   57.9640   27.6610   43.3910 H   0  0  0  0  0  0  0  0  0  0  0  0
   56.1319   28.7812   42.3102 H   0  0  0  0  0  0  0  0  0  0  0  0
   55.4866   31.0642   43.0170 H   0  0  0  0  0  0  0  0  0  0  0  0
   58.0970   34.3374   43.7138 H   0  0  0  0  0  0  0  0  0  0  0  0
   59.7632   35.7938   44.8695 H   0  0  0  0  0  0  0  0  0  0  0  0
   60.3197   35.4425   47.2516 H   0  0  0  0  0  0  0  0  0  0  0  0
   57.8850   32.1520   49.4320 H   0  0  0  0  0  0  0  0  0  0  0  0
   59.9443   31.9759   50.9255 H   0  0  0  0  0  0  0  0  0  0  0  0
   59.5960   33.9092   52.9220 H   0  0  0  0  0  0  0  0  0  0  0  0
   58.7908   34.8442   51.9666 H   0  0  0  0  0  0  0  0  0  0  0  0
   57.9110   31.9316   53.0136 H   0  0  0  0  0  0  0  0  0  0  0  0
   56.8171   32.5168   52.0808 H   0  0  0  0  0  0  0  0  0  0  0  0
   57.5689   32.1913   47.4083 H   0  0  0  0  0  0  0  0  0  0  0  0
   58.5920   30.9220   45.8650 H   0  0  0  0  0  0  0  0  0  0  0  0
   61.1650   30.6875   45.4782 H   0  0  0  0  0  0  0  0  0  0  0  0
  1  2  1  0
  2  3  2  0
  2  4  2  0
  2  5  1  0
  5  6  2  0
  6  7  1  0
  7  8  2  0
  8  9  1  0
  9 10  1  0
 10 11  2  0
 11 12  1  0
 12 13  1  0
 13 14  2  0
 14 15  1  0
 15 16  2  0
 16 17  1  0
 17 18  2  0
 18 19  1  0
 19 20  2  0
 20 21  1  0
 21 22  1  0
 22 23  2  0
 22 24  1  0
 24 25  1  0
 25 26  1  0
 26 27  1  0
 21 28  2  0
 15 29  1  0
  9 30  2  0
 30  5  1  0
 29 11  1  0
 28 17  1  0
 27 25  1  0
  1 31  1  0
  1 32  1  0
  6 33  1  0
  7 34  1  0
  8 35  1  0
 12 36  1  0
 13 37  1  0
 14 38  1  0
 18 39  1  0
 19 40  1  0
 20 41  1  0
 24 42  1  0
 25 43  1  0
 26 44  1  0
 26 45  1  0
 27 46  1  0
 27 47  1  0
 28 48  1  0
 29 49  1  0
 30 50  1  0
M  END
>  <smiles>  (31) 
NS(=O)(=O)c1cccc(N=c2[nH]ccc(=Nc3cccc(C(=O)NC4CC4)c3)[nH]2)c1

>  <score_type>  (31) 
oracle

>  <origin>  (31) 
adg

>  <m_score__min__energy>  (31) 
-9.9199999999999999

>  <m_primary>  (31) 
energy

$$$$
31:0
     RDKit          3D

 38 39  0  0  0  0  0  0  0  0999 V2000
   57.3960   32.3610   40.9040 C   0  0  0  0  0  0  0  0  0  0  0  0
   57.6370   31.7060   42.2590 C   0  0  0  0  0  0  0  0  0  0  0  0
   56.9340   30.4690   42.3510 O   0  0  0  0  0  0  0  0  0  0  0  0
   56.5800   29.8720   43.5670 C   0  0  0  0  0  0  0  0  0  0  0  0
   55.3660   29.7390   43.8850 O   0  0  0  0  0  0  0  0  0  0  0  0
   57.6480   29.3940   44.4850 C   0  0  0  0  0  0  0  0  0  0  0  0
   58.0710   30.2980   45.4720 C   0  0  0  0  0  0  0  0  0  0  0  0
   57.4020   31.5770   45.5390 N   0  0  0  0  0  0  0  0  0  0  0  0
   57.9150   32.7670   45.6790 C   0  0  0  0  0  0  0  0  0  0  0  0
   58.1710   33.7490   44.5730 C   0  0  0  0  0  0  0  0  0  0  0  0
   58.8470   34.9480   45.2410 C   0  0  0  0  0  0  0  0  0  0  0  0
   58.9140   34.5880   46.6860 C   0  0  0  0  0  0  0  0  0  0  0  0
   59.3900   35.3300   47.5310 O   0  0  0  0  0  0  0  0  0  0  0  0
   58.3550   33.2540   47.0100 C   0  0  0  0  0  0  0  0  0  0  0  0
   59.1420   30.1020   46.2660 N   0  0  0  0  0  0  0  0  0  0  0  0
   59.8910   29.0330   46.6010 C   0  0  0  0  0  0  0  0  0  0  0  0
   60.8750   29.2510   47.3590 O   0  0  0  0  0  0  0  0  0  0  0  0
   59.5890   27.7440   46.2880 N   0  0  0  0  0  0  0  0  0  0  0  0
   60.2590   26.8020   47.0570 O   0  0  0  0  0  0  0  0  0  0  0  0
   58.7990   27.2890   45.2660 C   0  0  0  0  0  0  0  0  0  0  0  0
   58.6930   26.0370   45.1300 O   0  0  0  0  0  0  0  0  0  0  0  0
   58.1430   28.0800   44.2940 C   0  0  0  0  0  0  0  0  0  0  0  0
   57.7740   27.3610   43.0000 C   0  0  0  0  0  0  0  0  0  0  0  0
   57.0197   33.3838   41.0529 H   0  0  0  0  0  0  0  0  0  0  0  0
   58.3401   32.3961   40.3406 H   0  0  0  0  0  0  0  0  0  0  0  0
   56.6543   31.7758   40.3406 H   0  0  0  0  0  0  0  0  0  0  0  0
   58.7139   31.5199   42.3840 H   0  0  0  0  0  0  0  0  0  0  0  0
   57.2730   32.3801   43.0483 H   0  0  0  0  0  0  0  0  0  0  0  0
   58.8330   33.3084   43.8130 H   0  0  0  0  0  0  0  0  0  0  0  0
   57.2419   34.0375   44.0596 H   0  0  0  0  0  0  0  0  0  0  0  0
   59.8566   35.1015   44.8322 H   0  0  0  0  0  0  0  0  0  0  0  0
   58.2960   35.8847   45.0706 H   0  0  0  0  0  0  0  0  0  0  0  0
   59.1218   32.5945   47.4425 H   0  0  0  0  0  0  0  0  0  0  0  0
   57.5492   33.2827   47.7583 H   0  0  0  0  0  0  0  0  0  0  0  0
   60.9750   27.0350   47.7340 H   0  0  0  0  0  0  0  0  0  0  0  0
   57.2837   26.4056   43.2384 H   0  0  0  0  0  0  0  0  0  0  0  0
   57.0871   27.9896   42.4143 H   0  0  0  0  0  0  0  0  0  0  0  0
   58.6852   27.1694   42.4143 H   0  0  0  0  0  0  0  0  0  0  0  0
  1  2  1  0
  2  3  1  0
  3  4  1  0
  4  5  2  0
  4  6  1  0
  6  7  1  0
  7  8  1  0
  8  9  2  3
  9 10  1  0
 10 11  1  0
 11 12  1  0
 12 13  2  0
 12 14  1  0
  7 15  2  0
 15 16  1  0
 16 17  2  0
 16 18  1  0
 18 19  1  0
 18 20  1  0
 20 21  2  0
 20 22  1  0
 22 23  1  0
 22  6  2  0
 14  9  1  0
  1 24  1  0
  1 25  1  0
  1 26  1  0
  2 27  1  0
  2 28  1  0
 10 29  1  0
 10 30  1  0
 11 31  1  0
 11 32  1  0
 14 33  1  0
 14 34  1  0
 19 35  1  0
 23 36  1  0
 23 37  1  0
 23 38  1  0
M  END
>  <UniqueID>  (32) 
29

>  <SMILES>  (32) 
CCOC(=O)c1c(N=C2CCC(=O)C2)nc(=O)n(O)c(=O)c1C

>  <Energy>  (32) 
81.90261873255255

>  <Genealogy>  (32) 
CCOC(=O)c1c(N=C2CCC(=O)C2)nc(=O)n(O)c(=O)c1C (3D coordinates assigned)
CCOC(=O)c1c(N=C2CCC(=O)C2)nc(=O)n(O)c(=O)c1C (nonaromatic ring conformer: 81.90261873255255 kcal/mol)

>  <smiles>  (32) 
CCOC(=O)c1c(N=C2CCC(=O)C2)nc(=O)n(O)c(=O)c1C

>  <score_type>  (32) 
oracle

>  <origin>  (32) 
adg

>  <m_score__min__energy>  (32) 
-7.1100000000000003

>  <m_primary>  (32) 
energy

$$$$
32:0
     RDKit          3D

 36 37  0  0  0  0  0  0  0  0999 V2000
   56.7845   31.0063   44.4547 H   0  0  0  0  0  0  0  0  0  0  0  0
   57.2580   30.1240   44.9100 C   0  0  0  0  0  0  0  0  0  0  0  0
   58.6210   30.1450   45.2200 C   0  0  0  0  0  0  0  0  0  0  0  0
   59.2176   31.0440   45.0057 H   0  0  0  0  0  0  0  0  0  0  0  0
   59.2320   29.0230   45.8040 C   0  0  0  0  0  0  0  0  0  0  0  0
   60.6920   29.0490   46.1730 C   0  0  0  0  0  0  0  0  0  0  0  0
   61.2726   29.4382   45.3236 H   0  0  0  0  0  0  0  0  0  0  0  0
   61.0140   28.0260   46.4175 H   0  0  0  0  0  0  0  0  0  0  0  0
   60.9140   29.9050   47.3400 N   0  0  0  0  0  0  0  0  0  0  0  0
   61.2380   31.1620   47.2870 C   0  0  0  0  0  0  0  0  0  0  0  0
   60.2810   32.1310   47.2300 N   0  0  0  0  0  0  0  0  0  0  0  0
   60.6100   33.4490   47.1920 C   0  0  0  0  0  0  0  0  0  0  0  0
   59.5200   34.4850   47.1620 C   0  0  0  0  0  0  0  0  0  0  0  0
   59.7085   35.1745   46.3259 H   0  0  0  0  0  0  0  0  0  0  0  0
   59.5293   35.0154   48.1256 H   0  0  0  0  0  0  0  0  0  0  0  0
   58.1290   33.8540   46.9810 C   0  0  0  0  0  0  0  0  0  0  0  0
   57.4514   34.2927   47.7283 H   0  0  0  0  0  0  0  0  0  0  0  0
   58.2560   32.7685   47.1056 H   0  0  0  0  0  0  0  0  0  0  0  0
   57.5140   34.0700   45.5860 C   0  0  0  0  0  0  0  0  0  0  0  0
   57.4062   35.1509   45.4130 H   0  0  0  0  0  0  0  0  0  0  0  0
   56.5421   33.5551   45.5692 H   0  0  0  0  0  0  0  0  0  0  0  0
   58.3670   33.4790   44.4650 C   0  0  0  0  0  0  0  0  0  0  0  0
   59.1973   32.9037   44.9005 H   0  0  0  0  0  0  0  0  0  0  0  0
   57.7475   32.8156   43.8437 H   0  0  0  0  0  0  0  0  0  0  0  0
   58.7705   34.2921   43.8437 H   0  0  0  0  0  0  0  0  0  0  0  0
   61.9590   33.8220   47.2130 C   0  0  0  0  0  0  0  0  0  0  0  0
   62.2496   34.8826   47.1891 H   0  0  0  0  0  0  0  0  0  0  0  0
   62.9270   32.8180   47.2650 C   0  0  0  0  0  0  0  0  0  0  0  0
   64.1490   33.1180   47.2820 O   0  0  0  0  0  0  0  0  0  0  0  0
   62.5490   31.5140   47.3010 N   0  0  0  0  0  0  0  0  0  0  0  0
   58.4600   27.8800   46.0680 C   0  0  0  0  0  0  0  0  0  0  0  0
   58.9298   26.9953   46.5225 H   0  0  0  0  0  0  0  0  0  0  0  0
   57.0970   27.8610   45.7560 C   0  0  0  0  0  0  0  0  0  0  0  0
   56.4975   26.9628   45.9655 H   0  0  0  0  0  0  0  0  0  0  0  0
   56.4960   28.9830   45.1780 C   0  0  0  0  0  0  0  0  0  0  0  0
   55.1400   28.9660   44.8720 O   0  0  0  0  0  0  0  0  0  0  0  0
  1  2  1  0
  2  3  2  0
  3  4  1  0
  3  5  1  0
  5  6  1  0
  6  7  1  0
  6  8  1  0
  6  9  1  0
  9 10  2  0
 10 11  1  0
 11 12  1  0
 12 13  1  0
 13 14  1  0
 13 15  1  0
 13 16  1  0
 16 17  1  0
 16 18  1  0
 16 19  1  0
 19 20  1  0
 19 21  1  0
 19 22  1  0
 22 23  1  0
 22 24  1  0
 22 25  1  0
 12 26  2  0
 26 27  1  0
 26 28  1  0
 28 29  2  0
 28 30  1  0
  5 31  2  0
 31 32  1  0
 31 33  1  0
 33 34  1  0
 33 35  2  0
 35 36  1  0
 35  2  1  0
 30 10  1  0
M  CHG  3  11  -1  30  -1  36  -1
M  END
>  <UniqueID>  (33) 
30

>  <SMILES>  (33) 
CCCCc1cc(=O)[n-]/c(=N/Cc2ccc([O-])cc2)[n-]1

>  <Energy>  (33) 
28.50569024189324

>  <Genealogy>  (33) 
CCCCc1cc(=O)[n-]c(=NCc2ccc([O-])cc2)[n-]1 (protonated)
CCCCc1cc(=O)[n-]/c(=N/Cc2ccc([O-])cc2)[n-]1 (cis-trans isomerization)
CCCCc1cc(=O)[n-]/c(=N/Cc2ccc([O-])cc2)[n-]1 (3D coordinates assigned)
CCCCc1cc(=O)[n-]/c(=N/Cc2ccc([O-])cc2)[n-]1 (optimized conformer: 28.50569024189324 kcal/mol)

>  <smiles>  (33) 
CCCCc1cc(=O)[nH]c(=NCc2ccc(O)cc2)[nH]1

>  <score_type>  (33) 
oracle

>  <origin>  (33) 
adg

>  <m_score__min__energy>  (33) 
-12.23

>  <m_primary>  (33) 
energy

$$$$
33:0
     RDKit          3D

 54 57  0  0  0  0  0  0  0  0999 V2000
   57.5460   25.9479   44.0932 H   0  0  0  0  0  0  0  0  0  0  0  0
   58.1490   26.8650   44.1660 C   0  0  0  0  0  0  0  0  0  0  0  0
   58.4085   27.4263   43.2563 H   0  0  0  0  0  0  0  0  0  0  0  0
   58.5700   27.3010   45.3700 C   0  0  0  0  0  0  0  0  0  0  0  0
   59.3380   28.4820   45.3890 C   0  0  0  0  0  0  0  0  0  0  0  0
   59.6044   28.9676   44.4386 H   0  0  0  0  0  0  0  0  0  0  0  0
   59.7660   29.0460   46.5870 C   0  0  0  0  0  0  0  0  0  0  0  0
   60.3600   29.9717   46.5742 H   0  0  0  0  0  0  0  0  0  0  0  0
   59.4460   28.4440   47.8040 C   0  0  0  0  0  0  0  0  0  0  0  0
   59.9690   29.0220   49.0960 C   0  0  0  0  0  0  0  0  0  0  0  0
   59.9496   28.2400   49.8694 H   0  0  0  0  0  0  0  0  0  0  0  0
   60.9944   29.3792   48.9202 H   0  0  0  0  0  0  0  0  0  0  0  0
   59.1240   30.2130   49.5720 C   0  0  0  0  0  0  0  0  0  0  0  0
   58.0593   29.9704   49.4394 H   0  0  0  0  0  0  0  0  0  0  0  0
   59.3573   30.3975   50.6310 H   0  0  0  0  0  0  0  0  0  0  0  0
   59.4390   31.4630   48.7980 C   0  0  0  0  0  0  0  0  0  0  0  0
   60.5460   32.1870   49.1160 N   0  0  0  0  0  0  0  0  0  0  0  0
   60.9090   33.2890   48.4090 C   0  0  0  0  0  0  0  0  0  0  0  0
   61.8029   33.8592   48.7019 H   0  0  0  0  0  0  0  0  0  0  0  0
   60.1500   33.6990   47.3120 C   0  0  0  0  0  0  0  0  0  0  0  0
   60.4400   34.5938   46.7418 H   0  0  0  0  0  0  0  0  0  0  0  0
   59.0150   32.9630   46.9410 C   0  0  0  0  0  0  0  0  0  0  0  0
   58.1960   33.3680   45.7750 C   0  0  0  0  0  0  0  0  0  0  0  0
   57.7230   34.5370   45.7380 O   0  0  0  0  0  0  0  0  0  0  0  0
   57.9310   32.4620   44.6870 N   0  0  0  0  0  0  0  0  0  0  0  0
   57.7500   31.0230   44.9280 C   0  0  0  0  0  0  0  0  0  0  0  0
   58.6579   30.4846   44.6186 H   0  0  0  0  0  0  0  0  0  0  0  0
   57.5650   30.8562   45.9994 H   0  0  0  0  0  0  0  0  0  0  0  0
   56.5540   30.5050   44.1240 C   0  0  0  0  0  0  0  0  0  0  0  0
   56.4873   29.4149   44.2551 H   0  0  0  0  0  0  0  0  0  0  0  0
   55.6549   31.0154   44.4995 H   0  0  0  0  0  0  0  0  0  0  0  0
   56.6710   30.8150   42.6160 C   0  0  0  0  0  0  0  0  0  0  0  0
   56.9532   29.8895   42.0928 H   0  0  0  0  0  0  0  0  0  0  0  0
   55.6933   31.2012   42.2921 H   0  0  0  0  0  0  0  0  0  0  0  0
   57.7130   31.8980   42.2820 C   0  0  0  0  0  0  0  0  0  0  0  0
   58.7080   31.4314   42.2337 H   0  0  0  0  0  0  0  0  0  0  0  0
   57.4392   32.3486   41.3166 H   0  0  0  0  0  0  0  0  0  0  0  0
   57.7380   33.0110   43.3360 C   0  0  0  0  0  0  0  0  0  0  0  0
   58.5632   33.7018   43.1084 H   0  0  0  0  0  0  0  0  0  0  0  0
   56.7723   33.5370   43.3092 H   0  0  0  0  0  0  0  0  0  0  0  0
   58.6490   31.8440   47.7030 C   0  0  0  0  0  0  0  0  0  0  0  0
   57.7481   31.2686   47.4437 H   0  0  0  0  0  0  0  0  0  0  0  0
   58.7090   27.2540   47.8120 C   0  0  0  0  0  0  0  0  0  0  0  0
   58.4808   26.7718   48.7740 H   0  0  0  0  0  0  0  0  0  0  0  0
   58.2490   26.6540   46.6130 C   0  0  0  0  0  0  0  0  0  0  0  0
   57.5800   25.4700   46.6650 C   0  0  0  0  0  0  0  0  0  0  0  0
   58.1574   24.5751   46.9404 H   0  0  0  0  0  0  0  0  0  0  0  0
   56.1430   25.2890   46.3820 C   0  0  0  0  0  0  0  0  0  0  0  0
   55.5240   24.0960   46.4260 N   0  0  0  0  0  0  0  0  0  0  0  0
   54.2720   24.3750   46.0020 C   0  0  0  0  0  0  0  0  0  0  0  0
   53.3740   23.4970   45.9190 O   0  0  0  0  0  0  0  0  0  0  0  0
   54.0630   25.6650   45.6650 N   0  0  0  0  0  0  0  0  0  0  0  0
   55.2580   26.2280   45.8970 C   0  0  0  0  0  0  0  0  0  0  0  0
   55.5440   27.5630   45.6380 O   0  0  0  0  0  0  0  0  0  0  0  0
  1  2  1  0
  2  3  1  0
  2  4  2  0
  4  5  1  0
  5  6  1  0
  5  7  2  0
  7  8  1  0
  7  9  1  0
  9 10  1  0
 10 11  1  0
 10 12  1  0
 10 13  1  0
 13 14  1  0
 13 15  1  0
 13 16  1  0
 16 17  2  0
 17 18  1  0
 18 19  1  0
 18 20  2  0
 20 21  1  0
 20 22  1  0
 22 23  1  0
 23 24  2  0
 23 25  1  0
 25 26  1  0
 26 27  1  0
 26 28  1  0
 26 29  1  0
 29 30  1  0
 29 31  1  0
 29 32  1  0
 32 33  1  0
 32 34  1  0
 32 35  1  0
 35 36  1  0
 35 37  1  0
 35 38  1  0
 38 39  1  0
 38 40  1  0
 22 41  2  0
 41 42  1  0
  9 43  2  0
 43 44  1  0
 43 45  1  0
 45 46  2  0
 46 47  1  0
 46 48  1  0
 48 49  1  0
 49 50  1  0
 50 51  2  0
 50 52  1  0
 52 53  1  0
 53 54  1  0
 45  4  1  0
 53 48  2  0
 41 16  1  0
 38 25  1  0
M  CHG  3  49  -1  52  -1  54  -1
M  END
>  <UniqueID>  (34) 
31

>  <SMILES>  (34) 
C=c1ccc(CCc2cc(C(=O)N3CCCCC3)ccn2)c/c1=C\c1[n-]c(=O)[n-]c1[O-]

>  <Energy>  (34) 
104.95537751111405

>  <Genealogy>  (34) 
C=c1ccc(CCc2cc(C(=O)N3CCCCC3)ccn2)cc1=Cc1[n-]c(=O)[n-]c1[O-] (protonated)
C=c1ccc(CCc2cc(C(=O)N3CCCCC3)ccn2)c/c1=C\c1[n-]c(=O)[n-]c1[O-] (cis-trans isomerization)
C=c1ccc(CCc2cc(C(=O)N3CCCCC3)ccn2)c/c1=C\c1[n-]c(=O)[n-]c1[O-] (3D coordinates assigned)
C=c1ccc(CCc2cc(C(=O)N3CCCCC3)ccn2)c/c1=C\c1[n-]c(=O)[n-]c1[O-] (nonaromatic ring conformer: 104.95537751111405 kcal/mol)

>  <smiles>  (34) 
C=c1ccc(CCc2cc(C(=O)N3CCCCC3)ccn2)cc1=Cc1[nH]c(=O)[nH]c1O

>  <score_type>  (34) 
oracle

>  <origin>  (34) 
adg

>  <m_score__min__energy>  (34) 
-19.16

>  <m_primary>  (34) 
energy

$$$$
34:0
     RDKit          3D

 44 46  0  0  0  0  0  0  0  0999 V2000
   58.6080   30.0920   49.9550 O   0  0  0  0  0  0  0  0  0  0  0  0
   59.8480   30.2260   49.7670 C   0  0  0  0  0  0  0  0  0  0  0  0
   60.5450   29.3730   48.7470 C   0  0  0  0  0  0  0  0  0  0  0  0
   60.1740   27.8960   48.9100 C   0  0  0  0  0  0  0  0  0  0  0  0
   59.3270   27.4130   47.7740 C   0  0  0  0  0  0  0  0  0  0  0  0
   59.7980   26.6980   46.7330 N   0  0  0  0  0  0  0  0  0  0  0  0
   58.7630   26.4750   45.9380 N   0  0  0  0  0  0  0  0  0  0  0  0
   57.7020   27.0650   46.5230 C   0  0  0  0  0  0  0  0  0  0  0  0
   56.3530   27.0900   45.9490 C   0  0  0  0  0  0  0  0  0  0  0  0
   55.6040   26.0840   46.0710 O   0  0  0  0  0  0  0  0  0  0  0  0
   55.9010   28.2460   45.2390 N   0  0  0  0  0  0  0  0  0  0  0  0
   56.7220   28.9540   44.2600 C   0  0  0  0  0  0  0  0  0  0  0  0
   57.3180   30.1860   44.8790 C   0  0  0  0  0  0  0  0  0  0  0  0
   58.5790   30.1370   45.4930 C   0  0  0  0  0  0  0  0  0  0  0  0
   59.1460   31.3150   45.9880 C   0  0  0  0  0  0  0  0  0  0  0  0
   58.4620   32.5260   45.8590 C   0  0  0  0  0  0  0  0  0  0  0  0
   57.2050   32.5390   45.2450 C   0  0  0  0  0  0  0  0  0  0  0  0
   56.6720   31.3830   44.7640 N   0  0  0  0  0  0  0  0  0  0  0  0
   58.0400   27.6450   47.6530 O   0  0  0  0  0  0  0  0  0  0  0  0
   60.6070   31.1720   50.5330 N   0  0  0  0  0  0  0  0  0  0  0  0
   60.7160   32.5900   50.2000 C   0  0  0  0  0  0  0  0  0  0  0  0
   61.6280   32.7970   49.0110 C   0  0  0  0  0  0  0  0  0  0  0  0
   62.8500   32.1030   48.9700 C   0  0  0  0  0  0  0  0  0  0  0  0
   63.7260   32.2690   47.8910 C   0  0  0  0  0  0  0  0  0  0  0  0
   63.3910   33.1260   46.8400 C   0  0  0  0  0  0  0  0  0  0  0  0
   62.1770   33.8170   46.8640 C   0  0  0  0  0  0  0  0  0  0  0  0
   61.2890   33.6580   47.9370 C   0  0  0  0  0  0  0  0  0  0  0  0
   59.7760   34.5590   47.8880 Cl  0  0  0  0  0  0  0  0  0  0  0  0
   60.2527   29.7070   47.7405 H   0  0  0  0  0  0  0  0  0  0  0  0
   61.6306   29.4764   48.8912 H   0  0  0  0  0  0  0  0  0  0  0  0
   61.0965   27.2980   48.9471 H   0  0  0  0  0  0  0  0  0  0  0  0
   59.5976   27.7862   49.8404 H   0  0  0  0  0  0  0  0  0  0  0  0
   57.5306   28.2919   43.9168 H   0  0  0  0  0  0  0  0  0  0  0  0
   56.0917   29.2486   43.4080 H   0  0  0  0  0  0  0  0  0  0  0  0
   59.1159   29.1812   45.5838 H   0  0  0  0  0  0  0  0  0  0  0  0
   60.1301   31.2883   46.4787 H   0  0  0  0  0  0  0  0  0  0  0  0
   58.9066   33.4589   46.2359 H   0  0  0  0  0  0  0  0  0  0  0  0
   56.6480   33.4829   45.1511 H   0  0  0  0  0  0  0  0  0  0  0  0
   59.7165   32.9813   49.9596 H   0  0  0  0  0  0  0  0  0  0  0  0
   61.1395   33.1223   51.0645 H   0  0  0  0  0  0  0  0  0  0  0  0
   63.1198   31.4242   49.7924 H   0  0  0  0  0  0  0  0  0  0  0  0
   64.6808   31.7231   47.8706 H   0  0  0  0  0  0  0  0  0  0  0  0
   64.0823   33.2567   45.9944 H   0  0  0  0  0  0  0  0  0  0  0  0
   61.9160   34.4909   46.0347 H   0  0  0  0  0  0  0  0  0  0  0  0
  1  2  2  0
  2  3  1  0
  3  4  1  0
  4  5  1  0
  5  6  2  0
  6  7  1  0
  7  8  2  0
  8  9  1  0
  9 10  2  0
  9 11  1  0
 11 12  1  0
 12 13  1  0
 13 14  2  0
 14 15  1  0
 15 16  2  0
 16 17  1  0
 17 18  2  0
  8 19  1  0
  2 20  1  0
 20 21  1  0
 21 22  1  0
 22 23  2  0
 23 24  1  0
 24 25  2  0
 25 26  1  0
 26 27  2  0
 27 28  1  0
 19  5  1  0
 27 22  1  0
 18 13  1  0
  3 29  1  0
  3 30  1  0
  4 31  1  0
  4 32  1  0
 12 33  1  0
 12 34  1  0
 14 35  1  0
 15 36  1  0
 16 37  1  0
 17 38  1  0
 21 39  1  0
 21 40  1  0
 23 41  1  0
 24 42  1  0
 25 43  1  0
 26 44  1  0
M  CHG  2  11  -1  20  -1
M  END
>  <UniqueID>  (35) 
32

>  <SMILES>  (35) 
O=C(CCc1nnc(C(=O)[N-]Cc2ccccn2)o1)[N-]Cc1ccccc1Cl

>  <Energy>  (35) 
73.76336726562036

>  <Genealogy>  (35) 
O=C(CCc1nnc(C(=O)[N-]Cc2ccccn2)o1)[N-]Cc1ccccc1Cl (protonated)
O=C(CCc1nnc(C(=O)[N-]Cc2ccccn2)o1)[N-]Cc1ccccc1Cl (3D coordinates assigned)
O=C(CCc1nnc(C(=O)[N-]Cc2ccccn2)o1)[N-]Cc1ccccc1Cl (optimized conformer: 73.76336726562036 kcal/mol)

>  <smiles>  (35) 
O=C(CCc1nnc(C(=O)NCc2ccccn2)o1)NCc1ccccc1Cl

>  <score_type>  (35) 
oracle

>  <origin>  (35) 
adg

>  <m_score__min__energy>  (35) 
-11.68

>  <m_primary>  (35) 
energy

$$$$
35:0
     RDKit          3D

 58 60  0  0  0  0  0  0  0  0999 V2000
   55.5580   26.6810   46.1550 O   0  0  0  0  0  0  0  0  0  0  0  0
   56.6050   27.3630   45.9860 C   0  0  0  0  0  0  0  0  0  0  0  0
   57.7360   27.2400   46.9610 C   0  0  0  0  0  0  0  0  0  0  0  0
   58.4450   28.5140   47.0890 N   0  0  0  0  0  0  0  0  0  0  0  0
   59.3260   28.7900   48.1860 C   0  0  0  0  0  0  0  0  0  0  0  0
   59.8080   27.8480   48.8680 O   0  0  0  0  0  0  0  0  0  0  0  0
   59.6270   30.2040   48.5590 C   0  0  0  0  0  0  0  0  0  0  0  0
   59.7190   30.2970   50.0140 N   0  0  0  0  0  0  0  0  0  0  0  0
   58.4390   31.2900   50.6350 S   0  0  0  0  0  0  0  0  0  0  0  0
   57.3950   30.4160   51.2680 O   0  0  0  0  0  0  0  0  0  0  0  0
   57.8020   32.0720   49.5170 O   0  0  0  0  0  0  0  0  0  0  0  0
   59.0850   32.3770   51.8580 C   0  0  0  0  0  0  0  0  0  0  0  0
   58.3090   33.4580   52.3020 C   0  0  0  0  0  0  0  0  0  0  0  0
   58.8030   34.3240   53.2820 C   0  0  0  0  0  0  0  0  0  0  0  0
   60.0780   34.1190   53.8160 C   0  0  0  0  0  0  0  0  0  0  0  0
   60.8570   33.0470   53.3720 C   0  0  0  0  0  0  0  0  0  0  0  0
   60.3650   32.1760   52.3960 C   0  0  0  0  0  0  0  0  0  0  0  0
   56.7280   28.2310   44.8550 N   0  0  0  0  0  0  0  0  0  0  0  0
   55.8560   29.3770   44.6150 C   0  0  0  0  0  0  0  0  0  0  0  0
   56.6630   30.6320   44.4680 C   0  0  0  0  0  0  0  0  0  0  0  0
   56.7370   31.1920   43.3420 O   0  0  0  0  0  0  0  0  0  0  0  0
   57.4220   31.1220   45.5820 N   0  0  0  0  0  0  0  0  0  0  0  0
   58.0480   32.4080   45.7030 C   0  0  0  0  0  0  0  0  0  0  0  0
   58.0010   33.3670   44.6750 C   0  0  0  0  0  0  0  0  0  0  0  0
   58.5850   34.6240   44.8590 C   0  0  0  0  0  0  0  0  0  0  0  0
   59.2090   34.9400   46.0690 C   0  0  0  0  0  0  0  0  0  0  0  0
   59.2520   33.9980   47.1080 C   0  0  0  0  0  0  0  0  0  0  0  0
   59.8730   34.3450   48.4340 C   0  0  0  0  0  0  0  0  0  0  0  0
   61.3190   33.9300   48.4490 C   0  0  0  0  0  0  0  0  0  0  0  0
   62.0170   33.8490   49.6640 C   0  0  0  0  0  0  0  0  0  0  0  0
   63.3390   33.3880   49.6870 C   0  0  0  0  0  0  0  0  0  0  0  0
   63.9650   32.9980   48.4990 C   0  0  0  0  0  0  0  0  0  0  0  0
   63.2740   33.0760   47.2870 C   0  0  0  0  0  0  0  0  0  0  0  0
   61.9570   33.5410   47.2600 C   0  0  0  0  0  0  0  0  0  0  0  0
   58.6560   32.7400   46.9210 C   0  0  0  0  0  0  0  0  0  0  0  0
   57.3365   26.9480   47.9434 H   0  0  0  0  0  0  0  0  0  0  0  0
   58.4392   26.4774   46.5949 H   0  0  0  0  0  0  0  0  0  0  0  0
   58.2030   29.2850   46.4260 H   0  0  0  0  0  0  0  0  0  0  0  0
   60.5823   30.5102   48.1077 H   0  0  0  0  0  0  0  0  0  0  0  0
   58.8288   30.8658   48.1916 H   0  0  0  0  0  0  0  0  0  0  0  0
   57.3080   33.6249   51.8775 H   0  0  0  0  0  0  0  0  0  0  0  0
   58.1884   35.1663   53.6326 H   0  0  0  0  0  0  0  0  0  0  0  0
   60.4684   34.8012   54.5856 H   0  0  0  0  0  0  0  0  0  0  0  0
   61.8611   32.8882   53.7923 H   0  0  0  0  0  0  0  0  0  0  0  0
   60.9812   31.3331   52.0498 H   0  0  0  0  0  0  0  0  0  0  0  0
   55.2808   29.2069   43.6929 H   0  0  0  0  0  0  0  0  0  0  0  0
   55.1758   29.4909   45.4720 H   0  0  0  0  0  0  0  0  0  0  0  0
   57.5034   33.1274   43.7237 H   0  0  0  0  0  0  0  0  0  0  0  0
   58.5532   35.3669   44.0484 H   0  0  0  0  0  0  0  0  0  0  0  0
   59.6678   35.9302   46.2072 H   0  0  0  0  0  0  0  0  0  0  0  0
   59.8039   35.4309   48.5956 H   0  0  0  0  0  0  0  0  0  0  0  0
   59.3365   33.8140   49.2341 H   0  0  0  0  0  0  0  0  0  0  0  0
   61.5242   34.1485   50.6007 H   0  0  0  0  0  0  0  0  0  0  0  0
   63.8854   33.3326   50.6401 H   0  0  0  0  0  0  0  0  0  0  0  0
   65.0014   32.6298   48.5186 H   0  0  0  0  0  0  0  0  0  0  0  0
   63.7679   32.7708   46.3527 H   0  0  0  0  0  0  0  0  0  0  0  0
   61.4174   33.6027   46.3034 H   0  0  0  0  0  0  0  0  0  0  0  0
   58.6667   32.0065   47.7407 H   0  0  0  0  0  0  0  0  0  0  0  0
  1  2  2  0
  2  3  1  0
  3  4  1  0
  4  5  1  0
  5  6  2  0
  5  7  1  0
  7  8  1  0
  8  9  1  0
  9 10  2  0
  9 11  2  0
  9 12  1  0
 12 13  2  0
 13 14  1  0
 14 15  2  0
 15 16  1  0
 16 17  2  0
  2 18  1  0
 18 19  1  0
 19 20  1  0
 20 21  2  0
 20 22  1  0
 22 23  1  0
 23 24  2  0
 24 25  1  0
 25 26  2  0
 26 27  1  0
 27 28  1  0
 28 29  1  0
 29 30  2  0
 30 31  1  0
 31 32  2  0
 32 33  1  0
 33 34  2  0
 27 35  2  0
 17 12  1  0
 35 23  1  0
 34 29  1  0
  3 36  1  0
  3 37  1  0
  4 38  1  0
  7 39  1  0
  7 40  1  0
 13 41  1  0
 14 42  1  0
 15 43  1  0
 16 44  1  0
 17 45  1  0
 19 46  1  0
 19 47  1  0
 24 48  1  0
 25 49  1  0
 26 50  1  0
 28 51  1  0
 28 52  1  0
 30 53  1  0
 31 54  1  0
 32 55  1  0
 33 56  1  0
 34 57  1  0
 35 58  1  0
M  CHG  3   8  -1  18  -1  22  -1
M  END
>  <UniqueID>  (36) 
33

>  <SMILES>  (36) 
O=C(CNC(=O)C[N-]S(=O)(=O)c1ccccc1)[N-]CC(=O)[N-]c1cccc(Cc2ccccc2)c1

>  <Energy>  (36) 
45.53906701011605

>  <Genealogy>  (36) 
O=C(CNC(=O)C[N-]S(=O)(=O)c1ccccc1)[N-]CC(=O)[N-]c1cccc(Cc2ccccc2)c1 (protonated)
O=C(CNC(=O)C[N-]S(=O)(=O)c1ccccc1)[N-]CC(=O)[N-]c1cccc(Cc2ccccc2)c1 (3D coordinates assigned)
O=C(CNC(=O)C[N-]S(=O)(=O)c1ccccc1)[N-]CC(=O)[N-]c1cccc(Cc2ccccc2)c1 (optimized conformer: 45.53906701011605 kcal/mol)

>  <smiles>  (36) 
O=C(CNC(=O)CNS(=O)(=O)c1ccccc1)NCC(=O)Nc1cccc(Cc2ccccc2)c1

>  <score_type>  (36) 
oracle

>  <origin>  (36) 
adg

>  <m_score__min__energy>  (36) 
-13.4

>  <m_primary>  (36) 
energy

$$$$
36:0
     RDKit          3D

 24 25  0  0  0  0  0  0  0  0999 V2000
   57.0261   33.5807   44.6125 H   0  0  0  0  0  0  0  0  0  0  0  0
   57.2290   32.8400   45.4000 C   0  0  0  0  0  0  0  0  0  0  0  0
   57.1858   33.1366   46.4584 H   0  0  0  0  0  0  0  0  0  0  0  0
   57.5270   31.5840   45.0720 C   0  0  0  0  0  0  0  0  0  0  0  0
   57.7810   30.6450   45.9550 O   0  0  0  0  0  0  0  0  0  0  0  0
   58.0380   29.5270   45.3090 C   0  0  0  0  0  0  0  0  0  0  0  0
   58.3260   28.3600   45.8960 C   0  0  0  0  0  0  0  0  0  0  0  0
   59.3325   28.2190   46.3167 H   0  0  0  0  0  0  0  0  0  0  0  0
   57.3520   27.2480   46.0060 C   0  0  0  0  0  0  0  0  0  0  0  0
   56.0040   27.3940   45.6300 C   0  0  0  0  0  0  0  0  0  0  0  0
   55.5200   28.6070   45.1540 O   0  0  0  0  0  0  0  0  0  0  0  0
   55.1480   26.3470   45.7580 N   0  0  0  0  0  0  0  0  0  0  0  0
   55.5630   25.1590   46.2640 C   0  0  0  0  0  0  0  0  0  0  0  0
   54.7520   24.2030   46.3690 O   0  0  0  0  0  0  0  0  0  0  0  0
   56.8500   25.0020   46.6630 N   0  0  0  0  0  0  0  0  0  0  0  0
   57.7480   26.0150   46.5530 C   0  0  0  0  0  0  0  0  0  0  0  0
   58.9350   25.8320   46.9360 O   0  0  0  0  0  0  0  0  0  0  0  0
   57.9440   29.7290   43.9430 C   0  0  0  0  0  0  0  0  0  0  0  0
   58.0979   28.9858   43.1468 H   0  0  0  0  0  0  0  0  0  0  0  0
   57.6160   31.0620   43.7920 C   0  0  0  0  0  0  0  0  0  0  0  0
   57.3980   31.7770   42.4950 C   0  0  0  0  0  0  0  0  0  0  0  0
   57.0825   32.8116   42.6952 H   0  0  0  0  0  0  0  0  0  0  0  0
   58.3347   31.7843   41.9184 H   0  0  0  0  0  0  0  0  0  0  0  0
   56.6165   31.2605   41.9184 H   0  0  0  0  0  0  0  0  0  0  0  0
  1  2  1  0
  2  3  1  0
  2  4  2  0
  4  5  1  0
  5  6  1  0
  6  7  2  0
  7  8  1  0
  7  9  1  0
  9 10  2  0
 10 11  1  0
 10 12  1  0
 12 13  1  0
 13 14  2  0
 13 15  1  0
 15 16  1  0
 16 17  2  0
  6 18  1  0
 18 19  1  0
 18 20  2  0
 20 21  1  0
 21 22  1  0
 21 23  1  0
 21 24  1  0
 20  4  1  0
 16  9  1  0
M  CHG  3  11  -1  12  -1  15  -1
M  END
>  <UniqueID>  (37) 
34

>  <SMILES>  (37) 
C=c1o/c(=C\c2c([O-])[n-]c(=O)[n-]c2=O)cc1C

>  <Energy>  (37) 
57.914616129650696

>  <Genealogy>  (37) 
C=c1oc(=Cc2c([O-])[n-]c(=O)[n-]c2=O)cc1C (protonated)
C=c1o/c(=C\c2c([O-])[n-]c(=O)[n-]c2=O)cc1C (cis-trans isomerization)
C=c1o/c(=C\c2c([O-])[n-]c(=O)[n-]c2=O)cc1C (3D coordinates assigned)
C=c1o/c(=C\c2c([O-])[n-]c(=O)[n-]c2=O)cc1C (optimized conformer: 57.914616129650696 kcal/mol)

>  <smiles>  (37) 
C=c1oc(=Cc2c(O)[nH]c(=O)[nH]c2=O)cc1C

>  <score_type>  (37) 
oracle

>  <origin>  (37) 
adg

>  <m_score__min__energy>  (37) 
-13.91

>  <m_primary>  (37) 
energy

$$$$
37:0
     RDKit          3D

 42 43  0  0  0  0  0  0  0  0999 V2000
   63.3890   33.8440   46.4070 C   0  0  0  0  0  0  0  0  0  0  0  0
   62.9240   33.0380   47.6300 C   0  0  0  0  0  0  0  0  0  0  0  0
   62.7960   33.8270   48.8790 N   0  0  0  0  0  0  0  0  0  0  0  0
   63.3870   33.2070   50.0760 C   0  0  0  0  0  0  0  0  0  0  0  0
   61.4730   34.4490   49.1060 C   0  0  0  0  0  0  0  0  0  0  0  0
   60.4280   34.0360   48.0960 C   0  0  0  0  0  0  0  0  0  0  0  0
   60.0190   34.9220   47.0910 C   0  0  0  0  0  0  0  0  0  0  0  0
   59.0840   34.5150   46.1400 C   0  0  0  0  0  0  0  0  0  0  0  0
   58.5550   33.2180   46.1990 C   0  0  0  0  0  0  0  0  0  0  0  0
   57.5760   32.7450   45.1470 C   0  0  0  0  0  0  0  0  0  0  0  0
   57.3450   31.2820   45.1610 N   0  0  0  0  0  0  0  0  0  0  0  0
   56.3090   30.8580   44.1990 C   0  0  0  0  0  0  0  0  0  0  0  0
   56.0710   29.3730   44.2880 C   0  0  0  0  0  0  0  0  0  0  0  0
   57.0260   28.5350   44.7220 C   0  0  0  0  0  0  0  0  0  0  0  0
   58.3190   29.0350   45.3190 C   0  0  0  0  0  0  0  0  0  0  0  0
   58.5820   30.5040   44.9690 C   0  0  0  0  0  0  0  0  0  0  0  0
   58.9390   32.3800   47.2070 N   0  0  0  0  0  0  0  0  0  0  0  0
   59.8510   32.7600   48.1440 C   0  0  0  0  0  0  0  0  0  0  0  0
   63.9124   34.7512   46.7432 H   0  0  0  0  0  0  0  0  0  0  0  0
   64.0717   33.2300   45.8012 H   0  0  0  0  0  0  0  0  0  0  0  0
   62.5158   34.1277   45.8012 H   0  0  0  0  0  0  0  0  0  0  0  0
   61.9416   32.6004   47.3988 H   0  0  0  0  0  0  0  0  0  0  0  0
   63.7007   32.2820   47.8179 H   0  0  0  0  0  0  0  0  0  0  0  0
   62.9523   33.6630   50.9777 H   0  0  0  0  0  0  0  0  0  0  0  0
   63.1751   32.1276   50.0724 H   0  0  0  0  0  0  0  0  0  0  0  0
   64.4753   33.3670   50.0724 H   0  0  0  0  0  0  0  0  0  0  0  0
   61.1210   34.1614   50.1077 H   0  0  0  0  0  0  0  0  0  0  0  0
   61.6066   35.5362   49.0050 H   0  0  0  0  0  0  0  0  0  0  0  0
   60.4356   35.9393   47.0520 H   0  0  0  0  0  0  0  0  0  0  0  0
   58.7633   35.2077   45.3479 H   0  0  0  0  0  0  0  0  0  0  0  0
   56.6135   33.2498   45.3167 H   0  0  0  0  0  0  0  0  0  0  0  0
   58.0133   32.9912   44.1682 H   0  0  0  0  0  0  0  0  0  0  0  0
   55.3711   31.3875   44.4226 H   0  0  0  0  0  0  0  0  0  0  0  0
   56.6524   31.0995   43.1822 H   0  0  0  0  0  0  0  0  0  0  0  0
   55.0931   28.9663   43.9908 H   0  0  0  0  0  0  0  0  0  0  0  0
   56.8610   27.4505   44.6400 H   0  0  0  0  0  0  0  0  0  0  0  0
   58.2675   28.9342   46.4132 H   0  0  0  0  0  0  0  0  0  0  0  0
   59.1407   28.4338   44.9026 H   0  0  0  0  0  0  0  0  0  0  0  0
   59.3711   30.9017   45.6241 H   0  0  0  0  0  0  0  0  0  0  0  0
   58.9046   30.5797   43.9201 H   0  0  0  0  0  0  0  0  0  0  0  0
   58.5340   31.4200   47.2680 H   0  0  0  0  0  0  0  0  0  0  0  0
   60.1366   32.0608   48.9437 H   0  0  0  0  0  0  0  0  0  0  0  0
  1  2  1  0
  2  3  1  0
  3  4  1  0
  3  5  1  0
  5  6  1  0
  6  7  2  0
  7  8  1  0
  8  9  2  0
  9 10  1  0
 10 11  1  0
 11 12  1  0
 12 13  1  0
 13 14  2  0
 14 15  1  0
 15 16  1  0
  9 17  1  0
 17 18  2  0
 18  6  1  0
 16 11  1  0
  1 19  1  0
  1 20  1  0
  1 21  1  0
  2 22  1  0
  2 23  1  0
  4 24  1  0
  4 25  1  0
  4 26  1  0
  5 27  1  0
  5 28  1  0
  7 29  1  0
  8 30  1  0
 10 31  1  0
 10 32  1  0
 12 33  1  0
 12 34  1  0
 13 35  1  0
 14 36  1  0
 15 37  1  0
 15 38  1  0
 16 39  1  0
 16 40  1  0
 17 41  1  0
 18 42  1  0
M  CHG  1  17   1
M  END
>  <UniqueID>  (38) 
35

>  <SMILES>  (38) 
CCN(C)Cc1ccc(CN2CC=CCC2)[nH+]c1

>  <Energy>  (38) 
49.14483574603329

>  <Genealogy>  (38) 
CCN(C)Cc1ccc(CN2CC=CCC2)[nH+]c1 (protonated)
CCN(C)Cc1ccc(CN2CC=CCC2)[nH+]c1 (3D coordinates assigned)
CCN(C)Cc1ccc(CN2CC=CCC2)[nH+]c1 (nonaromatic ring conformer: 49.14483574603329 kcal/mol)

>  <smiles>  (38) 
CCN(C)Cc1ccc(CN2CC=CCC2)nc1

>  <score_type>  (38) 
oracle

>  <origin>  (38) 
adg

>  <m_score__min__energy>  (38) 
-5.2000000000000002

>  <m_primary>  (38) 
energy

$$$$
38:0
     RDKit          3D

 38 40  0  0  0  0  0  0  0  0999 V2000
   59.6330   35.7200   45.5980 C   0  0  0  0  0  0  0  0  0  0  0  0
   59.6000   34.2360   45.8090 C   0  0  0  0  0  0  0  0  0  0  0  0
   60.5770   33.6120   46.5980 C   0  0  0  0  0  0  0  0  0  0  0  0
   60.5270   32.2340   46.8240 C   0  0  0  0  0  0  0  0  0  0  0  0
   59.4900   31.4530   46.2790 C   0  0  0  0  0  0  0  0  0  0  0  0
   59.4470   29.9880   46.5250 C   0  0  0  0  0  0  0  0  0  0  0  0
   60.1940   29.2720   47.4630 C   0  0  0  0  0  0  0  0  0  0  0  0
   59.9340   27.8960   47.4630 C   0  0  0  0  0  0  0  0  0  0  0  0
   58.9840   27.5090   46.5230 C   0  0  0  0  0  0  0  0  0  0  0  0
   58.4790   26.1470   46.2750 C   0  0  0  0  0  0  0  0  0  0  0  0
   59.0470   25.1730   46.8420 O   0  0  0  0  0  0  0  0  0  0  0  0
   57.3410   25.9180   45.4290 N   0  0  0  0  0  0  0  0  0  0  0  0
   56.9590   24.6090   44.9750 C   0  0  0  0  0  0  0  0  0  0  0  0
   57.9330   23.7620   44.4150 C   0  0  0  0  0  0  0  0  0  0  0  0
   57.5770   22.5240   43.8810 C   0  0  0  0  0  0  0  0  0  0  0  0
   56.2430   22.1190   43.8860 C   0  0  0  0  0  0  0  0  0  0  0  0
   55.2620   22.9470   44.4330 C   0  0  0  0  0  0  0  0  0  0  0  0
   55.6020   24.1940   44.9930 C   0  0  0  0  0  0  0  0  0  0  0  0
   54.5350   25.0120   45.6200 C   0  0  0  0  0  0  0  0  0  0  0  0
   53.4130   24.5020   45.8750 O   0  0  0  0  0  0  0  0  0  0  0  0
   54.7660   26.3360   45.9770 O   0  0  0  0  0  0  0  0  0  0  0  0
   58.4700   28.8850   45.7050 S   0  0  0  0  0  0  0  0  0  0  0  0
   58.5050   32.0900   45.5000 C   0  0  0  0  0  0  0  0  0  0  0  0
   58.5570   33.4680   45.2740 C   0  0  0  0  0  0  0  0  0  0  0  0
   59.6443   36.2288   46.5732 H   0  0  0  0  0  0  0  0  0  0  0  0
   60.5374   35.9900   45.0330 H   0  0  0  0  0  0  0  0  0  0  0  0
   58.7415   36.0299   45.0330 H   0  0  0  0  0  0  0  0  0  0  0  0
   61.3867   34.2103   47.0412 H   0  0  0  0  0  0  0  0  0  0  0  0
   61.3063   31.7542   47.4343 H   0  0  0  0  0  0  0  0  0  0  0  0
   60.9202   29.7457   48.1399 H   0  0  0  0  0  0  0  0  0  0  0  0
   60.4332   27.1886   48.1415 H   0  0  0  0  0  0  0  0  0  0  0  0
   56.7400   26.7260   45.1540 H   0  0  0  0  0  0  0  0  0  0  0  0
   58.9860   24.0796   44.3983 H   0  0  0  0  0  0  0  0  0  0  0  0
   58.3494   21.8664   43.4555 H   0  0  0  0  0  0  0  0  0  0  0  0
   55.9633   21.1450   43.4580 H   0  0  0  0  0  0  0  0  0  0  0  0
   54.2111   22.6222   44.4268 H   0  0  0  0  0  0  0  0  0  0  0  0
   57.6868   31.4972   45.0652 H   0  0  0  0  0  0  0  0  0  0  0  0
   57.7742   33.9530   44.6723 H   0  0  0  0  0  0  0  0  0  0  0  0
  1  2  1  0
  2  3  2  0
  3  4  1  0
  4  5  2  0
  5  6  1  0
  6  7  2  0
  7  8  1  0
  8  9  2  0
  9 10  1  0
 10 11  2  0
 10 12  1  0
 12 13  1  0
 13 14  2  0
 14 15  1  0
 15 16  2  0
 16 17  1  0
 17 18  2  0
 18 19  1  0
 19 20  2  0
 19 21  1  0
  9 22  1  0
  5 23  1  0
 23 24  2  0
 24  2  1  0
 22  6  1  0
 18 13  1  0
  1 25  1  0
  1 26  1  0
  1 27  1  0
  3 28  1  0
  4 29  1  0
  7 30  1  0
  8 31  1  0
 12 32  1  0
 14 33  1  0
 15 34  1  0
 16 35  1  0
 17 36  1  0
 23 37  1  0
 24 38  1  0
M  CHG  1  21  -1
M  END
>  <UniqueID>  (39) 
36

>  <SMILES>  (39) 
Cc1ccc(-c2ccc(C(=O)Nc3ccccc3C(=O)[O-])s2)cc1

>  <Energy>  (39) 
76.43755773802742

>  <Genealogy>  (39) 
Cc1ccc(-c2ccc(C(=O)Nc3ccccc3C(=O)[O-])s2)cc1 (protonated)
Cc1ccc(-c2ccc(C(=O)Nc3ccccc3C(=O)[O-])s2)cc1 (3D coordinates assigned)
Cc1ccc(-c2ccc(C(=O)Nc3ccccc3C(=O)[O-])s2)cc1 (optimized conformer: 76.43755773802742 kcal/mol)

>  <smiles>  (39) 
Cc1ccc(-c2ccc(C(=O)Nc3ccccc3C(=O)O)s2)cc1

>  <score_type>  (39) 
oracle

>  <origin>  (39) 
adg

>  <m_score__min__energy>  (39) 
-10.44

>  <m_primary>  (39) 
energy

$$$$
39:0
     RDKit          3D

 53 56  0  0  0  0  0  0  0  0999 V2000
   55.5330   28.7900   45.2370 O   0  0  0  0  0  0  0  0  0  0  0  0
   56.7900   28.7480   45.1260 C   0  0  0  0  0  0  0  0  0  0  0  0
   57.5010   29.8810   44.6080 N   0  0  0  0  0  0  0  0  0  0  0  0
   58.0830   30.9440   45.3740 C   0  0  0  0  0  0  0  0  0  0  0  0
   58.5180   30.7560   46.6990 C   0  0  0  0  0  0  0  0  0  0  0  0
   59.1040   31.8110   47.4040 C   0  0  0  0  0  0  0  0  0  0  0  0
   59.2610   33.0650   46.7990 C   0  0  0  0  0  0  0  0  0  0  0  0
   60.0050   34.3860   47.7000 S   0  0  0  0  0  0  0  0  0  0  0  0
   59.6060   35.7040   47.0930 O   0  0  0  0  0  0  0  0  0  0  0  0
   59.5000   34.3390   49.1150 O   0  0  0  0  0  0  0  0  0  0  0  0
   61.7480   34.2100   47.6950 N   0  0  0  0  0  0  0  0  0  0  0  0
   62.2320   33.7670   49.0090 C   0  0  0  0  0  0  0  0  0  0  0  0
   62.3050   32.2480   48.9980 C   0  0  0  0  0  0  0  0  0  0  0  0
   62.2900   31.8530   47.5340 C   0  0  0  0  0  0  0  0  0  0  0  0
   62.1540   33.1570   46.7570 C   0  0  0  0  0  0  0  0  0  0  0  0
   58.8520   33.2480   45.4710 C   0  0  0  0  0  0  0  0  0  0  0  0
   58.2760   32.1890   44.7620 C   0  0  0  0  0  0  0  0  0  0  0  0
   57.5220   27.5080   45.4780 C   0  0  0  0  0  0  0  0  0  0  0  0
   58.5530   27.5390   46.4370 C   0  0  0  0  0  0  0  0  0  0  0  0
   59.2440   26.3740   46.7700 C   0  0  0  0  0  0  0  0  0  0  0  0
   58.9250   25.1650   46.1480 C   0  0  0  0  0  0  0  0  0  0  0  0
   57.9030   25.1070   45.1850 C   0  0  0  0  0  0  0  0  0  0  0  0
   57.5910   23.8620   44.5240 N   0  0  0  0  0  0  0  0  0  0  0  0
   56.8300   23.8880   43.2660 C   0  0  0  0  0  0  0  0  0  0  0  0
   56.6000   22.4760   42.7400 C   0  0  0  0  0  0  0  0  0  0  0  0
   56.2450   21.6390   43.8180 O   0  0  0  0  0  0  0  0  0  0  0  0
   57.3940   21.3510   44.5940 C   0  0  0  0  0  0  0  0  0  0  0  0
   58.1880   22.6110   45.0210 C   0  0  0  0  0  0  0  0  0  0  0  0
   57.2060   26.2860   44.8570 C   0  0  0  0  0  0  0  0  0  0  0  0
   58.3964   29.7751   47.1817 H   0  0  0  0  0  0  0  0  0  0  0  0
   59.4436   31.6561   48.4387 H   0  0  0  0  0  0  0  0  0  0  0  0
   63.2307   34.1869   49.1995 H   0  0  0  0  0  0  0  0  0  0  0  0
   61.5508   34.1101   49.8016 H   0  0  0  0  0  0  0  0  0  0  0  0
   63.2322   31.9041   49.4796 H   0  0  0  0  0  0  0  0  0  0  0  0
   61.4695   31.7950   49.5518 H   0  0  0  0  0  0  0  0  0  0  0  0
   63.2262   31.3419   47.2649 H   0  0  0  0  0  0  0  0  0  0  0  0
   61.4672   31.1584   47.3091 H   0  0  0  0  0  0  0  0  0  0  0  0
   63.1186   33.4191   46.2979 H   0  0  0  0  0  0  0  0  0  0  0  0
   61.4033   33.0479   45.9604 H   0  0  0  0  0  0  0  0  0  0  0  0
   58.9843   34.2262   44.9856 H   0  0  0  0  0  0  0  0  0  0  0  0
   57.9720   32.3350   43.7150 H   0  0  0  0  0  0  0  0  0  0  0  0
   58.8151   28.4884   46.9267 H   0  0  0  0  0  0  0  0  0  0  0  0
   60.0431   26.4077   47.5252 H   0  0  0  0  0  0  0  0  0  0  0  0
   59.4775   24.2517   46.4137 H   0  0  0  0  0  0  0  0  0  0  0  0
   55.8569   24.3691   43.4437 H   0  0  0  0  0  0  0  0  0  0  0  0
   57.4066   24.4520   42.5181 H   0  0  0  0  0  0  0  0  0  0  0  0
   55.7884   22.4862   41.9976 H   0  0  0  0  0  0  0  0  0  0  0  0
   57.5183   22.1014   42.2641 H   0  0  0  0  0  0  0  0  0  0  0  0
   57.0755   20.8170   45.5014 H   0  0  0  0  0  0  0  0  0  0  0  0
   58.0639   20.7463   43.9650 H   0  0  0  0  0  0  0  0  0  0  0  0
   58.2197   22.6499   46.1199 H   0  0  0  0  0  0  0  0  0  0  0  0
   59.1943   22.5299   44.5843 H   0  0  0  0  0  0  0  0  0  0  0  0
   56.4038   26.2508   44.1052 H   0  0  0  0  0  0  0  0  0  0  0  0
  1  2  2  0
  2  3  1  0
  3  4  1  0
  4  5  2  0
  5  6  1  0
  6  7  2  0
  7  8  1  0
  8  9  2  0
  8 10  2  0
  8 11  1  0
 11 12  1  0
 12 13  1  0
 13 14  1  0
 14 15  1  0
  7 16  1  0
 16 17  2  0
  2 18  1  0
 18 19  2  0
 19 20  1  0
 20 21  2  0
 21 22  1  0
 22 23  1  0
 23 24  1  0
 24 25  1  0
 25 26  1  0
 26 27  1  0
 27 28  1  0
 22 29  2  0
 17  4  1  0
 29 18  1  0
 15 11  1  0
 28 23  1  0
  5 30  1  0
  6 31  1  0
 12 32  1  0
 12 33  1  0
 13 34  1  0
 13 35  1  0
 14 36  1  0
 14 37  1  0
 15 38  1  0
 15 39  1  0
 16 40  1  0
 17 41  1  0
 19 42  1  0
 20 43  1  0
 21 44  1  0
 24 45  1  0
 24 46  1  0
 25 47  1  0
 25 48  1  0
 27 49  1  0
 27 50  1  0
 28 51  1  0
 28 52  1  0
 29 53  1  0
M  CHG  1   3  -1
M  END
>  <UniqueID>  (40) 
37

>  <SMILES>  (40) 
O=C([N-]c1ccc(S(=O)(=O)N2CCCC2)cc1)c1cccc(N2CCOCC2)c1

>  <Energy>  (40) 
70.6652034771103

>  <Genealogy>  (40) 
O=C([N-]c1ccc(S(=O)(=O)N2CCCC2)cc1)c1cccc(N2CCOCC2)c1 (protonated)
O=C([N-]c1ccc(S(=O)(=O)N2CCCC2)cc1)c1cccc(N2CCOCC2)c1 (3D coordinates assigned)
O=C([N-]c1ccc(S(=O)(=O)N2CCCC2)cc1)c1cccc(N2CCOCC2)c1 (nonaromatic ring conformer: 70.6652034771103 kcal/mol)

>  <smiles>  (40) 
O=C(Nc1ccc(S(=O)(=O)N2CCCC2)cc1)c1cccc(N2CCOCC2)c1

>  <score_type>  (40) 
oracle

>  <origin>  (40) 
adg

>  <m_score__min__energy>  (40) 
-10.710000000000001

>  <m_primary>  (40) 
energy

$$$$
40:0
     RDKit          3D

 56 59  0  0  0  0  0  0  0  0999 V2000
   63.4900   30.5520   52.3210 C   0  0  0  0  0  0  0  0  0  0  0  0
   62.5260   30.5880   50.8280 S   0  0  0  0  0  0  0  0  0  0  0  0
   63.3940   31.0700   49.7010 O   0  0  0  0  0  0  0  0  0  0  0  0
   61.3590   31.5170   51.0140 O   0  0  0  0  0  0  0  0  0  0  0  0
   61.9580   28.9860   50.4890 N   0  0  0  0  0  0  0  0  0  0  0  0
   60.8610   28.6650   49.6230 C   0  0  0  0  0  0  0  0  0  0  0  0
   60.7740   27.3680   49.1020 C   0  0  0  0  0  0  0  0  0  0  0  0
   59.7290   27.0170   48.2420 C   0  0  0  0  0  0  0  0  0  0  0  0
   58.7420   27.9570   47.9040 C   0  0  0  0  0  0  0  0  0  0  0  0
   57.6500   27.6210   46.9650 C   0  0  0  0  0  0  0  0  0  0  0  0
   56.8770   26.5280   47.1120 N   0  0  0  0  0  0  0  0  0  0  0  0
   56.0400   26.5850   46.0590 C   0  0  0  0  0  0  0  0  0  0  0  0
   55.1480   25.7220   45.8510 O   0  0  0  0  0  0  0  0  0  0  0  0
   56.2390   27.6370   45.2410 N   0  0  0  0  0  0  0  0  0  0  0  0
   57.2620   28.2970   45.8140 C   0  0  0  0  0  0  0  0  0  0  0  0
   57.8920   29.5120   45.1930 C   0  0  0  0  0  0  0  0  0  0  0  0
   56.8470   30.4020   44.5720 C   0  0  0  0  0  0  0  0  0  0  0  0
   56.0610   29.9180   43.7140 O   0  0  0  0  0  0  0  0  0  0  0  0
   56.6240   31.7450   45.0250 N   0  0  0  0  0  0  0  0  0  0  0  0
   57.6200   32.7140   45.3770 C   0  0  0  0  0  0  0  0  0  0  0  0
   57.9600   33.7710   44.5150 C   0  0  0  0  0  0  0  0  0  0  0  0
   58.8980   34.7280   44.9090 C   0  0  0  0  0  0  0  0  0  0  0  0
   59.4880   34.6510   46.1740 C   0  0  0  0  0  0  0  0  0  0  0  0
   59.1380   33.6180   47.0520 C   0  0  0  0  0  0  0  0  0  0  0  0
   59.8390   33.5620   48.6670 S   0  0  0  0  0  0  0  0  0  0  0  0
   59.0200   32.6390   49.5260 O   0  0  0  0  0  0  0  0  0  0  0  0
   59.8130   34.9360   49.2810 O   0  0  0  0  0  0  0  0  0  0  0  0
   61.4750   32.9620   48.5630 N   0  0  0  0  0  0  0  0  0  0  0  0
   61.8640   32.7140   47.1760 C   0  0  0  0  0  0  0  0  0  0  0  0
   63.3770   32.8440   47.1250 C   0  0  0  0  0  0  0  0  0  0  0  0
   63.7480   33.6830   48.3380 C   0  0  0  0  0  0  0  0  0  0  0  0
   62.4360   33.9440   49.0670 C   0  0  0  0  0  0  0  0  0  0  0  0
   58.1930   32.6610   46.6540 C   0  0  0  0  0  0  0  0  0  0  0  0
   58.8380   29.2600   48.4150 C   0  0  0  0  0  0  0  0  0  0  0  0
   59.8840   29.6130   49.2740 C   0  0  0  0  0  0  0  0  0  0  0  0
   62.8184   30.5771   53.1918 H   0  0  0  0  0  0  0  0  0  0  0  0
   64.0906   29.6308   52.3476 H   0  0  0  0  0  0  0  0  0  0  0  0
   64.1576   31.4258   52.3476 H   0  0  0  0  0  0  0  0  0  0  0  0
   61.5337   26.6196   49.3715 H   0  0  0  0  0  0  0  0  0  0  0  0
   59.6797   25.9991   47.8279 H   0  0  0  0  0  0  0  0  0  0  0  0
   58.4296   30.0756   45.9697 H   0  0  0  0  0  0  0  0  0  0  0  0
   58.5868   29.1839   44.4058 H   0  0  0  0  0  0  0  0  0  0  0  0
   57.4851   33.8448   43.5255 H   0  0  0  0  0  0  0  0  0  0  0  0
   59.1727   35.5430   44.2233 H   0  0  0  0  0  0  0  0  0  0  0  0
   60.2291   35.4039   46.4804 H   0  0  0  0  0  0  0  0  0  0  0  0
   61.5586   31.7024   46.8703 H   0  0  0  0  0  0  0  0  0  0  0  0
   61.3793   33.4265   46.4924 H   0  0  0  0  0  0  0  0  0  0  0  0
   63.8511   31.8531   47.1821 H   0  0  0  0  0  0  0  0  0  0  0  0
   63.7178   33.3059   46.1867 H   0  0  0  0  0  0  0  0  0  0  0  0
   64.4460   33.1336   48.9869 H   0  0  0  0  0  0  0  0  0  0  0  0
   64.2487   34.6191   48.0499 H   0  0  0  0  0  0  0  0  0  0  0  0
   62.5729   33.8191   50.1513 H   0  0  0  0  0  0  0  0  0  0  0  0
   62.0825   34.9709   48.8921 H   0  0  0  0  0  0  0  0  0  0  0  0
   57.8994   31.8620   47.3507 H   0  0  0  0  0  0  0  0  0  0  0  0
   58.0837   30.0110   48.1376 H   0  0  0  0  0  0  0  0  0  0  0  0
   59.9420   30.6348   49.6772 H   0  0  0  0  0  0  0  0  0  0  0  0
  1  2  1  0
  2  3  2  0
  2  4  2  0
  2  5  1  0
  5  6  1  0
  6  7  2  0
  7  8  1  0
  8  9  2  0
  9 10  1  0
 10 11  1  0
 11 12  1  0
 12 13  2  0
 12 14  1  0
 14 15  1  0
 15 16  1  0
 16 17  1  0
 17 18  2  0
 17 19  1  0
 19 20  1  0
 20 21  2  0
 21 22  1  0
 22 23  2  0
 23 24  1  0
 24 25  1  0
 25 26  2  0
 25 27  2  0
 25 28  1  0
 28 29  1  0
 29 30  1  0
 30 31  1  0
 31 32  1  0
 24 33  2  0
  9 34  1  0
 34 35  2  0
 35  6  1  0
 15 10  2  0
 33 20  1  0
 32 28  1  0
  1 36  1  0
  1 37  1  0
  1 38  1  0
  7 39  1  0
  8 40  1  0
 16 41  1  0
 16 42  1  0
 21 43  1  0
 22 44  1  0
 23 45  1  0
 29 46  1  0
 29 47  1  0
 30 48  1  0
 30 49  1  0
 31 50  1  0
 31 51  1  0
 32 52  1  0
 32 53  1  0
 33 54  1  0
 34 55  1  0
 35 56  1  0
M  CHG  4   5  -1  11  -1  14  -1  19  -1
M  END
>  <UniqueID>  (41) 
38

>  <SMILES>  (41) 
CS(=O)(=O)[N-]c1ccc(-c2[n-]c(=O)[n-]c2CC(=O)[N-]c2cccc(S(=O)(=O)N3CCCC3)c2)cc1

>  <Energy>  (41) 
96.04640726319076

>  <Genealogy>  (41) 
CS(=O)(=O)[N-]c1ccc(-c2[n-]c(=O)[n-]c2CC(=O)[N-]c2cccc(S(=O)(=O)N3CCCC3)c2)cc1 (protonated)
CS(=O)(=O)[N-]c1ccc(-c2[n-]c(=O)[n-]c2CC(=O)[N-]c2cccc(S(=O)(=O)N3CCCC3)c2)cc1 (3D coordinates assigned)
CS(=O)(=O)[N-]c1ccc(-c2[n-]c(=O)[n-]c2CC(=O)[N-]c2cccc(S(=O)(=O)N3CCCC3)c2)cc1 (nonaromatic ring conformer: 96.04640726319076 kcal/mol)

>  <smiles>  (41) 
CS(=O)(=O)Nc1ccc(-c2[nH]c(=O)[nH]c2CC(=O)Nc2cccc(S(=O)(=O)N3CCCC3)c2)cc1

>  <score_type>  (41) 
oracle

>  <origin>  (41) 
adg

>  <m_score__min__energy>  (41) 
-15.66

>  <m_primary>  (41) 
energy

$$$$
41:0
     RDKit          3D

 46 49  0  0  0  0  0  0  0  0999 V2000
   57.2140   24.2500   43.4800 C   0  0  0  0  0  0  0  0  0  0  0  0
   57.7340   24.9230   44.7170 C   0  0  0  0  0  0  0  0  0  0  0  0
   57.9970   24.3250   45.9450 C   0  0  0  0  0  0  0  0  0  0  0  0
   57.8020   22.9080   46.3150 C   0  0  0  0  0  0  0  0  0  0  0  0
   57.2840   22.5440   47.5920 N   0  0  0  0  0  0  0  0  0  0  0  0
   58.1020   22.0030   45.4910 O   0  0  0  0  0  0  0  0  0  0  0  0
   58.4810   25.2430   46.8040 N   0  0  0  0  0  0  0  0  0  0  0  0
   58.5210   26.4260   46.1610 C   0  0  0  0  0  0  0  0  0  0  0  0
   59.0260   27.6650   46.7950 C   0  0  0  0  0  0  0  0  0  0  0  0
   60.0890   28.3640   46.2000 C   0  0  0  0  0  0  0  0  0  0  0  0
   60.5940   29.5230   46.7960 C   0  0  0  0  0  0  0  0  0  0  0  0
   60.0670   29.9870   48.0050 C   0  0  0  0  0  0  0  0  0  0  0  0
   60.5910   31.1630   48.5620 O   0  0  0  0  0  0  0  0  0  0  0  0
   61.4820   32.0380   47.9230 C   0  0  0  0  0  0  0  0  0  0  0  0
   61.0420   33.0160   47.0110 C   0  0  0  0  0  0  0  0  0  0  0  0
   61.9620   33.8800   46.4090 C   0  0  0  0  0  0  0  0  0  0  0  0
   63.3210   33.7840   46.7200 C   0  0  0  0  0  0  0  0  0  0  0  0
   63.7610   32.8280   47.6390 C   0  0  0  0  0  0  0  0  0  0  0  0
   62.8440   31.9620   48.2440 C   0  0  0  0  0  0  0  0  0  0  0  0
   59.0010   29.2910   48.6020 C   0  0  0  0  0  0  0  0  0  0  0  0
   58.4950   28.1320   48.0070 C   0  0  0  0  0  0  0  0  0  0  0  0
   58.0650   26.2680   44.8540 C   0  0  0  0  0  0  0  0  0  0  0  0
   58.0220   27.3090   43.7650 C   0  0  0  0  0  0  0  0  0  0  0  0
   57.3090   28.5610   44.1960 C   0  0  0  0  0  0  0  0  0  0  0  0
   57.7210   29.7960   43.8560 N   0  0  0  0  0  0  0  0  0  0  0  0
   56.8510   30.6070   44.4950 C   0  0  0  0  0  0  0  0  0  0  0  0
   56.9080   31.8610   44.4130 O   0  0  0  0  0  0  0  0  0  0  0  0
   55.9170   29.9680   45.2310 N   0  0  0  0  0  0  0  0  0  0  0  0
   56.2230   28.6760   45.0400 C   0  0  0  0  0  0  0  0  0  0  0  0
   55.5200   27.6280   45.6190 O   0  0  0  0  0  0  0  0  0  0  0  0
   56.5645   23.4094   43.7654 H   0  0  0  0  0  0  0  0  0  0  0  0
   56.6375   24.9729   42.8841 H   0  0  0  0  0  0  0  0  0  0  0  0
   58.0590   23.8746   42.8841 H   0  0  0  0  0  0  0  0  0  0  0  0
   57.6360   22.9980   48.4640 H   0  0  0  0  0  0  0  0  0  0  0  0
   58.7640   25.0730   47.7960 H   0  0  0  0  0  0  0  0  0  0  0  0
   60.5265   27.9973   45.2597 H   0  0  0  0  0  0  0  0  0  0  0  0
   61.4124   30.0744   46.3101 H   0  0  0  0  0  0  0  0  0  0  0  0
   59.9718   33.1007   46.7714 H   0  0  0  0  0  0  0  0  0  0  0  0
   61.6154   34.6364   45.6895 H   0  0  0  0  0  0  0  0  0  0  0  0
   64.0441   34.4609   46.2414 H   0  0  0  0  0  0  0  0  0  0  0  0
   64.8302   32.7562   47.8872 H   0  0  0  0  0  0  0  0  0  0  0  0
   63.1936   31.2180   48.9750 H   0  0  0  0  0  0  0  0  0  0  0  0
   58.5635   29.6603   49.5413 H   0  0  0  0  0  0  0  0  0  0  0  0
   57.6750   27.5822   48.4921 H   0  0  0  0  0  0  0  0  0  0  0  0
   59.0532   27.5688   43.4839 H   0  0  0  0  0  0  0  0  0  0  0  0
   57.4676   26.8830   42.9158 H   0  0  0  0  0  0  0  0  0  0  0  0
  1  2  1  0
  2  3  2  0
  3  4  1  0
  4  5  1  0
  4  6  2  0
  3  7  1  0
  7  8  1  0
  8  9  1  0
  9 10  2  0
 10 11  1  0
 11 12  2  0
 12 13  1  0
 13 14  1  0
 14 15  2  0
 15 16  1  0
 16 17  2  0
 17 18  1  0
 18 19  2  0
 12 20  1  0
 20 21  2  0
  8 22  2  0
 22 23  1  0
 23 24  1  0
 24 25  1  0
 25 26  1  0
 26 27  2  0
 26 28  1  0
 28 29  1  0
 29 30  1  0
 22  2  1  0
 29 24  2  0
 21  9  1  0
 19 14  1  0
  1 31  1  0
  1 32  1  0
  1 33  1  0
  5 34  1  0
  7 35  1  0
 10 36  1  0
 11 37  1  0
 15 38  1  0
 16 39  1  0
 17 40  1  0
 18 41  1  0
 19 42  1  0
 20 43  1  0
 21 44  1  0
 23 45  1  0
 23 46  1  0
M  CHG  4   5  -1  25  -1  28  -1  30  -1
M  END
>  <UniqueID>  (42) 
39

>  <SMILES>  (42) 
Cc1c(C([NH-])=O)[nH]c(-c2ccc(Oc3ccccc3)cc2)c1Cc1[n-]c(=O)[n-]c1[O-]

>  <Energy>  (42) 
115.94628977972408

>  <Genealogy>  (42) 
Cc1c(C([NH-])=O)[nH]c(-c2ccc(Oc3ccccc3)cc2)c1Cc1[n-]c(=O)[n-]c1[O-] (protonated)
Cc1c(C([NH-])=O)[nH]c(-c2ccc(Oc3ccccc3)cc2)c1Cc1[n-]c(=O)[n-]c1[O-] (3D coordinates assigned)
Cc1c(C([NH-])=O)[nH]c(-c2ccc(Oc3ccccc3)cc2)c1Cc1[n-]c(=O)[n-]c1[O-] (optimized conformer: 115.94628977972408 kcal/mol)

>  <smiles>  (42) 
Cc1c(C(N)=O)[nH]c(-c2ccc(Oc3ccccc3)cc2)c1Cc1[nH]c(=O)[nH]c1O

>  <score_type>  (42) 
oracle

>  <origin>  (42) 
adg

>  <m_score__min__energy>  (42) 
-17.579999999999998

>  <m_primary>  (42) 
energy

$$$$
42:0
     RDKit          3D

 73 77  0  0  0  0  0  0  0  0999 V2000
   59.2420   25.9720   47.5320 C   0  0  0  0  0  0  0  0  0  0  0  0
   58.9070   27.1450   46.9630 C   0  0  0  0  0  0  0  0  0  0  0  0
   59.5410   28.2930   47.4720 C   0  0  0  0  0  0  0  0  0  0  0  0
   59.4980   29.4980   46.7880 C   0  0  0  0  0  0  0  0  0  0  0  0
   58.7910   29.6000   45.5930 C   0  0  0  0  0  0  0  0  0  0  0  0
   58.7480   30.8230   44.9090 C   0  0  0  0  0  0  0  0  0  0  0  0
   57.9380   30.9710   43.7750 C   0  0  0  0  0  0  0  0  0  0  0  0
   57.8390   32.2720   43.0900 C   0  0  0  0  0  0  0  0  0  0  0  0
   57.3320   32.3450   41.9360 O   0  0  0  0  0  0  0  0  0  0  0  0
   58.2930   33.4590   43.7460 N   0  0  0  0  0  0  0  0  0  0  0  0
   57.5630   34.0790   44.8440 C   0  0  0  0  0  0  0  0  0  0  0  0
   58.3330   33.8540   46.1120 C   0  0  0  0  0  0  0  0  0  0  0  0
   57.8770   32.9090   47.0450 C   0  0  0  0  0  0  0  0  0  0  0  0
   58.4730   32.8150   48.3050 C   0  0  0  0  0  0  0  0  0  0  0  0
   59.5280   33.6660   48.6520 C   0  0  0  0  0  0  0  0  0  0  0  0
   60.1090   33.6180   50.0080 C   0  0  0  0  0  0  0  0  0  0  0  0
   59.3550   33.8570   50.9960 O   0  0  0  0  0  0  0  0  0  0  0  0
   61.5100   33.3250   50.2150 N   0  0  0  0  0  0  0  0  0  0  0  0
   62.1030   33.5160   51.5460 C   0  0  0  0  0  0  0  0  0  0  0  0
   63.5760   33.9200   51.4300 C   0  0  0  0  0  0  0  0  0  0  0  0
   64.3160   33.0560   50.4950 N   0  0  0  0  0  0  0  0  0  0  0  0
   65.7610   33.1200   50.4340 C   0  0  0  0  0  0  0  0  0  0  0  0
   66.5360   34.1090   51.2540 C   0  0  0  0  0  0  0  0  0  0  0  0
   66.4010   32.3340   49.6810 O   0  0  0  0  0  0  0  0  0  0  0  0
   63.5890   32.0500   49.7090 C   0  0  0  0  0  0  0  0  0  0  0  0
   62.2750   32.6280   49.1700 C   0  0  0  0  0  0  0  0  0  0  0  0
   60.0140   34.5840   47.7080 C   0  0  0  0  0  0  0  0  0  0  0  0
   59.4080   34.6910   46.4500 C   0  0  0  0  0  0  0  0  0  0  0  0
   57.1740   29.8770   43.3540 C   0  0  0  0  0  0  0  0  0  0  0  0
   57.2550   28.6940   44.0140 N   0  0  0  0  0  0  0  0  0  0  0  0
   58.0560   28.4940   45.0990 C   0  0  0  0  0  0  0  0  0  0  0  0
   58.0720   27.2400   45.7950 C   0  0  0  0  0  0  0  0  0  0  0  0
   57.2480   26.2050   45.4160 C   0  0  0  0  0  0  0  0  0  0  0  0
   57.3890   25.5450   44.0530 C   0  0  0  0  0  0  0  0  0  0  0  0
   57.1520   24.0180   44.1330 C   0  0  0  0  0  0  0  0  0  0  0  0
   57.5600   23.4380   45.4310 N   0  0  0  0  0  0  0  0  0  0  0  0
   59.0210   23.4880   45.6280 C   0  0  0  0  0  0  0  0  0  0  0  0
   56.8120   24.0090   46.5820 C   0  0  0  0  0  0  0  0  0  0  0  0
   56.3320   25.4600   46.3590 C   0  0  0  0  0  0  0  0  0  0  0  0
   58.7810   25.0378   47.1787 H   0  0  0  0  0  0  0  0  0  0  0  0
   59.9767   25.9476   48.3503 H   0  0  0  0  0  0  0  0  0  0  0  0
   60.0800   28.2335   48.4290 H   0  0  0  0  0  0  0  0  0  0  0  0
   60.0240   30.3762   47.1906 H   0  0  0  0  0  0  0  0  0  0  0  0
   59.3529   31.6704   45.2641 H   0  0  0  0  0  0  0  0  0  0  0  0
   57.4597   35.1584   44.6587 H   0  0  0  0  0  0  0  0  0  0  0  0
   56.5594   33.6365   44.9279 H   0  0  0  0  0  0  0  0  0  0  0  0
   57.0454   32.2386   46.7822 H   0  0  0  0  0  0  0  0  0  0  0  0
   58.1112   32.0686   49.0275 H   0  0  0  0  0  0  0  0  0  0  0  0
   61.5524   34.3069   52.0764 H   0  0  0  0  0  0  0  0  0  0  0  0
   62.0390   32.5683   52.1008 H   0  0  0  0  0  0  0  0  0  0  0  0
   63.6317   34.9588   51.0725 H   0  0  0  0  0  0  0  0  0  0  0  0
   64.0352   33.8145   52.4240 H   0  0  0  0  0  0  0  0  0  0  0  0
   66.3758   33.9046   52.3229 H   0  0  0  0  0  0  0  0  0  0  0  0
   67.6071   34.0198   51.0201 H   0  0  0  0  0  0  0  0  0  0  0  0
   66.1933   35.1277   51.0201 H   0  0  0  0  0  0  0  0  0  0  0  0
   64.2161   31.7300   48.8638 H   0  0  0  0  0  0  0  0  0  0  0  0
   63.3578   31.1933   50.3590 H   0  0  0  0  0  0  0  0  0  0  0  0
   62.5046   33.3399   48.3634 H   0  0  0  0  0  0  0  0  0  0  0  0
   61.6624   31.7923   48.8007 H   0  0  0  0  0  0  0  0  0  0  0  0
   60.8746   35.2221   47.9574 H   0  0  0  0  0  0  0  0  0  0  0  0
   59.7752   35.4325   45.7252 H   0  0  0  0  0  0  0  0  0  0  0  0
   56.5059   29.9761   42.4857 H   0  0  0  0  0  0  0  0  0  0  0  0
   56.6521   25.9852   43.3651 H   0  0  0  0  0  0  0  0  0  0  0  0
   58.4139   25.7159   43.6920 H   0  0  0  0  0  0  0  0  0  0  0  0
   56.0803   23.8210   43.9822 H   0  0  0  0  0  0  0  0  0  0  0  0
   57.7691   23.5475   43.3534 H   0  0  0  0  0  0  0  0  0  0  0  0
   59.2457   23.4957   46.7048 H   0  0  0  0  0  0  0  0  0  0  0  0
   59.4841   22.6052   45.1631 H   0  0  0  0  0  0  0  0  0  0  0  0
   59.4227   24.4004   45.1631 H   0  0  0  0  0  0  0  0  0  0  0  0
   55.9309   23.3778   46.7698 H   0  0  0  0  0  0  0  0  0  0  0  0
   57.5062   24.0300   47.4350 H   0  0  0  0  0  0  0  0  0  0  0  0
   55.3184   25.4400   45.9321 H   0  0  0  0  0  0  0  0  0  0  0  0
   56.3370   25.9792   47.3288 H   0  0  0  0  0  0  0  0  0  0  0  0
  1  2  2  0
  2  3  1  0
  3  4  2  0
  4  5  1  0
  5  6  2  0
  6  7  1  0
  7  8  1  0
  8  9  2  0
  8 10  1  0
 10 11  1  0
 11 12  1  0
 12 13  2  0
 13 14  1  0
 14 15  2  0
 15 16  1  0
 16 17  2  0
 16 18  1  0
 18 19  1  0
 19 20  1  0
 20 21  1  0
 21 22  1  0
 22 23  1  0
 22 24  2  0
 21 25  1  0
 25 26  1  0
 15 27  1  0
 27 28  2  0
  7 29  2  0
 29 30  1  0
 30 31  2  0
 31 32  1  0
 32 33  2  3
 33 34  1  0
 34 35  1  0
 35 36  1  0
 36 37  1  0
 36 38  1  0
 38 39  1  0
 32  2  1  0
 39 33  1  0
 31  5  1  0
 28 12  1  0
 26 18  1  0
  1 40  1  0
  1 41  1  0
  3 42  1  0
  4 43  1  0
  6 44  1  0
 11 45  1  0
 11 46  1  0
 13 47  1  0
 14 48  1  0
 19 49  1  0
 19 50  1  0
 20 51  1  0
 20 52  1  0
 23 53  1  0
 23 54  1  0
 23 55  1  0
 25 56  1  0
 25 57  1  0
 26 58  1  0
 26 59  1  0
 27 60  1  0
 28 61  1  0
 29 62  1  0
 34 63  1  0
 34 64  1  0
 35 65  1  0
 35 66  1  0
 37 67  1  0
 37 68  1  0
 37 69  1  0
 38 70  1  0
 38 71  1  0
 39 72  1  0
 39 73  1  0
M  CHG  1  10  -1
M  END
>  <UniqueID>  (43) 
40

>  <SMILES>  (43) 
C=c1ccc2cc(C(=O)[N-]Cc3ccc(C(=O)N4CCN(C(C)=O)CC4)cc3)cnc2c1=C1CCN(C)CC1

>  <Energy>  (43) 
126.59717143378423

>  <Genealogy>  (43) 
C=c1ccc2cc(C(=O)[N-]Cc3ccc(C(=O)N4CCN(C(C)=O)CC4)cc3)cnc2c1=C1CCN(C)CC1 (protonated)
C=c1ccc2cc(C(=O)[N-]Cc3ccc(C(=O)N4CCN(C(C)=O)CC4)cc3)cnc2c1=C1CCN(C)CC1 (3D coordinates assigned)
C=c1ccc2cc(C(=O)[N-]Cc3ccc(C(=O)N4CCN(C(C)=O)CC4)cc3)cnc2c1=C1CCN(C)CC1 (nonaromatic ring conformer: 126.59717143378423 kcal/mol)

>  <smiles>  (43) 
C=c1ccc2cc(C(=O)NCc3ccc(C(=O)N4CCN(C(C)=O)CC4)cc3)cnc2c1=C1CCN(C)CC1

>  <score_type>  (43) 
oracle

>  <origin>  (43) 
adg

>  <m_score__min__energy>  (43) 
-11.16

>  <m_primary>  (43) 
energy

$$$$
43:0
     RDKit          3D

 45 47  0  0  0  0  0  0  0  0999 V2000
   53.2060   23.9800   44.5720 C   0  0  0  0  0  0  0  0  0  0  0  0
   54.5960   24.1380   44.9900 N   0  0  0  0  0  0  0  0  0  0  0  0
   55.5740   23.2160   44.8900 C   0  0  0  0  0  0  0  0  0  0  0  0
   55.4030   21.9680   44.2980 O   0  0  0  0  0  0  0  0  0  0  0  0
   56.7490   23.6760   45.4570 C   0  0  0  0  0  0  0  0  0  0  0  0
   56.4640   24.9420   45.9410 C   0  0  0  0  0  0  0  0  0  0  0  0
   57.3940   25.8280   46.6550 C   0  0  0  0  0  0  0  0  0  0  0  0
   58.4180   25.3500   47.2140 O   0  0  0  0  0  0  0  0  0  0  0  0
   57.1310   27.2340   46.7120 N   0  0  0  0  0  0  0  0  0  0  0  0
   58.1440   28.2610   46.5000 C   0  0  0  0  0  0  0  0  0  0  0  0
   57.7350   29.1750   45.3660 C   0  0  0  0  0  0  0  0  0  0  0  0
   56.9650   28.6330   44.3200 C   0  0  0  0  0  0  0  0  0  0  0  0
   56.4730   29.4470   43.3000 C   0  0  0  0  0  0  0  0  0  0  0  0
   56.7240   30.8160   43.3180 C   0  0  0  0  0  0  0  0  0  0  0  0
   57.4860   31.3750   44.3440 C   0  0  0  0  0  0  0  0  0  0  0  0
   58.0330   30.5680   45.3610 C   0  0  0  0  0  0  0  0  0  0  0  0
   58.8780   31.2330   46.4410 C   0  0  0  0  0  0  0  0  0  0  0  0
   58.7060   32.7010   46.5630 N   0  0  0  0  0  0  0  0  0  0  0  0
   58.9580   33.2800   47.8840 C   0  0  0  0  0  0  0  0  0  0  0  0
   59.1970   34.7680   47.6580 C   0  0  0  0  0  0  0  0  0  0  0  0
   59.4440   34.9220   46.1620 C   0  0  0  0  0  0  0  0  0  0  0  0
   59.4780   33.5040   45.6180 C   0  0  0  0  0  0  0  0  0  0  0  0
   55.1320   25.1850   45.6460 C   0  0  0  0  0  0  0  0  0  0  0  0
   54.4310   26.3390   45.9720 O   0  0  0  0  0  0  0  0  0  0  0  0
   52.5619   23.9068   45.4607 H   0  0  0  0  0  0  0  0  0  0  0  0
   52.9030   24.8495   43.9702 H   0  0  0  0  0  0  0  0  0  0  0  0
   53.1059   23.0647   43.9702 H   0  0  0  0  0  0  0  0  0  0  0  0
   55.4570   21.8590   43.2920 H   0  0  0  0  0  0  0  0  0  0  0  0
   57.7112   23.1457   45.5121 H   0  0  0  0  0  0  0  0  0  0  0  0
   58.2588   28.8530   47.4200 H   0  0  0  0  0  0  0  0  0  0  0  0
   59.0972   27.7760   46.2429 H   0  0  0  0  0  0  0  0  0  0  0  0
   56.7487   27.5546   44.3068 H   0  0  0  0  0  0  0  0  0  0  0  0
   55.8860   29.0067   42.4805 H   0  0  0  0  0  0  0  0  0  0  0  0
   56.3206   31.4584   42.5214 H   0  0  0  0  0  0  0  0  0  0  0  0
   57.6622   32.4607   44.3592 H   0  0  0  0  0  0  0  0  0  0  0  0
   58.6147   30.7781   47.4073 H   0  0  0  0  0  0  0  0  0  0  0  0
   59.9266   31.0717   46.1505 H   0  0  0  0  0  0  0  0  0  0  0  0
   58.0872   33.1289   48.5389 H   0  0  0  0  0  0  0  0  0  0  0  0
   59.8221   32.8049   48.3714 H   0  0  0  0  0  0  0  0  0  0  0  0
   58.3143   35.3492   47.9631 H   0  0  0  0  0  0  0  0  0  0  0  0
   60.0467   35.1379   48.2506 H   0  0  0  0  0  0  0  0  0  0  0  0
   58.6309   35.4959   45.6935 H   0  0  0  0  0  0  0  0  0  0  0  0
   60.3767   35.4662   45.9523 H   0  0  0  0  0  0  0  0  0  0  0  0
   59.0207   33.4654   44.6183 H   0  0  0  0  0  0  0  0  0  0  0  0
   60.5083   33.1325   45.5154 H   0  0  0  0  0  0  0  0  0  0  0  0
  1  2  1  0
  2  3  1  0
  3  4  1  0
  3  5  2  0
  5  6  1  0
  6  7  1  0
  7  8  2  0
  7  9  1  0
  9 10  1  0
 10 11  1  0
 11 12  2  0
 12 13  1  0
 13 14  2  0
 14 15  1  0
 15 16  2  0
 16 17  1  0
 17 18  1  0
 18 19  1  0
 19 20  1  0
 20 21  1  0
 21 22  1  0
  6 23  2  0
 23 24  1  0
 23  2  1  0
 16 11  1  0
 22 18  1  0
  1 25  1  0
  1 26  1  0
  1 27  1  0
  4 28  1  0
  5 29  1  0
 10 30  1  0
 10 31  1  0
 12 32  1  0
 13 33  1  0
 14 34  1  0
 15 35  1  0
 17 36  1  0
 17 37  1  0
 19 38  1  0
 19 39  1  0
 20 40  1  0
 20 41  1  0
 21 42  1  0
 21 43  1  0
 22 44  1  0
 22 45  1  0
M  CHG  2   9  -1  24  -1
M  END
>  <UniqueID>  (44) 
41

>  <SMILES>  (44) 
Cn1c(O)cc(C(=O)[N-]Cc2ccccc2CN2CCCC2)c1[O-]

>  <Energy>  (44) 
80.00895133935282

>  <Genealogy>  (44) 
Cn1c(O)cc(C(=O)[N-]Cc2ccccc2CN2CCCC2)c1[O-] (protonated)
Cn1c(O)cc(C(=O)[N-]Cc2ccccc2CN2CCCC2)c1[O-] (3D coordinates assigned)
Cn1c(O)cc(C(=O)[N-]Cc2ccccc2CN2CCCC2)c1[O-] (nonaromatic ring conformer: 80.00895133935282 kcal/mol)

>  <smiles>  (44) 
Cn1c(O)cc(C(=O)NCc2ccccc2CN2CCCC2)c1O

>  <score_type>  (44) 
oracle

>  <origin>  (44) 
adg

>  <m_score__min__energy>  (44) 
-13.59

>  <m_primary>  (44) 
energy

$$$$
44:0
     RDKit          3D

 53 56  0  0  0  0  0  0  0  0999 V2000
   58.5310   30.0660   49.7540 C   0  0  0  0  0  0  0  0  0  0  0  0
   59.2570   29.7010   48.5360 N   0  0  0  0  0  0  0  0  0  0  0  0
   60.7020   29.9290   48.4430 C   0  0  0  0  0  0  0  0  0  0  0  0
   58.5660   28.9300   47.5330 C   0  0  0  0  0  0  0  0  0  0  0  0
   57.8770   27.9410   47.9060 O   0  0  0  0  0  0  0  0  0  0  0  0
   58.6690   29.2480   46.0390 C   0  0  1  0  0  0  0  0  0  0  0  0
   57.3780   29.8080   45.4370 C   0  0  0  0  0  0  0  0  0  0  0  0
   56.4080   29.0250   45.2470 O   0  0  0  0  0  0  0  0  0  0  0  0
   57.1830   31.2000   45.1210 N   0  0  0  0  0  0  0  0  0  0  0  0
   57.8240   32.2420   45.5670 C   0  0  0  0  0  0  0  0  0  0  0  0
   58.1850   33.2620   44.7580 N   0  0  0  0  0  0  0  0  0  0  0  0
   58.8760   34.2320   45.4130 C   0  0  0  0  0  0  0  0  0  0  0  0
   59.0650   33.9840   46.7680 C   0  0  0  0  0  0  0  0  0  0  0  0
   59.8580   34.8300   47.7140 C   0  0  0  0  0  0  0  0  0  0  0  0
   61.2100   34.2160   47.9430 C   0  0  0  0  0  0  0  0  0  0  0  0
   61.7800   34.2130   49.2270 C   0  0  0  0  0  0  0  0  0  0  0  0
   63.0550   33.6770   49.4310 C   0  0  0  0  0  0  0  0  0  0  0  0
   63.7750   33.1510   48.3540 C   0  0  0  0  0  0  0  0  0  0  0  0
   63.2210   33.1620   47.0710 C   0  0  0  0  0  0  0  0  0  0  0  0
   61.9450   33.6960   46.8630 C   0  0  0  0  0  0  0  0  0  0  0  0
   58.3770   32.4950   47.1420 S   0  0  0  0  0  0  0  0  0  0  0  0
   59.8320   30.0230   45.6390 C   0  0  0  0  0  0  0  0  0  0  0  0
   60.3050   28.8440   44.8550 C   0  0  0  0  0  0  0  0  0  0  0  0
   61.3010   28.6070   44.1240 O   0  0  0  0  0  0  0  0  0  0  0  0
   59.1180   28.0740   45.3010 N   0  0  0  0  0  0  0  0  0  0  0  0
   58.6390   26.7390   45.0840 C   0  0  0  0  0  0  0  0  0  0  0  0
   58.9310   25.7250   46.0080 C   0  0  0  0  0  0  0  0  0  0  0  0
   58.4620   24.4240   45.8010 C   0  0  0  0  0  0  0  0  0  0  0  0
   57.6990   24.1270   44.6680 C   0  0  0  0  0  0  0  0  0  0  0  0
   57.4040   25.1310   43.7420 C   0  0  0  0  0  0  0  0  0  0  0  0
   57.8710   26.4320   43.9490 C   0  0  0  0  0  0  0  0  0  0  0  0
   59.1200   29.7699   50.6346 H   0  0  0  0  0  0  0  0  0  0  0  0
   58.3672   31.1536   49.7712 H   0  0  0  0  0  0  0  0  0  0  0  0
   57.5604   29.5487   49.7712 H   0  0  0  0  0  0  0  0  0  0  0  0
   61.1284   29.9963   49.4547 H   0  0  0  0  0  0  0  0  0  0  0  0
   61.1709   29.0937   47.9022 H   0  0  0  0  0  0  0  0  0  0  0  0
   60.8910   30.8681   47.9022 H   0  0  0  0  0  0  0  0  0  0  0  0
   57.9660   33.3030   43.7370 H   0  0  0  0  0  0  0  0  0  0  0  0
   59.2536   35.1364   44.9135 H   0  0  0  0  0  0  0  0  0  0  0  0
   59.9825   35.8358   47.2864 H   0  0  0  0  0  0  0  0  0  0  0  0
   59.3242   34.8959   48.6736 H   0  0  0  0  0  0  0  0  0  0  0  0
   61.2208   34.6342   50.0755 H   0  0  0  0  0  0  0  0  0  0  0  0
   63.4924   33.6691   50.4403 H   0  0  0  0  0  0  0  0  0  0  0  0
   64.7775   32.7285   48.5166 H   0  0  0  0  0  0  0  0  0  0  0  0
   63.7890   32.7503   46.2238 H   0  0  0  0  0  0  0  0  0  0  0  0
   61.5149   33.7092   45.8506 H   0  0  0  0  0  0  0  0  0  0  0  0
   59.5997   30.9095   45.0306 H   0  0  0  0  0  0  0  0  0  0  0  0
   60.4788   30.5046   46.3871 H   0  0  0  0  0  0  0  0  0  0  0  0
   59.5321   25.9544   46.9002 H   0  0  0  0  0  0  0  0  0  0  0  0
   58.6936   23.6337   46.5303 H   0  0  0  0  0  0  0  0  0  0  0  0
   57.3309   23.1032   44.5054 H   0  0  0  0  0  0  0  0  0  0  0  0
   56.8042   24.8974   42.8500 H   0  0  0  0  0  0  0  0  0  0  0  0
   57.6356   27.2201   43.2186 H   0  0  0  0  0  0  0  0  0  0  0  0
  1  2  1  0
  2  3  1  0
  2  4  1  0
  4  5  2  0
  6  4  1  1
  6  7  1  0
  7  8  2  0
  7  9  1  0
  9 10  2  3
 10 11  1  0
 11 12  1  0
 12 13  2  0
 13 14  1  0
 14 15  1  0
 15 16  2  0
 16 17  1  0
 17 18  2  0
 18 19  1  0
 19 20  2  0
 13 21  1  0
  6 22  1  0
 22 23  1  0
 23 24  2  0
 23 25  1  0
 25 26  1  0
 26 27  2  0
 27 28  1  0
 28 29  2  0
 29 30  1  0
 30 31  2  0
 25  6  1  0
 31 26  1  0
 21 10  1  0
 20 15  1  0
  1 32  1  0
  1 33  1  0
  1 34  1  0
  3 35  1  0
  3 36  1  0
  3 37  1  0
 11 38  1  0
 12 39  1  0
 14 40  1  0
 14 41  1  0
 16 42  1  0
 17 43  1  0
 18 44  1  0
 19 45  1  0
 20 46  1  0
 22 47  1  0
 22 48  1  0
 27 49  1  0
 28 50  1  0
 29 51  1  0
 30 52  1  0
 31 53  1  0
M  END
>  <UniqueID>  (45) 
42

>  <SMILES>  (45) 
CN(C)C(=O)[C@@]1(C(=O)N=c2[nH]cc(Cc3ccccc3)s2)CC(=O)N1c1ccccc1

>  <Energy>  (45) 
127.96503177238951

>  <Genealogy>  (45) 
CN(C)C(=O)[C@@]1(C(=O)N=c2[nH]cc(Cc3ccccc3)s2)CC(=O)N1c1ccccc1 (chirality)
CN(C)C(=O)[C@@]1(C(=O)N=c2[nH]cc(Cc3ccccc3)s2)CC(=O)N1c1ccccc1 (3D coordinates assigned)
CN(C)C(=O)[C@@]1(C(=O)N=c2[nH]cc(Cc3ccccc3)s2)CC(=O)N1c1ccccc1 (nonaromatic ring conformer: 127.96503177238951 kcal/mol)

>  <smiles>  (45) 
CN(C)C(=O)C1(C(=O)N=c2[nH]cc(Cc3ccccc3)s2)CC(=O)N1c1ccccc1

>  <score_type>  (45) 
oracle

>  <origin>  (45) 
adg

>  <m_score__min__energy>  (45) 
-9.6500000000000004

>  <m_primary>  (45) 
energy

$$$$
45:0
     RDKit          3D

 46 48  0  0  0  0  0  0  0  0999 V2000
   66.7210   31.5980   50.5370 C   0  0  0  0  0  0  0  0  0  0  0  0
   65.6240   32.9730   50.0600 S   0  0  0  0  0  0  0  0  0  0  0  0
   64.0690   32.0230   50.1850 C   0  0  0  0  0  0  0  0  0  0  0  0
   63.2780   32.1370   48.9200 C   0  0  0  0  0  0  0  0  0  0  0  0
   61.9050   32.0470   48.8050 C   0  0  0  0  0  0  0  0  0  0  0  0
   61.6820   32.1500   47.4420 C   0  0  0  0  0  0  0  0  0  0  0  0
   60.3900   32.0910   46.7380 C   0  0  0  0  0  0  0  0  0  0  0  0
   59.8890   30.9590   46.5000 O   0  0  0  0  0  0  0  0  0  0  0  0
   59.6970   33.2790   46.3110 N   0  0  0  0  0  0  0  0  0  0  0  0
   60.1660   34.6220   46.6190 C   0  0  0  0  0  0  0  0  0  0  0  0
   59.6480   35.5060   45.4950 C   0  0  0  0  0  0  0  0  0  0  0  0
   58.4730   34.7470   44.8930 C   0  0  0  0  0  0  0  0  0  0  0  0
   58.7370   33.2720   45.2120 C   0  0  2  0  0  0  0  0  0  0  0  0
   57.4560   32.5190   45.6120 C   0  0  0  0  0  0  0  0  0  0  0  0
   57.4330   31.1830   45.0160 N   0  0  0  0  0  0  0  0  0  0  0  0
   57.3410   30.0700   45.7260 N   0  0  0  0  0  0  0  0  0  0  0  0
   57.3000   29.0400   44.8590 C   0  0  0  0  0  0  0  0  0  0  0  0
   57.1320   27.6150   45.2670 C   0  0  0  0  0  0  0  0  0  0  0  0
   57.3390   29.5090   43.5590 C   0  0  0  0  0  0  0  0  0  0  0  0
   57.4240   30.8800   43.6990 C   0  0  0  0  0  0  0  0  0  0  0  0
   57.5070   31.8690   42.5780 C   0  0  0  0  0  0  0  0  0  0  0  0
   62.8400   32.2740   46.8310 O   0  0  0  0  0  0  0  0  0  0  0  0
   63.8120   32.2710   47.6930 N   0  0  0  0  0  0  0  0  0  0  0  0
   66.7724   31.5335   51.6339 H   0  0  0  0  0  0  0  0  0  0  0  0
   66.3243   30.6551   50.1325 H   0  0  0  0  0  0  0  0  0  0  0  0
   67.7284   31.7754   50.1325 H   0  0  0  0  0  0  0  0  0  0  0  0
   64.3059   30.9647   50.3689 H   0  0  0  0  0  0  0  0  0  0  0  0
   63.4714   32.4293   51.0143 H   0  0  0  0  0  0  0  0  0  0  0  0
   61.1628   31.9227   49.6073 H   0  0  0  0  0  0  0  0  0  0  0  0
   59.7636   34.9564   47.5866 H   0  0  0  0  0  0  0  0  0  0  0  0
   61.2627   34.6619   46.6947 H   0  0  0  0  0  0  0  0  0  0  0  0
   59.3167   36.4774   45.8908 H   0  0  0  0  0  0  0  0  0  0  0  0
   60.4267   35.7151   44.7468 H   0  0  0  0  0  0  0  0  0  0  0  0
   57.5276   35.0764   45.3488 H   0  0  0  0  0  0  0  0  0  0  0  0
   58.3832   34.9224   43.8108 H   0  0  0  0  0  0  0  0  0  0  0  0
   59.1192   32.7451   44.3253 H   0  0  0  0  0  0  0  0  0  0  0  0
   57.4190   32.4262   46.7075 H   0  0  0  0  0  0  0  0  0  0  0  0
   56.5856   33.0838   45.2468 H   0  0  0  0  0  0  0  0  0  0  0  0
   57.1239   27.5464   46.3648 H   0  0  0  0  0  0  0  0  0  0  0  0
   56.1821   27.2290   44.8685 H   0  0  0  0  0  0  0  0  0  0  0  0
   57.9661   27.0187   44.8685 H   0  0  0  0  0  0  0  0  0  0  0  0
   57.3092   28.9245   42.6276 H   0  0  0  0  0  0  0  0  0  0  0  0
   57.5923   32.8850   42.9909 H   0  0  0  0  0  0  0  0  0  0  0  0
   58.3899   31.6492   41.9597 H   0  0  0  0  0  0  0  0  0  0  0  0
   56.5999   31.7994   41.9597 H   0  0  0  0  0  0  0  0  0  0  0  0
   64.8250   32.3450   47.4530 H   0  0  0  0  0  0  0  0  0  0  0  0
  1  2  1  0
  2  3  1  0
  3  4  1  0
  4  5  1  0
  5  6  2  0
  6  7  1  0
  7  8  2  0
  7  9  1  0
  9 10  1  0
 10 11  1  0
 11 12  1  0
 12 13  1  0
 13 14  1  0
 14 15  1  0
 15 16  1  0
 16 17  2  0
 17 18  1  0
 17 19  1  0
 19 20  2  0
 20 21  1  0
  6 22  1  0
 22 23  1  0
 23  4  2  0
 13  9  1  0
 20 15  1  0
  1 24  1  0
  1 25  1  0
  1 26  1  0
  3 27  1  0
  3 28  1  0
  5 29  1  0
 10 30  1  0
 10 31  1  0
 11 32  1  0
 11 33  1  0
 12 34  1  0
 12 35  1  0
 13 36  1  6
 14 37  1  0
 14 38  1  0
 18 39  1  0
 18 40  1  0
 18 41  1  0
 19 42  1  0
 21 43  1  0
 21 44  1  0
 21 45  1  0
 23 46  1  0
M  CHG  1  23   1
M  END
>  <UniqueID>  (46) 
43

>  <SMILES>  (46) 
CSCc1cc(C(=O)N2CCC[C@@H]2Cn2nc(C)cc2C)o[nH+]1

>  <Energy>  (46) 
99.61814694455141

>  <Genealogy>  (46) 
CSCc1cc(C(=O)N2CCCC2Cn2nc(C)cc2C)o[nH+]1 (protonated)
CSCc1cc(C(=O)N2CCC[C@@H]2Cn2nc(C)cc2C)o[nH+]1 (chirality)
CSCc1cc(C(=O)N2CCC[C@@H]2Cn2nc(C)cc2C)o[nH+]1 (3D coordinates assigned)
CSCc1cc(C(=O)N2CCC[C@@H]2Cn2nc(C)cc2C)o[nH+]1 (nonaromatic ring conformer: 99.61814694455141 kcal/mol)

>  <smiles>  (46) 
CSCc1cc(C(=O)N2CCCC2Cn2nc(C)cc2C)on1

>  <score_type>  (46) 
oracle

>  <origin>  (46) 
adg

>  <m_score__min__energy>  (46) 
-6.9100000000000001

>  <m_primary>  (46) 
energy

$$$$
46:0
     RDKit          3D

 41 43  0  0  0  0  0  0  0  0999 V2000
   61.9176   29.6172   45.1611 H   0  0  0  0  0  0  0  0  0  0  0  0
   60.9490   29.3470   45.6070 C   0  0  0  0  0  0  0  0  0  0  0  0
   60.4000   30.2720   46.6260 C   0  0  0  0  0  0  0  0  0  0  0  0
   59.4990   31.0760   46.2650 O   0  0  0  0  0  0  0  0  0  0  0  0
   60.8900   30.3320   48.0290 C   0  0  0  0  0  0  0  0  0  0  0  0
   60.3880   29.4470   48.9920 C   0  0  0  0  0  0  0  0  0  0  0  0
   59.3940   28.5290   48.6690 O   0  0  0  0  0  0  0  0  0  0  0  0
   60.8850   29.4620   50.2520 N   0  0  0  0  0  0  0  0  0  0  0  0
   61.8650   30.3260   50.6180 C   0  0  0  0  0  0  0  0  0  0  0  0
   62.2940   30.2940   51.8040 O   0  0  0  0  0  0  0  0  0  0  0  0
   62.3650   31.2260   49.7150 N   0  0  0  0  0  0  0  0  0  0  0  0
   63.4230   32.1250   50.1040 C   0  0  0  0  0  0  0  0  0  0  0  0
   63.1340   33.2690   50.8660 C   0  0  0  0  0  0  0  0  0  0  0  0
   62.0957   33.4858   51.1576 H   0  0  0  0  0  0  0  0  0  0  0  0
   64.1620   34.1330   51.2550 C   0  0  0  0  0  0  0  0  0  0  0  0
   63.9311   35.0268   51.8532 H   0  0  0  0  0  0  0  0  0  0  0  0
   65.4830   33.8630   50.8850 C   0  0  0  0  0  0  0  0  0  0  0  0
   66.2905   34.5440   51.1917 H   0  0  0  0  0  0  0  0  0  0  0  0
   65.7770   32.7270   50.1250 C   0  0  0  0  0  0  0  0  0  0  0  0
   66.8163   32.5151   49.8335 H   0  0  0  0  0  0  0  0  0  0  0  0
   64.7520   31.8600   49.7350 C   0  0  0  0  0  0  0  0  0  0  0  0
   64.9872   30.9672   49.1371 H   0  0  0  0  0  0  0  0  0  0  0  0
   61.8730   31.2570   48.4350 C   0  0  0  0  0  0  0  0  0  0  0  0
   62.3050   32.1130   47.6120 O   0  0  0  0  0  0  0  0  0  0  0  0
   60.3780   28.2100   45.1750 C   0  0  0  0  0  0  0  0  0  0  0  0
   61.0172   27.4982   44.6321 H   0  0  0  0  0  0  0  0  0  0  0  0
   58.9610   27.8380   45.3700 C   0  0  0  0  0  0  0  0  0  0  0  0
   58.6550   26.5800   45.9040 C   0  0  0  0  0  0  0  0  0  0  0  0
   59.4649   25.8797   46.1564 H   0  0  0  0  0  0  0  0  0  0  0  0
   57.3250   26.2120   46.1170 C   0  0  0  0  0  0  0  0  0  0  0  0
   57.0911   25.2314   46.5571 H   0  0  0  0  0  0  0  0  0  0  0  0
   56.2910   27.0850   45.7730 C   0  0  0  0  0  0  0  0  0  0  0  0
   54.9710   26.7080   45.9990 O   0  0  0  0  0  0  0  0  0  0  0  0
   56.5760   28.3310   45.1990 C   0  0  0  0  0  0  0  0  0  0  0  0
   55.5050   29.1680   44.8500 O   0  0  0  0  0  0  0  0  0  0  0  0
   55.5310   30.1080   43.7790 C   0  0  0  0  0  0  0  0  0  0  0  0
   55.5592   31.1289   44.1877 H   0  0  0  0  0  0  0  0  0  0  0  0
   56.4247   29.9355   43.1613 H   0  0  0  0  0  0  0  0  0  0  0  0
   54.6291   29.9851   43.1613 H   0  0  0  0  0  0  0  0  0  0  0  0
   57.9200   28.7010   44.9890 C   0  0  0  0  0  0  0  0  0  0  0  0
   58.1547   29.6701   44.5246 H   0  0  0  0  0  0  0  0  0  0  0  0
  1  2  1  0
  2  3  1  0
  3  4  2  0
  3  5  1  0
  5  6  2  0
  6  7  1  0
  6  8  1  0
  8  9  1  0
  9 10  2  0
  9 11  1  0
 11 12  1  0
 12 13  2  0
 13 14  1  0
 13 15  1  0
 15 16  1  0
 15 17  2  0
 17 18  1  0
 17 19  1  0
 19 20  1  0
 19 21  2  0
 21 22  1  0
 11 23  1  0
 23 24  2  0
  2 25  2  0
 25 26  1  0
 25 27  1  0
 27 28  2  0
 28 29  1  0
 28 30  1  0
 30 31  1  0
 30 32  2  0
 32 33  1  0
 32 34  1  0
 34 35  1  0
 35 36  1  0
 36 37  1  0
 36 38  1  0
 36 39  1  0
 34 40  2  0
 40 41  1  0
 23  5  1  0
 40 27  1  0
 21 12  1  0
M  CHG  3   7  -1   8  -1  33  -1
M  END
>  <UniqueID>  (47) 
44

>  <SMILES>  (47) 
COc1cc(/C=C\C(=O)c2c([O-])[n-]c(=O)n(-c3ccccc3)c2=O)ccc1[O-]

>  <Energy>  (47) 
65.36913918745827

>  <Genealogy>  (47) 
COc1cc(C=CC(=O)c2c([O-])[n-]c(=O)n(-c3ccccc3)c2=O)ccc1[O-] (protonated)
COc1cc(/C=C\C(=O)c2c([O-])[n-]c(=O)n(-c3ccccc3)c2=O)ccc1[O-] (cis-trans isomerization)
COc1cc(/C=C\C(=O)c2c([O-])[n-]c(=O)n(-c3ccccc3)c2=O)ccc1[O-] (3D coordinates assigned)
COc1cc(/C=C\C(=O)c2c([O-])[n-]c(=O)n(-c3ccccc3)c2=O)ccc1[O-] (optimized conformer: 65.36913918745827 kcal/mol)

>  <smiles>  (47) 
COc1cc(C=CC(=O)c2c(O)[nH]c(=O)n(-c3ccccc3)c2=O)ccc1O

>  <score_type>  (47) 
oracle

>  <origin>  (47) 
adg

>  <m_score__min__energy>  (47) 
-14.42

>  <m_primary>  (47) 
energy

$$$$
47:0
     RDKit          3D

 28 29  0  0  1  0  0  0  0  0999 V2000
   58.8460   34.0690   44.4810 C   0  0  0  0  0  0  0  0  0  0  0  0
   58.2720   32.9470   44.9130 C   0  0  0  0  0  0  0  0  0  0  0  0
   57.7700   31.9960   44.0480 C   0  0  0  0  0  0  0  0  0  0  0  0
   57.2790   30.9970   44.8510 C   0  0  0  0  0  0  0  0  0  0  0  0
   56.6280   29.7380   44.4690 C   0  0  0  0  0  0  0  0  0  0  0  0
   55.4590   29.4400   44.7720 O   0  0  0  0  0  0  0  0  0  0  0  0
   57.4750   28.8520   43.6880 N   0  0  0  0  0  0  0  0  0  0  0  0
   58.6290   28.4910   44.1570 C   0  0  0  0  0  0  0  0  0  0  0  0
   58.9060   28.0940   45.5290 C   0  0  0  0  0  0  0  0  0  0  0  0
   57.9760   27.0260   46.0350 C   0  0  0  0  0  0  0  0  0  0  0  0
   58.2340   26.1090   46.9790 N   0  0  0  0  0  0  0  0  0  0  0  0
   57.1190   25.3710   47.0880 C   0  0  0  0  0  0  0  0  0  0  0  0
   56.1500   25.8270   46.2060 C   0  0  0  0  0  0  0  0  0  0  0  0
   56.7230   26.8770   45.5510 N   0  0  0  0  0  0  0  0  0  0  0  0
   57.4850   31.3530   46.0920 O   0  0  0  0  0  0  0  0  0  0  0  0
   58.0740   32.5060   46.1780 C   0  0  0  0  0  0  0  0  0  0  0  0
   58.4380   33.1730   47.2770 C   0  0  0  0  0  0  0  0  0  0  0  0
   59.2337   34.8020   45.2038 H   0  0  0  0  0  0  0  0  0  0  0  0
   58.9323   34.2623   43.4016 H   0  0  0  0  0  0  0  0  0  0  0  0
   57.7645   32.0312   42.9486 H   0  0  0  0  0  0  0  0  0  0  0  0
   59.4749   28.4844   43.4538 H   0  0  0  0  0  0  0  0  0  0  0  0
   59.9369   27.7139   45.5818 H   0  0  0  0  0  0  0  0  0  0  0  0
   58.7605   28.9816   46.1623 H   0  0  0  0  0  0  0  0  0  0  0  0
   56.9912   24.5245   47.7787 H   0  0  0  0  0  0  0  0  0  0  0  0
   55.1352   25.4267   46.0650 H   0  0  0  0  0  0  0  0  0  0  0  0
   56.2670   27.4330   44.8310 H   0  0  0  0  0  0  0  0  0  0  0  0
   58.9339   34.1508   47.1880 H   0  0  0  0  0  0  0  0  0  0  0  0
   58.2418   32.7443   48.2708 H   0  0  0  0  0  0  0  0  0  0  0  0
  1  2  2  0
  2  3  1  0
  3  4  2  0
  4  5  1  0
  5  6  2  0
  5  7  1  0
  7  8  2  0
  8  9  1  0
  9 10  1  0
 10 11  2  0
 11 12  1  0
 12 13  2  0
 13 14  1  0
  4 15  1  0
 15 16  1  0
 16 17  2  0
 16  2  1  0
 14 10  1  0
  1 18  1  0
  1 19  1  0
  3 20  1  0
  8 21  1  0
  9 22  1  0
  9 23  1  0
 12 24  1  0
 13 25  1  0
 14 26  1  0
 17 27  1  0
 17 28  1  0
M  END
>  <smiles>  (48) 
C=c1cc(C(=O)N=CCc2ncc[nH]2)oc1=C

>  <score_type>  (48) 
oracle

>  <origin>  (48) 
adg

>  <m_score__min__energy>  (48) 
-5.7800000000000002

>  <m_primary>  (48) 
energy

$$$$
48:0
     RDKit          3D

 51 54  0  0  0  0  0  0  0  0999 V2000
   58.5550   30.4060   47.4100 C   0  0  0  0  0  0  0  0  0  0  0  0
   59.2630   29.4160   47.9650 C   0  0  0  0  0  0  0  0  0  0  0  0
   59.2330   28.0580   47.5920 C   0  0  0  0  0  0  0  0  0  0  0  0
   58.6770   27.4370   46.5310 C   0  0  0  0  0  0  0  0  0  0  0  0
   57.3940   26.7190   46.5310 C   0  0  0  0  0  0  0  0  0  0  0  0
   57.2360   25.4780   47.0080 N   0  0  0  0  0  0  0  0  0  0  0  0
   55.9550   25.1730   46.6970 C   0  0  0  0  0  0  0  0  0  0  0  0
   55.4140   24.0790   47.0110 O   0  0  0  0  0  0  0  0  0  0  0  0
   55.2940   26.1310   46.0290 N   0  0  0  0  0  0  0  0  0  0  0  0
   56.2210   27.1010   45.9190 C   0  0  0  0  0  0  0  0  0  0  0  0
   55.9910   28.2900   45.2450 O   0  0  0  0  0  0  0  0  0  0  0  0
   59.9840   27.3890   48.5350 C   0  0  0  0  0  0  0  0  0  0  0  0
   60.4830   28.3420   49.4100 C   0  0  0  0  0  0  0  0  0  0  0  0
   61.4590   28.0390   50.5080 C   0  0  0  0  0  0  0  0  0  0  0  0
   60.0600   29.5800   49.0640 N   0  0  0  0  0  0  0  0  0  0  0  0
   60.4670   30.8310   49.7320 C   0  0  0  0  0  0  0  0  0  0  0  0
   61.3900   31.6300   48.8440 C   0  0  0  0  0  0  0  0  0  0  0  0
   62.7860   31.4960   48.9620 C   0  0  0  0  0  0  0  0  0  0  0  0
   63.6370   32.2630   48.1630 C   0  0  0  0  0  0  0  0  0  0  0  0
   63.1100   33.1600   47.2300 C   0  0  0  0  0  0  0  0  0  0  0  0
   61.7130   33.2820   47.0770 C   0  0  0  0  0  0  0  0  0  0  0  0
   61.1200   34.1120   46.0670 N   0  0  0  0  0  0  0  0  0  0  0  0
   59.4770   34.6710   46.0270 S   0  0  0  0  0  0  0  0  0  0  0  0
   59.2370   35.3680   44.7120 O   0  0  0  0  0  0  0  0  0  0  0  0
   59.2020   35.6480   47.1390 O   0  0  0  0  0  0  0  0  0  0  0  0
   58.3890   33.2640   46.1520 C   0  0  0  0  0  0  0  0  0  0  0  0
   57.4910   33.1870   44.9080 C   0  0  0  0  0  0  0  0  0  0  0  0
   57.0800   31.7870   44.4780 C   0  0  0  0  0  0  0  0  0  0  0  0
   58.1270   32.5460   43.6790 C   0  0  0  0  0  0  0  0  0  0  0  0
   60.8610   32.5110   47.8850 C   0  0  0  0  0  0  0  0  0  0  0  0
   58.6598   31.4346   47.7855 H   0  0  0  0  0  0  0  0  0  0  0  0
   57.8680   30.1915   46.5781 H   0  0  0  0  0  0  0  0  0  0  0  0
   59.2327   27.4709   45.5823 H   0  0  0  0  0  0  0  0  0  0  0  0
   56.1870   28.3850   44.2560 H   0  0  0  0  0  0  0  0  0  0  0  0
   60.1551   26.3035   48.5840 H   0  0  0  0  0  0  0  0  0  0  0  0
   60.9726   28.1900   51.4830 H   0  0  0  0  0  0  0  0  0  0  0  0
   61.7938   26.9946   50.4231 H   0  0  0  0  0  0  0  0  0  0  0  0
   62.3264   28.7102   50.4231 H   0  0  0  0  0  0  0  0  0  0  0  0
   59.5716   31.4298   49.9551 H   0  0  0  0  0  0  0  0  0  0  0  0
   60.9979   30.5804   50.6622 H   0  0  0  0  0  0  0  0  0  0  0  0
   63.2086   30.7843   49.6865 H   0  0  0  0  0  0  0  0  0  0  0  0
   64.7271   32.1605   48.2687 H   0  0  0  0  0  0  0  0  0  0  0  0
   63.7855   33.7718   46.6140 H   0  0  0  0  0  0  0  0  0  0  0  0
   58.9884   32.3447   46.2269 H   0  0  0  0  0  0  0  0  0  0  0  0
   57.7595   33.3707   47.0477 H   0  0  0  0  0  0  0  0  0  0  0  0
   56.9580   34.1275   45.1112 H   0  0  0  0  0  0  0  0  0  0  0  0
   57.3749   30.9174   45.0837 H   0  0  0  0  0  0  0  0  0  0  0  0
   56.1247   31.2972   44.2384 H   0  0  0  0  0  0  0  0  0  0  0  0
   59.1792   32.2264   43.7075 H   0  0  0  0  0  0  0  0  0  0  0  0
   58.2431   32.8333   42.6236 H   0  0  0  0  0  0  0  0  0  0  0  0
   59.7708   32.5974   47.7662 H   0  0  0  0  0  0  0  0  0  0  0  0
  1  2  2  0
  2  3  1  0
  3  4  2  3
  4  5  1  0
  5  6  1  0
  6  7  1  0
  7  8  2  0
  7  9  1  0
  9 10  1  0
 10 11  1  0
  3 12  1  0
 12 13  2  0
 13 14  1  0
 13 15  1  0
 15 16  1  0
 16 17  1  0
 17 18  2  0
 18 19  1  0
 19 20  2  0
 20 21  1  0
 21 22  1  0
 22 23  1  0
 23 24  2  0
 23 25  2  0
 23 26  1  0
 26 27  1  0
 27 28  1  0
 28 29  1  0
 21 30  2  0
 15  2  1  0
 30 17  1  0
 10  5  2  0
 29 27  1  0
  1 31  1  0
  1 32  1  0
  4 33  1  0
 11 34  1  0
 12 35  1  0
 14 36  1  0
 14 37  1  0
 14 38  1  0
 16 39  1  0
 16 40  1  0
 18 41  1  0
 19 42  1  0
 20 43  1  0
 26 44  1  0
 26 45  1  0
 27 46  1  0
 28 47  1  0
 28 48  1  0
 29 49  1  0
 29 50  1  0
 30 51  1  0
M  CHG  3   6  -1   9  -1  22  -1
M  END
>  <UniqueID>  (49) 
45

>  <SMILES>  (49) 
C=c1c(=Cc2[n-]c(=O)[n-]c2O)cc(C)n1Cc1cccc([N-]S(=O)(=O)CC2CC2)c1

>  <Energy>  (49) 
386.0770933426878

>  <Genealogy>  (49) 
C=c1c(=Cc2[n-]c(=O)[n-]c2O)cc(C)n1Cc1cccc([N-]S(=O)(=O)CC2CC2)c1 (protonated)
C=c1c(=Cc2[n-]c(=O)[n-]c2O)cc(C)n1Cc1cccc([N-]S(=O)(=O)CC2CC2)c1 (3D coordinates assigned)
C=c1c(=Cc2[n-]c(=O)[n-]c2O)cc(C)n1Cc1cccc([N-]S(=O)(=O)CC2CC2)c1 (nonaromatic ring conformer: 386.0770933426878 kcal/mol)

>  <smiles>  (49) 
C=c1c(=Cc2[nH]c(=O)[nH]c2O)cc(C)n1Cc1cccc(NS(=O)(=O)CC2CC2)c1

>  <score_type>  (49) 
oracle

>  <origin>  (49) 
adg

>  <m_score__min__energy>  (49) 
-14.390000000000001

>  <m_primary>  (49) 
energy

$$$$
49:0
     RDKit          3D

 61 63  0  0  0  0  0  0  0  0999 V2000
   56.8000   30.3670   43.8320 C   0  0  0  0  0  0  0  0  0  0  0  0
   56.9510   30.2070   45.2400 O   0  0  0  0  0  0  0  0  0  0  0  0
   58.1240   29.7570   45.8690 C   0  0  0  0  0  0  0  0  0  0  0  0
   59.2520   30.5850   46.0310 C   0  0  0  0  0  0  0  0  0  0  0  0
   60.3930   30.1080   46.6990 C   0  0  0  0  0  0  0  0  0  0  0  0
   61.5830   31.0040   46.9170 C   0  0  0  0  0  0  0  0  0  0  0  0
   61.4320   31.8310   48.1740 C   0  0  0  0  0  0  0  0  0  0  0  0
   60.8510   31.3230   49.1740 O   0  0  0  0  0  0  0  0  0  0  0  0
   61.8840   33.2020   48.2330 N   0  0  0  0  0  0  0  0  0  0  0  0
   63.1290   33.6100   47.5720 C   0  0  0  0  0  0  0  0  0  0  0  0
   61.0870   34.2100   48.9550 C   0  0  0  0  0  0  0  0  0  0  0  0
   59.5880   33.8840   48.9000 C   0  0  0  0  0  0  0  0  0  0  0  0
   59.0440   34.0220   47.5020 C   0  0  0  0  0  0  0  0  0  0  0  0
   59.7550   34.7550   46.5380 C   0  0  0  0  0  0  0  0  0  0  0  0
   59.2710   34.8480   45.2280 C   0  0  0  0  0  0  0  0  0  0  0  0
   58.0820   34.2070   44.8730 C   0  0  0  0  0  0  0  0  0  0  0  0
   57.3740   33.4680   45.8260 C   0  0  0  0  0  0  0  0  0  0  0  0
   57.8560   33.3710   47.1360 C   0  0  0  0  0  0  0  0  0  0  0  0
   60.3960   28.8040   47.2110 C   0  0  0  0  0  0  0  0  0  0  0  0
   59.2830   27.9780   47.0480 C   0  0  0  0  0  0  0  0  0  0  0  0
   59.3190   26.7110   47.5300 F   0  0  0  0  0  0  0  0  0  0  0  0
   58.1460   28.4520   46.3800 C   0  0  0  0  0  0  0  0  0  0  0  0
   57.0250   27.6360   46.2060 O   0  0  0  0  0  0  0  0  0  0  0  0
   57.0410   26.4560   45.4060 C   0  0  0  0  0  0  0  0  0  0  0  0
   55.9450   25.5440   45.8730 C   0  0  0  0  0  0  0  0  0  0  0  0
   54.7720   26.0010   45.9720 O   0  0  0  0  0  0  0  0  0  0  0  0
   56.2220   24.1940   46.2890 N   0  0  0  0  0  0  0  0  0  0  0  0
   55.4370   23.6260   47.3980 C   0  0  0  0  0  0  0  0  0  0  0  0
   56.0790   22.3610   48.0210 C   0  0  0  0  0  0  0  0  0  0  0  0
   57.3650   22.0630   47.5110 O   0  0  0  0  0  0  0  0  0  0  0  0
   57.2870   21.9810   46.1080 C   0  0  0  0  0  0  0  0  0  0  0  0
   57.2010   23.3910   45.5430 C   0  0  0  0  0  0  0  0  0  0  0  0
   56.0579   31.1534   43.6298 H   0  0  0  0  0  0  0  0  0  0  0  0
   57.7660   30.6520   43.3897 H   0  0  0  0  0  0  0  0  0  0  0  0
   56.4596   29.4191   43.3897 H   0  0  0  0  0  0  0  0  0  0  0  0
   59.2399   31.6103   45.6326 H   0  0  0  0  0  0  0  0  0  0  0  0
   62.4867   30.3829   47.0043 H   0  0  0  0  0  0  0  0  0  0  0  0
   61.6599   31.6897   46.0603 H   0  0  0  0  0  0  0  0  0  0  0  0
   63.8840   33.8574   48.3328 H   0  0  0  0  0  0  0  0  0  0  0  0
   63.4978   32.7857   46.9439 H   0  0  0  0  0  0  0  0  0  0  0  0
   62.9384   34.4927   46.9439 H   0  0  0  0  0  0  0  0  0  0  0  0
   61.4094   34.2350   50.0064 H   0  0  0  0  0  0  0  0  0  0  0  0
   61.2466   35.1864   48.4742 H   0  0  0  0  0  0  0  0  0  0  0  0
   59.4342   32.8502   49.2430 H   0  0  0  0  0  0  0  0  0  0  0  0
   59.0561   34.5951   49.5491 H   0  0  0  0  0  0  0  0  0  0  0  0
   60.6943   35.2571   46.8130 H   0  0  0  0  0  0  0  0  0  0  0  0
   59.8281   35.4270   44.4767 H   0  0  0  0  0  0  0  0  0  0  0  0
   57.7023   34.2835   43.8434 H   0  0  0  0  0  0  0  0  0  0  0  0
   56.4379   32.9628   45.5457 H   0  0  0  0  0  0  0  0  0  0  0  0
   57.3016   32.7823   47.8817 H   0  0  0  0  0  0  0  0  0  0  0  0
   61.2814   28.4287   47.7450 H   0  0  0  0  0  0  0  0  0  0  0  0
   56.8774   26.7216   44.3512 H   0  0  0  0  0  0  0  0  0  0  0  0
   58.0141   25.9519   45.5006 H   0  0  0  0  0  0  0  0  0  0  0  0
   55.3390   24.3901   48.1832 H   0  0  0  0  0  0  0  0  0  0  0  0
   54.4621   23.3263   46.9859 H   0  0  0  0  0  0  0  0  0  0  0  0
   56.1635   22.5140   49.1070 H   0  0  0  0  0  0  0  0  0  0  0  0
   55.4281   21.5121   47.7648 H   0  0  0  0  0  0  0  0  0  0  0  0
   58.1836   21.4787   45.7158 H   0  0  0  0  0  0  0  0  0  0  0  0
   56.3979   21.4038   45.8143 H   0  0  0  0  0  0  0  0  0  0  0  0
   58.1891   23.8691   45.6149 H   0  0  0  0  0  0  0  0  0  0  0  0
   56.8800   23.3307   44.4926 H   0  0  0  0  0  0  0  0  0  0  0  0
  1  2  1  0
  2  3  1  0
  3  4  2  0
  4  5  1  0
  5  6  1  0
  6  7  1  0
  7  8  2  0
  7  9  1  0
  9 10  1  0
  9 11  1  0
 11 12  1  0
 12 13  1  0
 13 14  2  0
 14 15  1  0
 15 16  2  0
 16 17  1  0
 17 18  2  0
  5 19  2  0
 19 20  1  0
 20 21  1  0
 20 22  2  0
 22 23  1  0
 23 24  1  0
 24 25  1  0
 25 26  2  0
 25 27  1  0
 27 28  1  0
 28 29  1  0
 29 30  1  0
 30 31  1  0
 31 32  1  0
 22  3  1  0
 32 27  1  0
 18 13  1  0
  1 33  1  0
  1 34  1  0
  1 35  1  0
  4 36  1  0
  6 37  1  0
  6 38  1  0
 10 39  1  0
 10 40  1  0
 10 41  1  0
 11 42  1  0
 11 43  1  0
 12 44  1  0
 12 45  1  0
 14 46  1  0
 15 47  1  0
 16 48  1  0
 17 49  1  0
 18 50  1  0
 19 51  1  0
 24 52  1  0
 24 53  1  0
 28 54  1  0
 28 55  1  0
 29 56  1  0
 29 57  1  0
 31 58  1  0
 31 59  1  0
 32 60  1  0
 32 61  1  0
M  END
>  <UniqueID>  (50) 
46

>  <SMILES>  (50) 
COc1cc(CC(=O)N(C)CCc2ccccc2)cc(F)c1OCC(=O)N1CCOCC1

>  <Energy>  (50) 
65.69958667443552

>  <Genealogy>  (50) 
COc1cc(CC(=O)N(C)CCc2ccccc2)cc(F)c1OCC(=O)N1CCOCC1 (3D coordinates assigned)
COc1cc(CC(=O)N(C)CCc2ccccc2)cc(F)c1OCC(=O)N1CCOCC1 (nonaromatic ring conformer: 65.69958667443552 kcal/mol)

>  <smiles>  (50) 
COc1cc(CC(=O)N(C)CCc2ccccc2)cc(F)c1OCC(=O)N1CCOCC1

>  <score_type>  (50) 
oracle

>  <origin>  (50) 
adg

>  <m_score__min__energy>  (50) 
-9.1099999999999994

>  <m_primary>  (50) 
energy

$$$$
50:0
     RDKit          3D

 64 68  0  0  0  0  0  0  0  0999 V2000
   63.4220   35.2080   51.2420 O   0  0  0  0  0  0  0  0  0  0  0  0
   63.3730   33.9870   51.5520 C   0  0  0  0  0  0  0  0  0  0  0  0
   64.0640   33.0590   50.7820 O   0  0  0  0  0  0  0  0  0  0  0  0
   62.5340   33.5100   52.7040 C   0  0  0  0  0  0  0  0  0  0  0  0
   61.0590   33.3960   52.3600 C   0  0  0  0  0  0  0  0  0  0  0  0
   60.1610   33.7600   53.3850 C   0  0  0  0  0  0  0  0  0  0  0  0
   58.7850   33.6580   53.2120 C   0  0  0  0  0  0  0  0  0  0  0  0
   58.2700   33.1710   52.0190 C   0  0  0  0  0  0  0  0  0  0  0  0
   59.1290   32.7860   50.9930 C   0  0  0  0  0  0  0  0  0  0  0  0
   60.5320   32.8930   51.1180 C   0  0  0  0  0  0  0  0  0  0  0  0
   61.3430   32.3800   49.9020 C   0  0  1  0  0  0  0  0  0  0  0  0
   60.7860   31.2130   49.1110 C   0  0  0  0  0  0  0  0  0  0  0  0
   60.0330   30.2120   49.7480 C   0  0  0  0  0  0  0  0  0  0  0  0
   59.5230   29.1350   49.0220 C   0  0  0  0  0  0  0  0  0  0  0  0
   59.8170   28.9940   47.6590 C   0  0  0  0  0  0  0  0  0  0  0  0
   59.2500   27.8640   46.8790 C   0  0  0  0  0  0  0  0  0  0  0  0
   58.9520   26.6430   47.5120 C   0  0  0  0  0  0  0  0  0  0  0  0
   58.4100   25.5810   46.7830 C   0  0  0  0  0  0  0  0  0  0  0  0
   58.1620   25.7240   45.4150 C   0  0  0  0  0  0  0  0  0  0  0  0
   58.4570   26.9300   44.7730 C   0  0  0  0  0  0  0  0  0  0  0  0
   58.1510   27.1070   43.0550 Cl  0  0  0  0  0  0  0  0  0  0  0  0
   58.9980   27.9970   45.5000 C   0  0  0  0  0  0  0  0  0  0  0  0
   60.6780   29.9230   47.0510 C   0  0  0  0  0  0  0  0  0  0  0  0
   61.1980   31.0050   47.7790 C   0  0  0  0  0  0  0  0  0  0  0  0
   62.2400   31.8740   47.1210 C   0  0  0  0  0  0  0  0  0  0  0  0
   62.8250   32.9630   48.0400 C   0  0  0  0  0  0  0  0  0  0  0  0
   61.8620   33.4870   49.0400 N   0  0  1  0  0  0  0  0  0  0  0  0
   60.8460   34.4690   48.5310 C   0  0  0  0  0  0  0  0  0  0  0  0
   59.8540   33.9580   47.5040 C   0  0  0  0  0  0  0  0  0  0  0  0
   58.7290   33.2220   47.9140 C   0  0  0  0  0  0  0  0  0  0  0  0
   57.8120   32.7470   46.9730 C   0  0  0  0  0  0  0  0  0  0  0  0
   58.0040   32.9850   45.6070 C   0  0  0  0  0  0  0  0  0  0  0  0
   57.0450   32.4920   44.7070 O   0  0  0  0  0  0  0  0  0  0  0  0
   57.1160   31.2370   44.0340 C   0  0  0  0  0  0  0  0  0  0  0  0
   58.2890   30.6020   44.3920 F   0  0  0  0  0  0  0  0  0  0  0  0
   56.0470   30.4390   44.4030 F   0  0  0  0  0  0  0  0  0  0  0  0
   57.1130   31.4280   42.6640 F   0  0  0  0  0  0  0  0  0  0  0  0
   59.1410   33.7010   45.1910 C   0  0  0  0  0  0  0  0  0  0  0  0
   60.0600   34.1740   46.1320 C   0  0  0  0  0  0  0  0  0  0  0  0
   62.8982   32.5201   53.0160 H   0  0  0  0  0  0  0  0  0  0  0  0
   62.6266   34.2552   53.5078 H   0  0  0  0  0  0  0  0  0  0  0  0
   60.5574   34.1323   54.3412 H   0  0  0  0  0  0  0  0  0  0  0  0
   58.1048   33.9633   54.0208 H   0  0  0  0  0  0  0  0  0  0  0  0
   57.1814   33.0890   51.8836 H   0  0  0  0  0  0  0  0  0  0  0  0
   58.7036   32.3878   50.0600 H   0  0  0  0  0  0  0  0  0  0  0  0
   62.2025   31.9040   50.3966 H   0  0  0  0  0  0  0  0  0  0  0  0
   59.8438   30.2781   50.8296 H   0  0  0  0  0  0  0  0  0  0  0  0
   58.8857   28.3914   49.5230 H   0  0  0  0  0  0  0  0  0  0  0  0
   59.1470   26.5237   48.5880 H   0  0  0  0  0  0  0  0  0  0  0  0
   58.1782   24.6310   47.2867 H   0  0  0  0  0  0  0  0  0  0  0  0
   57.7345   24.8871   44.8433 H   0  0  0  0  0  0  0  0  0  0  0  0
   59.2276   28.9448   44.9911 H   0  0  0  0  0  0  0  0  0  0  0  0
   60.9480   29.8011   45.9916 H   0  0  0  0  0  0  0  0  0  0  0  0
   63.0641   31.2286   46.7828 H   0  0  0  0  0  0  0  0  0  0  0  0
   61.7394   32.3953   46.2917 H   0  0  0  0  0  0  0  0  0  0  0  0
   63.6851   32.5372   48.5775 H   0  0  0  0  0  0  0  0  0  0  0  0
   63.1065   33.8081   47.3945 H   0  0  0  0  0  0  0  0  0  0  0  0
   62.4650   34.0510   49.6870 H   0  0  0  0  0  0  0  0  0  0  0  0
   60.2717   34.8319   49.3962 H   0  0  0  0  0  0  0  0  0  0  0  0
   61.4295   35.2407   48.0076 H   0  0  0  0  0  0  0  0  0  0  0  0
   58.5694   33.0185   48.9832 H   0  0  0  0  0  0  0  0  0  0  0  0
   56.9308   32.1806   47.3087 H   0  0  0  0  0  0  0  0  0  0  0  0
   59.3077   33.8896   44.1202 H   0  0  0  0  0  0  0  0  0  0  0  0
   60.9530   34.7206   45.7945 H   0  0  0  0  0  0  0  0  0  0  0  0
  1  2  2  0
  2  3  1  0
  2  4  1  0
  4  5  1  0
  5  6  2  0
  6  7  1  0
  7  8  2  0
  8  9  1  0
  9 10  2  0
 10 11  1  0
 11 12  1  0
 12 13  2  0
 13 14  1  0
 14 15  2  0
 15 16  1  0
 16 17  2  0
 17 18  1  0
 18 19  2  0
 19 20  1  0
 20 21  1  0
 20 22  2  0
 15 23  1  0
 23 24  2  0
 24 25  1  0
 25 26  1  0
 26 27  1  0
 27 28  1  0
 28 29  1  0
 29 30  2  0
 30 31  1  0
 31 32  2  0
 32 33  1  0
 33 34  1  0
 34 35  1  0
 34 36  1  0
 34 37  1  0
 32 38  1  0
 38 39  2  0
 10  5  1  0
 27 11  1  0
 39 29  1  0
 24 12  1  0
 22 16  1  0
  4 40  1  0
  4 41  1  0
  6 42  1  0
  7 43  1  0
  8 44  1  0
  9 45  1  0
 11 46  1  1
 13 47  1  0
 14 48  1  0
 17 49  1  0
 18 50  1  0
 19 51  1  0
 22 52  1  0
 23 53  1  0
 25 54  1  0
 25 55  1  0
 26 56  1  0
 26 57  1  0
 27 58  1  1
 28 59  1  0
 28 60  1  0
 30 61  1  0
 31 62  1  0
 38 63  1  0
 39 64  1  0
M  CHG  2   3  -1  27   1
M  END
>  <UniqueID>  (51) 
47

>  <SMILES>  (51) 
O=C([O-])Cc1ccccc1[C@H]1c2ccc(-c3cccc(Cl)c3)cc2CC[N@H+]1Cc1ccc(OC(F)(F)F)cc1

>  <Energy>  (51) 
109.66987275596658

>  <Genealogy>  (51) 
O=C([O-])Cc1ccccc1C1c2ccc(-c3cccc(Cl)c3)cc2CC[NH+]1Cc1ccc(OC(F)(F)F)cc1 (protonated)
O=C([O-])Cc1ccccc1[C@H]1c2ccc(-c3cccc(Cl)c3)cc2CC[N@H+]1Cc1ccc(OC(F)(F)F)cc1 (chirality)
O=C([O-])Cc1ccccc1[C@H]1c2ccc(-c3cccc(Cl)c3)cc2CC[N@H+]1Cc1ccc(OC(F)(F)F)cc1 (3D coordinates assigned)
O=C([O-])Cc1ccccc1[C@H]1c2ccc(-c3cccc(Cl)c3)cc2CC[N@H+]1Cc1ccc(OC(F)(F)F)cc1 (nonaromatic ring conformer: 109.66987275596658 kcal/mol)

>  <smiles>  (51) 
O=C(O)Cc1ccccc1C1c2ccc(-c3cccc(Cl)c3)cc2CCN1Cc1ccc(OC(F)(F)F)cc1

>  <score_type>  (51) 
oracle

>  <origin>  (51) 
adg

>  <m_score__min__energy>  (51) 
-9.1799999999999997

>  <m_primary>  (51) 
energy

$$$$
51:0
     RDKit          3D

 50 52  0  0  0  0  0  0  0  0999 V2000
   51.3770   31.5710   50.3260 C   0  0  0  0  0  0  0  0  0  0  0  0
   52.0880   31.8000   51.4310 C   0  0  0  0  0  0  0  0  0  0  0  0
   53.0620   30.8400   52.0070 C   0  0  0  0  0  0  0  0  0  0  0  0
   52.5930   29.8620   52.9010 C   0  0  0  0  0  0  0  0  0  0  0  0
   53.4720   28.9300   53.4560 C   0  0  0  0  0  0  0  0  0  0  0  0
   54.8290   28.9640   53.1360 C   0  0  0  0  0  0  0  0  0  0  0  0
   55.3220   29.9450   52.2550 C   0  0  0  0  0  0  0  0  0  0  0  0
   56.7070   29.9990   51.8880 N   0  0  0  0  0  0  0  0  0  0  0  0
   57.5340   31.1680   51.9070 C   0  0  0  0  0  0  0  0  0  0  0  0
   58.0060   31.6060   52.9940 O   0  0  0  0  0  0  0  0  0  0  0  0
   57.7530   31.9310   50.6340 C   0  0  0  0  0  0  0  0  0  0  0  0
   59.0570   31.5890   50.0230 N   0  0  0  0  0  0  0  0  0  0  0  0
   58.9100   31.0170   48.6540 C   0  0  0  0  0  0  0  0  0  0  0  0
   59.5040   31.8930   47.5370 C   0  0  0  0  0  0  0  0  0  0  0  0
   59.2450   33.3090   47.8160 N   0  0  0  0  0  0  0  0  0  0  0  0
   58.8240   34.2090   46.7770 C   0  0  0  0  0  0  0  0  0  0  0  0
   59.3550   35.3490   46.6900 O   0  0  0  0  0  0  0  0  0  0  0  0
   57.7660   33.8420   45.8210 C   0  0  0  0  0  0  0  0  0  0  0  0
   57.3470   34.6940   44.9920 O   0  0  0  0  0  0  0  0  0  0  0  0
   57.3000   32.4840   45.7740 N   0  0  0  0  0  0  0  0  0  0  0  0
   57.1100   31.7300   44.7270 C   0  0  0  0  0  0  0  0  0  0  0  0
   57.6130   32.0540   43.4460 C   0  0  0  0  0  0  0  0  0  0  0  0
   57.3360   31.2120   42.3650 C   0  0  0  0  0  0  0  0  0  0  0  0
   56.5610   30.0690   42.5530 C   0  0  0  0  0  0  0  0  0  0  0  0
   56.0760   29.7770   43.8310 C   0  0  0  0  0  0  0  0  0  0  0  0
   56.3530   30.6080   44.8710 N   0  0  0  0  0  0  0  0  0  0  0  0
   59.6170   33.8510   49.1270 C   0  0  0  0  0  0  0  0  0  0  0  0
   60.0060   32.7220   50.0960 C   0  0  0  0  0  0  0  0  0  0  0  0
   54.4340   30.8620   51.6780 C   0  0  0  0  0  0  0  0  0  0  0  0
   50.6725   32.3313   49.9579 H   0  0  0  0  0  0  0  0  0  0  0  0
   51.4952   30.6218   49.7828 H   0  0  0  0  0  0  0  0  0  0  0  0
   51.9434   32.7603   51.9475 H   0  0  0  0  0  0  0  0  0  0  0  0
   51.5257   29.8307   53.1653 H   0  0  0  0  0  0  0  0  0  0  0  0
   53.0923   28.1650   54.1492 H   0  0  0  0  0  0  0  0  0  0  0  0
   55.5150   28.2232   53.5726 H   0  0  0  0  0  0  0  0  0  0  0  0
   56.9488   31.6846   49.9250 H   0  0  0  0  0  0  0  0  0  0  0  0
   57.7485   33.0061   50.8669 H   0  0  0  0  0  0  0  0  0  0  0  0
   59.4156   30.0403   48.6321 H   0  0  0  0  0  0  0  0  0  0  0  0
   57.8304   30.9426   48.4569 H   0  0  0  0  0  0  0  0  0  0  0  0
   60.5898   31.7257   47.4819 H   0  0  0  0  0  0  0  0  0  0  0  0
   59.0348   31.6229   46.5795 H   0  0  0  0  0  0  0  0  0  0  0  0
   58.2175   32.9615   43.3011 H   0  0  0  0  0  0  0  0  0  0  0  0
   57.7297   31.4515   41.3662 H   0  0  0  0  0  0  0  0  0  0  0  0
   56.3338   29.4048   41.7061 H   0  0  0  0  0  0  0  0  0  0  0  0
   55.4697   28.8741   43.9956 H   0  0  0  0  0  0  0  0  0  0  0  0
   60.4720   34.5324   49.0058 H   0  0  0  0  0  0  0  0  0  0  0  0
   58.7530   34.3898   49.5431 H   0  0  0  0  0  0  0  0  0  0  0  0
   61.0127   32.3614   49.8380 H   0  0  0  0  0  0  0  0  0  0  0  0
   59.9826   33.1244   51.1195 H   0  0  0  0  0  0  0  0  0  0  0  0
   54.8101   31.6068   50.9612 H   0  0  0  0  0  0  0  0  0  0  0  0
  1  2  2  0
  2  3  1  0
  3  4  2  0
  4  5  1  0
  5  6  2  0
  6  7  1  0
  7  8  1  0
  8  9  1  0
  9 10  2  0
  9 11  1  0
 11 12  1  0
 12 13  1  0
 13 14  1  0
 14 15  1  0
 15 16  1  0
 16 17  2  0
 16 18  1  0
 18 19  2  0
 18 20  1  0
 20 21  2  3
 21 22  1  0
 22 23  2  0
 23 24  1  0
 24 25  2  0
 25 26  1  0
 15 27  1  0
 27 28  1  0
  7 29  2  0
 29  3  1  0
 28 12  1  0
 26 21  1  0
  1 30  1  0
  1 31  1  0
  2 32  1  0
  4 33  1  0
  5 34  1  0
  6 35  1  0
 11 36  1  0
 11 37  1  0
 13 38  1  0
 13 39  1  0
 14 40  1  0
 14 41  1  0
 22 42  1  0
 23 43  1  0
 24 44  1  0
 25 45  1  0
 27 46  1  0
 27 47  1  0
 28 48  1  0
 28 49  1  0
 29 50  1  0
M  CHG  2   8  -1  26  -1
M  END
>  <UniqueID>  (52) 
48

>  <SMILES>  (52) 
C=Cc1cccc([N-]C(=O)CN2CCN(C(=O)C(=O)N=c3cccc[n-]3)CC2)c1

>  <Energy>  (52) 
74.72049670314509

>  <Genealogy>  (52) 
C=Cc1cccc([N-]C(=O)CN2CCN(C(=O)C(=O)N=c3cccc[n-]3)CC2)c1 (protonated)
C=Cc1cccc([N-]C(=O)CN2CCN(C(=O)C(=O)N=c3cccc[n-]3)CC2)c1 (3D coordinates assigned)
C=Cc1cccc([N-]C(=O)CN2CCN(C(=O)C(=O)N=c3cccc[n-]3)CC2)c1 (nonaromatic ring conformer: 74.72049670314509 kcal/mol)

>  <smiles>  (52) 
C=Cc1cccc(NC(=O)CN2CCN(C(=O)C(=O)N=c3cccc[nH]3)CC2)c1

>  <score_type>  (52) 
oracle

>  <origin>  (52) 
adg

>  <m_score__min__energy>  (52) 
-12

>  <m_primary>  (52) 
energy

$$$$
52:0
     RDKit          3D

 53 56  0  0  0  0  0  0  0  0999 V2000
   54.8420   29.1050   54.5290 C   0  0  0  0  0  0  0  0  0  0  0  0
   55.3990   29.8360   53.5500 C   0  0  0  0  0  0  0  0  0  0  0  0
   54.7700   30.3090   52.3890 C   0  0  0  0  0  0  0  0  0  0  0  0
   53.5650   30.0290   51.8530 C   0  0  0  0  0  0  0  0  0  0  0  0
   52.4980   31.0060   51.5850 C   0  0  0  0  0  0  0  0  0  0  0  0
   52.0510   31.9090   52.4780 N   0  0  0  0  0  0  0  0  0  0  0  0
   50.9970   32.4740   51.8500 C   0  0  0  0  0  0  0  0  0  0  0  0
   50.3130   33.3930   52.3700 O   0  0  0  0  0  0  0  0  0  0  0  0
   50.7300   31.9710   50.6270 N   0  0  0  0  0  0  0  0  0  0  0  0
   51.6800   31.0320   50.4780 C   0  0  0  0  0  0  0  0  0  0  0  0
   51.7870   30.2240   49.3500 O   0  0  0  0  0  0  0  0  0  0  0  0
   55.6670   31.1740   51.7880 C   0  0  0  0  0  0  0  0  0  0  0  0
   56.8180   31.1570   52.5510 C   0  0  0  0  0  0  0  0  0  0  0  0
   58.0560   31.8750   52.1820 C   0  0  0  0  0  0  0  0  0  0  0  0
   58.2860   33.0070   52.6870 O   0  0  0  0  0  0  0  0  0  0  0  0
   59.0440   31.2700   51.3220 N   0  0  0  0  0  0  0  0  0  0  0  0
   60.2200   30.6430   51.9410 C   0  0  0  0  0  0  0  0  0  0  0  0
   60.9490   29.7280   50.9490 C   0  0  0  0  0  0  0  0  0  0  0  0
   59.9970   29.1190   50.0160 N   0  0  0  0  0  0  0  0  0  0  0  0
   59.4100   30.1300   49.1240 C   0  0  0  0  0  0  0  0  0  0  0  0
   58.9860   31.4380   49.8550 C   0  0  2  0  0  0  0  0  0  0  0  0
   59.8580   32.6340   49.4140 C   0  0  0  0  0  0  0  0  0  0  0  0
   59.3520   33.2540   48.1360 C   0  0  0  0  0  0  0  0  0  0  0  0
   60.0850   34.2760   47.5100 C   0  0  0  0  0  0  0  0  0  0  0  0
   59.6230   34.8470   46.3200 C   0  0  0  0  0  0  0  0  0  0  0  0
   58.4300   34.3980   45.7440 C   0  0  0  0  0  0  0  0  0  0  0  0
   57.9740   34.9640   44.5610 O   0  0  0  0  0  0  0  0  0  0  0  0
   57.7020   33.3730   46.3570 C   0  0  0  0  0  0  0  0  0  0  0  0
   58.1610   32.8000   47.5470 C   0  0  0  0  0  0  0  0  0  0  0  0
   56.6590   30.3420   53.6230 N   0  0  0  0  0  0  0  0  0  0  0  0
   57.6260   30.1100   54.7030 C   0  0  0  0  0  0  0  0  0  0  0  0
   55.4456   28.7936   55.3943 H   0  0  0  0  0  0  0  0  0  0  0  0
   53.7821   28.8175   54.4657 H   0  0  0  0  0  0  0  0  0  0  0  0
   53.3620   28.9795   51.5936 H   0  0  0  0  0  0  0  0  0  0  0  0
   52.6570   30.1490   48.8370 H   0  0  0  0  0  0  0  0  0  0  0  0
   55.4958   31.7636   50.8753 H   0  0  0  0  0  0  0  0  0  0  0  0
   60.9109   31.4302   52.2770 H   0  0  0  0  0  0  0  0  0  0  0  0
   59.8817   30.0337   52.7921 H   0  0  0  0  0  0  0  0  0  0  0  0
   61.6825   30.3203   50.3823 H   0  0  0  0  0  0  0  0  0  0  0  0
   61.4573   28.9296   51.5095 H   0  0  0  0  0  0  0  0  0  0  0  0
   59.2300   28.6580   50.5610 H   0  0  0  0  0  0  0  0  0  0  0  0
   60.1525   30.3872   48.3542 H   0  0  0  0  0  0  0  0  0  0  0  0
   58.4972   29.6903   48.6957 H   0  0  0  0  0  0  0  0  0  0  0  0
   57.9445   31.6511   49.5723 H   0  0  0  0  0  0  0  0  0  0  0  0
   59.8465   33.3951   50.2081 H   0  0  0  0  0  0  0  0  0  0  0  0
   60.8788   32.2655   49.2348 H   0  0  0  0  0  0  0  0  0  0  0  0
   61.0260   34.6284   47.9576 H   0  0  0  0  0  0  0  0  0  0  0  0
   60.1984   35.6501   45.8364 H   0  0  0  0  0  0  0  0  0  0  0  0
   56.7661   33.0168   45.9018 H   0  0  0  0  0  0  0  0  0  0  0  0
   57.5874   31.9912   48.0231 H   0  0  0  0  0  0  0  0  0  0  0  0
   57.1256   30.2300   55.6752 H   0  0  0  0  0  0  0  0  0  0  0  0
   58.0289   29.0897   54.6215 H   0  0  0  0  0  0  0  0  0  0  0  0
   58.4480   30.8364   54.6215 H   0  0  0  0  0  0  0  0  0  0  0  0
  1  2  2  0
  2  3  1  0
  3  4  2  3
  4  5  1  0
  5  6  1  0
  6  7  1  0
  7  8  2  0
  7  9  1  0
  9 10  1  0
 10 11  1  0
  3 12  1  0
 12 13  2  0
 13 14  1  0
 14 15  2  0
 14 16  1  0
 16 17  1  0
 17 18  1  0
 18 19  1  0
 19 20  1  0
 20 21  1  0
 21 22  1  0
 22 23  1  0
 23 24  2  0
 24 25  1  0
 25 26  2  0
 26 27  1  0
 26 28  1  0
 28 29  2  0
 13 30  1  0
 30 31  1  0
 30  2  1  0
 10  5  2  0
 21 16  1  0
 29 23  1  0
  1 32  1  0
  1 33  1  0
  4 34  1  0
 11 35  1  0
 12 36  1  0
 17 37  1  0
 17 38  1  0
 18 39  1  0
 18 40  1  0
 19 41  1  0
 20 42  1  0
 20 43  1  0
 21 44  1  1
 22 45  1  0
 22 46  1  0
 24 47  1  0
 25 48  1  0
 28 49  1  0
 29 50  1  0
 31 51  1  0
 31 52  1  0
 31 53  1  0
M  CHG  3   6  -1   9  -1  27  -1
M  END
>  <UniqueID>  (53) 
49

>  <SMILES>  (53) 
C=c1c(=Cc2[n-]c(=O)[n-]c2O)cc(C(=O)N2CCNC[C@@H]2Cc2ccc([O-])cc2)n1C

>  <Energy>  (53) 
130.35361226983187

>  <Genealogy>  (53) 
C=c1c(=Cc2[n-]c(=O)[n-]c2O)cc(C(=O)N2CCNCC2Cc2ccc([O-])cc2)n1C (protonated)
C=c1c(=Cc2[n-]c(=O)[n-]c2O)cc(C(=O)N2CCNC[C@@H]2Cc2ccc([O-])cc2)n1C (chirality)
C=c1c(=Cc2[n-]c(=O)[n-]c2O)cc(C(=O)N2CCNC[C@@H]2Cc2ccc([O-])cc2)n1C (3D coordinates assigned)
C=c1c(=Cc2[n-]c(=O)[n-]c2O)cc(C(=O)N2CCNC[C@@H]2Cc2ccc([O-])cc2)n1C (nonaromatic ring conformer: 130.35361226983187 kcal/mol)

>  <smiles>  (53) 
C=c1c(=Cc2[nH]c(=O)[nH]c2O)cc(C(=O)N2CCNCC2Cc2ccc(O)cc2)n1C

>  <score_type>  (53) 
oracle

>  <origin>  (53) 
adg

>  <m_score__min__energy>  (53) 
-14.66

>  <m_primary>  (53) 
energy

$$$$
53:0
     RDKit          3D

 60 63  0  0  0  0  0  0  0  0999 V2000
   57.5040   31.9570   43.1950 C   0  0  0  0  0  0  0  0  0  0  0  0
   57.6900   31.3680   44.3830 C   0  0  0  0  0  0  0  0  0  0  0  0
   57.1310   30.0170   44.6400 C   0  0  0  0  0  0  0  0  0  0  0  0
   55.8860   29.8670   44.7830 O   0  0  0  0  0  0  0  0  0  0  0  0
   57.9970   28.8720   44.6820 N   0  0  0  0  0  0  0  0  0  0  0  0
   57.6510   27.6280   45.3120 C   0  0  0  0  0  0  0  0  0  0  0  0
   56.3060   27.3510   45.5990 C   0  0  0  0  0  0  0  0  0  0  0  0
   55.9400   26.1340   46.1790 C   0  0  0  0  0  0  0  0  0  0  0  0
   56.9140   25.1660   46.4610 C   0  0  0  0  0  0  0  0  0  0  0  0
   56.4480   23.6120   47.1540 S   0  0  0  0  0  0  0  0  0  0  0  0
   55.0650   23.7240   47.7320 O   0  0  0  0  0  0  0  0  0  0  0  0
   57.3910   23.2840   48.2790 O   0  0  0  0  0  0  0  0  0  0  0  0
   56.4830   22.3140   45.9760 N   0  0  0  0  0  0  0  0  0  0  0  0
   55.6110   22.5780   44.8160 C   0  0  0  0  0  0  0  0  0  0  0  0
   56.2810   23.4680   43.7410 C   0  0  0  0  0  0  0  0  0  0  0  0
   57.6500   23.7110   43.9940 O   0  0  0  0  0  0  0  0  0  0  0  0
   58.3060   22.4930   44.2530 C   0  0  0  0  0  0  0  0  0  0  0  0
   57.8560   21.9120   45.6040 C   0  0  0  0  0  0  0  0  0  0  0  0
   58.2580   25.4340   46.1680 C   0  0  0  0  0  0  0  0  0  0  0  0
   58.6250   26.6520   45.5900 C   0  0  0  0  0  0  0  0  0  0  0  0
   58.4330   32.0820   45.4530 C   0  0  0  0  0  0  0  0  0  0  0  0
   58.8200   33.4210   45.2720 C   0  0  0  0  0  0  0  0  0  0  0  0
   59.5180   34.0980   46.2750 C   0  0  0  0  0  0  0  0  0  0  0  0
   59.8380   33.4580   47.4770 C   0  0  0  0  0  0  0  0  0  0  0  0
   60.5390   34.1890   48.4500 O   0  0  0  0  0  0  0  0  0  0  0  0
   61.9510   34.1400   48.6620 C   0  0  0  0  0  0  0  0  0  0  0  0
   62.7020   33.7840   47.3790 C   0  0  0  0  0  0  0  0  0  0  0  0
   63.8600   32.8760   47.7880 C   0  0  0  0  0  0  0  0  0  0  0  0
   63.7040   32.6020   49.2810 C   0  0  0  0  0  0  0  0  0  0  0  0
   62.2930   33.0310   49.6420 C   0  0  0  0  0  0  0  0  0  0  0  0
   59.4560   32.1160   47.6620 C   0  0  0  0  0  0  0  0  0  0  0  0
   58.7600   31.4360   46.6570 C   0  0  0  0  0  0  0  0  0  0  0  0
   57.9190   32.9581   43.0065 H   0  0  0  0  0  0  0  0  0  0  0  0
   56.9362   31.4398   42.4076 H   0  0  0  0  0  0  0  0  0  0  0  0
   58.9030   28.9230   44.1610 H   0  0  0  0  0  0  0  0  0  0  0  0
   55.5333   28.0982   45.3654 H   0  0  0  0  0  0  0  0  0  0  0  0
   54.8843   25.9346   46.4152 H   0  0  0  0  0  0  0  0  0  0  0  0
   55.3409   21.6163   44.3553 H   0  0  0  0  0  0  0  0  0  0  0  0
   54.7285   23.1202   45.1864 H   0  0  0  0  0  0  0  0  0  0  0  0
   56.1891   22.9675   42.7658 H   0  0  0  0  0  0  0  0  0  0  0  0
   55.7680   24.4409   43.7559 H   0  0  0  0  0  0  0  0  0  0  0  0
   58.0665   21.7764   43.4536 H   0  0  0  0  0  0  0  0  0  0  0  0
   59.3902   22.6750   44.2889 H   0  0  0  0  0  0  0  0  0  0  0  0
   57.8961   20.8143   45.5445 H   0  0  0  0  0  0  0  0  0  0  0  0
   58.5349   22.3061   46.3746 H   0  0  0  0  0  0  0  0  0  0  0  0
   59.0279   24.6816   46.3942 H   0  0  0  0  0  0  0  0  0  0  0  0
   59.6806   26.8486   45.3512 H   0  0  0  0  0  0  0  0  0  0  0  0
   58.5716   33.9394   44.3342 H   0  0  0  0  0  0  0  0  0  0  0  0
   59.8189   35.1444   46.1181 H   0  0  0  0  0  0  0  0  0  0  0  0
   62.2424   35.1352   49.0290 H   0  0  0  0  0  0  0  0  0  0  0  0
   62.0340   33.2564   46.6823 H   0  0  0  0  0  0  0  0  0  0  0  0
   63.0678   34.6879   46.8700 H   0  0  0  0  0  0  0  0  0  0  0  0
   63.8180   31.9325   47.2241 H   0  0  0  0  0  0  0  0  0  0  0  0
   64.8280   33.3530   47.5748 H   0  0  0  0  0  0  0  0  0  0  0  0
   63.8425   31.5308   49.4892 H   0  0  0  0  0  0  0  0  0  0  0  0
   64.4540   33.1494   49.8708 H   0  0  0  0  0  0  0  0  0  0  0  0
   61.5936   32.1892   49.5313 H   0  0  0  0  0  0  0  0  0  0  0  0
   62.2204   33.3684   50.6865 H   0  0  0  0  0  0  0  0  0  0  0  0
   59.7058   31.5998   48.6007 H   0  0  0  0  0  0  0  0  0  0  0  0
   58.4664   30.3871   46.8106 H   0  0  0  0  0  0  0  0  0  0  0  0
  1  2  2  0
  2  3  1  0
  3  4  2  0
  3  5  1  0
  5  6  1  0
  6  7  2  0
  7  8  1  0
  8  9  2  0
  9 10  1  0
 10 11  2  0
 10 12  2  0
 10 13  1  0
 13 14  1  0
 14 15  1  0
 15 16  1  0
 16 17  1  0
 17 18  1  0
  9 19  1  0
 19 20  2  0
  2 21  1  0
 21 22  2  0
 22 23  1  0
 23 24  2  0
 24 25  1  0
 25 26  1  0
 26 27  1  0
 27 28  1  0
 28 29  1  0
 29 30  1  0
 24 31  1  0
 31 32  2  0
 20  6  1  0
 32 21  1  0
 18 13  1  0
 30 26  1  0
  1 33  1  0
  1 34  1  0
  5 35  1  0
  7 36  1  0
  8 37  1  0
 14 38  1  0
 14 39  1  0
 15 40  1  0
 15 41  1  0
 17 42  1  0
 17 43  1  0
 18 44  1  0
 18 45  1  0
 19 46  1  0
 20 47  1  0
 22 48  1  0
 23 49  1  0
 26 50  1  0
 27 51  1  0
 27 52  1  0
 28 53  1  0
 28 54  1  0
 29 55  1  0
 29 56  1  0
 30 57  1  0
 30 58  1  0
 31 59  1  0
 32 60  1  0
M  END
>  <UniqueID>  (54) 
50

>  <SMILES>  (54) 
C=C(C(=O)Nc1ccc(S(=O)(=O)N2CCOCC2)cc1)c1ccc(OC2CCCC2)cc1

>  <Energy>  (54) 
81.10222135850223

>  <Genealogy>  (54) 
C=C(C(=O)Nc1ccc(S(=O)(=O)N2CCOCC2)cc1)c1ccc(OC2CCCC2)cc1 (3D coordinates assigned)
C=C(C(=O)Nc1ccc(S(=O)(=O)N2CCOCC2)cc1)c1ccc(OC2CCCC2)cc1 (nonaromatic ring conformer: 81.10222135850223 kcal/mol)

>  <smiles>  (54) 
C=C(C(=O)Nc1ccc(S(=O)(=O)N2CCOCC2)cc1)c1ccc(OC2CCCC2)cc1

>  <score_type>  (54) 
oracle

>  <origin>  (54) 
adg

>  <m_score__min__energy>  (54) 
-10.859999999999999

>  <m_primary>  (54) 
energy

$$$$
54:0
     RDKit          3D

 39 40  0  0  0  0  0  0  0  0999 V2000
   57.7662   25.6967   44.3442 H   0  0  0  0  0  0  0  0  0  0  0  0
   58.2050   26.6390   44.7040 C   0  0  0  0  0  0  0  0  0  0  0  0
   58.6710   27.5820   43.7920 C   0  0  0  0  0  0  0  0  0  0  0  0
   58.5900   27.3884   42.7122 H   0  0  0  0  0  0  0  0  0  0  0  0
   59.2400   28.7710   44.2450 C   0  0  0  0  0  0  0  0  0  0  0  0
   59.6163   29.5042   43.5164 H   0  0  0  0  0  0  0  0  0  0  0  0
   59.3400   29.0470   45.6230 C   0  0  0  0  0  0  0  0  0  0  0  0
   60.1050   30.2980   46.0300 C   0  0  0  0  0  0  0  0  0  0  0  0
   60.5472   30.7545   45.1322 H   0  0  0  0  0  0  0  0  0  0  0  0
   60.8869   30.0065   46.7467 H   0  0  0  0  0  0  0  0  0  0  0  0
   59.2160   31.2900   46.6880 N   0  0  2  0  0  0  0  0  0  0  0  0
   58.2850   30.8350   46.8290 H   0  0  0  0  0  0  0  0  0  0  0  0
   59.0320   32.4810   45.8780 C   0  0  0  0  0  0  0  0  0  0  0  0
   59.4170   33.6040   46.3020 O   0  0  0  0  0  0  0  0  0  0  0  0
   58.2930   32.4420   44.6470 N   0  0  0  0  0  0  0  0  0  0  0  0
   57.4000   31.5570   44.3140 C   0  0  0  0  0  0  0  0  0  0  0  0
   56.7690   30.7520   45.1980 N   0  0  0  0  0  0  0  0  0  0  0  0
   56.0070   29.9680   44.4090 C   0  0  0  0  0  0  0  0  0  0  0  0
   55.1740   28.9680   44.8900 O   0  0  0  0  0  0  0  0  0  0  0  0
   56.1810   30.2900   43.0840 C   0  0  0  0  0  0  0  0  0  0  0  0
   55.6910   29.8067   42.2259 H   0  0  0  0  0  0  0  0  0  0  0  0
   57.0610   31.3050   43.0310 N   0  0  0  0  0  0  0  0  0  0  0  0
   57.6160   31.9130   41.8260 C   0  0  0  0  0  0  0  0  0  0  0  0
   58.3328   32.6982   42.1083 H   0  0  0  0  0  0  0  0  0  0  0  0
   58.1301   31.1440   41.2307 H   0  0  0  0  0  0  0  0  0  0  0  0
   56.8034   32.3550   41.2307 H   0  0  0  0  0  0  0  0  0  0  0  0
   59.6640   31.6410   48.0590 C   0  0  0  0  0  0  0  0  0  0  0  0
   60.5159   32.3316   47.9731 H   0  0  0  0  0  0  0  0  0  0  0  0
   59.9192   30.6910   48.5513 H   0  0  0  0  0  0  0  0  0  0  0  0
   58.5970   32.3080   48.9410 C   0  0  0  0  0  0  0  0  0  0  0  0
   58.8472   32.1516   50.0007 H   0  0  0  0  0  0  0  0  0  0  0  0
   58.5661   33.3865   48.7268 H   0  0  0  0  0  0  0  0  0  0  0  0
   57.6139   31.8633   48.7268 H   0  0  0  0  0  0  0  0  0  0  0  0
   58.8420   28.0910   46.5540 C   0  0  0  0  0  0  0  0  0  0  0  0
   58.8680   28.2890   48.0180 C   0  0  0  0  0  0  0  0  0  0  0  0
   59.5420   27.5290   48.7620 O   0  0  0  0  0  0  0  0  0  0  0  0
   58.2080   29.3740   48.5810 O   0  0  0  0  0  0  0  0  0  0  0  0
   58.2940   26.8880   46.0740 C   0  0  0  0  0  0  0  0  0  0  0  0
   57.9309   26.1338   46.7877 H   0  0  0  0  0  0  0  0  0  0  0  0
  1  2  1  0
  2  3  2  0
  3  4  1  0
  3  5  1  0
  5  6  1  0
  5  7  2  0
  7  8  1  0
  8  9  1  0
  8 10  1  0
  8 11  1  0
 11 12  1  1
 11 13  1  0
 13 14  2  0
 13 15  1  0
 15 16  2  0
 16 17  1  0
 17 18  1  0
 18 19  1  0
 18 20  2  0
 20 21  1  0
 20 22  1  0
 22 23  1  0
 23 24  1  0
 23 25  1  0
 23 26  1  0
 11 27  1  0
 27 28  1  0
 27 29  1  0
 27 30  1  0
 30 31  1  0
 30 32  1  0
 30 33  1  0
  7 34  1  0
 34 35  1  0
 35 36  2  0
 35 37  1  0
 34 38  2  0
 38 39  1  0
 38  2  1  0
 22 16  1  0
M  CHG  4  11   1  17  -1  19  -1  37  -1
M  END
>  <UniqueID>  (55) 
51

>  <SMILES>  (55) 
CC[N@H+](Cc1ccccc1C(=O)[O-])C(=O)/N=c1\[n-]c([O-])cn1C

>  <Energy>  (55) 
85.55227492366383

>  <Genealogy>  (55) 
CC[NH+](Cc1ccccc1C(=O)[O-])C(=O)N=c1[n-]c([O-])cn1C (protonated)
CC[N@H+](Cc1ccccc1C(=O)[O-])C(=O)N=c1[n-]c([O-])cn1C (chirality)
CC[N@H+](Cc1ccccc1C(=O)[O-])C(=O)/N=c1\[n-]c([O-])cn1C (cis-trans isomerization)
CC[N@H+](Cc1ccccc1C(=O)[O-])C(=O)/N=c1\[n-]c([O-])cn1C (3D coordinates assigned)
CC[N@H+](Cc1ccccc1C(=O)[O-])C(=O)/N=c1\[n-]c([O-])cn1C (optimized conformer: 85.55227492366383 kcal/mol)

>  <smiles>  (55) 
CCN(Cc1ccccc1C(=O)O)C(=O)N=c1[nH]c(O)cn1C

>  <score_type>  (55) 
oracle

>  <origin>  (55) 
adg

>  <m_score__min__energy>  (55) 
-12.66

>  <m_primary>  (55) 
energy

$$$$
55:0
     RDKit          3D

 55 58  0  0  0  0  0  0  0  0999 V2000
   57.7910   31.7100   42.8510 C   0  0  0  0  0  0  0  0  0  0  0  0
   57.3570   32.0170   44.2480 C   0  0  0  0  0  0  0  0  0  0  0  0
   56.5470   31.2480   44.8310 O   0  0  0  0  0  0  0  0  0  0  0  0
   57.8230   33.2060   44.8990 N   0  0  0  0  0  0  0  0  0  0  0  0
   57.3970   33.5480   46.2570 C   0  0  0  0  0  0  0  0  0  0  0  0
   58.5230   34.2400   47.0370 C   0  0  1  0  0  0  0  0  0  0  0  0
   59.1750   33.3200   48.1090 C   0  0  0  0  0  0  0  0  0  0  0  0
   60.6040   33.3370   47.8140 N   0  0  0  0  0  0  0  0  0  0  0  0
   61.6370   32.7390   48.6230 C   0  0  0  0  0  0  0  0  0  0  0  0
   61.5290   31.4070   49.0610 C   0  0  0  0  0  0  0  0  0  0  0  0
   62.5400   30.8310   49.8350 C   0  0  0  0  0  0  0  0  0  0  0  0
   63.6780   31.5730   50.1840 C   0  0  0  0  0  0  0  0  0  0  0  0
   64.7170   30.9740   50.9780 N   0  0  0  0  0  0  0  0  0  0  0  0
   64.4230   29.7620   51.7600 C   0  0  0  0  0  0  0  0  0  0  0  0
   65.6770   29.2400   52.4690 C   0  0  0  0  0  0  0  0  0  0  0  0
   66.8190   29.2740   51.5440 N   0  0  0  0  0  0  0  0  0  0  0  0
   67.6020   28.0890   51.3020 C   0  0  0  0  0  0  0  0  0  0  0  0
   67.9910   27.2640   52.3720 C   0  0  0  0  0  0  0  0  0  0  0  0
   68.7420   26.1080   52.1360 C   0  0  0  0  0  0  0  0  0  0  0  0
   69.1060   25.7640   50.8320 C   0  0  0  0  0  0  0  0  0  0  0  0
   68.7180   26.5740   49.7620 C   0  0  0  0  0  0  0  0  0  0  0  0
   67.9680   27.7300   49.9930 C   0  0  0  0  0  0  0  0  0  0  0  0
   67.1260   30.5110   50.8070 C   0  0  0  0  0  0  0  0  0  0  0  0
   66.0520   31.5830   51.0300 C   0  0  0  0  0  0  0  0  0  0  0  0
   63.8000   32.8960   49.7330 C   0  0  0  0  0  0  0  0  0  0  0  0
   64.9100   33.6210   50.0200 F   0  0  0  0  0  0  0  0  0  0  0  0
   62.7890   33.4710   48.9560 C   0  0  0  0  0  0  0  0  0  0  0  0
   60.7660   34.0740   46.6160 C   0  0  0  0  0  0  0  0  0  0  0  0
   61.8580   34.1940   46.0000 O   0  0  0  0  0  0  0  0  0  0  0  0
   59.5810   34.5900   46.1500 O   0  0  0  0  0  0  0  0  0  0  0  0
   58.6888   31.0749   42.8772 H   0  0  0  0  0  0  0  0  0  0  0  0
   56.9831   31.1813   42.3239 H   0  0  0  0  0  0  0  0  0  0  0  0
   58.0205   32.6478   42.3239 H   0  0  0  0  0  0  0  0  0  0  0  0
   58.4850   33.8310   44.3850 H   0  0  0  0  0  0  0  0  0  0  0  0
   56.5314   34.2245   46.2013 H   0  0  0  0  0  0  0  0  0  0  0  0
   57.1314   32.6186   46.7820 H   0  0  0  0  0  0  0  0  0  0  0  0
   58.0551   35.1105   47.5201 H   0  0  0  0  0  0  0  0  0  0  0  0
   58.9856   33.7116   49.1193 H   0  0  0  0  0  0  0  0  0  0  0  0
   58.7626   32.3007   48.0800 H   0  0  0  0  0  0  0  0  0  0  0  0
   60.6422   30.8142   48.7924 H   0  0  0  0  0  0  0  0  0  0  0  0
   62.4427   29.7887   50.1728 H   0  0  0  0  0  0  0  0  0  0  0  0
   63.6574   29.9986   52.5136 H   0  0  0  0  0  0  0  0  0  0  0  0
   64.0633   28.9830   51.0716 H   0  0  0  0  0  0  0  0  0  0  0  0
   65.8942   29.8735   53.3416 H   0  0  0  0  0  0  0  0  0  0  0  0
   65.5052   28.2045   52.7981 H   0  0  0  0  0  0  0  0  0  0  0  0
   67.7032   27.5291   53.4000 H   0  0  0  0  0  0  0  0  0  0  0  0
   69.0463   25.4690   52.9781 H   0  0  0  0  0  0  0  0  0  0  0  0
   69.6981   24.8554   50.6477 H   0  0  0  0  0  0  0  0  0  0  0  0
   69.0036   26.3011   48.7354 H   0  0  0  0  0  0  0  0  0  0  0  0
   67.6624   28.3623   49.1464 H   0  0  0  0  0  0  0  0  0  0  0  0
   68.0956   30.9002   51.1512 H   0  0  0  0  0  0  0  0  0  0  0  0
   67.1566   30.2730   49.7335 H   0  0  0  0  0  0  0  0  0  0  0  0
   66.2016   32.0494   52.0149 H   0  0  0  0  0  0  0  0  0  0  0  0
   66.1326   32.3449   50.2407 H   0  0  0  0  0  0  0  0  0  0  0  0
   62.8970   34.5069   48.6021 H   0  0  0  0  0  0  0  0  0  0  0  0
  1  2  1  0
  2  3  2  0
  2  4  1  0
  4  5  1  0
  5  6  1  0
  6  7  1  0
  7  8  1  0
  8  9  1  0
  9 10  2  0
 10 11  1  0
 11 12  2  0
 12 13  1  0
 13 14  1  0
 14 15  1  0
 15 16  1  0
 16 17  1  0
 17 18  2  0
 18 19  1  0
 19 20  2  0
 20 21  1  0
 21 22  2  0
 16 23  1  0
 23 24  1  0
 12 25  1  0
 25 26  1  0
 25 27  2  0
  8 28  1  0
 28 29  2  0
 28 30  1  0
 30  6  1  0
 27  9  1  0
 24 13  1  0
 22 17  1  0
  1 31  1  0
  1 32  1  0
  1 33  1  0
  4 34  1  0
  5 35  1  0
  5 36  1  0
  6 37  1  1
  7 38  1  0
  7 39  1  0
 10 40  1  0
 11 41  1  0
 14 42  1  0
 14 43  1  0
 15 44  1  0
 15 45  1  0
 18 46  1  0
 19 47  1  0
 20 48  1  0
 21 49  1  0
 22 50  1  0
 23 51  1  0
 23 52  1  0
 24 53  1  0
 24 54  1  0
 27 55  1  0
M  END
>  <UniqueID>  (56) 
52

>  <SMILES>  (56) 
CC(=O)NC[C@H]1CN(c2ccc(N3CCN(c4ccccc4)CC3)c(F)c2)C(=O)O1

>  <Energy>  (56) 
80.36629221920263

>  <Genealogy>  (56) 
CC(=O)NC[C@H]1CN(c2ccc(N3CCN(c4ccccc4)CC3)c(F)c2)C(=O)O1 (chirality)
CC(=O)NC[C@H]1CN(c2ccc(N3CCN(c4ccccc4)CC3)c(F)c2)C(=O)O1 (3D coordinates assigned)
CC(=O)NC[C@H]1CN(c2ccc(N3CCN(c4ccccc4)CC3)c(F)c2)C(=O)O1 (nonaromatic ring conformer: 80.36629221920263 kcal/mol)

>  <smiles>  (56) 
CC(=O)NCC1CN(c2ccc(N3CCN(c4ccccc4)CC3)c(F)c2)C(=O)O1

>  <score_type>  (56) 
oracle

>  <origin>  (56) 
adg

>  <m_score__min__energy>  (56) 
-7.9100000000000001

>  <m_primary>  (56) 
energy

$$$$
56:0
     RDKit          3D

 48 51  0  0  0  0  0  0  0  0999 V2000
   59.0240   28.0178   48.4070 H   0  0  0  0  0  0  0  0  0  0  0  0
   59.0330   29.1120   48.2950 C   0  0  0  0  0  0  0  0  0  0  0  0
   59.2352   29.7524   49.1662 H   0  0  0  0  0  0  0  0  0  0  0  0
   58.7980   29.6640   47.0990 C   0  0  0  0  0  0  0  0  0  0  0  0
   58.7970   30.9660   46.9100 O   0  0  0  0  0  0  0  0  0  0  0  0
   58.5010   31.2160   45.6540 C   0  0  0  0  0  0  0  0  0  0  0  0
   58.3620   32.5690   45.0550 C   0  0  0  0  0  0  0  0  0  0  0  0
   57.8740   32.6500   43.8920 O   0  0  0  0  0  0  0  0  0  0  0  0
   58.8270   33.7880   45.7010 N   0  0  0  0  0  0  0  0  0  0  0  0
   58.4770   34.5740   45.0970 H   0  0  0  0  0  0  0  0  0  0  0  0
   58.2400   34.0280   47.0530 C   0  0  0  0  0  0  0  0  0  0  0  0
   57.6825   34.9757   47.0222 H   0  0  0  0  0  0  0  0  0  0  0  0
   57.6015   33.1603   47.2753 H   0  0  0  0  0  0  0  0  0  0  0  0
   59.2780   34.1150   48.1970 C   0  0  0  0  0  0  0  0  0  0  0  0
   59.6745   35.1402   48.2398 H   0  0  0  0  0  0  0  0  0  0  0  0
   58.7727   33.8447   49.1359 H   0  0  0  0  0  0  0  0  0  0  0  0
   60.3930   33.1840   47.9980 N   0  0  0  0  0  0  0  0  0  0  0  0
   60.9880   32.5420   49.1340 C   0  0  0  0  0  0  0  0  0  0  0  0
   60.3430   31.6420   49.7350 O   0  0  0  0  0  0  0  0  0  0  0  0
   62.3460   32.9130   49.6020 C   0  0  0  0  0  0  0  0  0  0  0  0
   63.4830   32.4160   48.9370 C   0  0  0  0  0  0  0  0  0  0  0  0
   63.3619   31.7508   48.0693 H   0  0  0  0  0  0  0  0  0  0  0  0
   64.7650   32.7630   49.3730 C   0  0  0  0  0  0  0  0  0  0  0  0
   65.6478   32.3700   48.8474 H   0  0  0  0  0  0  0  0  0  0  0  0
   64.9290   33.6080   50.4750 C   0  0  0  0  0  0  0  0  0  0  0  0
   65.9389   33.8875   50.8095 H   0  0  0  0  0  0  0  0  0  0  0  0
   63.8070   34.0970   51.1510 C   0  0  0  0  0  0  0  0  0  0  0  0
   63.9353   34.7553   52.0229 H   0  0  0  0  0  0  0  0  0  0  0  0
   62.5220   33.7510   50.7210 C   0  0  0  0  0  0  0  0  0  0  0  0
   61.6433   34.1354   51.2597 H   0  0  0  0  0  0  0  0  0  0  0  0
   60.9860   32.9940   46.6740 C   0  0  0  0  0  0  0  0  0  0  0  0
   62.0555   33.2475   46.7182 H   0  0  0  0  0  0  0  0  0  0  0  0
   60.8533   31.9435   46.3758 H   0  0  0  0  0  0  0  0  0  0  0  0
   60.3010   33.8880   45.6380 C   0  0  0  0  0  0  0  0  0  0  0  0
   60.5934   34.9322   45.8226 H   0  0  0  0  0  0  0  0  0  0  0  0
   60.6197   33.5534   44.6398 H   0  0  0  0  0  0  0  0  0  0  0  0
   58.3130   30.0270   44.9700 C   0  0  0  0  0  0  0  0  0  0  0  0
   58.0609   29.9098   43.9057 H   0  0  0  0  0  0  0  0  0  0  0  0
   58.5070   29.0110   45.8990 C   0  0  0  0  0  0  0  0  0  0  0  0
   58.4250   27.6780   45.7030 C   0  0  0  0  0  0  0  0  0  0  0  0
   59.3326   27.1672   45.3489 H   0  0  0  0  0  0  0  0  0  0  0  0
   57.2220   26.8410   45.9220 C   0  0  0  0  0  0  0  0  0  0  0  0
   57.2090   25.5670   46.3540 N   0  0  0  0  0  0  0  0  0  0  0  0
   55.8950   25.2520   46.3710 C   0  0  0  0  0  0  0  0  0  0  0  0
   55.4740   24.1180   46.7230 O   0  0  0  0  0  0  0  0  0  0  0  0
   55.0680   26.2420   45.9730 N   0  0  0  0  0  0  0  0  0  0  0  0
   55.9240   27.2410   45.6930 C   0  0  0  0  0  0  0  0  0  0  0  0
   55.5240   28.4890   45.2240 O   0  0  0  0  0  0  0  0  0  0  0  0
  1  2  1  0
  2  3  1  0
  2  4  2  0
  4  5  1  0
  5  6  1  0
  6  7  1  0
  7  8  2  0
  7  9  1  0
  9 10  1  0
  9 11  1  0
 11 12  1  0
 11 13  1  0
 11 14  1  0
 14 15  1  0
 14 16  1  0
 14 17  1  0
 17 18  1  0
 18 19  2  0
 18 20  1  0
 20 21  2  0
 21 22  1  0
 21 23  1  0
 23 24  1  0
 23 25  2  0
 25 26  1  0
 25 27  1  0
 27 28  1  0
 27 29  2  0
 29 30  1  0
 17 31  1  0
 31 32  1  0
 31 33  1  0
 31 34  1  0
 34 35  1  0
 34 36  1  0
  6 37  2  0
 37 38  1  0
 37 39  1  0
 39 40  2  0
 40 41  1  0
 40 42  1  0
 42 43  1  0
 43 44  1  0
 44 45  2  0
 44 46  1  0
 46 47  1  0
 47 48  1  0
 39  4  1  0
 47 42  2  0
 34  9  1  0
 29 20  1  0
M  CHG  4   9   1  43  -1  46  -1  48  -1
M  END
>  <UniqueID>  (57) 
53

>  <SMILES>  (57) 
C=c1oc(C(=O)[NH+]2CCN(C(=O)c3ccccc3)CC2)c/c1=C\c1[n-]c(=O)[n-]c1[O-]

>  <Energy>  (57) 
130.3983155614893

>  <Genealogy>  (57) 
C=c1oc(C(=O)[NH+]2CCN(C(=O)c3ccccc3)CC2)cc1=Cc1[n-]c(=O)[n-]c1[O-] (protonated)
C=c1oc(C(=O)[NH+]2CCN(C(=O)c3ccccc3)CC2)c/c1=C\c1[n-]c(=O)[n-]c1[O-] (cis-trans isomerization)
C=c1oc(C(=O)[NH+]2CCN(C(=O)c3ccccc3)CC2)c/c1=C\c1[n-]c(=O)[n-]c1[O-] (3D coordinates assigned)
C=c1oc(C(=O)[NH+]2CCN(C(=O)c3ccccc3)CC2)c/c1=C\c1[n-]c(=O)[n-]c1[O-] (nonaromatic ring conformer: 130.3983155614893 kcal/mol)

>  <smiles>  (57) 
C=c1oc(C(=O)N2CCN(C(=O)c3ccccc3)CC2)cc1=Cc1[nH]c(=O)[nH]c1O

>  <score_type>  (57) 
oracle

>  <origin>  (57) 
adg

>  <m_score__min__energy>  (57) 
-16.949999999999999

>  <m_primary>  (57) 
energy

$$$$
57:0
     RDKit          3D

 76 80  0  0  0  0  0  0  0  0999 V2000
   67.2060   28.2410   52.6650 C   0  0  0  0  0  0  0  0  0  0  0  0
   66.1390   29.0220   53.1890 O   0  0  0  0  0  0  0  0  0  0  0  0
   64.9000   29.2140   52.5530 C   0  0  0  0  0  0  0  0  0  0  0  0
   63.7880   28.3990   52.8300 C   0  0  0  0  0  0  0  0  0  0  0  0
   62.5740   28.6180   52.1750 C   0  0  0  0  0  0  0  0  0  0  0  0
   62.4410   29.6570   51.2490 C   0  0  0  0  0  0  0  0  0  0  0  0
   61.1460   29.8840   50.5780 C   0  0  0  0  0  0  0  0  0  0  0  0
   60.4720   30.9090   50.8620 O   0  0  0  0  0  0  0  0  0  0  0  0
   60.6600   28.9580   49.5870 N   0  0  0  0  0  0  0  0  0  0  0  0
   60.7880   27.5170   49.8260 C   0  0  0  0  0  0  0  0  0  0  0  0
   60.7490   26.7260   48.5170 C   0  0  0  0  0  0  0  0  0  0  0  0
   59.5430   27.1080   47.7150 C   0  0  0  0  0  0  0  0  0  0  0  0
   58.8700   26.1600   46.9320 C   0  0  0  0  0  0  0  0  0  0  0  0
   57.7820   26.5420   46.1400 C   0  0  0  0  0  0  0  0  0  0  0  0
   57.3680   27.8790   46.0970 C   0  0  0  0  0  0  0  0  0  0  0  0
   56.2850   28.2130   45.2680 O   0  0  0  0  0  0  0  0  0  0  0  0
   56.2520   29.5350   44.1760 S   0  0  0  0  0  0  0  0  0  0  0  0
   56.9850   29.0900   42.6730 N   0  0  0  0  0  0  0  0  0  0  0  0
   54.8240   29.9210   43.9190 O   0  0  0  0  0  0  0  0  0  0  0  0
   56.9720   30.7150   44.7700 O   0  0  0  0  0  0  0  0  0  0  0  0
   58.0480   28.8280   46.8810 C   0  0  0  0  0  0  0  0  0  0  0  0
   59.1270   28.4460   47.6920 C   0  0  0  0  0  0  0  0  0  0  0  0
   59.8750   29.4980   48.4660 C   0  0  0  0  0  0  0  0  0  0  0  0
   63.5470   30.4720   50.9640 C   0  0  0  0  0  0  0  0  0  0  0  0
   64.7780   30.2410   51.5970 C   0  0  0  0  0  0  0  0  0  0  0  0
   65.9530   31.0520   51.2340 C   0  0  0  0  0  0  0  0  0  0  0  0
   66.8470   30.5440   50.5070 O   0  0  0  0  0  0  0  0  0  0  0  0
   66.0840   32.4200   51.6480 N   0  0  0  0  0  0  0  0  0  0  0  0
   65.8270   33.6010   50.8230 C   0  0  0  0  0  0  0  0  0  0  0  0
   64.5230   33.4860   50.0740 C   0  0  0  0  0  0  0  0  0  0  0  0
   63.3320   33.9130   50.6740 C   0  0  0  0  0  0  0  0  0  0  0  0
   62.1080   33.7220   50.0320 C   0  0  0  0  0  0  0  0  0  0  0  0
   62.0320   33.0940   48.7670 C   0  0  0  0  0  0  0  0  0  0  0  0
   60.7420   32.8050   48.1420 N   0  0  0  0  0  0  0  0  0  0  0  0
   59.5020   33.1560   48.8700 C   0  0  0  0  0  0  0  0  0  0  0  0
   58.1960   32.7330   48.1810 C   0  0  0  0  0  0  0  0  0  0  0  0
   58.2680   32.8010   46.7170 N   0  0  0  0  0  0  0  0  0  0  0  0
   58.4000   34.1810   46.2130 C   0  0  0  0  0  0  0  0  0  0  0  0
   59.3280   31.9100   46.2300 C   0  0  0  0  0  0  0  0  0  0  0  0
   60.7190   32.2830   46.7570 C   0  0  0  0  0  0  0  0  0  0  0  0
   63.2560   32.7530   48.1340 C   0  0  0  0  0  0  0  0  0  0  0  0
   64.4810   32.9450   48.7830 C   0  0  0  0  0  0  0  0  0  0  0  0
   67.7894   27.8140   53.4941 H   0  0  0  0  0  0  0  0  0  0  0  0
   66.7964   27.4278   52.0478 H   0  0  0  0  0  0  0  0  0  0  0  0
   67.8574   28.8772   52.0478 H   0  0  0  0  0  0  0  0  0  0  0  0
   63.8746   27.5857   53.5655 H   0  0  0  0  0  0  0  0  0  0  0  0
   61.7141   27.9666   52.3898 H   0  0  0  0  0  0  0  0  0  0  0  0
   61.7446   27.3223   50.3329 H   0  0  0  0  0  0  0  0  0  0  0  0
   59.9415   27.1940   50.4498 H   0  0  0  0  0  0  0  0  0  0  0  0
   61.6562   26.9436   47.9343 H   0  0  0  0  0  0  0  0  0  0  0  0
   60.6991   25.6519   48.7491 H   0  0  0  0  0  0  0  0  0  0  0  0
   59.1990   25.1104   46.9403 H   0  0  0  0  0  0  0  0  0  0  0  0
   57.2474   25.7860   45.5462 H   0  0  0  0  0  0  0  0  0  0  0  0
   58.0050   29.2850   42.7410 H   0  0  0  0  0  0  0  0  0  0  0  0
   56.8900   28.0530   42.5840 H   0  0  0  0  0  0  0  0  0  0  0  0
   57.7305   29.8809   46.8581 H   0  0  0  0  0  0  0  0  0  0  0  0
   60.5608   30.0140   47.7780 H   0  0  0  0  0  0  0  0  0  0  0  0
   59.1240   30.1771   48.8958 H   0  0  0  0  0  0  0  0  0  0  0  0
   63.4488   31.2955   50.2414 H   0  0  0  0  0  0  0  0  0  0  0  0
   65.7878   34.4878   51.4726 H   0  0  0  0  0  0  0  0  0  0  0  0
   66.6390   33.6874   50.0860 H   0  0  0  0  0  0  0  0  0  0  0  0
   63.3616   34.4026   51.6586 H   0  0  0  0  0  0  0  0  0  0  0  0
   61.1840   34.0666   50.5193 H   0  0  0  0  0  0  0  0  0  0  0  0
   59.5383   32.6715   49.8569 H   0  0  0  0  0  0  0  0  0  0  0  0
   59.4784   34.2546   48.9198 H   0  0  0  0  0  0  0  0  0  0  0  0
   57.9663   31.6974   48.4723 H   0  0  0  0  0  0  0  0  0  0  0  0
   57.4133   33.4355   48.5033 H   0  0  0  0  0  0  0  0  0  0  0  0
   58.4666   34.8768   47.0624 H   0  0  0  0  0  0  0  0  0  0  0  0
   59.3100   34.2621   45.6004 H   0  0  0  0  0  0  0  0  0  0  0  0
   57.5219   34.4332   45.6004 H   0  0  0  0  0  0  0  0  0  0  0  0
   59.0964   30.8834   46.5500 H   0  0  0  0  0  0  0  0  0  0  0  0
   59.3570   32.0042   45.1344 H   0  0  0  0  0  0  0  0  0  0  0  0
   61.3507   31.3832   46.7205 H   0  0  0  0  0  0  0  0  0  0  0  0
   61.0838   33.0978   46.1144 H   0  0  0  0  0  0  0  0  0  0  0  0
   63.2414   32.3315   47.1181 H   0  0  0  0  0  0  0  0  0  0  0  0
   65.4172   32.6691   48.2756 H   0  0  0  0  0  0  0  0  0  0  0  0
  1  2  1  0
  2  3  1  0
  3  4  2  0
  4  5  1  0
  5  6  2  0
  6  7  1  0
  7  8  2  0
  7  9  1  0
  9 10  1  0
 10 11  1  0
 11 12  1  0
 12 13  2  0
 13 14  1  0
 14 15  2  0
 15 16  1  0
 16 17  1  0
 17 18  1  0
 17 19  2  0
 17 20  2  0
 15 21  1  0
 21 22  2  0
 22 23  1  0
  6 24  1  0
 24 25  2  0
 25 26  1  0
 26 27  2  0
 26 28  1  0
 28 29  1  0
 29 30  1  0
 30 31  2  0
 31 32  1  0
 32 33  2  0
 33 34  1  0
 34 35  1  0
 35 36  1  0
 36 37  1  0
 37 38  1  0
 37 39  1  0
 39 40  1  0
 33 41  1  0
 41 42  2  0
 25  3  1  0
 42 30  1  0
 23  9  1  0
 40 34  1  0
 22 12  1  0
  1 43  1  0
  1 44  1  0
  1 45  1  0
  4 46  1  0
  5 47  1  0
 10 48  1  0
 10 49  1  0
 11 50  1  0
 11 51  1  0
 13 52  1  0
 14 53  1  0
 18 54  1  0
 18 55  1  0
 21 56  1  0
 23 57  1  0
 23 58  1  0
 24 59  1  0
 29 60  1  0
 29 61  1  0
 31 62  1  0
 32 63  1  0
 35 64  1  0
 35 65  1  0
 36 66  1  0
 36 67  1  0
 38 68  1  0
 38 69  1  0
 38 70  1  0
 39 71  1  0
 39 72  1  0
 40 73  1  0
 40 74  1  0
 41 75  1  0
 42 76  1  0
M  CHG  1  28  -1
M  END
>  <UniqueID>  (58) 
54

>  <SMILES>  (58) 
COc1ccc(C(=O)N2CCc3ccc(OS(N)(=O)=O)cc3C2)cc1C(=O)[N-]Cc1ccc(N2CCN(C)CC2)cc1

>  <Energy>  (58) 
94.14898657257493

>  <Genealogy>  (58) 
COc1ccc(C(=O)N2CCc3ccc(OS(N)(=O)=O)cc3C2)cc1C(=O)[N-]Cc1ccc(N2CCN(C)CC2)cc1 (protonated)
COc1ccc(C(=O)N2CCc3ccc(OS(N)(=O)=O)cc3C2)cc1C(=O)[N-]Cc1ccc(N2CCN(C)CC2)cc1 (3D coordinates assigned)
COc1ccc(C(=O)N2CCc3ccc(OS(N)(=O)=O)cc3C2)cc1C(=O)[N-]Cc1ccc(N2CCN(C)CC2)cc1 (nonaromatic ring conformer: 94.14898657257493 kcal/mol)

>  <smiles>  (58) 
COc1ccc(C(=O)N2CCc3ccc(OS(N)(=O)=O)cc3C2)cc1C(=O)NCc1ccc(N2CCN(C)CC2)cc1

>  <score_type>  (58) 
oracle

>  <origin>  (58) 
adg

>  <m_score__min__energy>  (58) 
-11.630000000000001

>  <m_primary>  (58) 
energy

$$$$
58:0
     RDKit          3D

 68 72  0  0  0  0  0  0  0  0999 V2000
   55.5700   29.1960   44.8740 O   0  0  0  0  0  0  0  0  0  0  0  0
   56.4950   30.0330   44.6830 C   0  0  0  0  0  0  0  0  0  0  0  0
   57.8830   29.5500   44.3910 C   0  0  0  0  0  0  0  0  0  0  0  0
   58.4200   28.6580   45.5270 C   0  0  1  0  0  0  0  0  0  0  0  0
   58.2240   29.3250   46.8170 N   0  0  0  0  0  0  0  0  0  0  0  0
   59.0300   29.0250   47.9660 C   0  0  0  0  0  0  0  0  0  0  0  0
   59.9210   28.1320   47.9020 O   0  0  0  0  0  0  0  0  0  0  0  0
   58.8600   29.8090   49.2360 C   0  0  0  0  0  0  0  0  0  0  0  0
   59.5670   31.1350   49.1530 C   0  0  0  0  0  0  0  0  0  0  0  0
   58.8370   32.3310   49.2400 C   0  0  0  0  0  0  0  0  0  0  0  0
   59.4910   33.5630   49.1520 C   0  0  0  0  0  0  0  0  0  0  0  0
   60.8750   33.6130   48.9650 C   0  0  0  0  0  0  0  0  0  0  0  0
   61.6140   32.4260   48.8400 C   0  0  0  0  0  0  0  0  0  0  0  0
   63.0790   32.4670   48.6540 C   0  0  0  0  0  0  0  0  0  0  0  0
   63.5550   32.1850   47.5210 O   0  0  0  0  0  0  0  0  0  0  0  0
   63.9660   32.8430   49.7240 N   0  0  0  0  0  0  0  0  0  0  0  0
   63.5820   33.7080   50.8270 C   0  0  0  0  0  0  0  0  0  0  0  0
   64.8450   33.9090   51.6540 C   0  0  0  0  0  0  0  0  0  0  0  0
   66.0060   33.4800   50.7610 C   0  0  0  0  0  0  0  0  0  0  0  0
   65.4000   32.6160   49.6620 C   0  0  0  0  0  0  0  0  0  0  0  0
   60.9560   31.1890   48.9470 C   0  0  0  0  0  0  0  0  0  0  0  0
   57.7390   27.3150   45.5440 C   0  0  0  0  0  0  0  0  0  0  0  0
   58.0750   26.3050   44.7150 N   0  0  0  0  0  0  0  0  0  0  0  0
   57.2200   25.3170   45.0360 C   0  0  0  0  0  0  0  0  0  0  0  0
   57.2230   23.9830   44.3840 C   0  0  0  0  0  0  0  0  0  0  0  0
   58.1610   22.9910   44.7390 C   0  0  0  0  0  0  0  0  0  0  0  0
   58.1490   21.7440   44.1050 C   0  0  0  0  0  0  0  0  0  0  0  0
   57.2070   21.4730   43.1120 C   0  0  0  0  0  0  0  0  0  0  0  0
   56.2720   22.4480   42.7510 C   0  0  0  0  0  0  0  0  0  0  0  0
   56.2770   23.6930   43.3840 C   0  0  0  0  0  0  0  0  0  0  0  0
   56.3830   25.7600   46.0380 C   0  0  0  0  0  0  0  0  0  0  0  0
   56.7050   27.0260   46.3580 N   0  0  0  0  0  0  0  0  0  0  0  0
   56.2370   31.4420   44.7520 N   0  0  0  0  0  0  0  0  0  0  0  0
   57.2120   32.4670   44.9880 C   0  0  0  0  0  0  0  0  0  0  0  0
   57.2920   33.1520   46.2150 C   0  0  0  0  0  0  0  0  0  0  0  0
   58.2420   34.1660   46.3950 C   0  0  0  0  0  0  0  0  0  0  0  0
   59.1080   34.5050   45.3520 C   0  0  0  0  0  0  0  0  0  0  0  0
   59.0210   33.8410   44.1250 C   0  0  0  0  0  0  0  0  0  0  0  0
   58.0700   32.8330   43.9410 C   0  0  0  0  0  0  0  0  0  0  0  0
   57.8707   28.9701   43.4564 H   0  0  0  0  0  0  0  0  0  0  0  0
   58.5416   30.4262   44.2989 H   0  0  0  0  0  0  0  0  0  0  0  0
   59.4933   28.4947   45.3497 H   0  0  0  0  0  0  0  0  0  0  0  0
   57.5410   30.1160   46.8790 H   0  0  0  0  0  0  0  0  0  0  0  0
   57.7879   29.9837   49.4095 H   0  0  0  0  0  0  0  0  0  0  0  0
   59.2967   29.2315   50.0642 H   0  0  0  0  0  0  0  0  0  0  0  0
   57.7462   32.2983   49.3780 H   0  0  0  0  0  0  0  0  0  0  0  0
   58.9144   34.4965   49.2302 H   0  0  0  0  0  0  0  0  0  0  0  0
   61.3869   34.5854   48.9156 H   0  0  0  0  0  0  0  0  0  0  0  0
   63.2148   34.6729   50.4475 H   0  0  0  0  0  0  0  0  0  0  0  0
   62.7716   33.2663   51.4254 H   0  0  0  0  0  0  0  0  0  0  0  0
   64.9517   34.9664   51.9378 H   0  0  0  0  0  0  0  0  0  0  0  0
   64.8147   33.3229   52.5843 H   0  0  0  0  0  0  0  0  0  0  0  0
   66.4979   34.3620   50.3250 H   0  0  0  0  0  0  0  0  0  0  0  0
   66.7675   32.9277   51.3312 H   0  0  0  0  0  0  0  0  0  0  0  0
   65.7929   32.9154   48.6792 H   0  0  0  0  0  0  0  0  0  0  0  0
   65.6476   31.5532   49.8003 H   0  0  0  0  0  0  0  0  0  0  0  0
   61.5328   30.2556   48.8689 H   0  0  0  0  0  0  0  0  0  0  0  0
   58.9072   23.1994   45.5199 H   0  0  0  0  0  0  0  0  0  0  0  0
   58.8833   20.9760   44.3897 H   0  0  0  0  0  0  0  0  0  0  0  0
   57.1999   20.4926   42.6133 H   0  0  0  0  0  0  0  0  0  0  0  0
   55.5309   22.2340   41.9668 H   0  0  0  0  0  0  0  0  0  0  0  0
   55.5350   24.4531   43.0982 H   0  0  0  0  0  0  0  0  0  0  0  0
   55.5786   25.1708   46.5025 H   0  0  0  0  0  0  0  0  0  0  0  0
   56.6068   32.8905   47.0348 H   0  0  0  0  0  0  0  0  0  0  0  0
   58.3061   34.6952   47.3572 H   0  0  0  0  0  0  0  0  0  0  0  0
   59.8592   35.2954   45.4967 H   0  0  0  0  0  0  0  0  0  0  0  0
   59.7011   34.1117   43.3039 H   0  0  0  0  0  0  0  0  0  0  0  0
   57.9943   32.3238   42.9689 H   0  0  0  0  0  0  0  0  0  0  0  0
  1  2  2  0
  2  3  1  0
  3  4  1  0
  4  5  1  0
  5  6  1  0
  6  7  2  0
  6  8  1  0
  8  9  1  0
  9 10  2  0
 10 11  1  0
 11 12  2  0
 12 13  1  0
 13 14  1  0
 14 15  2  0
 14 16  1  0
 16 17  1  0
 17 18  1  0
 18 19  1  0
 19 20  1  0
 13 21  2  0
  4 22  1  0
 22 23  2  0
 23 24  1  0
 24 25  1  0
 25 26  2  0
 26 27  1  0
 27 28  2  0
 28 29  1  0
 29 30  2  0
 24 31  2  0
 31 32  1  0
  2 33  1  0
 33 34  1  0
 34 35  2  0
 35 36  1  0
 36 37  2  0
 37 38  1  0
 38 39  2  0
 21  9  1  0
 32 22  1  0
 39 34  1  0
 20 16  1  0
 30 25  1  0
  3 40  1  0
  3 41  1  0
  4 42  1  6
  5 43  1  0
  8 44  1  0
  8 45  1  0
 10 46  1  0
 11 47  1  0
 12 48  1  0
 17 49  1  0
 17 50  1  0
 18 51  1  0
 18 52  1  0
 19 53  1  0
 19 54  1  0
 20 55  1  0
 20 56  1  0
 21 57  1  0
 26 58  1  0
 27 59  1  0
 28 60  1  0
 29 61  1  0
 30 62  1  0
 31 63  1  0
 35 64  1  0
 36 65  1  0
 37 66  1  0
 38 67  1  0
 39 68  1  0
M  CHG  2  32  -1  33  -1
M  END
>  <UniqueID>  (59) 
55

>  <SMILES>  (59) 
O=C(C[C@@H](NC(=O)Cc1cccc(C(=O)N2CCCC2)c1)c1nc(-c2ccccc2)c[n-]1)[N-]c1ccccc1

>  <Energy>  (59) 
104.11355346961221

>  <Genealogy>  (59) 
O=C(CC(NC(=O)Cc1cccc(C(=O)N2CCCC2)c1)c1nc(-c2ccccc2)c[n-]1)[N-]c1ccccc1 (protonated)
O=C(C[C@@H](NC(=O)Cc1cccc(C(=O)N2CCCC2)c1)c1nc(-c2ccccc2)c[n-]1)[N-]c1ccccc1 (chirality)
O=C(C[C@@H](NC(=O)Cc1cccc(C(=O)N2CCCC2)c1)c1nc(-c2ccccc2)c[n-]1)[N-]c1ccccc1 (3D coordinates assigned)
O=C(C[C@@H](NC(=O)Cc1cccc(C(=O)N2CCCC2)c1)c1nc(-c2ccccc2)c[n-]1)[N-]c1ccccc1 (nonaromatic ring conformer: 104.11355346961221 kcal/mol)

>  <smiles>  (59) 
O=C(CC(NC(=O)Cc1cccc(C(=O)N2CCCC2)c1)c1nc(-c2ccccc2)c[nH]1)Nc1ccccc1

>  <score_type>  (59) 
oracle

>  <origin>  (59) 
adg

>  <m_score__min__energy>  (59) 
-13.619999999999999

>  <m_primary>  (59) 
energy

$$$$
59:0
     RDKit          3D

 44 46  0  0  0  0  0  0  0  0999 V2000
   59.6572   28.8462   45.0358 H   0  0  0  0  0  0  0  0  0  0  0  0
   58.6250   28.5010   45.1950 C   0  0  0  0  0  0  0  0  0  0  0  0
   58.1620   26.9520   45.6540 S   0  0  0  0  0  0  0  0  0  0  0  0
   56.5180   27.3180   45.6290 C   0  0  0  0  0  0  0  0  0  0  0  0
   55.5350   26.5240   45.9450 N   0  0  0  0  0  0  0  0  0  0  0  0
   55.5240   25.0890   46.0120 C   0  0  0  0  0  0  0  0  0  0  0  0
   55.8780   24.5390   47.0870 O   0  0  0  0  0  0  0  0  0  0  0  0
   54.9810   24.2220   44.9040 C   0  0  0  0  0  0  0  0  0  0  0  0
   54.1306   24.7388   44.4352 H   0  0  0  0  0  0  0  0  0  0  0  0
   54.6744   23.2631   45.3474 H   0  0  0  0  0  0  0  0  0  0  0  0
   56.0330   23.9250   43.8260 C   0  0  0  0  0  0  0  0  0  0  0  0
   56.3717   24.8759   43.3890 H   0  0  0  0  0  0  0  0  0  0  0  0
   55.5674   23.2807   43.0657 H   0  0  0  0  0  0  0  0  0  0  0  0
   57.2230   23.1970   44.3850 C   0  0  0  0  0  0  0  0  0  0  0  0
   58.3890   23.8050   44.6910 N   0  0  0  0  0  0  0  0  0  0  0  0
   59.1370   22.8080   45.2080 C   0  0  0  0  0  0  0  0  0  0  0  0
   60.3130   22.9790   45.6220 O   0  0  0  0  0  0  0  0  0  0  0  0
   58.5100   21.6180   45.2490 N   0  0  0  0  0  0  0  0  0  0  0  0
   58.8800   20.7150   45.6200 H   0  0  0  0  0  0  0  0  0  0  0  0
   57.2970   21.8550   44.7220 C   0  0  0  0  0  0  0  0  0  0  0  0
   56.2090   20.8340   44.6240 C   0  0  0  0  0  0  0  0  0  0  0  0
   55.8926   20.5371   45.6348 H   0  0  0  0  0  0  0  0  0  0  0  0
   55.3524   21.2618   44.0825 H   0  0  0  0  0  0  0  0  0  0  0  0
   56.5816   19.9520   44.0825 H   0  0  0  0  0  0  0  0  0  0  0  0
   56.3080   28.6070   45.2920 N   0  0  0  0  0  0  0  0  0  0  0  0
   57.4710   29.2730   45.0510 C   0  0  0  0  0  0  0  0  0  0  0  0
   57.5000   30.6900   44.6340 C   0  0  0  0  0  0  0  0  0  0  0  0
   57.4700   30.9600   43.4010 O   0  0  0  0  0  0  0  0  0  0  0  0
   57.5580   31.7670   45.5930 N   0  0  0  0  0  0  0  0  0  0  0  0
   56.9920   33.0770   45.2280 C   0  0  0  0  0  0  0  0  0  0  0  0
   56.3220   32.9547   44.3642 H   0  0  0  0  0  0  0  0  0  0  0  0
   56.4318   33.4761   46.0864 H   0  0  0  0  0  0  0  0  0  0  0  0
   58.1090   34.0560   44.8650 C   0  0  0  0  0  0  0  0  0  0  0  0
   58.6175   33.7097   43.9531 H   0  0  0  0  0  0  0  0  0  0  0  0
   57.6787   35.0531   44.6901 H   0  0  0  0  0  0  0  0  0  0  0  0
   59.2850   34.1440   46.2040 S   0  0  0  0  0  0  0  0  0  0  0  0
   60.6590   33.8040   45.7010 O   0  0  0  0  0  0  0  0  0  0  0  0
   59.2930   35.5270   46.7920 O   0  0  0  0  0  0  0  0  0  0  0  0
   58.7860   32.9640   47.4440 C   0  0  0  0  0  0  0  0  0  0  0  0
   59.6167   32.8050   48.1473 H   0  0  0  0  0  0  0  0  0  0  0  0
   57.9079   33.3579   47.9767 H   0  0  0  0  0  0  0  0  0  0  0  0
   58.4120   31.6250   46.7930 C   0  0  0  0  0  0  0  0  0  0  0  0
   59.3389   31.1095   46.5010 H   0  0  0  0  0  0  0  0  0  0  0  0
   57.8327   31.0564   47.5354 H   0  0  0  0  0  0  0  0  0  0  0  0
  1  2  1  0
  2  3  1  0
  3  4  1  0
  4  5  2  0
  5  6  1  0
  6  7  2  0
  6  8  1  0
  8  9  1  0
  8 10  1  0
  8 11  1  0
 11 12  1  0
 11 13  1  0
 11 14  1  0
 14 15  1  0
 15 16  1  0
 16 17  2  0
 16 18  1  0
 18 19  1  0
 18 20  1  0
 20 21  1  0
 21 22  1  0
 21 23  1  0
 21 24  1  0
  4 25  1  0
 25 26  1  0
 26 27  1  0
 27 28  2  0
 27 29  1  0
 29 30  1  0
 30 31  1  0
 30 32  1  0
 30 33  1  0
 33 34  1  0
 33 35  1  0
 33 36  1  0
 36 37  2  0
 36 38  2  0
 36 39  1  0
 39 40  1  0
 39 41  1  0
 39 42  1  0
 42 43  1  0
 42 44  1  0
 26  2  2  0
 42 29  1  0
 20 14  2  0
M  CHG  2  15  -1  25  -1
M  END
>  <UniqueID>  (60) 
56

>  <SMILES>  (60) 
Cc1[nH]c(=O)[n-]c1CCC(=O)/N=c1/[n-]c(C(=O)N2CCS(=O)(=O)CC2)cs1

>  <Energy>  (60) 
105.7602147744258

>  <Genealogy>  (60) 
Cc1[nH]c(=O)[n-]c1CCC(=O)N=c1[n-]c(C(=O)N2CCS(=O)(=O)CC2)cs1 (protonated)
Cc1[nH]c(=O)[n-]c1CCC(=O)/N=c1/[n-]c(C(=O)N2CCS(=O)(=O)CC2)cs1 (cis-trans isomerization)
Cc1[nH]c(=O)[n-]c1CCC(=O)/N=c1/[n-]c(C(=O)N2CCS(=O)(=O)CC2)cs1 (3D coordinates assigned)
Cc1[nH]c(=O)[n-]c1CCC(=O)/N=c1/[n-]c(C(=O)N2CCS(=O)(=O)CC2)cs1 (nonaromatic ring conformer: 105.7602147744258 kcal/mol)

>  <smiles>  (60) 
Cc1[nH]c(=O)[nH]c1CCC(=O)N=c1[nH]c(C(=O)N2CCS(=O)(=O)CC2)cs1

>  <score_type>  (60) 
oracle

>  <origin>  (60) 
adg

>  <m_score__min__energy>  (60) 
-12.65

>  <m_primary>  (60) 
energy

$$$$
60:0
     RDKit          3D

 40 42  0  0  0  0  0  0  0  0999 V2000
   54.7620   27.4820   46.3490 H   0  0  0  0  0  0  0  0  0  0  0  0
   55.0990   26.6990   45.8030 O   0  0  0  0  0  0  0  0  0  0  0  0
   56.0810   25.8530   46.3080 C   0  0  0  0  0  0  0  0  0  0  0  0
   55.8670   24.9520   47.2800 N   0  0  0  0  0  0  0  0  0  0  0  0
   57.0950   24.4210   47.4660 C   0  0  0  0  0  0  0  0  0  0  0  0
   57.3220   23.5230   48.3180 O   0  0  0  0  0  0  0  0  0  0  0  0
   58.0620   24.9360   46.6760 N   0  0  0  0  0  0  0  0  0  0  0  0
   57.4030   25.8290   45.9200 C   0  0  0  0  0  0  0  0  0  0  0  0
   58.0660   26.7380   44.9710 C   0  0  0  0  0  0  0  0  0  0  0  0
   58.7831   26.2927   44.2657 H   0  0  0  0  0  0  0  0  0  0  0  0
   57.8700   28.0690   44.8920 C   0  0  0  0  0  0  0  0  0  0  0  0
   57.4120   28.6930   43.7440 C   0  0  0  0  0  0  0  0  0  0  0  0
   57.1015   28.2019   42.8100 H   0  0  0  0  0  0  0  0  0  0  0  0
   57.4200   30.0490   43.9970 C   0  0  0  0  0  0  0  0  0  0  0  0
   57.0210   31.1030   43.0090 C   0  0  0  0  0  0  0  0  0  0  0  0
   56.6813   32.0002   43.5471 H   0  0  0  0  0  0  0  0  0  0  0  0
   57.8844   31.3591   42.3774 H   0  0  0  0  0  0  0  0  0  0  0  0
   56.2044   30.7232   42.3774 H   0  0  0  0  0  0  0  0  0  0  0  0
   57.8320   30.2910   45.2610 N   0  0  0  0  0  0  0  0  0  0  0  0
   57.9360   31.5920   45.8700 C   0  0  0  0  0  0  0  0  0  0  0  0
   56.9220   32.3420   45.8980 O   0  0  0  0  0  0  0  0  0  0  0  0
   59.2100   32.0680   46.4620 C   0  0  0  0  0  0  0  0  0  0  0  0
   59.8570   31.2820   47.4320 C   0  0  0  0  0  0  0  0  0  0  0  0
   59.4038   30.3334   47.7558 H   0  0  0  0  0  0  0  0  0  0  0  0
   61.0700   31.6950   47.9880 C   0  0  0  0  0  0  0  0  0  0  0  0
   61.5656   31.0659   48.7421 H   0  0  0  0  0  0  0  0  0  0  0  0
   61.6600   32.8990   47.5960 C   0  0  0  0  0  0  0  0  0  0  0  0
   62.8820   33.2650   48.1790 O   0  0  0  0  0  0  0  0  0  0  0  0
   64.0890   33.4730   47.4540 C   0  0  0  0  0  0  0  0  0  0  0  0
   64.9205   33.6163   48.1597 H   0  0  0  0  0  0  0  0  0  0  0  0
   64.2922   32.5966   46.8210 H   0  0  0  0  0  0  0  0  0  0  0  0
   63.9871   34.3668   46.8210 H   0  0  0  0  0  0  0  0  0  0  0  0
   61.0110   33.6990   46.6370 C   0  0  0  0  0  0  0  0  0  0  0  0
   61.4651   34.6506   46.3236 H   0  0  0  0  0  0  0  0  0  0  0  0
   59.7940   33.2950   46.0790 C   0  0  0  0  0  0  0  0  0  0  0  0
   59.1650   34.1330   45.1660 O   0  0  0  0  0  0  0  0  0  0  0  0
   58.0680   29.0850   45.8400 C   0  0  0  0  0  0  0  0  0  0  0  0
   58.2870   28.9270   47.1570 C   0  0  0  0  0  0  0  0  0  0  0  0
   58.4283   29.8078   47.8006 H   0  0  0  0  0  0  0  0  0  0  0  0
   58.3249   27.9169   47.5910 H   0  0  0  0  0  0  0  0  0  0  0  0
  1  2  1  0
  2  3  1  0
  3  4  1  0
  4  5  1  0
  5  6  2  0
  5  7  1  0
  7  8  1  0
  8  9  1  0
  9 10  1  0
  9 11  2  0
 11 12  1  0
 12 13  1  0
 12 14  2  0
 14 15  1  0
 15 16  1  0
 15 17  1  0
 15 18  1  0
 14 19  1  0
 19 20  1  0
 20 21  2  0
 20 22  1  0
 22 23  2  0
 23 24  1  0
 23 25  1  0
 25 26  1  0
 25 27  2  0
 27 28  1  0
 28 29  1  0
 29 30  1  0
 29 31  1  0
 29 32  1  0
 27 33  1  0
 33 34  1  0
 33 35  2  0
 35 36  1  0
 19 37  1  0
 37 38  2  0
 38 39  1  0
 38 40  1  0
  8  3  2  0
 37 11  1  0
 35 22  1  0
M  CHG  3   4  -1   7  -1  36  -1
M  END
>  <UniqueID>  (61) 
57

>  <SMILES>  (61) 
C=c1/c(=C\c2[n-]c(=O)[n-]c2O)cc(C)n1C(=O)c1ccc(OC)cc1[O-]

>  <Energy>  (61) 
118.11043540233774

>  <Genealogy>  (61) 
C=c1c(=Cc2[n-]c(=O)[n-]c2O)cc(C)n1C(=O)c1ccc(OC)cc1[O-] (protonated)
C=c1/c(=C\c2[n-]c(=O)[n-]c2O)cc(C)n1C(=O)c1ccc(OC)cc1[O-] (cis-trans isomerization)
C=c1/c(=C\c2[n-]c(=O)[n-]c2O)cc(C)n1C(=O)c1ccc(OC)cc1[O-] (3D coordinates assigned)
C=c1/c(=C\c2[n-]c(=O)[n-]c2O)cc(C)n1C(=O)c1ccc(OC)cc1[O-] (optimized conformer: 118.11043540233774 kcal/mol)

>  <smiles>  (61) 
C=c1c(=Cc2[nH]c(=O)[nH]c2O)cc(C)n1C(=O)c1ccc(OC)cc1O

>  <score_type>  (61) 
oracle

>  <origin>  (61) 
adg

>  <m_score__min__energy>  (61) 
-13.57

>  <m_primary>  (61) 
energy

$$$$
61:0
     RDKit          3D

 44 47  0  0  0  0  0  0  0  0999 V2000
   55.1410   28.6320   45.6310 H   0  0  0  0  0  0  0  0  0  0  0  0
   55.1560   29.3390   44.8610 N   0  0  0  0  0  0  0  0  0  0  0  0
   56.8060   29.5340   44.3910 S   0  0  0  0  0  0  0  0  0  0  0  0
   56.8960   29.6260   42.8940 O   0  0  0  0  0  0  0  0  0  0  0  0
   57.6010   28.3440   44.8480 O   0  0  0  0  0  0  0  0  0  0  0  0
   57.4550   31.0010   45.1180 C   0  0  0  0  0  0  0  0  0  0  0  0
   57.1300   32.2560   44.5860 C   0  0  0  0  0  0  0  0  0  0  0  0
   56.4686   32.3266   43.7099 H   0  0  0  0  0  0  0  0  0  0  0  0
   57.6450   33.4180   45.1670 C   0  0  0  0  0  0  0  0  0  0  0  0
   57.3762   34.4023   44.7560 H   0  0  0  0  0  0  0  0  0  0  0  0
   58.5000   33.3330   46.2680 C   0  0  0  0  0  0  0  0  0  0  0  0
   58.8889   34.2514   46.7321 H   0  0  0  0  0  0  0  0  0  0  0  0
   58.8660   32.0760   46.7860 C   0  0  0  0  0  0  0  0  0  0  0  0
   59.7220   31.9440   47.9350 N   0  0  0  0  0  0  0  0  0  0  0  0
   59.5890   31.0960   48.9130 C   0  0  0  0  0  0  0  0  0  0  0  0
   58.4890   31.1060   49.7130 N   0  0  0  0  0  0  0  0  0  0  0  0
   58.3810   30.2290   50.7410 C   0  0  0  0  0  0  0  0  0  0  0  0
   57.2200   30.2410   51.5660 N   0  0  0  0  0  0  0  0  0  0  0  0
   56.0560   31.1150   51.7880 C   0  0  0  0  0  0  0  0  0  0  0  0
   56.3370   32.1099   52.1637 H   0  0  0  0  0  0  0  0  0  0  0  0
   55.4460   31.3716   50.9093 H   0  0  0  0  0  0  0  0  0  0  0  0
   55.4170   30.2600   52.8370 C   0  0  0  0  0  0  0  0  0  0  0  0
   55.1018   30.6320   53.8230 H   0  0  0  0  0  0  0  0  0  0  0  0
   54.2080   29.6480   52.3910 O   0  0  0  0  0  0  0  0  0  0  0  0
   53.2400   30.2870   51.6030 C   0  0  0  0  0  0  0  0  0  0  0  0
   52.7750   31.5440   52.0090 C   0  0  0  0  0  0  0  0  0  0  0  0
   53.1721   32.0030   52.9264 H   0  0  0  0  0  0  0  0  0  0  0  0
   51.8090   32.2200   51.2560 C   0  0  0  0  0  0  0  0  0  0  0  0
   51.4498   33.2071   51.5825 H   0  0  0  0  0  0  0  0  0  0  0  0
   51.3000   31.6430   50.0900 C   0  0  0  0  0  0  0  0  0  0  0  0
   50.3640   32.2990   49.3600 F   0  0  0  0  0  0  0  0  0  0  0  0
   51.7570   30.3890   49.6760 C   0  0  0  0  0  0  0  0  0  0  0  0
   51.3560   29.9343   48.7582 H   0  0  0  0  0  0  0  0  0  0  0  0
   52.7230   29.7110   50.4260 C   0  0  0  0  0  0  0  0  0  0  0  0
   53.0804   28.7245   50.0958 H   0  0  0  0  0  0  0  0  0  0  0  0
   56.6060   29.3860   52.5990 C   0  0  0  0  0  0  0  0  0  0  0  0
   57.2390   29.2769   53.4920 H   0  0  0  0  0  0  0  0  0  0  0  0
   56.4126   28.3365   52.3324 H   0  0  0  0  0  0  0  0  0  0  0  0
   59.3770   29.3400   50.9800 N   0  0  0  0  0  0  0  0  0  0  0  0
   60.4820   29.3320   50.1930 C   0  0  0  0  0  0  0  0  0  0  0  0
   61.2917   28.6136   50.3886 H   0  0  0  0  0  0  0  0  0  0  0  0
   60.5880   30.2110   49.1640 N   0  0  0  0  0  0  0  0  0  0  0  0
   58.3190   30.9170   46.2190 C   0  0  0  0  0  0  0  0  0  0  0  0
   58.5697   29.9328   46.6415 H   0  0  0  0  0  0  0  0  0  0  0  0
  1  2  1  0
  2  3  1  0
  3  4  2  0
  3  5  2  0
  3  6  1  0
  6  7  2  0
  7  8  1  0
  7  9  1  0
  9 10  1  0
  9 11  2  0
 11 12  1  0
 11 13  1  0
 13 14  1  0
 14 15  2  0
 15 16  1  0
 16 17  2  0
 17 18  1  0
 18 19  1  0
 19 20  1  0
 19 21  1  0
 19 22  1  0
 22 23  1  0
 22 24  1  0
 24 25  1  0
 25 26  2  0
 26 27  1  0
 26 28  1  0
 28 29  1  0
 28 30  2  0
 30 31  1  0
 30 32  1  0
 32 33  1  0
 32 34  2  0
 34 35  1  0
 22 36  1  0
 36 37  1  0
 36 38  1  0
 17 39  1  0
 39 40  2  0
 40 41  1  0
 40 42  1  0
 13 43  2  0
 43 44  1  0
 43  6  1  0
 42 15  1  0
 36 18  1  0
 34 25  1  0
M  CHG  2   2  -1  42  -1
M  END
>  <UniqueID>  (62) 
58

>  <SMILES>  (62) 
[NH-]S(=O)(=O)c1cccc(/N=c2\nc(N3CC(Oc4ccc(F)cc4)C3)nc[n-]2)c1

>  <Energy>  (62) 
98.1769034861814

>  <Genealogy>  (62) 
[NH-]S(=O)(=O)c1cccc(N=c2nc(N3CC(Oc4ccc(F)cc4)C3)nc[n-]2)c1 (protonated)
[NH-]S(=O)(=O)c1cccc(/N=c2\nc(N3CC(Oc4ccc(F)cc4)C3)nc[n-]2)c1 (cis-trans isomerization)
[NH-]S(=O)(=O)c1cccc(/N=c2\nc(N3CC(Oc4ccc(F)cc4)C3)nc[n-]2)c1 (3D coordinates assigned)
[NH-]S(=O)(=O)c1cccc(/N=c2\nc(N3CC(Oc4ccc(F)cc4)C3)nc[n-]2)c1 (nonaromatic ring conformer: 98.1769034861814 kcal/mol)

>  <smiles>  (62) 
NS(=O)(=O)c1cccc(N=c2nc(N3CC(Oc4ccc(F)cc4)C3)nc[nH]2)c1

>  <score_type>  (62) 
oracle

>  <origin>  (62) 
adg

>  <m_score__min__energy>  (62) 
-12.42

>  <m_primary>  (62) 
energy

$$$$
62:0
     RDKit          3D

 60 62  0  0  0  0  0  0  0  0999 V2000
   59.2900   34.3460   46.3080 C   0  0  0  0  0  0  0  0  0  0  0  0
   57.8540   33.8040   46.2310 C   0  0  0  0  0  0  0  0  0  0  0  0
   57.2360   34.1850   44.8770 C   0  0  0  0  0  0  0  0  0  0  0  0
   57.8330   32.2640   46.4480 C   0  0  1  0  0  0  0  0  0  0  0  0
   58.0040   31.5360   45.1860 N   0  0  0  0  0  0  0  0  0  0  0  0
   57.1630   30.4600   44.7620 C   0  0  0  0  0  0  0  0  0  0  0  0
   56.0570   30.7130   44.2130 O   0  0  0  0  0  0  0  0  0  0  0  0
   57.6240   29.0640   44.9040 C   0  0  0  0  0  0  0  0  0  0  0  0
   58.9860   28.7440   44.7580 C   0  0  0  0  0  0  0  0  0  0  0  0
   59.4330   27.4430   45.0030 C   0  0  0  0  0  0  0  0  0  0  0  0
   58.5290   26.4510   45.3900 C   0  0  0  0  0  0  0  0  0  0  0  0
   57.1650   26.7520   45.5250 C   0  0  0  0  0  0  0  0  0  0  0  0
   56.0150   25.5080   46.0310 S   0  0  0  0  0  0  0  0  0  0  0  0
   56.3120   25.1380   47.4600 O   0  0  0  0  0  0  0  0  0  0  0  0
   54.6220   26.0710   45.9770 O   0  0  0  0  0  0  0  0  0  0  0  0
   56.0630   24.0850   45.0100 N   0  0  0  0  0  0  0  0  0  0  0  0
   56.7070   24.3750   43.7210 C   0  0  0  0  0  0  0  0  0  0  0  0
   56.6390   23.1280   42.8140 C   0  0  0  0  0  0  0  0  0  0  0  0
   56.2710   21.9540   43.5210 O   0  0  0  0  0  0  0  0  0  0  0  0
   57.0520   21.8270   44.6940 C   0  0  0  0  0  0  0  0  0  0  0  0
   56.7400   22.9650   45.6880 C   0  0  0  0  0  0  0  0  0  0  0  0
   56.7180   28.0540   45.2680 C   0  0  0  0  0  0  0  0  0  0  0  0
   58.8600   31.7930   47.4550 C   0  0  0  0  0  0  0  0  0  0  0  0
   58.7650   32.1760   48.6520 O   0  0  0  0  0  0  0  0  0  0  0  0
   59.9180   30.8980   47.0710 N   0  0  0  0  0  0  0  0  0  0  0  0
   60.8840   30.3640   48.0280 C   0  0  0  0  0  0  0  0  0  0  0  0
   62.0300   31.3250   48.2120 C   0  0  0  0  0  0  0  0  0  0  0  0
   62.3620   32.2320   47.1930 C   0  0  0  0  0  0  0  0  0  0  0  0
   63.4270   33.1230   47.3640 C   0  0  0  0  0  0  0  0  0  0  0  0
   63.7360   34.0020   46.3790 F   0  0  0  0  0  0  0  0  0  0  0  0
   64.1650   33.1140   48.5500 C   0  0  0  0  0  0  0  0  0  0  0  0
   63.8440   32.2130   49.5670 C   0  0  0  0  0  0  0  0  0  0  0  0
   62.7780   31.3220   49.4040 C   0  0  0  0  0  0  0  0  0  0  0  0
   62.4780   30.4590   50.4060 F   0  0  0  0  0  0  0  0  0  0  0  0
   59.5840   34.4570   47.3622 H   0  0  0  0  0  0  0  0  0  0  0  0
   59.9741   33.6442   45.8085 H   0  0  0  0  0  0  0  0  0  0  0  0
   59.3398   35.3248   45.8085 H   0  0  0  0  0  0  0  0  0  0  0  0
   57.2523   34.2558   47.0334 H   0  0  0  0  0  0  0  0  0  0  0  0
   56.3105   34.7556   45.0439 H   0  0  0  0  0  0  0  0  0  0  0  0
   57.9489   34.8006   44.3088 H   0  0  0  0  0  0  0  0  0  0  0  0
   57.0062   33.2716   44.3088 H   0  0  0  0  0  0  0  0  0  0  0  0
   56.8380   32.0393   46.8596 H   0  0  0  0  0  0  0  0  0  0  0  0
   59.7016   29.5206   44.4499 H   0  0  0  0  0  0  0  0  0  0  0  0
   60.4998   27.1993   44.8908 H   0  0  0  0  0  0  0  0  0  0  0  0
   58.8875   25.4304   45.5896 H   0  0  0  0  0  0  0  0  0  0  0  0
   56.1865   25.2117   43.2321 H   0  0  0  0  0  0  0  0  0  0  0  0
   57.7597   24.6445   43.8919 H   0  0  0  0  0  0  0  0  0  0  0  0
   55.8968   23.3090   42.0225 H   0  0  0  0  0  0  0  0  0  0  0  0
   57.6448   22.9640   42.3999 H   0  0  0  0  0  0  0  0  0  0  0  0
   56.8308   20.8610   45.1713 H   0  0  0  0  0  0  0  0  0  0  0  0
   58.1150   21.8836   44.4168 H   0  0  0  0  0  0  0  0  0  0  0  0
   56.0870   22.5785   46.4844 H   0  0  0  0  0  0  0  0  0  0  0  0
   57.6870   23.3313   46.1113 H   0  0  0  0  0  0  0  0  0  0  0  0
   55.6465   28.2882   45.3520 H   0  0  0  0  0  0  0  0  0  0  0  0
   59.9980   30.5910   46.0770 H   0  0  0  0  0  0  0  0  0  0  0  0
   60.3854   30.2055   48.9956 H   0  0  0  0  0  0  0  0  0  0  0  0
   61.2766   29.4111   47.6435 H   0  0  0  0  0  0  0  0  0  0  0  0
   61.7832   32.2421   46.2577 H   0  0  0  0  0  0  0  0  0  0  0  0
   65.0000   33.8176   48.6828 H   0  0  0  0  0  0  0  0  0  0  0  0
   64.4302   32.2037   50.4978 H   0  0  0  0  0  0  0  0  0  0  0  0
  1  2  1  0
  2  3  1  0
  2  4  1  0
  4  5  1  0
  5  6  1  0
  6  7  2  0
  6  8  1  0
  8  9  2  0
  9 10  1  0
 10 11  2  0
 11 12  1  0
 12 13  1  0
 13 14  2  0
 13 15  2  0
 13 16  1  0
 16 17  1  0
 17 18  1  0
 18 19  1  0
 19 20  1  0
 20 21  1  0
 12 22  2  0
  4 23  1  0
 23 24  2  0
 23 25  1  0
 25 26  1  0
 26 27  1  0
 27 28  2  0
 28 29  1  0
 29 30  1  0
 29 31  2  0
 31 32  1  0
 32 33  2  0
 33 34  1  0
 22  8  1  0
 33 27  1  0
 21 16  1  0
  1 35  1  0
  1 36  1  0
  1 37  1  0
  2 38  1  0
  3 39  1  0
  3 40  1  0
  3 41  1  0
  4 42  1  1
  9 43  1  0
 10 44  1  0
 11 45  1  0
 17 46  1  0
 17 47  1  0
 18 48  1  0
 18 49  1  0
 20 50  1  0
 20 51  1  0
 21 52  1  0
 21 53  1  0
 22 54  1  0
 25 55  1  0
 26 56  1  0
 26 57  1  0
 28 58  1  0
 31 59  1  0
 32 60  1  0
M  CHG  1   5  -1
M  END
>  <UniqueID>  (63) 
59

>  <SMILES>  (63) 
CC(C)[C@@H]([N-]C(=O)c1cccc(S(=O)(=O)N2CCOCC2)c1)C(=O)NCc1cc(F)ccc1F

>  <Energy>  (63) 
66.71653549717719

>  <Genealogy>  (63) 
CC(C)C([N-]C(=O)c1cccc(S(=O)(=O)N2CCOCC2)c1)C(=O)NCc1cc(F)ccc1F (protonated)
CC(C)[C@@H]([N-]C(=O)c1cccc(S(=O)(=O)N2CCOCC2)c1)C(=O)NCc1cc(F)ccc1F (chirality)
CC(C)[C@@H]([N-]C(=O)c1cccc(S(=O)(=O)N2CCOCC2)c1)C(=O)NCc1cc(F)ccc1F (3D coordinates assigned)
CC(C)[C@@H]([N-]C(=O)c1cccc(S(=O)(=O)N2CCOCC2)c1)C(=O)NCc1cc(F)ccc1F (nonaromatic ring conformer: 66.71653549717719 kcal/mol)

>  <smiles>  (63) 
CC(C)C(NC(=O)c1cccc(S(=O)(=O)N2CCOCC2)c1)C(=O)NCc1cc(F)ccc1F

>  <score_type>  (63) 
oracle

>  <origin>  (63) 
adg

>  <m_score__min__energy>  (63) 
-12.33

>  <m_primary>  (63) 
energy

$$$$
63:0
     RDKit          3D

 42 44  0  0  0  0  0  0  0  0999 V2000
   55.5170   25.8510   45.9730 N   0  0  0  0  0  0  0  0  0  0  0  0
   57.1930   25.6260   46.3290 S   0  0  0  0  0  0  0  0  0  0  0  0
   57.3760   25.4760   47.8130 O   0  0  0  0  0  0  0  0  0  0  0  0
   57.6830   24.3750   45.6550 O   0  0  0  0  0  0  0  0  0  0  0  0
   58.1130   27.0150   45.7570 C   0  0  0  0  0  0  0  0  0  0  0  0
   59.5150   26.9880   45.7700 C   0  0  0  0  0  0  0  0  0  0  0  0
   60.2410   28.0920   45.3160 C   0  0  0  0  0  0  0  0  0  0  0  0
   59.5730   29.2260   44.8450 C   0  0  0  0  0  0  0  0  0  0  0  0
   58.1710   29.2580   44.8240 C   0  0  0  0  0  0  0  0  0  0  0  0
   57.3140   30.6890   44.2590 S   0  0  0  0  0  0  0  0  0  0  0  0
   57.3490   30.7600   42.7570 O   0  0  0  0  0  0  0  0  0  0  0  0
   55.8830   30.5950   44.7050 O   0  0  0  0  0  0  0  0  0  0  0  0
   58.0260   32.1250   44.9440 N   0  0  0  0  0  0  0  0  0  0  0  0
   57.0160   33.1180   45.3170 C   0  0  0  0  0  0  0  0  0  0  0  0
   57.4090   33.8550   46.5990 C   0  0  0  0  0  0  0  0  0  0  0  0
   58.7930   33.5540   46.9490 N   0  0  0  0  0  0  0  0  0  0  0  0
   59.9540   34.1790   46.3940 C   0  0  0  0  0  0  0  0  0  0  0  0
   59.8930   35.1740   45.6210 O   0  0  0  0  0  0  0  0  0  0  0  0
   61.2100   33.5340   46.7960 C   0  0  0  0  0  0  0  0  0  0  0  0
   62.5090   33.9030   46.4340 C   0  0  0  0  0  0  0  0  0  0  0  0
   63.5860   33.1450   46.9210 C   0  0  0  0  0  0  0  0  0  0  0  0
   63.3550   32.0350   47.7580 C   0  0  0  0  0  0  0  0  0  0  0  0
   62.0460   31.6750   48.1120 C   0  0  0  0  0  0  0  0  0  0  0  0
   60.9900   32.4390   47.6190 C   0  0  0  0  0  0  0  0  0  0  0  0
   59.2890   32.1990   47.8990 S   0  0  0  0  0  0  0  0  0  0  0  0
   58.9100   32.3680   49.3430 O   0  0  0  0  0  0  0  0  0  0  0  0
   58.7900   30.9050   47.3200 O   0  0  0  0  0  0  0  0  0  0  0  0
   57.4450   28.1460   45.2710 C   0  0  0  0  0  0  0  0  0  0  0  0
   55.1040   26.3860   46.7700 H   0  0  0  0  0  0  0  0  0  0  0  0
   55.4650   26.4740   45.1350 H   0  0  0  0  0  0  0  0  0  0  0  0
   60.0438   26.0965   46.1381 H   0  0  0  0  0  0  0  0  0  0  0  0
   61.3407   28.0688   45.3292 H   0  0  0  0  0  0  0  0  0  0  0  0
   60.1477   30.0943   44.4904 H   0  0  0  0  0  0  0  0  0  0  0  0
   56.9128   33.8483   44.5009 H   0  0  0  0  0  0  0  0  0  0  0  0
   56.0641   32.5959   45.4941 H   0  0  0  0  0  0  0  0  0  0  0  0
   57.3011   34.9385   46.4429 H   0  0  0  0  0  0  0  0  0  0  0  0
   56.7521   33.5263   47.4178 H   0  0  0  0  0  0  0  0  0  0  0  0
   62.6839   34.7703   45.7804 H   0  0  0  0  0  0  0  0  0  0  0  0
   64.6156   33.4191   46.6477 H   0  0  0  0  0  0  0  0  0  0  0  0
   64.2052   31.4480   48.1356 H   0  0  0  0  0  0  0  0  0  0  0  0
   61.8575   30.8093   48.7639 H   0  0  0  0  0  0  0  0  0  0  0  0
   56.3455   28.1614   45.2401 H   0  0  0  0  0  0  0  0  0  0  0  0
  1  2  1  0
  2  3  2  0
  2  4  2  0
  2  5  1  0
  5  6  2  0
  6  7  1  0
  7  8  2  0
  8  9  1  0
  9 10  1  0
 10 11  2  0
 10 12  2  0
 10 13  1  0
 13 14  1  0
 14 15  1  0
 15 16  1  0
 16 17  1  0
 17 18  2  0
 17 19  1  0
 19 20  2  0
 20 21  1  0
 21 22  2  0
 22 23  1  0
 23 24  2  0
 24 25  1  0
 25 26  2  0
 25 27  2  0
  9 28  2  0
 28  5  1  0
 25 16  1  0
 24 19  1  0
  1 29  1  0
  1 30  1  0
  6 31  1  0
  7 32  1  0
  8 33  1  0
 14 34  1  0
 14 35  1  0
 15 36  1  0
 15 37  1  0
 20 38  1  0
 21 39  1  0
 22 40  1  0
 23 41  1  0
 28 42  1  0
M  CHG  1  13  -1
M  END
>  <UniqueID>  (64) 
60

>  <SMILES>  (64) 
NS(=O)(=O)c1cccc(S(=O)(=O)[N-]CCN2C(=O)c3ccccc3S2(=O)=O)c1

>  <Energy>  (64) 
61.09628353230543

>  <Genealogy>  (64) 
NS(=O)(=O)c1cccc(S(=O)(=O)[N-]CCN2C(=O)c3ccccc3S2(=O)=O)c1 (protonated)
NS(=O)(=O)c1cccc(S(=O)(=O)[N-]CCN2C(=O)c3ccccc3S2(=O)=O)c1 (3D coordinates assigned)
NS(=O)(=O)c1cccc(S(=O)(=O)[N-]CCN2C(=O)c3ccccc3S2(=O)=O)c1 (nonaromatic ring conformer: 61.09628353230543 kcal/mol)

>  <smiles>  (64) 
NS(=O)(=O)c1cccc(S(=O)(=O)NCCN2C(=O)c3ccccc3S2(=O)=O)c1

>  <score_type>  (64) 
oracle

>  <origin>  (64) 
adg

>  <m_score__min__energy>  (64) 
-11.19

>  <m_primary>  (64) 
energy

$$$$
64:0
     RDKit          3D

 66 70  0  0  0  0  0  0  0  0999 V2000
   54.3220   26.7120   46.7530 H   0  0  0  0  0  0  0  0  0  0  0  0
   54.9330   26.3300   46.0410 O   0  0  0  0  0  0  0  0  0  0  0  0
   55.9820   25.4840   46.3870 C   0  0  0  0  0  0  0  0  0  0  0  0
   55.8130   24.2660   46.9290 N   0  0  0  0  0  0  0  0  0  0  0  0
   57.0790   23.8070   47.0260 C   0  0  0  0  0  0  0  0  0  0  0  0
   57.3530   22.6700   47.4920 O   0  0  0  0  0  0  0  0  0  0  0  0
   58.0270   24.6570   46.5760 N   0  0  0  0  0  0  0  0  0  0  0  0
   57.3220   25.7350   46.1920 C   0  0  0  0  0  0  0  0  0  0  0  0
   57.9340   26.9150   45.5550 C   0  0  0  0  0  0  0  0  0  0  0  0
   58.0004   26.9328   44.4572 H   0  0  0  0  0  0  0  0  0  0  0  0
   58.4170   27.9730   46.2350 C   0  0  0  0  0  0  0  0  0  0  0  0
   58.1990   28.2550   47.5750 C   0  0  0  0  0  0  0  0  0  0  0  0
   57.5712   27.6820   48.2732 H   0  0  0  0  0  0  0  0  0  0  0  0
   58.9220   29.3930   47.8620 C   0  0  0  0  0  0  0  0  0  0  0  0
   58.8720   30.1020   49.1840 C   0  0  0  0  0  0  0  0  0  0  0  0
   58.9240   29.3640   49.9980 H   0  0  0  0  0  0  0  0  0  0  0  0
   59.7236   30.7940   49.2614 H   0  0  0  0  0  0  0  0  0  0  0  0
   57.9317   30.6676   49.2614 H   0  0  0  0  0  0  0  0  0  0  0  0
   59.6190   29.8070   46.7750 N   0  0  0  0  0  0  0  0  0  0  0  0
   60.5130   30.9800   46.7180 C   0  0  0  0  0  0  0  0  0  0  0  0
   60.9380   31.1495   47.7183 H   0  0  0  0  0  0  0  0  0  0  0  0
   61.2986   30.7681   45.9777 H   0  0  0  0  0  0  0  0  0  0  0  0
   59.7860   32.2400   46.2760 C   0  0  0  0  0  0  0  0  0  0  0  0
   58.4650   32.1280   45.8040 C   0  0  0  0  0  0  0  0  0  0  0  0
   57.9726   31.1444   45.7940 H   0  0  0  0  0  0  0  0  0  0  0  0
   57.7720   33.2520   45.3480 C   0  0  0  0  0  0  0  0  0  0  0  0
   56.7438   33.1473   44.9715 H   0  0  0  0  0  0  0  0  0  0  0  0
   58.3800   34.5050   45.3690 C   0  0  0  0  0  0  0  0  0  0  0  0
   57.8356   35.3863   44.9990 H   0  0  0  0  0  0  0  0  0  0  0  0
   59.6790   34.6430   45.8590 C   0  0  0  0  0  0  0  0  0  0  0  0
   60.1520   35.6359   45.8805 H   0  0  0  0  0  0  0  0  0  0  0  0
   60.3870   33.5230   46.3250 C   0  0  0  0  0  0  0  0  0  0  0  0
   61.7280   33.7370   46.8970 C   0  0  0  0  0  0  0  0  0  0  0  0
   62.7010   33.8520   46.1050 O   0  0  0  0  0  0  0  0  0  0  0  0
   61.9570   33.7560   48.3240 N   0  0  0  0  0  0  0  0  0  0  0  0
   63.3330   33.7940   48.8300 C   0  0  0  0  0  0  0  0  0  0  0  0
   63.9379   33.0544   48.2850 H   0  0  0  0  0  0  0  0  0  0  0  0
   63.7361   34.8061   48.6780 H   0  0  0  0  0  0  0  0  0  0  0  0
   63.3730   33.4690   50.3320 C   0  0  0  0  0  0  0  0  0  0  0  0
   64.3831   33.1213   50.5942 H   0  0  0  0  0  0  0  0  0  0  0  0
   63.1128   34.3828   50.8863 H   0  0  0  0  0  0  0  0  0  0  0  0
   62.3950   32.4170   50.6940 N   0  0  0  0  0  0  0  0  0  0  0  0
   62.7140   31.0940   50.1080 C   0  0  0  0  0  0  0  0  0  0  0  0
   62.3861   31.0794   49.0581 H   0  0  0  0  0  0  0  0  0  0  0  0
   63.8003   30.9366   50.1805 H   0  0  0  0  0  0  0  0  0  0  0  0
   62.0230   29.9800   50.8530 C   0  0  0  0  0  0  0  0  0  0  0  0
   61.5240   28.8620   50.1630 C   0  0  0  0  0  0  0  0  0  0  0  0
   61.6279   28.8006   49.0696 H   0  0  0  0  0  0  0  0  0  0  0  0
   60.8960   27.8280   50.8630 C   0  0  0  0  0  0  0  0  0  0  0  0
   60.5061   26.9551   50.3189 H   0  0  0  0  0  0  0  0  0  0  0  0
   60.7620   27.9000   52.2520 C   0  0  0  0  0  0  0  0  0  0  0  0
   60.2667   27.0850   52.8001 H   0  0  0  0  0  0  0  0  0  0  0  0
   61.2580   29.0090   52.9450 C   0  0  0  0  0  0  0  0  0  0  0  0
   61.1526   29.0658   54.0385 H   0  0  0  0  0  0  0  0  0  0  0  0
   61.8880   30.0460   52.2490 C   0  0  0  0  0  0  0  0  0  0  0  0
   62.2789   30.9159   52.7971 H   0  0  0  0  0  0  0  0  0  0  0  0
   60.9930   32.8240   50.4050 C   0  0  0  0  0  0  0  0  0  0  0  0
   60.4305   31.9303   50.0970 H   0  0  0  0  0  0  0  0  0  0  0  0
   60.5987   33.2782   51.3260 H   0  0  0  0  0  0  0  0  0  0  0  0
   60.8610   33.8850   49.2950 C   0  0  0  0  0  0  0  0  0  0  0  0
   59.9005   33.7484   48.7765 H   0  0  0  0  0  0  0  0  0  0  0  0
   60.9075   34.8845   49.7520 H   0  0  0  0  0  0  0  0  0  0  0  0
   59.2790   28.9660   45.7600 C   0  0  0  0  0  0  0  0  0  0  0  0
   59.6740   29.1160   44.4850 C   0  0  0  0  0  0  0  0  0  0  0  0
   60.3576   29.9339   44.2136 H   0  0  0  0  0  0  0  0  0  0  0  0
   59.3138   28.4209   43.7122 H   0  0  0  0  0  0  0  0  0  0  0  0
  1  2  1  0
  2  3  1  0
  3  4  1  0
  4  5  1  0
  5  6  2  0
  5  7  1  0
  7  8  1  0
  8  9  1  0
  9 10  1  0
  9 11  2  0
 11 12  1  0
 12 13  1  0
 12 14  2  0
 14 15  1  0
 15 16  1  0
 15 17  1  0
 15 18  1  0
 14 19  1  0
 19 20  1  0
 20 21  1  0
 20 22  1  0
 20 23  1  0
 23 24  2  0
 24 25  1  0
 24 26  1  0
 26 27  1  0
 26 28  2  0
 28 29  1  0
 28 30  1  0
 30 31  1  0
 30 32  2  0
 32 33  1  0
 33 34  2  0
 33 35  1  0
 35 36  1  0
 36 37  1  0
 36 38  1  0
 36 39  1  0
 39 40  1  0
 39 41  1  0
 39 42  1  0
 42 43  1  0
 43 44  1  0
 43 45  1  0
 43 46  1  0
 46 47  2  0
 47 48  1  0
 47 49  1  0
 49 50  1  0
 49 51  2  0
 51 52  1  0
 51 53  1  0
 53 54  1  0
 53 55  2  0
 55 56  1  0
 42 57  1  0
 57 58  1  0
 57 59  1  0
 57 60  1  0
 60 61  1  0
 60 62  1  0
 19 63  1  0
 63 64  2  0
 64 65  1  0
 64 66  1  0
  8  3  2  0
 63 11  1  0
 32 23  1  0
 60 35  1  0
 55 46  1  0
M  CHG  2   4  -1   7  -1
M  END
>  <UniqueID>  (65) 
61

>  <SMILES>  (65) 
C=c1/c(=C/c2[n-]c(=O)[n-]c2O)cc(C)n1Cc1ccccc1C(=O)N1CCN(Cc2ccccc2)CC1

>  <Energy>  (65) 
148.83140474498236

>  <Genealogy>  (65) 
C=c1c(=Cc2[n-]c(=O)[n-]c2O)cc(C)n1Cc1ccccc1C(=O)N1CCN(Cc2ccccc2)CC1 (protonated)
C=c1/c(=C/c2[n-]c(=O)[n-]c2O)cc(C)n1Cc1ccccc1C(=O)N1CCN(Cc2ccccc2)CC1 (cis-trans isomerization)
C=c1/c(=C/c2[n-]c(=O)[n-]c2O)cc(C)n1Cc1ccccc1C(=O)N1CCN(Cc2ccccc2)CC1 (3D coordinates assigned)
C=c1/c(=C/c2[n-]c(=O)[n-]c2O)cc(C)n1Cc1ccccc1C(=O)N1CCN(Cc2ccccc2)CC1 (nonaromatic ring conformer: 148.83140474498236 kcal/mol)

>  <smiles>  (65) 
C=c1c(=Cc2[nH]c(=O)[nH]c2O)cc(C)n1Cc1ccccc1C(=O)N1CCN(Cc2ccccc2)CC1

>  <score_type>  (65) 
oracle

>  <origin>  (65) 
adg

>  <m_score__min__energy>  (65) 
-14.66

>  <m_primary>  (65) 
energy

$$$$
65:0
     RDKit          3D

 39 41  0  0  0  0  0  0  0  0999 V2000
   55.7672   32.5040   44.6114 H   0  0  0  0  0  0  0  0  0  0  0  0
   56.7080   31.9930   44.8640 C   0  0  0  0  0  0  0  0  0  0  0  0
   57.1240   30.8700   43.9950 C   0  0  0  0  0  0  0  0  0  0  0  0
   57.2110   31.0740   42.7550 O   0  0  0  0  0  0  0  0  0  0  0  0
   57.4850   29.5370   44.5190 C   0  0  0  0  0  0  0  0  0  0  0  0
   58.8370   29.1720   44.6070 C   0  0  0  0  0  0  0  0  0  0  0  0
   59.6168   29.8878   44.3077 H   0  0  0  0  0  0  0  0  0  0  0  0
   59.1990   27.9060   45.0720 C   0  0  0  0  0  0  0  0  0  0  0  0
   60.2605   27.6217   45.1210 H   0  0  0  0  0  0  0  0  0  0  0  0
   58.2150   27.0000   45.4750 C   0  0  0  0  0  0  0  0  0  0  0  0
   58.7110   25.2660   46.1020 Br  0  0  0  0  0  0  0  0  0  0  0  0
   56.8670   27.3670   45.4280 C   0  0  0  0  0  0  0  0  0  0  0  0
   56.0939   26.6581   45.7593 H   0  0  0  0  0  0  0  0  0  0  0  0
   56.4980   28.6330   44.9610 C   0  0  0  0  0  0  0  0  0  0  0  0
   55.1530   28.9860   44.9410 O   0  0  0  0  0  0  0  0  0  0  0  0
   57.3820   32.4400   45.9340 C   0  0  0  0  0  0  0  0  0  0  0  0
   57.1906   31.9533   46.9017 H   0  0  0  0  0  0  0  0  0  0  0  0
   58.3610   33.5390   45.8990 C   0  0  0  0  0  0  0  0  0  0  0  0
   58.4750   34.4550   44.8720 C   0  0  0  0  0  0  0  0  0  0  0  0
   57.9028   34.4657   43.9326 H   0  0  0  0  0  0  0  0  0  0  0  0
   59.4490   35.3550   45.2570 C   0  0  0  0  0  0  0  0  0  0  0  0
   59.8210   36.2098   44.6731 H   0  0  0  0  0  0  0  0  0  0  0  0
   59.8650   34.9740   46.5160 C   0  0  0  0  0  0  0  0  0  0  0  0
   60.6329   35.4913   47.1099 H   0  0  0  0  0  0  0  0  0  0  0  0
   59.1920   33.8740   46.9120 N   0  0  0  0  0  0  0  0  0  0  0  0
   59.2880   33.2510   48.2340 C   0  0  0  0  0  0  0  0  0  0  0  0
   60.0456   33.7828   48.8284 H   0  0  0  0  0  0  0  0  0  0  0  0
   58.3042   33.3108   48.7225 H   0  0  0  0  0  0  0  0  0  0  0  0
   59.6800   31.8020   48.1190 C   0  0  0  0  0  0  0  0  0  0  0  0
   58.9430   30.8140   48.7950 C   0  0  0  0  0  0  0  0  0  0  0  0
   58.0847   31.1026   49.4196 H   0  0  0  0  0  0  0  0  0  0  0  0
   59.2960   29.4660   48.6770 C   0  0  0  0  0  0  0  0  0  0  0  0
   58.7160   28.6973   49.2088 H   0  0  0  0  0  0  0  0  0  0  0  0
   60.3850   29.0950   47.8840 C   0  0  0  0  0  0  0  0  0  0  0  0
   60.6642   28.0348   47.7945 H   0  0  0  0  0  0  0  0  0  0  0  0
   61.1190   30.0700   47.2050 C   0  0  0  0  0  0  0  0  0  0  0  0
   61.9751   29.7767   46.5797 H   0  0  0  0  0  0  0  0  0  0  0  0
   60.7670   31.4190   47.3190 C   0  0  0  0  0  0  0  0  0  0  0  0
   61.3452   32.1831   46.7788 H   0  0  0  0  0  0  0  0  0  0  0  0
  1  2  1  0
  2  3  1  0
  3  4  2  0
  3  5  1  0
  5  6  2  0
  6  7  1  0
  6  8  1  0
  8  9  1  0
  8 10  2  0
 10 11  1  0
 10 12  1  0
 12 13  1  0
 12 14  2  0
 14 15  1  0
  2 16  2  0
 16 17  1  0
 16 18  1  0
 18 19  2  0
 19 20  1  0
 19 21  1  0
 21 22  1  0
 21 23  2  0
 23 24  1  0
 23 25  1  0
 25 26  1  0
 26 27  1  0
 26 28  1  0
 26 29  1  0
 29 30  2  0
 30 31  1  0
 30 32  1  0
 32 33  1  0
 32 34  2  0
 34 35  1  0
 34 36  1  0
 36 37  1  0
 36 38  2  0
 38 39  1  0
 14  5  1  0
 25 18  1  0
 38 29  1  0
M  CHG  1  15  -1
M  END
>  <UniqueID>  (66) 
62

>  <SMILES>  (66) 
O=C(/C=C\c1cccn1Cc1ccccc1)c1ccc(Br)cc1[O-]

>  <Energy>  (66) 
77.73993972397078

>  <Genealogy>  (66) 
O=C(C=Cc1cccn1Cc1ccccc1)c1ccc(Br)cc1[O-] (protonated)
O=C(/C=C\c1cccn1Cc1ccccc1)c1ccc(Br)cc1[O-] (cis-trans isomerization)
O=C(/C=C\c1cccn1Cc1ccccc1)c1ccc(Br)cc1[O-] (3D coordinates assigned)
O=C(/C=C\c1cccn1Cc1ccccc1)c1ccc(Br)cc1[O-] (optimized conformer: 77.73993972397078 kcal/mol)

>  <smiles>  (66) 
O=C(C=Cc1cccn1Cc1ccccc1)c1ccc(Br)cc1O

>  <score_type>  (66) 
oracle

>  <origin>  (66) 
adg

>  <m_score__min__energy>  (66) 
-12.77

>  <m_primary>  (66) 
energy

$$$$
66:0
     RDKit          3D

 45 48  0  0  0  0  0  0  0  0999 V2000
   55.4190   25.6500   46.1020 O   0  0  0  0  0  0  0  0  0  0  0  0
   56.5820   25.6330   45.6230 C   0  0  0  0  0  0  0  0  0  0  0  0
   57.2900   26.8740   45.4920 N   0  0  0  0  0  0  0  0  0  0  0  0
   58.2230   27.4220   46.4350 C   0  0  0  0  0  0  0  0  0  0  0  0
   59.2600   26.6110   46.9080 C   0  0  0  0  0  0  0  0  0  0  0  0
   60.1850   27.1140   47.8240 C   0  0  0  0  0  0  0  0  0  0  0  0
   60.0950   28.4370   48.2650 C   0  0  0  0  0  0  0  0  0  0  0  0
   60.9860   28.8760   49.1900 F   0  0  0  0  0  0  0  0  0  0  0  0
   59.0790   29.2800   47.7720 C   0  0  0  0  0  0  0  0  0  0  0  0
   58.9710   30.6960   48.2030 C   0  0  0  0  0  0  0  0  0  0  0  0
   58.5290   30.9610   49.3550 O   0  0  0  0  0  0  0  0  0  0  0  0
   59.3760   31.7790   47.3470 N   0  0  0  0  0  0  0  0  0  0  0  0
   58.3040   32.5730   46.7250 C   0  0  0  0  0  0  0  0  0  0  0  0
   58.8360   33.4990   45.6270 C   0  0  0  0  0  0  0  0  0  0  0  0
   60.0020   34.3320   46.1550 C   0  0  0  0  0  0  0  0  0  0  0  0
   61.0930   33.4350   46.6710 C   0  0  0  0  0  0  0  0  0  0  0  0
   62.4310   33.8530   46.6100 C   0  0  0  0  0  0  0  0  0  0  0  0
   63.4490   33.0220   47.0800 C   0  0  0  0  0  0  0  0  0  0  0  0
   63.1410   31.7700   47.6120 C   0  0  0  0  0  0  0  0  0  0  0  0
   61.8110   31.3510   47.6950 C   0  0  0  0  0  0  0  0  0  0  0  0
   60.7660   32.1900   47.2530 C   0  0  0  0  0  0  0  0  0  0  0  0
   58.1480   28.7620   46.8550 C   0  0  0  0  0  0  0  0  0  0  0  0
   57.1550   24.3450   45.1770 C   0  0  0  0  0  0  0  0  0  0  0  0
   58.4160   23.9120   45.6110 C   0  0  0  0  0  0  0  0  0  0  0  0
   58.8990   22.6870   45.1490 C   0  0  0  0  0  0  0  0  0  0  0  0
   60.0240   22.2700   45.5320 O   0  0  0  0  0  0  0  0  0  0  0  0
   58.1560   21.9460   44.2820 N   0  0  0  0  0  0  0  0  0  0  0  0
   56.9440   22.3900   43.8530 C   0  0  0  0  0  0  0  0  0  0  0  0
   56.2680   21.7020   43.0430 O   0  0  0  0  0  0  0  0  0  0  0  0
   56.4570   23.5780   44.2970 N   0  0  0  0  0  0  0  0  0  0  0  0
   59.3467   25.5723   46.5564 H   0  0  0  0  0  0  0  0  0  0  0  0
   60.9895   26.4654   48.2010 H   0  0  0  0  0  0  0  0  0  0  0  0
   57.5653   31.8876   46.2839 H   0  0  0  0  0  0  0  0  0  0  0  0
   57.8499   33.2001   47.5064 H   0  0  0  0  0  0  0  0  0  0  0  0
   59.1793   32.8927   44.7758 H   0  0  0  0  0  0  0  0  0  0  0  0
   58.0293   34.1750   45.3071 H   0  0  0  0  0  0  0  0  0  0  0  0
   60.3999   34.9561   45.3412 H   0  0  0  0  0  0  0  0  0  0  0  0
   59.6434   34.9685   46.9773 H   0  0  0  0  0  0  0  0  0  0  0  0
   62.6785   34.8392   46.1902 H   0  0  0  0  0  0  0  0  0  0  0  0
   64.4962   33.3550   47.0308 H   0  0  0  0  0  0  0  0  0  0  0  0
   63.9471   31.1111   47.9670 H   0  0  0  0  0  0  0  0  0  0  0  0
   61.5764   30.3590   48.1083 H   0  0  0  0  0  0  0  0  0  0  0  0
   57.3523   29.4118   46.4617 H   0  0  0  0  0  0  0  0  0  0  0  0
   59.0127   24.5257   46.3019 H   0  0  0  0  0  0  0  0  0  0  0  0
   58.5240   21.0290   43.9380 H   0  0  0  0  0  0  0  0  0  0  0  0
  1  2  2  0
  2  3  1  0
  3  4  1  0
  4  5  2  0
  5  6  1  0
  6  7  2  0
  7  8  1  0
  7  9  1  0
  9 10  1  0
 10 11  2  0
 10 12  1  0
 12 13  1  0
 13 14  1  0
 14 15  1  0
 15 16  1  0
 16 17  2  0
 17 18  1  0
 18 19  2  0
 19 20  1  0
 20 21  2  0
  9 22  2  0
  2 23  1  0
 23 24  2  0
 24 25  1  0
 25 26  2  0
 25 27  1  0
 27 28  1  0
 28 29  2  0
 28 30  1  0
 22  4  1  0
 30 23  1  0
 21 12  1  0
 21 16  1  0
  5 31  1  0
  6 32  1  0
 13 33  1  0
 13 34  1  0
 14 35  1  0
 14 36  1  0
 15 37  1  0
 15 38  1  0
 17 39  1  0
 18 40  1  0
 19 41  1  0
 20 42  1  0
 22 43  1  0
 24 44  1  0
 27 45  1  0
M  CHG  2   3  -1  30  -1
M  END
>  <UniqueID>  (67) 
63

>  <SMILES>  (67) 
O=C([N-]c1ccc(F)c(C(=O)N2CCCc3ccccc32)c1)c1cc(=O)[nH]c(=O)[n-]1

>  <Energy>  (67) 
65.22028894305619

>  <Genealogy>  (67) 
O=C([N-]c1ccc(F)c(C(=O)N2CCCc3ccccc32)c1)c1cc(=O)[nH]c(=O)[n-]1 (protonated)
O=C([N-]c1ccc(F)c(C(=O)N2CCCc3ccccc32)c1)c1cc(=O)[nH]c(=O)[n-]1 (3D coordinates assigned)
O=C([N-]c1ccc(F)c(C(=O)N2CCCc3ccccc32)c1)c1cc(=O)[nH]c(=O)[n-]1 (nonaromatic ring conformer: 65.22028894305619 kcal/mol)

>  <smiles>  (67) 
O=C(Nc1ccc(F)c(C(=O)N2CCCc3ccccc32)c1)c1cc(=O)[nH]c(=O)[nH]1

>  <score_type>  (67) 
oracle

>  <origin>  (67) 
adg

>  <m_score__min__energy>  (67) 
-12.99

>  <m_primary>  (67) 
energy

$$$$
67:0
     RDKit          3D

 50 52  0  0  0  0  0  0  0  0999 V2000
   58.2230   30.6630   47.0020 N   0  0  0  0  0  0  0  0  0  0  0  0
   58.0290   31.4690   45.8220 C   0  0  0  0  0  0  0  0  0  0  0  0
   57.4030   30.8930   44.6880 C   0  0  0  0  0  0  0  0  0  0  0  0
   56.8220   29.5270   44.7340 C   0  0  0  0  0  0  0  0  0  0  0  0
   55.5690   29.3920   44.7450 O   0  0  0  0  0  0  0  0  0  0  0  0
   57.7090   28.3100   44.7190 C   0  0  0  0  0  0  0  0  0  0  0  0
   57.7270   27.6480   46.0210 N   0  0  0  0  0  0  0  0  0  0  0  0
   57.5920   26.2430   46.2980 C   0  0  0  0  0  0  0  0  0  0  0  0
   58.6080   25.5130   46.1560 O   0  0  0  0  0  0  0  0  0  0  0  0
   56.3270   25.6080   46.7300 C   0  0  0  0  0  0  0  0  0  0  0  0
   56.2880   24.8360   47.7240 O   0  0  0  0  0  0  0  0  0  0  0  0
   55.1270   25.8820   46.0000 N   0  0  0  0  0  0  0  0  0  0  0  0
   54.3230   24.8350   45.3830 C   0  0  0  0  0  0  0  0  0  0  0  0
   55.2220   23.8100   44.7720 C   0  0  0  0  0  0  0  0  0  0  0  0
   56.0220   23.9900   43.6490 C   0  0  0  0  0  0  0  0  0  0  0  0
   56.7610   22.8490   43.3130 C   0  0  0  0  0  0  0  0  0  0  0  0
   56.5500   21.7750   44.1690 C   0  0  0  0  0  0  0  0  0  0  0  0
   55.4400   22.2430   45.3440 S   0  0  0  0  0  0  0  0  0  0  0  0
   57.2990   31.6670   43.5250 C   0  0  0  0  0  0  0  0  0  0  0  0
   56.7360   31.2170   42.4920 O   0  0  0  0  0  0  0  0  0  0  0  0
   57.7870   32.9270   43.5070 N   0  0  0  0  0  0  0  0  0  0  0  0
   58.3700   33.4820   44.5940 C   0  0  0  0  0  0  0  0  0  0  0  0
   58.8090   34.6620   44.5030 O   0  0  0  0  0  0  0  0  0  0  0  0
   58.4870   32.7730   45.7660 N   0  0  0  0  0  0  0  0  0  0  0  0
   59.1520   33.4060   46.9290 C   0  0  0  0  0  0  0  0  0  0  0  0
   60.5060   34.0210   46.5420 C   0  0  0  0  0  0  0  0  0  0  0  0
   61.6440   33.3650   47.2800 C   0  0  0  0  0  0  0  0  0  0  0  0
   61.4080   32.2480   48.1010 C   0  0  0  0  0  0  0  0  0  0  0  0
   62.4720   31.6170   48.7530 C   0  0  0  0  0  0  0  0  0  0  0  0
   63.7760   32.0910   48.5850 C   0  0  0  0  0  0  0  0  0  0  0  0
   64.0200   33.1950   47.7630 C   0  0  0  0  0  0  0  0  0  0  0  0
   62.9590   33.8290   47.1100 C   0  0  0  0  0  0  0  0  0  0  0  0
   58.1120   29.6250   46.9740 H   0  0  0  0  0  0  0  0  0  0  0  0
   58.5530   31.0480   47.9110 H   0  0  0  0  0  0  0  0  0  0  0  0
   57.3348   27.6036   43.9634 H   0  0  0  0  0  0  0  0  0  0  0  0
   58.7335   28.6310   44.4795 H   0  0  0  0  0  0  0  0  0  0  0  0
   53.6914   24.3593   46.1477 H   0  0  0  0  0  0  0  0  0  0  0  0
   53.6855   25.2751   44.6020 H   0  0  0  0  0  0  0  0  0  0  0  0
   56.0695   24.9319   43.0828 H   0  0  0  0  0  0  0  0  0  0  0  0
   57.4445   22.8069   42.4521 H   0  0  0  0  0  0  0  0  0  0  0  0
   57.0273   20.7870   44.0917 H   0  0  0  0  0  0  0  0  0  0  0  0
   58.5002   34.1987   47.3248 H   0  0  0  0  0  0  0  0  0  0  0  0
   59.3315   32.6293   47.6870 H   0  0  0  0  0  0  0  0  0  0  0  0
   60.6605   33.8924   45.4605 H   0  0  0  0  0  0  0  0  0  0  0  0
   60.4896   35.0872   46.8123 H   0  0  0  0  0  0  0  0  0  0  0  0
   60.3834   31.8695   48.2307 H   0  0  0  0  0  0  0  0  0  0  0  0
   62.2825   30.7468   49.3987 H   0  0  0  0  0  0  0  0  0  0  0  0
   64.6115   31.5946   49.1003 H   0  0  0  0  0  0  0  0  0  0  0  0
   65.0473   33.5650   47.6300 H   0  0  0  0  0  0  0  0  0  0  0  0
   63.1546   34.6948   46.4603 H   0  0  0  0  0  0  0  0  0  0  0  0
  1  2  1  0
  2  3  2  0
  3  4  1  0
  4  5  2  0
  4  6  1  0
  6  7  1  0
  7  8  1  0
  8  9  2  0
  8 10  1  0
 10 11  2  0
 10 12  1  0
 12 13  1  0
 13 14  1  0
 14 15  2  0
 15 16  1  0
 16 17  2  0
 17 18  1  0
  3 19  1  0
 19 20  2  0
 19 21  1  0
 21 22  1  0
 22 23  2  0
 22 24  1  0
 24 25  1  0
 25 26  1  0
 26 27  1  0
 27 28  2  0
 28 29  1  0
 29 30  2  0
 30 31  1  0
 31 32  2  0
 24  2  1  0
 32 27  1  0
 18 14  1  0
  1 33  1  0
  1 34  1  0
  6 35  1  0
  6 36  1  0
 13 37  1  0
 13 38  1  0
 15 39  1  0
 16 40  1  0
 17 41  1  0
 25 42  1  0
 25 43  1  0
 26 44  1  0
 26 45  1  0
 28 46  1  0
 29 47  1  0
 30 48  1  0
 31 49  1  0
 32 50  1  0
M  CHG  3   7  -1  12  -1  21  -1
M  END
>  <UniqueID>  (68) 
64

>  <SMILES>  (68) 
Nc1c(C(=O)C[N-]C(=O)C(=O)[N-]Cc2cccs2)c(=O)[n-]c(=O)n1CCc1ccccc1

>  <Energy>  (68) 
86.54467809835756

>  <Genealogy>  (68) 
Nc1c(C(=O)C[N-]C(=O)C(=O)[N-]Cc2cccs2)c(=O)[n-]c(=O)n1CCc1ccccc1 (protonated)
Nc1c(C(=O)C[N-]C(=O)C(=O)[N-]Cc2cccs2)c(=O)[n-]c(=O)n1CCc1ccccc1 (3D coordinates assigned)
Nc1c(C(=O)C[N-]C(=O)C(=O)[N-]Cc2cccs2)c(=O)[n-]c(=O)n1CCc1ccccc1 (optimized conformer: 86.54467809835756 kcal/mol)

>  <smiles>  (68) 
Nc1c(C(=O)CNC(=O)C(=O)NCc2cccs2)c(=O)[nH]c(=O)n1CCc1ccccc1

>  <score_type>  (68) 
oracle

>  <origin>  (68) 
adg

>  <m_score__min__energy>  (68) 
-13.43

>  <m_primary>  (68) 
energy

$$$$
68:0
     RDKit          3D

 38 40  0  0  0  0  0  0  0  0999 V2000
   55.4530   29.3930   44.8130 O   0  0  0  0  0  0  0  0  0  0  0  0
   56.6210   29.3590   44.3930 C   0  0  0  0  0  0  0  0  0  0  0  0
   56.8600   29.3130   43.0280 O   0  0  0  0  0  0  0  0  0  0  0  0
   57.7730   29.3680   45.2850 C   0  0  0  0  0  0  0  0  0  0  0  0
   58.0630   28.2780   46.1080 C   0  0  0  0  0  0  0  0  0  0  0  0
   59.1490   28.2750   46.9610 C   0  0  0  0  0  0  0  0  0  0  0  0
   59.9770   29.3930   47.0040 C   0  0  0  0  0  0  0  0  0  0  0  0
   59.6870   30.4660   46.1890 C   0  0  0  0  0  0  0  0  0  0  0  0
   58.5910   30.4690   45.3250 C   0  0  0  0  0  0  0  0  0  0  0  0
   58.3930   31.6720   44.5250 C   0  0  0  0  0  0  0  0  0  0  0  0
   58.0470   31.6230   43.3320 O   0  0  0  0  0  0  0  0  0  0  0  0
   58.6110   32.9150   45.1570 N   0  0  0  0  0  0  0  0  0  0  0  0
   58.4780   34.2090   44.5480 C   0  0  0  0  0  0  0  0  0  0  0  0
   59.2730   35.3040   45.2020 C   0  0  0  0  0  0  0  0  0  0  0  0
   59.9000   34.7160   46.4420 C   0  0  0  0  0  0  0  0  0  0  0  0
   59.1970   34.5270   47.5670 N   0  0  0  0  0  0  0  0  0  0  0  0
   60.0390   34.0150   48.4510 N   0  0  0  0  0  0  0  0  0  0  0  0
   61.2550   33.8830   47.8940 C   0  0  0  0  0  0  0  0  0  0  0  0
   62.4170   33.3640   48.5780 C   0  0  0  0  0  0  0  0  0  0  0  0
   62.9930   33.7440   49.7430 C   0  0  0  0  0  0  0  0  0  0  0  0
   64.0760   33.0950   50.1860 C   0  0  0  0  0  0  0  0  0  0  0  0
   64.5410   32.0440   49.3880 C   0  0  0  0  0  0  0  0  0  0  0  0
   63.3920   31.9860   47.9620 S   0  0  0  0  0  0  0  0  0  0  0  0
   61.1770   34.3220   46.6260 N   0  0  0  0  0  0  0  0  0  0  0  0
   57.7750   29.6000   42.6670 H   0  0  0  0  0  0  0  0  0  0  0  0
   57.4070   27.3956   46.0760 H   0  0  0  0  0  0  0  0  0  0  0  0
   59.3566   27.4019   47.5971 H   0  0  0  0  0  0  0  0  0  0  0  0
   60.8472   29.4197   47.6764 H   0  0  0  0  0  0  0  0  0  0  0  0
   60.3414   31.3496   46.2206 H   0  0  0  0  0  0  0  0  0  0  0  0
   58.8980   32.8960   46.1800 H   0  0  0  0  0  0  0  0  0  0  0  0
   58.8053   34.1285   43.5009 H   0  0  0  0  0  0  0  0  0  0  0  0
   57.4203   34.4915   44.6547 H   0  0  0  0  0  0  0  0  0  0  0  0
   60.0555   35.6629   44.5173 H   0  0  0  0  0  0  0  0  0  0  0  0
   58.6282   36.1581   45.4563 H   0  0  0  0  0  0  0  0  0  0  0  0
   59.7260   33.7760   49.4240 H   0  0  0  0  0  0  0  0  0  0  0  0
   62.5735   34.5805   50.3212 H   0  0  0  0  0  0  0  0  0  0  0  0
   64.5739   33.3727   51.1267 H   0  0  0  0  0  0  0  0  0  0  0  0
   65.4081   31.3937   49.5759 H   0  0  0  0  0  0  0  0  0  0  0  0
  1  2  2  0
  2  3  1  0
  2  4  1  0
  4  5  2  0
  5  6  1  0
  6  7  2  0
  7  8  1  0
  8  9  2  0
  9 10  1  0
 10 11  2  0
 10 12  1  0
 12 13  1  0
 13 14  1  0
 14 15  1  0
 15 16  2  0
 16 17  1  0
 17 18  1  0
 18 19  1  0
 19 20  2  0
 20 21  1  0
 21 22  2  0
 22 23  1  0
 18 24  2  0
  9  4  1  0
 24 15  1  0
 23 19  1  0
  3 25  1  0
  5 26  1  0
  6 27  1  0
  7 28  1  0
  8 29  1  0
 12 30  1  0
 13 31  1  0
 13 32  1  0
 14 33  1  0
 14 34  1  0
 17 35  1  0
 20 36  1  0
 21 37  1  0
 22 38  1  0
M  END
>  <smiles>  (69) 
O=C(O)c1ccccc1C(=O)NCCc1n[nH]c(-c2cccs2)n1

>  <score_type>  (69) 
oracle

>  <origin>  (69) 
adg

>  <m_score__min__energy>  (69) 
-8.7100000000000009

>  <m_primary>  (69) 
energy

$$$$
69:0
     RDKit          3D

 63 66  0  0  0  0  0  0  0  0999 V2000
   60.9638   33.4722   46.0545 H   0  0  0  0  0  0  0  0  0  0  0  0
   61.7410   33.7030   46.7980 C   0  0  0  0  0  0  0  0  0  0  0  0
   61.4130   33.8700   48.0910 C   0  0  0  0  0  0  0  0  0  0  0  0
   59.9820   33.7250   48.5510 C   0  0  0  0  0  0  0  0  0  0  0  0
   59.9145   34.0430   49.6019 H   0  0  0  0  0  0  0  0  0  0  0  0
   59.6957   32.6697   48.4309 H   0  0  0  0  0  0  0  0  0  0  0  0
   59.0120   34.5720   47.7160 C   0  0  0  0  0  0  0  0  0  0  0  0
   59.4919   35.5314   47.4726 H   0  0  0  0  0  0  0  0  0  0  0  0
   58.0966   34.7337   48.3042 H   0  0  0  0  0  0  0  0  0  0  0  0
   58.6460   33.8860   46.4630 N   0  0  0  0  0  0  0  0  0  0  0  0
   58.8110   34.3750   45.1970 C   0  0  0  0  0  0  0  0  0  0  0  0
   59.3310   35.5610   44.8700 C   0  0  0  0  0  0  0  0  0  0  0  0
   59.6624   36.2526   45.6586 H   0  0  0  0  0  0  0  0  0  0  0  0
   59.4279   35.8462   43.8120 H   0  0  0  0  0  0  0  0  0  0  0  0
   58.2830   33.2660   44.0500 S   0  0  0  0  0  0  0  0  0  0  0  0
   57.8490   32.0990   45.1770 C   0  0  0  0  0  0  0  0  0  0  0  0
   57.3340   30.9050   44.8420 C   0  0  0  0  0  0  0  0  0  0  0  0
   56.3416   30.8914   44.3677 H   0  0  0  0  0  0  0  0  0  0  0  0
   58.0050   29.6100   45.0650 C   0  0  0  0  0  0  0  0  0  0  0  0
   58.0800   28.6540   44.0410 C   0  0  0  0  0  0  0  0  0  0  0  0
   57.6690   28.8823   43.0465 H   0  0  0  0  0  0  0  0  0  0  0  0
   58.6740   27.4150   44.2800 C   0  0  0  0  0  0  0  0  0  0  0  0
   58.7412   26.6739   43.4699 H   0  0  0  0  0  0  0  0  0  0  0  0
   59.1840   27.1120   45.5450 C   0  0  0  0  0  0  0  0  0  0  0  0
   59.6546   26.1340   45.7240 H   0  0  0  0  0  0  0  0  0  0  0  0
   59.1000   28.0490   46.5920 C   0  0  0  0  0  0  0  0  0  0  0  0
   59.6190   27.7440   47.9530 C   0  0  0  0  0  0  0  0  0  0  0  0
   59.6880   26.5340   48.3170 O   0  0  0  0  0  0  0  0  0  0  0  0
   60.0690   28.7890   48.8510 N   0  0  0  0  0  0  0  0  0  0  0  0
   60.6400   28.3590   49.6170 H   0  0  0  0  0  0  0  0  0  0  0  0
   60.9460   29.7450   48.1460 C   0  0  0  0  0  0  0  0  0  0  0  0
   61.7857   29.1964   47.6945 H   0  0  0  0  0  0  0  0  0  0  0  0
   60.3551   30.2545   47.3706 H   0  0  0  0  0  0  0  0  0  0  0  0
   61.5030   30.8100   49.1170 C   0  0  0  0  0  0  0  0  0  0  0  0
   62.5581   30.5820   49.3285 H   0  0  0  0  0  0  0  0  0  0  0  0
   61.3995   31.7955   48.6395 H   0  0  0  0  0  0  0  0  0  0  0  0
   60.7540   30.8360   50.3920 N   0  0  0  0  0  0  0  0  0  0  0  0
   61.1150   32.0290   51.1730 C   0  0  0  0  0  0  0  0  0  0  0  0
   61.0455   31.7993   52.2465 H   0  0  0  0  0  0  0  0  0  0  0  0
   62.1444   32.3298   50.9283 H   0  0  0  0  0  0  0  0  0  0  0  0
   60.4251   32.8501   50.9283 H   0  0  0  0  0  0  0  0  0  0  0  0
   59.3030   30.8040   50.1410 C   0  0  0  0  0  0  0  0  0  0  0  0
   58.7680   30.8845   51.0987 H   0  0  0  0  0  0  0  0  0  0  0  0
   59.0363   31.6466   49.4860 H   0  0  0  0  0  0  0  0  0  0  0  0
   58.9040   29.4840   49.4450 C   0  0  0  0  0  0  0  0  0  0  0  0
   58.4361   28.8200   50.1868 H   0  0  0  0  0  0  0  0  0  0  0  0
   58.2067   29.7297   48.6305 H   0  0  0  0  0  0  0  0  0  0  0  0
   58.4870   29.2920   46.3430 C   0  0  0  0  0  0  0  0  0  0  0  0
   58.3851   30.0216   47.1599 H   0  0  0  0  0  0  0  0  0  0  0  0
   58.1020   32.6290   46.4510 C   0  0  0  0  0  0  0  0  0  0  0  0
   57.8210   32.0200   47.5180 O   0  0  0  0  0  0  0  0  0  0  0  0
   62.5060   34.2280   49.0720 C   0  0  0  0  0  0  0  0  0  0  0  0
   62.1364   34.0644   50.0950 H   0  0  0  0  0  0  0  0  0  0  0  0
   62.7767   35.2831   48.9188 H   0  0  0  0  0  0  0  0  0  0  0  0
   63.7650   33.3670   48.8500 C   0  0  0  0  0  0  0  0  0  0  0  0
   63.6174   32.4032   49.3592 H   0  0  0  0  0  0  0  0  0  0  0  0
   64.6130   33.9389   49.2547 H   0  0  0  0  0  0  0  0  0  0  0  0
   64.0910   33.0840   47.3580 C   0  0  0  0  0  0  0  0  0  0  0  0
   63.9840   32.0042   47.1773 H   0  0  0  0  0  0  0  0  0  0  0  0
   65.1169   33.4383   47.1789 H   0  0  0  0  0  0  0  0  0  0  0  0
   63.1770   33.8340   46.3760 C   0  0  0  0  0  0  0  0  0  0  0  0
   63.2997   33.4089   45.3689 H   0  0  0  0  0  0  0  0  0  0  0  0
   63.4533   34.8987   46.3713 H   0  0  0  0  0  0  0  0  0  0  0  0
  1  2  1  0
  2  3  2  0
  3  4  1  0
  4  5  1  0
  4  6  1  0
  4  7  1  0
  7  8  1  0
  7  9  1  0
  7 10  1  0
 10 11  1  0
 11 12  2  0
 12 13  1  0
 12 14  1  0
 11 15  1  0
 15 16  1  0
 16 17  2  0
 17 18  1  0
 17 19  1  0
 19 20  2  0
 20 21  1  0
 20 22  1  0
 22 23  1  0
 22 24  2  0
 24 25  1  0
 24 26  1  0
 26 27  1  0
 27 28  2  0
 27 29  1  0
 29 30  1  0
 29 31  1  0
 31 32  1  0
 31 33  1  0
 31 34  1  0
 34 35  1  0
 34 36  1  0
 34 37  1  0
 37 38  1  0
 38 39  1  0
 38 40  1  0
 38 41  1  0
 37 42  1  0
 42 43  1  0
 42 44  1  0
 42 45  1  0
 45 46  1  0
 45 47  1  0
 26 48  2  0
 48 49  1  0
 16 50  1  0
 50 51  2  0
  3 52  1  0
 52 53  1  0
 52 54  1  0
 52 55  1  0
 55 56  1  0
 55 57  1  0
 55 58  1  0
 58 59  1  0
 58 60  1  0
 58 61  1  0
 61 62  1  0
 61 63  1  0
 61  2  1  0
 50 10  1  0
 48 19  1  0
 45 29  1  0
M  CHG  1  29   1
M  END
>  <UniqueID>  (70) 
65

>  <SMILES>  (70) 
C=c1s/c(=C/c2cccc(C(=O)[NH+]3CCN(C)CC3)c2)c(=O)n1CCC1=CCCCC1

>  <Energy>  (70) 
113.17013847310956

>  <Genealogy>  (70) 
C=c1sc(=Cc2cccc(C(=O)[NH+]3CCN(C)CC3)c2)c(=O)n1CCC1=CCCCC1 (protonated)
C=c1s/c(=C/c2cccc(C(=O)[NH+]3CCN(C)CC3)c2)c(=O)n1CCC1=CCCCC1 (cis-trans isomerization)
C=c1s/c(=C/c2cccc(C(=O)[NH+]3CCN(C)CC3)c2)c(=O)n1CCC1=CCCCC1 (3D coordinates assigned)
C=c1s/c(=C/c2cccc(C(=O)[NH+]3CCN(C)CC3)c2)c(=O)n1CCC1=CCCCC1 (nonaromatic ring conformer: 113.17013847310956 kcal/mol)

>  <smiles>  (70) 
C=c1sc(=Cc2cccc(C(=O)N3CCN(C)CC3)c2)c(=O)n1CCC1=CCCCC1

>  <score_type>  (70) 
oracle

>  <origin>  (70) 
adg

>  <m_score__min__energy>  (70) 
-8.7100000000000009

>  <m_primary>  (70) 
energy

$$$$
70:0
     RDKit          3D

 52 54  0  0  0  0  0  0  0  0999 V2000
   58.1220   33.4870   47.7810 N   0  0  0  0  0  0  0  0  0  0  0  0
   59.1090   33.7940   46.3940 S   0  0  0  0  0  0  0  0  0  0  0  0
   59.0890   35.2680   46.0960 O   0  0  0  0  0  0  0  0  0  0  0  0
   60.5240   33.3750   46.6770 O   0  0  0  0  0  0  0  0  0  0  0  0
   58.4960   32.8840   45.0160 C   0  0  0  0  0  0  0  0  0  0  0  0
   58.4370   33.4610   43.7400 C   0  0  0  0  0  0  0  0  0  0  0  0
   57.9410   32.7250   42.6590 C   0  0  0  0  0  0  0  0  0  0  0  0
   57.4930   31.4140   42.8480 C   0  0  0  0  0  0  0  0  0  0  0  0
   57.5420   30.8330   44.1210 C   0  0  0  0  0  0  0  0  0  0  0  0
   56.9760   29.1870   44.3710 S   0  0  0  0  0  0  0  0  0  0  0  0
   55.5710   29.2050   44.9060 O   0  0  0  0  0  0  0  0  0  0  0  0
   57.0110   28.4530   43.0600 O   0  0  0  0  0  0  0  0  0  0  0  0
   58.0140   28.4230   45.5340 N   0  0  0  0  0  0  0  0  0  0  0  0
   59.2550   27.9750   44.9080 C   0  0  0  0  0  0  0  0  0  0  0  0
   60.2940   27.6820   45.9920 C   0  0  0  0  0  0  0  0  0  0  0  0
   59.9480   28.3870   47.2690 C   0  0  0  0  0  0  0  0  0  0  0  0
   59.9400   27.8180   48.5370 C   0  0  0  0  0  0  0  0  0  0  0  0
   59.6810   28.7410   49.5560 C   0  0  0  0  0  0  0  0  0  0  0  0
   59.5000   30.0420   49.0950 C   0  0  0  0  0  0  0  0  0  0  0  0
   59.2170   31.2180   49.9400 C   0  0  0  0  0  0  0  0  0  0  0  0
   58.1520   31.8660   49.7590 O   0  0  0  0  0  0  0  0  0  0  0  0
   60.1850   31.6930   50.9820 C   0  0  0  0  0  0  0  0  0  0  0  0
   60.8710   33.2780   50.5260 S   0  0  0  0  0  0  0  0  0  0  0  0
   61.6370   33.8400   51.6910 O   0  0  0  0  0  0  0  0  0  0  0  0
   59.7640   34.2320   50.1760 O   0  0  0  0  0  0  0  0  0  0  0  0
   61.9530   33.0870   49.1510 C   0  0  0  0  0  0  0  0  0  0  0  0
   62.1980   31.8150   48.6140 C   0  0  0  0  0  0  0  0  0  0  0  0
   63.1080   31.6590   47.5640 C   0  0  0  0  0  0  0  0  0  0  0  0
   63.7750   32.7730   47.0460 C   0  0  0  0  0  0  0  0  0  0  0  0
   63.5350   34.0440   47.5780 C   0  0  0  0  0  0  0  0  0  0  0  0
   62.6280   34.2020   48.6300 C   0  0  0  0  0  0  0  0  0  0  0  0
   59.6670   30.0370   47.4190 S   0  0  0  0  0  0  0  0  0  0  0  0
   58.0530   31.5690   45.2010 C   0  0  0  0  0  0  0  0  0  0  0  0
   57.8550   32.4780   47.7490 H   0  0  0  0  0  0  0  0  0  0  0  0
   58.7270   33.6090   48.6230 H   0  0  0  0  0  0  0  0  0  0  0  0
   58.7814   34.4946   43.5885 H   0  0  0  0  0  0  0  0  0  0  0  0
   57.9033   33.1787   41.6576 H   0  0  0  0  0  0  0  0  0  0  0  0
   57.1018   30.8387   41.9960 H   0  0  0  0  0  0  0  0  0  0  0  0
   59.0636   27.0611   44.3265 H   0  0  0  0  0  0  0  0  0  0  0  0
   59.6339   28.7617   44.2390 H   0  0  0  0  0  0  0  0  0  0  0  0
   60.3263   26.5980   46.1764 H   0  0  0  0  0  0  0  0  0  0  0  0
   61.2741   28.0422   45.6460 H   0  0  0  0  0  0  0  0  0  0  0  0
   60.1194   26.7485   48.7211 H   0  0  0  0  0  0  0  0  0  0  0  0
   59.6257   28.4651   50.6194 H   0  0  0  0  0  0  0  0  0  0  0  0
   59.6617   31.7890   51.9448 H   0  0  0  0  0  0  0  0  0  0  0  0
   61.0035   30.9628   51.0652 H   0  0  0  0  0  0  0  0  0  0  0  0
   61.6729   30.9377   49.0198 H   0  0  0  0  0  0  0  0  0  0  0  0
   63.2991   30.6598   47.1456 H   0  0  0  0  0  0  0  0  0  0  0  0
   64.4896   32.6498   46.2189 H   0  0  0  0  0  0  0  0  0  0  0  0
   64.0601   34.9196   47.1685 H   0  0  0  0  0  0  0  0  0  0  0  0
   62.4430   35.2016   49.0501 H   0  0  0  0  0  0  0  0  0  0  0  0
   58.1058   31.1098   46.1992 H   0  0  0  0  0  0  0  0  0  0  0  0
  1  2  1  0
  2  3  2  0
  2  4  2  0
  2  5  1  0
  5  6  2  0
  6  7  1  0
  7  8  2  0
  8  9  1  0
  9 10  1  0
 10 11  2  0
 10 12  2  0
 10 13  1  0
 13 14  1  0
 14 15  1  0
 15 16  1  0
 16 17  2  0
 17 18  1  0
 18 19  2  0
 19 20  1  0
 20 21  2  0
 20 22  1  0
 22 23  1  0
 23 24  2  0
 23 25  2  0
 23 26  1  0
 26 27  2  0
 27 28  1  0
 28 29  2  0
 29 30  1  0
 30 31  2  0
 19 32  1  0
  9 33  2  0
 33  5  1  0
 32 16  1  0
 31 26  1  0
  1 34  1  0
  1 35  1  0
  6 36  1  0
  7 37  1  0
  8 38  1  0
 14 39  1  0
 14 40  1  0
 15 41  1  0
 15 42  1  0
 17 43  1  0
 18 44  1  0
 22 45  1  0
 22 46  1  0
 27 47  1  0
 28 48  1  0
 29 49  1  0
 30 50  1  0
 31 51  1  0
 33 52  1  0
M  CHG  1  13  -1
M  END
>  <UniqueID>  (71) 
66

>  <SMILES>  (71) 
NS(=O)(=O)c1cccc(S(=O)(=O)[N-]CCc2ccc(C(=O)CS(=O)(=O)c3ccccc3)s2)c1

>  <Energy>  (71) 
65.38938475785763

>  <Genealogy>  (71) 
NS(=O)(=O)c1cccc(S(=O)(=O)[N-]CCc2ccc(C(=O)CS(=O)(=O)c3ccccc3)s2)c1 (protonated)
NS(=O)(=O)c1cccc(S(=O)(=O)[N-]CCc2ccc(C(=O)CS(=O)(=O)c3ccccc3)s2)c1 (3D coordinates assigned)
NS(=O)(=O)c1cccc(S(=O)(=O)[N-]CCc2ccc(C(=O)CS(=O)(=O)c3ccccc3)s2)c1 (optimized conformer: 65.38938475785763 kcal/mol)

>  <smiles>  (71) 
NS(=O)(=O)c1cccc(S(=O)(=O)NCCc2ccc(C(=O)CS(=O)(=O)c3ccccc3)s2)c1

>  <score_type>  (71) 
oracle

>  <origin>  (71) 
adg

>  <m_score__min__energy>  (71) 
-11.220000000000001

>  <m_primary>  (71) 
energy

$$$$
71:0
     RDKit          3D

 47 49  0  0  0  0  0  0  0  0999 V2000
   55.4820   29.0990   44.8710 O   0  0  0  0  0  0  0  0  0  0  0  0
   56.6520   29.1250   44.5110 C   0  0  0  0  0  0  0  0  0  0  0  0
   57.2230   30.4370   44.0330 C   0  0  0  0  0  0  0  0  0  0  0  0
   57.0020   31.4820   45.0390 N   0  0  0  0  0  0  0  0  0  0  0  0
   57.5430   32.7810   44.6110 C   0  0  0  0  0  0  0  0  0  0  0  0
   58.3770   33.4310   45.6900 C   0  0  0  0  0  0  0  0  0  0  0  0
   59.2170   34.5130   45.3780 C   0  0  0  0  0  0  0  0  0  0  0  0
   60.0060   35.1030   46.3700 C   0  0  0  0  0  0  0  0  0  0  0  0
   59.9690   34.6100   47.6790 C   0  0  0  0  0  0  0  0  0  0  0  0
   59.1420   33.5280   47.9950 C   0  0  0  0  0  0  0  0  0  0  0  0
   58.3490   32.9380   47.0060 C   0  0  0  0  0  0  0  0  0  0  0  0
   57.4630   27.9120   44.5090 N   0  0  0  0  0  0  0  0  0  0  0  0
   58.8200   28.0970   43.9630 C   0  0  0  0  0  0  0  0  0  0  0  0
   59.7520   28.9310   44.8700 C   0  0  0  0  0  0  0  0  0  0  0  0
   59.4380   28.9060   46.3180 N   0  0  0  0  0  0  0  0  0  0  0  0
   60.2630   29.6920   47.2340 C   0  0  0  0  0  0  0  0  0  0  0  0
   60.2100   29.4840   48.6350 C   0  0  0  0  0  0  0  0  0  0  0  0
   61.0020   30.2390   49.5060 C   0  0  0  0  0  0  0  0  0  0  0  0
   61.8620   31.2150   49.0080 C   0  0  0  0  0  0  0  0  0  0  0  0
   62.6280   31.9440   49.8570 F   0  0  0  0  0  0  0  0  0  0  0  0
   61.9370   31.4390   47.6340 C   0  0  0  0  0  0  0  0  0  0  0  0
   61.1510   30.6870   46.7550 C   0  0  0  0  0  0  0  0  0  0  0  0
   58.2460   28.2140   46.8490 C   0  0  0  0  0  0  0  0  0  0  0  0
   57.5610   27.2950   45.8390 C   0  0  0  0  0  0  0  0  0  0  0  0
   58.3032   30.3217   43.8600 H   0  0  0  0  0  0  0  0  0  0  0  0
   56.7219   30.7272   43.0978 H   0  0  0  0  0  0  0  0  0  0  0  0
   55.9740   31.5740   45.2150 H   0  0  0  0  0  0  0  0  0  0  0  0
   58.1709   32.6281   43.7208 H   0  0  0  0  0  0  0  0  0  0  0  0
   56.6948   33.4459   44.3909 H   0  0  0  0  0  0  0  0  0  0  0  0
   59.2541   34.8979   44.3482 H   0  0  0  0  0  0  0  0  0  0  0  0
   60.6560   35.9549   46.1214 H   0  0  0  0  0  0  0  0  0  0  0  0
   60.5905   35.0737   48.4592 H   0  0  0  0  0  0  0  0  0  0  0  0
   59.1151   33.1400   49.0239 H   0  0  0  0  0  0  0  0  0  0  0  0
   57.7013   32.0855   47.2586 H   0  0  0  0  0  0  0  0  0  0  0  0
   56.9860   27.2230   43.8820 H   0  0  0  0  0  0  0  0  0  0  0  0
   59.2735   27.1052   43.8192 H   0  0  0  0  0  0  0  0  0  0  0  0
   58.7114   28.6528   43.0200 H   0  0  0  0  0  0  0  0  0  0  0  0
   60.7763   28.5514   44.7406 H   0  0  0  0  0  0  0  0  0  0  0  0
   59.6176   29.9761   44.5542 H   0  0  0  0  0  0  0  0  0  0  0  0
   59.5356   28.7170   49.0435 H   0  0  0  0  0  0  0  0  0  0  0  0
   60.9455   30.0611   50.5901 H   0  0  0  0  0  0  0  0  0  0  0  0
   62.6163   32.2094   47.2402 H   0  0  0  0  0  0  0  0  0  0  0  0
   61.2234   30.8711   45.6729 H   0  0  0  0  0  0  0  0  0  0  0  0
   58.5540   27.6088   47.7143 H   0  0  0  0  0  0  0  0  0  0  0  0
   57.5173   28.9936   47.1159 H   0  0  0  0  0  0  0  0  0  0  0  0
   58.1408   26.3639   45.7563 H   0  0  0  0  0  0  0  0  0  0  0  0
   56.5399   27.0984   46.1976 H   0  0  0  0  0  0  0  0  0  0  0  0
  1  2  2  0
  2  3  1  0
  3  4  1  0
  4  5  1  0
  5  6  1  0
  6  7  2  0
  7  8  1  0
  8  9  2  0
  9 10  1  0
 10 11  2  0
  2 12  1  0
 12 13  1  0
 13 14  1  0
 14 15  1  0
 15 16  1  0
 16 17  2  0
 17 18  1  0
 18 19  2  0
 19 20  1  0
 19 21  1  0
 21 22  2  0
 15 23  1  0
 23 24  1  0
 11  6  1  0
 24 12  1  0
 22 16  1  0
  3 25  1  0
  3 26  1  0
  4 27  1  0
  5 28  1  0
  5 29  1  0
  7 30  1  0
  8 31  1  0
  9 32  1  0
 10 33  1  0
 11 34  1  0
 12 35  1  0
 13 36  1  0
 13 37  1  0
 14 38  1  0
 14 39  1  0
 17 40  1  0
 18 41  1  0
 21 42  1  0
 22 43  1  0
 23 44  1  0
 23 45  1  0
 24 46  1  0
 24 47  1  0
M  CHG  1  12   1
M  END
>  <UniqueID>  (72) 
67

>  <SMILES>  (72) 
O=C(CNCc1ccccc1)[NH+]1CCN(c2ccc(F)cc2)CC1

>  <Energy>  (72) 
61.785778044652915

>  <Genealogy>  (72) 
O=C(CNCc1ccccc1)[NH+]1CCN(c2ccc(F)cc2)CC1 (protonated)
O=C(CNCc1ccccc1)[NH+]1CCN(c2ccc(F)cc2)CC1 (3D coordinates assigned)
O=C(CNCc1ccccc1)[NH+]1CCN(c2ccc(F)cc2)CC1 (nonaromatic ring conformer: 61.785778044652915 kcal/mol)

>  <smiles>  (72) 
O=C(CNCc1ccccc1)N1CCN(c2ccc(F)cc2)CC1

>  <score_type>  (72) 
oracle

>  <origin>  (72) 
adg

>  <m_score__min__energy>  (72) 
-6.5899999999999999

>  <m_primary>  (72) 
energy

$$$$
72:0
     RDKit          3D

 52 55  0  0  0  0  0  0  0  0999 V2000
   56.7180   27.3760   45.3060 C   0  0  0  0  0  0  0  0  0  0  0  0
   56.7710   28.8500   45.0540 C   0  0  0  0  0  0  0  0  0  0  0  0
   55.6780   29.5920   44.7970 N   0  0  0  0  0  0  0  0  0  0  0  0
   56.0700   30.8280   44.6910 O   0  0  0  0  0  0  0  0  0  0  0  0
   57.3650   30.9370   44.8660 C   0  0  0  0  0  0  0  0  0  0  0  0
   58.0820   32.2200   44.7770 C   0  0  0  0  0  0  0  0  0  0  0  0
   58.5090   32.5880   43.6420 O   0  0  0  0  0  0  0  0  0  0  0  0
   58.3760   33.0060   45.9570 N   0  0  0  0  0  0  0  0  0  0  0  0
   58.4690   32.3500   47.2740 C   0  0  0  0  0  0  0  0  0  0  0  0
   59.2180   33.2230   48.2900 C   0  0  0  0  0  0  0  0  0  0  0  0
   60.3890   33.8410   47.6500 N   0  0  0  0  0  0  0  0  0  0  0  0
   61.7000   33.7110   48.2310 C   0  0  0  0  0  0  0  0  0  0  0  0
   61.9320   34.1060   49.5610 C   0  0  0  0  0  0  0  0  0  0  0  0
   63.2010   33.9710   50.1290 C   0  0  0  0  0  0  0  0  0  0  0  0
   64.2550   33.4540   49.3700 C   0  0  0  0  0  0  0  0  0  0  0  0
   64.0400   33.0710   48.0450 C   0  0  0  0  0  0  0  0  0  0  0  0
   62.7680   33.1960   47.4750 C   0  0  0  0  0  0  0  0  0  0  0  0
   60.2260   34.5650   46.3780 C   0  0  0  0  0  0  0  0  0  0  0  0
   58.8030   34.4080   45.8290 C   0  0  0  0  0  0  0  0  0  0  0  0
   57.8820   29.6770   45.1330 C   0  0  0  0  0  0  0  0  0  0  0  0
   59.2530   29.3120   45.5460 C   0  0  0  0  0  0  0  0  0  0  0  0
   60.0170   28.7190   44.7370 O   0  0  0  0  0  0  0  0  0  0  0  0
   59.7020   29.5940   46.8780 N   0  0  0  0  0  0  0  0  0  0  0  0
   59.0920   29.0160   48.0710 C   0  0  0  0  0  0  0  0  0  0  0  0
   59.3960   29.8660   49.2680 C   0  0  0  0  0  0  0  0  0  0  0  0
   60.7060   30.2960   49.5250 C   0  0  0  0  0  0  0  0  0  0  0  0
   60.9660   31.0630   50.6620 C   0  0  0  0  0  0  0  0  0  0  0  0
   59.9240   31.4010   51.5250 C   0  0  0  0  0  0  0  0  0  0  0  0
   58.6300   30.9630   51.2360 C   0  0  0  0  0  0  0  0  0  0  0  0
   58.3960   30.2150   50.1240 N   0  0  0  0  0  0  0  0  0  0  0  0
   56.7113   27.1894   46.3900 H   0  0  0  0  0  0  0  0  0  0  0  0
   55.8043   26.9598   44.8566 H   0  0  0  0  0  0  0  0  0  0  0  0
   57.5994   26.8953   44.8566 H   0  0  0  0  0  0  0  0  0  0  0  0
   57.4530   32.1578   47.6493 H   0  0  0  0  0  0  0  0  0  0  0  0
   59.0275   31.4103   47.1509 H   0  0  0  0  0  0  0  0  0  0  0  0
   58.5457   34.0113   48.6596 H   0  0  0  0  0  0  0  0  0  0  0  0
   59.5523   32.5963   49.1299 H   0  0  0  0  0  0  0  0  0  0  0  0
   61.1082   34.5242   50.1580 H   0  0  0  0  0  0  0  0  0  0  0  0
   63.3709   34.2715   51.1734 H   0  0  0  0  0  0  0  0  0  0  0  0
   65.2545   33.3489   49.8172 H   0  0  0  0  0  0  0  0  0  0  0  0
   64.8721   32.6701   47.4476 H   0  0  0  0  0  0  0  0  0  0  0  0
   62.6030   32.8901   46.4313 H   0  0  0  0  0  0  0  0  0  0  0  0
   60.4307   35.6329   46.5442 H   0  0  0  0  0  0  0  0  0  0  0  0
   60.9304   34.1446   45.6452 H   0  0  0  0  0  0  0  0  0  0  0  0
   58.1177   35.0528   46.3987 H   0  0  0  0  0  0  0  0  0  0  0  0
   58.7867   34.6992   44.7684 H   0  0  0  0  0  0  0  0  0  0  0  0
   58.0023   28.9600   47.9318 H   0  0  0  0  0  0  0  0  0  0  0  0
   59.5009   28.0076   48.2321 H   0  0  0  0  0  0  0  0  0  0  0  0
   61.5218   30.0311   48.8363 H   0  0  0  0  0  0  0  0  0  0  0  0
   61.9908   31.4001   50.8768 H   0  0  0  0  0  0  0  0  0  0  0  0
   60.1192   32.0056   52.4230 H   0  0  0  0  0  0  0  0  0  0  0  0
   57.7990   31.2230   51.9081 H   0  0  0  0  0  0  0  0  0  0  0  0
  1  2  1  0
  2  3  2  0
  3  4  1  0
  4  5  1  0
  5  6  1  0
  6  7  2  0
  6  8  1  0
  8  9  1  0
  9 10  1  0
 10 11  1  0
 11 12  1  0
 12 13  2  0
 13 14  1  0
 14 15  2  0
 15 16  1  0
 16 17  2  0
 11 18  1  0
 18 19  1  0
  5 20  2  0
 20 21  1  0
 21 22  2  0
 21 23  1  0
 23 24  1  0
 24 25  1  0
 25 26  2  0
 26 27  1  0
 27 28  2  0
 28 29  1  0
 29 30  2  0
 20  2  1  0
 30 25  1  0
 19  8  1  0
 17 12  1  0
  1 31  1  0
  1 32  1  0
  1 33  1  0
  9 34  1  0
  9 35  1  0
 10 36  1  0
 10 37  1  0
 13 38  1  0
 14 39  1  0
 15 40  1  0
 16 41  1  0
 17 42  1  0
 18 43  1  0
 18 44  1  0
 19 45  1  0
 19 46  1  0
 24 47  1  0
 24 48  1  0
 26 49  1  0
 27 50  1  0
 28 51  1  0
 29 52  1  0
M  CHG  1  23  -1
M  END
>  <UniqueID>  (73) 
68

>  <SMILES>  (73) 
Cc1noc(C(=O)N2CCN(c3ccccc3)CC2)c1C(=O)[N-]Cc1ccccn1

>  <Energy>  (73) 
92.1713730577378

>  <Genealogy>  (73) 
Cc1noc(C(=O)N2CCN(c3ccccc3)CC2)c1C(=O)[N-]Cc1ccccn1 (protonated)
Cc1noc(C(=O)N2CCN(c3ccccc3)CC2)c1C(=O)[N-]Cc1ccccn1 (3D coordinates assigned)
Cc1noc(C(=O)N2CCN(c3ccccc3)CC2)c1C(=O)[N-]Cc1ccccn1 (nonaromatic ring conformer: 92.1713730577378 kcal/mol)

>  <smiles>  (73) 
Cc1noc(C(=O)N2CCN(c3ccccc3)CC2)c1C(=O)NCc1ccccn1

>  <score_type>  (73) 
oracle

>  <origin>  (73) 
adg

>  <m_score__min__energy>  (73) 
-10.5

>  <m_primary>  (73) 
energy

$$$$
73:0
     RDKit          3D

 33 36  0  0  0  0  0  0  0  0999 V2000
   56.2080   30.0240   42.7990 O   0  0  0  0  0  0  0  0  0  0  0  0
   56.4790   30.1080   44.0250 C   0  0  0  0  0  0  0  0  0  0  0  0
   56.0010   29.0820   44.9080 N   0  0  0  0  0  0  0  0  0  0  0  0
   56.7710   27.9860   45.4260 C   0  0  0  0  0  0  0  0  0  0  0  0
   58.1660   28.1020   45.4590 C   0  0  0  0  0  0  0  0  0  0  0  0
   58.9530   27.0490   45.9330 C   0  0  0  0  0  0  0  0  0  0  0  0
   58.3490   25.8770   46.3930 C   0  0  0  0  0  0  0  0  0  0  0  0
   56.9570   25.7630   46.3970 C   0  0  0  0  0  0  0  0  0  0  0  0
   56.1630   26.8170   45.9310 C   0  0  0  0  0  0  0  0  0  0  0  0
   54.7780   26.7000   45.9970 O   0  0  0  0  0  0  0  0  0  0  0  0
   57.2430   31.2780   44.5220 C   0  0  0  0  0  0  0  0  0  0  0  0
   57.4590   32.3830   43.6810 C   0  0  0  0  0  0  0  0  0  0  0  0
   58.2000   33.4790   44.1270 C   0  0  0  0  0  0  0  0  0  0  0  0
   58.7250   33.4970   45.4210 C   0  0  0  0  0  0  0  0  0  0  0  0
   58.5280   32.3840   46.2760 C   0  0  0  0  0  0  0  0  0  0  0  0
   57.7660   31.2970   45.8270 C   0  0  0  0  0  0  0  0  0  0  0  0
   59.2110   32.3250   47.6290 C   0  0  0  0  0  0  0  0  0  0  0  0
   60.6140   32.8320   47.4890 C   0  0  0  0  0  0  0  0  0  0  0  0
   62.0310   32.0480   47.9440 S   0  0  0  0  0  0  0  0  0  0  0  0
   62.9910   33.1780   47.1390 C   0  0  0  0  0  0  0  0  0  0  0  0
   64.2480   33.1420   47.1070 O   0  0  0  0  0  0  0  0  0  0  0  0
   62.2680   34.1300   46.5080 N   0  0  0  0  0  0  0  0  0  0  0  0
   60.9410   33.9330   46.7150 C   0  0  0  0  0  0  0  0  0  0  0  0
   59.6580   34.9420   45.9810 S   0  0  0  0  0  0  0  0  0  0  0  0
   58.6456   29.0282   45.1095 H   0  0  0  0  0  0  0  0  0  0  0  0
   60.0489   27.1434   45.9438 H   0  0  0  0  0  0  0  0  0  0  0  0
   58.9699   25.0431   46.7524 H   0  0  0  0  0  0  0  0  0  0  0  0
   56.4833   24.8420   46.7676 H   0  0  0  0  0  0  0  0  0  0  0  0
   57.0410   32.3844   42.6635 H   0  0  0  0  0  0  0  0  0  0  0  0
   58.3713   34.3332   43.4554 H   0  0  0  0  0  0  0  0  0  0  0  0
   57.5751   30.4500   46.5024 H   0  0  0  0  0  0  0  0  0  0  0  0
   58.6621   32.9520   48.3470 H   0  0  0  0  0  0  0  0  0  0  0  0
   59.2252   31.2872   47.9935 H   0  0  0  0  0  0  0  0  0  0  0  0
  1  2  2  0
  2  3  1  0
  3  4  1  0
  4  5  2  0
  5  6  1  0
  6  7  2  0
  7  8  1  0
  8  9  2  0
  9 10  1  0
  2 11  1  0
 11 12  2  0
 12 13  1  0
 13 14  2  0
 14 15  1  0
 15 16  2  0
 15 17  1  0
 17 18  1  0
 18 19  1  0
 19 20  1  0
 20 21  2  0
 20 22  1  0
 22 23  1  0
 23 24  1  0
  9  4  1  0
 16 11  1  0
 23 18  2  0
 24 14  1  0
  5 25  1  0
  6 26  1  0
  7 27  1  0
  8 28  1  0
 12 29  1  0
 13 30  1  0
 16 31  1  0
 17 32  1  0
 17 33  1  0
M  CHG  3   3  -1  10  -1  22  -1
M  END
>  <UniqueID>  (74) 
69

>  <SMILES>  (74) 
O=C([N-]c1ccccc1[O-])c1ccc2c(c1)Cc1sc(=O)[n-]c1S2

>  <Energy>  (74) 
87.99960517661138

>  <Genealogy>  (74) 
O=C([N-]c1ccccc1[O-])c1ccc2c(c1)Cc1sc(=O)[n-]c1S2 (protonated)
O=C([N-]c1ccccc1[O-])c1ccc2c(c1)Cc1sc(=O)[n-]c1S2 (3D coordinates assigned)
O=C([N-]c1ccccc1[O-])c1ccc2c(c1)Cc1sc(=O)[n-]c1S2 (nonaromatic ring conformer: 87.99960517661138 kcal/mol)

>  <smiles>  (74) 
O=C(Nc1ccccc1O)c1ccc2c(c1)Cc1sc(=O)[nH]c1S2

>  <score_type>  (74) 
oracle

>  <origin>  (74) 
adg

>  <m_score__min__energy>  (74) 
-15.869999999999999

>  <m_primary>  (74) 
energy

$$$$
74:0
     RDKit          3D

 73 78  0  0  0  0  0  0  0  0999 V2000
   59.6270   29.0280   54.2030 N   0  0  0  0  0  0  0  0  0  0  0  0
   59.8380   28.7640   52.9520 C   0  0  0  0  0  0  0  0  0  0  0  0
   59.2230   29.5200   52.0060 N   0  0  0  0  0  0  0  0  0  0  0  0
   59.4190   29.3040   50.6850 C   0  0  0  0  0  0  0  0  0  0  0  0
   58.7460   30.0860   49.7450 C   0  0  0  0  0  0  0  0  0  0  0  0
   58.9240   29.8510   48.3800 C   0  0  0  0  0  0  0  0  0  0  0  0
   59.8000   28.8440   47.9410 C   0  0  0  0  0  0  0  0  0  0  0  0
   59.9710   28.5730   46.4670 C   0  0  0  0  0  0  0  0  0  0  0  0
   58.6810   28.2500   45.8290 N   0  0  0  0  0  0  0  0  0  0  0  0
   57.9370   27.1110   46.3170 C   0  0  0  0  0  0  0  0  0  0  0  0
   58.4990   26.2210   47.0160 O   0  0  0  0  0  0  0  0  0  0  0  0
   56.5070   27.0070   46.0020 C   0  0  0  0  0  0  0  0  0  0  0  0
   55.8360   26.0040   46.3630 O   0  0  0  0  0  0  0  0  0  0  0  0
   55.8830   28.0630   45.2740 N   0  0  0  0  0  0  0  0  0  0  0  0
   56.6140   29.2910   44.9750 C   0  0  0  0  0  0  0  0  0  0  0  0
   58.0950   28.9710   44.6650 C   0  0  1  0  0  0  0  0  0  0  0  0
   58.8230   30.2730   44.2260 C   0  0  0  0  0  0  0  0  0  0  0  0
   58.4530   31.5100   45.0220 C   0  0  0  0  0  0  0  0  0  0  0  0
   59.2260   31.9220   46.1260 C   0  0  0  0  0  0  0  0  0  0  0  0
   58.9000   33.0930   46.8180 C   0  0  0  0  0  0  0  0  0  0  0  0
   57.8230   33.8780   46.4000 C   0  0  0  0  0  0  0  0  0  0  0  0
   57.0780   33.5020   45.2810 C   0  0  0  0  0  0  0  0  0  0  0  0
   57.3940   32.3290   44.5880 C   0  0  0  0  0  0  0  0  0  0  0  0
   60.4960   28.0740   48.8870 C   0  0  0  0  0  0  0  0  0  0  0  0
   60.2950   28.2890   50.2640 C   0  0  0  0  0  0  0  0  0  0  0  0
   60.9270   27.5090   51.2500 C   0  0  0  0  0  0  0  0  0  0  0  0
   61.7350   26.6020   50.9040 O   0  0  0  0  0  0  0  0  0  0  0  0
   60.6730   27.7340   52.5820 N   0  0  0  0  0  0  0  0  0  0  0  0
   61.3340   26.9000   53.6110 C   0  0  0  0  0  0  0  0  0  0  0  0
   60.3660   25.9350   54.2480 C   0  0  0  0  0  0  0  0  0  0  0  0
   59.8780   26.2060   55.3790 O   0  0  0  0  0  0  0  0  0  0  0  0
   60.0280   24.6820   53.6140 N   0  0  0  0  0  0  0  0  0  0  0  0
   60.0900   24.5190   52.1520 C   0  0  0  0  0  0  0  0  0  0  0  0
   58.9170   23.6590   51.6560 C   0  0  0  0  0  0  0  0  0  0  0  0
   58.7230   22.4760   52.4990 N   0  0  0  0  0  0  0  0  0  0  0  0
   57.6540   21.5770   52.1850 C   0  0  0  0  0  0  0  0  0  0  0  0
   57.7900   20.7630   51.2300 O   0  0  0  0  0  0  0  0  0  0  0  0
   56.3170   21.7520   52.8390 C   0  0  0  0  0  0  0  0  0  0  0  0
   56.3090   21.6230   54.3540 C   0  0  0  0  0  0  0  0  0  0  0  0
   55.7390   20.5070   53.4950 C   0  0  0  0  0  0  0  0  0  0  0  0
   59.5860   22.2350   53.6540 C   0  0  0  0  0  0  0  0  0  0  0  0
   59.7220   23.5240   54.4710 C   0  0  0  0  0  0  0  0  0  0  0  0
   59.4950   28.2670   54.9070 H   0  0  0  0  0  0  0  0  0  0  0  0
   58.0737   30.8895   50.0802 H   0  0  0  0  0  0  0  0  0  0  0  0
   58.3754   30.4576   47.6444 H   0  0  0  0  0  0  0  0  0  0  0  0
   60.3955   29.4661   45.9852 H   0  0  0  0  0  0  0  0  0  0  0  0
   60.6432   27.7104   46.3480 H   0  0  0  0  0  0  0  0  0  0  0  0
   56.1582   29.7815   44.1023 H   0  0  0  0  0  0  0  0  0  0  0  0
   56.5669   29.9577   45.8487 H   0  0  0  0  0  0  0  0  0  0  0  0
   58.2121   28.2875   43.8112 H   0  0  0  0  0  0  0  0  0  0  0  0
   59.9060   30.1108   44.3300 H   0  0  0  0  0  0  0  0  0  0  0  0
   58.5099   30.4675   43.1896 H   0  0  0  0  0  0  0  0  0  0  0  0
   60.0896   31.3200   46.4449 H   0  0  0  0  0  0  0  0  0  0  0  0
   59.4931   33.3964   47.6933 H   0  0  0  0  0  0  0  0  0  0  0  0
   57.5619   34.7926   46.9526 H   0  0  0  0  0  0  0  0  0  0  0  0
   56.2403   34.1299   44.9434 H   0  0  0  0  0  0  0  0  0  0  0  0
   56.8117   32.0451   43.6990 H   0  0  0  0  0  0  0  0  0  0  0  0
   61.2012   27.2996   48.5508 H   0  0  0  0  0  0  0  0  0  0  0  0
   62.1484   26.3301   53.1398 H   0  0  0  0  0  0  0  0  0  0  0  0
   61.7235   27.5654   54.3956 H   0  0  0  0  0  0  0  0  0  0  0  0
   60.0401   25.5089   51.6750 H   0  0  0  0  0  0  0  0  0  0  0  0
   61.0338   24.0186   51.8896 H   0  0  0  0  0  0  0  0  0  0  0  0
   57.9984   24.2640   51.6725 H   0  0  0  0  0  0  0  0  0  0  0  0
   59.1454   23.3207   50.6345 H   0  0  0  0  0  0  0  0  0  0  0  0
   55.9477   22.4951   52.1169 H   0  0  0  0  0  0  0  0  0  0  0  0
   57.2530   21.4708   54.8979 H   0  0  0  0  0  0  0  0  0  0  0  0
   55.9291   22.2362   55.1845 H   0  0  0  0  0  0  0  0  0  0  0  0
   56.2704   19.5470   53.4168 H   0  0  0  0  0  0  0  0  0  0  0  0
   54.7759   19.9779   53.4459 H   0  0  0  0  0  0  0  0  0  0  0  0
   59.1448   21.4477   54.2829 H   0  0  0  0  0  0  0  0  0  0  0  0
   60.5798   21.9153   53.3074 H   0  0  0  0  0  0  0  0  0  0  0  0
   58.7762   23.7121   55.0002 H   0  0  0  0  0  0  0  0  0  0  0  0
   60.5519   23.3940   55.1812 H   0  0  0  0  0  0  0  0  0  0  0  0
  1  2  2  3
  2  3  1  0
  3  4  1  0
  4  5  2  0
  5  6  1  0
  6  7  2  0
  7  8  1  0
  8  9  1  0
  9 10  1  0
 10 11  2  0
 10 12  1  0
 12 13  2  0
 12 14  1  0
 14 15  1  0
 15 16  1  0
 16 17  1  0
 17 18  1  0
 18 19  2  0
 19 20  1  0
 20 21  2  0
 21 22  1  0
 22 23  2  0
  7 24  1  0
 24 25  2  0
 25 26  1  0
 26 27  2  0
 26 28  1  0
 28 29  1  0
 29 30  1  0
 30 31  2  0
 30 32  1  0
 32 33  1  0
 33 34  1  0
 34 35  1  0
 35 36  1  0
 36 37  2  0
 36 38  1  0
 38 39  1  0
 39 40  1  0
 35 41  1  0
 41 42  1  0
 28  2  1  0
 42 32  1  0
 25  4  1  0
 40 38  1  0
 16  9  1  0
 23 18  1  0
  1 43  1  0
  5 44  1  0
  6 45  1  0
  8 46  1  0
  8 47  1  0
 15 48  1  0
 15 49  1  0
 16 50  1  6
 17 51  1  0
 17 52  1  0
 19 53  1  0
 20 54  1  0
 21 55  1  0
 22 56  1  0
 23 57  1  0
 24 58  1  0
 29 59  1  0
 29 60  1  0
 33 61  1  0
 33 62  1  0
 34 63  1  0
 34 64  1  0
 38 65  1  0
 39 66  1  0
 39 67  1  0
 40 68  1  0
 40 69  1  0
 41 70  1  0
 41 71  1  0
 42 72  1  0
 42 73  1  0
M  CHG  2   3  -1  14  -1
M  END
>  <UniqueID>  (75) 
70

>  <SMILES>  (75) 
N=c1[n-]c2ccc(CN3C(=O)C(=O)[N-]C[C@H]3Cc3ccccc3)cc2c(=O)n1CC(=O)N1CCN(C(=O)C2CC2)CC1

>  <Energy>  (75) 
363.3665760994683

>  <Genealogy>  (75) 
N=c1[n-]c2ccc(CN3C(=O)C(=O)[N-]CC3Cc3ccccc3)cc2c(=O)n1CC(=O)N1CCN(C(=O)C2CC2)CC1 (protonated)
N=c1[n-]c2ccc(CN3C(=O)C(=O)[N-]C[C@H]3Cc3ccccc3)cc2c(=O)n1CC(=O)N1CCN(C(=O)C2CC2)CC1 (chirality)
N=c1[n-]c2ccc(CN3C(=O)C(=O)[N-]C[C@H]3Cc3ccccc3)cc2c(=O)n1CC(=O)N1CCN(C(=O)C2CC2)CC1 (3D coordinates assigned)
N=c1[n-]c2ccc(CN3C(=O)C(=O)[N-]C[C@H]3Cc3ccccc3)cc2c(=O)n1CC(=O)N1CCN(C(=O)C2CC2)CC1 (nonaromatic ring conformer: 363.3665760994683 kcal/mol)

>  <smiles>  (75) 
N=c1[nH]c2ccc(CN3C(=O)C(=O)NCC3Cc3ccccc3)cc2c(=O)n1CC(=O)N1CCN(C(=O)C2CC2)CC1

>  <score_type>  (75) 
oracle

>  <origin>  (75) 
adg

>  <m_score__min__energy>  (75) 
-12.98

>  <m_primary>  (75) 
energy

$$$$
75:0
     RDKit          3D

 58 61  0  0  0  0  0  0  0  0999 V2000
   54.8230   26.3480   46.3470 O   0  0  0  0  0  0  0  0  0  0  0  0
   55.6560   25.5060   45.9910 C   0  0  0  0  0  0  0  0  0  0  0  0
   55.3630   24.0120   45.9840 C   0  0  0  0  0  0  0  0  0  0  0  0
   55.8790   23.3540   44.7720 C   0  0  0  0  0  0  0  0  0  0  0  0
   56.3020   24.1060   43.7020 N   0  0  0  0  0  0  0  0  0  0  0  0
   56.6420   23.2150   42.7630 N   0  0  0  0  0  0  0  0  0  0  0  0
   56.4460   21.9610   43.2100 C   0  0  0  0  0  0  0  0  0  0  0  0
   56.6540   20.8820   42.6070 O   0  0  0  0  0  0  0  0  0  0  0  0
   55.9710   22.0510   44.4610 N   0  0  0  0  0  0  0  0  0  0  0  0
   56.9630   25.8220   45.5540 N   0  0  0  0  0  0  0  0  0  0  0  0
   57.5380   27.1150   45.4810 C   0  0  0  0  0  0  0  0  0  0  0  0
   56.6500   28.1420   45.2010 C   0  0  0  0  0  0  0  0  0  0  0  0
   57.0630   29.4340   45.1250 C   0  0  0  0  0  0  0  0  0  0  0  0
   58.4150   29.7660   45.3310 C   0  0  0  0  0  0  0  0  0  0  0  0
   58.6990   31.1770   45.2570 C   0  0  0  0  0  0  0  0  0  0  0  0
   58.1880   31.8120   44.2910 O   0  0  0  0  0  0  0  0  0  0  0  0
   59.4870   31.9370   46.1500 N   0  0  0  0  0  0  0  0  0  0  0  0
   59.5310   33.3850   45.8350 C   0  0  0  0  0  0  0  0  0  0  0  0
   60.5010   34.0230   46.8260 C   0  0  0  0  0  0  0  0  0  0  0  0
   61.7670   33.3020   46.7340 N   0  0  0  0  0  0  0  0  0  0  0  0
   62.8810   34.1020   47.0120 C   0  0  0  0  0  0  0  0  0  0  0  0
   64.1410   33.4410   47.4650 C   0  0  0  0  0  0  0  0  0  0  0  0
   64.1220   33.3300   48.9560 C   0  0  0  0  0  0  0  0  0  0  0  0
   65.0520   32.6770   49.7120 C   0  0  0  0  0  0  0  0  0  0  0  0
   64.8670   32.6270   51.0680 C   0  0  0  0  0  0  0  0  0  0  0  0
   63.7870   33.2010   51.7260 C   0  0  0  0  0  0  0  0  0  0  0  0
   62.8490   33.8560   50.9630 C   0  0  0  0  0  0  0  0  0  0  0  0
   63.0280   33.9160   49.5820 C   0  0  0  0  0  0  0  0  0  0  0  0
   61.6840   31.9600   47.1190 C   0  0  0  0  0  0  0  0  0  0  0  0
   60.2360   31.4850   47.2810 C   0  0  0  0  0  0  0  0  0  0  0  0
   59.2710   28.7440   45.6030 C   0  0  0  0  0  0  0  0  0  0  0  0
   58.8560   27.4140   45.6830 C   0  0  0  0  0  0  0  0  0  0  0  0
   55.8352   23.5534   46.8654 H   0  0  0  0  0  0  0  0  0  0  0  0
   54.2711   23.8800   46.0034 H   0  0  0  0  0  0  0  0  0  0  0  0
   57.0050   23.4730   41.8250 H   0  0  0  0  0  0  0  0  0  0  0  0
   55.6940   21.3020   45.1280 H   0  0  0  0  0  0  0  0  0  0  0  0
   57.6270   25.0440   45.2280 H   0  0  0  0  0  0  0  0  0  0  0  0
   55.5883   27.9058   45.0368 H   0  0  0  0  0  0  0  0  0  0  0  0
   56.3346   30.2272   44.9006 H   0  0  0  0  0  0  0  0  0  0  0  0
   59.8866   33.5378   44.8053 H   0  0  0  0  0  0  0  0  0  0  0  0
   58.5312   33.8367   45.9150 H   0  0  0  0  0  0  0  0  0  0  0  0
   60.6537   35.0823   46.5718 H   0  0  0  0  0  0  0  0  0  0  0  0
   60.0993   33.9676   47.8485 H   0  0  0  0  0  0  0  0  0  0  0  0
   63.1187   34.6575   46.0928 H   0  0  0  0  0  0  0  0  0  0  0  0
   62.5686   34.7050   47.8773 H   0  0  0  0  0  0  0  0  0  0  0  0
   64.2113   32.4370   47.0211 H   0  0  0  0  0  0  0  0  0  0  0  0
   65.0091   34.0371   47.1472 H   0  0  0  0  0  0  0  0  0  0  0  0
   65.9275   32.2031   49.2442 H   0  0  0  0  0  0  0  0  0  0  0  0
   65.6197   32.1001   51.6729 H   0  0  0  0  0  0  0  0  0  0  0  0
   63.6855   33.1340   52.8193 H   0  0  0  0  0  0  0  0  0  0  0  0
   61.9725   34.3245   51.4344 H   0  0  0  0  0  0  0  0  0  0  0  0
   62.2814   34.4427   48.9694 H   0  0  0  0  0  0  0  0  0  0  0  0
   62.1744   31.3420   46.3525 H   0  0  0  0  0  0  0  0  0  0  0  0
   62.1798   31.8610   48.0959 H   0  0  0  0  0  0  0  0  0  0  0  0
   60.2081   30.3865   47.3309 H   0  0  0  0  0  0  0  0  0  0  0  0
   59.8051   31.8908   48.2082 H   0  0  0  0  0  0  0  0  0  0  0  0
   60.3338   28.9756   45.7666 H   0  0  0  0  0  0  0  0  0  0  0  0
   59.5804   26.6167   45.9058 H   0  0  0  0  0  0  0  0  0  0  0  0
  1  2  2  0
  2  3  1  0
  3  4  1  0
  4  5  2  0
  5  6  1  0
  6  7  1  0
  7  8  2  0
  7  9  1  0
  2 10  1  0
 10 11  1  0
 11 12  2  0
 12 13  1  0
 13 14  2  0
 14 15  1  0
 15 16  2  0
 15 17  1  0
 17 18  1  0
 18 19  1  0
 19 20  1  0
 20 21  1  0
 21 22  1  0
 22 23  1  0
 23 24  2  0
 24 25  1  0
 25 26  2  0
 26 27  1  0
 27 28  2  0
 20 29  1  0
 29 30  1  0
 14 31  1  0
 31 32  2  0
  9  4  1  0
 32 11  1  0
 30 17  1  0
 28 23  1  0
  3 33  1  0
  3 34  1  0
  6 35  1  0
  9 36  1  0
 10 37  1  0
 12 38  1  0
 13 39  1  0
 18 40  1  0
 18 41  1  0
 19 42  1  0
 19 43  1  0
 21 44  1  0
 21 45  1  0
 22 46  1  0
 22 47  1  0
 24 48  1  0
 25 49  1  0
 26 50  1  0
 27 51  1  0
 28 52  1  0
 29 53  1  0
 29 54  1  0
 30 55  1  0
 30 56  1  0
 31 57  1  0
 32 58  1  0
M  END
>  <smiles>  (76) 
O=C(Cc1n[nH]c(=O)[nH]1)Nc1ccc(C(=O)N2CCN(CCc3ccccc3)CC2)cc1

>  <score_type>  (76) 
oracle

>  <origin>  (76) 
adg

>  <m_score__min__energy>  (76) 
-9.8900000000000006

>  <m_primary>  (76) 
energy

$$$$
76:0
     RDKit          3D

 41 44  0  0  0  0  0  0  0  0999 V2000
   55.1500   26.6160   46.0330 O   0  0  0  0  0  0  0  0  0  0  0  0
   56.2240   27.1800   45.6730 N   0  0  0  0  0  0  0  0  0  0  0  0
   56.0930   28.4590   45.2190 O   0  0  0  0  0  0  0  0  0  0  0  0
   57.4180   26.4410   45.7700 C   0  0  0  0  0  0  0  0  0  0  0  0
   57.3070   25.0680   45.5510 C   0  0  0  0  0  0  0  0  0  0  0  0
   58.3540   24.1980   45.6530 C   0  0  0  0  0  0  0  0  0  0  0  0
   59.5780   24.6990   45.9900 C   0  0  0  0  0  0  0  0  0  0  0  0
   59.7100   26.0470   46.2090 C   0  0  0  0  0  0  0  0  0  0  0  0
   58.6410   26.9480   46.1020 C   0  0  0  0  0  0  0  0  0  0  0  0
   58.9770   28.3480   46.2240 C   0  0  0  0  0  0  0  0  0  0  0  0
   59.9680   28.7770   47.0400 N   0  0  0  0  0  0  0  0  0  0  0  0
   60.0600   30.1140   47.0490 C   0  0  0  0  0  0  0  0  0  0  0  0
   61.0420   30.8420   47.8500 C   0  0  0  0  0  0  0  0  0  0  0  0
   62.1930   31.2450   47.1580 C   0  0  0  0  0  0  0  0  0  0  0  0
   63.1750   31.9290   47.8070 C   0  0  0  0  0  0  0  0  0  0  0  0
   63.0280   32.2260   49.1580 C   0  0  0  0  0  0  0  0  0  0  0  0
   61.8880   31.8240   49.8310 C   0  0  0  0  0  0  0  0  0  0  0  0
   60.8700   31.1230   49.1870 C   0  0  0  0  0  0  0  0  0  0  0  0
   59.0930   30.5680   46.2090 C   0  0  0  0  0  0  0  0  0  0  0  0
   58.8250   31.9610   45.9100 C   0  0  0  0  0  0  0  0  0  0  0  0
   59.5840   33.0110   46.3520 C   0  0  0  0  0  0  0  0  0  0  0  0
   59.2970   34.3410   46.0500 C   0  0  0  0  0  0  0  0  0  0  0  0
   58.1810   34.5840   45.2630 C   0  0  0  0  0  0  0  0  0  0  0  0
   57.3770   33.5490   44.7880 C   0  0  0  0  0  0  0  0  0  0  0  0
   57.7050   32.2410   45.1170 C   0  0  0  0  0  0  0  0  0  0  0  0
   58.4450   29.4640   45.7170 N   0  0  0  0  0  0  0  0  0  0  0  0
   56.3204   24.6635   45.2809 H   0  0  0  0  0  0  0  0  0  0  0  0
   58.2150   23.1225   45.4686 H   0  0  0  0  0  0  0  0  0  0  0  0
   60.4469   24.0311   46.0848 H   0  0  0  0  0  0  0  0  0  0  0  0
   60.7009   26.4393   46.4813 H   0  0  0  0  0  0  0  0  0  0  0  0
   62.3026   31.0082   46.0894 H   0  0  0  0  0  0  0  0  0  0  0  0
   64.0793   32.2449   47.2663 H   0  0  0  0  0  0  0  0  0  0  0  0
   63.8161   32.7791   49.6899 H   0  0  0  0  0  0  0  0  0  0  0  0
   61.7826   32.0633   50.8995 H   0  0  0  0  0  0  0  0  0  0  0  0
   59.9646   30.8066   49.7257 H   0  0  0  0  0  0  0  0  0  0  0  0
   60.4635   32.7944   46.9761 H   0  0  0  0  0  0  0  0  0  0  0  0
   59.9282   35.1625   46.4198 H   0  0  0  0  0  0  0  0  0  0  0  0
   57.9232   35.6222   45.0066 H   0  0  0  0  0  0  0  0  0  0  0  0
   56.4978   33.7651   44.1632 H   0  0  0  0  0  0  0  0  0  0  0  0
   57.0780   31.4147   44.7507 H   0  0  0  0  0  0  0  0  0  0  0  0
   57.6910   29.5770   45.0290 H   0  0  0  0  0  0  0  0  0  0  0  0
  1  2  2  0
  2  3  1  0
  2  4  1  0
  4  5  2  0
  5  6  1  0
  6  7  2  0
  7  8  1  0
  8  9  2  0
  9 10  1  0
 10 11  2  0
 11 12  1  0
 12 13  1  0
 13 14  2  0
 14 15  1  0
 15 16  2  0
 16 17  1  0
 17 18  2  0
 12 19  2  0
 19 20  1  0
 20 21  2  0
 21 22  1  0
 22 23  2  0
 23 24  1  0
 24 25  2  0
 19 26  1  0
  9  4  1  0
 26 10  1  0
 18 13  1  0
 25 20  1  0
  5 27  1  0
  6 28  1  0
  7 29  1  0
  8 30  1  0
 14 31  1  0
 15 32  1  0
 16 33  1  0
 17 34  1  0
 18 35  1  0
 21 36  1  0
 22 37  1  0
 23 38  1  0
 24 39  1  0
 25 40  1  0
 26 41  1  0
M  CHG  2   2   1   3  -1
M  END
>  <smiles>  (77) 
O=[N+]([O-])c1ccccc1-c1nc(-c2ccccc2)c(-c2ccccc2)[nH]1

>  <score_type>  (77) 
oracle

>  <origin>  (77) 
adg

>  <m_score__min__energy>  (77) 
-8.5600000000000005

>  <m_primary>  (77) 
energy

$$$$
77:0
     RDKit          3D

 38 40  0  0  0  0  0  0  0  0999 V2000
   56.2481   24.5327   46.1027 H   0  0  0  0  0  0  0  0  0  0  0  0
   57.2600   24.9040   45.8830 C   0  0  0  0  0  0  0  0  0  0  0  0
   58.1052   24.2017   45.8349 H   0  0  0  0  0  0  0  0  0  0  0  0
   57.4630   26.2120   45.6740 C   0  0  0  0  0  0  0  0  0  0  0  0
   58.7560   26.6810   45.3940 C   0  0  0  0  0  0  0  0  0  0  0  0
   59.5940   25.9700   45.3481 H   0  0  0  0  0  0  0  0  0  0  0  0
   58.9910   28.0400   45.1730 C   0  0  0  0  0  0  0  0  0  0  0  0
   60.0123   28.3854   44.9547 H   0  0  0  0  0  0  0  0  0  0  0  0
   57.9350   28.9770   45.2260 C   0  0  0  0  0  0  0  0  0  0  0  0
   58.1380   30.3030   45.0140 C   0  0  0  0  0  0  0  0  0  0  0  0
   58.3610   31.1830   46.0250 N   0  0  0  0  0  0  0  0  0  0  0  0
   58.5130   32.3780   45.4180 C   0  0  0  0  0  0  0  0  0  0  0  0
   58.7500   33.5380   46.0490 C   0  0  0  0  0  0  0  0  0  0  0  0
   58.3701   34.4650   45.5947 H   0  0  0  0  0  0  0  0  0  0  0  0
   59.4960   33.6370   47.3250 C   0  0  0  0  0  0  0  0  0  0  0  0
   58.9070   33.5780   48.5380 N   0  0  0  0  0  0  0  0  0  0  0  0
   59.8990   33.6560   49.4450 C   0  0  0  0  0  0  0  0  0  0  0  0
   59.6420   33.6030   50.9180 C   0  0  0  0  0  0  0  0  0  0  0  0
   60.5790   33.7962   51.4609 H   0  0  0  0  0  0  0  0  0  0  0  0
   58.8976   34.3665   51.1880 H   0  0  0  0  0  0  0  0  0  0  0  0
   59.2604   32.6073   51.1880 H   0  0  0  0  0  0  0  0  0  0  0  0
   61.1370   33.7580   48.8230 C   0  0  0  0  0  0  0  0  0  0  0  0
   62.4600   33.8110   49.4850 C   0  0  0  0  0  0  0  0  0  0  0  0
   62.6780   34.6320   50.4150 O   0  0  0  0  0  0  0  0  0  0  0  0
   63.4860   32.9660   49.0850 O   0  0  0  0  0  0  0  0  0  0  0  0
   60.8750   33.7650   47.4590 C   0  0  0  0  0  0  0  0  0  0  0  0
   61.8870   33.8410   46.3510 C   0  0  0  0  0  0  0  0  0  0  0  0
   62.8966   33.9168   46.7811 H   0  0  0  0  0  0  0  0  0  0  0  0
   61.8199   32.9353   45.7304 H   0  0  0  0  0  0  0  0  0  0  0  0
   61.6854   34.7265   45.7304 H   0  0  0  0  0  0  0  0  0  0  0  0
   58.3790   32.2000   44.0620 C   0  0  0  0  0  0  0  0  0  0  0  0
   58.4590   33.0960   43.1790 O   0  0  0  0  0  0  0  0  0  0  0  0
   58.1450   30.9060   43.7970 N   0  0  0  0  0  0  0  0  0  0  0  0
   58.0050   30.4990   42.8480 H   0  0  0  0  0  0  0  0  0  0  0  0
   56.6380   28.4950   45.5080 C   0  0  0  0  0  0  0  0  0  0  0  0
   55.7976   29.2033   45.5540 H   0  0  0  0  0  0  0  0  0  0  0  0
   56.4010   27.1340   45.7300 C   0  0  0  0  0  0  0  0  0  0  0  0
   55.1020   26.7150   46.0050 O   0  0  0  0  0  0  0  0  0  0  0  0
  1  2  1  0
  2  3  1  0
  2  4  2  0
  4  5  1  0
  5  6  1  0
  5  7  2  0
  7  8  1  0
  7  9  1  0
  9 10  2  0
 10 11  1  0
 11 12  1  0
 12 13  2  3
 13 14  1  0
 13 15  1  0
 15 16  1  0
 16 17  1  0
 17 18  1  0
 18 19  1  0
 18 20  1  0
 18 21  1  0
 17 22  2  0
 22 23  1  0
 23 24  2  0
 23 25  1  0
 22 26  1  0
 26 27  1  0
 27 28  1  0
 27 29  1  0
 27 30  1  0
 12 31  1  0
 31 32  2  0
 31 33  1  0
 33 34  1  0
  9 35  1  0
 35 36  1  0
 35 37  2  0
 37 38  1  0
 37  4  1  0
 33 10  1  0
 26 15  2  0
M  CHG  4  11  -1  16  -1  25  -1  38  -1
M  END
>  <UniqueID>  (78) 
71

>  <SMILES>  (78) 
C=c1cc/c(=c2/[n-]c(=Cc3[n-]c(C)c(C(=O)[O-])c3C)c(=O)[nH]2)cc1[O-]

>  <Energy>  (78) 
105.56452414505725

>  <Genealogy>  (78) 
C=c1ccc(=c2[n-]c(=Cc3[n-]c(C)c(C(=O)[O-])c3C)c(=O)[nH]2)cc1[O-] (protonated)
C=c1cc/c(=c2/[n-]c(=Cc3[n-]c(C)c(C(=O)[O-])c3C)c(=O)[nH]2)cc1[O-] (cis-trans isomerization)
C=c1cc/c(=c2/[n-]c(=Cc3[n-]c(C)c(C(=O)[O-])c3C)c(=O)[nH]2)cc1[O-] (3D coordinates assigned)
C=c1cc/c(=c2/[n-]c(=Cc3[n-]c(C)c(C(=O)[O-])c3C)c(=O)[nH]2)cc1[O-] (optimized conformer: 105.56452414505725 kcal/mol)

>  <smiles>  (78) 
C=c1ccc(=c2[nH]c(=O)c(=Cc3[nH]c(C)c(C(=O)O)c3C)[nH]2)cc1O

>  <score_type>  (78) 
oracle

>  <origin>  (78) 
adg

>  <m_score__min__energy>  (78) 
-13.609999999999999

>  <m_primary>  (78) 
energy

$$$$
78:0
     RDKit          3D

 65 69  0  0  0  0  0  0  0  0999 V2000
   58.2920   27.9070   47.4720 C   0  0  0  0  0  0  0  0  0  0  0  0
   58.1770   28.5300   46.2890 C   0  0  0  0  0  0  0  0  0  0  0  0
   57.9980   27.9130   45.0440 C   0  0  0  0  0  0  0  0  0  0  0  0
   57.8190   26.5960   44.8050 C   0  0  0  0  0  0  0  0  0  0  0  0
   57.2160   25.6550   45.7680 C   0  0  0  0  0  0  0  0  0  0  0  0
   57.8420   24.5980   46.3180 N   0  0  0  0  0  0  0  0  0  0  0  0
   56.9110   24.0840   47.1550 C   0  0  0  0  0  0  0  0  0  0  0  0
   57.1260   23.0650   47.8670 O   0  0  0  0  0  0  0  0  0  0  0  0
   55.7350   24.7490   47.1760 N   0  0  0  0  0  0  0  0  0  0  0  0
   55.9500   25.7460   46.3010 C   0  0  0  0  0  0  0  0  0  0  0  0
   55.0030   26.7140   45.9870 O   0  0  0  0  0  0  0  0  0  0  0  0
   57.9190   28.9370   44.1140 C   0  0  0  0  0  0  0  0  0  0  0  0
   58.0370   30.1210   44.8170 C   0  0  0  0  0  0  0  0  0  0  0  0
   57.9750   31.4830   44.1890 C   0  0  0  0  0  0  0  0  0  0  0  0
   58.1930   29.8830   46.1370 N   0  0  0  0  0  0  0  0  0  0  0  0
   58.1880   30.8940   47.2080 C   0  0  0  0  0  0  0  0  0  0  0  0
   59.3560   30.6800   48.1400 C   0  0  0  0  0  0  0  0  0  0  0  0
   60.6780   30.8360   47.6820 C   0  0  0  0  0  0  0  0  0  0  0  0
   61.7540   30.6830   48.5620 C   0  0  0  0  0  0  0  0  0  0  0  0
   61.5230   30.3630   49.9050 C   0  0  0  0  0  0  0  0  0  0  0  0
   62.6520   30.2920   50.8460 C   0  0  0  0  0  0  0  0  0  0  0  0
   63.3550   29.2440   50.8630 O   0  0  0  0  0  0  0  0  0  0  0  0
   62.9650   31.4090   51.7190 N   0  0  0  0  0  0  0  0  0  0  0  0
   61.7620   31.8610   52.4750 C   0  0  0  0  0  0  0  0  0  0  0  0
   61.3420   33.3110   52.1780 C   0  0  0  0  0  0  0  0  0  0  0  0
   61.4350   33.5810   50.7400 N   0  0  0  0  0  0  0  0  0  0  0  0
   60.2980   34.1030   50.0170 C   0  0  0  0  0  0  0  0  0  0  0  0
   59.3190   34.5820   50.6500 O   0  0  0  0  0  0  0  0  0  0  0  0
   60.2110   34.0480   48.5450 C   0  0  0  0  0  0  0  0  0  0  0  0
   58.9700   33.9650   47.8900 C   0  0  0  0  0  0  0  0  0  0  0  0
   58.9140   33.8890   46.4930 C   0  0  0  0  0  0  0  0  0  0  0  0
   60.0960   33.8890   45.7440 C   0  0  0  0  0  0  0  0  0  0  0  0
   61.3370   33.9520   46.3890 C   0  0  0  0  0  0  0  0  0  0  0  0
   61.3950   34.0230   47.7860 C   0  0  0  0  0  0  0  0  0  0  0  0
   62.7040   33.2860   50.0610 C   0  0  0  0  0  0  0  0  0  0  0  0
   63.6580   32.4860   50.9720 C   0  0  0  0  0  0  0  0  0  0  0  0
   60.2100   30.1740   50.3570 C   0  0  0  0  0  0  0  0  0  0  0  0
   59.1350   30.3280   49.4790 C   0  0  0  0  0  0  0  0  0  0  0  0
   58.4302   28.4943   48.3918 H   0  0  0  0  0  0  0  0  0  0  0  0
   58.2480   26.8090   47.5219 H   0  0  0  0  0  0  0  0  0  0  0  0
   58.1431   26.2000   43.8313 H   0  0  0  0  0  0  0  0  0  0  0  0
   57.7878   28.8286   43.0272 H   0  0  0  0  0  0  0  0  0  0  0  0
   57.9401   32.2491   44.9776 H   0  0  0  0  0  0  0  0  0  0  0  0
   58.8669   31.6398   43.5646 H   0  0  0  0  0  0  0  0  0  0  0  0
   57.0725   31.5581   43.5646 H   0  0  0  0  0  0  0  0  0  0  0  0
   58.2604   31.8962   46.7605 H   0  0  0  0  0  0  0  0  0  0  0  0
   57.2534   30.8021   47.7807 H   0  0  0  0  0  0  0  0  0  0  0  0
   60.8657   31.0796   46.6259 H   0  0  0  0  0  0  0  0  0  0  0  0
   62.7838   30.8144   48.1982 H   0  0  0  0  0  0  0  0  0  0  0  0
   63.6590   31.0650   52.4250 H   0  0  0  0  0  0  0  0  0  0  0  0
   60.9227   31.1984   52.2170 H   0  0  0  0  0  0  0  0  0  0  0  0
   62.0237   31.8188   53.5426 H   0  0  0  0  0  0  0  0  0  0  0  0
   60.3045   33.4640   52.5100 H   0  0  0  0  0  0  0  0  0  0  0  0
   62.0135   33.9964   52.7159 H   0  0  0  0  0  0  0  0  0  0  0  0
   58.0397   33.9597   48.4769 H   0  0  0  0  0  0  0  0  0  0  0  0
   57.9406   33.8293   45.9842 H   0  0  0  0  0  0  0  0  0  0  0  0
   60.0500   33.8394   44.6461 H   0  0  0  0  0  0  0  0  0  0  0  0
   62.2653   33.9457   45.7989 H   0  0  0  0  0  0  0  0  0  0  0  0
   62.3708   34.0594   48.2924 H   0  0  0  0  0  0  0  0  0  0  0  0
   62.4967   32.6972   49.1552 H   0  0  0  0  0  0  0  0  0  0  0  0
   63.1890   34.2395   49.8047 H   0  0  0  0  0  0  0  0  0  0  0  0
   64.4430   32.0332   50.3486 H   0  0  0  0  0  0  0  0  0  0  0  0
   64.0781   33.1854   51.7097 H   0  0  0  0  0  0  0  0  0  0  0  0
   60.0255   29.9034   51.4071 H   0  0  0  0  0  0  0  0  0  0  0  0
   58.1078   30.1721   49.8404 H   0  0  0  0  0  0  0  0  0  0  0  0
  1  2  2  0
  2  3  1  0
  3  4  2  3
  4  5  1  0
  5  6  1  0
  6  7  1  0
  7  8  2  0
  7  9  1  0
  9 10  1  0
 10 11  1  0
  3 12  1  0
 12 13  2  0
 13 14  1  0
 13 15  1  0
 15 16  1  0
 16 17  1  0
 17 18  2  0
 18 19  1  0
 19 20  2  0
 20 21  1  0
 21 22  2  0
 21 23  1  0
 23 24  1  0
 24 25  1  0
 25 26  1  0
 26 27  1  0
 27 28  2  0
 27 29  1  0
 29 30  2  0
 30 31  1  0
 31 32  2  0
 32 33  1  0
 33 34  2  0
 26 35  1  0
 35 36  1  0
 20 37  1  0
 37 38  2  0
 15  2  1  0
 38 17  1  0
 10  5  2  0
 36 23  1  0
 34 29  1  0
  1 39  1  0
  1 40  1  0
  4 41  1  0
 12 42  1  0
 14 43  1  0
 14 44  1  0
 14 45  1  0
 16 46  1  0
 16 47  1  0
 18 48  1  0
 19 49  1  0
 23 50  1  0
 24 51  1  0
 24 52  1  0
 25 53  1  0
 25 54  1  0
 30 55  1  0
 31 56  1  0
 32 57  1  0
 33 58  1  0
 34 59  1  0
 35 60  1  0
 35 61  1  0
 36 62  1  0
 36 63  1  0
 37 64  1  0
 38 65  1  0
M  CHG  4   6  -1   9  -1  11  -1  23   1
M  END
>  <UniqueID>  (79) 
72

>  <SMILES>  (79) 
C=c1c(=Cc2[n-]c(=O)[n-]c2[O-])cc(C)n1Cc1ccc(C(=O)[NH+]2CCN(C(=O)c3ccccc3)CC2)cc1

>  <Energy>  (79) 
157.7823971092982

>  <Genealogy>  (79) 
C=c1c(=Cc2[n-]c(=O)[n-]c2[O-])cc(C)n1Cc1ccc(C(=O)[NH+]2CCN(C(=O)c3ccccc3)CC2)cc1 (protonated)
C=c1c(=Cc2[n-]c(=O)[n-]c2[O-])cc(C)n1Cc1ccc(C(=O)[NH+]2CCN(C(=O)c3ccccc3)CC2)cc1 (3D coordinates assigned)
C=c1c(=Cc2[n-]c(=O)[n-]c2[O-])cc(C)n1Cc1ccc(C(=O)[NH+]2CCN(C(=O)c3ccccc3)CC2)cc1 (nonaromatic ring conformer: 157.7823971092982 kcal/mol)

>  <smiles>  (79) 
C=c1c(=Cc2[nH]c(=O)[nH]c2O)cc(C)n1Cc1ccc(C(=O)N2CCN(C(=O)c3ccccc3)CC2)cc1

>  <score_type>  (79) 
oracle

>  <origin>  (79) 
adg

>  <m_score__min__energy>  (79) 
-16.41

>  <m_primary>  (79) 
energy

$$$$
79:0
     RDKit          3D

 74 77  0  0  0  0  0  0  0  0999 V2000
   55.4240   29.3150   44.9160 O   0  0  0  0  0  0  0  0  0  0  0  0
   56.2340   30.1470   44.4260 C   0  0  0  0  0  0  0  0  0  0  0  0
   57.1800   29.6980   43.3480 C   0  0  0  0  0  0  0  0  0  0  0  0
   57.8780   28.5340   43.7840 O   0  0  0  0  0  0  0  0  0  0  0  0
   58.3870   28.3390   45.0750 C   0  0  0  0  0  0  0  0  0  0  0  0
   57.8080   27.4420   45.9910 C   0  0  0  0  0  0  0  0  0  0  0  0
   58.3730   27.2730   47.2590 C   0  0  0  0  0  0  0  0  0  0  0  0
   59.5140   28.0020   47.6320 C   0  0  0  0  0  0  0  0  0  0  0  0
   60.1680   27.7600   48.9650 C   0  0  0  0  0  0  0  0  0  0  0  0
   60.4590   29.0650   49.6450 C   0  0  0  0  0  0  0  0  0  0  0  0
   61.5290   29.6760   49.3810 O   0  0  0  0  0  0  0  0  0  0  0  0
   59.5130   29.6260   50.5670 N   0  0  0  0  0  0  0  0  0  0  0  0
   59.7050   30.9280   51.1970 C   0  0  0  0  0  0  0  0  0  0  0  0
   58.5580   31.2170   52.1690 C   0  0  0  0  0  0  0  0  0  0  0  0
   57.9570   29.9260   52.7410 C   0  0  0  0  0  0  0  0  0  0  0  0
   56.5690   29.7150   52.2710 N   0  0  0  0  0  0  0  0  0  0  0  0
   55.8000   28.9550   53.2730 C   0  0  0  0  0  0  0  0  0  0  0  0
   54.3700   28.6860   52.7570 C   0  0  0  0  0  0  0  0  0  0  0  0
   54.0440   29.4670   51.6180 O   0  0  0  0  0  0  0  0  0  0  0  0
   54.3660   30.8200   51.8600 C   0  0  0  0  0  0  0  0  0  0  0  0
   55.8920   31.0000   51.9750 C   0  0  0  0  0  0  0  0  0  0  0  0
   60.0830   28.9030   46.7190 C   0  0  0  0  0  0  0  0  0  0  0  0
   59.5190   29.0700   45.4530 C   0  0  0  0  0  0  0  0  0  0  0  0
   56.1780   31.5130   44.8700 N   0  0  0  0  0  0  0  0  0  0  0  0
   57.3080   32.3350   45.1940 C   0  0  0  0  0  0  0  0  0  0  0  0
   57.9020   33.1060   44.1880 C   0  0  0  0  0  0  0  0  0  0  0  0
   59.0170   33.8990   44.4740 C   0  0  0  0  0  0  0  0  0  0  0  0
   59.5330   33.9430   45.7720 C   0  0  0  0  0  0  0  0  0  0  0  0
   58.9230   33.2070   46.7970 C   0  0  0  0  0  0  0  0  0  0  0  0
   59.5430   33.2940   48.4500 S   0  0  0  0  0  0  0  0  0  0  0  0
   58.5320   32.6980   49.3910 O   0  0  0  0  0  0  0  0  0  0  0  0
   59.7350   34.7370   48.8300 O   0  0  0  0  0  0  0  0  0  0  0  0
   61.0670   32.4500   48.6130 N   0  0  0  0  0  0  0  0  0  0  0  0
   62.1190   33.3220   49.1780 C   0  0  0  0  0  0  0  0  0  0  0  0
   63.0950   33.8240   48.0960 C   0  0  0  0  0  0  0  0  0  0  0  0
   63.7470   32.7760   47.3910 O   0  0  0  0  0  0  0  0  0  0  0  0
   62.9730   31.5880   47.2770 C   0  0  0  0  0  0  0  0  0  0  0  0
   61.4550   31.8330   47.3290 C   0  0  0  0  0  0  0  0  0  0  0  0
   57.8100   32.4060   46.5040 C   0  0  0  0  0  0  0  0  0  0  0  0
   56.6120   29.4648   42.4353 H   0  0  0  0  0  0  0  0  0  0  0  0
   57.9016   30.5005   43.1353 H   0  0  0  0  0  0  0  0  0  0  0  0
   56.9098   26.8728   45.7095 H   0  0  0  0  0  0  0  0  0  0  0  0
   57.9209   26.5646   47.9688 H   0  0  0  0  0  0  0  0  0  0  0  0
   59.4939   27.1634   49.5973 H   0  0  0  0  0  0  0  0  0  0  0  0
   61.1129   27.2192   48.8078 H   0  0  0  0  0  0  0  0  0  0  0  0
   58.6370   29.0990   50.7820 H   0  0  0  0  0  0  0  0  0  0  0  0
   60.6573   30.9288   51.7476 H   0  0  0  0  0  0  0  0  0  0  0  0
   59.7217   31.7053   50.4188 H   0  0  0  0  0  0  0  0  0  0  0  0
   58.9402   31.8299   52.9986 H   0  0  0  0  0  0  0  0  0  0  0  0
   57.7676   31.7471   51.6174 H   0  0  0  0  0  0  0  0  0  0  0  0
   58.5749   29.0733   52.4230 H   0  0  0  0  0  0  0  0  0  0  0  0
   57.9393   30.0116   53.8375 H   0  0  0  0  0  0  0  0  0  0  0  0
   56.3029   27.9959   53.4659 H   0  0  0  0  0  0  0  0  0  0  0  0
   55.7417   29.5423   54.2013 H   0  0  0  0  0  0  0  0  0  0  0  0
   54.2862   27.6221   52.4902 H   0  0  0  0  0  0  0  0  0  0  0  0
   53.6696   28.9598   53.5598 H   0  0  0  0  0  0  0  0  0  0  0  0
   53.9906   31.4355   51.0292 H   0  0  0  0  0  0  0  0  0  0  0  0
   53.8989   31.1330   52.8054 H   0  0  0  0  0  0  0  0  0  0  0  0
   56.2779   31.3968   51.0244 H   0  0  0  0  0  0  0  0  0  0  0  0
   56.0964   31.6966   52.8014 H   0  0  0  0  0  0  0  0  0  0  0  0
   60.9762   29.4794   47.0018 H   0  0  0  0  0  0  0  0  0  0  0  0
   59.9685   29.7828   44.7459 H   0  0  0  0  0  0  0  0  0  0  0  0
   57.4897   33.0878   43.1683 H   0  0  0  0  0  0  0  0  0  0  0  0
   59.4894   34.4898   43.6754 H   0  0  0  0  0  0  0  0  0  0  0  0
   60.4197   34.5565   45.9897 H   0  0  0  0  0  0  0  0  0  0  0  0
   61.6418   34.1901   49.6563 H   0  0  0  0  0  0  0  0  0  0  0  0
   62.6939   32.7323   49.9072 H   0  0  0  0  0  0  0  0  0  0  0  0
   62.5310   34.4318   47.3731 H   0  0  0  0  0  0  0  0  0  0  0  0
   63.8763   34.4043   48.6087 H   0  0  0  0  0  0  0  0  0  0  0  0
   63.2146   31.1065   46.3180 H   0  0  0  0  0  0  0  0  0  0  0  0
   63.2267   30.9544   48.1397 H   0  0  0  0  0  0  0  0  0  0  0  0
   61.1697   32.5042   46.5056 H   0  0  0  0  0  0  0  0  0  0  0  0
   60.9384   30.8667   47.2319 H   0  0  0  0  0  0  0  0  0  0  0  0
   57.3264   31.8289   47.3060 H   0  0  0  0  0  0  0  0  0  0  0  0
  1  2  2  0
  2  3  1  0
  3  4  1  0
  4  5  1  0
  5  6  2  0
  6  7  1  0
  7  8  2  0
  8  9  1  0
  9 10  1  0
 10 11  2  0
 10 12  1  0
 12 13  1  0
 13 14  1  0
 14 15  1  0
 15 16  1  0
 16 17  1  0
 17 18  1  0
 18 19  1  0
 19 20  1  0
 20 21  1  0
  8 22  1  0
 22 23  2  0
  2 24  1  0
 24 25  1  0
 25 26  2  0
 26 27  1  0
 27 28  2  0
 28 29  1  0
 29 30  1  0
 30 31  2  0
 30 32  2  0
 30 33  1  0
 33 34  1  0
 34 35  1  0
 35 36  1  0
 36 37  1  0
 37 38  1  0
 29 39  2  0
 23  5  1  0
 39 25  1  0
 21 16  1  0
 38 33  1  0
  3 40  1  0
  3 41  1  0
  6 42  1  0
  7 43  1  0
  9 44  1  0
  9 45  1  0
 12 46  1  0
 13 47  1  0
 13 48  1  0
 14 49  1  0
 14 50  1  0
 15 51  1  0
 15 52  1  0
 17 53  1  0
 17 54  1  0
 18 55  1  0
 18 56  1  0
 20 57  1  0
 20 58  1  0
 21 59  1  0
 21 60  1  0
 22 61  1  0
 23 62  1  0
 26 63  1  0
 27 64  1  0
 28 65  1  0
 34 66  1  0
 34 67  1  0
 35 68  1  0
 35 69  1  0
 37 70  1  0
 37 71  1  0
 38 72  1  0
 38 73  1  0
 39 74  1  0
M  CHG  1  24  -1
M  END
>  <UniqueID>  (80) 
73

>  <SMILES>  (80) 
O=C(COc1ccc(CC(=O)NCCCN2CCOCC2)cc1)[N-]c1cccc(S(=O)(=O)N2CCOCC2)c1

>  <Energy>  (80) 
92.14333871039021

>  <Genealogy>  (80) 
O=C(COc1ccc(CC(=O)NCCCN2CCOCC2)cc1)[N-]c1cccc(S(=O)(=O)N2CCOCC2)c1 (protonated)
O=C(COc1ccc(CC(=O)NCCCN2CCOCC2)cc1)[N-]c1cccc(S(=O)(=O)N2CCOCC2)c1 (3D coordinates assigned)
O=C(COc1ccc(CC(=O)NCCCN2CCOCC2)cc1)[N-]c1cccc(S(=O)(=O)N2CCOCC2)c1 (nonaromatic ring conformer: 92.14333871039021 kcal/mol)

>  <smiles>  (80) 
O=C(Cc1ccc(OCC(=O)Nc2cccc(S(=O)(=O)N3CCOCC3)c2)cc1)NCCCN1CCOCC1

>  <score_type>  (80) 
oracle

>  <origin>  (80) 
adg

>  <m_score__min__energy>  (80) 
-12.31

>  <m_primary>  (80) 
energy

$$$$
80:0
     RDKit          3D

 56 59  0  0  0  0  0  0  0  0999 V2000
   54.3400   26.7130   46.7480 H   0  0  0  0  0  0  0  0  0  0  0  0
   54.4560   26.2300   45.8650 O   0  0  0  0  0  0  0  0  0  0  0  0
   53.9280   24.9600   45.6550 C   0  0  0  0  0  0  0  0  0  0  0  0
   52.7880   24.7350   44.9810 N   0  0  0  0  0  0  0  0  0  0  0  0
   52.6550   23.3920   45.0550 C   0  0  0  0  0  0  0  0  0  0  0  0
   51.6920   22.7750   44.5270 O   0  0  0  0  0  0  0  0  0  0  0  0
   53.6360   22.7610   45.7360 N   0  0  0  0  0  0  0  0  0  0  0  0
   54.4530   23.7650   46.1030 C   0  0  0  0  0  0  0  0  0  0  0  0
   55.6670   23.5720   46.9200 C   0  0  0  0  0  0  0  0  0  0  0  0
   55.5623   23.0367   47.8752 H   0  0  0  0  0  0  0  0  0  0  0  0
   56.9060   24.0110   46.5720 C   0  0  0  0  0  0  0  0  0  0  0  0
   57.3050   25.3310   46.8940 C   0  0  0  0  0  0  0  0  0  0  0  0
   56.6334   25.9650   47.4915 H   0  0  0  0  0  0  0  0  0  0  0  0
   58.5320   25.8460   46.4700 C   0  0  0  0  0  0  0  0  0  0  0  0
   58.9060   27.2400   46.7930 C   0  0  0  0  0  0  0  0  0  0  0  0
   59.4530   27.4760   47.9060 O   0  0  0  0  0  0  0  0  0  0  0  0
   58.6490   28.3240   45.8770 N   0  0  0  0  0  0  0  0  0  0  0  0
   59.5200   29.5130   45.8980 C   0  0  0  0  0  0  0  0  0  0  0  0
   59.9250   29.6401   46.9128 H   0  0  0  0  0  0  0  0  0  0  0  0
   60.3276   29.3590   45.1672 H   0  0  0  0  0  0  0  0  0  0  0  0
   58.7560   30.7840   45.5050 C   0  0  0  0  0  0  0  0  0  0  0  0
   58.0457   31.0375   46.3058 H   0  0  0  0  0  0  0  0  0  0  0  0
   59.4834   31.5962   45.3596 H   0  0  0  0  0  0  0  0  0  0  0  0
   58.0140   30.5930   44.2480 N   0  0  0  0  0  0  0  0  0  0  0  0
   57.7290   31.6980   43.3620 C   0  0  0  0  0  0  0  0  0  0  0  0
   57.3820   31.4640   42.1710 O   0  0  0  0  0  0  0  0  0  0  0  0
   57.8170   33.1380   43.8050 C   0  0  0  0  0  0  0  0  0  0  0  0
   58.8768   33.4161   43.9021 H   0  0  0  0  0  0  0  0  0  0  0  0
   57.3119   33.7584   43.0501 H   0  0  0  0  0  0  0  0  0  0  0  0
   57.1180   33.3660   45.1540 C   0  0  0  0  0  0  0  0  0  0  0  0
   56.3703   34.1642   45.0362 H   0  0  0  0  0  0  0  0  0  0  0  0
   56.6453   32.4198   45.4562 H   0  0  0  0  0  0  0  0  0  0  0  0
   58.0910   33.7660   46.2330 C   0  0  0  0  0  0  0  0  0  0  0  0
   58.0380   33.1480   47.4940 C   0  0  0  0  0  0  0  0  0  0  0  0
   57.2496   32.4125   47.7117 H   0  0  0  0  0  0  0  0  0  0  0  0
   58.9860   33.4660   48.4740 C   0  0  0  0  0  0  0  0  0  0  0  0
   58.9364   32.9865   49.4627 H   0  0  0  0  0  0  0  0  0  0  0  0
   59.9950   34.3920   48.1970 C   0  0  0  0  0  0  0  0  0  0  0  0
   60.7421   34.6371   48.9663 H   0  0  0  0  0  0  0  0  0  0  0  0
   60.0560   35.0070   46.9440 C   0  0  0  0  0  0  0  0  0  0  0  0
   60.8513   35.7358   46.7285 H   0  0  0  0  0  0  0  0  0  0  0  0
   59.1080   34.6980   45.9630 C   0  0  0  0  0  0  0  0  0  0  0  0
   59.1585   35.1854   44.9782 H   0  0  0  0  0  0  0  0  0  0  0  0
   57.5250   29.2540   43.8870 C   0  0  0  0  0  0  0  0  0  0  0  0
   56.5437   29.3492   43.3991 H   0  0  0  0  0  0  0  0  0  0  0  0
   58.2519   28.7884   43.2052 H   0  0  0  0  0  0  0  0  0  0  0  0
   57.3830   28.3660   45.1280 C   0  0  0  0  0  0  0  0  0  0  0  0
   56.5921   28.7722   45.7757 H   0  0  0  0  0  0  0  0  0  0  0  0
   57.1236   27.3458   44.8087 H   0  0  0  0  0  0  0  0  0  0  0  0
   59.3950   25.0210   45.7500 C   0  0  0  0  0  0  0  0  0  0  0  0
   60.3731   25.4020   45.4211 H   0  0  0  0  0  0  0  0  0  0  0  0
   59.0290   23.7490   45.4550 N   0  0  0  0  0  0  0  0  0  0  0  0
   57.8330   23.2110   45.8290 C   0  0  0  0  0  0  0  0  0  0  0  0
   57.6190   21.9280   45.4960 C   0  0  0  0  0  0  0  0  0  0  0  0
   56.6727   21.4390   45.7706 H   0  0  0  0  0  0  0  0  0  0  0  0
   58.3900   21.3659   44.9486 H   0  0  0  0  0  0  0  0  0  0  0  0
  1  2  1  0
  2  3  1  0
  3  4  1  0
  4  5  1  0
  5  6  2  0
  5  7  1  0
  7  8  1  0
  8  9  1  0
  9 10  1  0
  9 11  2  0
 11 12  1  0
 12 13  1  0
 12 14  2  0
 14 15  1  0
 15 16  2  0
 15 17  1  0
 17 18  1  0
 18 19  1  0
 18 20  1  0
 18 21  1  0
 21 22  1  0
 21 23  1  0
 21 24  1  0
 24 25  1  0
 25 26  2  0
 25 27  1  0
 27 28  1  0
 27 29  1  0
 27 30  1  0
 30 31  1  0
 30 32  1  0
 30 33  1  0
 33 34  2  0
 34 35  1  0
 34 36  1  0
 36 37  1  0
 36 38  2  0
 38 39  1  0
 38 40  1  0
 40 41  1  0
 40 42  2  0
 42 43  1  0
 24 44  1  0
 44 45  1  0
 44 46  1  0
 44 47  1  0
 47 48  1  0
 47 49  1  0
 14 50  1  0
 50 51  1  0
 50 52  2  0
 52 53  1  0
 53 54  2  0
 54 55  1  0
 54 56  1  0
  8  3  2  0
 53 11  1  0
 47 17  1  0
 42 33  1  0
M  CHG  2   4  -1   7  -1
M  END
>  <UniqueID>  (81) 
74

>  <SMILES>  (81) 
C=c1ncc(C(=O)N2CCN(C(=O)CCc3ccccc3)CC2)c/c1=C\c1[n-]c(=O)[n-]c1O

>  <Energy>  (81) 
108.23869126920718

>  <Genealogy>  (81) 
C=c1ncc(C(=O)N2CCN(C(=O)CCc3ccccc3)CC2)cc1=Cc1[n-]c(=O)[n-]c1O (protonated)
C=c1ncc(C(=O)N2CCN(C(=O)CCc3ccccc3)CC2)c/c1=C\c1[n-]c(=O)[n-]c1O (cis-trans isomerization)
C=c1ncc(C(=O)N2CCN(C(=O)CCc3ccccc3)CC2)c/c1=C\c1[n-]c(=O)[n-]c1O (3D coordinates assigned)
C=c1ncc(C(=O)N2CCN(C(=O)CCc3ccccc3)CC2)c/c1=C\c1[n-]c(=O)[n-]c1O (nonaromatic ring conformer: 108.23869126920718 kcal/mol)

>  <smiles>  (81) 
C=c1ncc(C(=O)N2CCN(C(=O)CCc3ccccc3)CC2)cc1=Cc1[nH]c(=O)[nH]c1O

>  <score_type>  (81) 
oracle

>  <origin>  (81) 
adg

>  <m_score__min__energy>  (81) 
-14.609999999999999

>  <m_primary>  (81) 
energy

$$$$
81:0
     RDKit          3D

 44 46  0  0  0  0  0  0  0  0999 V2000
   62.5780   32.4120   47.1750 C   0  0  0  0  0  0  0  0  0  0  0  0
   62.0140   33.7590   47.6370 C   0  0  2  0  0  0  0  0  0  0  0  0
   61.1590   33.6090   48.9160 C   0  0  0  0  0  0  0  0  0  0  0  0
   59.8750   32.9610   48.6010 N   0  0  0  0  0  0  0  0  0  0  0  0
   59.3120   32.0320   49.5370 C   0  0  0  0  0  0  0  0  0  0  0  0
   58.4160   32.4140   50.3430 O   0  0  0  0  0  0  0  0  0  0  0  0
   59.7250   30.5960   49.5110 C   0  0  0  0  0  0  0  0  0  0  0  0
   59.5960   30.0820   48.1510 N   0  0  0  0  0  0  0  0  0  0  0  0
   59.8310   28.7210   47.7650 C   0  0  0  0  0  0  0  0  0  0  0  0
   60.0320   27.8560   48.6640 O   0  0  0  0  0  0  0  0  0  0  0  0
   59.8560   28.2940   46.3230 C   0  0  0  0  0  0  0  0  0  0  0  0
   58.8570   29.0660   45.5040 C   0  0  0  0  0  0  0  0  0  0  0  0
   59.2560   30.2090   44.7850 C   0  0  0  0  0  0  0  0  0  0  0  0
   58.3200   30.9420   44.0520 C   0  0  0  0  0  0  0  0  0  0  0  0
   56.9770   30.5530   44.0430 C   0  0  0  0  0  0  0  0  0  0  0  0
   56.5630   29.4190   44.7570 C   0  0  0  0  0  0  0  0  0  0  0  0
   55.2170   29.0420   44.7470 O   0  0  0  0  0  0  0  0  0  0  0  0
   57.5040   28.6750   45.4850 C   0  0  0  0  0  0  0  0  0  0  0  0
   59.1760   33.3300   47.3900 C   0  0  0  0  0  0  0  0  0  0  0  0
   57.8060   33.0520   47.2010 C   0  0  0  0  0  0  0  0  0  0  0  0
   57.1560   33.4770   46.0330 C   0  0  0  0  0  0  0  0  0  0  0  0
   57.8680   34.1700   45.0440 C   0  0  0  0  0  0  0  0  0  0  0  0
   59.2250   34.4510   45.2280 C   0  0  0  0  0  0  0  0  0  0  0  0
   59.8790   34.0370   46.3960 C   0  0  0  0  0  0  0  0  0  0  0  0
   61.2370   34.3400   46.5790 O   0  0  0  0  0  0  0  0  0  0  0  0
   62.8338   31.8010   48.0532 H   0  0  0  0  0  0  0  0  0  0  0  0
   61.8242   31.8869   46.5700 H   0  0  0  0  0  0  0  0  0  0  0  0
   63.4811   32.5807   46.5700 H   0  0  0  0  0  0  0  0  0  0  0  0
   62.8565   34.4224   47.8821 H   0  0  0  0  0  0  0  0  0  0  0  0
   61.7052   32.9951   49.6473 H   0  0  0  0  0  0  0  0  0  0  0  0
   60.9622   34.6076   49.3332 H   0  0  0  0  0  0  0  0  0  0  0  0
   60.7712   30.5085   49.8393 H   0  0  0  0  0  0  0  0  0  0  0  0
   59.0810   30.0148   50.1874 H   0  0  0  0  0  0  0  0  0  0  0  0
   60.8630   28.4676   45.9158 H   0  0  0  0  0  0  0  0  0  0  0  0
   59.5933   27.2270   46.2735 H   0  0  0  0  0  0  0  0  0  0  0  0
   60.3092   30.5259   44.8007 H   0  0  0  0  0  0  0  0  0  0  0  0
   58.6397   31.8263   43.4812 H   0  0  0  0  0  0  0  0  0  0  0  0
   56.2413   31.1394   43.4730 H   0  0  0  0  0  0  0  0  0  0  0  0
   54.6780   28.9650   45.6080 H   0  0  0  0  0  0  0  0  0  0  0  0
   57.1837   27.7828   46.0431 H   0  0  0  0  0  0  0  0  0  0  0  0
   57.2464   32.5008   47.9711 H   0  0  0  0  0  0  0  0  0  0  0  0
   56.0855   33.2661   45.8928 H   0  0  0  0  0  0  0  0  0  0  0  0
   57.3591   34.4925   44.1236 H   0  0  0  0  0  0  0  0  0  0  0  0
   59.7812   34.9990   44.4532 H   0  0  0  0  0  0  0  0  0  0  0  0
  1  2  1  0
  2  3  1  0
  3  4  1  0
  4  5  1  0
  5  6  2  0
  5  7  1  0
  7  8  1  0
  8  9  1  0
  9 10  2  0
  9 11  1  0
 11 12  1  0
 12 13  2  0
 13 14  1  0
 14 15  2  0
 15 16  1  0
 16 17  1  0
 16 18  2  0
  4 19  1  0
 19 20  2  0
 20 21  1  0
 21 22  2  0
 22 23  1  0
 23 24  2  0
 24 25  1  0
 25  2  1  0
 18 12  1  0
 24 19  1  0
  1 26  1  0
  1 27  1  0
  1 28  1  0
  2 29  1  1
  3 30  1  0
  3 31  1  0
  7 32  1  0
  7 33  1  0
 11 34  1  0
 11 35  1  0
 13 36  1  0
 14 37  1  0
 15 38  1  0
 17 39  1  0
 18 40  1  0
 20 41  1  0
 21 42  1  0
 22 43  1  0
 23 44  1  0
M  CHG  1   8  -1
M  END
>  <UniqueID>  (82) 
75

>  <SMILES>  (82) 
C[C@@H]1CN(C(=O)C[N-]C(=O)Cc2cccc(O)c2)c2ccccc2O1

>  <Energy>  (82) 
47.1280960113531

>  <Genealogy>  (82) 
CC1CN(C(=O)C[N-]C(=O)Cc2cccc(O)c2)c2ccccc2O1 (protonated)
C[C@@H]1CN(C(=O)C[N-]C(=O)Cc2cccc(O)c2)c2ccccc2O1 (chirality)
C[C@@H]1CN(C(=O)C[N-]C(=O)Cc2cccc(O)c2)c2ccccc2O1 (3D coordinates assigned)
C[C@@H]1CN(C(=O)C[N-]C(=O)Cc2cccc(O)c2)c2ccccc2O1 (nonaromatic ring conformer: 47.1280960113531 kcal/mol)

>  <smiles>  (82) 
CC1CN(C(=O)CNC(=O)Cc2cccc(O)c2)c2ccccc2O1

>  <score_type>  (82) 
oracle

>  <origin>  (82) 
adg

>  <m_score__min__energy>  (82) 
-11.17

>  <m_primary>  (82) 
energy

$$$$
82:0
     RDKit          3D

 45 48  0  0  0  0  0  0  0  0999 V2000
   63.2534   33.5532   47.6829 H   0  0  0  0  0  0  0  0  0  0  0  0
   62.3830   33.4730   47.0150 C   0  0  0  0  0  0  0  0  0  0  0  0
   62.5303   33.3565   45.9312 H   0  0  0  0  0  0  0  0  0  0  0  0
   61.1500   33.5170   47.5190 C   0  0  0  0  0  0  0  0  0  0  0  0
   61.0437   33.6344   48.6075 H   0  0  0  0  0  0  0  0  0  0  0  0
   59.9110   33.4180   46.7080 C   0  0  0  0  0  0  0  0  0  0  0  0
   59.1170   34.5400   46.3980 C   0  0  0  0  0  0  0  0  0  0  0  0
   59.4052   35.5344   46.7697 H   0  0  0  0  0  0  0  0  0  0  0  0
   57.9660   34.3950   45.6210 C   0  0  0  0  0  0  0  0  0  0  0  0
   57.3489   35.2754   45.3883 H   0  0  0  0  0  0  0  0  0  0  0  0
   57.5940   33.1400   45.1380 C   0  0  0  0  0  0  0  0  0  0  0  0
   56.6822   33.0356   44.5316 H   0  0  0  0  0  0  0  0  0  0  0  0
   58.3780   32.0080   45.4220 C   0  0  0  0  0  0  0  0  0  0  0  0
   58.0110   30.6650   44.9160 C   0  0  0  0  0  0  0  0  0  0  0  0
   58.3170   29.5490   45.5380 O   0  0  0  0  0  0  0  0  0  0  0  0
   57.8690   28.5340   44.8380 C   0  0  0  0  0  0  0  0  0  0  0  0
   57.9730   27.1160   45.2290 C   0  0  0  0  0  0  0  0  0  0  0  0
   58.6543   26.8743   46.0581 H   0  0  0  0  0  0  0  0  0  0  0  0
   57.3060   26.0850   44.6600 C   0  0  0  0  0  0  0  0  0  0  0  0
   57.5520   25.6070   43.2750 C   0  0  0  0  0  0  0  0  0  0  0  0
   58.1370   26.3310   42.4260 O   0  0  0  0  0  0  0  0  0  0  0  0
   57.0390   24.3390   42.8610 N   0  0  0  0  0  0  0  0  0  0  0  0
   57.2950   23.9680   41.9190 H   0  0  0  0  0  0  0  0  0  0  0  0
   56.0970   23.6250   43.6630 C   0  0  0  0  0  0  0  0  0  0  0  0
   55.6290   22.5340   43.2370 O   0  0  0  0  0  0  0  0  0  0  0  0
   55.6620   24.1630   44.9250 N   0  0  0  0  0  0  0  0  0  0  0  0
   54.6520   23.4790   45.6900 C   0  0  0  0  0  0  0  0  0  0  0  0
   55.0120   22.6810   46.7880 C   0  0  0  0  0  0  0  0  0  0  0  0
   56.0712   22.5761   47.0656 H   0  0  0  0  0  0  0  0  0  0  0  0
   54.0280   22.0190   47.5300 C   0  0  0  0  0  0  0  0  0  0  0  0
   54.3147   21.3947   48.3891 H   0  0  0  0  0  0  0  0  0  0  0  0
   52.6810   22.1500   47.1810 C   0  0  0  0  0  0  0  0  0  0  0  0
   51.9085   21.6287   47.7654 H   0  0  0  0  0  0  0  0  0  0  0  0
   52.3150   22.9430   46.0900 C   0  0  0  0  0  0  0  0  0  0  0  0
   51.2545   23.0455   45.8165 H   0  0  0  0  0  0  0  0  0  0  0  0
   53.2950   23.6060   45.3460 C   0  0  0  0  0  0  0  0  0  0  0  0
   53.0033   24.2295   44.4880 H   0  0  0  0  0  0  0  0  0  0  0  0
   56.2460   25.3820   45.4290 C   0  0  0  0  0  0  0  0  0  0  0  0
   55.8770   25.8330   46.5500 O   0  0  0  0  0  0  0  0  0  0  0  0
   57.2190   28.9940   43.7100 C   0  0  0  0  0  0  0  0  0  0  0  0
   56.7259   28.3882   42.9355 H   0  0  0  0  0  0  0  0  0  0  0  0
   57.3150   30.3690   43.7540 C   0  0  0  0  0  0  0  0  0  0  0  0
   56.9201   31.0846   43.0178 H   0  0  0  0  0  0  0  0  0  0  0  0
   59.5360   32.1610   46.2050 C   0  0  0  0  0  0  0  0  0  0  0  0
   60.1586   31.2818   46.4274 H   0  0  0  0  0  0  0  0  0  0  0  0
  1  2  1  0
  2  3  1  0
  2  4  2  0
  4  5  1  0
  4  6  1  0
  6  7  2  0
  7  8  1  0
  7  9  1  0
  9 10  1  0
  9 11  2  0
 11 12  1  0
 11 13  1  0
 13 14  1  0
 14 15  1  0
 15 16  1  0
 16 17  1  0
 17 18  1  0
 17 19  2  0
 19 20  1  0
 20 21  2  0
 20 22  1  0
 22 23  1  0
 22 24  1  0
 24 25  2  0
 24 26  1  0
 26 27  1  0
 27 28  2  0
 28 29  1  0
 28 30  1  0
 30 31  1  0
 30 32  2  0
 32 33  1  0
 32 34  1  0
 34 35  1  0
 34 36  2  0
 36 37  1  0
 26 38  1  0
 38 39  2  0
 16 40  2  0
 40 41  1  0
 40 42  1  0
 42 43  1  0
 13 44  2  0
 44 45  1  0
 44  6  1  0
 42 14  2  0
 38 19  1  0
 36 27  1  0
M  END
>  <UniqueID>  (83) 
76

>  <SMILES>  (83) 
C=Cc1cccc(-c2ccc(/C=C3\C(=O)NC(=O)N(c4ccccc4)C3=O)o2)c1

>  <Energy>  (83) 
91.22319185602244

>  <Genealogy>  (83) 
C=Cc1cccc(-c2ccc(/C=C3\C(=O)NC(=O)N(c4ccccc4)C3=O)o2)c1 (cis-trans isomerization)
C=Cc1cccc(-c2ccc(/C=C3\C(=O)NC(=O)N(c4ccccc4)C3=O)o2)c1 (3D coordinates assigned)
C=Cc1cccc(-c2ccc(/C=C3\C(=O)NC(=O)N(c4ccccc4)C3=O)o2)c1 (nonaromatic ring conformer: 91.22319185602244 kcal/mol)

>  <smiles>  (83) 
C=Cc1cccc(-c2ccc(C=C3C(=O)NC(=O)N(c4ccccc4)C3=O)o2)c1

>  <score_type>  (83) 
oracle

>  <origin>  (83) 
adg

>  <m_score__min__energy>  (83) 
-9.0299999999999994

>  <m_primary>  (83) 
energy

$$$$
83:0
     RDKit          3D

 27 28  0  0  0  0  0  0  0  0999 V2000
   55.4690   21.8390   43.0520 H   0  0  0  0  0  0  0  0  0  0  0  0
   55.5500   22.0180   44.0440 O   0  0  0  0  0  0  0  0  0  0  0  0
   54.8820   23.0690   44.6680 C   0  0  0  0  0  0  0  0  0  0  0  0
   53.6110   22.9550   45.1100 N   0  0  0  0  0  0  0  0  0  0  0  0
   53.2980   24.1560   45.6370 C   0  0  0  0  0  0  0  0  0  0  0  0
   52.3293   24.4103   46.0919 H   0  0  0  0  0  0  0  0  0  0  0  0
   54.3640   25.0170   45.5240 C   0  0  0  0  0  0  0  0  0  0  0  0
   54.3900   26.3390   45.9510 O   0  0  0  0  0  0  0  0  0  0  0  0
   55.3930   24.3370   44.9100 C   0  0  0  0  0  0  0  0  0  0  0  0
   56.7530   24.8830   44.5770 C   0  0  0  0  0  0  0  0  0  0  0  0
   56.6669   25.5676   43.7203 H   0  0  0  0  0  0  0  0  0  0  0  0
   57.4195   24.0433   44.3305 H   0  0  0  0  0  0  0  0  0  0  0  0
   57.3310   25.6300   45.7500 C   0  0  0  0  0  0  0  0  0  0  0  0
   57.7180   25.0500   46.9390 C   0  0  0  0  0  0  0  0  0  0  0  0
   57.6226   23.9820   47.1845 H   0  0  0  0  0  0  0  0  0  0  0  0
   58.2170   25.9660   47.7320 O   0  0  0  0  0  0  0  0  0  0  0  0
   58.1890   27.1350   47.1290 C   0  0  0  0  0  0  0  0  0  0  0  0
   58.6460   28.2320   47.7370 C   0  0  0  0  0  0  0  0  0  0  0  0
   58.6152   29.2016   47.2184 H   0  0  0  0  0  0  0  0  0  0  0  0
   59.0534   28.1664   48.7567 H   0  0  0  0  0  0  0  0  0  0  0  0
   57.6340   26.9870   45.8450 C   0  0  0  0  0  0  0  0  0  0  0  0
   57.4090   27.8870   44.8630 C   0  0  0  0  0  0  0  0  0  0  0  0
   56.4175   27.8694   44.3870 H   0  0  0  0  0  0  0  0  0  0  0  0
   58.3830   28.9040   44.3640 C   0  0  0  0  0  0  0  0  0  0  0  0
   58.8616   29.4038   45.2191 H   0  0  0  0  0  0  0  0  0  0  0  0
   59.1509   28.4073   43.7528 H   0  0  0  0  0  0  0  0  0  0  0  0
   57.8536   29.6497   43.7528 H   0  0  0  0  0  0  0  0  0  0  0  0
  1  2  1  0
  2  3  1  0
  3  4  1  0
  4  5  1  0
  5  6  1  0
  5  7  2  0
  7  8  1  0
  7  9  1  0
  9 10  1  0
 10 11  1  0
 10 12  1  0
 10 13  1  0
 13 14  2  0
 14 15  1  0
 14 16  1  0
 16 17  1  0
 17 18  2  0
 18 19  1  0
 18 20  1  0
 17 21  1  0
 21 22  2  0
 22 23  1  0
 22 24  1  0
 24 25  1  0
 24 26  1  0
 24 27  1  0
  9  3  2  0
 21 13  1  0
M  CHG  2   4  -1   8  -1
M  END
>  <UniqueID>  (84) 
77

>  <SMILES>  (84) 
C=c1occ(Cc2c([O-])c[n-]c2O)/c1=C/C

>  <Energy>  (84) 
84.66860863101108

>  <Genealogy>  (84) 
C=c1occ(Cc2c([O-])c[n-]c2O)c1=CC (protonated)
C=c1occ(Cc2c([O-])c[n-]c2O)/c1=C/C (cis-trans isomerization)
C=c1occ(Cc2c([O-])c[n-]c2O)/c1=C/C (3D coordinates assigned)
C=c1occ(Cc2c([O-])c[n-]c2O)/c1=C/C (optimized conformer: 84.66860863101108 kcal/mol)

>  <smiles>  (84) 
C=c1occ(Cc2c(O)c[nH]c2O)c1=CC

>  <score_type>  (84) 
oracle

>  <origin>  (84) 
adg

>  <m_score__min__energy>  (84) 
-10.65

>  <m_primary>  (84) 
energy

$$$$
84:0
     RDKit          3D

 62 66  0  0  0  0  0  0  0  0999 V2000
   61.5211   26.6326   52.4139 H   0  0  0  0  0  0  0  0  0  0  0  0
   61.5100   27.4230   51.6490 C   0  0  0  0  0  0  0  0  0  0  0  0
   62.1970   28.5750   51.8530 N   0  0  0  0  0  0  0  0  0  0  0  0
   62.2010   29.5670   50.9190 C   0  0  0  0  0  0  0  0  0  0  0  0
   62.8560   30.6750   51.1130 N   0  0  0  0  0  0  0  0  0  0  0  0
   63.0140   31.7470   50.1690 C   0  0  0  0  0  0  0  0  0  0  0  0
   63.0460   33.0960   50.5800 C   0  0  0  0  0  0  0  0  0  0  0  0
   63.0087   33.3434   51.6512 H   0  0  0  0  0  0  0  0  0  0  0  0
   63.1250   34.1210   49.6300 C   0  0  0  0  0  0  0  0  0  0  0  0
   63.1650   35.1709   49.9559 H   0  0  0  0  0  0  0  0  0  0  0  0
   63.1530   33.8110   48.2680 C   0  0  0  0  0  0  0  0  0  0  0  0
   63.2160   34.6170   47.5221 H   0  0  0  0  0  0  0  0  0  0  0  0
   63.1010   32.4760   47.8520 C   0  0  0  0  0  0  0  0  0  0  0  0
   63.1239   32.2341   46.7792 H   0  0  0  0  0  0  0  0  0  0  0  0
   63.0200   31.4490   48.7970 C   0  0  0  0  0  0  0  0  0  0  0  0
   62.9607   30.4023   48.4640 H   0  0  0  0  0  0  0  0  0  0  0  0
   61.5140   29.3960   49.7590 N   0  0  0  0  0  0  0  0  0  0  0  0
   60.7990   28.2640   49.5060 C   0  0  0  0  0  0  0  0  0  0  0  0
   59.9750   28.1830   48.2710 C   0  0  0  0  0  0  0  0  0  0  0  0
   59.7250   29.3160   47.4690 C   0  0  0  0  0  0  0  0  0  0  0  0
   60.0692   30.3062   47.8022 H   0  0  0  0  0  0  0  0  0  0  0  0
   59.0430   29.1920   46.2530 C   0  0  0  0  0  0  0  0  0  0  0  0
   58.8803   30.0800   45.6246 H   0  0  0  0  0  0  0  0  0  0  0  0
   58.5660   27.9430   45.8310 C   0  0  0  0  0  0  0  0  0  0  0  0
   57.9720   27.7810   44.4580 C   0  0  0  0  0  0  0  0  0  0  0  0
   57.0838   27.1345   44.5139 H   0  0  0  0  0  0  0  0  0  0  0  0
   58.7101   27.3209   43.7845 H   0  0  0  0  0  0  0  0  0  0  0  0
   57.5890   29.1000   43.9480 N   0  0  0  0  0  0  0  0  0  0  0  0
   58.1790   29.5020   43.1860 H   0  0  0  0  0  0  0  0  0  0  0  0
   56.5150   29.8720   44.5080 C   0  0  0  0  0  0  0  0  0  0  0  0
   55.6510   29.3090   45.2360 O   0  0  0  0  0  0  0  0  0  0  0  0
   56.4380   31.2950   44.3180 N   0  0  0  0  0  0  0  0  0  0  0  0
   57.3580   32.2510   44.8580 C   0  0  0  0  0  0  0  0  0  0  0  0
   57.8930   33.2360   44.0190 C   0  0  0  0  0  0  0  0  0  0  0  0
   57.6253   33.2531   42.9522 H   0  0  0  0  0  0  0  0  0  0  0  0
   58.7660   34.1970   44.5340 C   0  0  0  0  0  0  0  0  0  0  0  0
   59.1715   34.9786   43.8747 H   0  0  0  0  0  0  0  0  0  0  0  0
   59.1260   34.1690   45.8840 C   0  0  0  0  0  0  0  0  0  0  0  0
   59.7975   34.9418   46.2862 H   0  0  0  0  0  0  0  0  0  0  0  0
   58.6360   33.1600   46.7320 C   0  0  0  0  0  0  0  0  0  0  0  0
   59.0120   33.1290   48.1240 N   0  0  0  0  0  0  0  0  0  0  0  0
   58.5010   32.0850   49.0170 C   0  0  0  0  0  0  0  0  0  0  0  0
   57.5405   32.4120   49.4419 H   0  0  0  0  0  0  0  0  0  0  0  0
   58.3677   31.1593   48.4379 H   0  0  0  0  0  0  0  0  0  0  0  0
   59.4990   31.8110   50.1690 C   0  0  0  0  0  0  0  0  0  0  0  0
   58.9395   31.3356   50.9881 H   0  0  0  0  0  0  0  0  0  0  0  0
   60.2867   31.1848   49.7248 H   0  0  0  0  0  0  0  0  0  0  0  0
   60.1850   32.9470   50.7140 O   0  0  0  0  0  0  0  0  0  0  0  0
   59.6810   34.1830   50.2370 C   0  0  0  0  0  0  0  0  0  0  0  0
   58.6319   34.2895   50.5501 H   0  0  0  0  0  0  0  0  0  0  0  0
   60.2904   34.9973   50.6560 H   0  0  0  0  0  0  0  0  0  0  0  0
   59.7580   34.2490   48.7080 C   0  0  0  0  0  0  0  0  0  0  0  0
   59.3230   35.1979   48.3611 H   0  0  0  0  0  0  0  0  0  0  0  0
   60.8105   34.1871   48.3944 H   0  0  0  0  0  0  0  0  0  0  0  0
   57.7520   32.1960   46.2040 C   0  0  0  0  0  0  0  0  0  0  0  0
   57.3683   31.3946   46.8524 H   0  0  0  0  0  0  0  0  0  0  0  0
   58.7750   26.8170   46.6430 C   0  0  0  0  0  0  0  0  0  0  0  0
   58.3927   25.8352   46.3268 H   0  0  0  0  0  0  0  0  0  0  0  0
   59.4670   26.9380   47.8520 C   0  0  0  0  0  0  0  0  0  0  0  0
   59.6165   26.0499   48.4836 H   0  0  0  0  0  0  0  0  0  0  0  0
   60.7900   27.2420   50.4690 C   0  0  0  0  0  0  0  0  0  0  0  0
   60.2246   26.3146   50.2953 H   0  0  0  0  0  0  0  0  0  0  0  0
  1  2  1  0
  2  3  1  0
  3  4  1  0
  4  5  2  0
  5  6  1  0
  6  7  2  0
  7  8  1  0
  7  9  1  0
  9 10  1  0
  9 11  2  0
 11 12  1  0
 11 13  1  0
 13 14  1  0
 13 15  2  0
 15 16  1  0
  4 17  1  0
 17 18  2  0
 18 19  1  0
 19 20  2  0
 20 21  1  0
 20 22  1  0
 22 23  1  0
 22 24  2  0
 24 25  1  0
 25 26  1  0
 25 27  1  0
 25 28  1  0
 28 29  1  0
 28 30  1  0
 30 31  2  0
 30 32  1  0
 32 33  1  0
 33 34  2  0
 34 35  1  0
 34 36  1  0
 36 37  1  0
 36 38  2  0
 38 39  1  0
 38 40  1  0
 40 41  1  0
 41 42  1  0
 42 43  1  0
 42 44  1  0
 42 45  1  0
 45 46  1  0
 45 47  1  0
 45 48  1  0
 48 49  1  0
 49 50  1  0
 49 51  1  0
 49 52  1  0
 52 53  1  0
 52 54  1  0
 40 55  2  0
 55 56  1  0
 24 57  1  0
 57 58  1  0
 57 59  2  0
 59 60  1  0
 18 61  1  0
 61 62  1  0
 61  2  2  0
 15  6  1  0
 59 19  1  0
 55 33  1  0
 52 41  1  0
M  CHG  2   3  -1  32  -1
M  END
>  <UniqueID>  (85) 
78

>  <SMILES>  (85) 
O=C([N-]c1cccc(N2CCOCC2)c1)NCc1ccc(-c2cc[n-]/c(=N\c3ccccc3)n2)cc1

>  <Energy>  (85) 
95.91506552582511

>  <Genealogy>  (85) 
O=C([N-]c1cccc(N2CCOCC2)c1)NCc1ccc(-c2cc[n-]c(=Nc3ccccc3)n2)cc1 (protonated)
O=C([N-]c1cccc(N2CCOCC2)c1)NCc1ccc(-c2cc[n-]/c(=N\c3ccccc3)n2)cc1 (cis-trans isomerization)
O=C([N-]c1cccc(N2CCOCC2)c1)NCc1ccc(-c2cc[n-]/c(=N\c3ccccc3)n2)cc1 (3D coordinates assigned)
O=C([N-]c1cccc(N2CCOCC2)c1)NCc1ccc(-c2cc[n-]/c(=N\c3ccccc3)n2)cc1 (nonaromatic ring conformer: 95.91506552582511 kcal/mol)

>  <smiles>  (85) 
O=C(NCc1ccc(-c2cc[nH]c(=Nc3ccccc3)n2)cc1)Nc1cccc(N2CCOCC2)c1

>  <score_type>  (85) 
oracle

>  <origin>  (85) 
adg

>  <m_score__min__energy>  (85) 
-12.199999999999999

>  <m_primary>  (85) 
energy

$$$$
85:0
     RDKit          3D

 73 77  0  0  0  0  0  0  0  0999 V2000
   59.9530   30.3200   53.4920 C   0  0  0  0  0  0  0  0  0  0  0  0
   59.5200   31.7520   53.2880 C   0  0  0  0  0  0  0  0  0  0  0  0
   59.7620   32.6860   54.3100 C   0  0  0  0  0  0  0  0  0  0  0  0
   59.3780   34.0210   54.1590 C   0  0  0  0  0  0  0  0  0  0  0  0
   58.7400   34.4360   52.9910 C   0  0  0  0  0  0  0  0  0  0  0  0
   58.4740   33.5180   51.9720 C   0  0  0  0  0  0  0  0  0  0  0  0
   58.8510   32.1720   52.1080 C   0  0  0  0  0  0  0  0  0  0  0  0
   58.5160   31.0470   50.7820 S   0  0  0  0  0  0  0  0  0  0  0  0
   58.0130   31.7970   49.5790 O   0  0  0  0  0  0  0  0  0  0  0  0
   57.4620   30.0710   51.2230 O   0  0  0  0  0  0  0  0  0  0  0  0
   59.9380   30.1640   50.3190 N   0  0  0  0  0  0  0  0  0  0  0  0
   60.0030   29.4840   49.0610 C   0  0  0  0  0  0  0  0  0  0  0  0
   60.7660   29.9980   48.0020 C   0  0  0  0  0  0  0  0  0  0  0  0
   60.7880   29.3390   46.7690 C   0  0  0  0  0  0  0  0  0  0  0  0
   60.0260   28.1840   46.5730 C   0  0  0  0  0  0  0  0  0  0  0  0
   59.2510   27.6700   47.6250 C   0  0  0  0  0  0  0  0  0  0  0  0
   58.4480   26.4930   47.4670 N   0  0  0  0  0  0  0  0  0  0  0  0
   57.2980   26.3700   46.6230 C   0  0  0  0  0  0  0  0  0  0  0  0
   56.3710   25.5590   46.9080 O   0  0  0  0  0  0  0  0  0  0  0  0
   57.2520   27.1210   45.3580 C   0  0  0  0  0  0  0  0  0  0  0  0
   57.7790   26.5570   44.1850 C   0  0  0  0  0  0  0  0  0  0  0  0
   57.8510   27.3100   43.0100 C   0  0  0  0  0  0  0  0  0  0  0  0
   57.3700   28.6210   42.9880 C   0  0  0  0  0  0  0  0  0  0  0  0
   56.7940   29.1850   44.1400 C   0  0  0  0  0  0  0  0  0  0  0  0
   56.2600   30.6040   44.1240 C   0  0  0  0  0  0  0  0  0  0  0  0
   57.0590   31.5610   44.9260 N   0  0  0  0  0  0  0  0  0  0  0  0
   58.1850   30.9440   45.6430 C   0  0  0  0  0  0  0  0  0  0  0  0
   58.6780   31.9090   46.7350 C   0  0  0  0  0  0  0  0  0  0  0  0
   58.3490   33.3290   46.4310 N   0  0  0  0  0  0  0  0  0  0  0  0
   59.1830   34.2590   47.2220 C   0  0  0  0  0  0  0  0  0  0  0  0
   60.1520   33.4970   48.1500 C   0  0  0  0  0  0  0  0  0  0  0  0
   60.5410   34.2670   49.4170 C   0  0  0  0  0  0  0  0  0  0  0  0
   61.9900   34.3200   48.9380 C   0  0  0  0  0  0  0  0  0  0  0  0
   61.6060   33.5560   47.6780 C   0  0  0  0  0  0  0  0  0  0  0  0
   58.4960   33.6010   44.9910 C   0  0  0  0  0  0  0  0  0  0  0  0
   57.4800   32.7650   44.1820 C   0  0  0  0  0  0  0  0  0  0  0  0
   56.7590   28.4350   45.3270 C   0  0  0  0  0  0  0  0  0  0  0  0
   59.2730   28.3050   48.8730 C   0  0  0  0  0  0  0  0  0  0  0  0
   60.0176   30.1064   54.5691 H   0  0  0  0  0  0  0  0  0  0  0  0
   59.2187   29.6452   53.0278 H   0  0  0  0  0  0  0  0  0  0  0  0
   60.9381   30.1651   53.0278 H   0  0  0  0  0  0  0  0  0  0  0  0
   60.2582   32.3631   55.2371 H   0  0  0  0  0  0  0  0  0  0  0  0
   59.5793   34.7450   54.9623 H   0  0  0  0  0  0  0  0  0  0  0  0
   58.4453   35.4890   52.8714 H   0  0  0  0  0  0  0  0  0  0  0  0
   57.9652   33.8522   51.0558 H   0  0  0  0  0  0  0  0  0  0  0  0
   60.5810   29.8690   51.0880 H   0  0  0  0  0  0  0  0  0  0  0  0
   61.3479   30.9209   48.1418 H   0  0  0  0  0  0  0  0  0  0  0  0
   61.4079   29.7315   45.9495 H   0  0  0  0  0  0  0  0  0  0  0  0
   60.0334   27.6784   45.5961 H   0  0  0  0  0  0  0  0  0  0  0  0
   58.1371   25.5169   44.1911 H   0  0  0  0  0  0  0  0  0  0  0  0
   58.2871   26.8696   42.1012 H   0  0  0  0  0  0  0  0  0  0  0  0
   57.4421   29.2151   42.0651 H   0  0  0  0  0  0  0  0  0  0  0  0
   56.2445   30.9554   43.0818 H   0  0  0  0  0  0  0  0  0  0  0  0
   55.2579   30.5706   44.5763 H   0  0  0  0  0  0  0  0  0  0  0  0
   57.8550   30.0022   46.1057 H   0  0  0  0  0  0  0  0  0  0  0  0
   59.0027   30.7348   44.9376 H   0  0  0  0  0  0  0  0  0  0  0  0
   58.2049   31.6336   47.6891 H   0  0  0  0  0  0  0  0  0  0  0  0
   59.7734   31.8233   46.7876 H   0  0  0  0  0  0  0  0  0  0  0  0
   59.7669   34.8888   46.5346 H   0  0  0  0  0  0  0  0  0  0  0  0
   58.5182   34.8741   47.8462 H   0  0  0  0  0  0  0  0  0  0  0  0
   59.6182   32.5383   48.2272 H   0  0  0  0  0  0  0  0  0  0  0  0
   60.0617   35.2528   49.5086 H   0  0  0  0  0  0  0  0  0  0  0  0
   60.2971   33.8640   50.4110 H   0  0  0  0  0  0  0  0  0  0  0  0
   62.3630   35.3375   48.7493 H   0  0  0  0  0  0  0  0  0  0  0  0
   62.8020   33.9540   49.5835 H   0  0  0  0  0  0  0  0  0  0  0  0
   61.7525   34.1238   46.7474 H   0  0  0  0  0  0  0  0  0  0  0  0
   62.1385   32.6331   47.4048 H   0  0  0  0  0  0  0  0  0  0  0  0
   58.3176   34.6701   44.8034 H   0  0  0  0  0  0  0  0  0  0  0  0
   59.5145   33.3286   44.6772 H   0  0  0  0  0  0  0  0  0  0  0  0
   56.5949   33.3833   43.9714 H   0  0  0  0  0  0  0  0  0  0  0  0
   57.9628   32.4432   43.2474 H   0  0  0  0  0  0  0  0  0  0  0  0
   56.3412   28.8816   46.2413 H   0  0  0  0  0  0  0  0  0  0  0  0
   58.7108   27.8727   49.7139 H   0  0  0  0  0  0  0  0  0  0  0  0
  1  2  1  0
  2  3  2  0
  3  4  1  0
  4  5  2  0
  5  6  1  0
  6  7  2  0
  7  8  1  0
  8  9  2  0
  8 10  2  0
  8 11  1  0
 11 12  1  0
 12 13  2  0
 13 14  1  0
 14 15  2  0
 15 16  1  0
 16 17  1  0
 17 18  1  0
 18 19  2  0
 18 20  1  0
 20 21  2  0
 21 22  1  0
 22 23  2  0
 23 24  1  0
 24 25  1  0
 25 26  1  0
 26 27  1  0
 27 28  1  0
 28 29  1  0
 29 30  1  0
 30 31  1  0
 31 32  1  0
 32 33  1  0
 33 34  1  0
 29 35  1  0
 35 36  1  0
 24 37  2  0
 16 38  2  0
  7  2  1  0
 38 12  1  0
 37 20  1  0
 36 26  1  0
 34 31  1  0
  1 39  1  0
  1 40  1  0
  1 41  1  0
  3 42  1  0
  4 43  1  0
  5 44  1  0
  6 45  1  0
 11 46  1  0
 13 47  1  0
 14 48  1  0
 15 49  1  0
 21 50  1  0
 22 51  1  0
 23 52  1  0
 25 53  1  0
 25 54  1  0
 27 55  1  0
 27 56  1  0
 28 57  1  0
 28 58  1  0
 30 59  1  0
 30 60  1  0
 31 61  1  0
 32 62  1  0
 32 63  1  0
 33 64  1  0
 33 65  1  0
 34 66  1  0
 34 67  1  0
 35 68  1  0
 35 69  1  0
 36 70  1  0
 36 71  1  0
 37 72  1  0
 38 73  1  0
M  CHG  1  17  -1
M  END
>  <UniqueID>  (86) 
79

>  <SMILES>  (86) 
Cc1ccccc1S(=O)(=O)Nc1cccc([N-]C(=O)c2cccc(CN3CCN(CC4CCC4)CC3)c2)c1

>  <Energy>  (86) 
161.89757338162227

>  <Genealogy>  (86) 
Cc1ccccc1S(=O)(=O)Nc1cccc([N-]C(=O)c2cccc(CN3CCN(CC4CCC4)CC3)c2)c1 (protonated)
Cc1ccccc1S(=O)(=O)Nc1cccc([N-]C(=O)c2cccc(CN3CCN(CC4CCC4)CC3)c2)c1 (3D coordinates assigned)
Cc1ccccc1S(=O)(=O)Nc1cccc([N-]C(=O)c2cccc(CN3CCN(CC4CCC4)CC3)c2)c1 (nonaromatic ring conformer: 161.89757338162227 kcal/mol)

>  <smiles>  (86) 
Cc1ccccc1S(=O)(=O)Nc1cccc(NC(=O)c2cccc(CN3CCN(CC4CCC4)CC3)c2)c1

>  <score_type>  (86) 
oracle

>  <origin>  (86) 
adg

>  <m_score__min__energy>  (86) 
-13.609999999999999

>  <m_primary>  (86) 
energy

$$$$
86:0
     RDKit          3D

 62 65  0  0  0  0  0  0  0  0999 V2000
   57.3420   31.9960   41.6720 C   0  0  0  0  0  0  0  0  0  0  0  0
   57.4480   31.7650   43.4390 S   0  0  0  0  0  0  0  0  0  0  0  0
   58.6990   30.9890   43.7610 O   0  0  0  0  0  0  0  0  0  0  0  0
   56.2580   30.9850   43.9350 O   0  0  0  0  0  0  0  0  0  0  0  0
   57.5300   33.3090   44.2320 N   0  0  0  0  0  0  0  0  0  0  0  0
   58.1930   33.5300   45.4910 C   0  0  0  0  0  0  0  0  0  0  0  0
   59.2660   34.4290   45.6190 C   0  0  0  0  0  0  0  0  0  0  0  0
   59.8710   34.6360   46.8590 C   0  0  0  0  0  0  0  0  0  0  0  0
   59.4070   33.9640   48.0000 C   0  0  0  0  0  0  0  0  0  0  0  0
   60.0150   34.2390   49.3620 C   0  0  0  0  0  0  0  0  0  0  0  0
   60.2040   33.0230   50.1900 N   0  0  0  0  0  0  0  0  0  0  0  0
   60.7220   31.8590   49.4320 C   0  0  0  0  0  0  0  0  0  0  0  0
   60.5470   30.5530   50.2150 C   0  0  0  0  0  0  0  0  0  0  0  0
   59.0540   30.2570   50.4730 C   0  0  0  0  0  0  0  0  0  0  0  0
   58.5360   29.4320   49.3760 N   0  0  0  0  0  0  0  0  0  0  0  0
   59.2720   28.4940   48.5740 C   0  0  0  0  0  0  0  0  0  0  0  0
   60.3680   28.0540   49.0120 O   0  0  0  0  0  0  0  0  0  0  0  0
   58.8120   28.0610   47.2420 C   0  0  0  0  0  0  0  0  0  0  0  0
   58.3340   29.0090   46.3240 C   0  0  0  0  0  0  0  0  0  0  0  0
   57.8150   28.6000   45.0940 C   0  0  0  0  0  0  0  0  0  0  0  0
   57.7710   27.2430   44.7700 C   0  0  0  0  0  0  0  0  0  0  0  0
   58.2790   26.2860   45.6620 C   0  0  0  0  0  0  0  0  0  0  0  0
   58.1480   24.8160   45.3660 C   0  0  0  0  0  0  0  0  0  0  0  0
   56.6940   24.4700   45.1530 C   0  0  0  0  0  0  0  0  0  0  0  0
   56.3290   23.4800   44.2320 C   0  0  0  0  0  0  0  0  0  0  0  0
   55.0270   23.1230   44.0930 N   0  0  0  0  0  0  0  0  0  0  0  0
   54.0600   23.7110   44.8400 C   0  0  0  0  0  0  0  0  0  0  0  0
   52.8590   23.3680   44.6950 O   0  0  0  0  0  0  0  0  0  0  0  0
   54.3870   24.6660   45.7460 N   0  0  0  0  0  0  0  0  0  0  0  0
   55.6760   25.0560   45.9230 C   0  0  0  0  0  0  0  0  0  0  0  0
   55.9440   25.9360   46.7820 O   0  0  0  0  0  0  0  0  0  0  0  0
   58.8240   26.7060   46.8850 C   0  0  0  0  0  0  0  0  0  0  0  0
   58.2210   31.5560   50.6240 C   0  0  0  0  0  0  0  0  0  0  0  0
   59.0810   32.7270   51.1130 C   0  0  0  0  0  0  0  0  0  0  0  0
   58.3730   33.0230   47.8610 C   0  0  0  0  0  0  0  0  0  0  0  0
   57.7740   32.8090   46.6190 C   0  0  0  0  0  0  0  0  0  0  0  0
   56.8921   32.9764   41.4567 H   0  0  0  0  0  0  0  0  0  0  0  0
   58.3506   31.9515   41.2352 H   0  0  0  0  0  0  0  0  0  0  0  0
   56.7180   31.2024   41.2352 H   0  0  0  0  0  0  0  0  0  0  0  0
   57.1750   34.1340   43.6940 H   0  0  0  0  0  0  0  0  0  0  0  0
   59.6312   34.9730   44.7354 H   0  0  0  0  0  0  0  0  0  0  0  0
   60.7188   35.3318   46.9429 H   0  0  0  0  0  0  0  0  0  0  0  0
   60.9962   34.7139   49.2143 H   0  0  0  0  0  0  0  0  0  0  0  0
   59.3101   34.8880   49.9023 H   0  0  0  0  0  0  0  0  0  0  0  0
   60.1756   31.7808   48.4805 H   0  0  0  0  0  0  0  0  0  0  0  0
   61.7968   32.0135   49.2561 H   0  0  0  0  0  0  0  0  0  0  0  0
   60.9827   29.7255   49.6359 H   0  0  0  0  0  0  0  0  0  0  0  0
   61.0561   30.6555   51.1847 H   0  0  0  0  0  0  0  0  0  0  0  0
   58.9646   29.7130   51.4249 H   0  0  0  0  0  0  0  0  0  0  0  0
   58.3684   30.0795   46.5748 H   0  0  0  0  0  0  0  0  0  0  0  0
   57.4404   29.3479   44.3796 H   0  0  0  0  0  0  0  0  0  0  0  0
   57.3364   26.9224   43.8117 H   0  0  0  0  0  0  0  0  0  0  0  0
   58.7190   24.5731   44.4577 H   0  0  0  0  0  0  0  0  0  0  0  0
   58.5411   24.2361   46.2141 H   0  0  0  0  0  0  0  0  0  0  0  0
   57.1001   22.9902   43.6193 H   0  0  0  0  0  0  0  0  0  0  0  0
   59.2642   25.9655   47.5690 H   0  0  0  0  0  0  0  0  0  0  0  0
   57.7862   31.8163   49.6477 H   0  0  0  0  0  0  0  0  0  0  0  0
   57.4335   31.3737   51.3701 H   0  0  0  0  0  0  0  0  0  0  0  0
   58.4464   33.6216   51.1967 H   0  0  0  0  0  0  0  0  0  0  0  0
   59.5097   32.4469   52.0865 H   0  0  0  0  0  0  0  0  0  0  0  0
   58.0334   32.4511   48.7371 H   0  0  0  0  0  0  0  0  0  0  0  0
   56.9662   32.0685   46.5236 H   0  0  0  0  0  0  0  0  0  0  0  0
  1  2  1  0
  2  3  2  0
  2  4  2  0
  2  5  1  0
  5  6  1  0
  6  7  2  0
  7  8  1  0
  8  9  2  0
  9 10  1  0
 10 11  1  0
 11 12  1  0
 12 13  1  0
 13 14  1  0
 14 15  1  0
 15 16  1  0
 16 17  2  0
 16 18  1  0
 18 19  2  0
 19 20  1  0
 20 21  2  0
 21 22  1  0
 22 23  1  0
 23 24  1  0
 24 25  2  0
 25 26  1  0
 26 27  1  0
 27 28  2  0
 27 29  1  0
 29 30  1  0
 30 31  2  0
 22 32  2  0
 14 33  1  0
 33 34  1  0
  9 35  1  0
 35 36  2  0
 36  6  1  0
 34 11  1  0
 32 18  1  0
 30 24  1  0
  1 37  1  0
  1 38  1  0
  1 39  1  0
  5 40  1  0
  7 41  1  0
  8 42  1  0
 10 43  1  0
 10 44  1  0
 12 45  1  0
 12 46  1  0
 13 47  1  0
 13 48  1  0
 14 49  1  0
 19 50  1  0
 20 51  1  0
 21 52  1  0
 23 53  1  0
 23 54  1  0
 25 55  1  0
 32 56  1  0
 33 57  1  0
 33 58  1  0
 34 59  1  0
 34 60  1  0
 35 61  1  0
 36 62  1  0
M  CHG  3  15  -1  26  -1  29  -1
M  END
>  <UniqueID>  (87) 
80

>  <SMILES>  (87) 
CS(=O)(=O)Nc1ccc(CN2CCC([N-]C(=O)c3cccc(Cc4c[n-]c(=O)[n-]c4=O)c3)CC2)cc1

>  <Energy>  (87) 
76.66577808561678

>  <Genealogy>  (87) 
CS(=O)(=O)Nc1ccc(CN2CCC([N-]C(=O)c3cccc(Cc4c[n-]c(=O)[n-]c4=O)c3)CC2)cc1 (protonated)
CS(=O)(=O)Nc1ccc(CN2CCC([N-]C(=O)c3cccc(Cc4c[n-]c(=O)[n-]c4=O)c3)CC2)cc1 (3D coordinates assigned)
CS(=O)(=O)Nc1ccc(CN2CCC([N-]C(=O)c3cccc(Cc4c[n-]c(=O)[n-]c4=O)c3)CC2)cc1 (nonaromatic ring conformer: 76.66577808561678 kcal/mol)

>  <smiles>  (87) 
CS(=O)(=O)Nc1ccc(CN2CCC(NC(=O)c3cccc(Cc4c[nH]c(=O)[nH]c4=O)c3)CC2)cc1

>  <score_type>  (87) 
oracle

>  <origin>  (87) 
adg

>  <m_score__min__energy>  (87) 
-16.25

>  <m_primary>  (87) 
energy

$$$$
87:0
     RDKit          3D

 40 42  0  0  0  0  0  0  0  0999 V2000
   59.4233   35.7853   45.8756 H   0  0  0  0  0  0  0  0  0  0  0  0
   59.3910   34.7900   46.3430 C   0  0  0  0  0  0  0  0  0  0  0  0
   58.1670   34.2370   46.7260 C   0  0  0  0  0  0  0  0  0  0  0  0
   57.2349   34.7956   46.5552 H   0  0  0  0  0  0  0  0  0  0  0  0
   58.1240   32.9750   47.3260 C   0  0  0  0  0  0  0  0  0  0  0  0
   57.1566   32.5455   47.6255 H   0  0  0  0  0  0  0  0  0  0  0  0
   59.3110   32.2490   47.5500 C   0  0  0  0  0  0  0  0  0  0  0  0
   59.2730   30.9510   48.1880 N   0  0  0  0  0  0  0  0  0  0  0  0
   59.3970   29.7480   47.3900 C   0  0  0  0  0  0  0  0  0  0  0  0
   60.2510   28.8730   47.7000 O   0  0  0  0  0  0  0  0  0  0  0  0
   58.6150   29.5520   46.1470 C   0  0  0  0  0  0  0  0  0  0  0  0
   58.6300   30.6060   45.2220 C   0  0  0  0  0  0  0  0  0  0  0  0
   59.3324   31.4415   45.3580 H   0  0  0  0  0  0  0  0  0  0  0  0
   57.7620   30.6030   44.1320 C   0  0  0  0  0  0  0  0  0  0  0  0
   57.7660   31.9350   42.9920 Cl  0  0  0  0  0  0  0  0  0  0  0  0
   56.8650   29.5500   43.9800 C   0  0  0  0  0  0  0  0  0  0  0  0
   56.1523   29.5542   43.1421 H   0  0  0  0  0  0  0  0  0  0  0  0
   56.8660   28.5160   44.8630 N   0  0  0  0  0  0  0  0  0  0  0  0
   56.1930   27.7330   44.7020 H   0  0  0  0  0  0  0  0  0  0  0  0
   57.7410   28.4470   45.9110 C   0  0  0  0  0  0  0  0  0  0  0  0
   57.7170   27.3650   46.6450 N   0  0  0  0  0  0  0  0  0  0  0  0
   57.8830   26.0000   46.2410 C   0  0  0  0  0  0  0  0  0  0  0  0
   59.0320   25.6010   45.9100 O   0  0  0  0  0  0  0  0  0  0  0  0
   56.7050   25.0920   46.1170 C   0  0  0  0  0  0  0  0  0  0  0  0
   55.3960   25.6060   45.9810 C   0  0  0  0  0  0  0  0  0  0  0  0
   55.1520   26.9750   45.9950 O   0  0  0  0  0  0  0  0  0  0  0  0
   54.3420   24.7610   45.8390 N   0  0  0  0  0  0  0  0  0  0  0  0
   54.5130   23.4190   45.8300 C   0  0  0  0  0  0  0  0  0  0  0  0
   53.5190   22.6590   45.6960 O   0  0  0  0  0  0  0  0  0  0  0  0
   55.7530   22.8920   45.9670 N   0  0  0  0  0  0  0  0  0  0  0  0
   56.8460   23.6860   46.1100 C   0  0  0  0  0  0  0  0  0  0  0  0
   57.9760   23.1420   46.2280 O   0  0  0  0  0  0  0  0  0  0  0  0
   58.8410   30.8620   49.5890 C   0  0  0  0  0  0  0  0  0  0  0  0
   59.7020   31.0394   50.2502 H   0  0  0  0  0  0  0  0  0  0  0  0
   58.0675   31.6196   49.7830 H   0  0  0  0  0  0  0  0  0  0  0  0
   58.4299   29.8603   49.7830 H   0  0  0  0  0  0  0  0  0  0  0  0
   60.5350   32.8150   47.1520 C   0  0  0  0  0  0  0  0  0  0  0  0
   61.4704   32.2589   47.3126 H   0  0  0  0  0  0  0  0  0  0  0  0
   60.5740   34.0780   46.5540 C   0  0  0  0  0  0  0  0  0  0  0  0
   61.5378   34.5117   46.2492 H   0  0  0  0  0  0  0  0  0  0  0  0
  1  2  1  0
  2  3  2  0
  3  4  1  0
  3  5  1  0
  5  6  1  0
  5  7  2  0
  7  8  1  0
  8  9  1  0
  9 10  2  0
  9 11  1  0
 11 12  2  0
 12 13  1  0
 12 14  1  0
 14 15  1  0
 14 16  2  0
 16 17  1  0
 16 18  1  0
 18 19  1  0
 18 20  1  0
 20 21  2  0
 21 22  1  0
 22 23  2  0
 22 24  1  0
 24 25  2  0
 25 26  1  0
 25 27  1  0
 27 28  1  0
 28 29  2  0
 28 30  1  0
 30 31  1  0
 31 32  2  0
  8 33  1  0
 33 34  1  0
 33 35  1  0
 33 36  1  0
  7 37  1  0
 37 38  1  0
 37 39  2  0
 39 40  1  0
 39  2  1  0
 20 11  1  0
 31 24  1  0
M  CHG  3  26  -1  27  -1  30  -1
M  END
>  <UniqueID>  (88) 
81

>  <SMILES>  (88) 
CN(C(=O)c1cc(Cl)c[nH]/c1=N/C(=O)c1c([O-])[n-]c(=O)[n-]c1=O)c1ccccc1

>  <Energy>  (88) 
73.34179197955547

>  <Genealogy>  (88) 
CN(C(=O)c1cc(Cl)c[nH]c1=NC(=O)c1c([O-])[n-]c(=O)[n-]c1=O)c1ccccc1 (protonated)
CN(C(=O)c1cc(Cl)c[nH]/c1=N/C(=O)c1c([O-])[n-]c(=O)[n-]c1=O)c1ccccc1 (cis-trans isomerization)
CN(C(=O)c1cc(Cl)c[nH]/c1=N/C(=O)c1c([O-])[n-]c(=O)[n-]c1=O)c1ccccc1 (3D coordinates assigned)
CN(C(=O)c1cc(Cl)c[nH]/c1=N/C(=O)c1c([O-])[n-]c(=O)[n-]c1=O)c1ccccc1 (optimized conformer: 73.34179197955547 kcal/mol)

>  <smiles>  (88) 
CN(C(=O)c1cc(Cl)c[nH]c1=NC(=O)c1c(O)[nH]c(=O)[nH]c1=O)c1ccccc1

>  <score_type>  (88) 
oracle

>  <origin>  (88) 
adg

>  <m_score__min__energy>  (88) 
-16.260000000000002

>  <m_primary>  (88) 
energy

$$$$
88:0
     RDKit          3D

 39 41  0  0  0  0  0  0  0  0999 V2000
   59.0950   28.9240   48.8790 C   0  0  0  0  0  0  0  0  0  0  0  0
   58.8500   29.6890   47.8010 C   0  0  0  0  0  0  0  0  0  0  0  0
   58.4570   29.2390   46.5310 C   0  0  0  0  0  0  0  0  0  0  0  0
   58.4290   28.0020   45.9970 C   0  0  0  0  0  0  0  0  0  0  0  0
   57.2760   27.0890   46.0050 C   0  0  0  0  0  0  0  0  0  0  0  0
   57.3060   25.8580   46.5470 N   0  0  0  0  0  0  0  0  0  0  0  0
   56.0250   25.4410   46.4470 C   0  0  0  0  0  0  0  0  0  0  0  0
   55.6500   24.3060   46.8400 O   0  0  0  0  0  0  0  0  0  0  0  0
   55.1760   26.3390   45.9030 N   0  0  0  0  0  0  0  0  0  0  0  0
   55.9800   27.3830   45.6430 C   0  0  0  0  0  0  0  0  0  0  0  0
   55.5330   28.5870   45.1140 O   0  0  0  0  0  0  0  0  0  0  0  0
   58.0570   30.3630   45.8310 C   0  0  0  0  0  0  0  0  0  0  0  0
   58.2690   31.4510   46.6540 C   0  0  0  0  0  0  0  0  0  0  0  0
   57.9100   32.8360   46.2770 C   0  0  0  0  0  0  0  0  0  0  0  0
   57.0230   33.0280   45.4000 O   0  0  0  0  0  0  0  0  0  0  0  0
   58.5200   33.9560   46.9270 N   0  0  0  0  0  0  0  0  0  0  0  0
   59.7080   34.6370   46.4230 C   0  0  0  0  0  0  0  0  0  0  0  0
   60.9400   34.1250   47.1200 C   0  0  0  0  0  0  0  0  0  0  0  0
   61.9780   33.5310   46.3830 C   0  0  0  0  0  0  0  0  0  0  0  0
   63.1300   33.0750   47.0300 C   0  0  0  0  0  0  0  0  0  0  0  0
   63.2580   33.2130   48.4150 C   0  0  0  0  0  0  0  0  0  0  0  0
   62.2330   33.8090   49.1550 C   0  0  0  0  0  0  0  0  0  0  0  0
   61.0780   34.2670   48.5140 C   0  0  0  0  0  0  0  0  0  0  0  0
   60.0960   34.8480   49.2480 F   0  0  0  0  0  0  0  0  0  0  0  0
   58.7900   31.0480   47.8400 N   0  0  0  0  0  0  0  0  0  0  0  0
   59.1720   31.9160   48.9610 C   0  0  0  0  0  0  0  0  0  0  0  0
   59.3986   29.3912   49.8274 H   0  0  0  0  0  0  0  0  0  0  0  0
   58.9918   27.8309   48.8126 H   0  0  0  0  0  0  0  0  0  0  0  0
   59.3493   27.6437   45.5126 H   0  0  0  0  0  0  0  0  0  0  0  0
   57.6471   30.3857   44.8105 H   0  0  0  0  0  0  0  0  0  0  0  0
   59.8001   34.4537   45.3423 H   0  0  0  0  0  0  0  0  0  0  0  0
   59.6105   35.7156   46.6158 H   0  0  0  0  0  0  0  0  0  0  0  0
   61.8838   33.4243   45.2922 H   0  0  0  0  0  0  0  0  0  0  0  0
   63.9375   32.6066   46.4481 H   0  0  0  0  0  0  0  0  0  0  0  0
   64.1651   32.8527   48.9224 H   0  0  0  0  0  0  0  0  0  0  0  0
   62.3353   33.9180   50.2448 H   0  0  0  0  0  0  0  0  0  0  0  0
   58.9485   31.4081   49.9107 H   0  0  0  0  0  0  0  0  0  0  0  0
   60.2489   32.1333   48.9060 H   0  0  0  0  0  0  0  0  0  0  0  0
   58.6048   32.8569   48.9060 H   0  0  0  0  0  0  0  0  0  0  0  0
  1  2  2  0
  2  3  1  0
  3  4  2  3
  4  5  1  0
  5  6  1  0
  6  7  1  0
  7  8  2  0
  7  9  1  0
  9 10  1  0
 10 11  1  0
  3 12  1  0
 12 13  2  0
 13 14  1  0
 14 15  2  0
 14 16  1  0
 16 17  1  0
 17 18  1  0
 18 19  2  0
 19 20  1  0
 20 21  2  0
 21 22  1  0
 22 23  2  0
 23 24  1  0
 13 25  1  0
 25 26  1  0
 25  2  1  0
 10  5  2  0
 23 18  1  0
  1 27  1  0
  1 28  1  0
  4 29  1  0
 12 30  1  0
 17 31  1  0
 17 32  1  0
 19 33  1  0
 20 34  1  0
 21 35  1  0
 22 36  1  0
 26 37  1  0
 26 38  1  0
 26 39  1  0
M  CHG  4   6  -1   9  -1  11  -1  16  -1
M  END
>  <UniqueID>  (89) 
82

>  <SMILES>  (89) 
C=c1c(=Cc2[n-]c(=O)[n-]c2[O-])cc(C(=O)[N-]Cc2ccccc2F)n1C

>  <Energy>  (89) 
112.49955824720176

>  <Genealogy>  (89) 
C=c1c(=Cc2[n-]c(=O)[n-]c2[O-])cc(C(=O)[N-]Cc2ccccc2F)n1C (protonated)
C=c1c(=Cc2[n-]c(=O)[n-]c2[O-])cc(C(=O)[N-]Cc2ccccc2F)n1C (3D coordinates assigned)
C=c1c(=Cc2[n-]c(=O)[n-]c2[O-])cc(C(=O)[N-]Cc2ccccc2F)n1C (optimized conformer: 112.49955824720176 kcal/mol)

>  <smiles>  (89) 
C=c1c(=Cc2[nH]c(=O)[nH]c2O)cc(C(=O)NCc2ccccc2F)n1C

>  <score_type>  (89) 
oracle

>  <origin>  (89) 
adg

>  <m_score__min__energy>  (89) 
-17.710000000000001

>  <m_primary>  (89) 
energy

$$$$
