0:0
     RDKit          3D

 47 51  0  0  0  0  0  0  0  0999 V2000
   55.1450   27.5890   45.4970 H   0  0  0  0  0  0  0  0  0  0  0  0
   55.0560   26.7120   45.9940 O   0  0  0  0  0  0  0  0  0  0  0  0
   56.1640   25.9180   46.2870 C   0  0  0  0  0  0  0  0  0  0  0  0
   56.0600   24.8470   47.1170 N   0  0  0  0  0  0  0  0  0  0  0  0
   57.2450   24.2180   47.2550 C   0  0  0  0  0  0  0  0  0  0  0  0
   57.4010   23.1980   47.9730 O   0  0  0  0  0  0  0  0  0  0  0  0
   58.4690   24.9430   46.3620 S   0  0  0  0  0  0  0  0  0  0  0  0
   57.4440   26.1520   45.7780 C   0  0  0  0  0  0  0  0  0  0  0  0
   57.8070   27.1810   44.7900 C   0  0  0  0  0  0  0  0  0  0  0  0
   58.2409   26.8525   43.8341 H   0  0  0  0  0  0  0  0  0  0  0  0
   57.6390   28.4930   44.9890 C   0  0  0  0  0  0  0  0  0  0  0  0
   56.5920   29.3410   44.4220 C   0  0  0  0  0  0  0  0  0  0  0  0
   55.7640   28.9966   43.7850 H   0  0  0  0  0  0  0  0  0  0  0  0
   56.8000   30.5680   44.7940 N   0  0  0  0  0  0  0  0  0  0  0  0
   57.9670   30.5930   45.5750 N   0  0  0  0  0  0  0  0  0  0  0  0
   58.1660   31.2720   46.7310 C   0  0  0  0  0  0  0  0  0  0  0  0
   57.9140   32.5340   46.9680 N   0  0  0  0  0  0  0  0  0  0  0  0
   58.1200   33.8150   46.2670 C   0  0  0  0  0  0  0  0  0  0  0  0
   58.5520   34.3005   47.1545 H   0  0  0  0  0  0  0  0  0  0  0  0
   57.0780   34.1660   45.2250 C   0  0  0  0  0  0  0  0  0  0  0  0
   56.2484   33.4732   45.0204 H   0  0  0  0  0  0  0  0  0  0  0  0
   56.4065   35.0196   45.0507 H   0  0  0  0  0  0  0  0  0  0  0  0
   58.5040   33.8020   44.8000 C   0  0  0  0  0  0  0  0  0  0  0  0
   58.7004   32.8473   44.2901 H   0  0  0  0  0  0  0  0  0  0  0  0
   59.2846   34.2846   44.1935 H   0  0  0  0  0  0  0  0  0  0  0  0
   58.7420   30.4860   47.6710 N   0  0  0  0  0  0  0  0  0  0  0  0
   58.8720   29.3040   47.0240 C   0  0  0  0  0  0  0  0  0  0  0  0
   59.1800   28.1820   47.6060 N   0  0  0  0  0  0  0  0  0  0  0  0
   59.9730   28.0050   48.7910 C   0  0  0  0  0  0  0  0  0  0  0  0
   60.2470   29.1240   49.5820 C   0  0  0  0  0  0  0  0  0  0  0  0
   59.8760   30.1130   49.2751 H   0  0  0  0  0  0  0  0  0  0  0  0
   60.9880   28.9970   50.7590 C   0  0  0  0  0  0  0  0  0  0  0  0
   61.2090   29.8897   51.3625 H   0  0  0  0  0  0  0  0  0  0  0  0
   61.4520   27.7450   51.1780 C   0  0  0  0  0  0  0  0  0  0  0  0
   62.1930   27.6770   52.3690 O   0  0  0  0  0  0  0  0  0  0  0  0
   63.6120   27.5420   52.4600 C   0  0  0  0  0  0  0  0  0  0  0  0
   63.9497   27.9319   53.4316 H   0  0  0  0  0  0  0  0  0  0  0  0
   64.0734   28.1093   51.6383 H   0  0  0  0  0  0  0  0  0  0  0  0
   64.0260   26.0800   52.3370 C   0  0  0  0  0  0  0  0  0  0  0  0
   64.1484   25.6478   53.3411 H   0  0  0  0  0  0  0  0  0  0  0  0
   63.2500   25.5239   51.7906 H   0  0  0  0  0  0  0  0  0  0  0  0
   64.9783   26.0133   51.7906 H   0  0  0  0  0  0  0  0  0  0  0  0
   61.1480   26.6100   50.4020 C   0  0  0  0  0  0  0  0  0  0  0  0
   61.4949   25.6175   50.7256 H   0  0  0  0  0  0  0  0  0  0  0  0
   60.4080   26.7370   49.2230 C   0  0  0  0  0  0  0  0  0  0  0  0
   60.1644   25.8430   48.6302 H   0  0  0  0  0  0  0  0  0  0  0  0
   58.4500   29.3850   45.7460 N   0  0  0  0  0  0  0  0  0  0  0  0
  1  2  1  0
  2  3  1  0
  3  4  1  0
  4  5  1  0
  5  6  2  0
  5  7  1  0
  7  8  1  0
  8  9  1  0
  9 10  1  0
  9 11  2  0
 11 12  1  0
 12 13  1  0
 12 14  2  0
 14 15  1  0
 15 16  1  0
 16 17  2  0
 17 18  1  0
 18 19  1  0
 18 20  1  0
 20 21  1  0
 20 22  1  0
 20 23  1  0
 23 24  1  0
 23 25  1  0
 16 26  1  0
 26 27  1  0
 27 28  2  3
 28 29  1  0
 29 30  2  0
 30 31  1  0
 30 32  1  0
 32 33  1  0
 32 34  2  0
 34 35  1  0
 35 36  1  0
 36 37  1  0
 36 38  1  0
 36 39  1  0
 39 40  1  0
 39 41  1  0
 39 42  1  0
 34 43  1  0
 43 44  1  0
 43 45  2  0
 45 46  1  0
 27 47  1  0
  8  3  2  0
 47 11  1  0
 47 15  1  0
 23 18  1  0
 45 29  1  0
M  CHG  2   4  -1  26  -1
M  END
>  <UniqueID>  (1) 
1

>  <SMILES>  (1) 
CCOc1ccc(N=c2[n-]/c(=N/C3CC3)n3n2/C(=C\c2sc(=O)[n-]c2O)C=N3)cc1

>  <Energy>  (1) 
466.6167784046154

>  <Genealogy>  (1) 
CCOc1ccc(N=c2[n-]c(=NC3CC3)n3n2C(=Cc2sc(=O)[n-]c2O)C=N3)cc1 (protonated)
CCOc1ccc(N=c2[n-]/c(=N/C3CC3)n3n2/C(=C\c2sc(=O)[n-]c2O)C=N3)cc1 (cis-trans isomerization)
CCOc1ccc(N=c2[n-]/c(=N/C3CC3)n3n2/C(=C\c2sc(=O)[n-]c2O)C=N3)cc1 (3D coordinates assigned)
CCOc1ccc(N=c2[n-]/c(=N/C3CC3)n3n2/C(=C\c2sc(=O)[n-]c2O)C=N3)cc1 (nonaromatic ring conformer: 466.6167784046154 kcal/mol)

>  <smiles>  (1) 
CCOc1ccc(N=c2[nH]c(=NC3CC3)n3n2C(=Cc2sc(=O)[nH]c2O)C=N3)cc1

>  <score_type>  (1) 
oracle

>  <origin>  (1) 
adg

>  <m_score__min__energy>  (1) 
-12.279999999999999

>  <m_primary>  (1) 
energy

$$$$
1:0
     RDKit          3D

 55 58  0  0  0  0  0  0  0  0999 V2000
   59.8710   24.3480   45.7340 H   0  0  0  0  0  0  0  0  0  0  0  0
   59.1750   24.7420   46.3520 O   0  0  0  0  0  0  0  0  0  0  0  0
   58.3600   25.7970   45.9500 C   0  0  0  0  0  0  0  0  0  0  0  0
   58.9110   26.9440   45.3640 C   0  0  0  0  0  0  0  0  0  0  0  0
   59.9965   27.0076   45.1977 H   0  0  0  0  0  0  0  0  0  0  0  0
   58.0850   28.0080   44.9900 C   0  0  0  0  0  0  0  0  0  0  0  0
   58.5180   28.8912   44.4976 H   0  0  0  0  0  0  0  0  0  0  0  0
   56.7030   27.9530   45.2410 C   0  0  0  0  0  0  0  0  0  0  0  0
   55.8440   29.0740   44.9710 N   0  0  0  0  0  0  0  0  0  0  0  0
   56.1590   30.2110   44.1510 C   0  0  0  0  0  0  0  0  0  0  0  0
   56.3010   30.0460   42.9110 O   0  0  0  0  0  0  0  0  0  0  0  0
   56.3170   31.5320   44.6930 N   0  0  0  0  0  0  0  0  0  0  0  0
   57.3850   31.9750   45.5400 C   0  0  0  0  0  0  0  0  0  0  0  0
   57.6520   33.3420   45.7320 C   0  0  0  0  0  0  0  0  0  0  0  0
   57.1250   34.0947   45.1273 H   0  0  0  0  0  0  0  0  0  0  0  0
   58.5860   33.7460   46.6900 C   0  0  0  0  0  0  0  0  0  0  0  0
   58.7888   34.8165   46.8417 H   0  0  0  0  0  0  0  0  0  0  0  0
   59.2640   32.7910   47.4570 C   0  0  0  0  0  0  0  0  0  0  0  0
   60.1090   33.2190   48.4900 O   0  0  0  0  0  0  0  0  0  0  0  0
   59.7840   33.1630   49.8570 C   0  0  0  0  0  0  0  0  0  0  0  0
   60.7220   33.6160   50.7890 C   0  0  0  0  0  0  0  0  0  0  0  0
   61.7038   33.9813   50.4533 H   0  0  0  0  0  0  0  0  0  0  0  0
   60.4050   33.6020   52.1490 C   0  0  0  0  0  0  0  0  0  0  0  0
   61.1392   33.9579   52.8868 H   0  0  0  0  0  0  0  0  0  0  0  0
   59.1920   33.1500   52.5640 N   0  0  0  0  0  0  0  0  0  0  0  0
   58.2520   32.7020   51.6850 C   0  0  0  0  0  0  0  0  0  0  0  0
   57.0940   32.2660   52.0900 N   0  0  0  0  0  0  0  0  0  0  0  0
   56.6460   30.8990   52.1270 C   0  0  0  0  0  0  0  0  0  0  0  0
   57.0100   30.0720   51.2470 O   0  0  0  0  0  0  0  0  0  0  0  0
   55.6850   30.4520   53.1920 C   0  0  0  0  0  0  0  0  0  0  0  0
   55.7169   31.1702   54.0246 H   0  0  0  0  0  0  0  0  0  0  0  0
   55.9861   29.4477   53.5246 H   0  0  0  0  0  0  0  0  0  0  0  0
   54.2770   30.3700   52.6740 C   0  0  0  0  0  0  0  0  0  0  0  0
   54.0240   30.2380   51.3430 N   0  0  0  0  0  0  0  0  0  0  0  0
   52.7000   30.1400   51.0860 C   0  0  0  0  0  0  0  0  0  0  0  0
   52.1330   29.9980   49.7150 C   0  0  0  0  0  0  0  0  0  0  0  0
   51.0681   29.7313   49.7844 H   0  0  0  0  0  0  0  0  0  0  0  0
   52.2380   30.9502   49.1743 H   0  0  0  0  0  0  0  0  0  0  0  0
   52.6744   29.2077   49.1743 H   0  0  0  0  0  0  0  0  0  0  0  0
   51.7810   30.2330   52.4940 S   0  0  0  0  0  0  0  0  0  0  0  0
   53.1340   30.3770   53.4840 C   0  0  0  0  0  0  0  0  0  0  0  0
   53.0890   30.4640   54.9760 C   0  0  0  0  0  0  0  0  0  0  0  0
   53.5534   29.5661   55.4098 H   0  0  0  0  0  0  0  0  0  0  0  0
   53.6380   31.3575   55.3079 H   0  0  0  0  0  0  0  0  0  0  0  0
   52.0425   30.5323   55.3079 H   0  0  0  0  0  0  0  0  0  0  0  0
   58.5320   32.7100   50.3150 C   0  0  0  0  0  0  0  0  0  0  0  0
   57.7752   32.3629   49.5961 H   0  0  0  0  0  0  0  0  0  0  0  0
   59.0870   31.4270   47.1790 C   0  0  0  0  0  0  0  0  0  0  0  0
   59.6859   30.6750   47.7136 H   0  0  0  0  0  0  0  0  0  0  0  0
   58.1500   31.0230   46.2230 C   0  0  0  0  0  0  0  0  0  0  0  0
   58.0138   29.9530   46.0071 H   0  0  0  0  0  0  0  0  0  0  0  0
   56.1500   26.7850   45.7870 C   0  0  0  0  0  0  0  0  0  0  0  0
   54.7800   26.6950   46.0050 O   0  0  0  0  0  0  0  0  0  0  0  0
   56.9780   25.7120   46.1400 C   0  0  0  0  0  0  0  0  0  0  0  0
   56.5389   24.7989   46.5684 H   0  0  0  0  0  0  0  0  0  0  0  0
  1  2  1  0
  2  3  1  0
  3  4  2  0
  4  5  1  0
  4  6  1  0
  6  7  1  0
  6  8  2  0
  8  9  1  0
  9 10  1  0
 10 11  2  0
 10 12  1  0
 12 13  1  0
 13 14  2  0
 14 15  1  0
 14 16  1  0
 16 17  1  0
 16 18  2  0
 18 19  1  0
 19 20  1  0
 20 21  1  0
 21 22  1  0
 21 23  2  0
 23 24  1  0
 23 25  1  0
 25 26  1  0
 26 27  2  0
 27 28  1  0
 28 29  2  0
 28 30  1  0
 30 31  1  0
 30 32  1  0
 30 33  1  0
 33 34  1  0
 34 35  2  0
 35 36  1  0
 36 37  1  0
 36 38  1  0
 36 39  1  0
 35 40  1  0
 40 41  1  0
 41 42  1  0
 42 43  1  0
 42 44  1  0
 42 45  1  0
 26 46  1  0
 46 47  1  0
 18 48  1  0
 48 49  1  0
 48 50  2  0
 50 51  1  0
  8 52  1  0
 52 53  1  0
 52 54  2  0
 54 55  1  0
 54  3  1  0
 50 13  1  0
 46 20  2  0
 41 33  2  0
M  CHG  4   9  -1  12  -1  25  -1  53  -1
M  END
>  <UniqueID>  (2) 
2

>  <SMILES>  (2) 
Cc1nc(CC(=O)/N=c2/cc(Oc3ccc([N-]C(=O)[N-]c4ccc(O)cc4[O-])cc3)cc[n-]2)c(C)s1

>  <Energy>  (2) 
98.19600167732493

>  <Genealogy>  (2) 
Cc1nc(CC(=O)N=c2cc(Oc3ccc([N-]C(=O)[N-]c4ccc(O)cc4[O-])cc3)cc[n-]2)c(C)s1 (protonated)
Cc1nc(CC(=O)/N=c2/cc(Oc3ccc([N-]C(=O)[N-]c4ccc(O)cc4[O-])cc3)cc[n-]2)c(C)s1 (cis-trans isomerization)
Cc1nc(CC(=O)/N=c2/cc(Oc3ccc([N-]C(=O)[N-]c4ccc(O)cc4[O-])cc3)cc[n-]2)c(C)s1 (3D coordinates assigned)
Cc1nc(CC(=O)/N=c2/cc(Oc3ccc([N-]C(=O)[N-]c4ccc(O)cc4[O-])cc3)cc[n-]2)c(C)s1 (optimized conformer: 98.19600167732493 kcal/mol)

>  <smiles>  (2) 
Cc1nc(CC(=O)N=c2cc(Oc3ccc(NC(=O)Nc4ccc(O)cc4O)cc3)cc[nH]2)c(C)s1

>  <score_type>  (2) 
oracle

>  <origin>  (2) 
adg

>  <m_score__min__energy>  (2) 
-16.940000000000001

>  <m_primary>  (2) 
energy

$$$$
2:0
     RDKit          3D

 61 64  0  0  0  0  0  0  0  0999 V2000
   56.2850   29.5830   43.1350 O   0  0  0  0  0  0  0  0  0  0  0  0
   56.5450   29.5950   44.3690 C   0  0  0  0  0  0  0  0  0  0  0  0
   55.8640   28.6920   45.2500 N   0  0  0  0  0  0  0  0  0  0  0  0
   56.4120   27.4800   45.7870 C   0  0  0  0  0  0  0  0  0  0  0  0
   57.7910   27.4180   46.0270 C   0  0  0  0  0  0  0  0  0  0  0  0
   58.3840   26.2580   46.5560 C   0  0  0  0  0  0  0  0  0  0  0  0
   59.8450   26.2500   46.8340 C   0  0  0  0  0  0  0  0  0  0  0  0
   60.6560   26.0420   45.8930 O   0  0  0  0  0  0  0  0  0  0  0  0
   60.3620   26.4100   48.1610 N   0  0  0  0  0  0  0  0  0  0  0  0
   60.2950   27.4630   48.9310 C   0  0  0  0  0  0  0  0  0  0  0  0
   59.6570   28.5630   48.4440 N   0  0  0  0  0  0  0  0  0  0  0  0
   59.5400   29.7170   49.1520 C   0  0  0  0  0  0  0  0  0  0  0  0
   60.0830   29.8080   50.4320 C   0  0  0  0  0  0  0  0  0  0  0  0
   60.7270   28.7000   50.9780 C   0  0  0  0  0  0  0  0  0  0  0  0
   60.8310   27.5140   50.2450 C   0  0  0  0  0  0  0  0  0  0  0  0
   61.4250   26.4120   50.8500 O   0  0  0  0  0  0  0  0  0  0  0  0
   57.5710   25.1310   46.8040 C   0  0  0  0  0  0  0  0  0  0  0  0
   58.1130   23.9430   47.2840 O   0  0  0  0  0  0  0  0  0  0  0  0
   56.2000   25.1820   46.5380 C   0  0  0  0  0  0  0  0  0  0  0  0
   55.6190   26.3410   46.0190 C   0  0  0  0  0  0  0  0  0  0  0  0
   54.2660   26.3360   45.7050 O   0  0  0  0  0  0  0  0  0  0  0  0
   57.5170   30.5720   44.9130 C   0  0  0  0  0  0  0  0  0  0  0  0
   57.4570   31.9270   44.5410 C   0  0  0  0  0  0  0  0  0  0  0  0
   58.3730   32.8470   45.0590 C   0  0  0  0  0  0  0  0  0  0  0  0
   59.3650   32.4300   45.9590 C   0  0  0  0  0  0  0  0  0  0  0  0
   60.3490   33.4170   46.5310 C   0  0  0  0  0  0  0  0  0  0  0  0
   61.1350   32.7940   47.6160 N   0  0  0  0  0  0  0  0  0  0  0  0
   61.0960   33.5930   48.8680 C   0  0  0  0  0  0  0  0  0  0  0  0
   62.3590   34.4520   49.0600 C   0  0  0  0  0  0  0  0  0  0  0  0
   63.6060   33.6420   49.0620 N   0  0  0  0  0  0  0  0  0  0  0  0
   64.1360   33.4270   50.4260 C   0  0  0  0  0  0  0  0  0  0  0  0
   65.3170   32.4530   50.3930 C   0  0  0  0  0  0  0  0  0  0  0  0
   66.2230   32.8230   49.3880 O   0  0  0  0  0  0  0  0  0  0  0  0
   63.4730   32.3560   48.3400 C   0  0  0  0  0  0  0  0  0  0  0  0
   62.5090   32.4880   47.1560 C   0  0  0  0  0  0  0  0  0  0  0  0
   59.4300   31.0800   46.3330 C   0  0  0  0  0  0  0  0  0  0  0  0
   58.5150   30.1580   45.8160 C   0  0  0  0  0  0  0  0  0  0  0  0
   58.4199   28.2909   45.7979 H   0  0  0  0  0  0  0  0  0  0  0  0
   59.0164   30.5797   48.7144 H   0  0  0  0  0  0  0  0  0  0  0  0
   60.0041   30.7439   51.0047 H   0  0  0  0  0  0  0  0  0  0  0  0
   61.1553   28.7584   51.9895 H   0  0  0  0  0  0  0  0  0  0  0  0
   55.5727   24.3011   46.7393 H   0  0  0  0  0  0  0  0  0  0  0  0
   56.6829   32.2655   43.8366 H   0  0  0  0  0  0  0  0  0  0  0  0
   58.3157   33.9038   44.7593 H   0  0  0  0  0  0  0  0  0  0  0  0
   61.0313   33.7506   45.7352 H   0  0  0  0  0  0  0  0  0  0  0  0
   59.7954   34.2750   46.9401 H   0  0  0  0  0  0  0  0  0  0  0  0
   60.2196   34.2570   48.8353 H   0  0  0  0  0  0  0  0  0  0  0  0
   61.0396   32.8892   49.7115 H   0  0  0  0  0  0  0  0  0  0  0  0
   62.4154   35.1837   48.2406 H   0  0  0  0  0  0  0  0  0  0  0  0
   62.2806   34.9457   50.0398 H   0  0  0  0  0  0  0  0  0  0  0  0
   64.4714   34.3892   50.8403 H   0  0  0  0  0  0  0  0  0  0  0  0
   63.3402   33.0013   51.0548 H   0  0  0  0  0  0  0  0  0  0  0  0
   65.8283   32.4690   51.3668 H   0  0  0  0  0  0  0  0  0  0  0  0
   64.9413   31.4408   50.1823 H   0  0  0  0  0  0  0  0  0  0  0  0
   65.6800   33.1200   48.6120 H   0  0  0  0  0  0  0  0  0  0  0  0
   64.4612   32.0491   47.9668 H   0  0  0  0  0  0  0  0  0  0  0  0
   63.0729   31.6034   49.0354 H   0  0  0  0  0  0  0  0  0  0  0  0
   62.8564   33.2990   46.4990 H   0  0  0  0  0  0  0  0  0  0  0  0
   62.4899   31.5311   46.6138 H   0  0  0  0  0  0  0  0  0  0  0  0
   60.2055   30.7445   47.0373 H   0  0  0  0  0  0  0  0  0  0  0  0
   58.5751   29.1016   46.1168 H   0  0  0  0  0  0  0  0  0  0  0  0
  1  2  2  0
  2  3  1  0
  3  4  1  0
  4  5  2  0
  5  6  1  0
  6  7  1  0
  7  8  2  0
  7  9  1  0
  9 10  2  3
 10 11  1  0
 11 12  1  0
 12 13  2  0
 13 14  1  0
 14 15  2  0
 15 16  1  0
  6 17  2  0
 17 18  1  0
 17 19  1  0
 19 20  2  0
 20 21  1  0
  2 22  1  0
 22 23  2  0
 23 24  1  0
 24 25  2  0
 25 26  1  0
 26 27  1  0
 27 28  1  0
 28 29  1  0
 29 30  1  0
 30 31  1  0
 31 32  1  0
 32 33  1  0
 30 34  1  0
 34 35  1  0
 25 36  1  0
 36 37  2  0
 20  4  1  0
 37 22  1  0
 15 10  1  0
 35 27  1  0
  5 38  1  0
 12 39  1  0
 13 40  1  0
 14 41  1  0
 19 42  1  0
 23 43  1  0
 24 44  1  0
 26 45  1  0
 26 46  1  0
 28 47  1  0
 28 48  1  0
 29 49  1  0
 29 50  1  0
 31 51  1  0
 31 52  1  0
 32 53  1  0
 32 54  1  0
 33 55  1  0
 34 56  1  0
 34 57  1  0
 35 58  1  0
 35 59  1  0
 36 60  1  0
 37 61  1  0
M  CHG  5   3  -1  11  -1  16  -1  18  -1  21  -1
M  END
>  <UniqueID>  (3) 
3

>  <SMILES>  (3) 
O=C([N-]c1cc(C(=O)N=c2[n-]cccc2[O-])c([O-])cc1[O-])c1ccc(CN2CCN(CCO)CC2)cc1

>  <Energy>  (3) 
99.41126515684827

>  <Genealogy>  (3) 
O=C([N-]c1cc(C(=O)N=c2[n-]cccc2[O-])c([O-])cc1[O-])c1ccc(CN2CCN(CCO)CC2)cc1 (protonated)
O=C([N-]c1cc(C(=O)N=c2[n-]cccc2[O-])c([O-])cc1[O-])c1ccc(CN2CCN(CCO)CC2)cc1 (3D coordinates assigned)
O=C([N-]c1cc(C(=O)N=c2[n-]cccc2[O-])c([O-])cc1[O-])c1ccc(CN2CCN(CCO)CC2)cc1 (nonaromatic ring conformer: 99.41126515684827 kcal/mol)

>  <smiles>  (3) 
O=C(Nc1cc(C(=O)N=c2[nH]cccc2O)c(O)cc1O)c1ccc(CN2CCN(CCO)CC2)cc1

>  <score_type>  (3) 
oracle

>  <origin>  (3) 
adg

>  <m_score__min__energy>  (3) 
-17.870000000000001

>  <m_primary>  (3) 
energy

$$$$
3:0
     RDKit          3D

 50 52  0  0  0  0  0  0  0  0999 V2000
   60.2320   33.5050   51.0380 C   0  0  0  0  0  0  0  0  0  0  0  0
   60.3720   33.6520   49.5560 C   0  0  0  0  0  0  0  0  0  0  0  0
   61.6180   33.4890   48.9400 C   0  0  0  0  0  0  0  0  0  0  0  0
   61.7310   33.6140   47.5450 C   0  0  0  0  0  0  0  0  0  0  0  0
   63.0530   33.4460   46.8910 C   0  0  0  0  0  0  0  0  0  0  0  0
   63.9450   32.3920   47.2620 N   0  0  0  0  0  0  0  0  0  0  0  0
   63.4110   34.2570   45.9940 O   0  0  0  0  0  0  0  0  0  0  0  0
   60.5790   33.9210   46.7990 C   0  0  0  0  0  0  0  0  0  0  0  0
   59.3500   34.0850   47.4490 C   0  0  0  0  0  0  0  0  0  0  0  0
   58.2870   34.3540   46.7480 N   0  0  0  0  0  0  0  0  0  0  0  0
   57.8860   33.6790   45.5430 C   0  0  0  0  0  0  0  0  0  0  0  0
   57.6250   34.3730   44.5240 O   0  0  0  0  0  0  0  0  0  0  0  0
   57.7200   32.2060   45.4840 C   0  0  0  0  0  0  0  0  0  0  0  0
   56.9170   31.6130   44.4940 C   0  0  0  0  0  0  0  0  0  0  0  0
   56.7700   30.2250   44.4400 C   0  0  0  0  0  0  0  0  0  0  0  0
   57.4220   29.4060   45.3730 C   0  0  0  0  0  0  0  0  0  0  0  0
   57.2960   27.9130   45.2880 C   0  0  0  0  0  0  0  0  0  0  0  0
   55.9330   27.5240   45.6200 N   0  0  0  0  0  0  0  0  0  0  0  0
   55.5740   26.1910   45.9880 C   0  0  0  0  0  0  0  0  0  0  0  0
   54.3650   25.8310   45.9840 O   0  0  0  0  0  0  0  0  0  0  0  0
   56.6350   25.2320   46.4240 C   0  0  0  0  0  0  0  0  0  0  0  0
   56.8250   24.1640   45.3820 C   0  0  0  0  0  0  0  0  0  0  0  0
   57.9120   23.2780   45.4660 C   0  0  0  0  0  0  0  0  0  0  0  0
   58.0700   22.2650   44.5160 C   0  0  0  0  0  0  0  0  0  0  0  0
   57.1410   22.1250   43.4810 C   0  0  0  0  0  0  0  0  0  0  0  0
   56.0500   22.9960   43.3970 C   0  0  0  0  0  0  0  0  0  0  0  0
   55.8870   24.0100   44.3450 C   0  0  0  0  0  0  0  0  0  0  0  0
   58.2490   29.9920   46.3430 C   0  0  0  0  0  0  0  0  0  0  0  0
   58.3970   31.3820   46.3980 C   0  0  0  0  0  0  0  0  0  0  0  0
   59.2790   33.9340   48.8010 N   0  0  0  0  0  0  0  0  0  0  0  0
   60.9063   34.2130   51.5420 H   0  0  0  0  0  0  0  0  0  0  0  0
   59.1930   33.7164   51.3309 H   0  0  0  0  0  0  0  0  0  0  0  0
   60.4937   32.4775   51.3309 H   0  0  0  0  0  0  0  0  0  0  0  0
   62.5073   33.2634   49.5468 H   0  0  0  0  0  0  0  0  0  0  0  0
   63.7810   31.7990   48.1060 H   0  0  0  0  0  0  0  0  0  0  0  0
   64.8370   32.2560   46.7350 H   0  0  0  0  0  0  0  0  0  0  0  0
   60.6435   34.0321   45.7065 H   0  0  0  0  0  0  0  0  0  0  0  0
   56.4011   32.2462   43.7572 H   0  0  0  0  0  0  0  0  0  0  0  0
   56.1392   29.7718   43.6611 H   0  0  0  0  0  0  0  0  0  0  0  0
   57.5337   27.5820   44.2663 H   0  0  0  0  0  0  0  0  0  0  0  0
   57.9952   27.4440   45.9959 H   0  0  0  0  0  0  0  0  0  0  0  0
   57.5810   25.7753   46.5651 H   0  0  0  0  0  0  0  0  0  0  0  0
   56.3291   24.7619   47.3703 H   0  0  0  0  0  0  0  0  0  0  0  0
   58.6416   23.3819   46.2826 H   0  0  0  0  0  0  0  0  0  0  0  0
   58.9260   21.5775   44.5829 H   0  0  0  0  0  0  0  0  0  0  0  0
   57.2681   21.3293   42.7322 H   0  0  0  0  0  0  0  0  0  0  0  0
   55.3187   22.8828   42.5831 H   0  0  0  0  0  0  0  0  0  0  0  0
   55.0238   24.6888   44.2801 H   0  0  0  0  0  0  0  0  0  0  0  0
   58.7835   29.3556   47.0636 H   0  0  0  0  0  0  0  0  0  0  0  0
   59.0477   31.8325   47.1619 H   0  0  0  0  0  0  0  0  0  0  0  0
  1  2  1  0
  2  3  2  0
  3  4  1  0
  4  5  1  0
  5  6  1  0
  5  7  2  0
  4  8  2  0
  8  9  1  0
  9 10  2  3
 10 11  1  0
 11 12  2  0
 11 13  1  0
 13 14  2  0
 14 15  1  0
 15 16  2  0
 16 17  1  0
 17 18  1  0
 18 19  1  0
 19 20  2  0
 19 21  1  0
 21 22  1  0
 22 23  2  0
 23 24  1  0
 24 25  2  0
 25 26  1  0
 26 27  2  0
 16 28  1  0
 28 29  2  0
  9 30  1  0
 30  2  1  0
 29 13  1  0
 27 22  1  0
  1 31  1  0
  1 32  1  0
  1 33  1  0
  3 34  1  0
  6 35  1  0
  6 36  1  0
  8 37  1  0
 14 38  1  0
 15 39  1  0
 17 40  1  0
 17 41  1  0
 21 42  1  0
 21 43  1  0
 23 44  1  0
 24 45  1  0
 25 46  1  0
 26 47  1  0
 27 48  1  0
 28 49  1  0
 29 50  1  0
M  CHG  2  18  -1  30  -1
M  END
>  <UniqueID>  (4) 
4

>  <SMILES>  (4) 
Cc1cc(C(N)=O)cc(=NC(=O)c2ccc(C[N-]C(=O)Cc3ccccc3)cc2)[n-]1

>  <Energy>  (4) 
55.6597674375494

>  <Genealogy>  (4) 
Cc1cc(C(N)=O)cc(=NC(=O)c2ccc(C[N-]C(=O)Cc3ccccc3)cc2)[n-]1 (protonated)
Cc1cc(C(N)=O)cc(=NC(=O)c2ccc(C[N-]C(=O)Cc3ccccc3)cc2)[n-]1 (3D coordinates assigned)
Cc1cc(C(N)=O)cc(=NC(=O)c2ccc(C[N-]C(=O)Cc3ccccc3)cc2)[n-]1 (optimized conformer: 55.6597674375494 kcal/mol)

>  <smiles>  (4) 
Cc1cc(C(N)=O)cc(=NC(=O)c2ccc(CNC(=O)Cc3ccccc3)cc2)[nH]1

>  <score_type>  (4) 
oracle

>  <origin>  (4) 
adg

>  <m_score__min__energy>  (4) 
-12.800000000000001

>  <m_primary>  (4) 
energy

$$$$
4:0
     RDKit          3D

 51 53  0  0  1  0  0  0  0  0999 V2000
   58.3590   30.4120   47.9410 O   0  0  0  0  0  0  0  0  0  0  0  0
   58.5140   31.0730   46.9100 C   0  0  0  0  0  0  0  0  0  0  0  0
   58.8350   32.4750   46.8230 C   0  0  0  0  0  0  0  0  0  0  0  0
   58.0660   33.2410   45.9400 C   0  0  0  0  0  0  0  0  0  0  0  0
   58.2870   34.5800   45.7640 C   0  0  0  0  0  0  0  0  0  0  0  0
   59.3040   35.1580   46.4920 C   0  0  0  0  0  0  0  0  0  0  0  0
   60.0680   34.4120   47.3650 C   0  0  0  0  0  0  0  0  0  0  0  0
   59.8440   33.0390   47.5490 C   0  0  0  0  0  0  0  0  0  0  0  0
   60.7160   32.3600   48.5150 C   0  0  0  0  0  0  0  0  0  0  0  0
   60.4380   32.7310   49.8820 N   0  0  0  0  0  0  0  0  0  0  0  0
   61.1930   33.2380   50.8490 C   0  0  0  0  0  0  0  0  0  0  0  0
   60.4530   33.4570   52.0080 C   0  0  0  0  0  0  0  0  0  0  0  0
   59.1800   33.0560   51.7140 C   0  0  0  0  0  0  0  0  0  0  0  0
   57.9450   33.0500   52.5430 C   0  0  0  0  0  0  0  0  0  0  0  0
   57.6340   31.6720   53.0750 C   0  0  0  0  0  0  0  0  0  0  0  0
   57.1560   30.8110   51.9670 C   0  0  0  0  0  0  0  0  0  0  0  0
   55.9930   31.2040   51.2860 O   0  0  0  0  0  0  0  0  0  0  0  0
   57.7650   29.7330   51.6150 N   0  0  0  0  0  0  0  0  0  0  0  0
   58.2080   29.5270   50.3210 O   0  0  0  0  0  0  0  0  0  0  0  0
   59.1750   32.6080   50.3970 C   0  0  0  0  0  0  0  0  0  0  0  0
   58.0500   32.1080   49.7060 O   0  0  0  0  0  0  0  0  0  0  0  0
   58.3580   30.3680   45.6590 N   0  0  0  0  0  0  0  0  0  0  0  0
   58.5170   31.0590   44.3800 C   0  0  0  0  0  0  0  0  0  0  0  0
   57.2310   30.8260   43.6150 C   0  0  0  0  0  0  0  0  0  0  0  0
   57.1470   29.4190   43.3570 N   0  0  0  0  0  0  0  0  0  0  0  0
   57.0820   28.5870   44.5120 C   0  0  0  0  0  0  0  0  0  0  0  0
   58.0470   28.9500   45.6140 C   0  0  0  0  0  0  0  0  0  0  0  0
   57.2609   32.7530   45.3711 H   0  0  0  0  0  0  0  0  0  0  0  0
   57.6757   35.1726   45.0675 H   0  0  0  0  0  0  0  0  0  0  0  0
   59.5100   36.2322   46.3750 H   0  0  0  0  0  0  0  0  0  0  0  0
   60.8723   34.9052   47.9306 H   0  0  0  0  0  0  0  0  0  0  0  0
   60.5760   31.2739   48.4109 H   0  0  0  0  0  0  0  0  0  0  0  0
   61.7503   32.6630   48.2951 H   0  0  0  0  0  0  0  0  0  0  0  0
   62.2662   33.4571   50.7476 H   0  0  0  0  0  0  0  0  0  0  0  0
   60.8171   33.8672   52.9615 H   0  0  0  0  0  0  0  0  0  0  0  0
   58.0822   33.7366   53.3913 H   0  0  0  0  0  0  0  0  0  0  0  0
   57.1053   33.3691   51.9081 H   0  0  0  0  0  0  0  0  0  0  0  0
   58.5430   31.2344   53.5135 H   0  0  0  0  0  0  0  0  0  0  0  0
   56.8531   31.7443   53.8464 H   0  0  0  0  0  0  0  0  0  0  0  0
   56.0750   31.9400   50.5870 H   0  0  0  0  0  0  0  0  0  0  0  0
   58.8880   30.1250   49.8590 H   0  0  0  0  0  0  0  0  0  0  0  0
   57.7220   31.1520   49.9110 H   0  0  0  0  0  0  0  0  0  0  0  0
   58.6740   32.1353   44.5443 H   0  0  0  0  0  0  0  0  0  0  0  0
   59.3889   30.6824   43.8251 H   0  0  0  0  0  0  0  0  0  0  0  0
   56.3694   31.1521   44.2160 H   0  0  0  0  0  0  0  0  0  0  0  0
   57.2232   31.3988   42.6759 H   0  0  0  0  0  0  0  0  0  0  0  0
   57.8940   29.1500   42.6820 H   0  0  0  0  0  0  0  0  0  0  0  0
   56.0616   28.6465   44.9185 H   0  0  0  0  0  0  0  0  0  0  0  0
   57.3611   27.5764   44.1792 H   0  0  0  0  0  0  0  0  0  0  0  0
   57.6029   28.6589   46.5773 H   0  0  0  0  0  0  0  0  0  0  0  0
   58.9874   28.4156   45.4138 H   0  0  0  0  0  0  0  0  0  0  0  0
  1  2  2  0
  2  3  1  0
  3  4  2  0
  4  5  1  0
  5  6  2  0
  6  7  1  0
  7  8  2  0
  8  9  1  0
  9 10  1  0
 10 11  1  0
 11 12  2  0
 12 13  1  0
 13 14  1  0
 14 15  1  0
 15 16  1  0
 16 17  1  0
 16 18  2  0
 18 19  1  0
 13 20  2  0
 20 21  1  0
  2 22  1  0
 22 23  1  0
 23 24  1  0
 24 25  1  0
 25 26  1  0
 26 27  1  0
  8  3  1  0
 20 10  1  0
 27 22  1  0
  4 28  1  0
  5 29  1  0
  6 30  1  0
  7 31  1  0
  9 32  1  0
  9 33  1  0
 11 34  1  0
 12 35  1  0
 14 36  1  0
 14 37  1  0
 15 38  1  0
 15 39  1  0
 17 40  1  0
 19 41  1  0
 21 42  1  0
 23 43  1  0
 23 44  1  0
 24 45  1  0
 24 46  1  0
 25 47  1  0
 26 48  1  0
 26 49  1  0
 27 50  1  0
 27 51  1  0
M  END
>  <smiles>  (5) 
O=C(c1ccccc1Cn1ccc(CCC(O)=NO)c1O)N1CCNCC1

>  <score_type>  (5) 
oracle

>  <origin>  (5) 
adg

>  <m_score__min__energy>  (5) 
-10.74

>  <m_primary>  (5) 
energy

$$$$
5:0
     RDKit          3D

 40 41  0  0  0  0  0  0  0  0999 V2000
   55.0640   26.1780   46.0020 O   0  0  0  0  0  0  0  0  0  0  0  0
   56.2760   26.5000   46.1230 C   0  0  0  0  0  0  0  0  0  0  0  0
   56.8320   27.6140   45.2740 C   0  0  0  0  0  0  0  0  0  0  0  0
   55.8720   28.7060   45.1410 N   0  0  0  0  0  0  0  0  0  0  0  0
   56.1390   29.9940   44.5670 C   0  0  0  0  0  0  0  0  0  0  0  0
   55.1780   30.7940   44.4100 O   0  0  0  0  0  0  0  0  0  0  0  0
   57.5220   30.4370   44.1750 C   0  0  0  0  0  0  0  0  0  0  0  0
   57.8620   31.7660   44.7950 C   0  0  0  0  0  0  0  0  0  0  0  0
   58.1990   32.8680   43.9900 C   0  0  0  0  0  0  0  0  0  0  0  0
   58.4980   34.1030   44.5720 C   0  0  0  0  0  0  0  0  0  0  0  0
   58.4670   34.2490   45.9610 C   0  0  0  0  0  0  0  0  0  0  0  0
   58.1340   33.1580   46.7700 C   0  0  0  0  0  0  0  0  0  0  0  0
   57.8320   31.9210   46.1920 C   0  0  0  0  0  0  0  0  0  0  0  0
   57.0740   25.8220   47.1010 N   0  0  0  0  0  0  0  0  0  0  0  0
   58.5120   25.6120   46.9970 C   0  0  0  0  0  0  0  0  0  0  0  0
   59.2400   26.7260   47.6860 C   0  0  0  0  0  0  0  0  0  0  0  0
   60.3110   26.4760   48.2980 O   0  0  0  0  0  0  0  0  0  0  0  0
   58.7160   28.0600   47.7150 N   0  0  0  0  0  0  0  0  0  0  0  0
   59.5040   29.2560   47.7920 C   0  0  0  0  0  0  0  0  0  0  0  0
   59.4600   30.0710   48.9350 C   0  0  0  0  0  0  0  0  0  0  0  0
   60.2100   31.2500   48.9900 C   0  0  0  0  0  0  0  0  0  0  0  0
   61.0080   31.6220   47.9070 C   0  0  0  0  0  0  0  0  0  0  0  0
   61.0450   30.8260   46.7590 C   0  0  0  0  0  0  0  0  0  0  0  0
   60.2860   29.6510   46.6920 C   0  0  0  0  0  0  0  0  0  0  0  0
   60.3630   28.5830   45.1050 Br  0  0  0  0  0  0  0  0  0  0  0  0
   57.7500   27.9983   45.7426 H   0  0  0  0  0  0  0  0  0  0  0  0
   57.0462   27.2145   44.2717 H   0  0  0  0  0  0  0  0  0  0  0  0
   58.2497   29.6854   44.5149 H   0  0  0  0  0  0  0  0  0  0  0  0
   57.5577   30.5429   43.0807 H   0  0  0  0  0  0  0  0  0  0  0  0
   58.2275   32.7577   42.8959 H   0  0  0  0  0  0  0  0  0  0  0  0
   58.7582   34.9615   43.9353 H   0  0  0  0  0  0  0  0  0  0  0  0
   58.7043   35.2211   46.4179 H   0  0  0  0  0  0  0  0  0  0  0  0
   58.1096   33.2732   47.8637 H   0  0  0  0  0  0  0  0  0  0  0  0
   57.5700   31.0661   46.8327 H   0  0  0  0  0  0  0  0  0  0  0  0
   58.7763   24.6552   47.4709 H   0  0  0  0  0  0  0  0  0  0  0  0
   58.7999   25.5925   45.9355 H   0  0  0  0  0  0  0  0  0  0  0  0
   58.8328   29.7806   49.7907 H   0  0  0  0  0  0  0  0  0  0  0  0
   60.1710   31.8848   49.8875 H   0  0  0  0  0  0  0  0  0  0  0  0
   61.6082   32.5424   47.9572 H   0  0  0  0  0  0  0  0  0  0  0  0
   61.6721   31.1232   45.9055 H   0  0  0  0  0  0  0  0  0  0  0  0
  1  2  2  0
  2  3  1  0
  3  4  1  0
  4  5  1  0
  5  6  2  0
  5  7  1  0
  7  8  1  0
  8  9  2  0
  9 10  1  0
 10 11  2  0
 11 12  1  0
 12 13  2  0
  2 14  1  0
 14 15  1  0
 15 16  1  0
 16 17  2  0
 16 18  1  0
 18 19  1  0
 19 20  2  0
 20 21  1  0
 21 22  2  0
 22 23  1  0
 23 24  2  0
 24 25  1  0
 13  8  1  0
 24 19  1  0
  3 26  1  0
  3 27  1  0
  7 28  1  0
  7 29  1  0
  9 30  1  0
 10 31  1  0
 11 32  1  0
 12 33  1  0
 13 34  1  0
 15 35  1  0
 15 36  1  0
 20 37  1  0
 21 38  1  0
 22 39  1  0
 23 40  1  0
M  CHG  3   4  -1  14  -1  18  -1
M  END
>  <UniqueID>  (6) 
5

>  <SMILES>  (6) 
O=C(C[N-]C(=O)Cc1ccccc1)[N-]CC(=O)[N-]c1ccccc1Br

>  <Energy>  (6) 
35.915021913405326

>  <Genealogy>  (6) 
O=C(C[N-]C(=O)Cc1ccccc1)[N-]CC(=O)[N-]c1ccccc1Br (protonated)
O=C(C[N-]C(=O)Cc1ccccc1)[N-]CC(=O)[N-]c1ccccc1Br (3D coordinates assigned)
O=C(C[N-]C(=O)Cc1ccccc1)[N-]CC(=O)[N-]c1ccccc1Br (optimized conformer: 35.915021913405326 kcal/mol)

>  <smiles>  (6) 
O=C(CNC(=O)Cc1ccccc1)NCC(=O)Nc1ccccc1Br

>  <score_type>  (6) 
oracle

>  <origin>  (6) 
adg

>  <m_score__min__energy>  (6) 
-13.880000000000001

>  <m_primary>  (6) 
energy

$$$$
6:0
     RDKit          3D

 60 64  0  0  0  0  0  0  0  0999 V2000
   58.2310   34.4270   44.8670 C   0  0  0  0  0  0  0  0  0  0  0  0
   58.1660   32.9790   45.2490 C   0  0  0  0  0  0  0  0  0  0  0  0
   58.1890   32.6080   46.6040 C   0  0  0  0  0  0  0  0  0  0  0  0
   58.1480   31.2580   46.9660 C   0  0  0  0  0  0  0  0  0  0  0  0
   58.1220   30.2590   45.9770 C   0  0  0  0  0  0  0  0  0  0  0  0
   58.0550   28.8660   46.3570 N   0  0  0  0  0  0  0  0  0  0  0  0
   58.9850   28.3140   47.2140 C   0  0  0  0  0  0  0  0  0  0  0  0
   60.1780   29.0990   47.7360 C   0  0  0  0  0  0  0  0  0  0  0  0
   60.4130   28.8040   49.1540 N   0  0  0  0  0  0  0  0  0  0  0  0
   61.1510   27.7740   49.5550 N   0  0  0  0  0  0  0  0  0  0  0  0
   61.0550   27.7020   50.8980 C   0  0  0  0  0  0  0  0  0  0  0  0
   61.7970   26.7120   51.7320 C   0  0  0  0  0  0  0  0  0  0  0  0
   60.2460   28.7240   51.3740 C   0  0  0  0  0  0  0  0  0  0  0  0
   59.8580   29.4090   50.2380 C   0  0  0  0  0  0  0  0  0  0  0  0
   59.0300   30.6300   50.2400 C   0  0  0  0  0  0  0  0  0  0  0  0
   57.7800   30.5310   50.3900 O   0  0  0  0  0  0  0  0  0  0  0  0
   59.6550   31.9210   50.1920 N   0  0  0  0  0  0  0  0  0  0  0  0
   60.7510   32.3140   49.3550 C   0  0  0  0  0  0  0  0  0  0  0  0
   60.6240   33.3360   48.3910 C   0  0  0  0  0  0  0  0  0  0  0  0
   61.6790   33.6000   47.5080 C   0  0  0  0  0  0  0  0  0  0  0  0
   62.8680   32.8520   47.5810 C   0  0  0  0  0  0  0  0  0  0  0  0
   63.9250   33.1070   46.7090 O   0  0  0  0  0  0  0  0  0  0  0  0
   62.9940   31.8350   48.5380 C   0  0  0  0  0  0  0  0  0  0  0  0
   61.9370   31.5630   49.4130 C   0  0  0  0  0  0  0  0  0  0  0  0
   58.8570   26.9740   47.6000 C   0  0  0  0  0  0  0  0  0  0  0  0
   57.8380   26.1790   47.0750 C   0  0  0  0  0  0  0  0  0  0  0  0
   57.7340   24.8250   47.4360 C   0  0  0  0  0  0  0  0  0  0  0  0
   56.7300   24.0270   46.8830 C   0  0  0  0  0  0  0  0  0  0  0  0
   55.8040   24.5700   45.9670 C   0  0  0  0  0  0  0  0  0  0  0  0
   54.7710   23.7470   45.3980 N   0  0  0  0  0  0  0  0  0  0  0  0
   53.5800   23.8850   45.7570 O   0  0  0  0  0  0  0  0  0  0  0  0
   55.0780   22.8010   44.4390 O   0  0  0  0  0  0  0  0  0  0  0  0
   55.8980   25.9330   45.6210 C   0  0  0  0  0  0  0  0  0  0  0  0
   56.9150   26.7430   46.1700 C   0  0  0  0  0  0  0  0  0  0  0  0
   57.0300   28.1060   45.8410 C   0  0  0  0  0  0  0  0  0  0  0  0
   56.1760   28.6340   45.0690 O   0  0  0  0  0  0  0  0  0  0  0  0
   58.0910   30.6290   44.6210 C   0  0  0  0  0  0  0  0  0  0  0  0
   58.1300   31.9810   44.2580 C   0  0  0  0  0  0  0  0  0  0  0  0
   58.2588   35.0452   45.7764 H   0  0  0  0  0  0  0  0  0  0  0  0
   59.1382   34.6089   44.2721 H   0  0  0  0  0  0  0  0  0  0  0  0
   57.3437   34.6895   44.2721 H   0  0  0  0  0  0  0  0  0  0  0  0
   58.2395   33.3828   47.3832 H   0  0  0  0  0  0  0  0  0  0  0  0
   58.1360   30.9763   48.0293 H   0  0  0  0  0  0  0  0  0  0  0  0
   61.0721   28.8244   47.1571 H   0  0  0  0  0  0  0  0  0  0  0  0
   59.9686   30.1735   47.6284 H   0  0  0  0  0  0  0  0  0  0  0  0
   61.6317   26.9326   52.7969 H   0  0  0  0  0  0  0  0  0  0  0  0
   61.4345   25.6981   51.5070 H   0  0  0  0  0  0  0  0  0  0  0  0
   62.8719   26.7754   51.5070 H   0  0  0  0  0  0  0  0  0  0  0  0
   59.9751   28.9399   52.4180 H   0  0  0  0  0  0  0  0  0  0  0  0
   59.6970   33.9253   48.3327 H   0  0  0  0  0  0  0  0  0  0  0  0
   61.5772   34.3952   46.7548 H   0  0  0  0  0  0  0  0  0  0  0  0
   64.7490   32.5190   46.6950 H   0  0  0  0  0  0  0  0  0  0  0  0
   63.9241   31.2510   48.6007 H   0  0  0  0  0  0  0  0  0  0  0  0
   62.0352   30.7546   50.1525 H   0  0  0  0  0  0  0  0  0  0  0  0
   59.5659   26.5447   48.3233 H   0  0  0  0  0  0  0  0  0  0  0  0
   58.4448   24.3927   48.1556 H   0  0  0  0  0  0  0  0  0  0  0  0
   56.6604   22.9658   47.1640 H   0  0  0  0  0  0  0  0  0  0  0  0
   55.1732   26.3688   44.9177 H   0  0  0  0  0  0  0  0  0  0  0  0
   58.0359   29.8538   43.8425 H   0  0  0  0  0  0  0  0  0  0  0  0
   58.1325   32.2635   43.1949 H   0  0  0  0  0  0  0  0  0  0  0  0
  1  2  1  0
  2  3  2  0
  3  4  1  0
  4  5  2  0
  5  6  1  0
  6  7  1  0
  7  8  1  0
  8  9  1  0
  9 10  1  0
 10 11  2  0
 11 12  1  0
 11 13  1  0
 13 14  2  0
 14 15  1  0
 15 16  2  0
 15 17  1  0
 17 18  1  0
 18 19  2  0
 19 20  1  0
 20 21  2  0
 21 22  1  0
 21 23  1  0
 23 24  2  0
  7 25  2  0
 25 26  1  0
 26 27  2  0
 27 28  1  0
 28 29  2  0
 29 30  1  0
 30 31  2  0
 30 32  1  0
 29 33  1  0
 33 34  2  0
 34 35  1  0
 35 36  2  0
  5 37  1  0
 37 38  2  0
 38  2  1  0
 35  6  1  0
 14  9  1  0
 24 18  1  0
 34 26  1  0
  1 39  1  0
  1 40  1  0
  1 41  1  0
  3 42  1  0
  4 43  1  0
  8 44  1  0
  8 45  1  0
 12 46  1  0
 12 47  1  0
 12 48  1  0
 13 49  1  0
 19 50  1  0
 20 51  1  0
 22 52  1  0
 23 53  1  0
 24 54  1  0
 25 55  1  0
 27 56  1  0
 28 57  1  0
 33 58  1  0
 37 59  1  0
 38 60  1  0
M  CHG  3  17  -1  30   1  32  -1
M  END
>  <UniqueID>  (7) 
6

>  <SMILES>  (7) 
Cc1ccc(-n2c(Cn3nc(C)cc3C(=O)[N-]c3ccc(O)cc3)cc3ccc([N+](=O)[O-])cc3c2=O)cc1

>  <Energy>  (7) 
112.86355882181097

>  <Genealogy>  (7) 
Cc1ccc(-n2c(Cn3nc(C)cc3C(=O)[N-]c3ccc(O)cc3)cc3ccc([N+](=O)[O-])cc3c2=O)cc1 (protonated)
Cc1ccc(-n2c(Cn3nc(C)cc3C(=O)[N-]c3ccc(O)cc3)cc3ccc([N+](=O)[O-])cc3c2=O)cc1 (3D coordinates assigned)
Cc1ccc(-n2c(Cn3nc(C)cc3C(=O)[N-]c3ccc(O)cc3)cc3ccc([N+](=O)[O-])cc3c2=O)cc1 (optimized conformer: 112.86355882181097 kcal/mol)

>  <smiles>  (7) 
Cc1ccc(-n2c(Cn3nc(C)cc3C(=O)Nc3ccc(O)cc3)cc3ccc([N+](=O)[O-])cc3c2=O)cc1

>  <score_type>  (7) 
oracle

>  <origin>  (7) 
adg

>  <m_score__min__energy>  (7) 
-10.15

>  <m_primary>  (7) 
energy

$$$$
7:0
     RDKit          3D

 60 62  0  0  0  0  0  0  0  0999 V2000
   59.6620   35.1560   46.7340 C   0  0  0  0  0  0  0  0  0  0  0  0
   58.7040   33.9950   46.4500 C   0  0  0  0  0  0  0  0  0  0  0  0
   58.1700   33.4190   47.7680 C   0  0  0  0  0  0  0  0  0  0  0  0
   59.3080   32.9010   45.5280 C   0  0  0  0  0  0  0  0  0  0  0  0
   58.4330   31.7110   45.3590 N   0  0  0  0  0  0  0  0  0  0  0  0
   58.9090   30.4190   45.5100 C   0  0  0  0  0  0  0  0  0  0  0  0
   60.2880   30.1480   45.8260 N   0  0  0  0  0  0  0  0  0  0  0  0
   58.0320   29.3250   45.3380 C   0  0  0  0  0  0  0  0  0  0  0  0
   58.4840   27.9650   45.4900 N   0  0  0  0  0  0  0  0  0  0  0  0
   57.9360   26.9350   44.5960 C   0  0  0  0  0  0  0  0  0  0  0  0
   57.5650   25.6980   45.3700 C   0  0  0  0  0  0  0  0  0  0  0  0
   58.1040   24.4530   45.0090 C   0  0  0  0  0  0  0  0  0  0  0  0
   57.7120   23.2910   45.6830 C   0  0  0  0  0  0  0  0  0  0  0  0
   56.8000   23.3700   46.7380 C   0  0  0  0  0  0  0  0  0  0  0  0
   56.2830   24.6110   47.1250 C   0  0  0  0  0  0  0  0  0  0  0  0
   56.6580   25.7720   46.4430 C   0  0  0  0  0  0  0  0  0  0  0  0
   59.5110   27.6280   46.4490 C   0  0  0  0  0  0  0  0  0  0  0  0
   60.5970   27.1320   46.0490 O   0  0  0  0  0  0  0  0  0  0  0  0
   59.3440   27.8910   47.9270 C   0  0  0  0  0  0  0  0  0  0  0  0
   60.4340   28.6950   48.4930 N   0  0  0  0  0  0  0  0  0  0  0  0
   59.9020   30.2600   49.0500 S   0  0  0  0  0  0  0  0  0  0  0  0
   59.7590   30.2170   50.5450 O   0  0  0  0  0  0  0  0  0  0  0  0
   58.5650   30.6180   48.4600 O   0  0  0  0  0  0  0  0  0  0  0  0
   61.1000   31.4860   48.6380 C   0  0  0  0  0  0  0  0  0  0  0  0
   62.1720   31.1900   47.7810 C   0  0  0  0  0  0  0  0  0  0  0  0
   63.1280   32.1690   47.4890 C   0  0  0  0  0  0  0  0  0  0  0  0
   63.0200   33.4440   48.0510 C   0  0  0  0  0  0  0  0  0  0  0  0
   61.9460   33.7470   48.8940 C   0  0  0  0  0  0  0  0  0  0  0  0
   60.9880   32.7720   49.1860 C   0  0  0  0  0  0  0  0  0  0  0  0
   56.6970   29.5780   45.0280 C   0  0  0  0  0  0  0  0  0  0  0  0
   55.8790   28.6300   44.8900 O   0  0  0  0  0  0  0  0  0  0  0  0
   56.2760   30.8500   44.8600 N   0  0  0  0  0  0  0  0  0  0  0  0
   57.1160   31.9040   45.0050 C   0  0  0  0  0  0  0  0  0  0  0  0
   56.6640   33.0610   44.7920 O   0  0  0  0  0  0  0  0  0  0  0  0
   59.7689   35.2856   47.8211 H   0  0  0  0  0  0  0  0  0  0  0  0
   60.6453   34.9364   46.2924 H   0  0  0  0  0  0  0  0  0  0  0  0
   59.2598   36.0797   46.2924 H   0  0  0  0  0  0  0  0  0  0  0  0
   57.8581   34.4037   45.8778 H   0  0  0  0  0  0  0  0  0  0  0  0
   58.6481   33.9347   48.6139 H   0  0  0  0  0  0  0  0  0  0  0  0
   57.0809   33.5653   47.8175 H   0  0  0  0  0  0  0  0  0  0  0  0
   58.3982   32.3441   47.8175 H   0  0  0  0  0  0  0  0  0  0  0  0
   59.4882   33.3430   44.5369 H   0  0  0  0  0  0  0  0  0  0  0  0
   60.2347   32.5527   46.0074 H   0  0  0  0  0  0  0  0  0  0  0  0
   61.0480   30.7920   45.5180 H   0  0  0  0  0  0  0  0  0  0  0  0
   60.6150   29.3300   46.3780 H   0  0  0  0  0  0  0  0  0  0  0  0
   57.0392   27.3307   44.0969 H   0  0  0  0  0  0  0  0  0  0  0  0
   58.7020   26.6694   43.8526 H   0  0  0  0  0  0  0  0  0  0  0  0
   58.8382   24.3906   44.1922 H   0  0  0  0  0  0  0  0  0  0  0  0
   58.1220   22.3156   45.3821 H   0  0  0  0  0  0  0  0  0  0  0  0
   56.4882   22.4561   47.2648 H   0  0  0  0  0  0  0  0  0  0  0  0
   55.5795   24.6733   47.9683 H   0  0  0  0  0  0  0  0  0  0  0  0
   56.2434   26.7449   46.7456 H   0  0  0  0  0  0  0  0  0  0  0  0
   58.3959   28.4265   48.0829 H   0  0  0  0  0  0  0  0  0  0  0  0
   59.3540   26.9169   48.4379 H   0  0  0  0  0  0  0  0  0  0  0  0
   61.1810   28.8360   47.7780 H   0  0  0  0  0  0  0  0  0  0  0  0
   62.2604   30.1868   47.3384 H   0  0  0  0  0  0  0  0  0  0  0  0
   63.9660   31.9347   46.8160 H   0  0  0  0  0  0  0  0  0  0  0  0
   63.7793   34.2088   47.8304 H   0  0  0  0  0  0  0  0  0  0  0  0
   61.8551   34.7538   49.3277 H   0  0  0  0  0  0  0  0  0  0  0  0
   60.1434   33.0142   49.8478 H   0  0  0  0  0  0  0  0  0  0  0  0
  1  2  1  0
  2  3  1  0
  2  4  1  0
  4  5  1  0
  5  6  1  0
  6  7  1  0
  6  8  2  0
  8  9  1  0
  9 10  1  0
 10 11  1  0
 11 12  2  0
 12 13  1  0
 13 14  2  0
 14 15  1  0
 15 16  2  0
  9 17  1  0
 17 18  2  0
 17 19  1  0
 19 20  1  0
 20 21  1  0
 21 22  2  0
 21 23  2  0
 21 24  1  0
 24 25  2  0
 25 26  1  0
 26 27  2  0
 27 28  1  0
 28 29  2  0
  8 30  1  0
 30 31  2  0
 30 32  1  0
 32 33  1  0
 33 34  2  0
 33  5  1  0
 16 11  1  0
 29 24  1  0
  1 35  1  0
  1 36  1  0
  1 37  1  0
  2 38  1  0
  3 39  1  0
  3 40  1  0
  3 41  1  0
  4 42  1  0
  4 43  1  0
  7 44  1  0
  7 45  1  0
 10 46  1  0
 10 47  1  0
 12 48  1  0
 13 49  1  0
 14 50  1  0
 15 51  1  0
 16 52  1  0
 19 53  1  0
 19 54  1  0
 20 55  1  0
 25 56  1  0
 26 57  1  0
 27 58  1  0
 28 59  1  0
 29 60  1  0
M  CHG  1  32  -1
M  END
>  <UniqueID>  (8) 
7

>  <SMILES>  (8) 
CC(C)Cn1c(N)c(N(Cc2ccccc2)C(=O)CNS(=O)(=O)c2ccccc2)c(=O)[n-]c1=O

>  <Energy>  (8) 
66.59750807231241

>  <Genealogy>  (8) 
CC(C)Cn1c(N)c(N(Cc2ccccc2)C(=O)CNS(=O)(=O)c2ccccc2)c(=O)[n-]c1=O (protonated)
CC(C)Cn1c(N)c(N(Cc2ccccc2)C(=O)CNS(=O)(=O)c2ccccc2)c(=O)[n-]c1=O (3D coordinates assigned)
CC(C)Cn1c(N)c(N(Cc2ccccc2)C(=O)CNS(=O)(=O)c2ccccc2)c(=O)[n-]c1=O (optimized conformer: 66.59750807231241 kcal/mol)

>  <smiles>  (8) 
CC(C)Cn1c(N)c(N(Cc2ccccc2)C(=O)CNS(=O)(=O)c2ccccc2)c(=O)[nH]c1=O

>  <score_type>  (8) 
oracle

>  <origin>  (8) 
adg

>  <m_score__min__energy>  (8) 
-11.06

>  <m_primary>  (8) 
energy

$$$$
8:0
     RDKit          3D

 51 54  0  0  0  0  0  0  0  0999 V2000
   64.5260   32.7650   49.2420 C   0  0  0  0  0  0  0  0  0  0  0  0
   63.3410   33.3190   48.5080 C   0  0  0  0  0  0  0  0  0  0  0  0
   62.2020   33.7460   49.2110 C   0  0  0  0  0  0  0  0  0  0  0  0
   61.0900   34.2470   48.5190 C   0  0  0  0  0  0  0  0  0  0  0  0
   61.1030   34.3130   47.1160 C   0  0  0  0  0  0  0  0  0  0  0  0
   59.7340   35.0160   46.2490 S   0  0  0  0  0  0  0  0  0  0  0  0
   58.5510   35.1000   47.1760 O   0  0  0  0  0  0  0  0  0  0  0  0
   60.0690   36.4090   45.7750 O   0  0  0  0  0  0  0  0  0  0  0  0
   59.3110   34.0430   44.8800 N   0  0  0  0  0  0  0  0  0  0  0  0
   58.8860   32.6760   44.9530 C   0  0  0  0  0  0  0  0  0  0  0  0
   57.9370   32.1410   44.0640 C   0  0  0  0  0  0  0  0  0  0  0  0
   57.5380   30.8070   44.1750 C   0  0  0  0  0  0  0  0  0  0  0  0
   58.0470   30.0020   45.2060 C   0  0  0  0  0  0  0  0  0  0  0  0
   57.5510   28.6270   45.3960 C   0  0  0  0  0  0  0  0  0  0  0  0
   58.5260   27.2780   45.6870 S   0  0  0  0  0  0  0  0  0  0  0  0
   57.2750   26.1590   45.8420 C   0  0  0  0  0  0  0  0  0  0  0  0
   57.4800   24.7160   46.0970 C   0  0  0  0  0  0  0  0  0  0  0  0
   57.7550   24.3370   47.2690 O   0  0  0  0  0  0  0  0  0  0  0  0
   57.3380   23.7000   45.0310 C   0  0  0  0  0  0  0  0  0  0  0  0
   56.1040   23.5680   44.3710 C   0  0  0  0  0  0  0  0  0  0  0  0
   55.9270   22.5920   43.3880 C   0  0  0  0  0  0  0  0  0  0  0  0
   56.9730   21.7300   43.0590 C   0  0  0  0  0  0  0  0  0  0  0  0
   58.1990   21.8430   43.7090 C   0  0  0  0  0  0  0  0  0  0  0  0
   58.4020   22.8300   44.6910 C   0  0  0  0  0  0  0  0  0  0  0  0
   59.7420   22.9300   45.3660 C   0  0  0  0  0  0  0  0  0  0  0  0
   56.0660   26.8360   45.6360 C   0  0  0  0  0  0  0  0  0  0  0  0
   54.8210   26.2160   45.6280 O   0  0  0  0  0  0  0  0  0  0  0  0
   56.2200   28.2090   45.3970 C   0  0  0  0  0  0  0  0  0  0  0  0
   55.1440   29.0600   45.1440 O   0  0  0  0  0  0  0  0  0  0  0  0
   58.9780   30.5450   46.1060 C   0  0  0  0  0  0  0  0  0  0  0  0
   59.4080   31.8670   45.9620 C   0  0  0  0  0  0  0  0  0  0  0  0
   62.2330   33.8650   46.4120 C   0  0  0  0  0  0  0  0  0  0  0  0
   63.3440   33.3670   47.1010 C   0  0  0  0  0  0  0  0  0  0  0  0
   64.3559   32.8445   50.3259 H   0  0  0  0  0  0  0  0  0  0  0  0
   64.6652   31.7085   48.9692 H   0  0  0  0  0  0  0  0  0  0  0  0
   65.4259   33.3357   48.9692 H   0  0  0  0  0  0  0  0  0  0  0  0
   62.1824   33.6870   50.3092 H   0  0  0  0  0  0  0  0  0  0  0  0
   60.2054   34.5891   49.0762 H   0  0  0  0  0  0  0  0  0  0  0  0
   57.5063   32.7768   43.2764 H   0  0  0  0  0  0  0  0  0  0  0  0
   56.8231   30.3863   43.4526 H   0  0  0  0  0  0  0  0  0  0  0  0
   55.2715   24.2385   44.6307 H   0  0  0  0  0  0  0  0  0  0  0  0
   54.9598   22.5028   42.8717 H   0  0  0  0  0  0  0  0  0  0  0  0
   56.8293   20.9608   42.2859 H   0  0  0  0  0  0  0  0  0  0  0  0
   59.0170   21.1538   43.4523 H   0  0  0  0  0  0  0  0  0  0  0  0
   59.6045   22.9197   46.4573 H   0  0  0  0  0  0  0  0  0  0  0  0
   60.3677   22.0761   45.0672 H   0  0  0  0  0  0  0  0  0  0  0  0
   60.2340   23.8674   45.0672 H   0  0  0  0  0  0  0  0  0  0  0  0
   59.3704   29.9276   46.9275 H   0  0  0  0  0  0  0  0  0  0  0  0
   60.1643   32.2727   46.6501 H   0  0  0  0  0  0  0  0  0  0  0  0
   62.2444   33.9060   45.3128 H   0  0  0  0  0  0  0  0  0  0  0  0
   64.2223   33.0120   46.5419 H   0  0  0  0  0  0  0  0  0  0  0  0
  1  2  1  0
  2  3  2  0
  3  4  1  0
  4  5  2  0
  5  6  1  0
  6  7  2  0
  6  8  2  0
  6  9  1  0
  9 10  1  0
 10 11  2  0
 11 12  1  0
 12 13  2  0
 13 14  1  0
 14 15  1  0
 15 16  1  0
 16 17  1  0
 17 18  2  0
 17 19  1  0
 19 20  2  0
 20 21  1  0
 21 22  2  0
 22 23  1  0
 23 24  2  0
 24 25  1  0
 16 26  2  0
 26 27  1  0
 26 28  1  0
 28 29  1  0
 13 30  1  0
 30 31  2  0
  5 32  1  0
 32 33  2  0
 33  2  1  0
 31 10  1  0
 28 14  2  0
 24 19  1  0
  1 34  1  0
  1 35  1  0
  1 36  1  0
  3 37  1  0
  4 38  1  0
 11 39  1  0
 12 40  1  0
 20 41  1  0
 21 42  1  0
 22 43  1  0
 23 44  1  0
 25 45  1  0
 25 46  1  0
 25 47  1  0
 30 48  1  0
 31 49  1  0
 32 50  1  0
 33 51  1  0
M  CHG  3   9  -1  27  -1  29  -1
M  END
>  <UniqueID>  (9) 
8

>  <SMILES>  (9) 
Cc1ccc(S(=O)(=O)[N-]c2ccc(-c3sc(C(=O)c4ccccc4C)c([O-])c3[O-])cc2)cc1

>  <Energy>  (9) 
98.18043555585783

>  <Genealogy>  (9) 
Cc1ccc(S(=O)(=O)[N-]c2ccc(-c3sc(C(=O)c4ccccc4C)c([O-])c3[O-])cc2)cc1 (protonated)
Cc1ccc(S(=O)(=O)[N-]c2ccc(-c3sc(C(=O)c4ccccc4C)c([O-])c3[O-])cc2)cc1 (3D coordinates assigned)
Cc1ccc(S(=O)(=O)[N-]c2ccc(-c3sc(C(=O)c4ccccc4C)c([O-])c3[O-])cc2)cc1 (optimized conformer: 98.18043555585783 kcal/mol)

>  <smiles>  (9) 
Cc1ccc(S(=O)(=O)Nc2ccc(-c3sc(C(=O)c4ccccc4C)c(O)c3O)cc2)cc1

>  <score_type>  (9) 
oracle

>  <origin>  (9) 
adg

>  <m_score__min__energy>  (9) 
-18.059999999999999

>  <m_primary>  (9) 
energy

$$$$
9:0
     RDKit          3D

 48 50  0  0  0  0  0  0  0  0999 V2000
   61.9421   34.1375   50.9755 H   0  0  0  0  0  0  0  0  0  0  0  0
   61.7600   33.9560   49.9060 C   0  0  0  0  0  0  0  0  0  0  0  0
   60.4610   34.0270   49.4010 C   0  0  0  0  0  0  0  0  0  0  0  0
   59.6248   34.2671   50.0741 H   0  0  0  0  0  0  0  0  0  0  0  0
   60.2150   33.7930   48.0350 C   0  0  0  0  0  0  0  0  0  0  0  0
   58.8410   33.8820   47.4910 C   0  0  0  0  0  0  0  0  0  0  0  0
   57.9650   33.0520   47.8590 O   0  0  0  0  0  0  0  0  0  0  0  0
   58.5030   34.8950   46.5360 N   0  0  0  0  0  0  0  0  0  0  0  0
   59.0060   34.9050   45.1680 C   0  0  0  0  0  0  0  0  0  0  0  0
   58.6717   35.8219   44.6604 H   0  0  0  0  0  0  0  0  0  0  0  0
   60.1055   34.8745   45.1798 H   0  0  0  0  0  0  0  0  0  0  0  0
   58.4790   33.7080   44.4370 C   0  0  0  0  0  0  0  0  0  0  0  0
   58.8620   33.4870   43.2580 O   0  0  0  0  0  0  0  0  0  0  0  0
   57.6180   32.7790   45.1140 N   0  0  0  0  0  0  0  0  0  0  0  0
   57.0370   33.1650   45.8930 H   0  0  0  0  0  0  0  0  0  0  0  0
   57.8890   31.3680   45.1400 C   0  0  0  0  0  0  0  0  0  0  0  0
   56.9060   30.4730   44.6920 C   0  0  0  0  0  0  0  0  0  0  0  0
   55.9661   30.8610   44.2724 H   0  0  0  0  0  0  0  0  0  0  0  0
   57.1100   29.0940   44.7740 C   0  0  0  0  0  0  0  0  0  0  0  0
   56.3258   28.4021   44.4330 H   0  0  0  0  0  0  0  0  0  0  0  0
   58.3100   28.5900   45.2890 C   0  0  0  0  0  0  0  0  0  0  0  0
   58.5220   26.8500   45.4520 S   0  0  0  0  0  0  0  0  0  0  0  0
   59.8980   26.5250   45.9610 O   0  0  0  0  0  0  0  0  0  0  0  0
   58.3330   26.2070   44.1080 O   0  0  0  0  0  0  0  0  0  0  0  0
   57.3440   26.2240   46.5600 N   0  0  0  0  0  0  0  0  0  0  0  0
   56.1660   25.8410   46.1790 C   0  0  0  0  0  0  0  0  0  0  0  0
   55.1340   26.6370   46.0190 O   0  0  0  0  0  0  0  0  0  0  0  0
   54.0900   25.9570   45.6410 N   0  0  0  0  0  0  0  0  0  0  0  0
   54.4780   24.6680   45.5460 C   0  0  0  0  0  0  0  0  0  0  0  0
   53.5610   23.5420   45.2040 C   0  0  0  0  0  0  0  0  0  0  0  0
   53.1855   23.0809   46.1294 H   0  0  0  0  0  0  0  0  0  0  0  0
   52.7143   23.9246   44.6152 H   0  0  0  0  0  0  0  0  0  0  0  0
   54.1071   22.7903   44.6152 H   0  0  0  0  0  0  0  0  0  0  0  0
   55.8100   24.5450   45.8900 C   0  0  0  0  0  0  0  0  0  0  0  0
   56.4305   23.6374   45.9242 H   0  0  0  0  0  0  0  0  0  0  0  0
   59.3150   29.4780   45.6990 C   0  0  0  0  0  0  0  0  0  0  0  0
   60.2689   29.0868   46.0826 H   0  0  0  0  0  0  0  0  0  0  0  0
   59.1090   30.8580   45.6220 C   0  0  0  0  0  0  0  0  0  0  0  0
   59.9040   31.5488   45.9395 H   0  0  0  0  0  0  0  0  0  0  0  0
   61.2990   33.4990   47.1880 C   0  0  0  0  0  0  0  0  0  0  0  0
   61.1215   33.3292   46.1158 H   0  0  0  0  0  0  0  0  0  0  0  0
   62.6050   33.4200   47.6970 C   0  0  0  0  0  0  0  0  0  0  0  0
   63.7530   33.1490   46.7710 C   0  0  0  0  0  0  0  0  0  0  0  0
   64.6570   32.9356   47.3603 H   0  0  0  0  0  0  0  0  0  0  0  0
   63.5157   32.2822   46.1367 H   0  0  0  0  0  0  0  0  0  0  0  0
   63.9284   34.0304   46.1367 H   0  0  0  0  0  0  0  0  0  0  0  0
   62.8290   33.6560   49.0610 C   0  0  0  0  0  0  0  0  0  0  0  0
   63.8504   33.6045   49.4660 H   0  0  0  0  0  0  0  0  0  0  0  0
  1  2  1  0
  2  3  2  0
  3  4  1  0
  3  5  1  0
  5  6  1  0
  6  7  2  0
  6  8  1  0
  8  9  1  0
  9 10  1  0
  9 11  1  0
  9 12  1  0
 12 13  2  0
 12 14  1  0
 14 15  1  0
 14 16  1  0
 16 17  2  0
 17 18  1  0
 17 19  1  0
 19 20  1  0
 19 21  2  0
 21 22  1  0
 22 23  2  0
 22 24  2  0
 22 25  1  0
 25 26  2  0
 26 27  1  0
 27 28  1  0
 28 29  1  0
 29 30  1  0
 30 31  1  0
 30 32  1  0
 30 33  1  0
 29 34  2  0
 34 35  1  0
 21 36  1  0
 36 37  1  0
 36 38  2  0
 38 39  1  0
  5 40  2  0
 40 41  1  0
 40 42  1  0
 42 43  1  0
 43 44  1  0
 43 45  1  0
 43 46  1  0
 42 47  2  0
 47 48  1  0
 47  2  1  0
 38 16  1  0
 34 26  1  0
M  CHG  2   8  -1  28  -1
M  END
>  <UniqueID>  (10) 
9

>  <SMILES>  (10) 
Cc1cccc(C(=O)[N-]CC(=O)Nc2ccc(S(=O)(=O)/N=c3/cc(C)[n-]o3)cc2)c1

>  <Energy>  (10) 
82.41372805515122

>  <Genealogy>  (10) 
Cc1cccc(C(=O)[N-]CC(=O)Nc2ccc(S(=O)(=O)N=c3cc(C)[n-]o3)cc2)c1 (protonated)
Cc1cccc(C(=O)[N-]CC(=O)Nc2ccc(S(=O)(=O)/N=c3/cc(C)[n-]o3)cc2)c1 (cis-trans isomerization)
Cc1cccc(C(=O)[N-]CC(=O)Nc2ccc(S(=O)(=O)/N=c3/cc(C)[n-]o3)cc2)c1 (3D coordinates assigned)
Cc1cccc(C(=O)[N-]CC(=O)Nc2ccc(S(=O)(=O)/N=c3/cc(C)[n-]o3)cc2)c1 (optimized conformer: 82.41372805515122 kcal/mol)

>  <smiles>  (10) 
Cc1cccc(C(=O)NCC(=O)Nc2ccc(S(=O)(=O)N=c3cc(C)[nH]o3)cc2)c1

>  <score_type>  (10) 
oracle

>  <origin>  (10) 
adg

>  <m_score__min__energy>  (10) 
-13.26

>  <m_primary>  (10) 
energy

$$$$
10:0
     RDKit          3D

 55 57  0  0  0  0  0  0  0  0999 V2000
   57.2220   33.8630   45.6060 C   0  0  0  0  0  0  0  0  0  0  0  0
   58.6330   33.6030   45.3390 N   0  0  0  0  0  0  0  0  0  0  0  0
   59.1620   32.2300   46.2610 S   0  0  0  0  0  0  0  0  0  0  0  0
   58.5260   32.2570   47.6230 O   0  0  0  0  0  0  0  0  0  0  0  0
   60.6540   32.2990   46.4330 O   0  0  0  0  0  0  0  0  0  0  0  0
   58.7500   30.7330   45.4270 C   0  0  0  0  0  0  0  0  0  0  0  0
   59.7040   29.7130   45.3120 C   0  0  0  0  0  0  0  0  0  0  0  0
   59.3900   28.5260   44.6430 C   0  0  0  0  0  0  0  0  0  0  0  0
   58.1150   28.3480   44.0800 C   0  0  0  0  0  0  0  0  0  0  0  0
   57.7610   27.0660   43.3750 C   0  0  0  0  0  0  0  0  0  0  0  0
   58.0310   25.9130   44.2340 N   0  0  0  0  0  0  0  0  0  0  0  0
   56.9050   25.8430   45.5590 S   0  0  0  0  0  0  0  0  0  0  0  0
   56.0800   27.0970   45.6180 O   0  0  0  0  0  0  0  0  0  0  0  0
   55.9940   24.6590   45.3910 O   0  0  0  0  0  0  0  0  0  0  0  0
   57.7800   25.6560   47.0430 N   0  0  0  0  0  0  0  0  0  0  0  0
   58.6220   26.6540   47.6360 C   0  0  0  0  0  0  0  0  0  0  0  0
   59.9120   26.3580   48.1100 C   0  0  0  0  0  0  0  0  0  0  0  0
   60.6970   27.3600   48.6900 C   0  0  0  0  0  0  0  0  0  0  0  0
   60.2050   28.6720   48.8140 C   0  0  0  0  0  0  0  0  0  0  0  0
   61.0420   29.7260   49.4380 C   0  0  0  0  0  0  0  0  0  0  0  0
   61.6480   29.4820   50.5170 O   0  0  0  0  0  0  0  0  0  0  0  0
   61.1350   31.0360   48.8530 N   0  0  0  0  0  0  0  0  0  0  0  0
   62.1290   31.9980   49.2400 C   0  0  0  0  0  0  0  0  0  0  0  0
   63.4670   31.5890   49.3410 C   0  0  0  0  0  0  0  0  0  0  0  0
   64.4590   32.4960   49.7200 C   0  0  0  0  0  0  0  0  0  0  0  0
   64.1210   33.8150   50.0200 C   0  0  0  0  0  0  0  0  0  0  0  0
   62.7900   34.2310   49.9530 C   0  0  0  0  0  0  0  0  0  0  0  0
   61.7760   33.3240   49.5780 C   0  0  0  0  0  0  0  0  0  0  0  0
   60.4230   33.6980   49.5540 O   0  0  0  0  0  0  0  0  0  0  0  0
   59.8360   34.5540   48.5790 C   0  0  0  0  0  0  0  0  0  0  0  0
   58.9210   28.9640   48.3240 C   0  0  0  0  0  0  0  0  0  0  0  0
   58.1390   27.9620   47.7430 C   0  0  0  0  0  0  0  0  0  0  0  0
   57.1660   29.3770   44.1870 C   0  0  0  0  0  0  0  0  0  0  0  0
   57.4820   30.5620   44.8560 C   0  0  0  0  0  0  0  0  0  0  0  0
   57.0541   33.8939   46.6927 H   0  0  0  0  0  0  0  0  0  0  0  0
   56.9369   34.8288   45.1633 H   0  0  0  0  0  0  0  0  0  0  0  0
   56.6114   33.0622   45.1633 H   0  0  0  0  0  0  0  0  0  0  0  0
   60.7042   29.8467   45.7499 H   0  0  0  0  0  0  0  0  0  0  0  0
   60.1434   27.7291   44.5572 H   0  0  0  0  0  0  0  0  0  0  0  0
   56.6924   27.0801   43.1146 H   0  0  0  0  0  0  0  0  0  0  0  0
   58.3739   26.9812   42.4655 H   0  0  0  0  0  0  0  0  0  0  0  0
   60.3056   25.3344   48.0244 H   0  0  0  0  0  0  0  0  0  0  0  0
   61.7076   27.1200   49.0522 H   0  0  0  0  0  0  0  0  0  0  0  0
   60.3350   31.3720   48.2710 H   0  0  0  0  0  0  0  0  0  0  0  0
   63.7370   30.5458   49.1200 H   0  0  0  0  0  0  0  0  0  0  0  0
   65.5076   32.1696   49.7819 H   0  0  0  0  0  0  0  0  0  0  0  0
   64.9051   34.5298   50.3102 H   0  0  0  0  0  0  0  0  0  0  0  0
   62.5301   35.2723   50.1940 H   0  0  0  0  0  0  0  0  0  0  0  0
   59.2833   35.3600   49.0838 H   0  0  0  0  0  0  0  0  0  0  0  0
   60.6264   34.9896   47.9500 H   0  0  0  0  0  0  0  0  0  0  0  0
   59.1449   33.9737   47.9500 H   0  0  0  0  0  0  0  0  0  0  0  0
   58.5284   29.9889   48.3982 H   0  0  0  0  0  0  0  0  0  0  0  0
   57.1343   28.2044   47.3664 H   0  0  0  0  0  0  0  0  0  0  0  0
   56.1683   29.2495   43.7417 H   0  0  0  0  0  0  0  0  0  0  0  0
   56.7328   31.3635   44.9347 H   0  0  0  0  0  0  0  0  0  0  0  0
  1  2  1  0
  2  3  1  0
  3  4  2  0
  3  5  2  0
  3  6  1  0
  6  7  2  0
  7  8  1  0
  8  9  2  0
  9 10  1  0
 10 11  1  0
 11 12  1  0
 12 13  2  0
 12 14  2  0
 12 15  1  0
 15 16  1  0
 16 17  2  0
 17 18  1  0
 18 19  2  0
 19 20  1  0
 20 21  2  0
 20 22  1  0
 22 23  1  0
 23 24  2  0
 24 25  1  0
 25 26  2  0
 26 27  1  0
 27 28  2  0
 28 29  1  0
 29 30  1  0
 19 31  1  0
 31 32  2  0
  9 33  1  0
 33 34  2  0
 34  6  1  0
 32 16  1  0
 28 23  1  0
  1 35  1  0
  1 36  1  0
  1 37  1  0
  7 38  1  0
  8 39  1  0
 10 40  1  0
 10 41  1  0
 17 42  1  0
 18 43  1  0
 22 44  1  0
 24 45  1  0
 25 46  1  0
 26 47  1  0
 27 48  1  0
 30 49  1  0
 30 50  1  0
 30 51  1  0
 31 52  1  0
 32 53  1  0
 33 54  1  0
 34 55  1  0
M  CHG  3   2  -1  11  -1  15  -1
M  END
>  <UniqueID>  (11) 
10

>  <SMILES>  (11) 
C[N-]S(=O)(=O)c1ccc(C[N-]S(=O)(=O)[N-]c2ccc(C(=O)Nc3ccccc3OC)cc2)cc1

>  <Energy>  (11) 
62.3060231907896

>  <Genealogy>  (11) 
C[N-]S(=O)(=O)c1ccc(C[N-]S(=O)(=O)[N-]c2ccc(C(=O)Nc3ccccc3OC)cc2)cc1 (protonated)
C[N-]S(=O)(=O)c1ccc(C[N-]S(=O)(=O)[N-]c2ccc(C(=O)Nc3ccccc3OC)cc2)cc1 (3D coordinates assigned)
C[N-]S(=O)(=O)c1ccc(C[N-]S(=O)(=O)[N-]c2ccc(C(=O)Nc3ccccc3OC)cc2)cc1 (optimized conformer: 62.3060231907896 kcal/mol)

>  <smiles>  (11) 
CNS(=O)(=O)c1ccc(CNS(=O)(=O)Nc2ccc(C(=O)Nc3ccccc3OC)cc2)cc1

>  <score_type>  (11) 
oracle

>  <origin>  (11) 
adg

>  <m_score__min__energy>  (11) 
-13.01

>  <m_primary>  (11) 
energy

$$$$
11:0
     RDKit          3D

 41 45  0  0  0  0  0  0  0  0999 V2000
   55.8860   30.6750   45.2200 H   0  0  0  0  0  0  0  0  0  0  0  0
   56.0570   31.5860   44.8110 O   0  0  0  0  0  0  0  0  0  0  0  0
   57.0860   32.4080   45.2640 C   0  0  0  0  0  0  0  0  0  0  0  0
   57.1470   33.7530   44.8800 C   0  0  0  0  0  0  0  0  0  0  0  0
   56.3680   34.1736   44.2270 H   0  0  0  0  0  0  0  0  0  0  0  0
   58.1960   34.5620   45.3250 C   0  0  0  0  0  0  0  0  0  0  0  0
   58.2464   35.6163   45.0153 H   0  0  0  0  0  0  0  0  0  0  0  0
   59.1820   34.0320   46.1640 C   0  0  0  0  0  0  0  0  0  0  0  0
   60.0132   34.6687   46.5011 H   0  0  0  0  0  0  0  0  0  0  0  0
   59.1170   32.6960   46.5770 C   0  0  0  0  0  0  0  0  0  0  0  0
   60.1230   32.2030   47.4210 O   0  0  0  0  0  0  0  0  0  0  0  0
   60.2270   30.8710   47.8410 C   0  0  0  0  0  0  0  0  0  0  0  0
   60.9480   30.5780   48.9600 N   0  0  0  0  0  0  0  0  0  0  0  0
   61.0690   29.3010   49.4210 C   0  0  0  0  0  0  0  0  0  0  0  0
   61.7870   29.1260   50.5060 N   0  0  0  0  0  0  0  0  0  0  0  0
   61.8400   28.3450   51.7580 C   0  0  0  0  0  0  0  0  0  0  0  0
   62.4609   29.0976   52.2660 H   0  0  0  0  0  0  0  0  0  0  0  0
   60.6130   27.5500   52.1430 C   0  0  0  0  0  0  0  0  0  0  0  0
   60.3168   27.4695   53.1993 H   0  0  0  0  0  0  0  0  0  0  0  0
   59.5531   27.5573   51.8488 H   0  0  0  0  0  0  0  0  0  0  0  0
   61.8820   26.8390   51.6410 C   0  0  0  0  0  0  0  0  0  0  0  0
   62.4955   26.2485   52.3374 H   0  0  0  0  0  0  0  0  0  0  0  0
   62.1106   26.1240   50.8369 H   0  0  0  0  0  0  0  0  0  0  0  0
   60.4260   28.3160   48.7150 N   0  0  0  0  0  0  0  0  0  0  0  0
   60.4220   27.0050   48.8850 N   0  0  0  0  0  0  0  0  0  0  0  0
   59.6720   26.4580   47.9000 C   0  0  0  0  0  0  0  0  0  0  0  0
   59.4841   25.3818   47.7715 H   0  0  0  0  0  0  0  0  0  0  0  0
   59.1760   27.4580   47.0770 C   0  0  0  0  0  0  0  0  0  0  0  0
   58.4230   27.2800   45.9820 C   0  0  0  0  0  0  0  0  0  0  0  0
   58.8143   27.6516   45.0235 H   0  0  0  0  0  0  0  0  0  0  0  0
   57.1070   26.6200   45.9780 C   0  0  0  0  0  0  0  0  0  0  0  0
   56.9030   25.3690   46.4270 N   0  0  0  0  0  0  0  0  0  0  0  0
   55.5640   25.2160   46.3310 C   0  0  0  0  0  0  0  0  0  0  0  0
   54.9800   24.1490   46.6530 O   0  0  0  0  0  0  0  0  0  0  0  0
   54.9000   26.2990   45.8740 N   0  0  0  0  0  0  0  0  0  0  0  0
   55.8890   27.1840   45.6680 C   0  0  0  0  0  0  0  0  0  0  0  0
   55.6760   28.4920   45.2480 O   0  0  0  0  0  0  0  0  0  0  0  0
   59.6920   28.6130   47.6310 C   0  0  0  0  0  0  0  0  0  0  0  0
   59.5900   29.8780   47.1670 N   0  0  0  0  0  0  0  0  0  0  0  0
   58.0690   31.8810   46.1100 C   0  0  0  0  0  0  0  0  0  0  0  0
   58.0220   30.8241   46.4114 H   0  0  0  0  0  0  0  0  0  0  0  0
  1  2  1  0
  2  3  1  0
  3  4  2  0
  4  5  1  0
  4  6  1  0
  6  7  1  0
  6  8  2  0
  8  9  1  0
  8 10  1  0
 10 11  1  0
 11 12  1  0
 12 13  2  0
 13 14  1  0
 14 15  2  0
 15 16  1  0
 16 17  1  0
 16 18  1  0
 18 19  1  0
 18 20  1  0
 18 21  1  0
 21 22  1  0
 21 23  1  0
 14 24  1  0
 24 25  1  0
 25 26  2  0
 26 27  1  0
 26 28  1  0
 28 29  2  3
 29 30  1  0
 29 31  1  0
 31 32  1  0
 32 33  1  0
 33 34  2  0
 33 35  1  0
 35 36  1  0
 36 37  1  0
 28 38  1  0
 38 39  2  0
 10 40  2  0
 40 41  1  0
 40  3  1  0
 39 12  1  0
 21 16  1  0
 38 24  1  0
 36 31  2  0
M  CHG  3  32  -1  35  -1  37  -1
M  END
>  <UniqueID>  (12) 
11

>  <SMILES>  (12) 
O=c1[n-]c([O-])c(C=c2cnn3/c(=N\C4CC4)nc(Oc4cccc(O)c4)nc23)[n-]1

>  <Energy>  (12) 
414.26988392657313

>  <Genealogy>  (12) 
O=c1[n-]c([O-])c(C=c2cnn3c(=NC4CC4)nc(Oc4cccc(O)c4)nc23)[n-]1 (protonated)
O=c1[n-]c([O-])c(C=c2cnn3/c(=N\C4CC4)nc(Oc4cccc(O)c4)nc23)[n-]1 (cis-trans isomerization)
O=c1[n-]c([O-])c(C=c2cnn3/c(=N\C4CC4)nc(Oc4cccc(O)c4)nc23)[n-]1 (3D coordinates assigned)
O=c1[n-]c([O-])c(C=c2cnn3/c(=N\C4CC4)nc(Oc4cccc(O)c4)nc23)[n-]1 (nonaromatic ring conformer: 414.26988392657313 kcal/mol)

>  <smiles>  (12) 
O=c1[nH]c(O)c(C=c2cnn3c(=NC4CC4)nc(Oc4cccc(O)c4)nc23)[nH]1

>  <score_type>  (12) 
oracle

>  <origin>  (12) 
adg

>  <m_score__min__energy>  (12) 
-15.960000000000001

>  <m_primary>  (12) 
energy

$$$$
12:0
     RDKit          3D

 66 69  0  0  0  0  0  0  0  0999 V2000
   63.7610   33.8880   46.9860 C   0  0  0  0  0  0  0  0  0  0  0  0
   62.7970   32.9170   47.6150 C   0  0  0  0  0  0  0  0  0  0  0  0
   62.1440   32.0720   46.7820 N   0  0  0  0  0  0  0  0  0  0  0  0
   61.3160   31.0990   47.2210 C   0  0  0  0  0  0  0  0  0  0  0  0
   60.7230   30.3800   46.3740 O   0  0  0  0  0  0  0  0  0  0  0  0
   61.1330   30.8900   48.5990 C   0  0  0  0  0  0  0  0  0  0  0  0
   60.2060   29.7830   49.0600 C   0  0  0  0  0  0  0  0  0  0  0  0
   58.8440   30.2960   49.1310 N   0  0  0  0  0  0  0  0  0  0  0  0
   58.5000   31.4920   49.8360 C   0  0  0  0  0  0  0  0  0  0  0  0
   58.3160   31.4600   51.0830 O   0  0  0  0  0  0  0  0  0  0  0  0
   58.2510   32.7080   49.1250 N   0  0  0  0  0  0  0  0  0  0  0  0
   58.4480   32.9130   47.7200 C   0  0  0  0  0  0  0  0  0  0  0  0
   59.2410   33.9630   47.2260 C   0  0  0  0  0  0  0  0  0  0  0  0
   59.3750   34.1560   45.8470 C   0  0  0  0  0  0  0  0  0  0  0  0
   58.7340   33.2960   44.9530 C   0  0  0  0  0  0  0  0  0  0  0  0
   57.9540   32.2370   45.4360 C   0  0  0  0  0  0  0  0  0  0  0  0
   57.3290   31.2870   44.4950 C   0  0  0  0  0  0  0  0  0  0  0  0
   57.8310   31.1380   43.3490 O   0  0  0  0  0  0  0  0  0  0  0  0
   56.1810   30.5020   44.8570 N   0  0  0  0  0  0  0  0  0  0  0  0
   55.9930   29.0860   44.5470 C   0  0  0  0  0  0  0  0  0  0  0  0
   56.9540   28.2430   45.3450 C   0  0  0  0  0  0  0  0  0  0  0  0
   58.3180   28.5820   45.4030 C   0  0  0  0  0  0  0  0  0  0  0  0
   59.2150   27.7820   46.1180 C   0  0  0  0  0  0  0  0  0  0  0  0
   58.7580   26.6410   46.7850 C   0  0  0  0  0  0  0  0  0  0  0  0
   57.4040   26.2950   46.7350 C   0  0  0  0  0  0  0  0  0  0  0  0
   56.5010   27.0890   46.0180 C   0  0  0  0  0  0  0  0  0  0  0  0
   55.1570   26.7290   45.9820 O   0  0  0  0  0  0  0  0  0  0  0  0
   57.7840   32.0750   46.8190 C   0  0  0  0  0  0  0  0  0  0  0  0
   61.7740   31.7630   49.5170 C   0  0  0  0  0  0  0  0  0  0  0  0
   61.6160   31.5000   51.0020 C   0  0  0  0  0  0  0  0  0  0  0  0
   62.6140   32.8070   49.0210 C   0  0  0  0  0  0  0  0  0  0  0  0
   63.3080   33.7960   49.9600 C   0  0  0  0  0  0  0  0  0  0  0  0
   64.1630   33.1750   51.0140 N   0  0  0  0  0  0  0  0  0  0  0  0
   65.0220   32.0310   50.6460 C   0  0  0  0  0  0  0  0  0  0  0  0
   66.4190   32.4840   50.1600 C   0  0  0  0  0  0  0  0  0  0  0  0
   66.7000   33.8390   50.4620 O   0  0  0  0  0  0  0  0  0  0  0  0
   66.3460   34.1200   51.7970 C   0  0  0  0  0  0  0  0  0  0  0  0
   64.8150   34.1090   51.9590 C   0  0  0  0  0  0  0  0  0  0  0  0
   64.3009   34.4318   47.7751 H   0  0  0  0  0  0  0  0  0  0  0  0
   64.4805   33.3379   46.3617 H   0  0  0  0  0  0  0  0  0  0  0  0
   63.2057   34.6035   46.3617 H   0  0  0  0  0  0  0  0  0  0  0  0
   60.2475   28.9474   48.3459 H   0  0  0  0  0  0  0  0  0  0  0  0
   60.5193   29.4287   50.0531 H   0  0  0  0  0  0  0  0  0  0  0  0
   59.7581   34.6354   47.9263 H   0  0  0  0  0  0  0  0  0  0  0  0
   59.9867   34.9871   45.4661 H   0  0  0  0  0  0  0  0  0  0  0  0
   58.8414   33.4500   43.8691 H   0  0  0  0  0  0  0  0  0  0  0  0
   54.9619   28.7941   44.7953 H   0  0  0  0  0  0  0  0  0  0  0  0
   56.1825   28.9265   43.4752 H   0  0  0  0  0  0  0  0  0  0  0  0
   58.6810   29.4810   44.8833 H   0  0  0  0  0  0  0  0  0  0  0  0
   60.2811   28.0505   46.1558 H   0  0  0  0  0  0  0  0  0  0  0  0
   59.4645   26.0149   47.3497 H   0  0  0  0  0  0  0  0  0  0  0  0
   57.0475   25.3967   47.2604 H   0  0  0  0  0  0  0  0  0  0  0  0
   57.1226   31.2819   47.1979 H   0  0  0  0  0  0  0  0  0  0  0  0
   62.1008   32.3070   51.5709 H   0  0  0  0  0  0  0  0  0  0  0  0
   60.5464   31.4636   51.2562 H   0  0  0  0  0  0  0  0  0  0  0  0
   62.0862   30.5386   51.2562 H   0  0  0  0  0  0  0  0  0  0  0  0
   63.9433   34.4558   49.3508 H   0  0  0  0  0  0  0  0  0  0  0  0
   62.5055   34.3287   50.4912 H   0  0  0  0  0  0  0  0  0  0  0  0
   65.1457   31.3829   51.5262 H   0  0  0  0  0  0  0  0  0  0  0  0
   64.5341   31.4935   49.8196 H   0  0  0  0  0  0  0  0  0  0  0  0
   67.1794   31.8527   50.6430 H   0  0  0  0  0  0  0  0  0  0  0  0
   66.4342   32.3821   49.0648 H   0  0  0  0  0  0  0  0  0  0  0  0
   66.7859   33.3578   52.4569 H   0  0  0  0  0  0  0  0  0  0  0  0
   66.7264   35.1167   52.0652 H   0  0  0  0  0  0  0  0  0  0  0  0
   64.5690   33.8033   52.9867 H   0  0  0  0  0  0  0  0  0  0  0  0
   64.4439   35.1222   51.7450 H   0  0  0  0  0  0  0  0  0  0  0  0
  1  2  1  0
  2  3  1  0
  3  4  1  0
  4  5  2  0
  4  6  1  0
  6  7  1  0
  7  8  1  0
  8  9  1  0
  9 10  2  0
  9 11  1  0
 11 12  1  0
 12 13  2  0
 13 14  1  0
 14 15  2  0
 15 16  1  0
 16 17  1  0
 17 18  2  0
 17 19  1  0
 19 20  1  0
 20 21  1  0
 21 22  2  0
 22 23  1  0
 23 24  2  0
 24 25  1  0
 25 26  2  0
 26 27  1  0
 16 28  2  0
  6 29  2  0
 29 30  1  0
 29 31  1  0
 31 32  1  0
 32 33  1  0
 33 34  1  0
 34 35  1  0
 35 36  1  0
 36 37  1  0
 37 38  1  0
 31  2  2  0
 38 33  1  0
 28 12  1  0
 26 21  1  0
  1 39  1  0
  1 40  1  0
  1 41  1  0
  7 42  1  0
  7 43  1  0
 13 44  1  0
 14 45  1  0
 15 46  1  0
 20 47  1  0
 20 48  1  0
 22 49  1  0
 23 50  1  0
 24 51  1  0
 25 52  1  0
 28 53  1  0
 30 54  1  0
 30 55  1  0
 30 56  1  0
 32 57  1  0
 32 58  1  0
 34 59  1  0
 34 60  1  0
 35 61  1  0
 35 62  1  0
 37 63  1  0
 37 64  1  0
 38 65  1  0
 38 66  1  0
M  CHG  5   3  -1   8  -1  11  -1  19  -1  27  -1
M  END
>  <UniqueID>  (13) 
12

>  <SMILES>  (13) 
Cc1[n-]c(=O)c(C[N-]C(=O)[N-]c2cccc(C(=O)[N-]Cc3ccccc3[O-])c2)c(C)c1CN1CCOCC1

>  <Energy>  (13) 
99.03081249771601

>  <Genealogy>  (13) 
Cc1[n-]c(=O)c(C[N-]C(=O)[N-]c2cccc(C(=O)[N-]Cc3ccccc3[O-])c2)c(C)c1CN1CCOCC1 (protonated)
Cc1[n-]c(=O)c(C[N-]C(=O)[N-]c2cccc(C(=O)[N-]Cc3ccccc3[O-])c2)c(C)c1CN1CCOCC1 (3D coordinates assigned)
Cc1[n-]c(=O)c(C[N-]C(=O)[N-]c2cccc(C(=O)[N-]Cc3ccccc3[O-])c2)c(C)c1CN1CCOCC1 (nonaromatic ring conformer: 99.03081249771601 kcal/mol)

>  <smiles>  (13) 
Cc1[nH]c(=O)c(CNC(=O)Nc2cccc(C(=O)NCc3ccccc3O)c2)c(C)c1CN1CCOCC1

>  <score_type>  (13) 
oracle

>  <origin>  (13) 
adg

>  <m_score__min__energy>  (13) 
-18.77

>  <m_primary>  (13) 
energy

$$$$
13:0
     RDKit          3D

 42 43  0  0  0  0  0  0  0  0999 V2000
   58.9670   34.5460   45.9890 C   0  0  0  0  0  0  0  0  0  0  0  0
   57.8530   33.5020   45.9730 C   0  0  0  0  0  0  0  0  0  0  0  0
   57.3960   33.1390   44.5540 C   0  0  0  0  0  0  0  0  0  0  0  0
   57.3720   31.3710   44.2590 S   0  0  0  0  0  0  0  0  0  0  0  0
   57.4190   31.1100   42.7800 O   0  0  0  0  0  0  0  0  0  0  0  0
   56.1020   30.7830   44.8090 O   0  0  0  0  0  0  0  0  0  0  0  0
   58.7390   30.6020   45.0020 N   0  0  0  0  0  0  0  0  0  0  0  0
   58.7920   29.2420   45.4540 C   0  0  0  0  0  0  0  0  0  0  0  0
   59.9690   28.6680   45.9640 C   0  0  0  0  0  0  0  0  0  0  0  0
   59.9720   27.3430   46.4090 C   0  0  0  0  0  0  0  0  0  0  0  0
   58.8050   26.5790   46.3360 C   0  0  0  0  0  0  0  0  0  0  0  0
   57.6250   27.1270   45.8080 C   0  0  0  0  0  0  0  0  0  0  0  0
   56.4120   26.2840   45.6820 C   0  0  0  0  0  0  0  0  0  0  0  0
   56.3630   24.9460   45.3070 C   0  0  0  0  0  0  0  0  0  0  0  0
   55.0280   24.6260   45.4070 C   0  0  0  0  0  0  0  0  0  0  0  0
   54.5460   23.4350   45.1870 N   0  0  0  0  0  0  0  0  0  0  0  0
   55.1470   22.1690   45.5020 C   0  0  0  0  0  0  0  0  0  0  0  0
   54.6040   21.3670   46.3070 O   0  0  0  0  0  0  0  0  0  0  0  0
   56.3920   21.7530   44.7830 C   0  0  0  0  0  0  0  0  0  0  0  0
   56.1060   21.4750   43.4250 O   0  0  0  0  0  0  0  0  0  0  0  0
   56.3230   22.6240   42.6360 C   0  0  0  0  0  0  0  0  0  0  0  0
   54.3280   25.7050   45.8170 N   0  0  0  0  0  0  0  0  0  0  0  0
   55.1690   26.7150   45.9870 N   0  0  0  0  0  0  0  0  0  0  0  0
   57.6280   28.4690   45.3810 C   0  0  0  0  0  0  0  0  0  0  0  0
   59.2266   34.7893   47.0299 H   0  0  0  0  0  0  0  0  0  0  0  0
   59.8527   34.1451   45.4743 H   0  0  0  0  0  0  0  0  0  0  0  0
   58.6243   35.4558   45.4743 H   0  0  0  0  0  0  0  0  0  0  0  0
   58.2190   32.5904   46.4679 H   0  0  0  0  0  0  0  0  0  0  0  0
   56.9882   33.9336   46.4983 H   0  0  0  0  0  0  0  0  0  0  0  0
   56.3810   33.5342   44.4004 H   0  0  0  0  0  0  0  0  0  0  0  0
   58.1182   33.5808   43.8517 H   0  0  0  0  0  0  0  0  0  0  0  0
   60.8921   29.2642   46.0132 H   0  0  0  0  0  0  0  0  0  0  0  0
   60.8935   26.9019   46.8167 H   0  0  0  0  0  0  0  0  0  0  0  0
   58.8104   25.5393   46.6952 H   0  0  0  0  0  0  0  0  0  0  0  0
   57.1960   24.2956   45.0019 H   0  0  0  0  0  0  0  0  0  0  0  0
   57.1318   22.5651   44.8390 H   0  0  0  0  0  0  0  0  0  0  0  0
   56.7923   20.8448   45.2573 H   0  0  0  0  0  0  0  0  0  0  0  0
   56.4871   23.4927   43.2906 H   0  0  0  0  0  0  0  0  0  0  0  0
   57.2081   22.4710   42.0011 H   0  0  0  0  0  0  0  0  0  0  0  0
   55.4430   22.8043   42.0011 H   0  0  0  0  0  0  0  0  0  0  0  0
   53.3090   25.7770   46.0170 H   0  0  0  0  0  0  0  0  0  0  0  0
   56.7037   28.9151   44.9851 H   0  0  0  0  0  0  0  0  0  0  0  0
  1  2  1  0
  2  3  1  0
  3  4  1  0
  4  5  2  0
  4  6  2  0
  4  7  1  0
  7  8  1  0
  8  9  2  0
  9 10  1  0
 10 11  2  0
 11 12  1  0
 12 13  1  0
 13 14  2  0
 14 15  1  0
 15 16  2  3
 16 17  1  0
 17 18  2  0
 17 19  1  0
 19 20  1  0
 20 21  1  0
 15 22  1  0
 22 23  1  0
 12 24  2  0
 24  8  1  0
 23 13  1  0
  1 25  1  0
  1 26  1  0
  1 27  1  0
  2 28  1  0
  2 29  1  0
  3 30  1  0
  3 31  1  0
  9 32  1  0
 10 33  1  0
 11 34  1  0
 14 35  1  0
 19 36  1  0
 19 37  1  0
 21 38  1  0
 21 39  1  0
 21 40  1  0
 22 41  1  0
 24 42  1  0
M  CHG  2   7  -1  23  -1
M  END
>  <UniqueID>  (14) 
13

>  <SMILES>  (14) 
CCCS(=O)(=O)[N-]c1cccc(-c2cc(=NC(=O)COC)[nH][n-]2)c1

>  <Energy>  (14) 
74.5327479572905

>  <Genealogy>  (14) 
CCCS(=O)(=O)[N-]c1cccc(-c2cc(=NC(=O)COC)[nH][n-]2)c1 (protonated)
CCCS(=O)(=O)[N-]c1cccc(-c2cc(=NC(=O)COC)[nH][n-]2)c1 (3D coordinates assigned)
CCCS(=O)(=O)[N-]c1cccc(-c2cc(=NC(=O)COC)[nH][n-]2)c1 (optimized conformer: 74.5327479572905 kcal/mol)

>  <smiles>  (14) 
CCCS(=O)(=O)Nc1cccc(-c2cc(=NC(=O)COC)[nH][nH]2)c1

>  <score_type>  (14) 
oracle

>  <origin>  (14) 
adg

>  <m_score__min__energy>  (14) 
-11.300000000000001

>  <m_primary>  (14) 
energy

$$$$
14:0
     RDKit          3D

 46 49  0  0  0  0  0  0  0  0999 V2000
   54.7690   27.4780   46.3710 H   0  0  0  0  0  0  0  0  0  0  0  0
   55.1750   26.7520   45.7940 O   0  0  0  0  0  0  0  0  0  0  0  0
   56.0600   25.8270   46.3400 C   0  0  0  0  0  0  0  0  0  0  0  0
   55.6910   24.8240   47.1530 N   0  0  0  0  0  0  0  0  0  0  0  0
   56.8620   24.1930   47.3930 C   0  0  0  0  0  0  0  0  0  0  0  0
   56.9440   23.1720   48.1240 O   0  0  0  0  0  0  0  0  0  0  0  0
   57.9340   24.7360   46.7770 N   0  0  0  0  0  0  0  0  0  0  0  0
   57.4160   25.7960   46.1290 C   0  0  0  0  0  0  0  0  0  0  0  0
   58.1620   26.6540   45.1930 C   0  0  0  0  0  0  0  0  0  0  0  0
   58.9749   26.1847   44.6194 H   0  0  0  0  0  0  0  0  0  0  0  0
   57.9340   27.9650   44.9790 C   0  0  0  0  0  0  0  0  0  0  0  0
   57.3870   28.4480   43.8020 C   0  0  0  0  0  0  0  0  0  0  0  0
   57.0231   27.8492   42.9541 H   0  0  0  0  0  0  0  0  0  0  0  0
   57.3860   29.8240   43.8970 C   0  0  0  0  0  0  0  0  0  0  0  0
   56.8930   30.7490   42.8250 C   0  0  0  0  0  0  0  0  0  0  0  0
   56.4237   31.6296   43.2879 H   0  0  0  0  0  0  0  0  0  0  0  0
   57.7394   31.0705   42.2003 H   0  0  0  0  0  0  0  0  0  0  0  0
   56.1542   30.2256   42.2003 H   0  0  0  0  0  0  0  0  0  0  0  0
   57.8630   30.2140   45.1000 N   0  0  0  0  0  0  0  0  0  0  0  0
   57.9700   31.5720   45.5610 C   0  0  0  0  0  0  0  0  0  0  0  0
   56.9680   32.5010   45.2510 C   0  0  0  0  0  0  0  0  0  0  0  0
   56.1005   32.1914   44.6497 H   0  0  0  0  0  0  0  0  0  0  0  0
   57.0670   33.8190   45.7030 C   0  0  0  0  0  0  0  0  0  0  0  0
   56.2801   34.5455   45.4521 H   0  0  0  0  0  0  0  0  0  0  0  0
   58.1630   34.2170   46.4730 C   0  0  0  0  0  0  0  0  0  0  0  0
   58.2380   35.2575   46.8217 H   0  0  0  0  0  0  0  0  0  0  0  0
   59.1700   33.2940   46.8040 C   0  0  0  0  0  0  0  0  0  0  0  0
   60.3420   33.7090   47.6110 C   0  0  0  0  0  0  0  0  0  0  0  0
   61.0890   34.6290   47.1840 O   0  0  0  0  0  0  0  0  0  0  0  0
   60.6260   33.1370   48.8980 N   0  0  0  0  0  0  0  0  0  0  0  0
   59.7460   32.7140   49.7580 C   0  0  0  0  0  0  0  0  0  0  0  0
   59.4550   33.4300   50.8820 N   0  0  0  0  0  0  0  0  0  0  0  0
   58.5270   33.0110   51.7840 C   0  0  0  0  0  0  0  0  0  0  0  0
   58.3234   33.6115   52.6829 H   0  0  0  0  0  0  0  0  0  0  0  0
   57.8330   31.8190   51.5690 C   0  0  0  0  0  0  0  0  0  0  0  0
   57.0830   31.4730   52.2955 H   0  0  0  0  0  0  0  0  0  0  0  0
   58.1020   31.0710   50.4210 C   0  0  0  0  0  0  0  0  0  0  0  0
   57.5615   30.1309   50.2366 H   0  0  0  0  0  0  0  0  0  0  0  0
   59.0590   31.5190   49.5070 C   0  0  0  0  0  0  0  0  0  0  0  0
   59.2714   30.9380   48.5974 H   0  0  0  0  0  0  0  0  0  0  0  0
   59.0730   31.9750   46.3310 C   0  0  0  0  0  0  0  0  0  0  0  0
   59.8678   31.2516   46.5657 H   0  0  0  0  0  0  0  0  0  0  0  0
   58.1750   29.0860   45.7900 C   0  0  0  0  0  0  0  0  0  0  0  0
   58.4890   29.0880   47.0950 C   0  0  0  0  0  0  0  0  0  0  0  0
   58.6542   30.0407   47.6195 H   0  0  0  0  0  0  0  0  0  0  0  0
   58.5811   28.1369   47.6400 H   0  0  0  0  0  0  0  0  0  0  0  0
  1  2  1  0
  2  3  1  0
  3  4  1  0
  4  5  1  0
  5  6  2  0
  5  7  1  0
  7  8  1  0
  8  9  1  0
  9 10  1  0
  9 11  2  3
 11 12  1  0
 12 13  1  0
 12 14  2  0
 14 15  1  0
 15 16  1  0
 15 17  1  0
 15 18  1  0
 14 19  1  0
 19 20  1  0
 20 21  2  0
 21 22  1  0
 21 23  1  0
 23 24  1  0
 23 25  2  0
 25 26  1  0
 25 27  1  0
 27 28  1  0
 28 29  2  0
 28 30  1  0
 30 31  2  0
 31 32  1  0
 32 33  1  0
 33 34  1  0
 33 35  2  0
 35 36  1  0
 35 37  1  0
 37 38  1  0
 37 39  2  0
 39 40  1  0
 27 41  2  0
 41 42  1  0
 19 43  1  0
 43 44  2  0
 44 45  1  0
 44 46  1  0
  8  3  2  0
 43 11  1  0
 41 20  1  0
 39 31  1  0
M  CHG  3   4  -1   7  -1  32  -1
M  END
>  <UniqueID>  (15) 
14

>  <SMILES>  (15) 
C=c1c(=Cc2[n-]c(=O)[n-]c2O)cc(C)n1-c1cccc(C(=O)/N=c2/cccc[n-]2)c1

>  <Energy>  (15) 
132.67922331112229

>  <Genealogy>  (15) 
C=c1c(=Cc2[n-]c(=O)[n-]c2O)cc(C)n1-c1cccc(C(=O)N=c2cccc[n-]2)c1 (protonated)
C=c1c(=Cc2[n-]c(=O)[n-]c2O)cc(C)n1-c1cccc(C(=O)/N=c2/cccc[n-]2)c1 (cis-trans isomerization)
C=c1c(=Cc2[n-]c(=O)[n-]c2O)cc(C)n1-c1cccc(C(=O)/N=c2/cccc[n-]2)c1 (3D coordinates assigned)
C=c1c(=Cc2[n-]c(=O)[n-]c2O)cc(C)n1-c1cccc(C(=O)/N=c2/cccc[n-]2)c1 (optimized conformer: 132.67922331112229 kcal/mol)

>  <smiles>  (15) 
C=c1c(=Cc2[nH]c(=O)[nH]c2O)cc(C)n1-c1cccc(C(=O)N=c2cccc[nH]2)c1

>  <score_type>  (15) 
oracle

>  <origin>  (15) 
adg

>  <m_score__min__energy>  (15) 
-15.029999999999999

>  <m_primary>  (15) 
energy

$$$$
15:0
     RDKit          3D

 59 62  0  0  0  0  0  0  0  0999 V2000
   59.9990   33.6420   50.1960 H   0  0  0  0  0  0  0  0  0  0  0  0
   59.2020   33.4960   49.5890 O   0  0  0  0  0  0  0  0  0  0  0  0
   59.2740   33.7220   48.2150 C   0  0  0  0  0  0  0  0  0  0  0  0
   58.1460   33.5140   47.4070 C   0  0  0  0  0  0  0  0  0  0  0  0
   57.2112   33.1455   47.8545 H   0  0  0  0  0  0  0  0  0  0  0  0
   58.2070   33.7740   46.0340 C   0  0  0  0  0  0  0  0  0  0  0  0
   57.3234   33.6008   45.4021 H   0  0  0  0  0  0  0  0  0  0  0  0
   59.3880   34.2530   45.4650 C   0  0  0  0  0  0  0  0  0  0  0  0
   59.4316   34.4632   44.3862 H   0  0  0  0  0  0  0  0  0  0  0  0
   60.5150   34.4660   46.2630 C   0  0  0  0  0  0  0  0  0  0  0  0
   61.4385   34.8596   45.8133 H   0  0  0  0  0  0  0  0  0  0  0  0
   60.4730   34.1800   47.6340 C   0  0  0  0  0  0  0  0  0  0  0  0
   61.6280   34.3820   48.4010 O   0  0  0  0  0  0  0  0  0  0  0  0
   62.3980   33.3540   48.9640 C   0  0  0  0  0  0  0  0  0  0  0  0
   63.7740   33.5040   49.2120 C   0  0  0  0  0  0  0  0  0  0  0  0
   64.2861   34.4420   48.9515 H   0  0  0  0  0  0  0  0  0  0  0  0
   64.4840   32.4510   49.7920 C   0  0  0  0  0  0  0  0  0  0  0  0
   66.1980   32.6180   50.1150 Cl  0  0  0  0  0  0  0  0  0  0  0  0
   63.8490   31.2940   50.1090 N   0  0  0  0  0  0  0  0  0  0  0  0
   62.5160   31.1240   49.8910 C   0  0  0  0  0  0  0  0  0  0  0  0
   61.9270   30.0030   50.1850 N   0  0  0  0  0  0  0  0  0  0  0  0
   60.6260   29.5590   49.6740 C   0  0  0  0  0  0  0  0  0  0  0  0
   60.7262   29.3383   48.6010 H   0  0  0  0  0  0  0  0  0  0  0  0
   59.9036   30.3680   49.8575 H   0  0  0  0  0  0  0  0  0  0  0  0
   60.1040   28.2980   50.3900 C   0  0  0  0  0  0  0  0  0  0  0  0
   59.0255   28.2029   50.1958 H   0  0  0  0  0  0  0  0  0  0  0  0
   60.3127   28.4125   51.4639 H   0  0  0  0  0  0  0  0  0  0  0  0
   60.7890   27.0480   49.9230 C   0  0  0  0  0  0  0  0  0  0  0  0
   61.7580   26.5780   50.5770 O   0  0  0  0  0  0  0  0  0  0  0  0
   60.2470   26.3450   48.8020 N   0  0  0  0  0  0  0  0  0  0  0  0
   59.1970   26.7800   47.9340 C   0  0  0  0  0  0  0  0  0  0  0  0
   58.5310   25.8170   47.1610 C   0  0  0  0  0  0  0  0  0  0  0  0
   58.8106   24.7564   47.2445 H   0  0  0  0  0  0  0  0  0  0  0  0
   57.5140   26.2030   46.2860 C   0  0  0  0  0  0  0  0  0  0  0  0
   57.0144   25.4456   45.6641 H   0  0  0  0  0  0  0  0  0  0  0  0
   57.1240   27.5420   46.1920 C   0  0  0  0  0  0  0  0  0  0  0  0
   56.0920   27.9580   45.2920 N   0  0  0  0  0  0  0  0  0  0  0  0
   56.1400   29.1870   44.5590 C   0  0  0  0  0  0  0  0  0  0  0  0
   55.1550   29.9720   44.6170 O   0  0  0  0  0  0  0  0  0  0  0  0
   57.3000   29.4960   43.6530 C   0  0  0  0  0  0  0  0  0  0  0  0
   57.4338   28.6654   42.9443 H   0  0  0  0  0  0  0  0  0  0  0  0
   57.0846   30.4313   43.1155 H   0  0  0  0  0  0  0  0  0  0  0  0
   58.5720   29.6790   44.4440 C   0  0  0  0  0  0  0  0  0  0  0  0
   58.7060   30.7830   45.3060 C   0  0  0  0  0  0  0  0  0  0  0  0
   57.9131   31.5441   45.3510 H   0  0  0  0  0  0  0  0  0  0  0  0
   59.8450   30.9140   46.1050 C   0  0  0  0  0  0  0  0  0  0  0  0
   59.9459   31.7774   46.7791 H   0  0  0  0  0  0  0  0  0  0  0  0
   60.8540   29.9530   46.0500 C   0  0  0  0  0  0  0  0  0  0  0  0
   61.7518   30.0604   46.6765 H   0  0  0  0  0  0  0  0  0  0  0  0
   60.7230   28.8550   45.1990 C   0  0  0  0  0  0  0  0  0  0  0  0
   61.5171   28.0949   45.1583 H   0  0  0  0  0  0  0  0  0  0  0  0
   59.5840   28.7180   44.3970 C   0  0  0  0  0  0  0  0  0  0  0  0
   59.4858   27.8506   43.7276 H   0  0  0  0  0  0  0  0  0  0  0  0
   57.7600   28.5040   46.9990 C   0  0  0  0  0  0  0  0  0  0  0  0
   57.4392   29.5552   46.9542 H   0  0  0  0  0  0  0  0  0  0  0  0
   58.8000   28.1280   47.8590 C   0  0  0  0  0  0  0  0  0  0  0  0
   59.3059   28.8859   48.4752 H   0  0  0  0  0  0  0  0  0  0  0  0
   61.7680   32.1610   49.3220 C   0  0  0  0  0  0  0  0  0  0  0  0
   60.6875   32.0364   49.1575 H   0  0  0  0  0  0  0  0  0  0  0  0
  1  2  1  0
  2  3  1  0
  3  4  2  0
  4  5  1  0
  4  6  1  0
  6  7  1  0
  6  8  2  0
  8  9  1  0
  8 10  1  0
 10 11  1  0
 10 12  2  0
 12 13  1  0
 13 14  1  0
 14 15  1  0
 15 16  1  0
 15 17  2  0
 17 18  1  0
 17 19  1  0
 19 20  1  0
 20 21  2  0
 21 22  1  0
 22 23  1  0
 22 24  1  0
 22 25  1  0
 25 26  1  0
 25 27  1  0
 25 28  1  0
 28 29  2  0
 28 30  1  0
 30 31  1  0
 31 32  2  0
 32 33  1  0
 32 34  1  0
 34 35  1  0
 34 36  2  0
 36 37  1  0
 37 38  1  0
 38 39  2  0
 38 40  1  0
 40 41  1  0
 40 42  1  0
 40 43  1  0
 43 44  2  0
 44 45  1  0
 44 46  1  0
 46 47  1  0
 46 48  2  0
 48 49  1  0
 48 50  1  0
 50 51  1  0
 50 52  2  0
 52 53  1  0
 36 54  1  0
 54 55  1  0
 54 56  2  0
 56 57  1  0
 20 58  1  0
 58 59  1  0
 12  3  1  0
 58 14  2  0
 56 31  1  0
 52 43  1  0
M  CHG  3  19  -1  30  -1  37  -1
M  END
>  <UniqueID>  (16) 
15

>  <SMILES>  (16) 
O=C(CC/N=c1/cc(Oc2ccccc2O)cc(Cl)[n-]1)[N-]c1ccc([N-]C(=O)Cc2ccccc2)cc1

>  <Energy>  (16) 
80.03919960477782

>  <Genealogy>  (16) 
O=C(CCN=c1cc(Oc2ccccc2O)cc(Cl)[n-]1)[N-]c1ccc([N-]C(=O)Cc2ccccc2)cc1 (protonated)
O=C(CC/N=c1/cc(Oc2ccccc2O)cc(Cl)[n-]1)[N-]c1ccc([N-]C(=O)Cc2ccccc2)cc1 (cis-trans isomerization)
O=C(CC/N=c1/cc(Oc2ccccc2O)cc(Cl)[n-]1)[N-]c1ccc([N-]C(=O)Cc2ccccc2)cc1 (3D coordinates assigned)
O=C(CC/N=c1/cc(Oc2ccccc2O)cc(Cl)[n-]1)[N-]c1ccc([N-]C(=O)Cc2ccccc2)cc1 (optimized conformer: 80.03919960477782 kcal/mol)

>  <smiles>  (16) 
O=C(CCN=c1cc(Oc2ccccc2O)cc(Cl)[nH]1)Nc1ccc(NC(=O)Cc2ccccc2)cc1

>  <score_type>  (16) 
oracle

>  <origin>  (16) 
adg

>  <m_score__min__energy>  (16) 
-13.630000000000001

>  <m_primary>  (16) 
energy

$$$$
16:0
     RDKit          3D

 47 50  0  0  0  0  0  0  0  0999 V2000
   58.8990   30.0690   49.1200 C   0  0  0  0  0  0  0  0  0  0  0  0
   58.8370   30.9840   47.9390 C   0  0  0  0  0  0  0  0  0  0  0  0
   59.4050   32.2560   47.9980 C   0  0  0  0  0  0  0  0  0  0  0  0
   59.3620   33.1030   46.8810 C   0  0  0  0  0  0  0  0  0  0  0  0
   60.0450   34.4490   47.0110 C   0  0  0  0  0  0  0  0  0  0  0  0
   60.9550   34.5820   48.5930 S   0  0  0  0  0  0  0  0  0  0  0  0
   62.3270   33.5340   48.0980 C   0  0  0  0  0  0  0  0  0  0  0  0
   63.1540   33.8260   47.0750 N   0  0  0  0  0  0  0  0  0  0  0  0
   64.0510   32.8520   47.0440 N   0  0  0  0  0  0  0  0  0  0  0  0
   63.7700   31.9850   48.0330 C   0  0  0  0  0  0  0  0  0  0  0  0
   62.6750   32.3810   48.7040 N   0  0  0  0  0  0  0  0  0  0  0  0
   62.1010   31.7760   49.9000 C   0  0  0  0  0  0  0  0  0  0  0  0
   58.7460   32.6340   45.6850 C   0  0  0  0  0  0  0  0  0  0  0  0
   58.6620   33.4030   44.5120 C   0  0  0  0  0  0  0  0  0  0  0  0
   58.0700   32.8820   43.3710 C   0  0  0  0  0  0  0  0  0  0  0  0
   57.5610   31.5860   43.3810 C   0  0  0  0  0  0  0  0  0  0  0  0
   57.0400   31.1340   42.3230 O   0  0  0  0  0  0  0  0  0  0  0  0
   57.6290   30.8150   44.5140 N   0  0  0  0  0  0  0  0  0  0  0  0
   57.1410   29.4200   44.4700 C   0  0  0  0  0  0  0  0  0  0  0  0
   58.1880   28.4810   45.0160 C   0  0  0  0  0  0  0  0  0  0  0  0
   57.8180   27.4160   45.8560 C   0  0  0  0  0  0  0  0  0  0  0  0
   58.7930   26.5710   46.3950 C   0  0  0  0  0  0  0  0  0  0  0  0
   60.1430   26.7810   46.1010 C   0  0  0  0  0  0  0  0  0  0  0  0
   60.5200   27.8360   45.2660 C   0  0  0  0  0  0  0  0  0  0  0  0
   59.5480   28.6860   44.7270 C   0  0  0  0  0  0  0  0  0  0  0  0
   58.2030   31.3200   45.6620 C   0  0  0  0  0  0  0  0  0  0  0  0
   58.2670   30.5550   46.7860 N   0  0  0  0  0  0  0  0  0  0  0  0
   58.8588   30.6619   50.0457 H   0  0  0  0  0  0  0  0  0  0  0  0
   58.0458   29.3753   49.0916 H   0  0  0  0  0  0  0  0  0  0  0  0
   59.8380   29.4967   49.0916 H   0  0  0  0  0  0  0  0  0  0  0  0
   59.8891   32.5968   48.9251 H   0  0  0  0  0  0  0  0  0  0  0  0
   60.7532   34.5735   46.1786 H   0  0  0  0  0  0  0  0  0  0  0  0
   59.2743   35.2335   46.9865 H   0  0  0  0  0  0  0  0  0  0  0  0
   64.8460   32.7970   46.3710 H   0  0  0  0  0  0  0  0  0  0  0  0
   64.3534   31.0806   48.2603 H   0  0  0  0  0  0  0  0  0  0  0  0
   62.5422   32.2410   50.7940 H   0  0  0  0  0  0  0  0  0  0  0  0
   61.0123   31.9335   49.9042 H   0  0  0  0  0  0  0  0  0  0  0  0
   62.3155   30.6971   49.9042 H   0  0  0  0  0  0  0  0  0  0  0  0
   59.0685   34.4251   44.4985 H   0  0  0  0  0  0  0  0  0  0  0  0
   58.0026   33.4925   42.4584 H   0  0  0  0  0  0  0  0  0  0  0  0
   56.2269   29.3361   45.0762 H   0  0  0  0  0  0  0  0  0  0  0  0
   56.9271   29.1488   43.4256 H   0  0  0  0  0  0  0  0  0  0  0  0
   56.7566   27.2467   46.0902 H   0  0  0  0  0  0  0  0  0  0  0  0
   58.4969   25.7396   47.0515 H   0  0  0  0  0  0  0  0  0  0  0  0
   60.9087   26.1159   46.5269 H   0  0  0  0  0  0  0  0  0  0  0  0
   61.5825   27.9985   45.0320 H   0  0  0  0  0  0  0  0  0  0  0  0
   59.8497   29.5184   44.0742 H   0  0  0  0  0  0  0  0  0  0  0  0
  1  2  1  0
  2  3  2  0
  3  4  1  0
  4  5  1  0
  5  6  1  0
  6  7  1  0
  7  8  2  0
  8  9  1  0
  9 10  2  0
 10 11  1  0
 11 12  1  0
  4 13  2  0
 13 14  1  0
 14 15  2  0
 15 16  1  0
 16 17  2  0
 16 18  1  0
 18 19  1  0
 19 20  1  0
 20 21  2  0
 21 22  1  0
 22 23  2  0
 23 24  1  0
 24 25  2  0
 18 26  1  0
 26 27  2  0
 27  2  1  0
 11  7  1  0
 26 13  1  0
 25 20  1  0
  1 28  1  0
  1 29  1  0
  1 30  1  0
  3 31  1  0
  5 32  1  0
  5 33  1  0
  9 34  1  0
 10 35  1  0
 12 36  1  0
 12 37  1  0
 12 38  1  0
 14 39  1  0
 15 40  1  0
 19 41  1  0
 19 42  1  0
 21 43  1  0
 22 44  1  0
 23 45  1  0
 24 46  1  0
 25 47  1  0
M  CHG  1   9   1
M  END
>  <UniqueID>  (17) 
16

>  <SMILES>  (17) 
Cc1cc(CSc2n[nH+]cn2C)c2ccc(=O)n(Cc3ccccc3)c2n1

>  <Energy>  (17) 
88.69954102199728

>  <Genealogy>  (17) 
Cc1cc(CSc2n[nH+]cn2C)c2ccc(=O)n(Cc3ccccc3)c2n1 (protonated)
Cc1cc(CSc2n[nH+]cn2C)c2ccc(=O)n(Cc3ccccc3)c2n1 (3D coordinates assigned)
Cc1cc(CSc2n[nH+]cn2C)c2ccc(=O)n(Cc3ccccc3)c2n1 (optimized conformer: 88.69954102199728 kcal/mol)

>  <smiles>  (17) 
Cc1cc(CSc2nncn2C)c2ccc(=O)n(Cc3ccccc3)c2n1

>  <score_type>  (17) 
oracle

>  <origin>  (17) 
adg

>  <m_score__min__energy>  (17) 
-7.3099999999999996

>  <m_primary>  (17) 
energy

$$$$
17:0
     RDKit          3D

 32 34  0  0  0  0  0  0  0  0999 V2000
   55.7930   29.2330   45.1830 O   0  0  0  0  0  0  0  0  0  0  0  0
   56.9490   29.0050   45.6330 C   0  0  0  0  0  0  0  0  0  0  0  0
   57.7300   30.0700   46.1920 N   0  0  0  0  0  0  0  0  0  0  0  0
   57.8940   31.3860   45.6450 C   0  0  0  0  0  0  0  0  0  0  0  0
   57.9700   32.5300   46.4620 C   0  0  0  0  0  0  0  0  0  0  0  0
   58.1040   33.7980   45.8860 C   0  0  0  0  0  0  0  0  0  0  0  0
   58.1500   33.9350   44.4960 C   0  0  0  0  0  0  0  0  0  0  0  0
   58.0520   32.8060   43.6800 C   0  0  0  0  0  0  0  0  0  0  0  0
   57.9160   31.5370   44.2520 C   0  0  0  0  0  0  0  0  0  0  0  0
   57.4460   27.6140   45.6950 C   0  0  0  0  0  0  0  0  0  0  0  0
   58.8330   27.3970   45.6460 C   0  0  0  0  0  0  0  0  0  0  0  0
   59.3540   26.1060   45.6220 C   0  0  0  0  0  0  0  0  0  0  0  0
   58.4990   24.9990   45.6440 C   0  0  0  0  0  0  0  0  0  0  0  0
   59.0250   23.6980   45.6050 C   0  0  0  0  0  0  0  0  0  0  0  0
   58.1710   22.5930   45.6390 C   0  0  0  0  0  0  0  0  0  0  0  0
   56.7900   22.7770   45.7130 C   0  0  0  0  0  0  0  0  0  0  0  0
   56.2520   24.0670   45.7540 C   0  0  0  0  0  0  0  0  0  0  0  0
   57.0970   25.1930   45.7160 C   0  0  0  0  0  0  0  0  0  0  0  0
   56.5700   26.5020   45.7660 C   0  0  0  0  0  0  0  0  0  0  0  0
   55.1900   26.6690   45.9200 O   0  0  0  0  0  0  0  0  0  0  0  0
   57.9239   32.4267   47.5562 H   0  0  0  0  0  0  0  0  0  0  0  0
   58.1732   34.6884   46.5282 H   0  0  0  0  0  0  0  0  0  0  0  0
   58.2634   34.9318   44.0448 H   0  0  0  0  0  0  0  0  0  0  0  0
   58.0818   32.9149   42.5858 H   0  0  0  0  0  0  0  0  0  0  0  0
   57.8258   30.6523   43.6046 H   0  0  0  0  0  0  0  0  0  0  0  0
   59.5167   28.2585   45.6263 H   0  0  0  0  0  0  0  0  0  0  0  0
   60.4431   25.9558   45.5856 H   0  0  0  0  0  0  0  0  0  0  0  0
   60.1132   23.5482   45.5475 H   0  0  0  0  0  0  0  0  0  0  0  0
   58.5882   21.5757   45.6074 H   0  0  0  0  0  0  0  0  0  0  0  0
   56.1217   21.9037   45.7392 H   0  0  0  0  0  0  0  0  0  0  0  0
   55.1622   24.2031   45.8163 H   0  0  0  0  0  0  0  0  0  0  0  0
   54.7720   27.4720   46.3720 H   0  0  0  0  0  0  0  0  0  0  0  0
  1  2  2  0
  2  3  1  0
  3  4  1  0
  4  5  2  0
  5  6  1  0
  6  7  2  0
  7  8  1  0
  8  9  2  0
  2 10  1  0
 10 11  2  0
 11 12  1  0
 12 13  2  0
 13 14  1  0
 14 15  2  0
 15 16  1  0
 16 17  2  0
 17 18  1  0
 18 19  2  0
 19 20  1  0
  9  4  1  0
 19 10  1  0
 18 13  1  0
  5 21  1  0
  6 22  1  0
  7 23  1  0
  8 24  1  0
  9 25  1  0
 11 26  1  0
 12 27  1  0
 14 28  1  0
 15 29  1  0
 16 30  1  0
 17 31  1  0
 20 32  1  0
M  CHG  1   3  -1
M  END
>  <UniqueID>  (18) 
17

>  <SMILES>  (18) 
O=C([N-]c1ccccc1)c1ccc2ccccc2c1O

>  <Energy>  (18) 
48.35694498492189

>  <Genealogy>  (18) 
O=C([N-]c1ccccc1)c1ccc2ccccc2c1O (protonated)
O=C([N-]c1ccccc1)c1ccc2ccccc2c1O (3D coordinates assigned)
O=C([N-]c1ccccc1)c1ccc2ccccc2c1O (optimized conformer: 48.35694498492189 kcal/mol)

>  <smiles>  (18) 
O=C(Nc1ccccc1)c1ccc2ccccc2c1O

>  <score_type>  (18) 
oracle

>  <origin>  (18) 
adg

>  <m_score__min__energy>  (18) 
-9.8900000000000006

>  <m_primary>  (18) 
energy

$$$$
18:0
     RDKit          3D

 36 39  0  0  0  0  0  0  0  0999 V2000
   55.2810   30.1000   45.6000 H   0  0  0  0  0  0  0  0  0  0  0  0
   55.2500   29.2530   45.0470 O   0  0  0  0  0  0  0  0  0  0  0  0
   56.1850   28.2420   45.2460 C   0  0  0  0  0  0  0  0  0  0  0  0
   55.8540   27.0060   45.6930 N   0  0  0  0  0  0  0  0  0  0  0  0
   57.0380   26.3700   45.8100 C   0  0  0  0  0  0  0  0  0  0  0  0
   57.2400   25.0650   46.2560 C   0  0  0  0  0  0  0  0  0  0  0  0
   56.3911   24.4237   46.5353 H   0  0  0  0  0  0  0  0  0  0  0  0
   58.5630   24.5930   46.3380 C   0  0  0  0  0  0  0  0  0  0  0  0
   58.7554   23.5648   46.6782 H   0  0  0  0  0  0  0  0  0  0  0  0
   59.6460   25.4290   45.9870 C   0  0  0  0  0  0  0  0  0  0  0  0
   60.6758   25.0487   46.0574 H   0  0  0  0  0  0  0  0  0  0  0  0
   59.4150   26.7450   45.5480 C   0  0  0  0  0  0  0  0  0  0  0  0
   60.2494   27.4117   45.2848 H   0  0  0  0  0  0  0  0  0  0  0  0
   58.0930   27.1750   45.4580 C   0  0  0  0  0  0  0  0  0  0  0  0
   57.5560   28.3690   45.0550 C   0  0  0  0  0  0  0  0  0  0  0  0
   58.3010   29.5390   44.6920 N   0  0  0  0  0  0  0  0  0  0  0  0
   57.9360   30.4410   43.8620 N   0  0  0  0  0  0  0  0  0  0  0  0
   57.3980   31.7350   44.1800 C   0  0  0  0  0  0  0  0  0  0  0  0
   56.3390   31.7950   44.8590 O   0  0  0  0  0  0  0  0  0  0  0  0
   58.1490   33.0090   43.9030 C   0  0  0  0  0  0  0  0  0  0  0  0
   59.2290   32.8209   43.9935 H   0  0  0  0  0  0  0  0  0  0  0  0
   57.9109   33.3514   42.8851 H   0  0  0  0  0  0  0  0  0  0  0  0
   57.6610   34.3010   45.0940 S   0  0  0  0  0  0  0  0  0  0  0  0
   59.1230   34.1250   46.1120 C   0  0  0  0  0  0  0  0  0  0  0  0
   60.3680   33.9700   45.6040 N   0  0  0  0  0  0  0  0  0  0  0  0
   61.2820   33.8520   46.5990 C   0  0  0  0  0  0  0  0  0  0  0  0
   62.6530   33.6910   46.3950 C   0  0  0  0  0  0  0  0  0  0  0  0
   63.0670   33.6479   45.3768 H   0  0  0  0  0  0  0  0  0  0  0  0
   63.4950   33.5850   47.5160 C   0  0  0  0  0  0  0  0  0  0  0  0
   64.5782   33.4545   47.3758 H   0  0  0  0  0  0  0  0  0  0  0  0
   62.9590   33.6450   48.8190 C   0  0  0  0  0  0  0  0  0  0  0  0
   63.6267   33.5621   49.6893 H   0  0  0  0  0  0  0  0  0  0  0  0
   61.5780   33.8100   49.0120 C   0  0  0  0  0  0  0  0  0  0  0  0
   61.1498   33.8581   50.0241 H   0  0  0  0  0  0  0  0  0  0  0  0
   60.7660   33.9110   47.8850 C   0  0  0  0  0  0  0  0  0  0  0  0
   59.1040   34.1200   47.8050 S   0  0  0  0  0  0  0  0  0  0  0  0
  1  2  1  0
  2  3  1  0
  3  4  1  0
  4  5  1  0
  5  6  2  0
  6  7  1  0
  6  8  1  0
  8  9  1  0
  8 10  2  0
 10 11  1  0
 10 12  1  0
 12 13  1  0
 12 14  2  0
 14 15  1  0
 15 16  1  0
 16 17  2  0
 17 18  1  0
 18 19  2  0
 18 20  1  0
 20 21  1  0
 20 22  1  0
 20 23  1  0
 23 24  1  0
 24 25  2  0
 25 26  1  0
 26 27  2  0
 27 28  1  0
 27 29  1  0
 29 30  1  0
 29 31  2  0
 31 32  1  0
 31 33  1  0
 33 34  1  0
 33 35  2  0
 35 36  1  0
 15  3  2  0
 36 24  1  0
 14  5  1  0
 35 26  1  0
M  CHG  1   4  -1
M  END
>  <UniqueID>  (19) 
18

>  <SMILES>  (19) 
O=C(CSc1nc2ccccc2s1)/N=N\c1c(O)[n-]c2ccccc12

>  <Energy>  (19) 
113.60310930587941

>  <Genealogy>  (19) 
O=C(CSc1nc2ccccc2s1)N=Nc1c(O)[n-]c2ccccc12 (protonated)
O=C(CSc1nc2ccccc2s1)/N=N\c1c(O)[n-]c2ccccc12 (cis-trans isomerization)
O=C(CSc1nc2ccccc2s1)/N=N\c1c(O)[n-]c2ccccc12 (3D coordinates assigned)
O=C(CSc1nc2ccccc2s1)/N=N\c1c(O)[n-]c2ccccc12 (optimized conformer: 113.60310930587941 kcal/mol)

>  <smiles>  (19) 
O=C(CSc1nc2ccccc2s1)N=Nc1c(O)[nH]c2ccccc12

>  <score_type>  (19) 
oracle

>  <origin>  (19) 
adg

>  <m_score__min__energy>  (19) 
-11.460000000000001

>  <m_primary>  (19) 
energy

$$$$
19:0
     RDKit          3D

 45 47  0  0  0  0  0  0  0  0999 V2000
   55.8770   19.4430   44.0020 C   0  0  0  0  0  0  0  0  0  0  0  0
   55.9990   20.7260   43.3960 O   0  0  0  0  0  0  0  0  0  0  0  0
   56.6910   21.8070   43.9630 C   0  0  0  0  0  0  0  0  0  0  0  0
   57.9240   21.6510   44.6250 C   0  0  0  0  0  0  0  0  0  0  0  0
   58.5740   22.7610   45.1730 C   0  0  0  0  0  0  0  0  0  0  0  0
   58.0000   24.0380   45.0780 C   0  0  0  0  0  0  0  0  0  0  0  0
   58.7180   25.2360   45.6380 C   0  0  0  0  0  0  0  0  0  0  0  0
   57.8040   26.0190   46.5860 C   0  0  0  0  0  0  0  0  0  0  0  0
   57.4980   27.3470   46.0230 N   0  0  0  0  0  0  0  0  0  0  0  0
   56.2210   27.6390   45.6290 C   0  0  0  0  0  0  0  0  0  0  0  0
   55.1990   26.7030   45.7650 O   0  0  0  0  0  0  0  0  0  0  0  0
   55.9250   28.8770   45.0760 C   0  0  0  0  0  0  0  0  0  0  0  0
   56.9410   29.8100   44.9200 C   0  0  0  0  0  0  0  0  0  0  0  0
   56.6610   30.9290   44.4090 O   0  0  0  0  0  0  0  0  0  0  0  0
   58.2220   29.5090   45.3060 N   0  0  0  0  0  0  0  0  0  0  0  0
   59.3070   30.5050   45.1590 C   0  0  0  0  0  0  0  0  0  0  0  0
   58.9610   31.7860   45.8790 C   0  0  0  0  0  0  0  0  0  0  0  0
   58.8300   32.9870   45.1580 C   0  0  0  0  0  0  0  0  0  0  0  0
   58.5310   34.1810   45.8210 C   0  0  0  0  0  0  0  0  0  0  0  0
   58.3610   34.1890   47.2070 C   0  0  0  0  0  0  0  0  0  0  0  0
   58.4880   33.0020   47.9330 C   0  0  0  0  0  0  0  0  0  0  0  0
   58.7860   31.8040   47.2760 C   0  0  0  0  0  0  0  0  0  0  0  0
   58.8930   30.6640   48.0030 F   0  0  0  0  0  0  0  0  0  0  0  0
   58.4990   28.2720   45.8410 C   0  0  0  0  0  0  0  0  0  0  0  0
   59.6850   27.9810   46.1630 O   0  0  0  0  0  0  0  0  0  0  0  0
   56.7780   24.1950   44.4070 C   0  0  0  0  0  0  0  0  0  0  0  0
   56.1290   23.0840   43.8580 C   0  0  0  0  0  0  0  0  0  0  0  0
   55.8874   19.5520   45.0965 H   0  0  0  0  0  0  0  0  0  0  0  0
   54.9306   18.9780   43.6888 H   0  0  0  0  0  0  0  0  0  0  0  0
   56.7188   18.8080   43.6888 H   0  0  0  0  0  0  0  0  0  0  0  0
   58.3773   20.6525   44.7113 H   0  0  0  0  0  0  0  0  0  0  0  0
   59.5409   22.6325   45.6815 H   0  0  0  0  0  0  0  0  0  0  0  0
   59.6075   24.8986   46.1903 H   0  0  0  0  0  0  0  0  0  0  0  0
   59.0124   25.8932   44.8065 H   0  0  0  0  0  0  0  0  0  0  0  0
   56.8668   25.4611   46.7293 H   0  0  0  0  0  0  0  0  0  0  0  0
   58.3169   26.1493   47.5503 H   0  0  0  0  0  0  0  0  0  0  0  0
   54.8974   29.1161   44.7649 H   0  0  0  0  0  0  0  0  0  0  0  0
   60.2347   30.0927   45.5826 H   0  0  0  0  0  0  0  0  0  0  0  0
   59.4392   30.7266   44.0897 H   0  0  0  0  0  0  0  0  0  0  0  0
   58.9636   32.9866   44.0661 H   0  0  0  0  0  0  0  0  0  0  0  0
   58.4295   35.1156   45.2499 H   0  0  0  0  0  0  0  0  0  0  0  0
   58.1271   35.1296   47.7271 H   0  0  0  0  0  0  0  0  0  0  0  0
   58.3532   33.0098   49.0247 H   0  0  0  0  0  0  0  0  0  0  0  0
   56.3289   25.1947   44.3123 H   0  0  0  0  0  0  0  0  0  0  0  0
   55.1681   23.2156   43.3390 H   0  0  0  0  0  0  0  0  0  0  0  0
  1  2  1  0
  2  3  1  0
  3  4  2  0
  4  5  1  0
  5  6  2  0
  6  7  1  0
  7  8  1  0
  8  9  1  0
  9 10  1  0
 10 11  1  0
 10 12  2  0
 12 13  1  0
 13 14  2  0
 13 15  1  0
 15 16  1  0
 16 17  1  0
 17 18  2  0
 18 19  1  0
 19 20  2  0
 20 21  1  0
 21 22  2  0
 22 23  1  0
 15 24  1  0
 24 25  2  0
  6 26  1  0
 26 27  2  0
 27  3  1  0
 24  9  1  0
 22 17  1  0
  1 28  1  0
  1 29  1  0
  1 30  1  0
  4 31  1  0
  5 32  1  0
  7 33  1  0
  7 34  1  0
  8 35  1  0
  8 36  1  0
 12 37  1  0
 16 38  1  0
 16 39  1  0
 18 40  1  0
 19 41  1  0
 20 42  1  0
 21 43  1  0
 26 44  1  0
 27 45  1  0
M  CHG  1  11  -1
M  END
>  <UniqueID>  (20) 
19

>  <SMILES>  (20) 
COc1ccc(CCn2c([O-])cc(=O)n(Cc3ccccc3F)c2=O)cc1

>  <Energy>  (20) 
51.70471488491774

>  <Genealogy>  (20) 
COc1ccc(CCn2c([O-])cc(=O)n(Cc3ccccc3F)c2=O)cc1 (protonated)
COc1ccc(CCn2c([O-])cc(=O)n(Cc3ccccc3F)c2=O)cc1 (3D coordinates assigned)
COc1ccc(CCn2c([O-])cc(=O)n(Cc3ccccc3F)c2=O)cc1 (optimized conformer: 51.70471488491774 kcal/mol)

>  <smiles>  (20) 
COc1ccc(CCn2c(O)cc(=O)n(Cc3ccccc3F)c2=O)cc1

>  <score_type>  (20) 
oracle

>  <origin>  (20) 
adg

>  <m_score__min__energy>  (20) 
-10.09

>  <m_primary>  (20) 
energy

$$$$
20:0
     RDKit          3D

 35 36  0  0  0  0  0  0  0  0999 V2000
   60.5320   33.8430   50.4820 C   0  0  0  0  0  0  0  0  0  0  0  0
   59.8400   33.5810   49.1770 C   0  0  0  0  0  0  0  0  0  0  0  0
   59.9300   34.5030   48.1260 C   0  0  0  0  0  0  0  0  0  0  0  0
   59.3120   34.2400   46.8990 C   0  0  0  0  0  0  0  0  0  0  0  0
   58.6070   33.0390   46.6990 C   0  0  0  0  0  0  0  0  0  0  0  0
   57.9390   32.7490   45.4070 C   0  0  0  0  0  0  0  0  0  0  0  0
   57.9710   33.6110   44.4870 O   0  0  0  0  0  0  0  0  0  0  0  0
   57.2470   31.5080   45.1910 N   0  0  0  0  0  0  0  0  0  0  0  0
   56.7790   31.0980   43.8700 C   0  0  0  0  0  0  0  0  0  0  0  0
   55.8360   29.9440   43.9950 C   0  0  0  0  0  0  0  0  0  0  0  0
   55.1240   29.6100   43.0100 O   0  0  0  0  0  0  0  0  0  0  0  0
   55.8170   29.1820   45.2080 N   0  0  0  0  0  0  0  0  0  0  0  0
   56.7040   28.1110   45.5640 C   0  0  0  0  0  0  0  0  0  0  0  0
   58.1030   28.2490   45.4900 C   0  0  0  0  0  0  0  0  0  0  0  0
   58.9350   27.1750   45.8240 C   0  0  0  0  0  0  0  0  0  0  0  0
   58.3810   25.9560   46.2190 C   0  0  0  0  0  0  0  0  0  0  0  0
   56.9940   25.8040   46.2740 C   0  0  0  0  0  0  0  0  0  0  0  0
   56.1570   26.8750   45.9420 C   0  0  0  0  0  0  0  0  0  0  0  0
   54.7770   26.7080   45.9990 O   0  0  0  0  0  0  0  0  0  0  0  0
   58.5240   32.1160   47.7570 C   0  0  0  0  0  0  0  0  0  0  0  0
   59.1430   32.3810   48.9820 C   0  0  0  0  0  0  0  0  0  0  0  0
   59.8574   33.5876   51.3125 H   0  0  0  0  0  0  0  0  0  0  0  0
   61.4410   33.2268   50.5452 H   0  0  0  0  0  0  0  0  0  0  0  0
   60.8050   34.9067   50.5452 H   0  0  0  0  0  0  0  0  0  0  0  0
   60.4900   35.4393   48.2665 H   0  0  0  0  0  0  0  0  0  0  0  0
   59.3776   34.9771   46.0851 H   0  0  0  0  0  0  0  0  0  0  0  0
   57.0180   30.8920   46.0020 H   0  0  0  0  0  0  0  0  0  0  0  0
   56.2608   31.9411   43.3896 H   0  0  0  0  0  0  0  0  0  0  0  0
   57.6424   30.7934   43.2603 H   0  0  0  0  0  0  0  0  0  0  0  0
   58.5434   29.2044   45.1685 H   0  0  0  0  0  0  0  0  0  0  0  0
   60.0278   27.2913   45.7753 H   0  0  0  0  0  0  0  0  0  0  0  0
   59.0373   25.1149   46.4870 H   0  0  0  0  0  0  0  0  0  0  0  0
   56.5587   24.8408   46.5788 H   0  0  0  0  0  0  0  0  0  0  0  0
   57.9671   31.1774   47.6193 H   0  0  0  0  0  0  0  0  0  0  0  0
   59.0827   31.6443   49.7966 H   0  0  0  0  0  0  0  0  0  0  0  0
  1  2  1  0
  2  3  2  0
  3  4  1  0
  4  5  2  0
  5  6  1  0
  6  7  2  0
  6  8  1  0
  8  9  1  0
  9 10  1  0
 10 11  2  0
 10 12  1  0
 12 13  1  0
 13 14  2  0
 14 15  1  0
 15 16  2  0
 16 17  1  0
 17 18  2  0
 18 19  1  0
  5 20  1  0
 20 21  2  0
 21  2  1  0
 18 13  1  0
  1 22  1  0
  1 23  1  0
  1 24  1  0
  3 25  1  0
  4 26  1  0
  8 27  1  0
  9 28  1  0
  9 29  1  0
 14 30  1  0
 15 31  1  0
 16 32  1  0
 17 33  1  0
 20 34  1  0
 21 35  1  0
M  CHG  2  12  -1  19  -1
M  END
>  <UniqueID>  (21) 
20

>  <SMILES>  (21) 
Cc1ccc(C(=O)NCC(=O)[N-]c2ccccc2[O-])cc1

>  <Energy>  (21) 
37.7544309879305

>  <Genealogy>  (21) 
Cc1ccc(C(=O)NCC(=O)[N-]c2ccccc2[O-])cc1 (protonated)
Cc1ccc(C(=O)NCC(=O)[N-]c2ccccc2[O-])cc1 (3D coordinates assigned)
Cc1ccc(C(=O)NCC(=O)[N-]c2ccccc2[O-])cc1 (optimized conformer: 37.7544309879305 kcal/mol)

>  <smiles>  (21) 
Cc1ccc(C(=O)NCC(=O)Nc2ccccc2O)cc1

>  <score_type>  (21) 
oracle

>  <origin>  (21) 
adg

>  <m_score__min__energy>  (21) 
-13.720000000000001

>  <m_primary>  (21) 
energy

$$$$
21:0
     RDKit          3D

 46 48  0  0  0  0  0  0  0  0999 V2000
   56.0725   28.4972   44.9021 H   0  0  0  0  0  0  0  0  0  0  0  0
   56.6380   27.8850   45.6200 C   0  0  0  0  0  0  0  0  0  0  0  0
   57.9250   28.2750   46.0110 C   0  0  0  0  0  0  0  0  0  0  0  0
   58.3715   29.1895   45.5935 H   0  0  0  0  0  0  0  0  0  0  0  0
   58.6450   27.5040   46.9320 C   0  0  0  0  0  0  0  0  0  0  0  0
   60.3010   27.9920   47.4350 S   0  0  0  0  0  0  0  0  0  0  0  0
   59.7120   29.1510   48.6910 C   0  0  0  0  0  0  0  0  0  0  0  0
   59.6420   28.6720   50.0070 C   0  0  0  0  0  0  0  0  0  0  0  0
   59.9542   27.6404   50.2266 H   0  0  0  0  0  0  0  0  0  0  0  0
   59.1820   29.4860   51.0400 C   0  0  0  0  0  0  0  0  0  0  0  0
   59.1232   29.0914   52.0651 H   0  0  0  0  0  0  0  0  0  0  0  0
   58.7960   30.8000   50.7770 C   0  0  0  0  0  0  0  0  0  0  0  0
   58.1810   31.8140   52.0820 S   0  0  0  0  0  0  0  0  0  0  0  0
   58.7460   33.2030   51.9630 O   0  0  0  0  0  0  0  0  0  0  0  0
   58.6150   31.2370   53.4000 O   0  0  0  0  0  0  0  0  0  0  0  0
   56.4460   31.8800   52.0330 N   0  0  0  0  0  0  0  0  0  0  0  0
   56.1770   32.0180   51.0320 H   0  0  0  0  0  0  0  0  0  0  0  0
   55.8930   30.6010   52.4670 C   0  0  0  0  0  0  0  0  0  0  0  0
   55.8765   30.5627   53.5662 H   0  0  0  0  0  0  0  0  0  0  0  0
   54.8685   30.4946   52.0809 H   0  0  0  0  0  0  0  0  0  0  0  0
   56.5173   29.7817   52.0809 H   0  0  0  0  0  0  0  0  0  0  0  0
   58.8800   31.3000   49.4720 C   0  0  0  0  0  0  0  0  0  0  0  0
   58.5727   32.3369   49.2709 H   0  0  0  0  0  0  0  0  0  0  0  0
   59.3510   30.5000   48.4100 C   0  0  0  0  0  0  0  0  0  0  0  0
   59.4700   31.1200   47.0570 C   0  0  0  0  0  0  0  0  0  0  0  0
   60.5800   31.1560   46.4630 O   0  0  0  0  0  0  0  0  0  0  0  0
   58.3070   31.7160   46.4490 N   0  0  0  0  0  0  0  0  0  0  0  0
   57.9380   31.6580   45.2030 C   0  0  0  0  0  0  0  0  0  0  0  0
   57.1200   30.6820   44.7480 N   0  0  0  0  0  0  0  0  0  0  0  0
   56.8730   30.8050   43.4150 C   0  0  0  0  0  0  0  0  0  0  0  0
   55.9680   29.8570   42.6960 C   0  0  0  0  0  0  0  0  0  0  0  0
   55.4016   29.2637   43.4289 H   0  0  0  0  0  0  0  0  0  0  0  0
   55.2686   30.4251   42.0650 H   0  0  0  0  0  0  0  0  0  0  0  0
   56.5679   29.1847   42.0650 H   0  0  0  0  0  0  0  0  0  0  0  0
   57.5150   31.8830   42.7990 C   0  0  0  0  0  0  0  0  0  0  0  0
   57.3560   32.3200   41.3790 C   0  0  0  0  0  0  0  0  0  0  0  0
   56.9800   33.3534   41.3533 H   0  0  0  0  0  0  0  0  0  0  0  0
   58.3295   32.2712   40.8692 H   0  0  0  0  0  0  0  0  0  0  0  0
   56.6415   31.6571   40.8692 H   0  0  0  0  0  0  0  0  0  0  0  0
   58.3960   32.7160   43.9680 S   0  0  0  0  0  0  0  0  0  0  0  0
   58.0780   26.3280   47.4440 C   0  0  0  0  0  0  0  0  0  0  0  0
   58.6456   25.7105   48.1557 H   0  0  0  0  0  0  0  0  0  0  0  0
   56.7940   25.9380   47.0530 C   0  0  0  0  0  0  0  0  0  0  0  0
   56.3511   25.0178   47.4617 H   0  0  0  0  0  0  0  0  0  0  0  0
   56.0710   26.7170   46.1420 C   0  0  0  0  0  0  0  0  0  0  0  0
   54.7930   26.3300   45.7580 O   0  0  0  0  0  0  0  0  0  0  0  0
  1  2  1  0
  2  3  2  0
  3  4  1  0
  3  5  1  0
  5  6  1  0
  6  7  1  0
  7  8  2  0
  8  9  1  0
  8 10  1  0
 10 11  1  0
 10 12  2  0
 12 13  1  0
 13 14  2  0
 13 15  2  0
 13 16  1  0
 16 17  1  0
 16 18  1  0
 18 19  1  0
 18 20  1  0
 18 21  1  0
 12 22  1  0
 22 23  1  0
 22 24  2  0
 24 25  1  0
 25 26  2  0
 25 27  1  0
 27 28  2  0
 28 29  1  0
 29 30  1  0
 30 31  1  0
 31 32  1  0
 31 33  1  0
 31 34  1  0
 30 35  2  0
 35 36  1  0
 36 37  1  0
 36 38  1  0
 36 39  1  0
 35 40  1  0
  5 41  2  0
 41 42  1  0
 41 43  1  0
 43 44  1  0
 43 45  2  0
 45 46  1  0
 45  2  1  0
 24  7  1  0
 40 28  1  0
M  CHG  2  29  -1  46  -1
M  END
>  <UniqueID>  (22) 
21

>  <SMILES>  (22) 
CNS(=O)(=O)c1ccc(Sc2ccc([O-])cc2)c(C(=O)/N=c2/[n-]c(C)c(C)s2)c1

>  <Energy>  (22) 
77.70194081726598

>  <Genealogy>  (22) 
CNS(=O)(=O)c1ccc(Sc2ccc([O-])cc2)c(C(=O)N=c2[n-]c(C)c(C)s2)c1 (protonated)
CNS(=O)(=O)c1ccc(Sc2ccc([O-])cc2)c(C(=O)/N=c2/[n-]c(C)c(C)s2)c1 (cis-trans isomerization)
CNS(=O)(=O)c1ccc(Sc2ccc([O-])cc2)c(C(=O)/N=c2/[n-]c(C)c(C)s2)c1 (3D coordinates assigned)
CNS(=O)(=O)c1ccc(Sc2ccc([O-])cc2)c(C(=O)/N=c2/[n-]c(C)c(C)s2)c1 (optimized conformer: 77.70194081726598 kcal/mol)

>  <smiles>  (22) 
CNS(=O)(=O)c1ccc(Sc2ccc(O)cc2)c(C(=O)N=c2[nH]c(C)c(C)s2)c1

>  <score_type>  (22) 
oracle

>  <origin>  (22) 
adg

>  <m_score__min__energy>  (22) 
-12.859999999999999

>  <m_primary>  (22) 
energy

$$$$
22:0
     RDKit          3D

 58 60  0  0  0  0  0  0  0  0999 V2000
   56.2960   22.0110   42.3890 C   0  0  0  0  0  0  0  0  0  0  0  0
   56.7210   21.2660   43.4130 C   0  0  0  0  0  0  0  0  0  0  0  0
   56.1110   21.3800   44.7840 C   0  0  0  0  0  0  0  0  0  0  0  0
   55.7990   22.7880   45.1000 N   0  0  0  0  0  0  0  0  0  0  0  0
   54.5380   23.1280   45.5220 C   0  0  0  0  0  0  0  0  0  0  0  0
   53.6380   22.2510   45.6370 O   0  0  0  0  0  0  0  0  0  0  0  0
   54.2370   24.4170   45.8190 N   0  0  0  0  0  0  0  0  0  0  0  0
   55.1630   25.4010   45.7280 C   0  0  0  0  0  0  0  0  0  0  0  0
   54.7920   26.7120   46.0060 O   0  0  0  0  0  0  0  0  0  0  0  0
   56.4710   25.0910   45.3400 C   0  0  0  0  0  0  0  0  0  0  0  0
   57.5060   26.1420   45.2200 C   0  0  0  0  0  0  0  0  0  0  0  0
   58.1880   26.6570   46.2660 C   0  0  0  0  0  0  0  0  0  0  0  0
   58.4290   25.8590   47.5260 C   0  0  0  0  0  0  0  0  0  0  0  0
   58.6990   28.0500   46.2030 C   0  0  0  0  0  0  0  0  0  0  0  0
   58.0700   28.9300   45.5550 O   0  0  0  0  0  0  0  0  0  0  0  0
   59.8820   28.4050   46.9320 N   0  0  0  0  0  0  0  0  0  0  0  0
   60.1870   29.6910   47.4900 C   0  0  0  0  0  0  0  0  0  0  0  0
   60.9690   30.5790   46.7410 C   0  0  0  0  0  0  0  0  0  0  0  0
   61.2590   31.8550   47.2310 C   0  0  0  0  0  0  0  0  0  0  0  0
   60.7540   32.2660   48.4700 C   0  0  0  0  0  0  0  0  0  0  0  0
   61.0890   33.8930   49.0530 S   0  0  0  0  0  0  0  0  0  0  0  0
   62.2770   34.4330   48.3060 O   0  0  0  0  0  0  0  0  0  0  0  0
   61.4170   33.8620   50.5210 O   0  0  0  0  0  0  0  0  0  0  0  0
   59.7110   34.9210   48.7430 N   0  0  0  0  0  0  0  0  0  0  0  0
   59.0430   34.7080   47.4470 C   0  0  0  0  0  0  0  0  0  0  0  0
   60.0070   34.6880   46.2400 C   0  0  0  0  0  0  0  0  0  0  0  0
   59.2330   34.6500   44.9080 C   0  0  0  0  0  0  0  0  0  0  0  0
   57.9200   33.8390   44.9780 C   0  0  0  0  0  0  0  0  0  0  0  0
   57.9330   32.8060   46.1110 C   0  0  0  0  0  0  0  0  0  0  0  0
   58.0970   33.4820   47.4850 C   0  0  0  0  0  0  0  0  0  0  0  0
   59.9550   31.3880   49.2170 C   0  0  0  0  0  0  0  0  0  0  0  0
   59.6670   30.1100   48.7280 C   0  0  0  0  0  0  0  0  0  0  0  0
   56.7670   23.7600   45.0060 C   0  0  0  0  0  0  0  0  0  0  0  0
   57.9360   23.4630   44.6300 O   0  0  0  0  0  0  0  0  0  0  0  0
   56.7635   21.9032   41.3991 H   0  0  0  0  0  0  0  0  0  0  0  0
   55.4786   22.7323   42.5356 H   0  0  0  0  0  0  0  0  0  0  0  0
   57.5394   20.5494   43.2496 H   0  0  0  0  0  0  0  0  0  0  0  0
   55.1843   20.7884   44.8174 H   0  0  0  0  0  0  0  0  0  0  0  0
   56.8314   21.0022   45.5245 H   0  0  0  0  0  0  0  0  0  0  0  0
   57.7343   26.5281   44.2156 H   0  0  0  0  0  0  0  0  0  0  0  0
   58.2374   26.4933   48.4040 H   0  0  0  0  0  0  0  0  0  0  0  0
   57.7527   24.9917   47.5457 H   0  0  0  0  0  0  0  0  0  0  0  0
   59.4723   25.5110   47.5457 H   0  0  0  0  0  0  0  0  0  0  0  0
   61.3579   30.2697   45.7596 H   0  0  0  0  0  0  0  0  0  0  0  0
   61.8865   32.5391   46.6408 H   0  0  0  0  0  0  0  0  0  0  0  0
   58.4151   35.5959   47.2818 H   0  0  0  0  0  0  0  0  0  0  0  0
   60.6326   35.5924   46.2656 H   0  0  0  0  0  0  0  0  0  0  0  0
   60.6293   33.7834   46.3067 H   0  0  0  0  0  0  0  0  0  0  0  0
   58.9888   35.6827   44.6182 H   0  0  0  0  0  0  0  0  0  0  0  0
   59.8813   34.1511   44.1726 H   0  0  0  0  0  0  0  0  0  0  0  0
   57.0834   34.5340   45.1427 H   0  0  0  0  0  0  0  0  0  0  0  0
   57.8098   33.2950   44.0283 H   0  0  0  0  0  0  0  0  0  0  0  0
   56.9852   32.2478   46.0975 H   0  0  0  0  0  0  0  0  0  0  0  0
   58.7862   32.1298   45.9535 H   0  0  0  0  0  0  0  0  0  0  0  0
   57.1075   33.8133   47.8330 H   0  0  0  0  0  0  0  0  0  0  0  0
   58.5445   32.7419   48.1646 H   0  0  0  0  0  0  0  0  0  0  0  0
   59.5537   31.7058   50.1906 H   0  0  0  0  0  0  0  0  0  0  0  0
   59.0313   29.4297   49.3137 H   0  0  0  0  0  0  0  0  0  0  0  0
  1  2  2  0
  2  3  1  0
  3  4  1  0
  4  5  1  0
  5  6  2  0
  5  7  1  0
  7  8  1  0
  8  9  1  0
  8 10  2  0
 10 11  1  0
 11 12  2  3
 12 13  1  0
 12 14  1  0
 14 15  2  0
 14 16  1  0
 16 17  1  0
 17 18  2  0
 18 19  1  0
 19 20  2  0
 20 21  1  0
 21 22  2  0
 21 23  2  0
 21 24  1  0
 24 25  1  0
 25 26  1  0
 26 27  1  0
 27 28  1  0
 28 29  1  0
 29 30  1  0
 20 31  1  0
 31 32  2  0
 10 33  1  0
 33 34  2  0
 33  4  1  0
 32 17  1  0
 30 25  1  0
  1 35  1  0
  1 36  1  0
  2 37  1  0
  3 38  1  0
  3 39  1  0
 11 40  1  0
 13 41  1  0
 13 42  1  0
 13 43  1  0
 18 44  1  0
 19 45  1  0
 25 46  1  0
 26 47  1  0
 26 48  1  0
 27 49  1  0
 27 50  1  0
 28 51  1  0
 28 52  1  0
 29 53  1  0
 29 54  1  0
 30 55  1  0
 30 56  1  0
 31 57  1  0
 32 58  1  0
M  CHG  4   7  -1   9  -1  16  -1  24  -1
M  END
>  <UniqueID>  (23) 
22

>  <SMILES>  (23) 
C=CCn1c(=O)[n-]c([O-])c(C=C(C)C(=O)[N-]c2ccc(S(=O)(=O)[N-]C3CCCCC3)cc2)c1=O

>  <Energy>  (23) 
78.82796765434621

>  <Genealogy>  (23) 
C=CCn1c(=O)[n-]c([O-])c(C=C(C)C(=O)[N-]c2ccc(S(=O)(=O)[N-]C3CCCCC3)cc2)c1=O (protonated)
C=CCn1c(=O)[n-]c([O-])c(C=C(C)C(=O)[N-]c2ccc(S(=O)(=O)[N-]C3CCCCC3)cc2)c1=O (3D coordinates assigned)
C=CCn1c(=O)[n-]c([O-])c(C=C(C)C(=O)[N-]c2ccc(S(=O)(=O)[N-]C3CCCCC3)cc2)c1=O (nonaromatic ring conformer: 78.82796765434621 kcal/mol)

>  <smiles>  (23) 
C=CCn1c(=O)[nH]c(O)c(C=C(C)C(=O)Nc2ccc(S(=O)(=O)NC3CCCCC3)cc2)c1=O

>  <score_type>  (23) 
oracle

>  <origin>  (23) 
adg

>  <m_score__min__energy>  (23) 
-17.420000000000002

>  <m_primary>  (23) 
energy

$$$$
23:0
     RDKit          3D

 52 54  0  0  0  0  0  0  0  0999 V2000
   49.5252   33.0179   53.1657 H   0  0  0  0  0  0  0  0  0  0  0  0
   50.3770   32.4220   52.8060 C   0  0  0  0  0  0  0  0  0  0  0  0
   51.0170   32.7790   51.6630 N   0  0  0  0  0  0  0  0  0  0  0  0
   52.0710   32.0700   51.1860 C   0  0  0  0  0  0  0  0  0  0  0  0
   52.5704   32.3911   50.2600 H   0  0  0  0  0  0  0  0  0  0  0  0
   52.5290   30.9300   51.8650 C   0  0  0  0  0  0  0  0  0  0  0  0
   53.7130   30.1790   51.3010 C   0  0  0  0  0  0  0  0  0  0  0  0
   53.3564   29.2600   50.8129 H   0  0  0  0  0  0  0  0  0  0  0  0
   54.2253   30.8277   50.5753 H   0  0  0  0  0  0  0  0  0  0  0  0
   54.6600   29.8230   52.3560 N   0  0  0  0  0  0  0  0  0  0  0  0
   54.3020   29.2360   53.1420 H   0  0  0  0  0  0  0  0  0  0  0  0
   55.8510   30.5870   52.5850 C   0  0  0  0  0  0  0  0  0  0  0  0
   56.3140   30.8250   53.8880 C   0  0  0  0  0  0  0  0  0  0  0  0
   55.7629   30.4184   54.7488 H   0  0  0  0  0  0  0  0  0  0  0  0
   57.4730   31.5770   54.0950 C   0  0  0  0  0  0  0  0  0  0  0  0
   57.8326   31.7596   55.1184 H   0  0  0  0  0  0  0  0  0  0  0  0
   58.1770   32.0980   53.0060 C   0  0  0  0  0  0  0  0  0  0  0  0
   59.0902   32.6876   53.1747 H   0  0  0  0  0  0  0  0  0  0  0  0
   57.7220   31.8710   51.6970 C   0  0  0  0  0  0  0  0  0  0  0  0
   58.5060   32.3770   50.5150 C   0  0  0  0  0  0  0  0  0  0  0  0
   59.1514   31.5662   50.1460 H   0  0  0  0  0  0  0  0  0  0  0  0
   57.7860   32.6998   49.7486 H   0  0  0  0  0  0  0  0  0  0  0  0
   59.3900   33.5910   50.8710 C   0  0  0  0  0  0  0  0  0  0  0  0
   58.7651   34.3392   51.3805 H   0  0  0  0  0  0  0  0  0  0  0  0
   60.2043   33.2214   51.5115 H   0  0  0  0  0  0  0  0  0  0  0  0
   60.0170   34.2280   49.6960 N   0  0  0  0  0  0  0  0  0  0  0  0
   60.8620   34.7720   49.9890 H   0  0  0  0  0  0  0  0  0  0  0  0
   60.4060   33.2810   48.6410 C   0  0  0  0  0  0  0  0  0  0  0  0
   61.4974   33.3215   48.5096 H   0  0  0  0  0  0  0  0  0  0  0  0
   60.0843   32.2744   48.9463 H   0  0  0  0  0  0  0  0  0  0  0  0
   59.7410   33.6110   47.3250 C   0  0  0  0  0  0  0  0  0  0  0  0
   59.8760   34.9040   46.7890 C   0  0  0  0  0  0  0  0  0  0  0  0
   60.4596   35.6617   47.3325 H   0  0  0  0  0  0  0  0  0  0  0  0
   59.2750   35.2340   45.5720 C   0  0  0  0  0  0  0  0  0  0  0  0
   59.3850   36.2488   45.1619 H   0  0  0  0  0  0  0  0  0  0  0  0
   58.5350   34.2770   44.8760 C   0  0  0  0  0  0  0  0  0  0  0  0
   58.0639   34.5377   43.9168 H   0  0  0  0  0  0  0  0  0  0  0  0
   58.3920   32.9890   45.3960 C   0  0  0  0  0  0  0  0  0  0  0  0
   57.8076   32.2380   44.8442 H   0  0  0  0  0  0  0  0  0  0  0  0
   58.9890   32.6480   46.6170 C   0  0  0  0  0  0  0  0  0  0  0  0
   58.7700   31.0130   47.2320 Cl  0  0  0  0  0  0  0  0  0  0  0  0
   56.5460   31.1290   51.4960 C   0  0  0  0  0  0  0  0  0  0  0  0
   56.1678   30.9723   50.4750 H   0  0  0  0  0  0  0  0  0  0  0  0
   51.8790   30.5280   53.0560 C   0  0  0  0  0  0  0  0  0  0  0  0
   52.3310   29.4870   53.7070 N   0  0  0  0  0  0  0  0  0  0  0  0
   52.4860   28.1310   53.2610 C   0  0  0  0  0  0  0  0  0  0  0  0
   53.3580   27.3730   53.7650 O   0  0  0  0  0  0  0  0  0  0  0  0
   51.5770   27.6050   52.2970 N   0  0  0  0  0  0  0  0  0  0  0  0
   51.6520   26.6110   51.9830 H   0  0  0  0  0  0  0  0  0  0  0  0
   50.8370   28.2150   51.8850 H   0  0  0  0  0  0  0  0  0  0  0  0
   50.7950   31.3030   53.5260 C   0  0  0  0  0  0  0  0  0  0  0  0
   50.2817   31.0243   54.4581 H   0  0  0  0  0  0  0  0  0  0  0  0
  1  2  1  0
  2  3  1  0
  3  4  1  0
  4  5  1  0
  4  6  2  0
  6  7  1  0
  7  8  1  0
  7  9  1  0
  7 10  1  0
 10 11  1  0
 10 12  1  0
 12 13  2  0
 13 14  1  0
 13 15  1  0
 15 16  1  0
 15 17  2  0
 17 18  1  0
 17 19  1  0
 19 20  1  0
 20 21  1  0
 20 22  1  0
 20 23  1  0
 23 24  1  0
 23 25  1  0
 23 26  1  0
 26 27  1  0
 26 28  1  0
 28 29  1  0
 28 30  1  0
 28 31  1  0
 31 32  2  0
 32 33  1  0
 32 34  1  0
 34 35  1  0
 34 36  2  0
 36 37  1  0
 36 38  1  0
 38 39  1  0
 38 40  2  0
 40 41  1  0
 19 42  2  0
 42 43  1  0
  6 44  1  0
 44 45  2  0
 45 46  1  0
 46 47  2  0
 46 48  1  0
 48 49  1  0
 48 50  1  0
 44 51  1  0
 51 52  1  0
 51  2  2  0
 42 12  1  0
 40 31  1  0
M  CHG  1   3  -1
M  END
>  <UniqueID>  (24) 
23

>  <SMILES>  (24) 
NC(=O)/N=c1\cc[n-]cc1CNc1cccc(CCNCc2ccccc2Cl)c1

>  <Energy>  (24) 
62.95569287322176

>  <Genealogy>  (24) 
NC(=O)N=c1cc[n-]cc1CNc1cccc(CCNCc2ccccc2Cl)c1 (protonated)
NC(=O)/N=c1\cc[n-]cc1CNc1cccc(CCNCc2ccccc2Cl)c1 (cis-trans isomerization)
NC(=O)/N=c1\cc[n-]cc1CNc1cccc(CCNCc2ccccc2Cl)c1 (3D coordinates assigned)
NC(=O)/N=c1\cc[n-]cc1CNc1cccc(CCNCc2ccccc2Cl)c1 (optimized conformer: 62.95569287322176 kcal/mol)

>  <smiles>  (24) 
NC(=O)N=c1cc[nH]cc1CNc1cccc(CCNCc2ccccc2Cl)c1

>  <score_type>  (24) 
oracle

>  <origin>  (24) 
adg

>  <m_score__min__energy>  (24) 
-11.859999999999999

>  <m_primary>  (24) 
energy

$$$$
24:0
     RDKit          3D

 59 62  0  0  1  0  0  0  0  0999 V2000
   64.2880   33.1980   48.5340 C   0  0  0  0  0  0  0  0  0  0  0  0
   62.8620   32.8760   48.2040 C   0  0  0  0  0  0  0  0  0  0  0  0
   62.4010   31.5700   48.1500 C   0  0  0  0  0  0  0  0  0  0  0  0
   61.0600   31.3350   47.8360 C   0  0  0  0  0  0  0  0  0  0  0  0
   60.6910   30.0990   47.8020 N   0  0  0  0  0  0  0  0  0  0  0  0
   59.0810   29.7480   48.3300 S   0  0  0  0  0  0  0  0  0  0  0  0
   58.8590   28.2630   48.5090 O   0  0  0  0  0  0  0  0  0  0  0  0
   58.1410   30.2910   47.3130 O   0  0  0  0  0  0  0  0  0  0  0  0
   58.7910   30.4780   49.9150 C   0  0  0  0  0  0  0  0  0  0  0  0
   58.8640   29.7300   51.0740 C   0  0  0  0  0  0  0  0  0  0  0  0
   58.6250   30.3660   52.2740 C   0  0  0  0  0  0  0  0  0  0  0  0
   58.3160   31.7210   52.3520 C   0  0  0  0  0  0  0  0  0  0  0  0
   58.2420   32.4710   51.1860 C   0  0  0  0  0  0  0  0  0  0  0  0
   58.4810   31.8410   49.9750 C   0  0  0  0  0  0  0  0  0  0  0  0
   60.2280   32.3560   47.5900 N   0  0  0  0  0  0  0  0  0  0  0  0
   60.7140   33.6260   47.6510 C   0  0  0  0  0  0  0  0  0  0  0  0
   59.7310   34.7180   47.3650 C   0  0  0  0  0  0  0  0  0  0  0  0
   59.6370   35.0480   45.5960 S   0  0  0  0  0  0  0  0  0  0  0  0
   57.9720   34.6130   45.0290 C   0  0  0  0  0  0  0  0  0  0  0  0
   57.7630   33.1250   45.0510 C   0  0  0  0  0  0  0  0  0  0  0  0
   57.4920   32.5050   46.1150 O   0  0  0  0  0  0  0  0  0  0  0  0
   57.8940   32.4700   43.7860 N   0  0  0  0  0  0  0  0  0  0  0  0
   57.4670   31.2380   43.7280 C   0  0  0  0  0  0  0  0  0  0  0  0
   56.8910   30.6260   42.6810 N   0  0  0  0  0  0  0  0  0  0  0  0
   56.5810   29.3420   42.9990 C   0  0  0  0  0  0  0  0  0  0  0  0
   56.9860   29.1570   44.3040 C   0  0  0  0  0  0  0  0  0  0  0  0
   56.8980   27.9520   45.1660 C   0  0  0  0  0  0  0  0  0  0  0  0
   58.2700   27.5230   45.5800 C   0  0  0  0  0  0  0  0  0  0  0  0
   59.4010   28.2580   45.2280 C   0  0  0  0  0  0  0  0  0  0  0  0
   60.6620   27.8480   45.6160 C   0  0  0  0  0  0  0  0  0  0  0  0
   60.7710   26.6880   46.3660 C   0  0  0  0  0  0  0  0  0  0  0  0
   59.6460   25.9550   46.7190 C   0  0  0  0  0  0  0  0  0  0  0  0
   58.3920   26.3710   46.3260 C   0  0  0  0  0  0  0  0  0  0  0  0
   57.5180   30.3260   44.7130 N   0  0  0  0  0  0  0  0  0  0  0  0
   62.0010   33.8730   47.9510 N   0  0  0  0  0  0  0  0  0  0  0  0
   64.4141   33.2265   49.6264 H   0  0  0  0  0  0  0  0  0  0  0  0
   64.9461   32.4258   48.1089 H   0  0  0  0  0  0  0  0  0  0  0  0
   64.5504   34.1780   48.1089 H   0  0  0  0  0  0  0  0  0  0  0  0
   63.0818   30.7298   48.3517 H   0  0  0  0  0  0  0  0  0  0  0  0
   59.1059   28.6574   51.0407 H   0  0  0  0  0  0  0  0  0  0  0  0
   58.6806   29.7810   53.2039 H   0  0  0  0  0  0  0  0  0  0  0  0
   58.1322   32.1932   53.3284 H   0  0  0  0  0  0  0  0  0  0  0  0
   57.9987   33.5431   51.2226 H   0  0  0  0  0  0  0  0  0  0  0  0
   58.4259   32.4235   49.0435 H   0  0  0  0  0  0  0  0  0  0  0  0
   59.2440   32.1900   47.3590 H   0  0  0  0  0  0  0  0  0  0  0  0
   58.7383   34.4137   47.7282 H   0  0  0  0  0  0  0  0  0  0  0  0
   60.0624   35.6334   47.8771 H   0  0  0  0  0  0  0  0  0  0  0  0
   57.2321   35.0892   45.6891 H   0  0  0  0  0  0  0  0  0  0  0  0
   57.8524   34.9667   43.9943 H   0  0  0  0  0  0  0  0  0  0  0  0
   56.7150   31.0760   41.7740 H   0  0  0  0  0  0  0  0  0  0  0  0
   56.1022   28.5980   42.3454 H   0  0  0  0  0  0  0  0  0  0  0  0
   56.3031   28.1861   46.0611 H   0  0  0  0  0  0  0  0  0  0  0  0
   56.4174   27.1378   44.6037 H   0  0  0  0  0  0  0  0  0  0  0  0
   59.2880   29.1766   44.6335 H   0  0  0  0  0  0  0  0  0  0  0  0
   61.5550   28.4266   45.3372 H   0  0  0  0  0  0  0  0  0  0  0  0
   61.7648   26.3424   46.6868 H   0  0  0  0  0  0  0  0  0  0  0  0
   59.7560   25.0373   47.3155 H   0  0  0  0  0  0  0  0  0  0  0  0
   57.5000   25.7906   46.6044 H   0  0  0  0  0  0  0  0  0  0  0  0
   57.9160   30.5000   45.6670 H   0  0  0  0  0  0  0  0  0  0  0  0
  1  2  1  0
  2  3  2  0
  3  4  1  0
  4  5  2  0
  5  6  1  0
  6  7  2  0
  6  8  2  0
  6  9  1  0
  9 10  2  0
 10 11  1  0
 11 12  2  0
 12 13  1  0
 13 14  2  0
  4 15  1  0
 15 16  1  0
 16 17  1  0
 17 18  1  0
 18 19  1  0
 19 20  1  0
 20 21  2  0
 20 22  1  0
 22 23  2  0
 23 24  1  0
 24 25  1  0
 25 26  2  0
 26 27  1  0
 27 28  1  0
 28 29  2  0
 29 30  1  0
 30 31  2  0
 31 32  1  0
 32 33  2  0
 26 34  1  0
 16 35  2  0
 35  2  1  0
 14  9  1  0
 34 23  1  0
 33 28  1  0
  1 36  1  0
  1 37  1  0
  1 38  1  0
  3 39  1  0
 10 40  1  0
 11 41  1  0
 12 42  1  0
 13 43  1  0
 14 44  1  0
 15 45  1  0
 17 46  1  0
 17 47  1  0
 19 48  1  0
 19 49  1  0
 24 50  1  0
 25 51  1  0
 27 52  1  0
 27 53  1  0
 29 54  1  0
 30 55  1  0
 31 56  1  0
 32 57  1  0
 33 58  1  0
 34 59  1  0
M  END
>  <smiles>  (25) 
Cc1cc(=NS(=O)(=O)c2ccccc2)[nH]c(CSCC(=O)N=c2[nH]cc(Cc3ccccc3)[nH]2)n1

>  <score_type>  (25) 
oracle

>  <origin>  (25) 
adg

>  <m_score__min__energy>  (25) 
-10.1

>  <m_primary>  (25) 
energy

$$$$
25:0
     RDKit          3D

 45 47  0  0  0  0  0  0  0  0999 V2000
   59.3500   34.7360   46.2320 C   0  0  0  0  0  0  0  0  0  0  0  0
   58.7400   33.6220   45.4230 C   0  0  0  0  0  0  0  0  0  0  0  0
   58.7400   33.7240   44.0240 C   0  0  0  0  0  0  0  0  0  0  0  0
   58.1690   32.7250   43.2440 C   0  0  0  0  0  0  0  0  0  0  0  0
   57.6020   31.6030   43.8470 C   0  0  0  0  0  0  0  0  0  0  0  0
   57.6080   31.4650   45.2420 C   0  0  0  0  0  0  0  0  0  0  0  0
   57.0220   30.3130   45.8650 N   0  0  0  0  0  0  0  0  0  0  0  0
   56.4800   29.1640   45.1970 C   0  0  0  0  0  0  0  0  0  0  0  0
   55.2880   29.1570   44.7840 O   0  0  0  0  0  0  0  0  0  0  0  0
   57.3720   28.0010   44.9000 C   0  0  0  0  0  0  0  0  0  0  0  0
   58.7980   28.4040   45.0870 C   0  0  0  0  0  0  0  0  0  0  0  0
   59.6950   28.2550   44.1540 N   0  0  0  0  0  0  0  0  0  0  0  0
   60.8410   28.8630   44.7150 C   0  0  0  0  0  0  0  0  0  0  0  0
   61.9610   28.9520   44.1500 O   0  0  0  0  0  0  0  0  0  0  0  0
   60.4880   29.3780   46.0160 C   0  0  0  0  0  0  0  0  0  0  0  0
   61.3490   30.0860   46.9130 N   0  0  0  0  0  0  0  0  0  0  0  0
   60.8900   30.5790   48.2080 C   0  0  0  0  0  0  0  0  0  0  0  0
   61.4940   31.9240   48.5030 C   0  0  0  0  0  0  0  0  0  0  0  0
   60.9870   32.7230   49.5420 C   0  0  0  0  0  0  0  0  0  0  0  0
   61.5630   33.9680   49.8160 C   0  0  0  0  0  0  0  0  0  0  0  0
   62.6470   34.4230   49.0580 C   0  0  0  0  0  0  0  0  0  0  0  0
   63.1570   33.6320   48.0230 C   0  0  0  0  0  0  0  0  0  0  0  0
   62.5820   32.3870   47.7450 C   0  0  0  0  0  0  0  0  0  0  0  0
   59.2490   29.1090   46.2530 N   0  0  0  0  0  0  0  0  0  0  0  0
   58.1450   32.4950   46.0450 C   0  0  0  0  0  0  0  0  0  0  0  0
   58.1510   32.3690   47.5530 C   0  0  0  0  0  0  0  0  0  0  0  0
   59.2309   34.5186   47.3037 H   0  0  0  0  0  0  0  0  0  0  0  0
   60.4201   34.8202   45.9916 H   0  0  0  0  0  0  0  0  0  0  0  0
   58.8446   35.6830   45.9916 H   0  0  0  0  0  0  0  0  0  0  0  0
   59.1952   34.6010   43.5405 H   0  0  0  0  0  0  0  0  0  0  0  0
   58.1645   32.8199   42.1481 H   0  0  0  0  0  0  0  0  0  0  0  0
   57.1464   30.8199   43.2232 H   0  0  0  0  0  0  0  0  0  0  0  0
   57.1330   27.1723   45.5828 H   0  0  0  0  0  0  0  0  0  0  0  0
   57.2168   27.6772   43.8603 H   0  0  0  0  0  0  0  0  0  0  0  0
   62.3360   30.2750   46.6270 H   0  0  0  0  0  0  0  0  0  0  0  0
   59.7938   30.6697   48.1931 H   0  0  0  0  0  0  0  0  0  0  0  0
   61.2010   29.8700   48.9894 H   0  0  0  0  0  0  0  0  0  0  0  0
   60.1353   32.3686   50.1412 H   0  0  0  0  0  0  0  0  0  0  0  0
   61.1625   34.5907   50.6295 H   0  0  0  0  0  0  0  0  0  0  0  0
   63.0982   35.4023   49.2756 H   0  0  0  0  0  0  0  0  0  0  0  0
   64.0103   33.9889   47.4275 H   0  0  0  0  0  0  0  0  0  0  0  0
   62.9839   31.7682   46.9292 H   0  0  0  0  0  0  0  0  0  0  0  0
   58.1033   33.3708   48.0048 H   0  0  0  0  0  0  0  0  0  0  0  0
   57.2799   31.7796   47.8752 H   0  0  0  0  0  0  0  0  0  0  0  0
   59.0742   31.8650   47.8752 H   0  0  0  0  0  0  0  0  0  0  0  0
  1  2  1  0
  2  3  2  0
  3  4  1  0
  4  5  2  0
  5  6  1  0
  6  7  1  0
  7  8  1  0
  8  9  2  0
  8 10  1  0
 10 11  1  0
 11 12  2  0
 12 13  1  0
 13 14  2  0
 13 15  1  0
 15 16  1  0
 16 17  1  0
 17 18  1  0
 18 19  2  0
 19 20  1  0
 20 21  2  0
 21 22  1  0
 22 23  2  0
 15 24  2  0
  6 25  2  0
 25 26  1  0
 25  2  1  0
 24 11  1  0
 23 18  1  0
  1 27  1  0
  1 28  1  0
  1 29  1  0
  3 30  1  0
  4 31  1  0
  5 32  1  0
 10 33  1  0
 10 34  1  0
 16 35  1  0
 17 36  1  0
 17 37  1  0
 19 38  1  0
 20 39  1  0
 21 40  1  0
 22 41  1  0
 23 42  1  0
 26 43  1  0
 26 44  1  0
 26 45  1  0
M  CHG  1   7  -1
M  END
>  <UniqueID>  (26) 
24

>  <SMILES>  (26) 
Cc1cccc([N-]C(=O)CC2=NC(=O)C(NCc3ccccc3)=N2)c1C

>  <Energy>  (26) 
75.33939457784352

>  <Genealogy>  (26) 
Cc1cccc([N-]C(=O)CC2=NC(=O)C(NCc3ccccc3)=N2)c1C (protonated)
Cc1cccc([N-]C(=O)CC2=NC(=O)C(NCc3ccccc3)=N2)c1C (3D coordinates assigned)
Cc1cccc([N-]C(=O)CC2=NC(=O)C(NCc3ccccc3)=N2)c1C (nonaromatic ring conformer: 75.33939457784352 kcal/mol)

>  <smiles>  (26) 
Cc1cccc(NC(=O)CC2=NC(=O)C(NCc3ccccc3)=N2)c1C

>  <score_type>  (26) 
oracle

>  <origin>  (26) 
adg

>  <m_score__min__energy>  (26) 
-10.460000000000001

>  <m_primary>  (26) 
energy

$$$$
26:0
     RDKit          3D

 45 47  0  0  0  0  0  0  0  0999 V2000
   56.2160   29.7230   42.9760 C   0  0  0  0  0  0  0  0  0  0  0  0
   56.1340   30.0780   44.4670 C   0  0  0  0  0  0  0  0  0  0  0  0
   57.2890   30.8600   44.9750 N   0  0  0  0  0  0  0  0  0  0  0  0
   57.3900   32.2170   44.3980 C   0  0  0  0  0  0  0  0  0  0  0  0
   58.0860   33.1520   45.3510 C   0  0  0  0  0  0  0  0  0  0  0  0
   58.9580   34.1360   44.8560 C   0  0  0  0  0  0  0  0  0  0  0  0
   59.6240   34.9930   45.7370 C   0  0  0  0  0  0  0  0  0  0  0  0
   59.4280   34.8710   47.1150 C   0  0  0  0  0  0  0  0  0  0  0  0
   58.5670   33.8910   47.6150 C   0  0  0  0  0  0  0  0  0  0  0  0
   57.8990   33.0320   46.7380 C   0  0  0  0  0  0  0  0  0  0  0  0
   58.5650   30.1200   44.8730 C   0  0  0  0  0  0  0  0  0  0  0  0
   59.2870   30.1550   46.2010 C   0  0  0  0  0  0  0  0  0  0  0  0
   60.3600   31.0370   46.3690 C   0  0  0  0  0  0  0  0  0  0  0  0
   61.0640   31.0720   47.5760 C   0  0  0  0  0  0  0  0  0  0  0  0
   62.1420   31.9510   47.7420 C   0  0  0  0  0  0  0  0  0  0  0  0
   62.8410   31.9820   48.9480 C   0  0  0  0  0  0  0  0  0  0  0  0
   62.4740   31.1370   49.9950 C   0  0  0  0  0  0  0  0  0  0  0  0
   61.3970   30.2440   49.8540 C   0  0  0  0  0  0  0  0  0  0  0  0
   61.0380   29.3490   51.0110 C   0  0  0  0  0  0  0  0  0  0  0  0
   60.6800   30.2070   48.6290 C   0  0  0  0  0  0  0  0  0  0  0  0
   59.6250   29.3530   48.4400 N   0  0  0  0  0  0  0  0  0  0  0  0
   58.9340   29.3080   47.2660 C   0  0  0  0  0  0  0  0  0  0  0  0
   57.9760   28.4960   47.1450 O   0  0  0  0  0  0  0  0  0  0  0  0
   56.4623   28.6566   42.8660 H   0  0  0  0  0  0  0  0  0  0  0  0
   55.2471   29.9269   42.4967 H   0  0  0  0  0  0  0  0  0  0  0  0
   56.9973   30.3311   42.4967 H   0  0  0  0  0  0  0  0  0  0  0  0
   55.2202   30.6681   44.6305 H   0  0  0  0  0  0  0  0  0  0  0  0
   56.1331   29.1255   45.0172 H   0  0  0  0  0  0  0  0  0  0  0  0
   57.9609   32.1682   43.4590 H   0  0  0  0  0  0  0  0  0  0  0  0
   56.3750   32.5967   44.2093 H   0  0  0  0  0  0  0  0  0  0  0  0
   59.1172   34.2324   43.7719 H   0  0  0  0  0  0  0  0  0  0  0  0
   60.3032   35.7643   45.3449 H   0  0  0  0  0  0  0  0  0  0  0  0
   59.9520   35.5470   47.8067 H   0  0  0  0  0  0  0  0  0  0  0  0
   58.4147   33.7954   48.7002 H   0  0  0  0  0  0  0  0  0  0  0  0
   57.2244   32.2592   47.1353 H   0  0  0  0  0  0  0  0  0  0  0  0
   58.3598   29.0752   44.5967 H   0  0  0  0  0  0  0  0  0  0  0  0
   59.1963   30.5903   44.1047 H   0  0  0  0  0  0  0  0  0  0  0  0
   60.6513   31.7068   45.5465 H   0  0  0  0  0  0  0  0  0  0  0  0
   62.4377   32.6183   46.9190 H   0  0  0  0  0  0  0  0  0  0  0  0
   63.6853   32.6757   49.0741 H   0  0  0  0  0  0  0  0  0  0  0  0
   63.0333   31.1694   50.9417 H   0  0  0  0  0  0  0  0  0  0  0  0
   61.2472   29.8705   51.9567 H   0  0  0  0  0  0  0  0  0  0  0  0
   59.9687   29.0958   50.9607 H   0  0  0  0  0  0  0  0  0  0  0  0
   61.6359   28.4271   50.9607 H   0  0  0  0  0  0  0  0  0  0  0  0
   59.3230   28.7040   49.2000 H   0  0  0  0  0  0  0  0  0  0  0  0
  1  2  1  0
  2  3  1  0
  3  4  1  0
  4  5  1  0
  5  6  2  0
  6  7  1  0
  7  8  2  0
  8  9  1  0
  9 10  2  0
  3 11  1  0
 11 12  1  0
 12 13  2  0
 13 14  1  0
 14 15  2  0
 15 16  1  0
 16 17  2  0
 17 18  1  0
 18 19  1  0
 18 20  2  0
 20 21  1  0
 21 22  1  0
 22 23  2  0
 10  5  1  0
 22 12  1  0
 20 14  1  0
  1 24  1  0
  1 25  1  0
  1 26  1  0
  2 27  1  0
  2 28  1  0
  4 29  1  0
  4 30  1  0
  6 31  1  0
  7 32  1  0
  8 33  1  0
  9 34  1  0
 10 35  1  0
 11 36  1  0
 11 37  1  0
 13 38  1  0
 15 39  1  0
 16 40  1  0
 17 41  1  0
 19 42  1  0
 19 43  1  0
 19 44  1  0
 21 45  1  0
M  END
>  <UniqueID>  (27) 
25

>  <SMILES>  (27) 
CCN(Cc1ccccc1)Cc1cc2cccc(C)c2[nH]c1=O

>  <Energy>  (27) 
54.63375364546769

>  <Genealogy>  (27) 
CCN(Cc1ccccc1)Cc1cc2cccc(C)c2[nH]c1=O (3D coordinates assigned)
CCN(Cc1ccccc1)Cc1cc2cccc(C)c2[nH]c1=O (optimized conformer: 54.63375364546769 kcal/mol)

>  <smiles>  (27) 
CCN(Cc1ccccc1)Cc1cc2cccc(C)c2[nH]c1=O

>  <score_type>  (27) 
oracle

>  <origin>  (27) 
adg

>  <m_score__min__energy>  (27) 
-8.6799999999999997

>  <m_primary>  (27) 
energy

$$$$
27:0
     RDKit          3D

 47 49  0  0  0  0  0  0  0  0999 V2000
   61.6390   30.8790   47.0580 C   0  0  0  0  0  0  0  0  0  0  0  0
   60.7940   29.8240   46.4300 C   0  0  0  0  0  0  0  0  0  0  0  0
   61.1200   29.3530   45.3060 O   0  0  0  0  0  0  0  0  0  0  0  0
   59.6760   29.3370   47.1120 O   0  0  0  0  0  0  0  0  0  0  0  0
   58.5130   30.1270   47.3350 C   0  0  0  0  0  0  0  0  0  0  0  0
   58.2980   31.0560   46.1630 C   0  0  0  0  0  0  0  0  0  0  0  0
   57.6670   30.5810   44.9920 C   0  0  0  0  0  0  0  0  0  0  0  0
   57.2180   29.2490   44.9620 O   0  0  0  0  0  0  0  0  0  0  0  0
   57.8510   28.1580   44.2900 C   0  0  0  0  0  0  0  0  0  0  0  0
   57.5930   26.8120   44.9870 C   0  0  0  0  0  0  0  0  0  0  0  0
   56.6330   26.9250   46.1760 C   0  0  0  0  0  0  0  0  0  0  0  0
   55.4910   26.0390   45.9770 N   0  0  0  0  0  0  0  0  0  0  0  0
   55.4950   24.6080   46.0660 C   0  0  0  0  0  0  0  0  0  0  0  0
   55.1140   24.0790   47.1440 O   0  0  0  0  0  0  0  0  0  0  0  0
   55.9240   23.7310   44.9540 C   0  0  0  0  0  0  0  0  0  0  0  0
   56.5080   24.1780   43.7810 C   0  0  0  0  0  0  0  0  0  0  0  0
   56.7300   23.0630   43.0050 C   0  0  0  0  0  0  0  0  0  0  0  0
   56.2690   22.0000   43.7470 C   0  0  0  0  0  0  0  0  0  0  0  0
   56.3050   20.6740   43.3300 O   0  0  0  0  0  0  0  0  0  0  0  0
   55.7730   22.3910   44.9350 N   0  0  0  0  0  0  0  0  0  0  0  0
   57.5000   31.4460   43.8940 C   0  0  0  0  0  0  0  0  0  0  0  0
   57.9030   32.7800   43.9700 C   0  0  0  0  0  0  0  0  0  0  0  0
   58.4810   33.2720   45.1440 C   0  0  0  0  0  0  0  0  0  0  0  0
   58.8700   34.6150   45.2460 C   0  0  0  0  0  0  0  0  0  0  0  0
   59.4400   35.0850   46.4300 C   0  0  0  0  0  0  0  0  0  0  0  0
   59.6160   34.2080   47.5030 C   0  0  0  0  0  0  0  0  0  0  0  0
   60.1280   34.6170   48.5770 O   0  0  0  0  0  0  0  0  0  0  0  0
   59.2380   32.9070   47.3880 N   0  0  0  0  0  0  0  0  0  0  0  0
   58.6790   32.4120   46.2470 C   0  0  0  0  0  0  0  0  0  0  0  0
   61.5737   30.7975   48.1530 H   0  0  0  0  0  0  0  0  0  0  0  0
   62.6845   30.7476   46.7422 H   0  0  0  0  0  0  0  0  0  0  0  0
   61.2825   31.8705   46.7422 H   0  0  0  0  0  0  0  0  0  0  0  0
   57.6388   29.4684   47.4451 H   0  0  0  0  0  0  0  0  0  0  0  0
   58.6452   30.7205   48.2517 H   0  0  0  0  0  0  0  0  0  0  0  0
   57.4636   28.1036   43.2619 H   0  0  0  0  0  0  0  0  0  0  0  0
   58.9358   28.3400   44.3025 H   0  0  0  0  0  0  0  0  0  0  0  0
   57.1613   26.1150   44.2536 H   0  0  0  0  0  0  0  0  0  0  0  0
   58.5574   26.4544   45.3770 H   0  0  0  0  0  0  0  0  0  0  0  0
   57.1597   26.6398   47.0986 H   0  0  0  0  0  0  0  0  0  0  0  0
   56.2770   27.9626   46.2572 H   0  0  0  0  0  0  0  0  0  0  0  0
   56.7475   25.2195   43.5204 H   0  0  0  0  0  0  0  0  0  0  0  0
   57.1812   23.0290   42.0024 H   0  0  0  0  0  0  0  0  0  0  0  0
   57.0580   20.0630   43.6210 H   0  0  0  0  0  0  0  0  0  0  0  0
   57.0470   31.0664   42.9662 H   0  0  0  0  0  0  0  0  0  0  0  0
   57.7656   33.4453   43.1049 H   0  0  0  0  0  0  0  0  0  0  0  0
   58.7263   35.2967   44.3948 H   0  0  0  0  0  0  0  0  0  0  0  0
   59.7481   36.1373   46.5176 H   0  0  0  0  0  0  0  0  0  0  0  0
  1  2  1  0
  2  3  2  0
  2  4  1  0
  4  5  1  0
  5  6  1  0
  6  7  2  0
  7  8  1  0
  8  9  1  0
  9 10  1  0
 10 11  1  0
 11 12  1  0
 12 13  1  0
 13 14  2  0
 13 15  1  0
 15 16  2  0
 16 17  1  0
 17 18  2  0
 18 19  1  0
 18 20  1  0
  7 21  1  0
 21 22  2  0
 22 23  1  0
 23 24  1  0
 24 25  2  0
 25 26  1  0
 26 27  2  0
 26 28  1  0
 28 29  1  0
 29  6  1  0
 20 15  1  0
 29 23  2  0
  1 30  1  0
  1 31  1  0
  1 32  1  0
  5 33  1  0
  5 34  1  0
  9 35  1  0
  9 36  1  0
 10 37  1  0
 10 38  1  0
 11 39  1  0
 11 40  1  0
 16 41  1  0
 17 42  1  0
 19 43  1  0
 21 44  1  0
 22 45  1  0
 24 46  1  0
 25 47  1  0
M  CHG  3  12  -1  20  -1  28  -1
M  END
>  <UniqueID>  (28) 
26

>  <SMILES>  (28) 
CC(=O)OCc1c(OCCC[N-]C(=O)c2ccc(O)[n-]2)ccc2ccc(=O)[n-]c12

>  <Energy>  (28) 
68.03648854261736

>  <Genealogy>  (28) 
CC(=O)OCc1c(OCCC[N-]C(=O)c2ccc(O)[n-]2)ccc2ccc(=O)[n-]c12 (protonated)
CC(=O)OCc1c(OCCC[N-]C(=O)c2ccc(O)[n-]2)ccc2ccc(=O)[n-]c12 (3D coordinates assigned)
CC(=O)OCc1c(OCCC[N-]C(=O)c2ccc(O)[n-]2)ccc2ccc(=O)[n-]c12 (optimized conformer: 68.03648854261736 kcal/mol)

>  <smiles>  (28) 
CC(=O)OCc1c(OCCCNC(=O)c2ccc(O)[nH]2)ccc2ccc(=O)[nH]c12

>  <score_type>  (28) 
oracle

>  <origin>  (28) 
adg

>  <m_score__min__energy>  (28) 
-13.460000000000001

>  <m_primary>  (28) 
energy

$$$$
28:0
     RDKit          3D

 33 34  0  0  0  0  0  0  0  0999 V2000
   58.2350   34.3278   43.4354 H   0  0  0  0  0  0  0  0  0  0  0  0
   58.1350   33.4750   44.1230 C   0  0  0  0  0  0  0  0  0  0  0  0
   57.7940   32.2180   43.6200 C   0  0  0  0  0  0  0  0  0  0  0  0
   57.6368   32.0847   42.5395 H   0  0  0  0  0  0  0  0  0  0  0  0
   57.6510   31.1240   44.4870 C   0  0  0  0  0  0  0  0  0  0  0  0
   57.3160   29.7590   43.9450 C   0  0  0  0  0  0  0  0  0  0  0  0
   56.8422   29.8709   42.9586 H   0  0  0  0  0  0  0  0  0  0  0  0
   58.2466   29.1780   43.8644 H   0  0  0  0  0  0  0  0  0  0  0  0
   56.3730   29.0250   44.8630 C   0  0  0  0  0  0  0  0  0  0  0  0
   55.1500   29.3310   44.8670 O   0  0  0  0  0  0  0  0  0  0  0  0
   56.8150   27.9540   45.7110 N   0  0  0  0  0  0  0  0  0  0  0  0
   56.4180   26.7150   45.6810 C   0  0  0  0  0  0  0  0  0  0  0  0
   55.1680   26.3580   46.0430 N   0  0  0  0  0  0  0  0  0  0  0  0
   54.9630   25.0420   45.9950 N   0  0  0  0  0  0  0  0  0  0  0  0
   56.0490   24.3450   45.5920 C   0  0  0  0  0  0  0  0  0  0  0  0
   56.0970   22.8580   45.5260 C   0  0  0  0  0  0  0  0  0  0  0  0
   56.1103   22.4460   46.5458 H   0  0  0  0  0  0  0  0  0  0  0  0
   55.2104   22.4859   44.9917 H   0  0  0  0  0  0  0  0  0  0  0  0
   57.0058   22.5438   44.9917 H   0  0  0  0  0  0  0  0  0  0  0  0
   57.3590   25.3640   45.3000 S   0  0  0  0  0  0  0  0  0  0  0  0
   57.8740   31.3030   45.8600 C   0  0  0  0  0  0  0  0  0  0  0  0
   57.7802   30.4477   46.5453 H   0  0  0  0  0  0  0  0  0  0  0  0
   58.2150   32.5630   46.3630 C   0  0  0  0  0  0  0  0  0  0  0  0
   58.3775   32.6959   47.4428 H   0  0  0  0  0  0  0  0  0  0  0  0
   58.3510   33.6610   45.4940 C   0  0  0  0  0  0  0  0  0  0  0  0
   58.6890   34.9500   45.9400 O   0  0  0  0  0  0  0  0  0  0  0  0
   59.8970   35.3050   46.6150 C   0  0  0  0  0  0  0  0  0  0  0  0
   59.9244   36.3956   46.7556 H   0  0  0  0  0  0  0  0  0  0  0  0
   60.7514   34.9760   46.0052 H   0  0  0  0  0  0  0  0  0  0  0  0
   59.9770   34.6230   47.9770 C   0  0  0  0  0  0  0  0  0  0  0  0
   59.8883   35.3788   48.7713 H   0  0  0  0  0  0  0  0  0  0  0  0
   59.1581   33.8945   48.0710 H   0  0  0  0  0  0  0  0  0  0  0  0
   60.9422   34.1038   48.0710 H   0  0  0  0  0  0  0  0  0  0  0  0
  1  2  1  0
  2  3  2  0
  3  4  1  0
  3  5  1  0
  5  6  1  0
  6  7  1  0
  6  8  1  0
  6  9  1  0
  9 10  2  0
  9 11  1  0
 11 12  2  0
 12 13  1  0
 13 14  1  0
 14 15  2  0
 15 16  1  0
 16 17  1  0
 16 18  1  0
 16 19  1  0
 15 20  1  0
  5 21  2  0
 21 22  1  0
 21 23  1  0
 23 24  1  0
 23 25  2  0
 25 26  1  0
 26 27  1  0
 27 28  1  0
 27 29  1  0
 27 30  1  0
 30 31  1  0
 30 32  1  0
 30 33  1  0
 25  2  1  0
 20 12  1  0
M  CHG  1  13  -1
M  END
>  <UniqueID>  (29) 
27

>  <SMILES>  (29) 
CCOc1ccc(CC(=O)/N=c2/[n-]nc(C)s2)cc1

>  <Energy>  (29) 
69.22847125537638

>  <Genealogy>  (29) 
CCOc1ccc(CC(=O)N=c2[n-]nc(C)s2)cc1 (protonated)
CCOc1ccc(CC(=O)/N=c2/[n-]nc(C)s2)cc1 (cis-trans isomerization)
CCOc1ccc(CC(=O)/N=c2/[n-]nc(C)s2)cc1 (3D coordinates assigned)
CCOc1ccc(CC(=O)/N=c2/[n-]nc(C)s2)cc1 (optimized conformer: 69.22847125537638 kcal/mol)

>  <smiles>  (29) 
CCOc1ccc(CC(=O)N=c2[nH]nc(C)s2)cc1

>  <score_type>  (29) 
oracle

>  <origin>  (29) 
adg

>  <m_score__min__energy>  (29) 
-9.4000000000000004

>  <m_primary>  (29) 
energy

$$$$
29:0
     RDKit          3D

 60 62  0  0  0  0  0  0  0  0999 V2000
   60.7290   30.9190   46.7600 C   0  0  0  0  0  0  0  0  0  0  0  0
   60.7020   29.6550   47.6180 C   0  0  0  0  0  0  0  0  0  0  0  0
   59.3260   29.1170   47.7400 N   0  0  0  0  0  0  0  0  0  0  0  0
   58.9310   29.0120   49.1680 C   0  0  0  0  0  0  0  0  0  0  0  0
   59.5080   30.1910   49.9620 C   0  0  0  0  0  0  0  0  0  0  0  0
   58.4710   30.8140   50.8990 C   0  0  0  0  0  0  0  0  0  0  0  0
   58.3760   32.2490   50.6590 N   0  0  0  0  0  0  0  0  0  0  0  0
   59.4640   33.1780   50.7590 C   0  0  0  0  0  0  0  0  0  0  0  0
   59.4750   33.9920   51.7190 O   0  0  0  0  0  0  0  0  0  0  0  0
   60.5460   33.2410   49.7540 C   0  0  0  0  0  0  0  0  0  0  0  0
   60.4130   34.0850   48.6430 C   0  0  0  0  0  0  0  0  0  0  0  0
   61.4370   34.1700   47.6940 C   0  0  0  0  0  0  0  0  0  0  0  0
   62.6080   33.4130   47.8480 C   0  0  0  0  0  0  0  0  0  0  0  0
   63.7250   33.5270   46.8550 C   0  0  0  0  0  0  0  0  0  0  0  0
   62.7590   32.6010   48.9800 C   0  0  0  0  0  0  0  0  0  0  0  0
   61.7350   32.5160   49.9280 C   0  0  0  0  0  0  0  0  0  0  0  0
   59.1960   27.8090   47.0580 C   0  0  0  0  0  0  0  0  0  0  0  0
   57.8350   27.6900   46.4340 C   0  0  0  0  0  0  0  0  0  0  0  0
   56.9590   26.7160   46.7420 N   0  0  0  0  0  0  0  0  0  0  0  0
   55.8830   27.0150   45.9910 C   0  0  0  0  0  0  0  0  0  0  0  0
   54.8380   26.3130   45.9920 O   0  0  0  0  0  0  0  0  0  0  0  0
   56.0140   28.1230   45.2320 N   0  0  0  0  0  0  0  0  0  0  0  0
   57.2500   28.5570   45.5300 C   0  0  0  0  0  0  0  0  0  0  0  0
   57.8890   29.7480   44.8740 C   0  0  0  0  0  0  0  0  0  0  0  0
   56.9200   30.9360   44.7880 C   0  0  0  0  0  0  0  0  0  0  0  0
   57.6000   32.2340   45.1430 C   0  0  0  0  0  0  0  0  0  0  0  0
   57.3970   32.8150   46.4070 C   0  0  0  0  0  0  0  0  0  0  0  0
   57.9960   34.0360   46.7250 C   0  0  0  0  0  0  0  0  0  0  0  0
   58.7880   34.6960   45.7800 C   0  0  0  0  0  0  0  0  0  0  0  0
   58.9860   34.1300   44.5170 C   0  0  0  0  0  0  0  0  0  0  0  0
   58.3940   32.9050   44.1970 C   0  0  0  0  0  0  0  0  0  0  0  0
   60.7479   31.8046   47.4122 H   0  0  0  0  0  0  0  0  0  0  0  0
   61.6272   30.9120   46.1250 H   0  0  0  0  0  0  0  0  0  0  0  0
   59.8313   30.9504   46.1250 H   0  0  0  0  0  0  0  0  0  0  0  0
   61.3450   28.8928   47.1537 H   0  0  0  0  0  0  0  0  0  0  0  0
   61.0659   29.9102   48.6242 H   0  0  0  0  0  0  0  0  0  0  0  0
   57.8337   29.0243   49.2439 H   0  0  0  0  0  0  0  0  0  0  0  0
   59.3240   28.0718   49.5823 H   0  0  0  0  0  0  0  0  0  0  0  0
   60.3584   29.8333   50.5611 H   0  0  0  0  0  0  0  0  0  0  0  0
   59.8234   30.9622   49.2438 H   0  0  0  0  0  0  0  0  0  0  0  0
   57.4908   30.3492   50.7172 H   0  0  0  0  0  0  0  0  0  0  0  0
   58.7791   30.6432   51.9411 H   0  0  0  0  0  0  0  0  0  0  0  0
   59.4988   34.6835   48.5167 H   0  0  0  0  0  0  0  0  0  0  0  0
   61.3237   34.8330   46.8236 H   0  0  0  0  0  0  0  0  0  0  0  0
   64.6817   33.6246   47.3890 H   0  0  0  0  0  0  0  0  0  0  0  0
   63.7477   32.6265   46.2237 H   0  0  0  0  0  0  0  0  0  0  0  0
   63.5653   34.4135   46.2237 H   0  0  0  0  0  0  0  0  0  0  0  0
   63.6870   32.0281   49.1233 H   0  0  0  0  0  0  0  0  0  0  0  0
   61.8619   31.8776   50.8148 H   0  0  0  0  0  0  0  0  0  0  0  0
   59.9644   27.7281   46.2750 H   0  0  0  0  0  0  0  0  0  0  0  0
   59.3283   27.0024   47.7941 H   0  0  0  0  0  0  0  0  0  0  0  0
   58.7700   30.0481   45.4603 H   0  0  0  0  0  0  0  0  0  0  0  0
   58.1752   29.4637   43.8506 H   0  0  0  0  0  0  0  0  0  0  0  0
   56.5312   31.0059   43.7614 H   0  0  0  0  0  0  0  0  0  0  0  0
   56.1043   30.7673   45.5065 H   0  0  0  0  0  0  0  0  0  0  0  0
   56.7638   32.3059   47.1486 H   0  0  0  0  0  0  0  0  0  0  0  0
   57.8446   34.4792   47.7203 H   0  0  0  0  0  0  0  0  0  0  0  0
   59.2549   35.6600   46.0303 H   0  0  0  0  0  0  0  0  0  0  0  0
   59.6087   34.6497   43.7739 H   0  0  0  0  0  0  0  0  0  0  0  0
   58.5500   32.4644   43.2012 H   0  0  0  0  0  0  0  0  0  0  0  0
  1  2  1  0
  2  3  1  0
  3  4  1  0
  4  5  1  0
  5  6  1  0
  6  7  1  0
  7  8  1  0
  8  9  2  0
  8 10  1  0
 10 11  2  0
 11 12  1  0
 12 13  2  0
 13 14  1  0
 13 15  1  0
 15 16  2  0
  3 17  1  0
 17 18  1  0
 18 19  1  0
 19 20  1  0
 20 21  2  0
 20 22  1  0
 22 23  1  0
 23 24  1  0
 24 25  1  0
 25 26  1  0
 26 27  2  0
 27 28  1  0
 28 29  2  0
 29 30  1  0
 30 31  2  0
 16 10  1  0
 23 18  2  0
 31 26  1  0
  1 32  1  0
  1 33  1  0
  1 34  1  0
  2 35  1  0
  2 36  1  0
  4 37  1  0
  4 38  1  0
  5 39  1  0
  5 40  1  0
  6 41  1  0
  6 42  1  0
 11 43  1  0
 12 44  1  0
 14 45  1  0
 14 46  1  0
 14 47  1  0
 15 48  1  0
 16 49  1  0
 17 50  1  0
 17 51  1  0
 24 52  1  0
 24 53  1  0
 25 54  1  0
 25 55  1  0
 27 56  1  0
 28 57  1  0
 29 58  1  0
 30 59  1  0
 31 60  1  0
M  CHG  3   7  -1  19  -1  22  -1
M  END
>  <UniqueID>  (30) 
28

>  <SMILES>  (30) 
CCN(CCC[N-]C(=O)c1ccc(C)cc1)Cc1[n-]c(=O)[n-]c1CCc1ccccc1

>  <Energy>  (30) 
85.69423176127387

>  <Genealogy>  (30) 
CCN(CCC[N-]C(=O)c1ccc(C)cc1)Cc1[n-]c(=O)[n-]c1CCc1ccccc1 (protonated)
CCN(CCC[N-]C(=O)c1ccc(C)cc1)Cc1[n-]c(=O)[n-]c1CCc1ccccc1 (3D coordinates assigned)
CCN(CCC[N-]C(=O)c1ccc(C)cc1)Cc1[n-]c(=O)[n-]c1CCc1ccccc1 (optimized conformer: 85.69423176127387 kcal/mol)

>  <smiles>  (30) 
CCN(CCCNC(=O)c1ccc(C)cc1)Cc1[nH]c(=O)[nH]c1CCc1ccccc1

>  <score_type>  (30) 
oracle

>  <origin>  (30) 
adg

>  <m_score__min__energy>  (30) 
-14.19

>  <m_primary>  (30) 
energy

$$$$
30:0
     RDKit          3D

 54 56  0  0  0  0  0  0  0  0999 V2000
   55.5220   25.7650   45.6800 H   0  0  0  0  0  0  0  0  0  0  0  0
   54.5090   25.7320   45.6260 O   0  0  0  0  0  0  0  0  0  0  0  0
   53.8090   24.5330   45.7490 C   0  0  0  0  0  0  0  0  0  0  0  0
   52.4840   24.4380   45.2940 C   0  0  0  0  0  0  0  0  0  0  0  0
   51.9962   25.3129   44.8394 H   0  0  0  0  0  0  0  0  0  0  0  0
   51.7830   23.2350   45.4170 C   0  0  0  0  0  0  0  0  0  0  0  0
   50.7429   23.1663   45.0657 H   0  0  0  0  0  0  0  0  0  0  0  0
   52.4030   22.1200   45.9860 C   0  0  0  0  0  0  0  0  0  0  0  0
   51.8515   21.1729   46.0804 H   0  0  0  0  0  0  0  0  0  0  0  0
   53.7250   22.2070   46.4360 C   0  0  0  0  0  0  0  0  0  0  0  0
   54.2173   21.3211   46.8636 H   0  0  0  0  0  0  0  0  0  0  0  0
   54.4270   23.4220   46.3440 C   0  0  0  0  0  0  0  0  0  0  0  0
   55.7900   23.5300   46.7740 N   0  0  0  0  0  0  0  0  0  0  0  0
   56.8680   24.1410   46.0500 C   0  0  0  0  0  0  0  0  0  0  0  0
   56.9200   23.9930   44.8020 O   0  0  0  0  0  0  0  0  0  0  0  0
   57.8860   25.0180   46.7190 C   0  0  0  0  0  0  0  0  0  0  0  0
   58.7005   25.2395   46.0137 H   0  0  0  0  0  0  0  0  0  0  0  0
   58.2964   24.5012   47.5990 H   0  0  0  0  0  0  0  0  0  0  0  0
   57.2680   26.2280   47.1240 O   0  0  0  0  0  0  0  0  0  0  0  0
   56.7410   27.0870   46.1850 N   0  0  0  0  0  0  0  0  0  0  0  0
   57.4930   27.7690   45.3740 C   0  0  0  0  0  0  0  0  0  0  0  0
   57.3160   29.2370   45.2990 C   0  0  0  0  0  0  0  0  0  0  0  0
   56.1030   29.7870   44.8790 C   0  0  0  0  0  0  0  0  0  0  0  0
   55.0490   28.9720   44.4820 O   0  0  0  0  0  0  0  0  0  0  0  0
   55.9570   31.1290   44.8280 N   0  0  0  0  0  0  0  0  0  0  0  0
   56.9630   31.9730   45.1670 C   0  0  0  0  0  0  0  0  0  0  0  0
   56.7520   33.2130   45.0940 O   0  0  0  0  0  0  0  0  0  0  0  0
   58.1850   31.4800   45.5700 N   0  0  0  0  0  0  0  0  0  0  0  0
   59.2970   32.3970   45.9520 C   0  0  0  0  0  0  0  0  0  0  0  0
   60.2411   31.8883   45.7070 H   0  0  0  0  0  0  0  0  0  0  0  0
   59.2830   33.7090   45.1170 C   0  0  0  0  0  0  0  0  0  0  0  0
   59.9185   33.5664   44.2306 H   0  0  0  0  0  0  0  0  0  0  0  0
   58.2368   33.9135   44.8457 H   0  0  0  0  0  0  0  0  0  0  0  0
   59.8010   34.9300   45.9000 C   0  0  0  0  0  0  0  0  0  0  0  0
   60.1496   35.6912   45.1866 H   0  0  0  0  0  0  0  0  0  0  0  0
   58.9780   35.3209   46.5164 H   0  0  0  0  0  0  0  0  0  0  0  0
   60.9600   34.5480   46.8280 C   0  0  0  0  0  0  0  0  0  0  0  0
   61.7779   34.1336   46.2202 H   0  0  0  0  0  0  0  0  0  0  0  0
   61.2763   35.4560   47.3622 H   0  0  0  0  0  0  0  0  0  0  0  0
   60.5460   33.5010   47.8820 C   0  0  0  0  0  0  0  0  0  0  0  0
   61.3942   32.8202   48.0469 H   0  0  0  0  0  0  0  0  0  0  0  0
   60.2679   34.0535   48.7916 H   0  0  0  0  0  0  0  0  0  0  0  0
   59.3190   32.6600   47.4730 C   0  0  0  0  0  0  0  0  0  0  0  0
   59.3533   31.6963   48.0022 H   0  0  0  0  0  0  0  0  0  0  0  0
   58.4110   33.2204   47.7402 H   0  0  0  0  0  0  0  0  0  0  0  0
   58.3640   30.1140   45.6340 C   0  0  0  0  0  0  0  0  0  0  0  0
   59.4710   29.6280   46.0020 O   0  0  0  0  0  0  0  0  0  0  0  0
   58.4530   27.0760   44.4370 C   0  0  0  0  0  0  0  0  0  0  0  0
   58.5705   26.0281   44.7503 H   0  0  0  0  0  0  0  0  0  0  0  0
   59.4216   27.5960   44.4744 H   0  0  0  0  0  0  0  0  0  0  0  0
   57.9300   27.1150   43.0050 C   0  0  0  0  0  0  0  0  0  0  0  0
   56.8331   27.1968   43.0174 H   0  0  0  0  0  0  0  0  0  0  0  0
   58.3566   27.9838   42.4824 H   0  0  0  0  0  0  0  0  0  0  0  0
   58.2230   26.1925   42.4824 H   0  0  0  0  0  0  0  0  0  0  0  0
  1  2  1  0
  2  3  1  0
  3  4  2  0
  4  5  1  0
  4  6  1  0
  6  7  1  0
  6  8  2  0
  8  9  1  0
  8 10  1  0
 10 11  1  0
 10 12  2  0
 12 13  1  0
 13 14  1  0
 14 15  2  0
 14 16  1  0
 16 17  1  0
 16 18  1  0
 16 19  1  0
 19 20  1  0
 20 21  2  0
 21 22  1  0
 22 23  2  0
 23 24  1  0
 23 25  1  0
 25 26  1  0
 26 27  2  0
 26 28  1  0
 28 29  1  0
 29 30  1  0
 29 31  1  0
 31 32  1  0
 31 33  1  0
 31 34  1  0
 34 35  1  0
 34 36  1  0
 34 37  1  0
 37 38  1  0
 37 39  1  0
 37 40  1  0
 40 41  1  0
 40 42  1  0
 40 43  1  0
 43 44  1  0
 43 45  1  0
 28 46  1  0
 46 47  2  0
 21 48  1  0
 48 49  1  0
 48 50  1  0
 48 51  1  0
 51 52  1  0
 51 53  1  0
 51 54  1  0
 12  3  1  0
 46 22  1  0
 43 29  1  0
M  CHG  3  13  -1  24  -1  25  -1
M  END
>  <UniqueID>  (31) 
29

>  <SMILES>  (31) 
CC/C(=N\OCC(=O)[N-]c1ccccc1O)c1c([O-])[n-]c(=O)n(C2CCCCC2)c1=O

>  <Energy>  (31) 
70.28456240856896

>  <Genealogy>  (31) 
CCC(=NOCC(=O)[N-]c1ccccc1O)c1c([O-])[n-]c(=O)n(C2CCCCC2)c1=O (protonated)
CC/C(=N\OCC(=O)[N-]c1ccccc1O)c1c([O-])[n-]c(=O)n(C2CCCCC2)c1=O (cis-trans isomerization)
CC/C(=N\OCC(=O)[N-]c1ccccc1O)c1c([O-])[n-]c(=O)n(C2CCCCC2)c1=O (3D coordinates assigned)
CC/C(=N\OCC(=O)[N-]c1ccccc1O)c1c([O-])[n-]c(=O)n(C2CCCCC2)c1=O (nonaromatic ring conformer: 70.28456240856896 kcal/mol)

>  <smiles>  (31) 
CCC(=NOCC(=O)Nc1ccccc1O)c1c(O)[nH]c(=O)n(C2CCCCC2)c1=O

>  <score_type>  (31) 
oracle

>  <origin>  (31) 
adg

>  <m_score__min__energy>  (31) 
-13.85

>  <m_primary>  (31) 
energy

$$$$
31:0
     RDKit          3D

 40 42  0  0  0  0  0  0  0  0999 V2000
   57.1234   27.8428   42.9140 H   0  0  0  0  0  0  0  0  0  0  0  0
   57.0680   28.8310   43.3940 C   0  0  0  0  0  0  0  0  0  0  0  0
   57.0610   28.9400   44.7890 C   0  0  0  0  0  0  0  0  0  0  0  0
   57.1000   27.7150   45.6440 C   0  0  0  0  0  0  0  0  0  0  0  0
   57.0907   28.0075   46.7044 H   0  0  0  0  0  0  0  0  0  0  0  0
   56.2213   27.0893   45.4285 H   0  0  0  0  0  0  0  0  0  0  0  0
   58.0167   27.1465   45.4285 H   0  0  0  0  0  0  0  0  0  0  0  0
   56.9920   30.1690   45.3680 N   0  0  0  0  0  0  0  0  0  0  0  0
   56.9460   31.3200   44.6430 C   0  0  0  0  0  0  0  0  0  0  0  0
   56.8650   32.4500   45.2890 N   0  0  0  0  0  0  0  0  0  0  0  0
   57.8830   33.4460   45.4760 C   0  0  0  0  0  0  0  0  0  0  0  0
   57.8260   34.5450   44.8600 O   0  0  0  0  0  0  0  0  0  0  0  0
   59.0980   33.1380   46.3110 C   0  0  2  0  0  0  0  0  0  0  0  0
   59.8192   32.6479   45.6404 H   0  0  0  0  0  0  0  0  0  0  0  0
   58.7010   31.9620   47.6650 S   0  0  0  0  0  0  0  0  0  0  0  0
   59.4240   30.4870   46.9430 C   0  0  0  0  0  0  0  0  0  0  0  0
   59.9760   30.4500   45.7120 N   0  0  0  0  0  0  0  0  0  0  0  0
   60.4890   29.2590   45.4120 N   0  0  0  0  0  0  0  0  0  0  0  0
   60.9460   29.0630   44.4940 H   0  0  0  0  0  0  0  0  0  0  0  0
   60.3710   28.3410   46.3950 C   0  0  0  0  0  0  0  0  0  0  0  0
   60.7323   27.3039   46.3324 H   0  0  0  0  0  0  0  0  0  0  0  0
   59.5920   29.0090   47.7310 S   0  0  0  0  0  0  0  0  0  0  0  0
   59.8020   34.4030   46.8410 C   0  0  0  0  0  0  0  0  0  0  0  0
   59.8449   35.1511   46.0357 H   0  0  0  0  0  0  0  0  0  0  0  0
   59.2278   34.7812   47.6996 H   0  0  0  0  0  0  0  0  0  0  0  0
   61.2070   34.1050   47.3080 C   0  0  0  0  0  0  0  0  0  0  0  0
   62.2120   33.7760   46.3820 C   0  0  0  0  0  0  0  0  0  0  0  0
   61.9831   33.7646   45.3061 H   0  0  0  0  0  0  0  0  0  0  0  0
   63.5020   33.4630   46.8230 C   0  0  0  0  0  0  0  0  0  0  0  0
   64.2847   33.2057   46.0942 H   0  0  0  0  0  0  0  0  0  0  0  0
   63.7970   33.4770   48.1890 C   0  0  0  0  0  0  0  0  0  0  0  0
   64.8117   33.2302   48.5347 H   0  0  0  0  0  0  0  0  0  0  0  0
   62.8050   33.8040   49.1150 C   0  0  0  0  0  0  0  0  0  0  0  0
   63.0393   33.8164   50.1897 H   0  0  0  0  0  0  0  0  0  0  0  0
   61.5130   34.1160   48.6780 C   0  0  0  0  0  0  0  0  0  0  0  0
   60.7336   34.3710   49.4111 H   0  0  0  0  0  0  0  0  0  0  0  0
   56.9400   31.2390   43.2340 C   0  0  0  0  0  0  0  0  0  0  0  0
   56.8853   32.1540   42.6259 H   0  0  0  0  0  0  0  0  0  0  0  0
   57.0040   29.9880   42.6190 C   0  0  0  0  0  0  0  0  0  0  0  0
   57.0040   29.9147   41.5214 H   0  0  0  0  0  0  0  0  0  0  0  0
  1  2  1  0
  2  3  2  0
  3  4  1  0
  4  5  1  0
  4  6  1  0
  4  7  1  0
  3  8  1  0
  8  9  1  0
  9 10  2  0
 10 11  1  0
 11 12  2  0
 11 13  1  0
 13 14  1  6
 13 15  1  0
 15 16  1  0
 16 17  2  0
 17 18  1  0
 18 19  1  0
 18 20  2  0
 20 21  1  0
 20 22  1  0
 13 23  1  0
 23 24  1  0
 23 25  1  0
 23 26  1  0
 26 27  2  0
 27 28  1  0
 27 29  1  0
 29 30  1  0
 29 31  2  0
 31 32  1  0
 31 33  1  0
 33 34  1  0
 33 35  2  0
 35 36  1  0
  9 37  1  0
 37 38  1  0
 37 39  2  0
 39 40  1  0
 39  2  1  0
 22 16  1  0
 35 26  1  0
M  CHG  2   8  -1  18   1
M  END
>  <UniqueID>  (32) 
30

>  <SMILES>  (32) 
Cc1ccc/c(=N\C(=O)[C@@H](Cc2ccccc2)Sc2n[nH+]cs2)[n-]1

>  <Energy>  (32) 
76.41974570582872

>  <Genealogy>  (32) 
Cc1cccc(=NC(=O)C(Cc2ccccc2)Sc2n[nH+]cs2)[n-]1 (protonated)
Cc1cccc(=NC(=O)[C@@H](Cc2ccccc2)Sc2n[nH+]cs2)[n-]1 (chirality)
Cc1ccc/c(=N\C(=O)[C@@H](Cc2ccccc2)Sc2n[nH+]cs2)[n-]1 (cis-trans isomerization)
Cc1ccc/c(=N\C(=O)[C@@H](Cc2ccccc2)Sc2n[nH+]cs2)[n-]1 (3D coordinates assigned)
Cc1ccc/c(=N\C(=O)[C@@H](Cc2ccccc2)Sc2n[nH+]cs2)[n-]1 (optimized conformer: 76.41974570582872 kcal/mol)

>  <smiles>  (32) 
Cc1cccc(=NC(=O)C(Cc2ccccc2)Sc2nncs2)[nH]1

>  <score_type>  (32) 
oracle

>  <origin>  (32) 
adg

>  <m_score__min__energy>  (32) 
-8.5099999999999998

>  <m_primary>  (32) 
energy

$$$$
32:0
     RDKit          3D

 48 50  0  0  0  0  0  0  0  0999 V2000
   55.1510   30.1960   44.7880 O   0  0  0  0  0  0  0  0  0  0  0  0
   56.0320   29.3260   44.5560 C   0  0  0  0  0  0  0  0  0  0  0  0
   57.0380   29.5580   43.4710 C   0  0  0  0  0  0  0  0  0  0  0  0
   58.1600   30.4960   43.9240 C   0  0  0  0  0  0  0  0  0  0  0  0
   57.8540   32.2160   43.3660 S   0  0  0  0  0  0  0  0  0  0  0  0
   57.0080   32.7710   44.8870 C   0  0  0  0  0  0  0  0  0  0  0  0
   57.9780   33.5160   45.7560 C   0  0  0  0  0  0  0  0  0  0  0  0
   58.7300   34.5780   45.2280 C   0  0  0  0  0  0  0  0  0  0  0  0
   59.6610   35.2470   46.0270 C   0  0  0  0  0  0  0  0  0  0  0  0
   59.8480   34.8620   47.3570 C   0  0  0  0  0  0  0  0  0  0  0  0
   59.1050   33.8030   47.8900 C   0  0  0  0  0  0  0  0  0  0  0  0
   59.2870   33.4300   49.1810 F   0  0  0  0  0  0  0  0  0  0  0  0
   58.1760   33.1280   47.0920 C   0  0  0  0  0  0  0  0  0  0  0  0
   56.0370   28.0820   45.2670 N   0  0  0  0  0  0  0  0  0  0  0  0
   57.1710   27.5040   45.9270 C   0  0  0  0  0  0  0  0  0  0  0  0
   57.9600   28.3360   46.7320 C   0  0  0  0  0  0  0  0  0  0  0  0
   59.0990   27.8370   47.3670 C   0  0  0  0  0  0  0  0  0  0  0  0
   59.4480   26.4940   47.2220 C   0  0  0  0  0  0  0  0  0  0  0  0
   58.6470   25.6420   46.4580 C   0  0  0  0  0  0  0  0  0  0  0  0
   57.4960   26.1290   45.8180 C   0  0  0  0  0  0  0  0  0  0  0  0
   56.6280   25.2070   45.1370 N   0  0  0  0  0  0  0  0  0  0  0  0
   55.2430   25.0430   45.6030 C   0  0  0  0  0  0  0  0  0  0  0  0
   54.6410   23.6890   45.1610 C   0  0  0  0  0  0  0  0  0  0  0  0
   55.5030   22.9220   44.3390 O   0  0  0  0  0  0  0  0  0  0  0  0
   55.9900   23.7200   43.2820 C   0  0  0  0  0  0  0  0  0  0  0  0
   57.0340   24.6940   43.8230 C   0  0  0  0  0  0  0  0  0  0  0  0
   57.4773   28.5922   43.1809 H   0  0  0  0  0  0  0  0  0  0  0  0
   56.5213   30.0296   42.6221 H   0  0  0  0  0  0  0  0  0  0  0  0
   58.2189   30.4804   45.0223 H   0  0  0  0  0  0  0  0  0  0  0  0
   59.1044   30.1489   43.4794 H   0  0  0  0  0  0  0  0  0  0  0  0
   56.1713   33.4334   44.6202 H   0  0  0  0  0  0  0  0  0  0  0  0
   56.6240   31.8965   45.4327 H   0  0  0  0  0  0  0  0  0  0  0  0
   58.5856   34.8844   44.1815 H   0  0  0  0  0  0  0  0  0  0  0  0
   60.2475   36.0780   45.6082 H   0  0  0  0  0  0  0  0  0  0  0  0
   60.5795   35.3915   47.9851 H   0  0  0  0  0  0  0  0  0  0  0  0
   57.5986   32.2909   47.5113 H   0  0  0  0  0  0  0  0  0  0  0  0
   57.6798   29.3914   46.8649 H   0  0  0  0  0  0  0  0  0  0  0  0
   59.7217   28.5033   47.9821 H   0  0  0  0  0  0  0  0  0  0  0  0
   60.3544   26.1059   47.7096 H   0  0  0  0  0  0  0  0  0  0  0  0
   58.9201   24.5812   46.3569 H   0  0  0  0  0  0  0  0  0  0  0  0
   55.2290   25.0964   46.7016 H   0  0  0  0  0  0  0  0  0  0  0  0
   54.6370   25.8462   45.1585 H   0  0  0  0  0  0  0  0  0  0  0  0
   54.4078   23.1024   46.0618 H   0  0  0  0  0  0  0  0  0  0  0  0
   53.7458   23.9158   44.5634 H   0  0  0  0  0  0  0  0  0  0  0  0
   56.4496   23.0763   42.5175 H   0  0  0  0  0  0  0  0  0  0  0  0
   55.1587   24.2835   42.8332 H   0  0  0  0  0  0  0  0  0  0  0  0
   57.9983   24.1737   43.9200 H   0  0  0  0  0  0  0  0  0  0  0  0
   57.1269   25.5390   43.1249 H   0  0  0  0  0  0  0  0  0  0  0  0
  1  2  2  0
  2  3  1  0
  3  4  1  0
  4  5  1  0
  5  6  1  0
  6  7  1  0
  7  8  2  0
  8  9  1  0
  9 10  2  0
 10 11  1  0
 11 12  1  0
 11 13  2  0
  2 14  1  0
 14 15  1  0
 15 16  2  0
 16 17  1  0
 17 18  2  0
 18 19  1  0
 19 20  2  0
 20 21  1  0
 21 22  1  0
 22 23  1  0
 23 24  1  0
 24 25  1  0
 25 26  1  0
 13  7  1  0
 20 15  1  0
 26 21  1  0
  3 27  1  0
  3 28  1  0
  4 29  1  0
  4 30  1  0
  6 31  1  0
  6 32  1  0
  8 33  1  0
  9 34  1  0
 10 35  1  0
 13 36  1  0
 16 37  1  0
 17 38  1  0
 18 39  1  0
 19 40  1  0
 22 41  1  0
 22 42  1  0
 23 43  1  0
 23 44  1  0
 25 45  1  0
 25 46  1  0
 26 47  1  0
 26 48  1  0
M  CHG  1  14  -1
M  END
>  <UniqueID>  (33) 
31

>  <SMILES>  (33) 
O=C(CCSCc1cccc(F)c1)[N-]c1ccccc1N1CCOCC1

>  <Energy>  (33) 
56.962624143350666

>  <Genealogy>  (33) 
O=C(CCSCc1cccc(F)c1)[N-]c1ccccc1N1CCOCC1 (protonated)
O=C(CCSCc1cccc(F)c1)[N-]c1ccccc1N1CCOCC1 (3D coordinates assigned)
O=C(CCSCc1cccc(F)c1)[N-]c1ccccc1N1CCOCC1 (nonaromatic ring conformer: 56.962624143350666 kcal/mol)

>  <smiles>  (33) 
O=C(CCSCc1cccc(F)c1)Nc1ccccc1N1CCOCC1

>  <score_type>  (33) 
oracle

>  <origin>  (33) 
adg

>  <m_score__min__energy>  (33) 
-10.109999999999999

>  <m_primary>  (33) 
energy

$$$$
33:0
     RDKit          3D

 39 41  0  0  0  0  0  0  0  0999 V2000
   57.2160   24.5910   42.9800 O   0  0  0  0  0  0  0  0  0  0  0  0
   57.1770   23.8820   44.0210 C   0  0  0  0  0  0  0  0  0  0  0  0
   57.3980   22.4000   43.9070 C   0  0  0  0  0  0  0  0  0  0  0  0
   57.7410   21.7930   45.2420 C   0  0  0  0  0  0  0  0  0  0  0  0
   57.3000   22.3240   46.3920 C   0  0  0  0  0  0  0  0  0  0  0  0
   56.4510   23.5670   46.3950 C   0  0  0  0  0  0  0  0  0  0  0  0
   56.8370   24.4630   45.2970 N   0  0  0  0  0  0  0  0  0  0  0  0
   56.6740   25.8830   45.4560 C   0  0  0  0  0  0  0  0  0  0  0  0
   55.8860   26.3190   46.3390 O   0  0  0  0  0  0  0  0  0  0  0  0
   57.4040   26.7970   44.6180 N   0  0  0  0  0  0  0  0  0  0  0  0
   57.3380   28.2280   44.7350 C   0  0  0  0  0  0  0  0  0  0  0  0
   56.8130   28.9790   43.6730 C   0  0  0  0  0  0  0  0  0  0  0  0
   56.7570   30.3730   43.7490 C   0  0  0  0  0  0  0  0  0  0  0  0
   57.2520   31.0420   44.8750 C   0  0  0  0  0  0  0  0  0  0  0  0
   57.1620   32.4400   44.9210 O   0  0  0  0  0  0  0  0  0  0  0  0
   58.0310   33.2890   45.6230 C   0  0  0  0  0  0  0  0  0  0  0  0
   58.8010   34.2710   44.9710 C   0  0  0  0  0  0  0  0  0  0  0  0
   59.6430   35.1090   45.7100 C   0  0  0  0  0  0  0  0  0  0  0  0
   59.7130   34.9830   47.0990 C   0  0  0  0  0  0  0  0  0  0  0  0
   58.9360   34.0220   47.7540 C   0  0  0  0  0  0  0  0  0  0  0  0
   58.0940   33.1840   47.0190 C   0  0  0  0  0  0  0  0  0  0  0  0
   57.7820   30.2940   45.9400 C   0  0  0  0  0  0  0  0  0  0  0  0
   57.8380   28.8980   45.8650 C   0  0  0  0  0  0  0  0  0  0  0  0
   56.4802   21.9293   43.5247 H   0  0  0  0  0  0  0  0  0  0  0  0
   58.2398   22.2265   43.2205 H   0  0  0  0  0  0  0  0  0  0  0  0
   58.3695   20.8908   45.2747 H   0  0  0  0  0  0  0  0  0  0  0  0
   57.5625   21.8444   47.3465 H   0  0  0  0  0  0  0  0  0  0  0  0
   55.3951   23.2831   46.2750 H   0  0  0  0  0  0  0  0  0  0  0  0
   56.5990   24.0936   47.3494 H   0  0  0  0  0  0  0  0  0  0  0  0
   57.9780   26.4060   43.8390 H   0  0  0  0  0  0  0  0  0  0  0  0
   56.4424   28.4663   42.7731 H   0  0  0  0  0  0  0  0  0  0  0  0
   56.3213   30.9485   42.9190 H   0  0  0  0  0  0  0  0  0  0  0  0
   58.7404   34.3796   43.8781 H   0  0  0  0  0  0  0  0  0  0  0  0
   60.2508   35.8683   45.1961 H   0  0  0  0  0  0  0  0  0  0  0  0
   60.3792   35.6395   47.6780 H   0  0  0  0  0  0  0  0  0  0  0  0
   58.9880   33.9260   48.8486 H   0  0  0  0  0  0  0  0  0  0  0  0
   57.4765   32.4370   47.5393 H   0  0  0  0  0  0  0  0  0  0  0  0
   58.1549   30.8089   46.8377 H   0  0  0  0  0  0  0  0  0  0  0  0
   58.2753   28.3222   46.6940 H   0  0  0  0  0  0  0  0  0  0  0  0
  1  2  2  0
  2  3  1  0
  3  4  1  0
  4  5  2  0
  5  6  1  0
  6  7  1  0
  7  8  1  0
  8  9  2  0
  8 10  1  0
 10 11  1  0
 11 12  2  0
 12 13  1  0
 13 14  2  0
 14 15  1  0
 15 16  1  0
 16 17  2  0
 17 18  1  0
 18 19  2  0
 19 20  1  0
 20 21  2  0
 14 22  1  0
 22 23  2  0
  7  2  1  0
 23 11  1  0
 21 16  1  0
  3 24  1  0
  3 25  1  0
  4 26  1  0
  5 27  1  0
  6 28  1  0
  6 29  1  0
 10 30  1  0
 12 31  1  0
 13 32  1  0
 17 33  1  0
 18 34  1  0
 19 35  1  0
 20 36  1  0
 21 37  1  0
 22 38  1  0
 23 39  1  0
M  END
>  <UniqueID>  (34) 
32

>  <SMILES>  (34) 
O=C1CC=CCN1C(=O)Nc1ccc(Oc2ccccc2)cc1

>  <Energy>  (34) 
55.169873066415704

>  <Genealogy>  (34) 
O=C1CC=CCN1C(=O)Nc1ccc(Oc2ccccc2)cc1 (3D coordinates assigned)
O=C1CC=CCN1C(=O)Nc1ccc(Oc2ccccc2)cc1 (nonaromatic ring conformer: 55.169873066415704 kcal/mol)

>  <smiles>  (34) 
O=C1CC=CCN1C(=O)Nc1ccc(Oc2ccccc2)cc1

>  <score_type>  (34) 
oracle

>  <origin>  (34) 
adg

>  <m_score__min__energy>  (34) 
-7.4299999999999997

>  <m_primary>  (34) 
energy

$$$$
34:0
     RDKit          3D

 39 41  0  0  0  0  0  0  0  0999 V2000
   51.1920   23.5350   44.5700 C   0  0  0  0  0  0  0  0  0  0  0  0
   52.4510   23.4700   45.3010 N   0  0  0  0  0  0  0  0  0  0  0  0
   52.8440   22.4690   46.1150 C   0  0  0  0  0  0  0  0  0  0  0  0
   54.1360   22.6940   46.5460 C   0  0  0  0  0  0  0  0  0  0  0  0
   54.5300   23.8810   45.9600 C   0  0  0  0  0  0  0  0  0  0  0  0
   55.8360   24.4640   46.0880 N   0  0  0  0  0  0  0  0  0  0  0  0
   56.1030   25.8740   46.0290 C   0  0  0  0  0  0  0  0  0  0  0  0
   55.1550   26.7040   45.9960 O   0  0  0  0  0  0  0  0  0  0  0  0
   57.4990   26.3660   46.0480 C   0  0  0  0  0  0  0  0  0  0  0  0
   58.4870   25.5870   46.6740 C   0  0  0  0  0  0  0  0  0  0  0  0
   59.8270   25.9810   46.6440 C   0  0  0  0  0  0  0  0  0  0  0  0
   60.1960   27.1540   45.9860 C   0  0  0  0  0  0  0  0  0  0  0  0
   59.2250   27.9470   45.3710 C   0  0  0  0  0  0  0  0  0  0  0  0
   57.8720   27.5800   45.4160 C   0  0  0  0  0  0  0  0  0  0  0  0
   56.9030   28.4560   44.8180 N   0  0  0  0  0  0  0  0  0  0  0  0
   57.2010   29.7810   44.3400 C   0  0  0  0  0  0  0  0  0  0  0  0
   56.9960   30.0870   42.9860 C   0  0  0  0  0  0  0  0  0  0  0  0
   57.2630   31.3700   42.5010 C   0  0  0  0  0  0  0  0  0  0  0  0
   57.7450   32.3590   43.3630 C   0  0  0  0  0  0  0  0  0  0  0  0
   57.9700   32.0620   44.7100 C   0  0  0  0  0  0  0  0  0  0  0  0
   58.5770   33.3030   45.7920 Cl  0  0  0  0  0  0  0  0  0  0  0  0
   57.7100   30.7770   45.1970 C   0  0  0  0  0  0  0  0  0  0  0  0
   53.4790   24.3310   45.1810 C   0  0  0  0  0  0  0  0  0  0  0  0
   50.3557   23.5782   45.2833 H   0  0  0  0  0  0  0  0  0  0  0  0
   51.1813   24.4349   43.9375 H   0  0  0  0  0  0  0  0  0  0  0  0
   51.0887   22.6410   43.9375 H   0  0  0  0  0  0  0  0  0  0  0  0
   52.2268   21.6022   46.3940 H   0  0  0  0  0  0  0  0  0  0  0  0
   54.7302   22.0580   47.2186 H   0  0  0  0  0  0  0  0  0  0  0  0
   56.6240   23.8250   46.3370 H   0  0  0  0  0  0  0  0  0  0  0  0
   58.2029   24.6591   47.1920 H   0  0  0  0  0  0  0  0  0  0  0  0
   60.5919   25.3654   47.1399 H   0  0  0  0  0  0  0  0  0  0  0  0
   61.2535   27.4549   45.9514 H   0  0  0  0  0  0  0  0  0  0  0  0
   59.5236   28.8669   44.8470 H   0  0  0  0  0  0  0  0  0  0  0  0
   55.9510   28.0670   44.6280 H   0  0  0  0  0  0  0  0  0  0  0  0
   56.6224   29.3113   42.3014 H   0  0  0  0  0  0  0  0  0  0  0  0
   57.0936   31.6020   41.4392 H   0  0  0  0  0  0  0  0  0  0  0  0
   57.9472   33.3707   42.9814 H   0  0  0  0  0  0  0  0  0  0  0  0
   57.9038   30.5427   46.2541 H   0  0  0  0  0  0  0  0  0  0  0  0
   53.4827   25.2423   44.5650 H   0  0  0  0  0  0  0  0  0  0  0  0
  1  2  1  0
  2  3  1  0
  3  4  2  0
  4  5  1  0
  5  6  1  0
  6  7  1  0
  7  8  2  0
  7  9  1  0
  9 10  2  0
 10 11  1  0
 11 12  2  0
 12 13  1  0
 13 14  2  0
 14 15  1  0
 15 16  1  0
 16 17  2  0
 17 18  1  0
 18 19  2  0
 19 20  1  0
 20 21  1  0
 20 22  2  0
  5 23  2  0
 23  2  1  0
 14  9  1  0
 22 16  1  0
  1 24  1  0
  1 25  1  0
  1 26  1  0
  3 27  1  0
  4 28  1  0
  6 29  1  0
 10 30  1  0
 11 31  1  0
 12 32  1  0
 13 33  1  0
 15 34  1  0
 17 35  1  0
 18 36  1  0
 19 37  1  0
 22 38  1  0
 23 39  1  0
M  END
>  <UniqueID>  (35) 
33

>  <SMILES>  (35) 
Cn1ccc(NC(=O)c2ccccc2Nc2cccc(Cl)c2)c1

>  <Energy>  (35) 
78.41994065665229

>  <Genealogy>  (35) 
Cn1ccc(NC(=O)c2ccccc2Nc2cccc(Cl)c2)c1 (3D coordinates assigned)
Cn1ccc(NC(=O)c2ccccc2Nc2cccc(Cl)c2)c1 (optimized conformer: 78.41994065665229 kcal/mol)

>  <smiles>  (35) 
Cn1ccc(NC(=O)c2ccccc2Nc2cccc(Cl)c2)c1

>  <score_type>  (35) 
oracle

>  <origin>  (35) 
adg

>  <m_score__min__energy>  (35) 
-7.6699999999999999

>  <m_primary>  (35) 
energy

$$$$
35:0
     RDKit          3D

 46 49  0  0  0  0  0  0  0  0999 V2000
   55.7180   22.2620   42.4980 N   0  0  0  0  0  0  0  0  0  0  0  0
   57.0360   21.6990   42.7770 C   0  0  0  0  0  0  0  0  0  0  0  0
   57.2720   21.5880   44.2860 C   0  0  0  0  0  0  0  0  0  0  0  0
   57.5510   22.8960   44.8750 N   0  0  0  0  0  0  0  0  0  0  0  0
   58.8000   23.3500   45.4010 C   0  0  0  0  0  0  0  0  0  0  0  0
   59.7920   22.6040   45.6150 O   0  0  0  0  0  0  0  0  0  0  0  0
   58.7490   24.7890   45.6330 C   0  0  0  0  0  0  0  0  0  0  0  0
   59.7040   25.6590   46.1530 C   0  0  0  0  0  0  0  0  0  0  0  0
   59.3650   27.0190   46.2660 C   0  0  0  0  0  0  0  0  0  0  0  0
   58.0960   27.4900   45.8470 C   0  0  0  0  0  0  0  0  0  0  0  0
   57.7820   28.8850   46.0000 N   0  0  0  0  0  0  0  0  0  0  0  0
   57.3980   29.7510   44.9240 C   0  0  0  0  0  0  0  0  0  0  0  0
   57.4830   29.3610   43.7280 O   0  0  0  0  0  0  0  0  0  0  0  0
   56.9090   31.0640   45.2270 N   0  0  0  0  0  0  0  0  0  0  0  0
   57.6970   32.2480   45.4200 C   0  0  0  0  0  0  0  0  0  0  0  0
   57.4520   33.4310   44.7050 C   0  0  0  0  0  0  0  0  0  0  0  0
   58.2580   34.5520   44.9080 C   0  0  0  0  0  0  0  0  0  0  0  0
   59.3220   34.5030   45.8110 C   0  0  0  0  0  0  0  0  0  0  0  0
   59.6020   33.3150   46.5220 C   0  0  0  0  0  0  0  0  0  0  0  0
   60.7450   33.1720   47.5110 C   0  0  0  0  0  0  0  0  0  0  0  0
   61.7600   32.0670   47.2500 C   0  0  0  0  0  0  0  0  0  0  0  0
   62.1430   33.5240   47.0180 C   0  0  0  0  0  0  0  0  0  0  0  0
   58.7820   32.1940   46.3060 C   0  0  0  0  0  0  0  0  0  0  0  0
   57.1440   26.5750   45.3420 C   0  0  0  0  0  0  0  0  0  0  0  0
   57.5060   25.2330   45.2420 C   0  0  0  0  0  0  0  0  0  0  0  0
   56.7540   24.0790   44.7620 C   0  0  0  0  0  0  0  0  0  0  0  0
   55.5840   24.1050   44.2970 O   0  0  0  0  0  0  0  0  0  0  0  0
   55.1490   22.2150   43.3740 H   0  0  0  0  0  0  0  0  0  0  0  0
   55.8450   23.2790   42.2900 H   0  0  0  0  0  0  0  0  0  0  0  0
   57.1029   20.6975   42.3270 H   0  0  0  0  0  0  0  0  0  0  0  0
   57.8009   22.3634   42.3486 H   0  0  0  0  0  0  0  0  0  0  0  0
   56.3735   21.1656   44.7595 H   0  0  0  0  0  0  0  0  0  0  0  0
   58.1423   20.9370   44.4554 H   0  0  0  0  0  0  0  0  0  0  0  0
   60.6932   25.2935   46.4658 H   0  0  0  0  0  0  0  0  0  0  0  0
   60.0950   27.7270   46.6854 H   0  0  0  0  0  0  0  0  0  0  0  0
   57.9280   29.3220   46.9390 H   0  0  0  0  0  0  0  0  0  0  0  0
   56.6230   33.4744   43.9833 H   0  0  0  0  0  0  0  0  0  0  0  0
   58.0539   35.4798   44.3534 H   0  0  0  0  0  0  0  0  0  0  0  0
   59.9459   35.3950   45.9696 H   0  0  0  0  0  0  0  0  0  0  0  0
   60.1237   33.4713   48.3680 H   0  0  0  0  0  0  0  0  0  0  0  0
   62.1967   31.5110   48.0927 H   0  0  0  0  0  0  0  0  0  0  0  0
   61.7742   31.1523   46.6392 H   0  0  0  0  0  0  0  0  0  0  0  0
   62.8559   34.0196   47.6934 H   0  0  0  0  0  0  0  0  0  0  0  0
   62.5480   34.0966   46.1706 H   0  0  0  0  0  0  0  0  0  0  0  0
   58.9955   31.2574   46.8419 H   0  0  0  0  0  0  0  0  0  0  0  0
   56.1432   26.9136   45.0359 H   0  0  0  0  0  0  0  0  0  0  0  0
  1  2  1  0
  2  3  1  0
  3  4  1  0
  4  5  1  0
  5  6  2  0
  5  7  1  0
  7  8  2  0
  8  9  1  0
  9 10  2  0
 10 11  1  0
 11 12  1  0
 12 13  2  0
 12 14  1  0
 14 15  1  0
 15 16  2  0
 16 17  1  0
 17 18  2  0
 18 19  1  0
 19 20  1  0
 20 21  1  0
 21 22  1  0
 19 23  2  0
 10 24  1  0
 24 25  2  0
 25 26  1  0
 26 27  2  0
 26  4  1  0
 25  7  1  0
 23 15  1  0
 22 20  1  0
  1 28  1  0
  1 29  1  0
  2 30  1  0
  2 31  1  0
  3 32  1  0
  3 33  1  0
  8 34  1  0
  9 35  1  0
 11 36  1  0
 16 37  1  0
 17 38  1  0
 18 39  1  0
 20 40  1  0
 21 41  1  0
 21 42  1  0
 22 43  1  0
 22 44  1  0
 23 45  1  0
 24 46  1  0
M  CHG  1  14  -1
M  END
>  <UniqueID>  (36) 
34

>  <SMILES>  (36) 
NCCN1C(=O)c2ccc(NC(=O)[N-]c3cccc(C4CC4)c3)cc2C1=O

>  <Energy>  (36) 
351.2255530651474

>  <Genealogy>  (36) 
NCCN1C(=O)c2ccc(NC(=O)[N-]c3cccc(C4CC4)c3)cc2C1=O (protonated)
NCCN1C(=O)c2ccc(NC(=O)[N-]c3cccc(C4CC4)c3)cc2C1=O (3D coordinates assigned)
NCCN1C(=O)c2ccc(NC(=O)[N-]c3cccc(C4CC4)c3)cc2C1=O (nonaromatic ring conformer: 351.2255530651474 kcal/mol)

>  <smiles>  (36) 
NCCN1C(=O)c2ccc(NC(=O)Nc3cccc(C4CC4)c3)cc2C1=O

>  <score_type>  (36) 
oracle

>  <origin>  (36) 
adg

>  <m_score__min__energy>  (36) 
-10.51

>  <m_primary>  (36) 
energy

$$$$
36:0
     RDKit          3D

 25 26  0  0  0  0  0  0  0  0999 V2000
   59.6320   27.9400   45.2300 O   0  0  0  0  0  0  0  0  0  0  0  0
   58.4020   28.2210   45.2280 C   0  0  0  0  0  0  0  0  0  0  0  0
   57.4900   27.2390   45.6110 C   0  0  0  0  0  0  0  0  0  0  0  0
   56.1350   27.5470   45.6090 C   0  0  0  0  0  0  0  0  0  0  0  0
   55.2040   26.5860   45.9860 O   0  0  0  0  0  0  0  0  0  0  0  0
   55.7230   28.7850   45.2400 N   0  0  0  0  0  0  0  0  0  0  0  0
   56.6170   29.7420   44.8670 C   0  0  0  0  0  0  0  0  0  0  0  0
   56.1900   30.8820   44.5320 O   0  0  0  0  0  0  0  0  0  0  0  0
   57.9650   29.4690   44.8540 N   0  0  0  0  0  0  0  0  0  0  0  0
   58.9340   30.5190   44.4810 C   0  0  0  0  0  0  0  0  0  0  0  0
   58.6670   31.7830   45.2570 C   0  0  0  0  0  0  0  0  0  0  0  0
   58.8540   31.8160   46.6490 C   0  0  0  0  0  0  0  0  0  0  0  0
   58.6360   32.9990   47.3620 C   0  0  0  0  0  0  0  0  0  0  0  0
   58.2350   34.1580   46.6930 C   0  0  0  0  0  0  0  0  0  0  0  0
   58.0510   34.1350   45.3080 C   0  0  0  0  0  0  0  0  0  0  0  0
   58.2670   32.9550   44.5900 C   0  0  0  0  0  0  0  0  0  0  0  0
   57.8365   26.2386   45.9094 H   0  0  0  0  0  0  0  0  0  0  0  0
   54.7020   29.0050   45.2440 H   0  0  0  0  0  0  0  0  0  0  0  0
   59.9524   30.1668   44.7020 H   0  0  0  0  0  0  0  0  0  0  0  0
   58.8314   30.7325   43.4068 H   0  0  0  0  0  0  0  0  0  0  0  0
   59.1733   30.9073   47.1803 H   0  0  0  0  0  0  0  0  0  0  0  0
   58.7806   33.0171   48.4523 H   0  0  0  0  0  0  0  0  0  0  0  0
   58.0643   35.0876   47.2558 H   0  0  0  0  0  0  0  0  0  0  0  0
   57.7354   35.0477   44.7813 H   0  0  0  0  0  0  0  0  0  0  0  0
   58.1236   32.9431   43.4995 H   0  0  0  0  0  0  0  0  0  0  0  0
  1  2  2  0
  2  3  1  0
  3  4  2  0
  4  5  1  0
  4  6  1  0
  6  7  1  0
  7  8  2  0
  7  9  1  0
  9 10  1  0
 10 11  1  0
 11 12  2  0
 12 13  1  0
 13 14  2  0
 14 15  1  0
 15 16  2  0
  9  2  1  0
 16 11  1  0
  3 17  1  0
  6 18  1  0
 10 19  1  0
 10 20  1  0
 12 21  1  0
 13 22  1  0
 14 23  1  0
 15 24  1  0
 16 25  1  0
M  CHG  1   5  -1
M  END
>  <UniqueID>  (37) 
35

>  <SMILES>  (37) 
O=c1cc([O-])[nH]c(=O)n1Cc1ccccc1

>  <Energy>  (37) 
29.335727709076092

>  <Genealogy>  (37) 
O=c1cc([O-])[nH]c(=O)n1Cc1ccccc1 (protonated)
O=c1cc([O-])[nH]c(=O)n1Cc1ccccc1 (3D coordinates assigned)
O=c1cc([O-])[nH]c(=O)n1Cc1ccccc1 (optimized conformer: 29.335727709076092 kcal/mol)

>  <smiles>  (37) 
O=c1cc(O)[nH]c(=O)n1Cc1ccccc1

>  <score_type>  (37) 
oracle

>  <origin>  (37) 
adg

>  <m_score__min__energy>  (37) 
-9.7400000000000002

>  <m_primary>  (37) 
energy

$$$$
37:0
     RDKit          3D

 34 36  0  0  0  0  0  0  0  0999 V2000
   56.1920   26.0890   45.9500 N   0  0  0  0  0  0  0  0  0  0  0  0
   56.4910   27.1970   45.7980 C   0  0  0  0  0  0  0  0  0  0  0  0
   56.8640   28.5810   45.6090 C   0  0  0  0  0  0  0  0  0  0  0  0
   55.9950   29.4360   44.9190 C   0  0  0  0  0  0  0  0  0  0  0  0
   54.7700   28.9720   44.4510 O   0  0  0  0  0  0  0  0  0  0  0  0
   56.3430   30.7270   44.6940 N   0  0  0  0  0  0  0  0  0  0  0  0
   57.5230   31.2440   45.1210 C   0  0  0  0  0  0  0  0  0  0  0  0
   57.7810   32.4550   44.8880 O   0  0  0  0  0  0  0  0  0  0  0  0
   58.4340   30.4390   45.8310 C   0  0  0  0  0  0  0  0  0  0  0  0
   59.7100   31.0290   46.3130 C   0  0  0  0  0  0  0  0  0  0  0  0
   60.7940   30.4660   46.0010 O   0  0  0  0  0  0  0  0  0  0  0  0
   59.7410   32.2540   47.1470 C   0  0  0  0  0  0  0  0  0  0  0  0
   59.5770   32.1820   48.5430 C   0  0  0  0  0  0  0  0  0  0  0  0
   59.6380   33.3400   49.3240 C   0  0  0  0  0  0  0  0  0  0  0  0
   59.8520   34.5800   48.7200 C   0  0  0  0  0  0  0  0  0  0  0  0
   60.0010   34.6670   47.3340 C   0  0  0  0  0  0  0  0  0  0  0  0
   59.9420   33.5110   46.5490 C   0  0  0  0  0  0  0  0  0  0  0  0
   58.1040   29.0790   46.0700 C   0  0  0  0  0  0  0  0  0  0  0  0
   59.0630   28.1760   46.7560 C   0  0  0  0  0  0  0  0  0  0  0  0
   59.1830   28.1980   48.1550 C   0  0  0  0  0  0  0  0  0  0  0  0
   60.0530   27.3160   48.8030 C   0  0  0  0  0  0  0  0  0  0  0  0
   60.8120   26.4090   48.0580 C   0  0  0  0  0  0  0  0  0  0  0  0
   60.7040   26.3840   46.6640 C   0  0  0  0  0  0  0  0  0  0  0  0
   59.8350   27.2660   46.0130 C   0  0  0  0  0  0  0  0  0  0  0  0
   59.3996   31.2082   49.0228 H   0  0  0  0  0  0  0  0  0  0  0  0
   59.5172   33.2738   50.4153 H   0  0  0  0  0  0  0  0  0  0  0  0
   59.9034   35.4897   49.3363 H   0  0  0  0  0  0  0  0  0  0  0  0
   60.1649   35.6457   46.8594 H   0  0  0  0  0  0  0  0  0  0  0  0
   60.0535   33.5854   45.4572 H   0  0  0  0  0  0  0  0  0  0  0  0
   58.5895   28.9128   48.7440 H   0  0  0  0  0  0  0  0  0  0  0  0
   60.1402   27.3359   49.8994 H   0  0  0  0  0  0  0  0  0  0  0  0
   61.4949   25.7142   48.5687 H   0  0  0  0  0  0  0  0  0  0  0  0
   61.3027   25.6703   46.0790 H   0  0  0  0  0  0  0  0  0  0  0  0
   59.7555   27.2474   44.9160 H   0  0  0  0  0  0  0  0  0  0  0  0
  1  2  3  0
  2  3  1  0
  3  4  2  0
  4  5  1  0
  4  6  1  0
  6  7  1  0
  7  8  2  0
  7  9  1  0
  9 10  1  0
 10 11  2  0
 10 12  1  0
 12 13  2  0
 13 14  1  0
 14 15  2  0
 15 16  1  0
 16 17  2  0
  9 18  2  0
 18 19  1  0
 19 20  2  0
 20 21  1  0
 21 22  2  0
 22 23  1  0
 23 24  2  0
 18  3  1  0
 24 19  1  0
 17 12  1  0
 13 25  1  0
 14 26  1  0
 15 27  1  0
 16 28  1  0
 17 29  1  0
 20 30  1  0
 21 31  1  0
 22 32  1  0
 23 33  1  0
 24 34  1  0
M  CHG  2   5  -1   6  -1
M  END
>  <UniqueID>  (38) 
36

>  <SMILES>  (38) 
N#Cc1c([O-])[n-]c(=O)c(C(=O)c2ccccc2)c1-c1ccccc1

>  <Energy>  (38) 
53.59929729870658

>  <Genealogy>  (38) 
N#Cc1c([O-])[n-]c(=O)c(C(=O)c2ccccc2)c1-c1ccccc1 (protonated)
N#Cc1c([O-])[n-]c(=O)c(C(=O)c2ccccc2)c1-c1ccccc1 (3D coordinates assigned)
N#Cc1c([O-])[n-]c(=O)c(C(=O)c2ccccc2)c1-c1ccccc1 (optimized conformer: 53.59929729870658 kcal/mol)

>  <smiles>  (38) 
N#Cc1c(O)[nH]c(=O)c(C(=O)c2ccccc2)c1-c1ccccc1

>  <score_type>  (38) 
oracle

>  <origin>  (38) 
adg

>  <m_score__min__energy>  (38) 
-11.970000000000001

>  <m_primary>  (38) 
energy

$$$$
38:0
     RDKit          3D

 33 34  0  0  0  0  0  0  0  0999 V2000
   55.4410   29.2580   44.8590 N   0  0  0  0  0  0  0  0  0  0  0  0
   57.1690   29.2990   44.8740 S   0  0  0  0  0  0  0  0  0  0  0  0
   57.6950   28.5720   43.6680 O   0  0  0  0  0  0  0  0  0  0  0  0
   57.6790   28.6140   46.1110 O   0  0  0  0  0  0  0  0  0  0  0  0
   57.7170   30.9720   44.8530 C   0  0  0  0  0  0  0  0  0  0  0  0
   57.6120   31.7380   43.6830 C   0  0  0  0  0  0  0  0  0  0  0  0
   58.0430   33.0670   43.6750 C   0  0  0  0  0  0  0  0  0  0  0  0
   58.5760   33.6390   44.8320 C   0  0  0  0  0  0  0  0  0  0  0  0
   58.6800   32.8840   46.0090 C   0  0  0  0  0  0  0  0  0  0  0  0
   59.3570   33.6010   47.4730 S   0  0  0  0  0  0  0  0  0  0  0  0
   59.1650   35.0920   47.4270 O   0  0  0  0  0  0  0  0  0  0  0  0
   58.6110   33.0730   48.6670 O   0  0  0  0  0  0  0  0  0  0  0  0
   61.0560   33.2410   47.6480 N   0  0  0  0  0  0  0  0  0  0  0  0
   61.8240   33.7940   46.5200 C   0  0  0  0  0  0  0  0  0  0  0  0
   63.3280   33.4720   46.6770 C   0  0  0  0  0  0  0  0  0  0  0  0
   63.6330   32.9100   47.9430 O   0  0  0  0  0  0  0  0  0  0  0  0
   63.1140   33.7310   48.9700 C   0  0  0  0  0  0  0  0  0  0  0  0
   61.5700   33.7590   48.9310 C   0  0  0  0  0  0  0  0  0  0  0  0
   58.2430   31.5510   46.0150 C   0  0  0  0  0  0  0  0  0  0  0  0
   55.1450   28.6160   45.6280 H   0  0  0  0  0  0  0  0  0  0  0  0
   57.1898   31.2919   42.7704 H   0  0  0  0  0  0  0  0  0  0  0  0
   57.9622   33.6643   42.7548 H   0  0  0  0  0  0  0  0  0  0  0  0
   58.9154   34.6853   44.8200 H   0  0  0  0  0  0  0  0  0  0  0  0
   61.1510   32.1970   47.6410 H   0  0  0  0  0  0  0  0  0  0  0  0
   61.4559   33.3538   45.5815 H   0  0  0  0  0  0  0  0  0  0  0  0
   61.6946   34.8862   46.5040 H   0  0  0  0  0  0  0  0  0  0  0  0
   63.6194   32.7566   45.8938 H   0  0  0  0  0  0  0  0  0  0  0  0
   63.8836   34.4171   46.5878 H   0  0  0  0  0  0  0  0  0  0  0  0
   63.4420   33.3389   49.9440 H   0  0  0  0  0  0  0  0  0  0  0  0
   63.4864   34.7553   48.8210 H   0  0  0  0  0  0  0  0  0  0  0  0
   61.1796   33.1376   49.7504 H   0  0  0  0  0  0  0  0  0  0  0  0
   61.2390   34.8022   49.0416 H   0  0  0  0  0  0  0  0  0  0  0  0
   58.3138   30.9567   46.9379 H   0  0  0  0  0  0  0  0  0  0  0  0
  1  2  1  0
  2  3  2  0
  2  4  2  0
  2  5  1  0
  5  6  2  0
  6  7  1  0
  7  8  2  0
  8  9  1  0
  9 10  1  0
 10 11  2  0
 10 12  2  0
 10 13  1  0
 13 14  1  0
 14 15  1  0
 15 16  1  0
 16 17  1  0
 17 18  1  0
  9 19  2  0
 19  5  1  0
 18 13  1  0
  1 20  1  0
  6 21  1  0
  7 22  1  0
  8 23  1  0
 13 24  1  0
 14 25  1  0
 14 26  1  0
 15 27  1  0
 15 28  1  0
 17 29  1  0
 17 30  1  0
 18 31  1  0
 18 32  1  0
 19 33  1  0
M  CHG  2   1  -1  13   1
M  END
>  <UniqueID>  (39) 
37

>  <SMILES>  (39) 
[NH-]S(=O)(=O)c1cccc(S(=O)(=O)[NH+]2CCOCC2)c1

>  <Energy>  (39) 
39.051422662128076

>  <Genealogy>  (39) 
[NH-]S(=O)(=O)c1cccc(S(=O)(=O)[NH+]2CCOCC2)c1 (protonated)
[NH-]S(=O)(=O)c1cccc(S(=O)(=O)[NH+]2CCOCC2)c1 (3D coordinates assigned)
[NH-]S(=O)(=O)c1cccc(S(=O)(=O)[NH+]2CCOCC2)c1 (nonaromatic ring conformer: 39.051422662128076 kcal/mol)

>  <smiles>  (39) 
NS(=O)(=O)c1cccc(S(=O)(=O)N2CCOCC2)c1

>  <score_type>  (39) 
oracle

>  <origin>  (39) 
adg

>  <m_score__min__energy>  (39) 
-9.4700000000000006

>  <m_primary>  (39) 
energy

$$$$
39:0
     RDKit          3D

 53 56  0  0  0  0  0  0  0  0999 V2000
   60.4757   30.3147   52.7926 H   0  0  0  0  0  0  0  0  0  0  0  0
   59.5940   30.6820   52.2470 C   0  0  0  0  0  0  0  0  0  0  0  0
   59.7230   31.6990   51.3560 N   0  0  0  0  0  0  0  0  0  0  0  0
   58.6670   32.1980   50.6590 C   0  0  0  0  0  0  0  0  0  0  0  0
   58.8920   33.1710   49.8190 N   0  0  0  0  0  0  0  0  0  0  0  0
   60.1430   33.6320   49.2830 C   0  0  0  0  0  0  0  0  0  0  0  0
   60.9040   34.3840   49.9520 O   0  0  0  0  0  0  0  0  0  0  0  0
   60.6190   33.0870   47.9750 C   0  0  0  0  0  0  0  0  0  0  0  0
   61.4196   33.7312   47.5826 H   0  0  0  0  0  0  0  0  0  0  0  0
   60.9996   32.0664   48.1284 H   0  0  0  0  0  0  0  0  0  0  0  0
   59.4860   33.0450   46.9870 C   0  0  0  0  0  0  0  0  0  0  0  0
   59.0990   34.2080   46.3040 C   0  0  0  0  0  0  0  0  0  0  0  0
   59.6141   35.1589   46.5050 H   0  0  0  0  0  0  0  0  0  0  0  0
   58.0620   34.1620   45.3700 C   0  0  0  0  0  0  0  0  0  0  0  0
   57.7578   35.0788   44.8438 H   0  0  0  0  0  0  0  0  0  0  0  0
   57.4090   32.9560   45.1010 C   0  0  0  0  0  0  0  0  0  0  0  0
   56.5909   32.9272   44.3662 H   0  0  0  0  0  0  0  0  0  0  0  0
   57.7960   31.7760   45.7690 C   0  0  0  0  0  0  0  0  0  0  0  0
   57.1830   30.5330   45.5340 O   0  0  0  0  0  0  0  0  0  0  0  0
   57.7030   29.2630   45.9310 C   0  0  0  0  0  0  0  0  0  0  0  0
   58.8011   29.2874   45.8703 H   0  0  0  0  0  0  0  0  0  0  0  0
   57.3823   29.0564   46.9627 H   0  0  0  0  0  0  0  0  0  0  0  0
   57.1730   28.1510   45.0180 C   0  0  2  0  0  0  0  0  0  0  0  0
   57.0279   28.6148   44.0312 H   0  0  0  0  0  0  0  0  0  0  0  0
   55.9750   27.6090   45.5580 O   0  0  0  0  0  0  0  0  0  0  0  0
   56.1390   26.2610   45.7690 C   0  0  0  0  0  0  0  0  0  0  0  0
   55.2390   25.5180   46.2380 O   0  0  0  0  0  0  0  0  0  0  0  0
   57.4190   25.7910   45.4110 N   0  0  0  0  0  0  0  0  0  0  0  0
   58.1540   26.9500   44.9210 C   0  0  0  0  0  0  0  0  0  0  0  0
   58.4639   26.7929   43.8773 H   0  0  0  0  0  0  0  0  0  0  0  0
   59.0667   27.1266   45.5090 H   0  0  0  0  0  0  0  0  0  0  0  0
   58.8390   31.8300   46.7030 C   0  0  0  0  0  0  0  0  0  0  0  0
   59.1549   30.9116   47.2196 H   0  0  0  0  0  0  0  0  0  0  0  0
   57.3920   31.6210   50.8470 C   0  0  0  0  0  0  0  0  0  0  0  0
   56.5273   31.9938   50.2784 H   0  0  0  0  0  0  0  0  0  0  0  0
   57.2330   30.5660   51.7660 C   0  0  0  0  0  0  0  0  0  0  0  0
   55.9950   29.9480   52.0000 O   0  0  0  0  0  0  0  0  0  0  0  0
   54.9350   30.5240   52.7590 C   0  0  0  0  0  0  0  0  0  0  0  0
   54.7055   29.8784   53.6196 H   0  0  0  0  0  0  0  0  0  0  0  0
   55.2370   31.5178   53.1210 H   0  0  0  0  0  0  0  0  0  0  0  0
   53.7190   30.6520   51.8890 C   0  0  0  0  0  0  0  0  0  0  0  0
   53.5130   29.7530   50.8300 C   0  0  0  0  0  0  0  0  0  0  0  0
   54.2553   28.9672   50.6260 H   0  0  0  0  0  0  0  0  0  0  0  0
   52.3680   29.8530   50.0340 C   0  0  0  0  0  0  0  0  0  0  0  0
   52.2151   29.1509   49.2011 H   0  0  0  0  0  0  0  0  0  0  0  0
   51.4170   30.8440   50.2950 C   0  0  0  0  0  0  0  0  0  0  0  0
   50.5201   30.9250   49.6633 H   0  0  0  0  0  0  0  0  0  0  0  0
   51.6050   31.7320   51.3580 C   0  0  0  0  0  0  0  0  0  0  0  0
   50.6560   32.7120   51.6220 O   0  0  0  0  0  0  0  0  0  0  0  0
   52.7490   31.6340   52.1570 C   0  0  0  0  0  0  0  0  0  0  0  0
   52.8904   32.3281   52.9986 H   0  0  0  0  0  0  0  0  0  0  0  0
   58.3460   30.1030   52.4710 C   0  0  0  0  0  0  0  0  0  0  0  0
   58.2384   29.2857   53.1993 H   0  0  0  0  0  0  0  0  0  0  0  0
  1  2  1  0
  2  3  1  0
  3  4  1  0
  4  5  2  0
  5  6  1  0
  6  7  2  0
  6  8  1  0
  8  9  1  0
  8 10  1  0
  8 11  1  0
 11 12  2  0
 12 13  1  0
 12 14  1  0
 14 15  1  0
 14 16  2  0
 16 17  1  0
 16 18  1  0
 18 19  1  0
 19 20  1  0
 20 21  1  0
 20 22  1  0
 20 23  1  0
 23 24  1  6
 23 25  1  0
 25 26  1  0
 26 27  2  0
 26 28  1  0
 28 29  1  0
 29 30  1  0
 29 31  1  0
 18 32  2  0
 32 33  1  0
  4 34  1  0
 34 35  1  0
 34 36  2  0
 36 37  1  0
 37 38  1  0
 38 39  1  0
 38 40  1  0
 38 41  1  0
 41 42  2  0
 42 43  1  0
 42 44  1  0
 44 45  1  0
 44 46  2  0
 46 47  1  0
 46 48  1  0
 48 49  1  0
 48 50  2  0
 50 51  1  0
 36 52  1  0
 52 53  1  0
 52  2  2  0
 32 11  1  0
 50 41  1  0
 29 23  1  0
M  CHG  3   3  -1  28  -1  49  -1
M  END
>  <UniqueID>  (40) 
38

>  <SMILES>  (40) 
O=C(Cc1cccc(OC[C@H]2C[N-]C(=O)O2)c1)/N=c1\cc(OCc2cccc([O-])c2)cc[n-]1

>  <Energy>  (40) 
76.18414696556586

>  <Genealogy>  (40) 
O=C(Cc1cccc(OCC2C[N-]C(=O)O2)c1)N=c1cc(OCc2cccc([O-])c2)cc[n-]1 (protonated)
O=C(Cc1cccc(OC[C@H]2C[N-]C(=O)O2)c1)N=c1cc(OCc2cccc([O-])c2)cc[n-]1 (chirality)
O=C(Cc1cccc(OC[C@H]2C[N-]C(=O)O2)c1)/N=c1\cc(OCc2cccc([O-])c2)cc[n-]1 (cis-trans isomerization)
O=C(Cc1cccc(OC[C@H]2C[N-]C(=O)O2)c1)/N=c1\cc(OCc2cccc([O-])c2)cc[n-]1 (3D coordinates assigned)
O=C(Cc1cccc(OC[C@H]2C[N-]C(=O)O2)c1)/N=c1\cc(OCc2cccc([O-])c2)cc[n-]1 (nonaromatic ring conformer: 76.18414696556586 kcal/mol)

>  <smiles>  (40) 
O=C(Cc1cccc(OCC2CNC(=O)O2)c1)N=c1cc(OCc2cccc(O)c2)cc[nH]1

>  <score_type>  (40) 
oracle

>  <origin>  (40) 
adg

>  <m_score__min__energy>  (40) 
-16.489999999999998

>  <m_primary>  (40) 
energy

$$$$
40:0
     RDKit          3D

 35 37  0  0  0  0  0  0  0  0999 V2000
   58.3118   32.9472   41.8390 H   0  0  0  0  0  0  0  0  0  0  0  0
   58.1170   32.7130   42.8960 C   0  0  0  0  0  0  0  0  0  0  0  0
   58.5320   33.5680   43.8670 N   0  0  0  0  0  0  0  0  0  0  0  0
   58.3000   33.3250   45.1840 C   0  0  0  0  0  0  0  0  0  0  0  0
   58.8140   34.2780   46.2150 C   0  0  0  0  0  0  0  0  0  0  0  0
   58.6006   33.8823   47.2189 H   0  0  0  0  0  0  0  0  0  0  0  0
   59.9003   34.4001   46.0923 H   0  0  0  0  0  0  0  0  0  0  0  0
   58.3193   35.2528   46.0923 H   0  0  0  0  0  0  0  0  0  0  0  0
   57.6360   32.1510   45.5670 C   0  0  0  0  0  0  0  0  0  0  0  0
   57.4539   31.9435   46.6318 H   0  0  0  0  0  0  0  0  0  0  0  0
   57.2050   31.2430   44.5920 C   0  0  0  0  0  0  0  0  0  0  0  0
   56.6030   30.1520   44.9810 N   0  0  0  0  0  0  0  0  0  0  0  0
   56.8920   28.7810   44.5560 C   0  0  0  0  0  0  0  0  0  0  0  0
   56.2108   28.0923   45.0772 H   0  0  0  0  0  0  0  0  0  0  0  0
   56.7498   28.7157   43.4672 H   0  0  0  0  0  0  0  0  0  0  0  0
   58.3100   28.4030   44.8750 C   0  0  0  0  0  0  0  0  0  0  0  0
   59.3730   28.7790   44.1370 N   0  0  0  0  0  0  0  0  0  0  0  0
   60.4120   28.2330   44.7520 N   0  0  0  0  0  0  0  0  0  0  0  0
   61.4020   28.3330   44.4410 H   0  0  0  0  0  0  0  0  0  0  0  0
   60.0290   27.5480   45.8180 N   0  0  0  0  0  0  0  0  0  0  0  0
   58.7130   27.6310   45.9070 N   0  0  0  0  0  0  0  0  0  0  0  0
   57.9180   27.0470   46.9850 C   0  0  0  0  0  0  0  0  0  0  0  0
   58.5571   26.3862   47.5890 H   0  0  0  0  0  0  0  0  0  0  0  0
   57.5143   27.8581   47.6088 H   0  0  0  0  0  0  0  0  0  0  0  0
   56.7790   26.2540   46.4260 C   0  0  0  0  0  0  0  0  0  0  0  0
   55.5130   26.7050   46.3580 N   0  0  0  0  0  0  0  0  0  0  0  0
   54.7880   25.7210   45.8580 N   0  0  0  0  0  0  0  0  0  0  0  0
   55.6330   24.6960   45.6410 C   0  0  0  0  0  0  0  0  0  0  0  0
   55.2090   23.3720   45.1010 C   0  0  0  0  0  0  0  0  0  0  0  0
   54.9902   22.6889   45.9350 H   0  0  0  0  0  0  0  0  0  0  0  0
   54.3067   23.4992   44.4849 H   0  0  0  0  0  0  0  0  0  0  0  0
   56.0174   22.9514   44.4849 H   0  0  0  0  0  0  0  0  0  0  0  0
   56.9000   24.9830   45.9980 N   0  0  0  0  0  0  0  0  0  0  0  0
   57.4440   31.5380   43.2360 C   0  0  0  0  0  0  0  0  0  0  0  0
   57.1029   30.8477   42.4504 H   0  0  0  0  0  0  0  0  0  0  0  0
  1  2  1  0
  2  3  1  0
  3  4  1  0
  4  5  1  0
  5  6  1  0
  5  7  1  0
  5  8  1  0
  4  9  2  0
  9 10  1  0
  9 11  1  0
 11 12  2  0
 12 13  1  0
 13 14  1  0
 13 15  1  0
 13 16  1  0
 16 17  2  0
 17 18  1  0
 18 19  1  0
 18 20  2  0
 20 21  1  0
 21 22  1  0
 22 23  1  0
 22 24  1  0
 22 25  1  0
 25 26  2  0
 26 27  1  0
 27 28  1  0
 28 29  1  0
 29 30  1  0
 29 31  1  0
 29 32  1  0
 28 33  2  0
 11 34  1  0
 34 35  1  0
 34  2  2  0
 21 16  1  0
 33 25  1  0
M  CHG  3   3  -1  18   1  27  -1
M  END
>  <UniqueID>  (41) 
39

>  <SMILES>  (41) 
Cc1c/c(=N/Cc2n[nH+]nn2Cc2n[n-]c(C)n2)cc[n-]1

>  <Energy>  (41) 
102.97347714094767

>  <Genealogy>  (41) 
Cc1cc(=NCc2n[nH+]nn2Cc2n[n-]c(C)n2)cc[n-]1 (protonated)
Cc1c/c(=N/Cc2n[nH+]nn2Cc2n[n-]c(C)n2)cc[n-]1 (cis-trans isomerization)
Cc1c/c(=N/Cc2n[nH+]nn2Cc2n[n-]c(C)n2)cc[n-]1 (3D coordinates assigned)
Cc1c/c(=N/Cc2n[nH+]nn2Cc2n[n-]c(C)n2)cc[n-]1 (optimized conformer: 102.97347714094767 kcal/mol)

>  <smiles>  (41) 
Cc1cc(=NCc2nnnn2Cc2n[nH]c(C)n2)cc[nH]1

>  <score_type>  (41) 
oracle

>  <origin>  (41) 
adg

>  <m_score__min__energy>  (41) 
-9.0899999999999999

>  <m_primary>  (41) 
energy

$$$$
41:0
     RDKit          3D

 52 54  0  0  0  0  0  0  0  0999 V2000
   57.9420   30.8900   51.0170 C   0  0  0  0  0  0  0  0  0  0  0  0
   58.6490   29.6500   50.7190 N   0  0  0  0  0  0  0  0  0  0  0  0
   60.0470   29.6150   50.4190 C   0  0  0  0  0  0  0  0  0  0  0  0
   60.5260   28.6990   49.6980 O   0  0  0  0  0  0  0  0  0  0  0  0
   60.9470   30.6720   50.9780 C   0  0  0  0  0  0  0  0  0  0  0  0
   61.6940   31.3940   49.8840 C   0  0  0  0  0  0  0  0  0  0  0  0
   63.0820   31.2450   49.7600 C   0  0  0  0  0  0  0  0  0  0  0  0
   63.7860   31.9580   48.7840 C   0  0  0  0  0  0  0  0  0  0  0  0
   63.1100   32.8260   47.9240 C   0  0  0  0  0  0  0  0  0  0  0  0
   61.7170   32.9910   48.0380 C   0  0  0  0  0  0  0  0  0  0  0  0
   60.9890   33.8730   47.1750 N   0  0  0  0  0  0  0  0  0  0  0  0
   59.2570   34.0030   47.1540 S   0  0  0  0  0  0  0  0  0  0  0  0
   58.8640   35.4540   47.1090 O   0  0  0  0  0  0  0  0  0  0  0  0
   58.6770   33.3840   48.3990 O   0  0  0  0  0  0  0  0  0  0  0  0
   58.6660   33.2000   45.7020 C   0  0  0  0  0  0  0  0  0  0  0  0
   59.0780   33.6160   44.4280 C   0  0  0  0  0  0  0  0  0  0  0  0
   58.4900   33.0640   43.2860 C   0  0  0  0  0  0  0  0  0  0  0  0
   57.4800   32.1050   43.4120 C   0  0  0  0  0  0  0  0  0  0  0  0
   57.0710   31.6770   44.6840 C   0  0  0  0  0  0  0  0  0  0  0  0
   56.0080   30.7310   44.8280 N   0  0  0  0  0  0  0  0  0  0  0  0
   56.1140   29.3870   44.3520 C   0  0  0  0  0  0  0  0  0  0  0  0
   56.4450   29.1790   43.1570 O   0  0  0  0  0  0  0  0  0  0  0  0
   55.9000   28.2890   45.2470 N   0  0  0  0  0  0  0  0  0  0  0  0
   56.9730   27.4210   45.7140 C   0  0  0  0  0  0  0  0  0  0  0  0
   58.2380   28.2200   45.8320 C   0  0  0  0  0  0  0  0  0  0  0  0
   58.4480   29.0630   46.9370 C   0  0  0  0  0  0  0  0  0  0  0  0
   59.6230   29.8170   47.0320 C   0  0  0  0  0  0  0  0  0  0  0  0
   60.5870   29.7420   46.0230 C   0  0  0  0  0  0  0  0  0  0  0  0
   60.3730   28.9220   44.9120 C   0  0  0  0  0  0  0  0  0  0  0  0
   59.2030   28.1660   44.8090 C   0  0  0  0  0  0  0  0  0  0  0  0
   57.6790   32.2120   45.8240 C   0  0  0  0  0  0  0  0  0  0  0  0
   61.0190   32.2730   49.0180 C   0  0  0  0  0  0  0  0  0  0  0  0
   57.8692   31.0177   52.1071 H   0  0  0  0  0  0  0  0  0  0  0  0
   58.4920   31.7387   50.5843 H   0  0  0  0  0  0  0  0  0  0  0  0
   56.9315   30.8490   50.5843 H   0  0  0  0  0  0  0  0  0  0  0  0
   60.3404   31.3994   51.5374 H   0  0  0  0  0  0  0  0  0  0  0  0
   61.6820   30.1875   51.6375 H   0  0  0  0  0  0  0  0  0  0  0  0
   63.6210   30.5632   50.4343 H   0  0  0  0  0  0  0  0  0  0  0  0
   64.8753   31.8346   48.6937 H   0  0  0  0  0  0  0  0  0  0  0  0
   63.6675   33.3820   47.1558 H   0  0  0  0  0  0  0  0  0  0  0  0
   59.8650   34.3778   44.3269 H   0  0  0  0  0  0  0  0  0  0  0  0
   58.8221   33.3843   42.2875 H   0  0  0  0  0  0  0  0  0  0  0  0
   57.0055   31.6856   42.5125 H   0  0  0  0  0  0  0  0  0  0  0  0
   56.7079   27.0045   46.6970 H   0  0  0  0  0  0  0  0  0  0  0  0
   57.1208   26.5984   44.9988 H   0  0  0  0  0  0  0  0  0  0  0  0
   57.6872   29.1301   47.7286 H   0  0  0  0  0  0  0  0  0  0  0  0
   59.7881   30.4696   47.9020 H   0  0  0  0  0  0  0  0  0  0  0  0
   61.5142   30.3284   46.1034 H   0  0  0  0  0  0  0  0  0  0  0  0
   61.1294   28.8716   44.1149 H   0  0  0  0  0  0  0  0  0  0  0  0
   59.0359   27.5284   43.9283 H   0  0  0  0  0  0  0  0  0  0  0  0
   57.3814   31.8559   46.8213 H   0  0  0  0  0  0  0  0  0  0  0  0
   59.9301   32.3983   49.1112 H   0  0  0  0  0  0  0  0  0  0  0  0
  1  2  1  0
  2  3  1  0
  3  4  2  0
  3  5  1  0
  5  6  1  0
  6  7  2  0
  7  8  1  0
  8  9  2  0
  9 10  1  0
 10 11  1  0
 11 12  1  0
 12 13  2  0
 12 14  2  0
 12 15  1  0
 15 16  2  0
 16 17  1  0
 17 18  2  0
 18 19  1  0
 19 20  1  0
 20 21  1  0
 21 22  2  0
 21 23  1  0
 23 24  1  0
 24 25  1  0
 25 26  2  0
 26 27  1  0
 27 28  2  0
 28 29  1  0
 29 30  2  0
 19 31  2  0
 10 32  2  0
 32  6  1  0
 31 15  1  0
 30 25  1  0
  1 33  1  0
  1 34  1  0
  1 35  1  0
  5 36  1  0
  5 37  1  0
  7 38  1  0
  8 39  1  0
  9 40  1  0
 16 41  1  0
 17 42  1  0
 18 43  1  0
 24 44  1  0
 24 45  1  0
 26 46  1  0
 27 47  1  0
 28 48  1  0
 29 49  1  0
 30 50  1  0
 31 51  1  0
 32 52  1  0
M  CHG  4   2  -1  11  -1  20  -1  23  -1
M  END
>  <UniqueID>  (42) 
40

>  <SMILES>  (42) 
C[N-]C(=O)Cc1cccc([N-]S(=O)(=O)c2cccc([N-]C(=O)[N-]Cc3ccccc3)c2)c1

>  <Energy>  (42) 
54.52667263612651

>  <Genealogy>  (42) 
C[N-]C(=O)Cc1cccc([N-]S(=O)(=O)c2cccc([N-]C(=O)[N-]Cc3ccccc3)c2)c1 (protonated)
C[N-]C(=O)Cc1cccc([N-]S(=O)(=O)c2cccc([N-]C(=O)[N-]Cc3ccccc3)c2)c1 (3D coordinates assigned)
C[N-]C(=O)Cc1cccc([N-]S(=O)(=O)c2cccc([N-]C(=O)[N-]Cc3ccccc3)c2)c1 (optimized conformer: 54.52667263612651 kcal/mol)

>  <smiles>  (42) 
CNC(=O)Cc1cccc(NS(=O)(=O)c2cccc(NC(=O)NCc3ccccc3)c2)c1

>  <score_type>  (42) 
oracle

>  <origin>  (42) 
adg

>  <m_score__min__energy>  (42) 
-14.94

>  <m_primary>  (42) 
energy

$$$$
42:0
     RDKit          3D

 51 53  0  0  0  0  0  0  0  0999 V2000
   56.2960   24.3740   44.4080 C   0  0  0  0  0  0  0  0  0  0  0  0
   55.4210   24.7800   45.9050 S   0  0  0  0  0  0  0  0  0  0  0  0
   55.6080   23.6560   46.8840 O   0  0  0  0  0  0  0  0  0  0  0  0
   53.9520   24.9420   45.6280 O   0  0  0  0  0  0  0  0  0  0  0  0
   56.0610   26.2380   46.5980 N   0  0  0  0  0  0  0  0  0  0  0  0
   57.4640   26.5500   46.6630 C   0  0  0  0  0  0  0  0  0  0  0  0
   58.4000   25.5400   46.4000 C   0  0  0  0  0  0  0  0  0  0  0  0
   59.7690   25.8130   46.4410 C   0  0  0  0  0  0  0  0  0  0  0  0
   60.2190   27.0960   46.7530 C   0  0  0  0  0  0  0  0  0  0  0  0
   59.3020   28.1230   47.0340 C   0  0  0  0  0  0  0  0  0  0  0  0
   59.7790   29.4960   47.3380 C   0  0  0  0  0  0  0  0  0  0  0  0
   60.7470   30.1150   46.5270 C   0  0  0  0  0  0  0  0  0  0  0  0
   61.1410   31.4340   46.7730 C   0  0  0  0  0  0  0  0  0  0  0  0
   60.5740   32.1520   47.8320 C   0  0  0  0  0  0  0  0  0  0  0  0
   60.9450   33.8580   48.0670 S   0  0  0  0  0  0  0  0  0  0  0  0
   61.1170   34.1160   49.5370 O   0  0  0  0  0  0  0  0  0  0  0  0
   62.2240   34.2190   47.3640 O   0  0  0  0  0  0  0  0  0  0  0  0
   59.6470   34.8510   47.4640 N   0  0  0  0  0  0  0  0  0  0  0  0
   59.6160   34.8650   45.9980 C   0  0  0  0  0  0  0  0  0  0  0  0
   58.8420   33.6890   45.4610 C   0  0  0  0  0  0  0  0  0  0  0  0
   58.8180   33.4180   44.0820 C   0  0  0  0  0  0  0  0  0  0  0  0
   58.1560   32.2880   43.5940 C   0  0  0  0  0  0  0  0  0  0  0  0
   57.4940   31.4220   44.4760 C   0  0  0  0  0  0  0  0  0  0  0  0
   56.6980   29.9670   43.8810 S   0  0  0  0  0  0  0  0  0  0  0  0
   55.3120   29.6190   44.8560 N   0  0  0  0  0  0  0  0  0  0  0  0
   56.2490   30.1650   42.4600 O   0  0  0  0  0  0  0  0  0  0  0  0
   57.6600   28.8130   43.9350 O   0  0  0  0  0  0  0  0  0  0  0  0
   57.4860   31.7070   45.8480 C   0  0  0  0  0  0  0  0  0  0  0  0
   58.1490   32.8380   46.3370 C   0  0  0  0  0  0  0  0  0  0  0  0
   59.6420   31.5280   48.6700 C   0  0  0  0  0  0  0  0  0  0  0  0
   59.2430   30.2130   48.4230 C   0  0  0  0  0  0  0  0  0  0  0  0
   57.9240   27.8380   46.9960 C   0  0  0  0  0  0  0  0  0  0  0  0
   57.2670   23.9235   44.6615 H   0  0  0  0  0  0  0  0  0  0  0  0
   55.7027   23.6592   43.8189 H   0  0  0  0  0  0  0  0  0  0  0  0
   56.4588   25.2886   43.8189 H   0  0  0  0  0  0  0  0  0  0  0  0
   55.3850   26.8540   47.1040 H   0  0  0  0  0  0  0  0  0  0  0  0
   58.0533   24.5242   46.1594 H   0  0  0  0  0  0  0  0  0  0  0  0
   60.4943   25.0143   46.2267 H   0  0  0  0  0  0  0  0  0  0  0  0
   61.2986   27.3051   46.7792 H   0  0  0  0  0  0  0  0  0  0  0  0
   61.1977   29.5573   45.6928 H   0  0  0  0  0  0  0  0  0  0  0  0
   61.8988   31.9086   46.1323 H   0  0  0  0  0  0  0  0  0  0  0  0
   59.1381   35.7954   45.6576 H   0  0  0  0  0  0  0  0  0  0  0  0
   60.6493   34.8028   45.6259 H   0  0  0  0  0  0  0  0  0  0  0  0
   59.3236   34.0998   43.3823 H   0  0  0  0  0  0  0  0  0  0  0  0
   58.1543   32.0773   42.5144 H   0  0  0  0  0  0  0  0  0  0  0  0
   55.1750   28.5830   44.8430 H   0  0  0  0  0  0  0  0  0  0  0  0
   56.9565   31.0390   46.5433 H   0  0  0  0  0  0  0  0  0  0  0  0
   58.1272   33.0618   47.4138 H   0  0  0  0  0  0  0  0  0  0  0  0
   59.2224   32.0760   49.5265 H   0  0  0  0  0  0  0  0  0  0  0  0
   58.5038   29.7340   49.0819 H   0  0  0  0  0  0  0  0  0  0  0  0
   57.1982   28.6310   47.2292 H   0  0  0  0  0  0  0  0  0  0  0  0
  1  2  1  0
  2  3  2  0
  2  4  2  0
  2  5  1  0
  5  6  1  0
  6  7  2  0
  7  8  1  0
  8  9  2  0
  9 10  1  0
 10 11  1  0
 11 12  2  0
 12 13  1  0
 13 14  2  0
 14 15  1  0
 15 16  2  0
 15 17  2  0
 15 18  1  0
 18 19  1  0
 19 20  1  0
 20 21  2  0
 21 22  1  0
 22 23  2  0
 23 24  1  0
 24 25  1  0
 24 26  2  0
 24 27  2  0
 23 28  1  0
 28 29  2  0
 14 30  1  0
 30 31  2  0
 10 32  2  0
 32  6  1  0
 31 11  1  0
 29 20  1  0
  1 33  1  0
  1 34  1  0
  1 35  1  0
  5 36  1  0
  7 37  1  0
  8 38  1  0
  9 39  1  0
 12 40  1  0
 13 41  1  0
 19 42  1  0
 19 43  1  0
 21 44  1  0
 22 45  1  0
 25 46  1  0
 28 47  1  0
 29 48  1  0
 30 49  1  0
 31 50  1  0
 32 51  1  0
M  CHG  2  18  -1  25  -1
M  END
>  <UniqueID>  (43) 
41

>  <SMILES>  (43) 
CS(=O)(=O)Nc1cccc(-c2ccc(S(=O)(=O)[N-]Cc3ccc(S([NH-])(=O)=O)cc3)cc2)c1

>  <Energy>  (43) 
49.108319537356145

>  <Genealogy>  (43) 
CS(=O)(=O)Nc1cccc(-c2ccc(S(=O)(=O)[N-]Cc3ccc(S([NH-])(=O)=O)cc3)cc2)c1 (protonated)
CS(=O)(=O)Nc1cccc(-c2ccc(S(=O)(=O)[N-]Cc3ccc(S([NH-])(=O)=O)cc3)cc2)c1 (3D coordinates assigned)
CS(=O)(=O)Nc1cccc(-c2ccc(S(=O)(=O)[N-]Cc3ccc(S([NH-])(=O)=O)cc3)cc2)c1 (optimized conformer: 49.108319537356145 kcal/mol)

>  <smiles>  (43) 
CS(=O)(=O)Nc1cccc(-c2ccc(S(=O)(=O)NCc3ccc(S(N)(=O)=O)cc3)cc2)c1

>  <score_type>  (43) 
oracle

>  <origin>  (43) 
adg

>  <m_score__min__energy>  (43) 
-13.51

>  <m_primary>  (43) 
energy

$$$$
43:0
     RDKit          3D

 25 27  0  0  0  0  0  0  0  0999 V2000
   56.9740   23.0060   48.0570 O   0  0  0  0  0  0  0  0  0  0  0  0
   56.8130   23.9650   47.2580 C   0  0  0  0  0  0  0  0  0  0  0  0
   55.7560   24.8030   47.3330 N   0  0  0  0  0  0  0  0  0  0  0  0
   55.9840   25.6520   46.3170 C   0  0  0  0  0  0  0  0  0  0  0  0
   55.1500   26.7170   46.0000 O   0  0  0  0  0  0  0  0  0  0  0  0
   57.1420   25.3100   45.6610 C   0  0  0  0  0  0  0  0  0  0  0  0
   57.7750   26.0390   44.5170 C   0  0  0  0  0  0  0  0  0  0  0  0
   58.6000   27.1800   45.0300 C   0  0  0  0  0  0  0  0  0  0  0  0
   59.8480   27.0860   45.6400 C   0  0  0  0  0  0  0  0  0  0  0  0
   60.2640   28.3040   46.0550 N   0  0  0  0  0  0  0  0  0  0  0  0
   59.2840   29.1640   45.7240 C   0  0  0  0  0  0  0  0  0  0  0  0
   59.2490   30.5360   45.9660 C   0  0  0  0  0  0  0  0  0  0  0  0
   58.1100   31.2490   45.5480 C   0  0  0  0  0  0  0  0  0  0  0  0
   57.0420   30.5810   44.9070 C   0  0  0  0  0  0  0  0  0  0  0  0
   55.9230   31.2970   44.5000 O   0  0  0  0  0  0  0  0  0  0  0  0
   57.1060   29.1930   44.6780 C   0  0  0  0  0  0  0  0  0  0  0  0
   58.2490   28.5140   45.1020 C   0  0  0  0  0  0  0  0  0  0  0  0
   57.6850   24.2370   46.2620 N   0  0  0  0  0  0  0  0  0  0  0  0
   58.4198   25.3466   43.9559 H   0  0  0  0  0  0  0  0  0  0  0  0
   56.9864   26.4312   43.8581 H   0  0  0  0  0  0  0  0  0  0  0  0
   60.4157   26.1524   45.7666 H   0  0  0  0  0  0  0  0  0  0  0  0
   61.1580   28.5250   46.5470 H   0  0  0  0  0  0  0  0  0  0  0  0
   60.0850   31.0453   46.4677 H   0  0  0  0  0  0  0  0  0  0  0  0
   58.0505   32.3336   45.7213 H   0  0  0  0  0  0  0  0  0  0  0  0
   56.2814   28.6611   44.1808 H   0  0  0  0  0  0  0  0  0  0  0  0
  1  2  2  0
  2  3  1  0
  3  4  1  0
  4  5  1  0
  4  6  2  0
  6  7  1  0
  7  8  1  0
  8  9  2  0
  9 10  1  0
 10 11  1  0
 11 12  2  0
 12 13  1  0
 13 14  2  0
 14 15  1  0
 14 16  1  0
 16 17  2  0
  6 18  1  0
 18  2  1  0
 17  8  1  0
 17 11  1  0
  7 19  1  0
  7 20  1  0
  9 21  1  0
 10 22  1  0
 12 23  1  0
 13 24  1  0
 16 25  1  0
M  CHG  4   3  -1   5  -1  15  -1  18  -1
M  END
>  <UniqueID>  (44) 
42

>  <SMILES>  (44) 
O=c1[n-]c([O-])c(Cc2c[nH]c3ccc([O-])cc23)[n-]1

>  <Energy>  (44) 
87.76653403528772

>  <Genealogy>  (44) 
O=c1[n-]c([O-])c(Cc2c[nH]c3ccc([O-])cc23)[n-]1 (protonated)
O=c1[n-]c([O-])c(Cc2c[nH]c3ccc([O-])cc23)[n-]1 (3D coordinates assigned)
O=c1[n-]c([O-])c(Cc2c[nH]c3ccc([O-])cc23)[n-]1 (optimized conformer: 87.76653403528772 kcal/mol)

>  <smiles>  (44) 
O=c1[nH]c(O)c(Cc2c[nH]c3ccc(O)cc23)[nH]1

>  <score_type>  (44) 
oracle

>  <origin>  (44) 
adg

>  <m_score__min__energy>  (44) 
-15.9

>  <m_primary>  (44) 
energy

$$$$
44:0
     RDKit          3D

 66 70  0  0  0  0  0  0  0  0999 V2000
   55.5120   29.3950   44.8730 O   0  0  0  0  0  0  0  0  0  0  0  0
   56.4660   30.1450   44.5310 C   0  0  0  0  0  0  0  0  0  0  0  0
   57.6210   29.5250   43.7960 C   0  0  0  0  0  0  0  0  0  0  0  0
   57.4080   28.0730   43.7150 N   0  0  0  0  0  0  0  0  0  0  0  0
   58.5380   27.3040   44.2570 C   0  0  0  0  0  0  0  0  0  0  0  0
   58.1190   25.9550   44.7910 C   0  0  0  0  0  0  0  0  0  0  0  0
   58.7730   25.3980   45.9000 C   0  0  0  0  0  0  0  0  0  0  0  0
   58.4310   24.1230   46.3490 C   0  0  0  0  0  0  0  0  0  0  0  0
   57.4220   23.3990   45.7110 C   0  0  0  0  0  0  0  0  0  0  0  0
   56.7440   23.9440   44.6070 C   0  0  0  0  0  0  0  0  0  0  0  0
   55.6530   23.1890   43.9380 C   0  0  0  0  0  0  0  0  0  0  0  0
   55.9290   22.3720   43.0190 O   0  0  0  0  0  0  0  0  0  0  0  0
   54.2740   23.4120   44.2660 N   0  0  0  0  0  0  0  0  0  0  0  0
   53.6600   23.0130   45.3440 C   0  0  0  0  0  0  0  0  0  0  0  0
   54.2950   22.9650   46.6040 C   0  0  0  0  0  0  0  0  0  0  0  0
   53.5850   22.5000   47.7120 C   0  0  0  0  0  0  0  0  0  0  0  0
   52.2610   22.0860   47.5680 C   0  0  0  0  0  0  0  0  0  0  0  0
   51.6630   22.1410   46.3080 C   0  0  0  0  0  0  0  0  0  0  0  0
   52.3680   22.5940   45.2380 N   0  0  0  0  0  0  0  0  0  0  0  0
   57.1030   25.2250   44.1510 C   0  0  0  0  0  0  0  0  0  0  0  0
   56.3620   31.5450   44.8330 N   0  0  0  0  0  0  0  0  0  0  0  0
   57.3440   32.4970   45.2690 C   0  0  0  0  0  0  0  0  0  0  0  0
   57.7660   33.4690   44.3510 C   0  0  0  0  0  0  0  0  0  0  0  0
   58.6640   34.4680   44.7320 C   0  0  0  0  0  0  0  0  0  0  0  0
   59.1600   34.5010   46.0350 C   0  0  0  0  0  0  0  0  0  0  0  0
   58.7670   33.5250   46.9670 C   0  0  0  0  0  0  0  0  0  0  0  0
   59.3320   33.5220   48.3680 C   0  0  0  0  0  0  0  0  0  0  0  0
   58.9000   32.3120   49.1590 C   0  0  0  0  0  0  0  0  0  0  0  0
   58.0760   32.5050   50.2240 N   0  0  0  0  0  0  0  0  0  0  0  0
   57.7090   31.5070   51.0260 N   0  0  0  0  0  0  0  0  0  0  0  0
   58.1550   30.2400   50.8350 C   0  0  0  0  0  0  0  0  0  0  0  0
   57.8170   29.3390   51.6460 O   0  0  0  0  0  0  0  0  0  0  0  0
   58.9940   29.9570   49.7460 C   0  0  0  0  0  0  0  0  0  0  0  0
   59.3510   31.0010   48.8740 C   0  0  0  0  0  0  0  0  0  0  0  0
   60.2500   30.6730   47.7060 C   0  0  0  0  0  0  0  0  0  0  0  0
   59.8310   29.3340   47.0940 C   0  0  0  0  0  0  0  0  0  0  0  0
   59.8270   28.1740   48.1100 C   0  0  0  0  0  0  0  0  0  0  0  0
   59.6400   28.5970   49.5820 C   0  0  0  0  0  0  0  0  0  0  0  0
   57.8140   32.5610   46.5920 C   0  0  0  0  0  0  0  0  0  0  0  0
   57.6826   29.9465   42.7818 H   0  0  0  0  0  0  0  0  0  0  0  0
   58.5594   29.7353   44.3301 H   0  0  0  0  0  0  0  0  0  0  0  0
   56.5280   27.8160   44.2190 H   0  0  0  0  0  0  0  0  0  0  0  0
   59.2770   27.1521   43.4565 H   0  0  0  0  0  0  0  0  0  0  0  0
   58.9602   27.8778   45.0952 H   0  0  0  0  0  0  0  0  0  0  0  0
   59.5582   25.9690   46.4171 H   0  0  0  0  0  0  0  0  0  0  0  0
   58.9584   23.6857   47.2096 H   0  0  0  0  0  0  0  0  0  0  0  0
   57.1559   22.3955   46.0747 H   0  0  0  0  0  0  0  0  0  0  0  0
   55.3400   23.2912   46.7115 H   0  0  0  0  0  0  0  0  0  0  0  0
   54.0696   22.4601   48.6987 H   0  0  0  0  0  0  0  0  0  0  0  0
   51.6946   21.7204   48.4372 H   0  0  0  0  0  0  0  0  0  0  0  0
   50.6195   21.8172   46.1808 H   0  0  0  0  0  0  0  0  0  0  0  0
   56.5832   25.6599   43.2846 H   0  0  0  0  0  0  0  0  0  0  0  0
   57.3854   33.4443   43.3192 H   0  0  0  0  0  0  0  0  0  0  0  0
   58.9804   35.2295   44.0040 H   0  0  0  0  0  0  0  0  0  0  0  0
   59.8613   35.2937   46.3345 H   0  0  0  0  0  0  0  0  0  0  0  0
   60.4302   33.5301   48.3062 H   0  0  0  0  0  0  0  0  0  0  0  0
   58.9512   34.4149   48.8855 H   0  0  0  0  0  0  0  0  0  0  0  0
   60.1666   31.4644   46.9466 H   0  0  0  0  0  0  0  0  0  0  0  0
   61.2910   30.6048   48.0549 H   0  0  0  0  0  0  0  0  0  0  0  0
   58.8168   29.4406   46.6817 H   0  0  0  0  0  0  0  0  0  0  0  0
   60.5697   29.0850   46.3179 H   0  0  0  0  0  0  0  0  0  0  0  0
   59.0069   27.4907   47.8445 H   0  0  0  0  0  0  0  0  0  0  0  0
   60.8214   27.7077   48.0481 H   0  0  0  0  0  0  0  0  0  0  0  0
   59.0063   27.8489   50.0807 H   0  0  0  0  0  0  0  0  0  0  0  0
   60.6432   28.6611   50.0286 H   0  0  0  0  0  0  0  0  0  0  0  0
   57.4331   31.8509   47.3408 H   0  0  0  0  0  0  0  0  0  0  0  0
  1  2  2  0
  2  3  1  0
  3  4  1  0
  4  5  1  0
  5  6  1  0
  6  7  2  0
  7  8  1  0
  8  9  2  0
  9 10  1  0
 10 11  1  0
 11 12  2  0
 11 13  1  0
 13 14  2  3
 14 15  1  0
 15 16  2  0
 16 17  1  0
 17 18  2  0
 18 19  1  0
 10 20  2  0
  2 21  1  0
 21 22  1  0
 22 23  2  0
 23 24  1  0
 24 25  2  0
 25 26  1  0
 26 27  1  0
 27 28  1  0
 28 29  2  0
 29 30  1  0
 30 31  1  0
 31 32  2  0
 31 33  1  0
 33 34  2  0
 34 35  1  0
 35 36  1  0
 36 37  1  0
 37 38  1  0
 26 39  2  0
 20  6  1  0
 39 22  1  0
 19 14  1  0
 34 28  1  0
 38 33  1  0
  3 40  1  0
  3 41  1  0
  4 42  1  0
  5 43  1  0
  5 44  1  0
  7 45  1  0
  8 46  1  0
  9 47  1  0
 15 48  1  0
 16 49  1  0
 17 50  1  0
 18 51  1  0
 20 52  1  0
 23 53  1  0
 24 54  1  0
 25 55  1  0
 27 56  1  0
 27 57  1  0
 35 58  1  0
 35 59  1  0
 36 60  1  0
 36 61  1  0
 37 62  1  0
 37 63  1  0
 38 64  1  0
 38 65  1  0
 39 66  1  0
M  CHG  3  19  -1  21  -1  30  -1
M  END
>  <UniqueID>  (45) 
43

>  <SMILES>  (45) 
O=C(CNCc1cccc(C(=O)N=c2cccc[n-]2)c1)[N-]c1cccc(Cc2n[n-]c(=O)c3c2CCCC3)c1

>  <Energy>  (45) 
91.2569449090415

>  <Genealogy>  (45) 
O=C(CNCc1cccc(C(=O)N=c2cccc[n-]2)c1)[N-]c1cccc(Cc2n[n-]c(=O)c3c2CCCC3)c1 (protonated)
O=C(CNCc1cccc(C(=O)N=c2cccc[n-]2)c1)[N-]c1cccc(Cc2n[n-]c(=O)c3c2CCCC3)c1 (3D coordinates assigned)
O=C(CNCc1cccc(C(=O)N=c2cccc[n-]2)c1)[N-]c1cccc(Cc2n[n-]c(=O)c3c2CCCC3)c1 (nonaromatic ring conformer: 91.2569449090415 kcal/mol)

>  <smiles>  (45) 
O=C(CNCc1cccc(C(=O)N=c2cccc[nH]2)c1)Nc1cccc(Cc2n[nH]c(=O)c3c2CCCC3)c1

>  <score_type>  (45) 
oracle

>  <origin>  (45) 
adg

>  <m_score__min__energy>  (45) 
-16.260000000000002

>  <m_primary>  (45) 
energy

$$$$
45:0
     RDKit          3D

 15 15  0  0  0  0  0  0  0  0999 V2000
   55.6270   29.1150   45.0180 N   0  0  0  0  0  0  0  0  0  0  0  0
   56.3040   29.7250   43.9160 C   0  0  0  0  0  0  0  0  0  0  0  0
   56.3000   29.1430   42.7970 O   0  0  0  0  0  0  0  0  0  0  0  0
   57.0030   31.0170   44.0800 C   0  0  0  0  0  0  0  0  0  0  0  0
   57.6550   31.6300   42.9960 C   0  0  0  0  0  0  0  0  0  0  0  0
   58.3050   32.8520   43.1860 C   0  0  0  0  0  0  0  0  0  0  0  0
   58.3030   33.4520   44.4460 C   0  0  0  0  0  0  0  0  0  0  0  0
   57.6460   32.8170   45.5020 C   0  0  0  0  0  0  0  0  0  0  0  0
   57.0190   31.6280   45.2970 N   0  0  0  0  0  0  0  0  0  0  0  0
   55.1370   28.2010   44.8910 H   0  0  0  0  0  0  0  0  0  0  0  0
   55.6070   29.5630   45.9610 H   0  0  0  0  0  0  0  0  0  0  0  0
   57.6535   31.1512   42.0057 H   0  0  0  0  0  0  0  0  0  0  0  0
   58.8174   33.3403   42.3440 H   0  0  0  0  0  0  0  0  0  0  0  0
   58.8128   34.4136   44.6054 H   0  0  0  0  0  0  0  0  0  0  0  0
   57.6357   33.2789   46.5002 H   0  0  0  0  0  0  0  0  0  0  0  0
  1  2  1  0
  2  3  2  0
  2  4  1  0
  4  5  2  0
  5  6  1  0
  6  7  2  0
  7  8  1  0
  8  9  2  0
  9  4  1  0
  1 10  1  0
  1 11  1  0
  5 12  1  0
  6 13  1  0
  7 14  1  0
  8 15  1  0
M  END
>  <UniqueID>  (46) 
44

>  <SMILES>  (46) 
NC(=O)c1ccccn1

>  <Energy>  (46) 
13.153486681144729

>  <Genealogy>  (46) 
NC(=O)c1ccccn1 (3D coordinates assigned)
NC(=O)c1ccccn1 (optimized conformer: 13.153486681144729 kcal/mol)

>  <smiles>  (46) 
NC(=O)c1ccccn1

>  <score_type>  (46) 
oracle

>  <origin>  (46) 
adg

>  <m_score__min__energy>  (46) 
-5.3499999999999996

>  <m_primary>  (46) 
energy

$$$$
46:0
     RDKit          3D

 48 50  0  0  0  0  0  0  0  0999 V2000
   54.6740   26.2280   45.9350 N   0  0  0  0  0  0  0  0  0  0  0  0
   55.7860   25.3570   46.1360 C   0  0  0  0  0  0  0  0  0  0  0  0
   55.6520   24.3240   46.8440 O   0  0  0  0  0  0  0  0  0  0  0  0
   57.1000   25.6450   45.4800 C   0  0  0  0  0  0  0  0  0  0  0  0
   58.1020   26.7800   46.5010 S   0  0  0  0  0  0  0  0  0  0  0  0
   57.6090   28.2710   45.6160 C   0  0  0  0  0  0  0  0  0  0  0  0
   56.2970   28.3950   45.2860 N   0  0  0  0  0  0  0  0  0  0  0  0
   55.8300   29.4820   44.6290 C   0  0  0  0  0  0  0  0  0  0  0  0
   56.7010   30.5020   44.2790 C   0  0  0  0  0  0  0  0  0  0  0  0
   58.0510   30.3730   44.6040 C   0  0  0  0  0  0  0  0  0  0  0  0
   58.8420   31.3020   44.2780 O   0  0  0  0  0  0  0  0  0  0  0  0
   58.5080   29.2560   45.2650 N   0  0  0  0  0  0  0  0  0  0  0  0
   59.9540   29.0930   45.5340 C   0  0  0  0  0  0  0  0  0  0  0  0
   60.3550   29.8450   46.7780 C   0  0  0  0  0  0  0  0  0  0  0  0
   61.4200   30.7600   46.7450 C   0  0  0  0  0  0  0  0  0  0  0  0
   61.7710   31.4770   47.8910 C   0  0  0  0  0  0  0  0  0  0  0  0
   61.0610   31.2920   49.0860 C   0  0  0  0  0  0  0  0  0  0  0  0
   61.4060   32.0960   50.2720 C   0  0  0  0  0  0  0  0  0  0  0  0
   62.1900   31.6120   51.1310 O   0  0  0  0  0  0  0  0  0  0  0  0
   60.9260   33.4370   50.4520 N   0  0  0  0  0  0  0  0  0  0  0  0
   59.5880   33.9240   50.1180 C   0  0  0  0  0  0  0  0  0  0  0  0
   59.3420   33.8820   48.6300 C   0  0  0  0  0  0  0  0  0  0  0  0
   60.1510   34.6270   47.7550 C   0  0  0  0  0  0  0  0  0  0  0  0
   59.9340   34.5690   46.3750 C   0  0  0  0  0  0  0  0  0  0  0  0
   58.9000   33.7820   45.8600 C   0  0  0  0  0  0  0  0  0  0  0  0
   58.0780   33.0550   46.7250 C   0  0  0  0  0  0  0  0  0  0  0  0
   58.2960   33.1040   48.1050 C   0  0  0  0  0  0  0  0  0  0  0  0
   60.0260   30.3490   49.1340 C   0  0  0  0  0  0  0  0  0  0  0  0
   59.6720   29.6330   47.9870 C   0  0  0  0  0  0  0  0  0  0  0  0
   54.7630   27.0740   45.3300 H   0  0  0  0  0  0  0  0  0  0  0  0
   53.7530   26.0170   46.3800 H   0  0  0  0  0  0  0  0  0  0  0  0
   57.6496   24.7018   45.3448 H   0  0  0  0  0  0  0  0  0  0  0  0
   56.9104   26.1217   44.5069 H   0  0  0  0  0  0  0  0  0  0  0  0
   54.7626   29.5559   44.3735 H   0  0  0  0  0  0  0  0  0  0  0  0
   56.3341   31.3966   43.7546 H   0  0  0  0  0  0  0  0  0  0  0  0
   60.1773   28.0246   45.6707 H   0  0  0  0  0  0  0  0  0  0  0  0
   60.5191   29.4960   44.6807 H   0  0  0  0  0  0  0  0  0  0  0  0
   61.9809   30.9128   45.8112 H   0  0  0  0  0  0  0  0  0  0  0  0
   62.6080   32.1899   47.8560 H   0  0  0  0  0  0  0  0  0  0  0  0
   58.8413   33.2928   50.6221 H   0  0  0  0  0  0  0  0  0  0  0  0
   59.5064   34.9686   50.4529 H   0  0  0  0  0  0  0  0  0  0  0  0
   60.9575   35.2577   48.1571 H   0  0  0  0  0  0  0  0  0  0  0  0
   60.5782   35.1438   45.6933 H   0  0  0  0  0  0  0  0  0  0  0  0
   58.7334   33.7350   44.7737 H   0  0  0  0  0  0  0  0  0  0  0  0
   57.2584   32.4434   46.3196 H   0  0  0  0  0  0  0  0  0  0  0  0
   57.6461   32.5312   48.7828 H   0  0  0  0  0  0  0  0  0  0  0  0
   59.4899   30.1714   50.0780 H   0  0  0  0  0  0  0  0  0  0  0  0
   58.8537   28.8992   48.0313 H   0  0  0  0  0  0  0  0  0  0  0  0
  1  2  1  0
  2  3  2  0
  2  4  1  0
  4  5  1  0
  5  6  1  0
  6  7  2  0
  7  8  1  0
  8  9  2  0
  9 10  1  0
 10 11  2  0
 10 12  1  0
 12 13  1  0
 13 14  1  0
 14 15  2  0
 15 16  1  0
 16 17  2  0
 17 18  1  0
 18 19  2  0
 18 20  1  0
 20 21  1  0
 21 22  1  0
 22 23  2  0
 23 24  1  0
 24 25  2  0
 25 26  1  0
 26 27  2  0
 17 28  1  0
 28 29  2  0
 12  6  1  0
 29 14  1  0
 27 22  1  0
  1 30  1  0
  1 31  1  0
  4 32  1  0
  4 33  1  0
  8 34  1  0
  9 35  1  0
 13 36  1  0
 13 37  1  0
 15 38  1  0
 16 39  1  0
 21 40  1  0
 21 41  1  0
 23 42  1  0
 24 43  1  0
 25 44  1  0
 26 45  1  0
 27 46  1  0
 28 47  1  0
 29 48  1  0
M  CHG  1  20  -1
M  END
>  <UniqueID>  (47) 
45

>  <SMILES>  (47) 
NC(=O)CSc1nccc(=O)n1Cc1ccc(C(=O)[N-]Cc2ccccc2)cc1

>  <Energy>  (47) 
48.63352953051489

>  <Genealogy>  (47) 
NC(=O)CSc1nccc(=O)n1Cc1ccc(C(=O)[N-]Cc2ccccc2)cc1 (protonated)
NC(=O)CSc1nccc(=O)n1Cc1ccc(C(=O)[N-]Cc2ccccc2)cc1 (3D coordinates assigned)
NC(=O)CSc1nccc(=O)n1Cc1ccc(C(=O)[N-]Cc2ccccc2)cc1 (optimized conformer: 48.63352953051489 kcal/mol)

>  <smiles>  (47) 
NC(=O)CSc1nccc(=O)n1Cc1ccc(C(=O)NCc2ccccc2)cc1

>  <score_type>  (47) 
oracle

>  <origin>  (47) 
adg

>  <m_score__min__energy>  (47) 
-10.550000000000001

>  <m_primary>  (47) 
energy

$$$$
47:0
     RDKit          3D

 33 34  0  0  0  0  0  0  0  0999 V2000
   57.9060   29.6484   43.0667 H   0  0  0  0  0  0  0  0  0  0  0  0
   57.1180   30.2670   43.5210 C   0  0  0  0  0  0  0  0  0  0  0  0
   55.9540   29.5520   44.1060 C   0  0  0  0  0  0  0  0  0  0  0  0
   54.7990   29.6960   43.6260 O   0  0  0  0  0  0  0  0  0  0  0  0
   56.1140   28.7010   45.2470 N   0  0  0  0  0  0  0  0  0  0  0  0
   57.3570   28.2180   45.7770 C   0  0  0  0  0  0  0  0  0  0  0  0
   57.7900   26.9010   45.5480 C   0  0  0  0  0  0  0  0  0  0  0  0
   57.1824   26.2237   44.9299 H   0  0  0  0  0  0  0  0  0  0  0  0
   58.9900   26.4490   46.1030 C   0  0  0  0  0  0  0  0  0  0  0  0
   59.3333   25.4225   45.9069 H   0  0  0  0  0  0  0  0  0  0  0  0
   59.7550   27.2990   46.9070 C   0  0  0  0  0  0  0  0  0  0  0  0
   60.7048   26.9442   47.3337 H   0  0  0  0  0  0  0  0  0  0  0  0
   59.3130   28.6030   47.1700 C   0  0  0  0  0  0  0  0  0  0  0  0
   60.2730   29.6800   48.1800 S   0  0  0  0  0  0  0  0  0  0  0  0
   60.7560   28.9370   49.3950 O   0  0  0  0  0  0  0  0  0  0  0  0
   61.4670   30.1740   47.4120 O   0  0  0  0  0  0  0  0  0  0  0  0
   59.3080   31.0280   48.6720 N   0  0  0  0  0  0  0  0  0  0  0  0
   59.7820   31.8880   48.3140 H   0  0  0  0  0  0  0  0  0  0  0  0
   58.3980   30.9520   48.1640 H   0  0  0  0  0  0  0  0  0  0  0  0
   58.1120   29.0550   46.6060 C   0  0  0  0  0  0  0  0  0  0  0  0
   57.7603   30.0757   46.8168 H   0  0  0  0  0  0  0  0  0  0  0  0
   57.2980   31.5980   43.4950 C   0  0  0  0  0  0  0  0  0  0  0  0
   57.0022   32.1282   42.5777 H   0  0  0  0  0  0  0  0  0  0  0  0
   57.8590   32.4090   44.5930 C   0  0  0  0  0  0  0  0  0  0  0  0
   57.7910   31.9780   45.9280 C   0  0  0  0  0  0  0  0  0  0  0  0
   57.2692   31.0421   46.1765 H   0  0  0  0  0  0  0  0  0  0  0  0
   58.3680   32.7140   46.9130 N   0  0  0  0  0  0  0  0  0  0  0  0
   59.0390   33.8660   46.6460 C   0  0  0  0  0  0  0  0  0  0  0  0
   59.4880   34.4440   47.4672 H   0  0  0  0  0  0  0  0  0  0  0  0
   59.1580   34.3150   45.3300 C   0  0  0  0  0  0  0  0  0  0  0  0
   59.7060   35.2424   45.1072 H   0  0  0  0  0  0  0  0  0  0  0  0
   58.5750   33.5760   44.2990 C   0  0  0  0  0  0  0  0  0  0  0  0
   58.6780   33.9103   43.2561 H   0  0  0  0  0  0  0  0  0  0  0  0
  1  2  1  0
  2  3  1  0
  3  4  2  0
  3  5  1  0
  5  6  1  0
  6  7  2  0
  7  8  1  0
  7  9  1  0
  9 10  1  0
  9 11  2  0
 11 12  1  0
 11 13  1  0
 13 14  1  0
 14 15  2  0
 14 16  2  0
 14 17  1  0
 17 18  1  0
 17 19  1  0
 13 20  2  0
 20 21  1  0
  2 22  2  0
 22 23  1  0
 22 24  1  0
 24 25  2  0
 25 26  1  0
 25 27  1  0
 27 28  2  0
 28 29  1  0
 28 30  1  0
 30 31  1  0
 30 32  2  0
 32 33  1  0
 20  6  1  0
 32 24  1  0
M  CHG  1   5  -1
M  END
>  <UniqueID>  (48) 
46

>  <SMILES>  (48) 
NS(=O)(=O)c1cccc([N-]C(=O)/C=C\c2cccnc2)c1

>  <Energy>  (48) 
46.6320876292759

>  <Genealogy>  (48) 
NS(=O)(=O)c1cccc([N-]C(=O)C=Cc2cccnc2)c1 (protonated)
NS(=O)(=O)c1cccc([N-]C(=O)/C=C\c2cccnc2)c1 (cis-trans isomerization)
NS(=O)(=O)c1cccc([N-]C(=O)/C=C\c2cccnc2)c1 (3D coordinates assigned)
NS(=O)(=O)c1cccc([N-]C(=O)/C=C\c2cccnc2)c1 (optimized conformer: 46.6320876292759 kcal/mol)

>  <smiles>  (48) 
NS(=O)(=O)c1cccc(NC(=O)C=Cc2cccnc2)c1

>  <score_type>  (48) 
oracle

>  <origin>  (48) 
adg

>  <m_score__min__energy>  (48) 
-9.6300000000000008

>  <m_primary>  (48) 
energy

$$$$
48:0
     RDKit          3D

 35 37  0  0  0  0  0  0  0  0999 V2000
   56.3263   28.2685   44.5790 H   0  0  0  0  0  0  0  0  0  0  0  0
   57.2890   27.8830   44.9460 C   0  0  0  0  0  0  0  0  0  0  0  0
   58.3810   28.6460   44.7870 C   0  0  0  0  0  0  0  0  0  0  0  0
   59.2436   28.2294   44.2464 H   0  0  0  0  0  0  0  0  0  0  0  0
   58.4690   30.0310   45.3130 C   0  0  0  0  0  0  0  0  0  0  0  0
   57.3900   30.9270   45.2450 C   0  0  0  0  0  0  0  0  0  0  0  0
   56.1860   30.5610   44.6530 O   0  0  0  0  0  0  0  0  0  0  0  0
   57.5250   32.1830   45.7350 N   0  0  0  0  0  0  0  0  0  0  0  0
   58.6890   32.6140   46.2800 C   0  0  0  0  0  0  0  0  0  0  0  0
   58.7510   33.7880   46.7370 O   0  0  0  0  0  0  0  0  0  0  0  0
   59.7750   31.7810   46.3360 N   0  0  0  0  0  0  0  0  0  0  0  0
   61.0150   32.2510   46.9050 C   0  0  0  0  0  0  0  0  0  0  0  0
   61.6120   31.5580   47.9730 C   0  0  0  0  0  0  0  0  0  0  0  0
   61.1323   30.6540   48.3762 H   0  0  0  0  0  0  0  0  0  0  0  0
   62.8130   32.0140   48.5240 C   0  0  0  0  0  0  0  0  0  0  0  0
   63.2768   31.4687   49.3592 H   0  0  0  0  0  0  0  0  0  0  0  0
   63.4250   33.1630   48.0140 C   0  0  0  0  0  0  0  0  0  0  0  0
   64.3704   33.5203   48.4483 H   0  0  0  0  0  0  0  0  0  0  0  0
   62.8380   33.8580   46.9540 C   0  0  0  0  0  0  0  0  0  0  0  0
   63.3204   34.7627   46.5556 H   0  0  0  0  0  0  0  0  0  0  0  0
   61.6370   33.4040   46.3990 C   0  0  0  0  0  0  0  0  0  0  0  0
   61.1780   33.9521   45.5630 H   0  0  0  0  0  0  0  0  0  0  0  0
   59.6810   30.5010   45.8520 C   0  0  0  0  0  0  0  0  0  0  0  0
   60.6840   29.7330   45.8900 O   0  0  0  0  0  0  0  0  0  0  0  0
   57.3110   26.5460   45.5910 C   0  0  0  0  0  0  0  0  0  0  0  0
   58.5050   25.8070   45.7290 C   0  0  0  0  0  0  0  0  0  0  0  0
   59.4487   26.2171   45.3401 H   0  0  0  0  0  0  0  0  0  0  0  0
   58.4980   24.5580   46.3560 C   0  0  0  0  0  0  0  0  0  0  0  0
   59.4333   23.9870   46.4521 H   0  0  0  0  0  0  0  0  0  0  0  0
   57.3060   24.0330   46.8610 C   0  0  0  0  0  0  0  0  0  0  0  0
   57.3030   22.7920   47.4840 O   0  0  0  0  0  0  0  0  0  0  0  0
   56.1200   24.7600   46.7460 C   0  0  0  0  0  0  0  0  0  0  0  0
   55.1835   24.3483   47.1504 H   0  0  0  0  0  0  0  0  0  0  0  0
   56.1180   26.0110   46.1180 C   0  0  0  0  0  0  0  0  0  0  0  0
   54.9190   26.7110   46.0150 O   0  0  0  0  0  0  0  0  0  0  0  0
  1  2  1  0
  2  3  2  0
  3  4  1  0
  3  5  1  0
  5  6  2  0
  6  7  1  0
  6  8  1  0
  8  9  1  0
  9 10  2  0
  9 11  1  0
 11 12  1  0
 12 13  2  0
 13 14  1  0
 13 15  1  0
 15 16  1  0
 15 17  2  0
 17 18  1  0
 17 19  1  0
 19 20  1  0
 19 21  2  0
 21 22  1  0
 11 23  1  0
 23 24  2  0
  2 25  1  0
 25 26  2  0
 26 27  1  0
 26 28  1  0
 28 29  1  0
 28 30  2  0
 30 31  1  0
 30 32  1  0
 32 33  1  0
 32 34  2  0
 34 35  1  0
 23  5  1  0
 34 25  1  0
 21 12  1  0
M  CHG  4   7  -1   8  -1  31  -1  35  -1
M  END
>  <UniqueID>  (49) 
47

>  <SMILES>  (49) 
O=c1[n-]c([O-])c(/C=C/c2ccc([O-])cc2[O-])c(=O)n1-c1ccccc1

>  <Energy>  (49) 
58.5246834505305

>  <Genealogy>  (49) 
O=c1[n-]c([O-])c(C=Cc2ccc([O-])cc2[O-])c(=O)n1-c1ccccc1 (protonated)
O=c1[n-]c([O-])c(/C=C/c2ccc([O-])cc2[O-])c(=O)n1-c1ccccc1 (cis-trans isomerization)
O=c1[n-]c([O-])c(/C=C/c2ccc([O-])cc2[O-])c(=O)n1-c1ccccc1 (3D coordinates assigned)
O=c1[n-]c([O-])c(/C=C/c2ccc([O-])cc2[O-])c(=O)n1-c1ccccc1 (optimized conformer: 58.5246834505305 kcal/mol)

>  <smiles>  (49) 
O=c1[nH]c(O)c(C=Cc2ccc(O)cc2O)c(=O)n1-c1ccccc1

>  <score_type>  (49) 
oracle

>  <origin>  (49) 
adg

>  <m_score__min__energy>  (49) 
-17.57

>  <m_primary>  (49) 
energy

$$$$
49:0
     RDKit          3D

 46 49  0  0  0  0  0  0  0  0999 V2000
   60.1080   29.7910   49.7960 O   0  0  0  0  0  0  0  0  0  0  0  0
   59.2600   30.1720   48.9450 C   0  0  0  0  0  0  0  0  0  0  0  0
   58.6860   31.4810   49.0820 N   0  0  0  0  0  0  0  0  0  0  0  0
   58.9530   32.6160   48.2450 C   0  0  0  0  0  0  0  0  0  0  0  0
   60.0330   33.4810   48.4970 C   0  0  0  0  0  0  0  0  0  0  0  0
   60.2550   34.5860   47.6710 C   0  0  0  0  0  0  0  0  0  0  0  0
   59.4220   34.8180   46.5720 C   0  0  0  0  0  0  0  0  0  0  0  0
   58.3700   33.9390   46.2940 C   0  0  0  0  0  0  0  0  0  0  0  0
   57.3340   34.2210   44.9080 Cl  0  0  0  0  0  0  0  0  0  0  0  0
   58.1410   32.8370   47.1260 C   0  0  0  0  0  0  0  0  0  0  0  0
   58.9140   29.2790   47.8170 C   0  0  0  0  0  0  0  0  0  0  0  0
   58.8950   27.8860   47.9990 C   0  0  0  0  0  0  0  0  0  0  0  0
   58.4910   27.0440   46.9610 C   0  0  0  0  0  0  0  0  0  0  0  0
   58.1260   27.5790   45.7140 C   0  0  0  0  0  0  0  0  0  0  0  0
   57.5640   26.6860   44.6440 C   0  0  0  0  0  0  0  0  0  0  0  0
   56.8580   25.5650   45.2640 N   0  0  0  0  0  0  0  0  0  0  0  0
   55.6350   25.5730   45.8220 C   0  0  0  0  0  0  0  0  0  0  0  0
   54.8570   26.7100   45.9950 O   0  0  0  0  0  0  0  0  0  0  0  0
   55.2740   24.2890   46.1730 C   0  0  0  0  0  0  0  0  0  0  0  0
   56.2730   23.4590   45.8050 N   0  0  0  0  0  0  0  0  0  0  0  0
   56.2860   22.0240   45.9340 C   0  0  0  0  0  0  0  0  0  0  0  0
   56.1880   21.1970   44.7980 C   0  0  0  0  0  0  0  0  0  0  0  0
   56.1900   19.8050   44.9330 C   0  0  0  0  0  0  0  0  0  0  0  0
   56.2870   19.2250   46.2010 C   0  0  0  0  0  0  0  0  0  0  0  0
   56.3750   20.0360   47.3370 C   0  0  0  0  0  0  0  0  0  0  0  0
   56.3680   21.4290   47.2060 C   0  0  0  0  0  0  0  0  0  0  0  0
   57.2180   24.2630   45.2620 C   0  0  0  0  0  0  0  0  0  0  0  0
   58.3220   23.8480   44.8180 O   0  0  0  0  0  0  0  0  0  0  0  0
   58.1790   28.9670   45.5190 C   0  0  0  0  0  0  0  0  0  0  0  0
   58.5780   29.8100   46.5590 C   0  0  0  0  0  0  0  0  0  0  0  0
   60.7045   33.2872   49.3464 H   0  0  0  0  0  0  0  0  0  0  0  0
   61.0859   35.2741   47.8855 H   0  0  0  0  0  0  0  0  0  0  0  0
   59.5940   35.6917   45.9262 H   0  0  0  0  0  0  0  0  0  0  0  0
   57.3194   32.1415   46.8997 H   0  0  0  0  0  0  0  0  0  0  0  0
   59.2001   27.4563   48.9646 H   0  0  0  0  0  0  0  0  0  0  0  0
   58.4583   25.9561   47.1203 H   0  0  0  0  0  0  0  0  0  0  0  0
   56.8638   27.2593   44.0187 H   0  0  0  0  0  0  0  0  0  0  0  0
   58.3841   26.3019   44.0196 H   0  0  0  0  0  0  0  0  0  0  0  0
   54.3364   23.9931   46.6663 H   0  0  0  0  0  0  0  0  0  0  0  0
   56.1094   21.6489   43.7982 H   0  0  0  0  0  0  0  0  0  0  0  0
   56.1152   19.1662   44.0407 H   0  0  0  0  0  0  0  0  0  0  0  0
   56.2941   18.1300   46.3055 H   0  0  0  0  0  0  0  0  0  0  0  0
   56.4498   19.5783   48.3344 H   0  0  0  0  0  0  0  0  0  0  0  0
   56.4270   22.0627   48.1032 H   0  0  0  0  0  0  0  0  0  0  0  0
   57.9052   29.3936   44.5428 H   0  0  0  0  0  0  0  0  0  0  0  0
   58.6297   30.8961   46.3928 H   0  0  0  0  0  0  0  0  0  0  0  0
  1  2  2  0
  2  3  1  0
  3  4  1  0
  4  5  2  0
  5  6  1  0
  6  7  2  0
  7  8  1  0
  8  9  1  0
  8 10  2  0
  2 11  1  0
 11 12  2  0
 12 13  1  0
 13 14  2  0
 14 15  1  0
 15 16  1  0
 16 17  1  0
 17 18  1  0
 17 19  2  0
 19 20  1  0
 20 21  1  0
 21 22  2  0
 22 23  1  0
 23 24  2  0
 24 25  1  0
 25 26  2  0
 20 27  1  0
 27 28  2  0
 14 29  1  0
 29 30  2  0
 10  4  1  0
 30 11  1  0
 27 16  1  0
 26 21  1  0
  5 31  1  0
  6 32  1  0
  7 33  1  0
 10 34  1  0
 12 35  1  0
 13 36  1  0
 15 37  1  0
 15 38  1  0
 19 39  1  0
 22 40  1  0
 23 41  1  0
 24 42  1  0
 25 43  1  0
 26 44  1  0
 29 45  1  0
 30 46  1  0
M  CHG  2   3  -1  18  -1
M  END
>  <UniqueID>  (50) 
48

>  <SMILES>  (50) 
O=C([N-]c1cccc(Cl)c1)c1ccc(Cn2c([O-])cn(-c3ccccc3)c2=O)cc1

>  <Energy>  (50) 
94.46936090415726

>  <Genealogy>  (50) 
O=C([N-]c1cccc(Cl)c1)c1ccc(Cn2c([O-])cn(-c3ccccc3)c2=O)cc1 (protonated)
O=C([N-]c1cccc(Cl)c1)c1ccc(Cn2c([O-])cn(-c3ccccc3)c2=O)cc1 (3D coordinates assigned)
O=C([N-]c1cccc(Cl)c1)c1ccc(Cn2c([O-])cn(-c3ccccc3)c2=O)cc1 (optimized conformer: 94.46936090415726 kcal/mol)

>  <smiles>  (50) 
O=C(Nc1cccc(Cl)c1)c1ccc(Cn2c(O)cn(-c3ccccc3)c2=O)cc1

>  <score_type>  (50) 
oracle

>  <origin>  (50) 
adg

>  <m_score__min__energy>  (50) 
-12.699999999999999

>  <m_primary>  (50) 
energy

$$$$
50:0
     RDKit          3D

 34 36  0  0  0  0  0  0  0  0999 V2000
   55.7110   35.3540   45.5280 H   0  0  0  0  0  0  0  0  0  0  0  0
   56.3520   34.9530   44.8520 O   0  0  0  0  0  0  0  0  0  0  0  0
   57.4550   34.2050   45.2530 C   0  0  0  0  0  0  0  0  0  0  0  0
   58.6740   34.8310   45.5500 C   0  0  0  0  0  0  0  0  0  0  0  0
   58.7647   35.9240   45.4659 H   0  0  0  0  0  0  0  0  0  0  0  0
   59.7750   34.0680   45.9530 C   0  0  0  0  0  0  0  0  0  0  0  0
   60.7298   34.5613   46.1873 H   0  0  0  0  0  0  0  0  0  0  0  0
   59.6620   32.6790   46.0580 C   0  0  0  0  0  0  0  0  0  0  0  0
   60.5281   32.0816   46.3788 H   0  0  0  0  0  0  0  0  0  0  0  0
   58.4490   32.0440   45.7560 C   0  0  0  0  0  0  0  0  0  0  0  0
   58.3250   30.6170   45.8810 N   0  0  0  0  0  0  0  0  0  0  0  0
   58.7060   29.8930   46.9560 C   0  0  0  0  0  0  0  0  0  0  0  0
   59.2630   30.4670   48.2230 C   0  0  0  0  0  0  0  0  0  0  0  0
   58.7886   29.9781   49.0867 H   0  0  0  0  0  0  0  0  0  0  0  0
   60.3492   30.2967   48.2563 H   0  0  0  0  0  0  0  0  0  0  0  0
   59.0601   31.5476   48.2563 H   0  0  0  0  0  0  0  0  0  0  0  0
   58.4960   28.5490   46.7280 C   0  0  0  0  0  0  0  0  0  0  0  0
   58.7233   27.7241   47.4193 H   0  0  0  0  0  0  0  0  0  0  0  0
   57.9440   28.4360   45.4620 C   0  0  0  0  0  0  0  0  0  0  0  0
   57.5590   27.2550   44.9410 C   0  0  0  0  0  0  0  0  0  0  0  0
   57.5697   27.1629   43.8449 H   0  0  0  0  0  0  0  0  0  0  0  0
   57.1260   26.0790   45.7080 C   0  0  0  0  0  0  0  0  0  0  0  0
   58.1640   24.8950   46.3050 S   0  0  0  0  0  0  0  0  0  0  0  0
   56.9310   24.1200   47.1450 C   0  0  0  0  0  0  0  0  0  0  0  0
   57.0870   23.0770   47.8300 O   0  0  0  0  0  0  0  0  0  0  0  0
   55.7410   24.7470   47.0210 N   0  0  0  0  0  0  0  0  0  0  0  0
   55.8540   25.8500   46.2340 C   0  0  0  0  0  0  0  0  0  0  0  0
   54.7730   26.6890   45.9980 O   0  0  0  0  0  0  0  0  0  0  0  0
   57.8830   29.7400   44.9420 C   0  0  0  0  0  0  0  0  0  0  0  0
   57.5360   30.1070   43.6980 C   0  0  0  0  0  0  0  0  0  0  0  0
   57.5302   31.1713   43.4200 H   0  0  0  0  0  0  0  0  0  0  0  0
   57.2575   29.3434   42.9568 H   0  0  0  0  0  0  0  0  0  0  0  0
   57.3450   32.8130   45.3580 C   0  0  0  0  0  0  0  0  0  0  0  0
   56.3889   32.3203   45.1275 H   0  0  0  0  0  0  0  0  0  0  0  0
  1  2  1  0
  2  3  1  0
  3  4  2  0
  4  5  1  0
  4  6  1  0
  6  7  1  0
  6  8  2  0
  8  9  1  0
  8 10  1  0
 10 11  1  0
 11 12  1  0
 12 13  1  0
 13 14  1  0
 13 15  1  0
 13 16  1  0
 12 17  2  0
 17 18  1  0
 17 19  1  0
 19 20  2  0
 20 21  1  0
 20 22  1  0
 22 23  1  0
 23 24  1  0
 24 25  2  0
 24 26  1  0
 26 27  1  0
 27 28  1  0
 19 29  1  0
 29 30  2  0
 30 31  1  0
 30 32  1  0
 10 33  2  0
 33 34  1  0
 33  3  1  0
 29 11  1  0
 27 22  2  0
M  CHG  2  26  -1  28  -1
M  END
>  <UniqueID>  (51) 
49

>  <SMILES>  (51) 
C=c1/c(=C\c2sc(=O)[n-]c2[O-])cc(C)n1-c1cccc(O)c1

>  <Energy>  (51) 
113.64024351659722

>  <Genealogy>  (51) 
C=c1c(=Cc2sc(=O)[n-]c2[O-])cc(C)n1-c1cccc(O)c1 (protonated)
C=c1/c(=C\c2sc(=O)[n-]c2[O-])cc(C)n1-c1cccc(O)c1 (cis-trans isomerization)
C=c1/c(=C\c2sc(=O)[n-]c2[O-])cc(C)n1-c1cccc(O)c1 (3D coordinates assigned)
C=c1/c(=C\c2sc(=O)[n-]c2[O-])cc(C)n1-c1cccc(O)c1 (optimized conformer: 113.64024351659722 kcal/mol)

>  <smiles>  (51) 
C=c1c(=Cc2sc(=O)[nH]c2O)cc(C)n1-c1cccc(O)c1

>  <score_type>  (51) 
oracle

>  <origin>  (51) 
adg

>  <m_score__min__energy>  (51) 
-13.710000000000001

>  <m_primary>  (51) 
energy

$$$$
51:0
     RDKit          3D

 43 45  0  0  0  0  0  0  0  0999 V2000
   65.3610   33.3840   50.8200 C   0  0  0  0  0  0  0  0  0  0  0  0
   64.2090   34.2190   50.7510 O   0  0  0  0  0  0  0  0  0  0  0  0
   63.1290   34.0080   49.8800 C   0  0  0  0  0  0  0  0  0  0  0  0
   61.7950   33.9620   50.3290 C   0  0  0  0  0  0  0  0  0  0  0  0
   60.7540   33.7500   49.4200 C   0  0  0  0  0  0  0  0  0  0  0  0
   61.0230   33.5940   48.0510 C   0  0  0  0  0  0  0  0  0  0  0  0
   59.9410   33.3520   47.1300 N   0  0  0  0  0  0  0  0  0  0  0  0
   59.8850   32.1590   46.5280 N   0  0  0  0  0  0  0  0  0  0  0  0
   58.9070   31.8300   45.6430 C   0  0  0  0  0  0  0  0  0  0  0  0
   58.9020   30.4910   45.0150 C   0  0  0  0  0  0  0  0  0  0  0  0
   57.8570   30.0680   44.4500 O   0  0  0  0  0  0  0  0  0  0  0  0
   60.0800   29.6680   45.0450 N   0  0  0  0  0  0  0  0  0  0  0  0
   60.0920   28.3030   44.5250 C   0  0  0  0  0  0  0  0  0  0  0  0
   59.1250   27.4540   45.2870 C   0  0  0  0  0  0  0  0  0  0  0  0
   59.2590   27.0550   46.6120 C   0  0  0  0  0  0  0  0  0  0  0  0
   58.2240   26.2160   47.0420 C   0  0  0  0  0  0  0  0  0  0  0  0
   57.2920   25.9530   46.0470 C   0  0  0  0  0  0  0  0  0  0  0  0
   55.8660   24.9490   46.2230 S   0  0  0  0  0  0  0  0  0  0  0  0
   54.4530   25.8770   45.8620 N   0  0  0  0  0  0  0  0  0  0  0  0
   55.7830   24.4370   47.6320 O   0  0  0  0  0  0  0  0  0  0  0  0
   55.9460   23.7900   45.2710 O   0  0  0  0  0  0  0  0  0  0  0  0
   57.7380   26.7560   44.6390 S   0  0  0  0  0  0  0  0  0  0  0  0
   57.9180   32.7740   45.3490 C   0  0  0  0  0  0  0  0  0  0  0  0
   57.9550   34.0150   45.9770 C   0  0  0  0  0  0  0  0  0  0  0  0
   58.9770   34.2950   46.8830 C   0  0  0  0  0  0  0  0  0  0  0  0
   58.9850   35.4070   47.4790 O   0  0  0  0  0  0  0  0  0  0  0  0
   62.3560   33.6250   47.6090 C   0  0  0  0  0  0  0  0  0  0  0  0
   63.3970   33.8360   48.5180 C   0  0  0  0  0  0  0  0  0  0  0  0
   65.6169   33.1985   51.8736 H   0  0  0  0  0  0  0  0  0  0  0  0
   65.1508   32.4271   50.3198 H   0  0  0  0  0  0  0  0  0  0  0  0
   66.2050   33.8815   50.3198 H   0  0  0  0  0  0  0  0  0  0  0  0
   61.5714   34.0932   51.3980 H   0  0  0  0  0  0  0  0  0  0  0  0
   59.7157   33.7051   49.7805 H   0  0  0  0  0  0  0  0  0  0  0  0
   60.9650   30.0440   45.4550 H   0  0  0  0  0  0  0  0  0  0  0  0
   59.8063   28.3158   43.4628 H   0  0  0  0  0  0  0  0  0  0  0  0
   61.1033   27.8845   44.6357 H   0  0  0  0  0  0  0  0  0  0  0  0
   60.0936   27.3669   47.2571 H   0  0  0  0  0  0  0  0  0  0  0  0
   58.1563   25.8079   48.0613 H   0  0  0  0  0  0  0  0  0  0  0  0
   54.7670   26.7130   45.3200 H   0  0  0  0  0  0  0  0  0  0  0  0
   57.1200   32.5381   44.6296 H   0  0  0  0  0  0  0  0  0  0  0  0
   57.1841   34.7692   45.7604 H   0  0  0  0  0  0  0  0  0  0  0  0
   62.5820   33.4825   46.5419 H   0  0  0  0  0  0  0  0  0  0  0  0
   64.4363   33.8670   48.1589 H   0  0  0  0  0  0  0  0  0  0  0  0
  1  2  1  0
  2  3  1  0
  3  4  2  0
  4  5  1  0
  5  6  2  0
  6  7  1  0
  7  8  1  0
  8  9  2  0
  9 10  1  0
 10 11  2  0
 10 12  1  0
 12 13  1  0
 13 14  1  0
 14 15  2  0
 15 16  1  0
 16 17  2  0
 17 18  1  0
 18 19  1  0
 18 20  2  0
 18 21  2  0
 17 22  1  0
  9 23  1  0
 23 24  2  0
 24 25  1  0
 25 26  2  0
  6 27  1  0
 27 28  2  0
 28  3  1  0
 25  7  1  0
 22 14  1  0
  1 29  1  0
  1 30  1  0
  1 31  1  0
  4 32  1  0
  5 33  1  0
 12 34  1  0
 13 35  1  0
 13 36  1  0
 15 37  1  0
 16 38  1  0
 19 39  1  0
 23 40  1  0
 24 41  1  0
 27 42  1  0
 28 43  1  0
M  CHG  1  19  -1
M  END
>  <UniqueID>  (52) 
50

>  <SMILES>  (52) 
COc1ccc(-n2nc(C(=O)NCc3ccc(S([NH-])(=O)=O)s3)ccc2=O)cc1

>  <Energy>  (52) 
75.17159458682066

>  <Genealogy>  (52) 
COc1ccc(-n2nc(C(=O)NCc3ccc(S([NH-])(=O)=O)s3)ccc2=O)cc1 (protonated)
COc1ccc(-n2nc(C(=O)NCc3ccc(S([NH-])(=O)=O)s3)ccc2=O)cc1 (3D coordinates assigned)
COc1ccc(-n2nc(C(=O)NCc3ccc(S([NH-])(=O)=O)s3)ccc2=O)cc1 (optimized conformer: 75.17159458682066 kcal/mol)

>  <smiles>  (52) 
COc1ccc(-n2nc(C(=O)NCc3ccc(S(N)(=O)=O)s3)ccc2=O)cc1

>  <score_type>  (52) 
oracle

>  <origin>  (52) 
adg

>  <m_score__min__energy>  (52) 
-10.890000000000001

>  <m_primary>  (52) 
energy

$$$$
52:0
     RDKit          3D

 36 39  0  0  0  0  0  0  0  0999 V2000
   57.3940   26.2500   46.5150 O   0  0  0  0  0  0  0  0  0  0  0  0
   57.0520   27.3480   46.0050 C   0  0  0  0  0  0  0  0  0  0  0  0
   57.9010   28.3680   45.7960 N   0  0  0  0  0  0  0  0  0  0  0  0
   57.0670   29.2850   45.2570 C   0  0  0  0  0  0  0  0  0  0  0  0
   57.5200   30.6010   44.7600 C   0  0  0  0  0  0  0  0  0  0  0  0
   57.4390   30.8370   43.3760 C   0  0  0  0  0  0  0  0  0  0  0  0
   57.7900   32.0770   42.8420 C   0  0  0  0  0  0  0  0  0  0  0  0
   58.2290   33.0990   43.6790 C   0  0  0  0  0  0  0  0  0  0  0  0
   58.3390   32.8780   45.0520 C   0  0  0  0  0  0  0  0  0  0  0  0
   58.0080   31.6300   45.6130 C   0  0  0  0  0  0  0  0  0  0  0  0
   58.2720   31.4300   47.0940 C   0  0  0  0  0  0  0  0  0  0  0  0
   59.6960   31.6770   47.4050 N   0  0  0  0  0  0  0  0  0  0  0  0
   60.6590   30.8720   46.8490 C   0  0  0  0  0  0  0  0  0  0  0  0
   60.3330   29.9150   46.0930 O   0  0  0  0  0  0  0  0  0  0  0  0
   61.9770   31.0900   47.1040 N   0  0  0  0  0  0  0  0  0  0  0  0
   62.3820   32.1060   47.9110 C   0  0  0  0  0  0  0  0  0  0  0  0
   63.7470   32.3170   48.1610 C   0  0  0  0  0  0  0  0  0  0  0  0
   64.1570   33.3640   48.9900 C   0  0  0  0  0  0  0  0  0  0  0  0
   63.2090   34.2050   49.5760 C   0  0  0  0  0  0  0  0  0  0  0  0
   61.8470   34.0060   49.3350 C   0  0  0  0  0  0  0  0  0  0  0  0
   61.4230   32.9530   48.5000 C   0  0  0  0  0  0  0  0  0  0  0  0
   60.0650   32.7150   48.2290 C   0  0  0  0  0  0  0  0  0  0  0  0
   59.1870   33.4620   48.7460 O   0  0  0  0  0  0  0  0  0  0  0  0
   55.8040   28.8240   45.1290 N   0  0  0  0  0  0  0  0  0  0  0  0
   55.8350   27.6210   45.6150 O   0  0  0  0  0  0  0  0  0  0  0  0
   57.0949   30.0346   42.7069 H   0  0  0  0  0  0  0  0  0  0  0  0
   57.7198   32.2475   41.7576 H   0  0  0  0  0  0  0  0  0  0  0  0
   58.4893   34.0812   43.2576 H   0  0  0  0  0  0  0  0  0  0  0  0
   58.6894   33.6905   45.7056 H   0  0  0  0  0  0  0  0  0  0  0  0
   57.6491   32.1299   47.6703 H   0  0  0  0  0  0  0  0  0  0  0  0
   58.0245   30.3923   47.3621 H   0  0  0  0  0  0  0  0  0  0  0  0
   62.6880   30.4590   46.6650 H   0  0  0  0  0  0  0  0  0  0  0  0
   64.4967   31.6554   47.7024 H   0  0  0  0  0  0  0  0  0  0  0  0
   65.2280   33.5260   49.1813 H   0  0  0  0  0  0  0  0  0  0  0  0
   63.5354   35.0272   50.2298 H   0  0  0  0  0  0  0  0  0  0  0  0
   61.1045   34.6726   49.7979 H   0  0  0  0  0  0  0  0  0  0  0  0
  1  2  2  0
  2  3  1  0
  3  4  2  0
  4  5  1  0
  5  6  2  0
  6  7  1  0
  7  8  2  0
  8  9  1  0
  9 10  2  0
 10 11  1  0
 11 12  1  0
 12 13  1  0
 13 14  2  0
 13 15  1  0
 15 16  1  0
 16 17  2  0
 17 18  1  0
 18 19  2  0
 19 20  1  0
 20 21  2  0
 21 22  1  0
 22 23  2  0
  4 24  1  0
 24 25  1  0
 25  2  1  0
 10  5  1  0
 22 12  1  0
 21 16  1  0
  6 26  1  0
  7 27  1  0
  8 28  1  0
  9 29  1  0
 11 30  1  0
 11 31  1  0
 15 32  1  0
 17 33  1  0
 18 34  1  0
 19 35  1  0
 20 36  1  0
M  CHG  1  24  -1
M  END
>  <UniqueID>  (53) 
51

>  <SMILES>  (53) 
O=c1nc(-c2ccccc2Cn2c(=O)[nH]c3ccccc3c2=O)[n-]o1

>  <Energy>  (53) 
90.76844022938276

>  <Genealogy>  (53) 
O=c1nc(-c2ccccc2Cn2c(=O)[nH]c3ccccc3c2=O)[n-]o1 (protonated)
O=c1nc(-c2ccccc2Cn2c(=O)[nH]c3ccccc3c2=O)[n-]o1 (3D coordinates assigned)
O=c1nc(-c2ccccc2Cn2c(=O)[nH]c3ccccc3c2=O)[n-]o1 (optimized conformer: 90.76844022938276 kcal/mol)

>  <smiles>  (53) 
O=c1nc(-c2ccccc2Cn2c(=O)[nH]c3ccccc3c2=O)[nH]o1

>  <score_type>  (53) 
oracle

>  <origin>  (53) 
adg

>  <m_score__min__energy>  (53) 
-10.83

>  <m_primary>  (53) 
energy

$$$$
53:0
     RDKit          3D

 40 42  0  0  0  0  0  0  0  0999 V2000
   63.7380   33.5800   49.8660 C   0  0  0  0  0  0  0  0  0  0  0  0
   62.6610   33.7320   48.8340 C   0  0  0  0  0  0  0  0  0  0  0  0
   62.9280   33.4350   47.4890 C   0  0  0  0  0  0  0  0  0  0  0  0
   61.9180   33.5440   46.5290 C   0  0  0  0  0  0  0  0  0  0  0  0
   60.6190   33.9210   46.9040 C   0  0  0  0  0  0  0  0  0  0  0  0
   59.6020   34.0330   45.8950 N   0  0  0  0  0  0  0  0  0  0  0  0
   58.2620   33.5370   46.0520 C   0  0  0  0  0  0  0  0  0  0  0  0
   57.8690   33.0700   47.1560 O   0  0  0  0  0  0  0  0  0  0  0  0
   57.3490   33.4690   44.8610 C   0  0  0  0  0  0  0  0  0  0  0  0
   57.8070   32.3980   43.8610 C   0  0  0  0  0  0  0  0  0  0  0  0
   57.8680   31.0310   44.4940 C   0  0  0  0  0  0  0  0  0  0  0  0
   59.0250   30.6240   45.2120 C   0  0  0  0  0  0  0  0  0  0  0  0
   59.0530   29.4240   45.8670 N   0  0  0  0  0  0  0  0  0  0  0  0
   57.9540   28.6290   45.8190 C   0  0  0  0  0  0  0  0  0  0  0  0
   56.8270   28.9740   45.1440 C   0  0  0  0  0  0  0  0  0  0  0  0
   56.7410   30.1800   44.4600 C   0  0  0  0  0  0  0  0  0  0  0  0
   55.8920   28.0110   45.2620 N   0  0  0  0  0  0  0  0  0  0  0  0
   56.5240   27.0880   46.0370 C   0  0  0  0  0  0  0  0  0  0  0  0
   55.9850   26.0010   46.3720 O   0  0  0  0  0  0  0  0  0  0  0  0
   57.7800   27.4410   46.4100 N   0  0  0  0  0  0  0  0  0  0  0  0
   58.7550   26.6590   47.1620 C   0  0  0  0  0  0  0  0  0  0  0  0
   60.3550   34.2230   48.2510 C   0  0  0  0  0  0  0  0  0  0  0  0
   61.3660   34.1170   49.2100 C   0  0  0  0  0  0  0  0  0  0  0  0
   63.2946   33.6426   50.8707 H   0  0  0  0  0  0  0  0  0  0  0  0
   64.2293   32.6036   49.7422 H   0  0  0  0  0  0  0  0  0  0  0  0
   64.4803   34.3823   49.7422 H   0  0  0  0  0  0  0  0  0  0  0  0
   63.9367   33.1150   47.1887 H   0  0  0  0  0  0  0  0  0  0  0  0
   62.1425   33.3330   45.4730 H   0  0  0  0  0  0  0  0  0  0  0  0
   59.9060   34.3050   44.9340 H   0  0  0  0  0  0  0  0  0  0  0  0
   56.3322   33.2266   45.2035 H   0  0  0  0  0  0  0  0  0  0  0  0
   57.3694   34.4452   44.3545 H   0  0  0  0  0  0  0  0  0  0  0  0
   57.0985   32.3697   43.0200 H   0  0  0  0  0  0  0  0  0  0  0  0
   58.8182   32.6612   43.5171 H   0  0  0  0  0  0  0  0  0  0  0  0
   59.9068   31.2809   45.2411 H   0  0  0  0  0  0  0  0  0  0  0  0
   55.8295   30.4617   43.9124 H   0  0  0  0  0  0  0  0  0  0  0  0
   58.5830   26.7970   48.2397 H   0  0  0  0  0  0  0  0  0  0  0  0
   58.6467   25.5945   46.9067 H   0  0  0  0  0  0  0  0  0  0  0  0
   59.7706   26.9958   46.9067 H   0  0  0  0  0  0  0  0  0  0  0  0
   59.3471   34.5446   48.5521 H   0  0  0  0  0  0  0  0  0  0  0  0
   61.1449   34.3366   50.2649 H   0  0  0  0  0  0  0  0  0  0  0  0
  1  2  1  0
  2  3  2  0
  3  4  1  0
  4  5  2  0
  5  6  1  0
  6  7  1  0
  7  8  2  0
  7  9  1  0
  9 10  1  0
 10 11  1  0
 11 12  2  0
 12 13  1  0
 13 14  2  0
 14 15  1  0
 15 16  2  0
 15 17  1  0
 17 18  1  0
 18 19  2  0
 18 20  1  0
 20 21  1  0
  5 22  1  0
 22 23  2  0
 23  2  1  0
 16 11  1  0
 20 14  1  0
  1 24  1  0
  1 25  1  0
  1 26  1  0
  3 27  1  0
  4 28  1  0
  6 29  1  0
  9 30  1  0
  9 31  1  0
 10 32  1  0
 10 33  1  0
 12 34  1  0
 16 35  1  0
 21 36  1  0
 21 37  1  0
 21 38  1  0
 22 39  1  0
 23 40  1  0
M  CHG  1  17  -1
M  END
>  <UniqueID>  (54) 
52

>  <SMILES>  (54) 
Cc1ccc(NC(=O)CCc2cnc3c(c2)[n-]c(=O)n3C)cc1

>  <Energy>  (54) 
79.29048309778864

>  <Genealogy>  (54) 
Cc1ccc(NC(=O)CCc2cnc3c(c2)[n-]c(=O)n3C)cc1 (protonated)
Cc1ccc(NC(=O)CCc2cnc3c(c2)[n-]c(=O)n3C)cc1 (3D coordinates assigned)
Cc1ccc(NC(=O)CCc2cnc3c(c2)[n-]c(=O)n3C)cc1 (optimized conformer: 79.29048309778864 kcal/mol)

>  <smiles>  (54) 
Cc1ccc(NC(=O)CCc2cnc3c(c2)[nH]c(=O)n3C)cc1

>  <score_type>  (54) 
oracle

>  <origin>  (54) 
adg

>  <m_score__min__energy>  (54) 
-9.4700000000000006

>  <m_primary>  (54) 
energy

$$$$
54:0
     RDKit          3D

 43 45  0  0  0  0  0  0  0  0999 V2000
   59.9651   25.9251   46.3906 H   0  0  0  0  0  0  0  0  0  0  0  0
   58.8790   26.0860   46.3230 C   0  0  0  0  0  0  0  0  0  0  0  0
   58.3940   27.1780   45.6750 N   0  0  0  0  0  0  0  0  0  0  0  0
   57.0540   27.4100   45.5510 C   0  0  0  0  0  0  0  0  0  0  0  0
   56.6150   28.4780   44.9510 N   0  0  0  0  0  0  0  0  0  0  0  0
   57.0810   29.8170   45.1840 C   0  0  0  0  0  0  0  0  0  0  0  0
   56.5170   30.7660   44.5720 O   0  0  0  0  0  0  0  0  0  0  0  0
   58.2530   30.0980   46.0510 C   0  0  0  0  0  0  0  0  0  0  0  0
   59.4670   30.5350   45.4950 C   0  0  0  0  0  0  0  0  0  0  0  0
   59.5621   30.6366   44.4038 H   0  0  0  0  0  0  0  0  0  0  0  0
   60.5560   30.8420   46.3180 C   0  0  0  0  0  0  0  0  0  0  0  0
   61.5030   31.1799   45.8719 H   0  0  0  0  0  0  0  0  0  0  0  0
   60.4430   30.7200   47.7090 C   0  0  0  0  0  0  0  0  0  0  0  0
   61.7920   31.1540   48.7580 S   0  0  0  0  0  0  0  0  0  0  0  0
   61.9360   30.1210   49.8400 O   0  0  0  0  0  0  0  0  0  0  0  0
   63.0730   31.2310   47.9690 O   0  0  0  0  0  0  0  0  0  0  0  0
   61.4820   32.6970   49.4780 N   0  0  0  0  0  0  0  0  0  0  0  0
   60.1730   33.2760   49.4920 C   0  0  0  0  0  0  0  0  0  0  0  0
   59.2320   32.7170   50.1160 O   0  0  0  0  0  0  0  0  0  0  0  0
   59.9330   34.5830   48.8070 C   0  0  0  0  0  0  0  0  0  0  0  0
   59.2786   35.2082   49.4322 H   0  0  0  0  0  0  0  0  0  0  0  0
   60.8949   35.0933   48.6512 H   0  0  0  0  0  0  0  0  0  0  0  0
   59.2740   34.3470   47.4740 C   0  0  0  0  0  0  0  0  0  0  0  0
   59.8620   34.8470   46.2950 C   0  0  0  0  0  0  0  0  0  0  0  0
   60.7849   35.4428   46.3524 H   0  0  0  0  0  0  0  0  0  0  0  0
   59.2760   34.5880   45.0530 C   0  0  0  0  0  0  0  0  0  0  0  0
   59.7391   34.9785   44.1348 H   0  0  0  0  0  0  0  0  0  0  0  0
   58.0970   33.8300   44.9760 C   0  0  0  0  0  0  0  0  0  0  0  0
   57.6348   33.6304   43.9980 H   0  0  0  0  0  0  0  0  0  0  0  0
   57.5090   33.3280   46.1430 C   0  0  0  0  0  0  0  0  0  0  0  0
   56.5835   32.7368   46.0802 H   0  0  0  0  0  0  0  0  0  0  0  0
   58.0950   33.5760   47.3890 C   0  0  0  0  0  0  0  0  0  0  0  0
   57.6366   33.1699   48.3028 H   0  0  0  0  0  0  0  0  0  0  0  0
   59.2370   30.2790   48.2680 C   0  0  0  0  0  0  0  0  0  0  0  0
   59.1478   30.1681   49.3588 H   0  0  0  0  0  0  0  0  0  0  0  0
   58.1460   29.9790   47.4470 C   0  0  0  0  0  0  0  0  0  0  0  0
   57.1982   29.6478   47.8965 H   0  0  0  0  0  0  0  0  0  0  0  0
   56.1400   26.5020   46.1110 C   0  0  0  0  0  0  0  0  0  0  0  0
   54.7700   26.7080   45.9950 O   0  0  0  0  0  0  0  0  0  0  0  0
   56.6200   25.3750   46.7840 C   0  0  0  0  0  0  0  0  0  0  0  0
   55.9150   24.6517   47.2196 H   0  0  0  0  0  0  0  0  0  0  0  0
   58.0010   25.1680   46.9030 C   0  0  0  0  0  0  0  0  0  0  0  0
   58.3884   24.2935   47.4464 H   0  0  0  0  0  0  0  0  0  0  0  0
  1  2  1  0
  2  3  1  0
  3  4  1  0
  4  5  2  0
  5  6  1  0
  6  7  2  0
  6  8  1  0
  8  9  2  0
  9 10  1  0
  9 11  1  0
 11 12  1  0
 11 13  2  0
 13 14  1  0
 14 15  2  0
 14 16  2  0
 14 17  1  0
 17 18  1  0
 18 19  2  0
 18 20  1  0
 20 21  1  0
 20 22  1  0
 20 23  1  0
 23 24  2  0
 24 25  1  0
 24 26  1  0
 26 27  1  0
 26 28  2  0
 28 29  1  0
 28 30  1  0
 30 31  1  0
 30 32  2  0
 32 33  1  0
 13 34  1  0
 34 35  1  0
 34 36  2  0
 36 37  1  0
  4 38  1  0
 38 39  1  0
 38 40  2  0
 40 41  1  0
 40 42  1  0
 42 43  1  0
 42  2  2  0
 36  8  1  0
 32 23  1  0
M  CHG  3   3  -1  17  -1  39  -1
M  END
>  <UniqueID>  (55) 
53

>  <SMILES>  (55) 
O=C(Cc1ccccc1)[N-]S(=O)(=O)c1ccc(C(=O)/N=c2\[n-]cccc2[O-])cc1

>  <Energy>  (55) 
54.24394256442506

>  <Genealogy>  (55) 
O=C(Cc1ccccc1)[N-]S(=O)(=O)c1ccc(C(=O)N=c2[n-]cccc2[O-])cc1 (protonated)
O=C(Cc1ccccc1)[N-]S(=O)(=O)c1ccc(C(=O)/N=c2\[n-]cccc2[O-])cc1 (cis-trans isomerization)
O=C(Cc1ccccc1)[N-]S(=O)(=O)c1ccc(C(=O)/N=c2\[n-]cccc2[O-])cc1 (3D coordinates assigned)
O=C(Cc1ccccc1)[N-]S(=O)(=O)c1ccc(C(=O)/N=c2\[n-]cccc2[O-])cc1 (optimized conformer: 54.24394256442506 kcal/mol)

>  <smiles>  (55) 
O=C(Cc1ccccc1)NS(=O)(=O)c1ccc(C(=O)N=c2[nH]cccc2O)cc1

>  <score_type>  (55) 
oracle

>  <origin>  (55) 
adg

>  <m_score__min__energy>  (55) 
-15.41

>  <m_primary>  (55) 
energy

$$$$
55:0
     RDKit          3D

 62 65  0  0  0  0  0  0  0  0999 V2000
   57.6720   31.7670   53.4460 C   0  0  0  0  0  0  0  0  0  0  0  0
   57.7620   30.9030   51.8910 S   0  0  0  0  0  0  0  0  0  0  0  0
   56.7840   29.7570   51.8920 O   0  0  0  0  0  0  0  0  0  0  0  0
   57.4000   31.8510   50.7830 O   0  0  0  0  0  0  0  0  0  0  0  0
   59.3590   30.2890   51.6070 N   0  0  0  0  0  0  0  0  0  0  0  0
   59.8850   30.2240   50.2820 C   0  0  0  0  0  0  0  0  0  0  0  0
   59.4810   29.2180   49.4030 C   0  0  0  0  0  0  0  0  0  0  0  0
   59.9140   29.2030   48.1040 N   0  0  0  0  0  0  0  0  0  0  0  0
   59.4650   28.1190   47.1940 C   0  0  0  0  0  0  0  0  0  0  0  0
   58.1110   27.5050   47.6460 C   0  0  0  0  0  0  0  0  0  0  0  0
   58.0680   25.9740   47.4830 C   0  0  0  0  0  0  0  0  0  0  0  0
   58.7060   25.5160   46.2280 N   0  0  0  0  0  0  0  0  0  0  0  0
   57.9000   25.8110   45.0220 C   0  0  0  0  0  0  0  0  0  0  0  0
   57.8040   27.3020   44.7980 C   0  0  0  0  0  0  0  0  0  0  0  0
   58.9070   28.0150   44.3010 C   0  0  0  0  0  0  0  0  0  0  0  0
   58.8290   29.3980   44.1110 C   0  0  0  0  0  0  0  0  0  0  0  0
   57.6470   30.0960   44.4150 C   0  0  0  0  0  0  0  0  0  0  0  0
   57.5520   31.5580   44.2000 C   0  0  0  0  0  0  0  0  0  0  0  0
   58.2950   32.1210   43.3490 O   0  0  0  0  0  0  0  0  0  0  0  0
   56.6600   32.3460   44.9940 N   0  0  0  0  0  0  0  0  0  0  0  0
   56.8950   33.7510   45.3110 C   0  0  0  0  0  0  0  0  0  0  0  0
   58.1220   33.9080   46.1690 C   0  0  0  0  0  0  0  0  0  0  0  0
   59.2820   34.5110   45.6510 C   0  0  0  0  0  0  0  0  0  0  0  0
   60.4280   34.6290   46.4450 C   0  0  0  0  0  0  0  0  0  0  0  0
   60.4300   34.1350   47.7510 C   0  0  0  0  0  0  0  0  0  0  0  0
   59.2800   33.5370   48.2750 C   0  0  0  0  0  0  0  0  0  0  0  0
   58.1310   33.4190   47.4870 C   0  0  0  0  0  0  0  0  0  0  0  0
   56.5480   29.3790   44.9210 C   0  0  0  0  0  0  0  0  0  0  0  0
   56.6230   27.9960   45.1140 C   0  0  0  0  0  0  0  0  0  0  0  0
   55.5200   27.3170   45.6250 O   0  0  0  0  0  0  0  0  0  0  0  0
   60.1280   25.9370   46.0870 C   0  0  0  0  0  0  0  0  0  0  0  0
   60.5620   27.0490   47.0610 C   0  0  0  0  0  0  0  0  0  0  0  0
   60.8240   30.1480   47.6920 C   0  0  0  0  0  0  0  0  0  0  0  0
   61.2910   30.1360   46.5190 O   0  0  0  0  0  0  0  0  0  0  0  0
   61.2540   31.1080   48.5540 N   0  0  0  0  0  0  0  0  0  0  0  0
   60.7990   31.1730   49.8300 C   0  0  0  0  0  0  0  0  0  0  0  0
   61.2040   32.0890   50.5930 O   0  0  0  0  0  0  0  0  0  0  0  0
   57.7473   31.0443   54.2719 H   0  0  0  0  0  0  0  0  0  0  0  0
   58.4999   32.4882   53.5132 H   0  0  0  0  0  0  0  0  0  0  0  0
   56.7133   32.3021   53.5132 H   0  0  0  0  0  0  0  0  0  0  0  0
   58.8054   28.4262   49.7586 H   0  0  0  0  0  0  0  0  0  0  0  0
   59.2897   28.5575   46.2005 H   0  0  0  0  0  0  0  0  0  0  0  0
   57.9498   27.7506   48.7060 H   0  0  0  0  0  0  0  0  0  0  0  0
   57.3238   27.9293   47.0055 H   0  0  0  0  0  0  0  0  0  0  0  0
   58.5934   25.5145   48.3332 H   0  0  0  0  0  0  0  0  0  0  0  0
   57.0107   25.6727   47.4480 H   0  0  0  0  0  0  0  0  0  0  0  0
   58.3749   25.3438   44.1467 H   0  0  0  0  0  0  0  0  0  0  0  0
   56.8866   25.4081   45.1656 H   0  0  0  0  0  0  0  0  0  0  0  0
   59.8384   27.4820   44.0596 H   0  0  0  0  0  0  0  0  0  0  0  0
   59.6999   29.9447   43.7203 H   0  0  0  0  0  0  0  0  0  0  0  0
   57.0346   34.3131   44.3758 H   0  0  0  0  0  0  0  0  0  0  0  0
   56.0264   34.1374   45.8643 H   0  0  0  0  0  0  0  0  0  0  0  0
   59.2884   34.8910   44.6187 H   0  0  0  0  0  0  0  0  0  0  0  0
   61.3293   35.1120   46.0395 H   0  0  0  0  0  0  0  0  0  0  0  0
   61.3370   34.2164   48.3680 H   0  0  0  0  0  0  0  0  0  0  0  0
   59.2791   33.1590   49.3080 H   0  0  0  0  0  0  0  0  0  0  0  0
   57.2303   32.9415   47.9001 H   0  0  0  0  0  0  0  0  0  0  0  0
   55.6183   29.9125   45.1679 H   0  0  0  0  0  0  0  0  0  0  0  0
   60.7660   25.0581   46.2619 H   0  0  0  0  0  0  0  0  0  0  0  0
   60.2344   26.3490   45.0726 H   0  0  0  0  0  0  0  0  0  0  0  0
   60.7560   26.6069   48.0494 H   0  0  0  0  0  0  0  0  0  0  0  0
   61.4726   27.5252   46.6685 H   0  0  0  0  0  0  0  0  0  0  0  0
  1  2  1  0
  2  3  2  0
  2  4  2  0
  2  5  1  0
  5  6  1  0
  6  7  2  0
  7  8  1  0
  8  9  1  0
  9 10  1  0
 10 11  1  0
 11 12  1  0
 12 13  1  0
 13 14  1  0
 14 15  2  0
 15 16  1  0
 16 17  2  0
 17 18  1  0
 18 19  2  0
 18 20  1  0
 20 21  1  0
 21 22  1  0
 22 23  2  0
 23 24  1  0
 24 25  2  0
 25 26  1  0
 26 27  2  0
 17 28  1  0
 28 29  2  0
 29 30  1  0
 12 31  1  0
 31 32  1  0
  8 33  1  0
 33 34  2  0
 33 35  1  0
 35 36  1  0
 36 37  2  0
 36  6  1  0
 32  9  1  0
 29 14  1  0
 27 22  1  0
  1 38  1  0
  1 39  1  0
  1 40  1  0
  7 41  1  0
  9 42  1  0
 10 43  1  0
 10 44  1  0
 11 45  1  0
 11 46  1  0
 13 47  1  0
 13 48  1  0
 15 49  1  0
 16 50  1  0
 21 51  1  0
 21 52  1  0
 23 53  1  0
 24 54  1  0
 25 55  1  0
 26 56  1  0
 27 57  1  0
 28 58  1  0
 31 59  1  0
 31 60  1  0
 32 61  1  0
 32 62  1  0
M  CHG  4   5  -1  20  -1  30  -1  35  -1
M  END
>  <UniqueID>  (56) 
54

>  <SMILES>  (56) 
CS(=O)(=O)[N-]c1cn(C2CCN(Cc3ccc(C(=O)[N-]Cc4ccccc4)cc3[O-])CC2)c(=O)[n-]c1=O

>  <Energy>  (56) 
84.99277842653964

>  <Genealogy>  (56) 
CS(=O)(=O)[N-]c1cn(C2CCN(Cc3ccc(C(=O)[N-]Cc4ccccc4)cc3[O-])CC2)c(=O)[n-]c1=O (protonated)
CS(=O)(=O)[N-]c1cn(C2CCN(Cc3ccc(C(=O)[N-]Cc4ccccc4)cc3[O-])CC2)c(=O)[n-]c1=O (3D coordinates assigned)
CS(=O)(=O)[N-]c1cn(C2CCN(Cc3ccc(C(=O)[N-]Cc4ccccc4)cc3[O-])CC2)c(=O)[n-]c1=O (nonaromatic ring conformer: 84.99277842653964 kcal/mol)

>  <smiles>  (56) 
CS(=O)(=O)Nc1cn(C2CCN(Cc3ccc(C(=O)NCc4ccccc4)cc3O)CC2)c(=O)[nH]c1=O

>  <score_type>  (56) 
oracle

>  <origin>  (56) 
adg

>  <m_score__min__energy>  (56) 
-16.48

>  <m_primary>  (56) 
energy

$$$$
56:0
     RDKit          3D

 54 58  0  0  0  0  0  0  0  0999 V2000
   64.5180   36.9450   52.4390 C   0  0  0  0  0  0  0  0  0  0  0  0
   64.1400   35.7920   51.6940 O   0  0  0  0  0  0  0  0  0  0  0  0
   64.8810   34.5990   51.6380 C   0  0  0  0  0  0  0  0  0  0  0  0
   66.1740   34.5030   52.1880 C   0  0  0  0  0  0  0  0  0  0  0  0
   66.8890   33.3100   52.1040 C   0  0  0  0  0  0  0  0  0  0  0  0
   66.3290   32.1960   51.4790 C   0  0  0  0  0  0  0  0  0  0  0  0
   65.0370   32.2640   50.9270 C   0  0  0  0  0  0  0  0  0  0  0  0
   64.4370   31.1530   50.3090 O   0  0  0  0  0  0  0  0  0  0  0  0
   63.4080   30.3620   50.8940 C   0  0  0  0  0  0  0  0  0  0  0  0
   64.3150   33.4740   51.0030 C   0  0  0  0  0  0  0  0  0  0  0  0
   62.9530   33.5630   50.4240 C   0  0  0  0  0  0  0  0  0  0  0  0
   61.8460   33.6480   51.2800 C   0  0  0  0  0  0  0  0  0  0  0  0
   60.5510   33.7060   50.7600 C   0  0  0  0  0  0  0  0  0  0  0  0
   60.3450   33.6920   49.3800 C   0  0  0  0  0  0  0  0  0  0  0  0
   61.4400   33.6340   48.5010 C   0  0  0  0  0  0  0  0  0  0  0  0
   61.2870   33.6290   47.1010 C   0  0  0  0  0  0  0  0  0  0  0  0
   59.9950   33.7450   46.4900 N   0  0  0  0  0  0  0  0  0  0  0  0
   59.5380   34.9660   45.8190 C   0  0  0  0  0  0  0  0  0  0  0  0
   58.3620   34.5420   44.9040 C   0  0  0  0  0  0  0  0  0  0  0  0
   58.3230   33.0630   45.0610 C   0  0  0  0  0  0  0  0  0  0  0  0
   57.4780   32.1510   44.4270 C   0  0  0  0  0  0  0  0  0  0  0  0
   57.6160   30.7820   44.7260 C   0  0  0  0  0  0  0  0  0  0  0  0
   56.5600   29.6020   43.9580 S   0  0  0  0  0  0  0  0  0  0  0  0
   55.1490   29.3730   44.9270 N   0  0  0  0  0  0  0  0  0  0  0  0
   57.2820   28.2930   43.8070 O   0  0  0  0  0  0  0  0  0  0  0  0
   56.1590   30.0900   42.5940 O   0  0  0  0  0  0  0  0  0  0  0  0
   58.5860   30.3630   45.6620 C   0  0  0  0  0  0  0  0  0  0  0  0
   59.4210   31.3020   46.2880 C   0  0  0  0  0  0  0  0  0  0  0  0
   59.2660   32.6510   45.9610 C   0  0  0  0  0  0  0  0  0  0  0  0
   62.3870   33.5300   46.3070 N   0  0  0  0  0  0  0  0  0  0  0  0
   63.6350   33.4530   46.8330 C   0  0  0  0  0  0  0  0  0  0  0  0
   63.8100   33.4720   48.1780 N   0  0  0  0  0  0  0  0  0  0  0  0
   62.7510   33.5540   49.0280 C   0  0  0  0  0  0  0  0  0  0  0  0
   64.4463   36.7263   53.5146 H   0  0  0  0  0  0  0  0  0  0  0  0
   65.5533   37.2199   52.1890 H   0  0  0  0  0  0  0  0  0  0  0  0
   63.8464   37.7795   52.1890 H   0  0  0  0  0  0  0  0  0  0  0  0
   66.6221   35.3750   52.6868 H   0  0  0  0  0  0  0  0  0  0  0  0
   67.9000   33.2465   52.5327 H   0  0  0  0  0  0  0  0  0  0  0  0
   66.9012   31.2585   51.4174 H   0  0  0  0  0  0  0  0  0  0  0  0
   63.4809   30.4180   51.9902 H   0  0  0  0  0  0  0  0  0  0  0  0
   62.4267   30.7405   50.5719 H   0  0  0  0  0  0  0  0  0  0  0  0
   63.5214   29.3163   50.5719 H   0  0  0  0  0  0  0  0  0  0  0  0
   61.9984   33.6692   52.3692 H   0  0  0  0  0  0  0  0  0  0  0  0
   59.6895   33.7630   51.4415 H   0  0  0  0  0  0  0  0  0  0  0  0
   59.3215   33.7265   48.9785 H   0  0  0  0  0  0  0  0  0  0  0  0
   59.1975   35.7039   46.5603 H   0  0  0  0  0  0  0  0  0  0  0  0
   60.3485   35.4324   45.2398 H   0  0  0  0  0  0  0  0  0  0  0  0
   57.4186   34.9988   45.2375 H   0  0  0  0  0  0  0  0  0  0  0  0
   58.4924   34.8609   43.8594 H   0  0  0  0  0  0  0  0  0  0  0  0
   56.7195   32.4947   43.7083 H   0  0  0  0  0  0  0  0  0  0  0  0
   55.3560   28.5880   45.5850 H   0  0  0  0  0  0  0  0  0  0  0  0
   58.6882   29.2944   45.9023 H   0  0  0  0  0  0  0  0  0  0  0  0
   60.1791   30.9830   47.0184 H   0  0  0  0  0  0  0  0  0  0  0  0
   64.5072   33.3750   46.1673 H   0  0  0  0  0  0  0  0  0  0  0  0
  1  2  1  0
  2  3  1  0
  3  4  2  0
  4  5  1  0
  5  6  2  0
  6  7  1  0
  7  8  1  0
  8  9  1  0
  7 10  2  0
 10 11  1  0
 11 12  2  0
 12 13  1  0
 13 14  2  0
 14 15  1  0
 15 16  2  0
 16 17  1  0
 17 18  1  0
 18 19  1  0
 19 20  1  0
 20 21  2  0
 21 22  1  0
 22 23  1  0
 23 24  1  0
 23 25  2  0
 23 26  2  0
 22 27  2  0
 27 28  1  0
 28 29  2  0
 16 30  1  0
 30 31  2  0
 31 32  1  0
 32 33  2  0
 10  3  1  0
 33 11  1  0
 33 15  1  0
 29 17  1  0
 29 20  1  0
  1 34  1  0
  1 35  1  0
  1 36  1  0
  4 37  1  0
  5 38  1  0
  6 39  1  0
  9 40  1  0
  9 41  1  0
  9 42  1  0
 12 43  1  0
 13 44  1  0
 14 45  1  0
 18 46  1  0
 18 47  1  0
 19 48  1  0
 19 49  1  0
 21 50  1  0
 24 51  1  0
 27 52  1  0
 28 53  1  0
 31 54  1  0
M  CHG  1  24  -1
M  END
>  <UniqueID>  (57) 
55

>  <SMILES>  (57) 
COc1cccc(OC)c1-c1cccc2c(N3CCc4cc(S([NH-])(=O)=O)ccc43)ncnc12

>  <Energy>  (57) 
91.68892492048542

>  <Genealogy>  (57) 
COc1cccc(OC)c1-c1cccc2c(N3CCc4cc(S([NH-])(=O)=O)ccc43)ncnc12 (protonated)
COc1cccc(OC)c1-c1cccc2c(N3CCc4cc(S([NH-])(=O)=O)ccc43)ncnc12 (3D coordinates assigned)
COc1cccc(OC)c1-c1cccc2c(N3CCc4cc(S([NH-])(=O)=O)ccc43)ncnc12 (nonaromatic ring conformer: 91.68892492048542 kcal/mol)

>  <smiles>  (57) 
COc1cccc(OC)c1-c1cccc2c(N3CCc4cc(S(N)(=O)=O)ccc43)ncnc12

>  <score_type>  (57) 
oracle

>  <origin>  (57) 
adg

>  <m_score__min__energy>  (57) 
-12.119999999999999

>  <m_primary>  (57) 
energy

$$$$
57:0
     RDKit          3D

 52 55  0  0  0  0  0  0  0  0999 V2000
   54.7560   26.3370   45.9910 N   0  0  0  0  0  0  0  0  0  0  0  0
   56.3870   25.8180   46.2340 S   0  0  0  0  0  0  0  0  0  0  0  0
   56.4860   25.0340   47.5130 O   0  0  0  0  0  0  0  0  0  0  0  0
   56.7930   24.9330   45.0880 O   0  0  0  0  0  0  0  0  0  0  0  0
   57.4440   27.2230   46.3240 C   0  0  0  0  0  0  0  0  0  0  0  0
   58.4770   27.2530   47.2650 C   0  0  0  0  0  0  0  0  0  0  0  0
   59.3300   28.3560   47.3400 C   0  0  0  0  0  0  0  0  0  0  0  0
   59.1740   29.4500   46.4710 C   0  0  0  0  0  0  0  0  0  0  0  0
   60.1660   30.5530   46.5340 C   0  0  0  0  0  0  0  0  0  0  0  0
   61.3870   30.2880   46.7030 O   0  0  0  0  0  0  0  0  0  0  0  0
   59.7520   31.9090   46.3500 N   0  0  0  0  0  0  0  0  0  0  0  0
   60.2030   33.0320   47.1130 C   0  0  0  0  0  0  0  0  0  0  0  0
   59.4390   33.8970   47.8750 C   0  0  0  0  0  0  0  0  0  0  0  0
   60.2580   34.5790   48.7020 N   0  0  0  0  0  0  0  0  0  0  0  0
   61.5010   34.1840   48.4620 N   0  0  0  0  0  0  0  0  0  0  0  0
   62.6240   34.4830   49.3450 C   0  0  0  0  0  0  0  0  0  0  0  0
   63.2960   33.1910   49.7250 C   0  0  0  0  0  0  0  0  0  0  0  0
   64.6880   33.1480   49.8950 C   0  0  0  0  0  0  0  0  0  0  0  0
   65.2920   32.0280   50.4750 C   0  0  0  0  0  0  0  0  0  0  0  0
   64.5080   30.9600   50.9200 C   0  0  0  0  0  0  0  0  0  0  0  0
   63.1150   30.9940   50.7540 C   0  0  0  0  0  0  0  0  0  0  0  0
   62.2870   29.9450   51.2660 N   0  0  0  0  0  0  0  0  0  0  0  0
   61.0690   29.5120   50.6450 C   0  0  0  0  0  0  0  0  0  0  0  0
   61.1110   28.5400   49.8440 O   0  0  0  0  0  0  0  0  0  0  0  0
   59.7820   30.2110   50.8760 C   0  0  0  0  0  0  0  0  0  0  0  0
   58.9630   29.8760   51.9720 C   0  0  0  0  0  0  0  0  0  0  0  0
   57.7570   30.5500   52.1860 C   0  0  0  0  0  0  0  0  0  0  0  0
   57.3670   31.5800   51.3270 C   0  0  0  0  0  0  0  0  0  0  0  0
   58.1790   31.9320   50.2460 C   0  0  0  0  0  0  0  0  0  0  0  0
   59.3820   31.2550   50.0210 C   0  0  0  0  0  0  0  0  0  0  0  0
   62.5180   32.0930   50.1270 C   0  0  0  0  0  0  0  0  0  0  0  0
   61.5020   33.2330   47.5060 C   0  0  0  0  0  0  0  0  0  0  0  0
   58.1100   29.4270   45.5340 C   0  0  0  0  0  0  0  0  0  0  0  0
   57.7520   30.7740   44.4550 Cl  0  0  0  0  0  0  0  0  0  0  0  0
   57.2590   28.3160   45.4680 C   0  0  0  0  0  0  0  0  0  0  0  0
   54.5630   27.0840   46.6960 H   0  0  0  0  0  0  0  0  0  0  0  0
   58.6187   26.4038   47.9497 H   0  0  0  0  0  0  0  0  0  0  0  0
   60.1351   28.3691   48.0894 H   0  0  0  0  0  0  0  0  0  0  0  0
   58.3464   34.0100   47.8165 H   0  0  0  0  0  0  0  0  0  0  0  0
   63.3414   35.1342   48.8241 H   0  0  0  0  0  0  0  0  0  0  0  0
   62.2642   34.9981   50.2479 H   0  0  0  0  0  0  0  0  0  0  0  0
   65.3063   33.9981   49.5710 H   0  0  0  0  0  0  0  0  0  0  0  0
   66.3861   31.9875   50.5812 H   0  0  0  0  0  0  0  0  0  0  0  0
   64.9832   30.0922   51.4007 H   0  0  0  0  0  0  0  0  0  0  0  0
   59.2742   29.0793   52.6637 H   0  0  0  0  0  0  0  0  0  0  0  0
   57.1138   30.2685   53.0328 H   0  0  0  0  0  0  0  0  0  0  0  0
   56.4211   32.1137   51.5015 H   0  0  0  0  0  0  0  0  0  0  0  0
   57.8714   32.7436   49.5702 H   0  0  0  0  0  0  0  0  0  0  0  0
   60.0192   31.5401   49.1709 H   0  0  0  0  0  0  0  0  0  0  0  0
   61.4327   32.0971   49.9478 H   0  0  0  0  0  0  0  0  0  0  0  0
   62.3865   32.7114   47.1116 H   0  0  0  0  0  0  0  0  0  0  0  0
   56.4374   28.3020   44.7367 H   0  0  0  0  0  0  0  0  0  0  0  0
  1  2  1  0
  2  3  2  0
  2  4  2  0
  2  5  1  0
  5  6  2  0
  6  7  1  0
  7  8  2  0
  8  9  1  0
  9 10  2  0
  9 11  1  0
 11 12  1  0
 12 13  1  0
 13 14  2  0
 14 15  1  0
 15 16  1  0
 16 17  1  0
 17 18  2  0
 18 19  1  0
 19 20  2  0
 20 21  1  0
 21 22  1  0
 22 23  1  0
 23 24  2  0
 23 25  1  0
 25 26  2  0
 26 27  1  0
 27 28  2  0
 28 29  1  0
 29 30  2  0
 21 31  2  0
 15 32  1  0
  8 33  1  0
 33 34  1  0
 33 35  2  0
 35  5  1  0
 32 12  2  0
 31 17  1  0
 30 25  1  0
  1 36  1  0
  6 37  1  0
  7 38  1  0
 13 39  1  0
 16 40  1  0
 16 41  1  0
 18 42  1  0
 19 43  1  0
 20 44  1  0
 26 45  1  0
 27 46  1  0
 28 47  1  0
 29 48  1  0
 30 49  1  0
 31 50  1  0
 32 51  1  0
 35 52  1  0
M  CHG  3   1  -1  11  -1  22  -1
M  END
>  <UniqueID>  (58) 
56

>  <SMILES>  (58) 
[NH-]S(=O)(=O)c1ccc(C(=O)[N-]c2cnn(Cc3cccc([N-]C(=O)c4ccccc4)c3)c2)c(Cl)c1

>  <Energy>  (58) 
100.13754730443846

>  <Genealogy>  (58) 
[NH-]S(=O)(=O)c1ccc(C(=O)[N-]c2cnn(Cc3cccc([N-]C(=O)c4ccccc4)c3)c2)c(Cl)c1 (protonated)
[NH-]S(=O)(=O)c1ccc(C(=O)[N-]c2cnn(Cc3cccc([N-]C(=O)c4ccccc4)c3)c2)c(Cl)c1 (3D coordinates assigned)
[NH-]S(=O)(=O)c1ccc(C(=O)[N-]c2cnn(Cc3cccc([N-]C(=O)c4ccccc4)c3)c2)c(Cl)c1 (optimized conformer: 100.13754730443846 kcal/mol)

>  <smiles>  (58) 
NS(=O)(=O)c1ccc(C(=O)Nc2cnn(Cc3cccc(NC(=O)c4ccccc4)c3)c2)c(Cl)c1

>  <score_type>  (58) 
oracle

>  <origin>  (58) 
adg

>  <m_score__min__energy>  (58) 
-14.94

>  <m_primary>  (58) 
energy

$$$$
58:0
     RDKit          3D

 46 48  0  0  0  0  0  0  0  0999 V2000
   58.8408   34.3296   43.3138 H   0  0  0  0  0  0  0  0  0  0  0  0
   58.5260   33.7830   44.2150 C   0  0  0  0  0  0  0  0  0  0  0  0
   58.6570   34.3320   45.8020 S   0  0  0  0  0  0  0  0  0  0  0  0
   57.9700   32.9420   46.4450 C   0  0  0  0  0  0  0  0  0  0  0  0
   57.8070   32.7400   47.7180 N   0  0  0  0  0  0  0  0  0  0  0  0
   58.8600   32.5670   48.6810 C   0  0  0  0  0  0  0  0  0  0  0  0
   58.5470   32.3660   49.8840 O   0  0  0  0  0  0  0  0  0  0  0  0
   60.2930   32.5720   48.2990 C   0  0  0  0  0  0  0  0  0  0  0  0
   60.9060   31.3910   47.8460 C   0  0  0  0  0  0  0  0  0  0  0  0
   60.3206   30.4623   47.7768 H   0  0  0  0  0  0  0  0  0  0  0  0
   62.2560   31.3910   47.4830 C   0  0  0  0  0  0  0  0  0  0  0  0
   62.7318   30.4610   47.1385 H   0  0  0  0  0  0  0  0  0  0  0  0
   63.0020   32.5700   47.5570 C   0  0  0  0  0  0  0  0  0  0  0  0
   64.0655   32.5667   47.2759 H   0  0  0  0  0  0  0  0  0  0  0  0
   62.3970   33.7530   47.9880 C   0  0  0  0  0  0  0  0  0  0  0  0
   62.9842   34.6816   48.0428 H   0  0  0  0  0  0  0  0  0  0  0  0
   61.0460   33.7590   48.3500 C   0  0  0  0  0  0  0  0  0  0  0  0
   60.5704   34.6958   48.6759 H   0  0  0  0  0  0  0  0  0  0  0  0
   57.6470   32.0460   45.4850 N   0  0  0  0  0  0  0  0  0  0  0  0
   57.9480   32.5130   44.2440 C   0  0  0  0  0  0  0  0  0  0  0  0
   57.6690   31.7180   43.0430 C   0  0  0  0  0  0  0  0  0  0  0  0
   57.4180   32.2900   41.9470 O   0  0  0  0  0  0  0  0  0  0  0  0
   57.6820   30.3200   43.1310 O   0  0  0  0  0  0  0  0  0  0  0  0
   56.5040   29.5160   43.0960 C   0  0  0  0  0  0  0  0  0  0  0  0
   56.7752   28.4926   42.7974 H   0  0  0  0  0  0  0  0  0  0  0  0
   55.8010   29.9540   42.3722 H   0  0  0  0  0  0  0  0  0  0  0  0
   55.8440   29.4760   44.4400 C   0  0  0  0  0  0  0  0  0  0  0  0
   55.1430   30.4570   44.8100 O   0  0  0  0  0  0  0  0  0  0  0  0
   55.9190   28.2900   45.2400 N   0  0  0  0  0  0  0  0  0  0  0  0
   57.0420   27.8410   46.0110 C   0  0  0  0  0  0  0  0  0  0  0  0
   57.1480   26.5210   46.4840 C   0  0  0  0  0  0  0  0  0  0  0  0
   56.3604   25.7899   46.2491 H   0  0  0  0  0  0  0  0  0  0  0  0
   58.2510   26.1340   47.2520 C   0  0  0  0  0  0  0  0  0  0  0  0
   58.3394   25.0933   47.5971 H   0  0  0  0  0  0  0  0  0  0  0  0
   59.2470   27.0680   47.5850 C   0  0  0  0  0  0  0  0  0  0  0  0
   60.4060   26.6960   48.3440 N   0  0  0  0  0  0  0  0  0  0  0  0
   60.7520   27.1490   49.6580 C   0  0  0  0  0  0  0  0  0  0  0  0
   61.1160   26.3050   50.5180 O   0  0  0  0  0  0  0  0  0  0  0  0
   60.7350   28.6010   50.0300 C   0  0  0  0  0  0  0  0  0  0  0  0
   60.7339   28.6988   51.1256 H   0  0  0  0  0  0  0  0  0  0  0  0
   61.6274   29.0954   49.6187 H   0  0  0  0  0  0  0  0  0  0  0  0
   59.8313   29.0743   49.6187 H   0  0  0  0  0  0  0  0  0  0  0  0
   59.1420   28.3790   47.1080 C   0  0  0  0  0  0  0  0  0  0  0  0
   59.9326   29.1087   47.3372 H   0  0  0  0  0  0  0  0  0  0  0  0
   58.0390   28.7680   46.3420 C   0  0  0  0  0  0  0  0  0  0  0  0
   57.9534   29.8089   45.9969 H   0  0  0  0  0  0  0  0  0  0  0  0
  1  2  1  0
  2  3  1  0
  3  4  1  0
  4  5  2  0
  5  6  1  0
  6  7  2  0
  6  8  1  0
  8  9  2  0
  9 10  1  0
  9 11  1  0
 11 12  1  0
 11 13  2  0
 13 14  1  0
 13 15  1  0
 15 16  1  0
 15 17  2  0
 17 18  1  0
  4 19  1  0
 19 20  1  0
 20 21  1  0
 21 22  2  0
 21 23  1  0
 23 24  1  0
 24 25  1  0
 24 26  1  0
 24 27  1  0
 27 28  2  0
 27 29  1  0
 29 30  1  0
 30 31  2  0
 31 32  1  0
 31 33  1  0
 33 34  1  0
 33 35  2  0
 35 36  1  0
 36 37  1  0
 37 38  2  0
 37 39  1  0
 39 40  1  0
 39 41  1  0
 39 42  1  0
 35 43  1  0
 43 44  1  0
 43 45  2  0
 45 46  1  0
 20  2  2  0
 45 30  1  0
 17  8  1  0
M  CHG  3  19  -1  29  -1  36  -1
M  END
>  <UniqueID>  (59) 
57

>  <SMILES>  (59) 
CC(=O)[N-]c1ccc([N-]C(=O)COC(=O)c2cs/c(=N/C(=O)c3ccccc3)[n-]2)cc1

>  <Energy>  (59) 
89.22323204923424

>  <Genealogy>  (59) 
CC(=O)[N-]c1ccc([N-]C(=O)COC(=O)c2csc(=NC(=O)c3ccccc3)[n-]2)cc1 (protonated)
CC(=O)[N-]c1ccc([N-]C(=O)COC(=O)c2cs/c(=N/C(=O)c3ccccc3)[n-]2)cc1 (cis-trans isomerization)
CC(=O)[N-]c1ccc([N-]C(=O)COC(=O)c2cs/c(=N/C(=O)c3ccccc3)[n-]2)cc1 (3D coordinates assigned)
CC(=O)[N-]c1ccc([N-]C(=O)COC(=O)c2cs/c(=N/C(=O)c3ccccc3)[n-]2)cc1 (optimized conformer: 89.22323204923424 kcal/mol)

>  <smiles>  (59) 
CC(=O)Nc1ccc(NC(=O)COC(=O)c2csc(=NC(=O)c3ccccc3)[nH]2)cc1

>  <score_type>  (59) 
oracle

>  <origin>  (59) 
adg

>  <m_score__min__energy>  (59) 
-12.9

>  <m_primary>  (59) 
energy

$$$$
59:0
     RDKit          3D

 51 54  0  0  0  0  0  0  0  0999 V2000
   60.0200   34.5440   49.2920 C   0  0  0  0  0  0  0  0  0  0  0  0
   59.6210   34.3050   47.8710 C   0  0  0  0  0  0  0  0  0  0  0  0
   59.2820   33.0170   47.4370 C   0  0  0  0  0  0  0  0  0  0  0  0
   58.9370   32.8020   46.0910 C   0  0  0  0  0  0  0  0  0  0  0  0
   58.5680   31.4450   45.6120 C   0  0  0  0  0  0  0  0  0  0  0  0
   58.6390   30.3380   46.4770 C   0  0  0  0  0  0  0  0  0  0  0  0
   58.2870   29.0620   46.0260 C   0  0  0  0  0  0  0  0  0  0  0  0
   57.8690   28.8680   44.7030 C   0  0  0  0  0  0  0  0  0  0  0  0
   57.4470   27.5020   44.2350 C   0  0  0  0  0  0  0  0  0  0  0  0
   57.9860   26.4760   45.1310 N   0  0  0  0  0  0  0  0  0  0  0  0
   59.2940   26.2540   45.3650 C   0  0  0  0  0  0  0  0  0  0  0  0
   59.4420   25.3220   46.3740 C   0  0  0  0  0  0  0  0  0  0  0  0
   58.1690   24.9710   46.7800 C   0  0  0  0  0  0  0  0  0  0  0  0
   57.2980   25.6970   45.9930 C   0  0  0  0  0  0  0  0  0  0  0  0
   55.8340   25.6490   46.1040 C   0  0  0  0  0  0  0  0  0  0  0  0
   55.1740   26.7140   45.9880 O   0  0  0  0  0  0  0  0  0  0  0  0
   55.1440   24.4210   46.3480 N   0  0  0  0  0  0  0  0  0  0  0  0
   54.9640   23.1690   45.1620 S   0  0  0  0  0  0  0  0  0  0  0  0
   54.4630   21.9090   45.8100 O   0  0  0  0  0  0  0  0  0  0  0  0
   53.9930   23.6150   44.1040 O   0  0  0  0  0  0  0  0  0  0  0  0
   56.5570   22.8730   44.3970 C   0  0  0  0  0  0  0  0  0  0  0  0
   56.5610   23.1270   42.8930 C   0  0  0  0  0  0  0  0  0  0  0  0
   56.8350   21.6500   42.6480 C   0  0  0  0  0  0  0  0  0  0  0  0
   56.8370   21.3940   44.1490 C   0  0  0  0  0  0  0  0  0  0  0  0
   57.7890   29.9700   43.8390 C   0  0  0  0  0  0  0  0  0  0  0  0
   58.1380   31.2470   44.2880 C   0  0  0  0  0  0  0  0  0  0  0  0
   58.9480   33.8940   45.2080 C   0  0  0  0  0  0  0  0  0  0  0  0
   59.3000   35.1610   45.6780 C   0  0  0  0  0  0  0  0  0  0  0  0
   59.6290   35.3370   46.9840 N   0  0  0  0  0  0  0  0  0  0  0  0
   59.2723   34.0961   49.9631 H   0  0  0  0  0  0  0  0  0  0  0  0
   61.0021   34.0854   49.4792 H   0  0  0  0  0  0  0  0  0  0  0  0
   60.0791   35.6263   49.4792 H   0  0  0  0  0  0  0  0  0  0  0  0
   59.2857   32.1766   48.1468 H   0  0  0  0  0  0  0  0  0  0  0  0
   58.9738   30.4771   47.5155 H   0  0  0  0  0  0  0  0  0  0  0  0
   58.3386   28.2054   46.7142 H   0  0  0  0  0  0  0  0  0  0  0  0
   56.3487   27.4416   44.2312 H   0  0  0  0  0  0  0  0  0  0  0  0
   57.8338   27.3332   43.2192 H   0  0  0  0  0  0  0  0  0  0  0  0
   60.1223   26.7429   44.8312 H   0  0  0  0  0  0  0  0  0  0  0  0
   60.3897   24.9345   46.7761 H   0  0  0  0  0  0  0  0  0  0  0  0
   57.9027   24.2558   47.5722 H   0  0  0  0  0  0  0  0  0  0  0  0
   57.2055   23.4614   45.0628 H   0  0  0  0  0  0  0  0  0  0  0  0
   55.5980   23.4779   42.4937 H   0  0  0  0  0  0  0  0  0  0  0  0
   57.2171   23.8957   42.4587 H   0  0  0  0  0  0  0  0  0  0  0  0
   56.0320   21.1293   42.1058 H   0  0  0  0  0  0  0  0  0  0  0  0
   57.6917   21.3399   42.0316 H   0  0  0  0  0  0  0  0  0  0  0  0
   56.0370   20.7212   44.4916 H   0  0  0  0  0  0  0  0  0  0  0  0
   57.6940   20.8998   44.6299 H   0  0  0  0  0  0  0  0  0  0  0  0
   57.4497   29.8286   42.8022 H   0  0  0  0  0  0  0  0  0  0  0  0
   58.0758   32.1034   43.6004 H   0  0  0  0  0  0  0  0  0  0  0  0
   58.6805   33.7519   44.1505 H   0  0  0  0  0  0  0  0  0  0  0  0
   59.3108   36.0184   44.9890 H   0  0  0  0  0  0  0  0  0  0  0  0
  1  2  1  0
  2  3  2  0
  3  4  1  0
  4  5  1  0
  5  6  2  0
  6  7  1  0
  7  8  2  0
  8  9  1  0
  9 10  1  0
 10 11  1  0
 11 12  2  0
 12 13  1  0
 13 14  2  0
 14 15  1  0
 15 16  2  0
 15 17  1  0
 17 18  1  0
 18 19  2  0
 18 20  2  0
 18 21  1  0
 21 22  1  0
 22 23  1  0
 23 24  1  0
  8 25  1  0
 25 26  2  0
  4 27  2  0
 27 28  1  0
 28 29  2  0
 29  2  1  0
 26  5  1  0
 14 10  1  0
 24 21  1  0
  1 30  1  0
  1 31  1  0
  1 32  1  0
  3 33  1  0
  6 34  1  0
  7 35  1  0
  9 36  1  0
  9 37  1  0
 11 38  1  0
 12 39  1  0
 13 40  1  0
 21 41  1  0
 22 42  1  0
 22 43  1  0
 23 44  1  0
 23 45  1  0
 24 46  1  0
 24 47  1  0
 25 48  1  0
 26 49  1  0
 27 50  1  0
 28 51  1  0
M  CHG  1  17  -1
M  END
>  <UniqueID>  (60) 
58

>  <SMILES>  (60) 
Cc1cc(-c2ccc(Cn3cccc3C(=O)[N-]S(=O)(=O)C3CCC3)cc2)ccn1

>  <Energy>  (60) 
147.00657038456626

>  <Genealogy>  (60) 
Cc1cc(-c2ccc(Cn3cccc3C(=O)[N-]S(=O)(=O)C3CCC3)cc2)ccn1 (protonated)
Cc1cc(-c2ccc(Cn3cccc3C(=O)[N-]S(=O)(=O)C3CCC3)cc2)ccn1 (3D coordinates assigned)
Cc1cc(-c2ccc(Cn3cccc3C(=O)[N-]S(=O)(=O)C3CCC3)cc2)ccn1 (nonaromatic ring conformer: 147.00657038456626 kcal/mol)

>  <smiles>  (60) 
Cc1cc(-c2ccc(Cn3cccc3C(=O)NS(=O)(=O)C3CCC3)cc2)ccn1

>  <score_type>  (60) 
oracle

>  <origin>  (60) 
adg

>  <m_score__min__energy>  (60) 
-10.960000000000001

>  <m_primary>  (60) 
energy

$$$$
60:0
     RDKit          3D

 28 29  0  0  0  0  0  0  0  0999 V2000
   58.5300   33.1590   44.1660 C   0  0  0  0  0  0  0  0  0  0  0  0
   57.7640   32.0640   45.3390 S   0  0  0  0  0  0  0  0  0  0  0  0
   58.8180   31.2110   45.9870 O   0  0  0  0  0  0  0  0  0  0  0  0
   57.0600   32.8890   46.3810 O   0  0  0  0  0  0  0  0  0  0  0  0
   56.6210   31.0620   44.5070 N   0  0  0  0  0  0  0  0  0  0  0  0
   56.3410   29.6940   44.8270 C   0  0  0  0  0  0  0  0  0  0  0  0
   55.1400   29.3140   44.8450 O   0  0  0  0  0  0  0  0  0  0  0  0
   57.4060   28.7110   45.1170 C   0  0  0  0  0  0  0  0  0  0  0  0
   58.4820   28.7480   44.4660 O   0  0  0  0  0  0  0  0  0  0  0  0
   57.1990   27.6310   46.0390 N   0  0  0  0  0  0  0  0  0  0  0  0
   56.5840   26.5110   45.7870 C   0  0  0  0  0  0  0  0  0  0  0  0
   57.1230   25.3790   45.1930 C   0  0  0  0  0  0  0  0  0  0  0  0
   56.0470   24.5070   45.1190 C   0  0  0  0  0  0  0  0  0  0  0  0
   56.0190   23.1100   44.5510 C   0  0  0  0  0  0  0  0  0  0  0  0
   57.3450   22.5700   44.0350 C   0  0  0  0  0  0  0  0  0  0  0  0
   56.2620   22.9940   43.0530 C   0  0  0  0  0  0  0  0  0  0  0  0
   54.9590   25.1140   45.6320 N   0  0  0  0  0  0  0  0  0  0  0  0
   55.2740   26.3340   46.0350 N   0  0  0  0  0  0  0  0  0  0  0  0
   59.0801   33.9454   44.7035 H   0  0  0  0  0  0  0  0  0  0  0  0
   59.2278   32.5897   43.5344 H   0  0  0  0  0  0  0  0  0  0  0  0
   57.7559   33.6193   43.5344 H   0  0  0  0  0  0  0  0  0  0  0  0
   58.1580   25.2126   44.8598 H   0  0  0  0  0  0  0  0  0  0  0  0
   55.2481   22.7463   45.2463 H   0  0  0  0  0  0  0  0  0  0  0  0
   58.2607   23.1709   44.1371 H   0  0  0  0  0  0  0  0  0  0  0  0
   57.9286   21.6525   44.2009 H   0  0  0  0  0  0  0  0  0  0  0  0
   56.3950   23.9013   42.4455 H   0  0  0  0  0  0  0  0  0  0  0  0
   55.7387   22.5098   42.2153 H   0  0  0  0  0  0  0  0  0  0  0  0
   54.0020   24.7050   45.7020 H   0  0  0  0  0  0  0  0  0  0  0  0
  1  2  1  0
  2  3  2  0
  2  4  2  0
  2  5  1  0
  5  6  1  0
  6  7  2  0
  6  8  1  0
  8  9  2  0
  8 10  1  0
 10 11  2  3
 11 12  1  0
 12 13  2  0
 13 14  1  0
 14 15  1  0
 15 16  1  0
 13 17  1  0
 17 18  1  0
 18 11  1  0
 16 14  1  0
  1 19  1  0
  1 20  1  0
  1 21  1  0
 12 22  1  0
 14 23  1  0
 15 24  1  0
 15 25  1  0
 16 26  1  0
 16 27  1  0
 17 28  1  0
M  CHG  2   5  -1  18  -1
M  END
>  <UniqueID>  (61) 
59

>  <SMILES>  (61) 
CS(=O)(=O)[N-]C(=O)C(=O)N=c1cc(C2CC2)[nH][n-]1

>  <Energy>  (61) 
329.0782455252139

>  <Genealogy>  (61) 
CS(=O)(=O)[N-]C(=O)C(=O)N=c1cc(C2CC2)[nH][n-]1 (protonated)
CS(=O)(=O)[N-]C(=O)C(=O)N=c1cc(C2CC2)[nH][n-]1 (3D coordinates assigned)
CS(=O)(=O)[N-]C(=O)C(=O)N=c1cc(C2CC2)[nH][n-]1 (nonaromatic ring conformer: 329.0782455252139 kcal/mol)

>  <smiles>  (61) 
CS(=O)(=O)NC(=O)C(=O)N=c1cc(C2CC2)[nH][nH]1

>  <score_type>  (61) 
oracle

>  <origin>  (61) 
adg

>  <m_score__min__energy>  (61) 
-10.279999999999999

>  <m_primary>  (61) 
energy

$$$$
61:0
     RDKit          3D

 36 37  0  0  0  0  0  0  0  0999 V2000
   58.5370   25.0520   46.2000 O   0  0  0  0  0  0  0  0  0  0  0  0
   58.0170   26.1530   45.8850 C   0  0  0  0  0  0  0  0  0  0  0  0
   58.8670   27.0900   45.4230 N   0  0  0  0  0  0  0  0  0  0  0  0
   58.7800   28.3610   44.9780 C   0  0  0  0  0  0  0  0  0  0  0  0
   59.8750   28.8990   44.6550 O   0  0  0  0  0  0  0  0  0  0  0  0
   57.6190   29.0850   44.8470 N   0  0  0  0  0  0  0  0  0  0  0  0
   57.7830   30.4790   44.3460 C   0  0  0  0  0  0  0  0  0  0  0  0
   57.0330   31.3890   45.1310 O   0  0  0  0  0  0  0  0  0  0  0  0
   57.4610   32.7130   44.8870 C   0  0  0  0  0  0  0  0  0  0  0  0
   57.7410   33.4050   46.2160 C   0  0  0  0  0  0  0  0  0  0  0  0
   59.2810   34.5750   46.0680 Br  0  0  0  0  0  0  0  0  0  0  0  0
   56.3360   28.6520   45.0930 C   0  0  0  0  0  0  0  0  0  0  0  0
   55.3680   29.4170   44.8330 O   0  0  0  0  0  0  0  0  0  0  0  0
   55.9990   27.4530   45.6190 N   0  0  0  0  0  0  0  0  0  0  0  0
   56.6310   26.3340   46.0190 C   0  0  0  0  0  0  0  0  0  0  0  0
   55.8490   25.4130   46.5240 N   0  0  0  0  0  0  0  0  0  0  0  0
   55.0320   24.3740   45.8900 C   0  0  0  0  0  0  0  0  0  0  0  0
   55.8670   23.4770   45.0110 C   0  0  0  0  0  0  0  0  0  0  0  0
   56.7930   22.5840   45.5800 C   0  0  0  0  0  0  0  0  0  0  0  0
   57.5450   21.7340   44.7650 C   0  0  0  0  0  0  0  0  0  0  0  0
   57.3690   21.7560   43.3780 C   0  0  0  0  0  0  0  0  0  0  0  0
   56.4370   22.6250   42.8060 C   0  0  0  0  0  0  0  0  0  0  0  0
   55.6820   23.4760   43.6180 C   0  0  0  0  0  0  0  0  0  0  0  0
   58.8467   30.7555   44.3916 H   0  0  0  0  0  0  0  0  0  0  0  0
   57.4185   30.5254   43.3092 H   0  0  0  0  0  0  0  0  0  0  0  0
   58.3787   32.6967   44.2807 H   0  0  0  0  0  0  0  0  0  0  0  0
   56.6756   33.2601   44.3450 H   0  0  0  0  0  0  0  0  0  0  0  0
   56.8621   33.9997   46.5058 H   0  0  0  0  0  0  0  0  0  0  0  0
   57.9507   32.6386   46.9767 H   0  0  0  0  0  0  0  0  0  0  0  0
   54.5562   23.7654   46.6731 H   0  0  0  0  0  0  0  0  0  0  0  0
   54.2737   24.8650   45.2624 H   0  0  0  0  0  0  0  0  0  0  0  0
   56.9257   22.5547   46.6716 H   0  0  0  0  0  0  0  0  0  0  0  0
   58.2764   21.0466   45.2151 H   0  0  0  0  0  0  0  0  0  0  0  0
   57.9645   21.0890   42.7374 H   0  0  0  0  0  0  0  0  0  0  0  0
   56.2970   22.6396   41.7150 H   0  0  0  0  0  0  0  0  0  0  0  0
   54.9391   24.1485   43.1643 H   0  0  0  0  0  0  0  0  0  0  0  0
  1  2  2  0
  2  3  1  0
  3  4  1  0
  4  5  2  0
  4  6  1  0
  6  7  1  0
  7  8  1  0
  8  9  1  0
  9 10  1  0
 10 11  1  0
  6 12  1  0
 12 13  2  0
 12 14  1  0
 14 15  1  0
 15 16  2  3
 16 17  1  0
 17 18  1  0
 18 19  2  0
 19 20  1  0
 20 21  2  0
 21 22  1  0
 22 23  2  0
 15  2  1  0
 23 18  1  0
  7 24  1  0
  7 25  1  0
  9 26  1  0
  9 27  1  0
 10 28  1  0
 10 29  1  0
 17 30  1  0
 17 31  1  0
 19 32  1  0
 20 33  1  0
 21 34  1  0
 22 35  1  0
 23 36  1  0
M  CHG  2   3  -1  14  -1
M  END
>  <UniqueID>  (62) 
60

>  <SMILES>  (62) 
O=c1[n-]c(=O)n(COCCBr)c(=O)[n-]c1=NCc1ccccc1

>  <Energy>  (62) 
78.05490334446084

>  <Genealogy>  (62) 
O=c1[n-]c(=O)n(COCCBr)c(=O)[n-]c1=NCc1ccccc1 (protonated)
O=c1[n-]c(=O)n(COCCBr)c(=O)[n-]c1=NCc1ccccc1 (3D coordinates assigned)
O=c1[n-]c(=O)n(COCCBr)c(=O)[n-]c1=NCc1ccccc1 (optimized conformer: 78.05490334446084 kcal/mol)

>  <smiles>  (62) 
O=c1[nH]c(=O)n(COCCBr)c(=O)[nH]c1=NCc1ccccc1

>  <score_type>  (62) 
oracle

>  <origin>  (62) 
adg

>  <m_score__min__energy>  (62) 
-10.029999999999999

>  <m_primary>  (62) 
energy

$$$$
62:0
     RDKit          3D

 30 31  0  0  0  0  0  0  0  0999 V2000
   55.1460   29.7610   44.8040 N   0  0  0  0  0  0  0  0  0  0  0  0
   56.4980   29.3180   44.8960 C   0  0  0  0  0  0  0  0  0  0  0  0
   57.4030   29.9890   44.3320 O   0  0  0  0  0  0  0  0  0  0  0  0
   56.8080   28.0630   45.6190 C   0  0  0  0  0  0  0  0  0  0  0  0
   55.8450   27.1020   45.6700 N   0  0  0  0  0  0  0  0  0  0  0  0
   56.0590   25.9100   46.2810 C   0  0  0  0  0  0  0  0  0  0  0  0
   55.1460   25.0450   46.3050 O   0  0  0  0  0  0  0  0  0  0  0  0
   57.2540   25.6490   46.8630 N   0  0  0  0  0  0  0  0  0  0  0  0
   58.2540   26.5670   46.8510 C   0  0  0  0  0  0  0  0  0  0  0  0
   59.3410   26.3030   47.4300 O   0  0  0  0  0  0  0  0  0  0  0  0
   58.0620   27.8090   46.2210 C   0  0  0  0  0  0  0  0  0  0  0  0
   59.0920   28.8080   46.2600 N   0  0  0  0  0  0  0  0  0  0  0  0
   59.2770   29.6810   47.3840 C   0  0  0  0  0  0  0  0  0  0  0  0
   58.5380   29.5780   48.4000 O   0  0  0  0  0  0  0  0  0  0  0  0
   60.4020   30.6690   47.3860 C   0  0  0  0  0  0  0  0  0  0  0  0
   59.9280   31.9890   46.8450 C   0  0  0  0  0  0  0  0  0  0  0  0
   60.7940   33.0950   46.8050 C   0  0  0  0  0  0  0  0  0  0  0  0
   60.3370   34.3310   46.3400 C   0  0  0  0  0  0  0  0  0  0  0  0
   59.0110   34.4760   45.9200 C   0  0  0  0  0  0  0  0  0  0  0  0
   58.1410   33.3830   45.9660 C   0  0  0  0  0  0  0  0  0  0  0  0
   58.5940   32.1450   46.4310 C   0  0  0  0  0  0  0  0  0  0  0  0
   54.4040   29.3480   45.4110 H   0  0  0  0  0  0  0  0  0  0  0  0
   59.7830   28.8400   45.4770 H   0  0  0  0  0  0  0  0  0  0  0  0
   60.7644   30.8062   48.4155 H   0  0  0  0  0  0  0  0  0  0  0  0
   61.2165   30.2901   46.7511 H   0  0  0  0  0  0  0  0  0  0  0  0
   61.8359   32.9874   47.1411 H   0  0  0  0  0  0  0  0  0  0  0  0
   61.0215   35.1914   46.3043 H   0  0  0  0  0  0  0  0  0  0  0  0
   58.6530   35.4495   45.5537 H   0  0  0  0  0  0  0  0  0  0  0  0
   57.0980   33.4972   45.6357 H   0  0  0  0  0  0  0  0  0  0  0  0
   57.9037   31.2896   46.4730 H   0  0  0  0  0  0  0  0  0  0  0  0
  1  2  1  0
  2  3  2  0
  2  4  1  0
  4  5  1  0
  5  6  1  0
  6  7  2  0
  6  8  1  0
  8  9  1  0
  9 10  2  0
  9 11  1  0
 11 12  1  0
 12 13  1  0
 13 14  2  0
 13 15  1  0
 15 16  1  0
 16 17  2  0
 17 18  1  0
 18 19  2  0
 19 20  1  0
 20 21  2  0
 11  4  2  0
 21 16  1  0
  1 22  1  0
 12 23  1  0
 15 24  1  0
 15 25  1  0
 17 26  1  0
 18 27  1  0
 19 28  1  0
 20 29  1  0
 21 30  1  0
M  CHG  3   1  -1   5  -1   8  -1
M  END
>  <UniqueID>  (63) 
61

>  <SMILES>  (63) 
[NH-]C(=O)c1[n-]c(=O)[n-]c(=O)c1NC(=O)Cc1ccccc1

>  <Energy>  (63) 
36.37840520036508

>  <Genealogy>  (63) 
[NH-]C(=O)c1[n-]c(=O)[n-]c(=O)c1NC(=O)Cc1ccccc1 (protonated)
[NH-]C(=O)c1[n-]c(=O)[n-]c(=O)c1NC(=O)Cc1ccccc1 (3D coordinates assigned)
[NH-]C(=O)c1[n-]c(=O)[n-]c(=O)c1NC(=O)Cc1ccccc1 (optimized conformer: 36.37840520036508 kcal/mol)

>  <smiles>  (63) 
NC(=O)c1[nH]c(=O)[nH]c(=O)c1NC(=O)Cc1ccccc1

>  <score_type>  (63) 
oracle

>  <origin>  (63) 
adg

>  <m_score__min__energy>  (63) 
-13.69

>  <m_primary>  (63) 
energy

$$$$
63:0
     RDKit          3D

 50 54  0  0  0  0  0  0  0  0999 V2000
   58.8200   23.4670   45.7696 H   0  0  0  0  0  0  0  0  0  0  0  0
   57.9060   24.0790   45.7790 C   0  0  0  0  0  0  0  0  0  0  0  0
   57.9450   25.3510   46.2550 N   0  0  0  0  0  0  0  0  0  0  0  0
   56.8490   26.1580   46.2900 C   0  0  0  0  0  0  0  0  0  0  0  0
   57.0050   27.3680   46.7540 N   0  0  0  0  0  0  0  0  0  0  0  0
   57.9890   28.3550   46.4100 C   0  0  0  0  0  0  0  0  0  0  0  0
   59.1100   28.3560   46.9870 O   0  0  0  0  0  0  0  0  0  0  0  0
   57.6480   29.4260   45.4440 C   0  0  0  0  0  0  0  0  0  0  0  0
   56.8350   29.1060   44.3410 C   0  0  0  0  0  0  0  0  0  0  0  0
   56.4086   28.0958   44.2538 H   0  0  0  0  0  0  0  0  0  0  0  0
   56.5640   30.0580   43.3560 C   0  0  0  0  0  0  0  0  0  0  0  0
   55.9250   29.7958   42.4999 H   0  0  0  0  0  0  0  0  0  0  0  0
   57.1020   31.3400   43.4560 C   0  0  0  0  0  0  0  0  0  0  0  0
   56.8997   32.0836   42.6710 H   0  0  0  0  0  0  0  0  0  0  0  0
   57.8970   31.6810   44.5510 C   0  0  0  0  0  0  0  0  0  0  0  0
   58.3226   32.6928   44.6217 H   0  0  0  0  0  0  0  0  0  0  0  0
   58.1580   30.7450   45.5620 C   0  0  0  0  0  0  0  0  0  0  0  0
   58.9150   31.1680   46.7050 N   0  0  0  0  0  0  0  0  0  0  0  0
   59.7270   30.5780   46.9990 H   0  0  0  0  0  0  0  0  0  0  0  0
   58.7990   32.4900   47.2520 C   0  0  0  0  0  0  0  0  0  0  0  0
   57.9980   33.3200   46.7400 O   0  0  0  0  0  0  0  0  0  0  0  0
   59.6570   32.9090   48.4190 C   0  0  0  0  0  0  0  0  0  0  0  0
   59.4198   33.9352   48.7363 H   0  0  0  0  0  0  0  0  0  0  0  0
   61.1130   32.9030   48.0010 C   0  0  0  0  0  0  0  0  0  0  0  0
   61.5930   33.8820   47.1150 C   0  0  0  0  0  0  0  0  0  0  0  0
   60.9287   34.6937   46.7835 H   0  0  0  0  0  0  0  0  0  0  0  0
   62.9110   33.8290   46.6530 C   0  0  0  0  0  0  0  0  0  0  0  0
   63.2804   34.5984   45.9591 H   0  0  0  0  0  0  0  0  0  0  0  0
   63.7600   32.8020   47.0700 C   0  0  0  0  0  0  0  0  0  0  0  0
   64.7941   32.7576   46.6977 H   0  0  0  0  0  0  0  0  0  0  0  0
   63.2950   31.8300   47.9610 C   0  0  0  0  0  0  0  0  0  0  0  0
   63.9658   31.0226   48.2899 H   0  0  0  0  0  0  0  0  0  0  0  0
   61.9800   31.8800   48.4360 C   0  0  0  0  0  0  0  0  0  0  0  0
   61.5470   30.9260   49.3580 O   0  0  0  0  0  0  0  0  0  0  0  0
   60.3000   31.0110   49.9810 C   0  0  0  0  0  0  0  0  0  0  0  0
   59.9850   30.1180   51.0120 C   0  0  0  0  0  0  0  0  0  0  0  0
   60.7066   29.3408   51.3040 H   0  0  0  0  0  0  0  0  0  0  0  0
   58.7570   30.2110   51.6710 C   0  0  0  0  0  0  0  0  0  0  0  0
   58.5138   29.5076   52.4810 H   0  0  0  0  0  0  0  0  0  0  0  0
   57.8370   31.1960   51.3030 C   0  0  0  0  0  0  0  0  0  0  0  0
   56.8737   31.2722   51.8286 H   0  0  0  0  0  0  0  0  0  0  0  0
   58.1400   32.0850   50.2670 C   0  0  0  0  0  0  0  0  0  0  0  0
   57.4107   32.8553   49.9758 H   0  0  0  0  0  0  0  0  0  0  0  0
   59.3720   31.9990   49.5960 C   0  0  0  0  0  0  0  0  0  0  0  0
   55.6030   25.6300   45.8570 C   0  0  0  0  0  0  0  0  0  0  0  0
   54.4110   26.3350   45.9740 O   0  0  0  0  0  0  0  0  0  0  0  0
   55.5550   24.3290   45.3470 C   0  0  0  0  0  0  0  0  0  0  0  0
   54.6027   23.9192   44.9793 H   0  0  0  0  0  0  0  0  0  0  0  0
   56.7090   23.5500   45.3030 C   0  0  0  0  0  0  0  0  0  0  0  0
   56.6751   22.5283   44.8968 H   0  0  0  0  0  0  0  0  0  0  0  0
  1  2  1  0
  2  3  1  0
  3  4  1  0
  4  5  2  0
  5  6  1  0
  6  7  2  0
  6  8  1  0
  8  9  2  0
  9 10  1  0
  9 11  1  0
 11 12  1  0
 11 13  2  0
 13 14  1  0
 13 15  1  0
 15 16  1  0
 15 17  2  0
 17 18  1  0
 18 19  1  0
 18 20  1  0
 20 21  2  0
 20 22  1  0
 22 23  1  0
 22 24  1  0
 24 25  2  0
 25 26  1  0
 25 27  1  0
 27 28  1  0
 27 29  2  0
 29 30  1  0
 29 31  1  0
 31 32  1  0
 31 33  2  0
 33 34  1  0
 34 35  1  0
 35 36  2  0
 36 37  1  0
 36 38  1  0
 38 39  1  0
 38 40  2  0
 40 41  1  0
 40 42  1  0
 42 43  1  0
 42 44  2  0
  4 45  1  0
 45 46  1  0
 45 47  2  0
 47 48  1  0
 47 49  1  0
 49 50  1  0
 49  2  2  0
 17  8  1  0
 44 22  1  0
 33 24  1  0
 44 35  1  0
M  CHG  2   3  -1  46  -1
M  END
>  <UniqueID>  (64) 
62

>  <SMILES>  (64) 
O=C(/N=c1/[n-]cccc1[O-])c1ccccc1NC(=O)C1c2ccccc2Oc2ccccc21

>  <Energy>  (64) 
80.25152209299993

>  <Genealogy>  (64) 
O=C(N=c1[n-]cccc1[O-])c1ccccc1NC(=O)C1c2ccccc2Oc2ccccc21 (protonated)
O=C(/N=c1/[n-]cccc1[O-])c1ccccc1NC(=O)C1c2ccccc2Oc2ccccc21 (cis-trans isomerization)
O=C(/N=c1/[n-]cccc1[O-])c1ccccc1NC(=O)C1c2ccccc2Oc2ccccc21 (3D coordinates assigned)
O=C(/N=c1/[n-]cccc1[O-])c1ccccc1NC(=O)C1c2ccccc2Oc2ccccc21 (nonaromatic ring conformer: 80.25152209299993 kcal/mol)

>  <smiles>  (64) 
O=C(N=c1[nH]cccc1O)c1ccccc1NC(=O)C1c2ccccc2Oc2ccccc21

>  <score_type>  (64) 
oracle

>  <origin>  (64) 
adg

>  <m_score__min__energy>  (64) 
-14.94

>  <m_primary>  (64) 
energy

$$$$
64:0
     RDKit          3D

 35 37  0  0  0  0  0  0  0  0999 V2000
   58.5070   34.7990   45.3190 O   0  0  0  0  0  0  0  0  0  0  0  0
   58.3770   33.5810   45.6200 C   0  0  0  0  0  0  0  0  0  0  0  0
   58.6920   33.1270   46.9440 N   0  0  0  0  0  0  0  0  0  0  0  0
   59.2320   34.0170   47.9690 C   0  0  0  0  0  0  0  0  0  0  0  0
   60.7220   33.8980   48.0240 C   0  0  0  0  0  0  0  0  0  0  0  0
   61.5090   34.0700   49.1560 C   0  0  0  0  0  0  0  0  0  0  0  0
   62.8720   33.8590   48.9150 C   0  0  0  0  0  0  0  0  0  0  0  0
   63.1590   33.5180   47.6000 C   0  0  0  0  0  0  0  0  0  0  0  0
   61.7170   33.4760   46.7360 S   0  0  0  0  0  0  0  0  0  0  0  0
   57.9030   32.6270   44.6060 C   0  0  0  0  0  0  0  0  0  0  0  0
   58.1240   32.7160   43.2430 C   0  0  0  0  0  0  0  0  0  0  0  0
   57.5100   31.6130   42.6910 C   0  0  0  0  0  0  0  0  0  0  0  0
   56.9540   30.9240   43.7530 C   0  0  0  0  0  0  0  0  0  0  0  0
   56.2010   29.6360   43.6620 C   0  0  0  0  0  0  0  0  0  0  0  0
   56.2890   28.7320   45.2450 S   0  0  0  0  0  0  0  0  0  0  0  0
   58.0220   29.0880   45.5220 C   0  0  0  0  0  0  0  0  0  0  0  0
   58.3910   29.9060   46.5430 N   0  0  0  0  0  0  0  0  0  0  0  0
   59.6990   30.1990   46.7630 C   0  0  0  0  0  0  0  0  0  0  0  0
   60.6820   29.6540   45.9380 C   0  0  0  0  0  0  0  0  0  0  0  0
   60.2840   28.8130   44.8990 C   0  0  0  0  0  0  0  0  0  0  0  0
   58.9660   28.5450   44.7100 N   0  0  0  0  0  0  0  0  0  0  0  0
   57.2040   31.5500   44.8790 O   0  0  0  0  0  0  0  0  0  0  0  0
   58.5340   32.1250   47.1940 H   0  0  0  0  0  0  0  0  0  0  0  0
   58.9591   35.0552   47.7291 H   0  0  0  0  0  0  0  0  0  0  0  0
   58.8132   33.7347   48.9462 H   0  0  0  0  0  0  0  0  0  0  0  0
   61.1028   34.3439   50.1409 H   0  0  0  0  0  0  0  0  0  0  0  0
   63.6428   33.9544   49.6940 H   0  0  0  0  0  0  0  0  0  0  0  0
   64.1595   33.3106   47.1927 H   0  0  0  0  0  0  0  0  0  0  0  0
   58.6759   33.5044   42.7102 H   0  0  0  0  0  0  0  0  0  0  0  0
   57.4704   31.3378   41.6267 H   0  0  0  0  0  0  0  0  0  0  0  0
   55.1482   29.8481   43.4241 H   0  0  0  0  0  0  0  0  0  0  0  0
   56.6503   29.0159   42.8723 H   0  0  0  0  0  0  0  0  0  0  0  0
   59.9823   30.8654   47.5910 H   0  0  0  0  0  0  0  0  0  0  0  0
   61.7455   29.8818   46.1026 H   0  0  0  0  0  0  0  0  0  0  0  0
   61.0372   28.3670   44.2329 H   0  0  0  0  0  0  0  0  0  0  0  0
  1  2  2  0
  2  3  1  0
  3  4  1  0
  4  5  1  0
  5  6  2  0
  6  7  1  0
  7  8  2  0
  8  9  1  0
  2 10  1  0
 10 11  2  0
 11 12  1  0
 12 13  2  0
 13 14  1  0
 14 15  1  0
 15 16  1  0
 16 17  2  0
 17 18  1  0
 18 19  2  0
 19 20  1  0
 20 21  2  0
 13 22  1  0
  9  5  1  0
 22 10  1  0
 21 16  1  0
  3 23  1  0
  4 24  1  0
  4 25  1  0
  6 26  1  0
  7 27  1  0
  8 28  1  0
 11 29  1  0
 12 30  1  0
 14 31  1  0
 14 32  1  0
 18 33  1  0
 19 34  1  0
 20 35  1  0
M  END
>  <UniqueID>  (65) 
63

>  <SMILES>  (65) 
O=C(NCc1cccs1)c1ccc(CSc2ncccn2)o1

>  <Energy>  (65) 
80.61762056246863

>  <Genealogy>  (65) 
O=C(NCc1cccs1)c1ccc(CSc2ncccn2)o1 (3D coordinates assigned)
O=C(NCc1cccs1)c1ccc(CSc2ncccn2)o1 (optimized conformer: 80.61762056246863 kcal/mol)

>  <smiles>  (65) 
O=C(NCc1cccs1)c1ccc(CSc2ncccn2)o1

>  <score_type>  (65) 
oracle

>  <origin>  (65) 
adg

>  <m_score__min__energy>  (65) 
-8.0899999999999999

>  <m_primary>  (65) 
energy

$$$$
65:0
     RDKit          3D

 63 66  0  0  0  0  0  0  0  0999 V2000
   55.1490   29.1210   54.8020 C   0  0  0  0  0  0  0  0  0  0  0  0
   56.2090   29.2280   53.8020 N   0  0  0  0  0  0  0  0  0  0  0  0
   57.4300   28.4370   53.9620 C   0  0  0  0  0  0  0  0  0  0  0  0
   55.9670   29.9800   52.6020 C   0  0  0  0  0  0  0  0  0  0  0  0
   54.8800   29.8100   51.9850 O   0  0  0  0  0  0  0  0  0  0  0  0
   56.9450   30.9780   52.0960 C   0  0  0  0  0  0  0  0  0  0  0  0
   57.0810   32.2210   52.7410 C   0  0  0  0  0  0  0  0  0  0  0  0
   58.0530   33.1320   52.3260 C   0  0  0  0  0  0  0  0  0  0  0  0
   58.9000   32.8230   51.2610 C   0  0  0  0  0  0  0  0  0  0  0  0
   58.7630   31.5990   50.5730 C   0  0  0  0  0  0  0  0  0  0  0  0
   59.6390   31.2200   49.4900 N   0  0  0  0  0  0  0  0  0  0  0  0
   59.4010   30.1730   48.5360 C   0  0  0  0  0  0  0  0  0  0  0  0
   58.4950   29.3180   48.7230 O   0  0  0  0  0  0  0  0  0  0  0  0
   60.2470   30.0810   47.3840 N   0  0  0  0  0  0  0  0  0  0  0  0
   60.4330   31.1460   46.4040 C   0  0  0  0  0  0  0  0  0  0  0  0
   59.1920   31.9940   46.2540 C   0  0  0  0  0  0  0  0  0  0  0  0
   58.8750   32.9160   47.2710 C   0  0  0  0  0  0  0  0  0  0  0  0
   57.7900   33.7830   47.1310 C   0  0  0  0  0  0  0  0  0  0  0  0
   57.0200   33.7580   45.9690 C   0  0  0  0  0  0  0  0  0  0  0  0
   57.3210   32.8500   44.9530 C   0  0  0  0  0  0  0  0  0  0  0  0
   58.3800   31.9410   45.0950 C   0  0  0  0  0  0  0  0  0  0  0  0
   58.6980   30.7780   43.7520 S   0  0  0  0  0  0  0  0  0  0  0  0
   57.8870   29.4000   44.5730 C   0  0  0  0  0  0  0  0  0  0  0  0
   58.6470   28.3860   45.1650 C   0  0  0  0  0  0  0  0  0  0  0  0
   58.0120   27.3020   45.7740 C   0  0  0  0  0  0  0  0  0  0  0  0
   56.6140   27.2500   45.8020 C   0  0  0  0  0  0  0  0  0  0  0  0
   56.0280   26.2220   46.3460 N   0  0  0  0  0  0  0  0  0  0  0  0
   55.3130   25.1740   45.6680 C   0  0  0  0  0  0  0  0  0  0  0  0
   54.0510   25.1630   45.6580 O   0  0  0  0  0  0  0  0  0  0  0  0
   56.0630   24.0970   44.9790 C   0  0  0  0  0  0  0  0  0  0  0  0
   55.7510   23.7410   43.6510 C   0  0  0  0  0  0  0  0  0  0  0  0
   56.4400   22.7030   43.0150 C   0  0  0  0  0  0  0  0  0  0  0  0
   57.4420   22.0060   43.6960 C   0  0  0  0  0  0  0  0  0  0  0  0
   57.7660   22.3540   45.0100 C   0  0  0  0  0  0  0  0  0  0  0  0
   57.0830   23.3960   45.6480 C   0  0  0  0  0  0  0  0  0  0  0  0
   55.8950   28.2700   45.2510 N   0  0  0  0  0  0  0  0  0  0  0  0
   56.4930   29.3330   44.6520 C   0  0  0  0  0  0  0  0  0  0  0  0
   57.7970   30.6780   51.0150 C   0  0  0  0  0  0  0  0  0  0  0  0
   55.5892   29.1654   55.8091 H   0  0  0  0  0  0  0  0  0  0  0  0
   54.4397   29.9521   54.6749 H   0  0  0  0  0  0  0  0  0  0  0  0
   54.6201   28.1649   54.6749 H   0  0  0  0  0  0  0  0  0  0  0  0
   57.6407   28.3005   55.0330 H   0  0  0  0  0  0  0  0  0  0  0  0
   57.2951   27.4542   53.4866 H   0  0  0  0  0  0  0  0  0  0  0  0
   58.2718   28.9618   53.4866 H   0  0  0  0  0  0  0  0  0  0  0  0
   56.4159   32.4766   53.5790 H   0  0  0  0  0  0  0  0  0  0  0  0
   58.1521   34.0989   52.8411 H   0  0  0  0  0  0  0  0  0  0  0  0
   59.6787   33.5376   50.9562 H   0  0  0  0  0  0  0  0  0  0  0  0
   60.5370   31.7460   49.3850 H   0  0  0  0  0  0  0  0  0  0  0  0
   61.2653   31.7875   46.7291 H   0  0  0  0  0  0  0  0  0  0  0  0
   60.6487   30.6809   45.4308 H   0  0  0  0  0  0  0  0  0  0  0  0
   59.4880   32.9530   48.1836 H   0  0  0  0  0  0  0  0  0  0  0  0
   57.5421   34.4872   47.9389 H   0  0  0  0  0  0  0  0  0  0  0  0
   56.1758   34.4536   45.8532 H   0  0  0  0  0  0  0  0  0  0  0  0
   56.7214   32.8470   44.0308 H   0  0  0  0  0  0  0  0  0  0  0  0
   59.7454   28.4426   45.1508 H   0  0  0  0  0  0  0  0  0  0  0  0
   58.6060   26.4952   46.2282 H   0  0  0  0  0  0  0  0  0  0  0  0
   54.9605   24.2831   43.1114 H   0  0  0  0  0  0  0  0  0  0  0  0
   56.1928   22.4348   41.9772 H   0  0  0  0  0  0  0  0  0  0  0  0
   57.9756   21.1834   43.1975 H   0  0  0  0  0  0  0  0  0  0  0  0
   58.5585   21.8086   45.5434 H   0  0  0  0  0  0  0  0  0  0  0  0
   57.3459   23.6690   46.6807 H   0  0  0  0  0  0  0  0  0  0  0  0
   55.8793   30.1419   44.2287 H   0  0  0  0  0  0  0  0  0  0  0  0
   57.7049   29.7062   50.5079 H   0  0  0  0  0  0  0  0  0  0  0  0
  1  2  1  0
  2  3  1  0
  2  4  1  0
  4  5  2  0
  4  6  1  0
  6  7  2  0
  7  8  1  0
  8  9  2  0
  9 10  1  0
 10 11  1  0
 11 12  1  0
 12 13  2  0
 12 14  1  0
 14 15  1  0
 15 16  1  0
 16 17  2  0
 17 18  1  0
 18 19  2  0
 19 20  1  0
 20 21  2  0
 21 22  1  0
 22 23  1  0
 23 24  1  0
 24 25  2  0
 25 26  1  0
 26 27  2  3
 27 28  1  0
 28 29  2  0
 28 30  1  0
 30 31  2  0
 31 32  1  0
 32 33  2  0
 33 34  1  0
 34 35  2  0
 26 36  1  0
 36 37  1  0
 10 38  2  0
 38  6  1  0
 21 16  1  0
 37 23  2  0
 35 30  1  0
  1 39  1  0
  1 40  1  0
  1 41  1  0
  3 42  1  0
  3 43  1  0
  3 44  1  0
  7 45  1  0
  8 46  1  0
  9 47  1  0
 11 48  1  0
 15 49  1  0
 15 50  1  0
 17 51  1  0
 18 52  1  0
 19 53  1  0
 20 54  1  0
 24 55  1  0
 25 56  1  0
 31 57  1  0
 32 58  1  0
 33 59  1  0
 34 60  1  0
 35 61  1  0
 37 62  1  0
 38 63  1  0
M  CHG  2  14  -1  36  -1
M  END
>  <UniqueID>  (66) 
64

>  <SMILES>  (66) 
CN(C)C(=O)c1cccc(NC(=O)[N-]Cc2ccccc2Sc2ccc(=NC(=O)c3ccccc3)[n-]c2)c1

>  <Energy>  (66) 
73.05134951252508

>  <Genealogy>  (66) 
CN(C)C(=O)c1cccc(NC(=O)[N-]Cc2ccccc2Sc2ccc(=NC(=O)c3ccccc3)[n-]c2)c1 (protonated)
CN(C)C(=O)c1cccc(NC(=O)[N-]Cc2ccccc2Sc2ccc(=NC(=O)c3ccccc3)[n-]c2)c1 (3D coordinates assigned)
CN(C)C(=O)c1cccc(NC(=O)[N-]Cc2ccccc2Sc2ccc(=NC(=O)c3ccccc3)[n-]c2)c1 (optimized conformer: 73.05134951252508 kcal/mol)

>  <smiles>  (66) 
CN(C)C(=O)c1cccc(NC(=O)NCc2ccccc2Sc2ccc(=NC(=O)c3ccccc3)[nH]c2)c1

>  <score_type>  (66) 
oracle

>  <origin>  (66) 
adg

>  <m_score__min__energy>  (66) 
-13.9

>  <m_primary>  (66) 
energy

$$$$
66:0
     RDKit          3D

 22 23  0  0  0  0  0  0  0  0999 V2000
   59.2100   28.2390   44.4920 O   0  0  0  0  0  0  0  0  0  0  0  0
   58.3080   29.1190   44.4930 C   0  0  0  0  0  0  0  0  0  0  0  0
   58.6520   30.4710   44.4880 C   0  0  0  0  0  0  0  0  0  0  0  0
   57.6260   31.4250   44.5070 C   0  0  0  0  0  0  0  0  0  0  0  0
   57.9140   32.8700   44.4510 C   0  0  0  0  0  0  0  0  0  0  0  0
   57.6800   33.7490   45.4370 C   0  0  0  0  0  0  0  0  0  0  0  0
   58.4250   33.8270   46.7090 C   0  0  0  0  0  0  0  0  0  0  0  0
   58.3640   32.8710   47.7150 C   0  0  0  0  0  0  0  0  0  0  0  0
   59.2540   33.1140   48.7690 C   0  0  0  0  0  0  0  0  0  0  0  0
   60.0380   34.2450   48.5880 C   0  0  0  0  0  0  0  0  0  0  0  0
   59.6280   34.9380   47.1130 S   0  0  0  0  0  0  0  0  0  0  0  0
   56.3320   31.0110   44.4770 N   0  0  0  0  0  0  0  0  0  0  0  0
   56.0130   29.6900   44.4790 C   0  0  0  0  0  0  0  0  0  0  0  0
   54.8030   29.3400   44.4650 O   0  0  0  0  0  0  0  0  0  0  0  0
   56.9970   28.7510   44.4950 N   0  0  0  0  0  0  0  0  0  0  0  0
   59.7071   30.7817   44.4695 H   0  0  0  0  0  0  0  0  0  0  0  0
   58.3579   33.2598   43.5231 H   0  0  0  0  0  0  0  0  0  0  0  0
   56.8650   34.4719   45.2850 H   0  0  0  0  0  0  0  0  0  0  0  0
   57.6832   32.0074   47.6867 H   0  0  0  0  0  0  0  0  0  0  0  0
   59.3250   32.4688   49.6571 H   0  0  0  0  0  0  0  0  0  0  0  0
   60.7968   34.6226   49.2891 H   0  0  0  0  0  0  0  0  0  0  0  0
   56.7440   27.7360   44.4980 H   0  0  0  0  0  0  0  0  0  0  0  0
  1  2  2  0
  2  3  1  0
  3  4  2  0
  4  5  1  0
  5  6  2  3
  6  7  1  0
  7  8  2  0
  8  9  1  0
  9 10  2  0
 10 11  1  0
  4 12  1  0
 12 13  1  0
 13 14  2  0
 13 15  1  0
 15  2  1  0
 11  7  1  0
  3 16  1  0
  5 17  1  0
  6 18  1  0
  8 19  1  0
  9 20  1  0
 10 21  1  0
 15 22  1  0
M  CHG  1  12  -1
M  END
>  <UniqueID>  (67) 
65

>  <SMILES>  (67) 
O=c1cc(C=Cc2cccs2)[n-]c(=O)[nH]1

>  <Energy>  (67) 
57.85047641480818

>  <Genealogy>  (67) 
O=c1cc(C=Cc2cccs2)[n-]c(=O)[nH]1 (protonated)
O=c1cc(C=Cc2cccs2)[n-]c(=O)[nH]1 (3D coordinates assigned)
O=c1cc(C=Cc2cccs2)[n-]c(=O)[nH]1 (optimized conformer: 57.85047641480818 kcal/mol)

>  <smiles>  (67) 
O=c1cc(C=Cc2cccs2)[nH]c(=O)[nH]1

>  <score_type>  (67) 
oracle

>  <origin>  (67) 
adg

>  <m_score__min__energy>  (67) 
-8.1400000000000006

>  <m_primary>  (67) 
energy

$$$$
67:0
     RDKit          3D

 38 40  0  0  0  0  0  0  0  0999 V2000
   54.3570   25.9660   45.6570 O   0  0  0  0  0  0  0  0  0  0  0  0
   55.5860   25.7310   45.7960 C   0  0  0  0  0  0  0  0  0  0  0  0
   56.3760   26.6440   46.5710 N   0  0  0  0  0  0  0  0  0  0  0  0
   57.6810   27.1410   46.2300 C   0  0  0  0  0  0  0  0  0  0  0  0
   58.8250   26.5920   46.8400 C   0  0  0  0  0  0  0  0  0  0  0  0
   60.0970   27.0690   46.5240 C   0  0  0  0  0  0  0  0  0  0  0  0
   60.2450   28.1070   45.6080 C   0  0  0  0  0  0  0  0  0  0  0  0
   59.1210   28.6790   45.0100 C   0  0  0  0  0  0  0  0  0  0  0  0
   57.8250   28.2150   45.3120 C   0  0  0  0  0  0  0  0  0  0  0  0
   56.6540   28.8600   44.6520 C   0  0  0  0  0  0  0  0  0  0  0  0
   55.5260   28.8690   45.2160 O   0  0  0  0  0  0  0  0  0  0  0  0
   56.7910   29.4060   43.3290 N   0  0  0  0  0  0  0  0  0  0  0  0
   56.9610   30.6540   42.9970 C   0  0  0  0  0  0  0  0  0  0  0  0
   57.3630   31.7230   43.9310 C   0  0  0  0  0  0  0  0  0  0  0  0
   58.1280   32.8390   43.6400 C   0  0  0  0  0  0  0  0  0  0  0  0
   58.1820   33.5680   44.8080 C   0  0  0  0  0  0  0  0  0  0  0  0
   57.4420   32.8630   45.7340 C   0  0  0  0  0  0  0  0  0  0  0  0
   56.9610   31.7740   45.1790 O   0  0  0  0  0  0  0  0  0  0  0  0
   56.1910   24.5680   45.1010 C   0  0  0  0  0  0  0  0  0  0  0  0
   57.5780   24.3490   45.1780 C   0  0  0  0  0  0  0  0  0  0  0  0
   58.1630   23.2620   44.5230 C   0  0  0  0  0  0  0  0  0  0  0  0
   57.3720   22.3860   43.7790 C   0  0  0  0  0  0  0  0  0  0  0  0
   55.9940   22.5960   43.6850 C   0  0  0  0  0  0  0  0  0  0  0  0
   55.3970   23.6820   44.3420 C   0  0  0  0  0  0  0  0  0  0  0  0
   54.0180   23.8700   44.2530 O   0  0  0  0  0  0  0  0  0  0  0  0
   58.7146   25.7791   47.5728 H   0  0  0  0  0  0  0  0  0  0  0  0
   60.9841   26.6247   46.9990 H   0  0  0  0  0  0  0  0  0  0  0  0
   61.2496   28.4770   45.3551 H   0  0  0  0  0  0  0  0  0  0  0  0
   59.2485   29.5034   44.2930 H   0  0  0  0  0  0  0  0  0  0  0  0
   56.7929   30.9305   41.9457 H   0  0  0  0  0  0  0  0  0  0  0  0
   58.5956   33.0915   42.6768 H   0  0  0  0  0  0  0  0  0  0  0  0
   58.7089   34.5200   44.9693 H   0  0  0  0  0  0  0  0  0  0  0  0
   57.2793   33.1666   46.7787 H   0  0  0  0  0  0  0  0  0  0  0  0
   58.2077   25.0391   45.7587 H   0  0  0  0  0  0  0  0  0  0  0  0
   59.2482   23.0968   44.5941 H   0  0  0  0  0  0  0  0  0  0  0  0
   57.8337   21.5294   43.2661 H   0  0  0  0  0  0  0  0  0  0  0  0
   55.3743   21.9064   43.0930 H   0  0  0  0  0  0  0  0  0  0  0  0
   53.5860   24.7610   44.4760 H   0  0  0  0  0  0  0  0  0  0  0  0
  1  2  2  0
  2  3  1  0
  3  4  1  0
  4  5  2  0
  5  6  1  0
  6  7  2  0
  7  8  1  0
  8  9  2  0
  9 10  1  0
 10 11  2  0
 10 12  1  0
 12 13  2  3
 13 14  1  0
 14 15  2  0
 15 16  1  0
 16 17  2  0
 17 18  1  0
  2 19  1  0
 19 20  2  0
 20 21  1  0
 21 22  2  0
 22 23  1  0
 23 24  2  0
 24 25  1  0
  9  4  1  0
 18 14  1  0
 24 19  1  0
  5 26  1  0
  6 27  1  0
  7 28  1  0
  8 29  1  0
 13 30  1  0
 15 31  1  0
 16 32  1  0
 17 33  1  0
 20 34  1  0
 21 35  1  0
 22 36  1  0
 23 37  1  0
 25 38  1  0
M  CHG  1   3  -1
M  END
>  <UniqueID>  (68) 
66

>  <SMILES>  (68) 
O=C([N-]c1ccccc1C(=O)N=Cc1ccco1)c1ccccc1O

>  <Energy>  (68) 
86.22894790119089

>  <Genealogy>  (68) 
O=C([N-]c1ccccc1C(=O)N=Cc1ccco1)c1ccccc1O (protonated)
O=C([N-]c1ccccc1C(=O)N=Cc1ccco1)c1ccccc1O (3D coordinates assigned)
O=C([N-]c1ccccc1C(=O)N=Cc1ccco1)c1ccccc1O (optimized conformer: 86.22894790119089 kcal/mol)

>  <smiles>  (68) 
O=C(Nc1ccccc1C(=O)N=Cc1ccco1)c1ccccc1O

>  <score_type>  (68) 
oracle

>  <origin>  (68) 
adg

>  <m_score__min__energy>  (68) 
-10.01

>  <m_primary>  (68) 
energy

$$$$
68:0
     RDKit          3D

 43 45  0  0  0  0  0  0  0  0999 V2000
   58.2350   32.3230   49.4290 C   0  0  0  0  0  0  0  0  0  0  0  0
   58.3000   32.1700   48.0140 O   0  0  0  0  0  0  0  0  0  0  0  0
   58.7140   33.1750   47.1200 C   0  0  0  0  0  0  0  0  0  0  0  0
   59.1980   34.4160   47.5740 C   0  0  0  0  0  0  0  0  0  0  0  0
   59.6260   35.3850   46.6620 C   0  0  0  0  0  0  0  0  0  0  0  0
   59.5890   35.1250   45.2920 C   0  0  0  0  0  0  0  0  0  0  0  0
   59.1110   33.9030   44.8280 C   0  0  0  0  0  0  0  0  0  0  0  0
   58.6560   32.9270   45.7310 C   0  0  0  0  0  0  0  0  0  0  0  0
   58.1480   31.6360   45.2080 C   0  0  0  0  0  0  0  0  0  0  0  0
   56.9120   31.5420   44.5480 C   0  0  0  0  0  0  0  0  0  0  0  0
   56.6260   30.2680   44.0730 C   0  0  0  0  0  0  0  0  0  0  0  0
   57.9050   29.2570   44.4750 S   0  0  0  0  0  0  0  0  0  0  0  0
   58.8320   30.4150   45.2660 C   0  0  0  0  0  0  0  0  0  0  0  0
   60.1200   30.1260   45.9210 C   0  0  0  0  0  0  0  0  0  0  0  0
   60.9290   29.3290   45.3650 O   0  0  0  0  0  0  0  0  0  0  0  0
   60.4450   30.7080   47.1890 N   0  0  0  0  0  0  0  0  0  0  0  0
   61.8300   30.8190   47.6470 C   0  0  0  0  0  0  0  0  0  0  0  0
   61.9970   32.0490   48.5090 C   0  0  0  0  0  0  0  0  0  0  0  0
   61.4200   32.0560   49.7930 C   0  0  0  0  0  0  0  0  0  0  0  0
   61.5960   33.1460   50.6460 C   0  0  0  0  0  0  0  0  0  0  0  0
   62.3420   34.2470   50.2260 C   0  0  0  0  0  0  0  0  0  0  0  0
   62.9260   34.2570   48.9580 C   0  0  0  0  0  0  0  0  0  0  0  0
   62.7830   33.1560   48.0940 C   0  0  0  0  0  0  0  0  0  0  0  0
   63.4280   33.2030   46.7310 C   0  0  0  0  0  0  0  0  0  0  0  0
   58.6210   31.4144   49.9142 H   0  0  0  0  0  0  0  0  0  0  0  0
   58.8436   33.1876   49.7327 H   0  0  0  0  0  0  0  0  0  0  0  0
   57.1903   32.4852   49.7327 H   0  0  0  0  0  0  0  0  0  0  0  0
   59.2398   34.6248   48.6532 H   0  0  0  0  0  0  0  0  0  0  0  0
   59.9933   36.3559   47.0259 H   0  0  0  0  0  0  0  0  0  0  0  0
   59.9377   35.8859   44.5783 H   0  0  0  0  0  0  0  0  0  0  0  0
   59.0892   33.6998   43.7472 H   0  0  0  0  0  0  0  0  0  0  0  0
   56.2331   32.3978   44.4190 H   0  0  0  0  0  0  0  0  0  0  0  0
   55.7178   29.9725   43.5273 H   0  0  0  0  0  0  0  0  0  0  0  0
   59.6740   31.0930   47.7800 H   0  0  0  0  0  0  0  0  0  0  0  0
   62.0916   29.9259   48.2335 H   0  0  0  0  0  0  0  0  0  0  0  0
   62.4921   30.9007   46.7724 H   0  0  0  0  0  0  0  0  0  0  0  0
   60.8245   31.1936   50.1271 H   0  0  0  0  0  0  0  0  0  0  0  0
   61.1463   33.1370   51.6499 H   0  0  0  0  0  0  0  0  0  0  0  0
   62.4706   35.1100   50.8958 H   0  0  0  0  0  0  0  0  0  0  0  0
   63.5036   35.1343   48.6313 H   0  0  0  0  0  0  0  0  0  0  0  0
   64.5193   33.2825   46.8443 H   0  0  0  0  0  0  0  0  0  0  0  0
   63.1828   32.2846   46.1774 H   0  0  0  0  0  0  0  0  0  0  0  0
   63.0522   34.0761   46.1774 H   0  0  0  0  0  0  0  0  0  0  0  0
  1  2  1  0
  2  3  1  0
  3  4  2  0
  4  5  1  0
  5  6  2  0
  6  7  1  0
  7  8  2  0
  8  9  1  0
  9 10  1  0
 10 11  2  0
 11 12  1  0
 12 13  1  0
 13 14  1  0
 14 15  2  0
 14 16  1  0
 16 17  1  0
 17 18  1  0
 18 19  2  0
 19 20  1  0
 20 21  2  0
 21 22  1  0
 22 23  2  0
 23 24  1  0
  8  3  1  0
 13  9  2  0
 23 18  1  0
  1 25  1  0
  1 26  1  0
  1 27  1  0
  4 28  1  0
  5 29  1  0
  6 30  1  0
  7 31  1  0
 10 32  1  0
 11 33  1  0
 16 34  1  0
 17 35  1  0
 17 36  1  0
 19 37  1  0
 20 38  1  0
 21 39  1  0
 22 40  1  0
 24 41  1  0
 24 42  1  0
 24 43  1  0
M  END
>  <UniqueID>  (69) 
67

>  <SMILES>  (69) 
COc1ccccc1-c1ccsc1C(=O)NCc1ccccc1C

>  <Energy>  (69) 
75.16923436703519

>  <Genealogy>  (69) 
COc1ccccc1-c1ccsc1C(=O)NCc1ccccc1C (3D coordinates assigned)
COc1ccccc1-c1ccsc1C(=O)NCc1ccccc1C (optimized conformer: 75.16923436703519 kcal/mol)

>  <smiles>  (69) 
COc1ccccc1-c1ccsc1C(=O)NCc1ccccc1C

>  <score_type>  (69) 
oracle

>  <origin>  (69) 
adg

>  <m_score__min__energy>  (69) 
-7.5300000000000002

>  <m_primary>  (69) 
energy

$$$$
69:0
     RDKit          3D

 36 38  0  0  0  0  0  0  0  0999 V2000
   52.1460   26.7230   52.9860 O   0  0  0  0  0  0  0  0  0  0  0  0
   53.1320   27.0330   53.7070 C   0  0  0  0  0  0  0  0  0  0  0  0
   53.7540   25.9930   54.5890 C   0  0  0  0  0  0  0  0  0  0  0  0
   55.1720   25.6730   54.1170 C   0  0  0  0  0  0  0  0  0  0  0  0
   56.4070   26.2250   55.3460 S   0  0  0  0  0  0  0  0  0  0  0  0
   56.5060   27.9020   54.7240 C   0  0  0  0  0  0  0  0  0  0  0  0
   56.2090   28.9460   55.5420 N   0  0  0  0  0  0  0  0  0  0  0  0
   56.2740   30.2290   55.1010 C   0  0  0  0  0  0  0  0  0  0  0  0
   55.9930   31.1700   55.8890 O   0  0  0  0  0  0  0  0  0  0  0  0
   56.6540   30.4880   53.7730 C   0  0  0  0  0  0  0  0  0  0  0  0
   56.7470   31.7840   53.2430 C   0  0  0  0  0  0  0  0  0  0  0  0
   57.1290   31.9610   51.9120 C   0  0  0  0  0  0  0  0  0  0  0  0
   57.4140   30.8430   51.1230 C   0  0  0  0  0  0  0  0  0  0  0  0
   57.3200   29.5920   51.6490 N   0  0  0  0  0  0  0  0  0  0  0  0
   56.9510   29.3890   52.9430 C   0  0  0  0  0  0  0  0  0  0  0  0
   56.8690   28.1260   53.4340 N   0  0  0  0  0  0  0  0  0  0  0  0
   53.6650   28.3670   53.6870 N   0  0  0  0  0  0  0  0  0  0  0  0
   53.0150   29.4860   53.0620 C   0  0  0  0  0  0  0  0  0  0  0  0
   51.8130   29.9720   53.5980 C   0  0  0  0  0  0  0  0  0  0  0  0
   51.1500   31.0460   52.9940 C   0  0  0  0  0  0  0  0  0  0  0  0
   51.6750   31.6340   51.8400 C   0  0  0  0  0  0  0  0  0  0  0  0
   51.0170   32.7020   51.2420 O   0  0  0  0  0  0  0  0  0  0  0  0
   52.8610   31.1430   51.2840 C   0  0  0  0  0  0  0  0  0  0  0  0
   53.5260   30.0690   51.8860 C   0  0  0  0  0  0  0  0  0  0  0  0
   53.7921   26.3694   55.6219 H   0  0  0  0  0  0  0  0  0  0  0  0
   53.1472   25.0767   54.5428 H   0  0  0  0  0  0  0  0  0  0  0  0
   55.2674   24.5866   53.9732 H   0  0  0  0  0  0  0  0  0  0  0  0
   55.3560   26.2028   53.1707 H   0  0  0  0  0  0  0  0  0  0  0  0
   56.5200   32.6564   53.8734 H   0  0  0  0  0  0  0  0  0  0  0  0
   57.2052   32.9728   51.4873 H   0  0  0  0  0  0  0  0  0  0  0  0
   57.7153   30.9752   50.0734 H   0  0  0  0  0  0  0  0  0  0  0  0
   54.6200   28.5150   54.0850 H   0  0  0  0  0  0  0  0  0  0  0  0
   51.3888   29.5055   54.4994 H   0  0  0  0  0  0  0  0  0  0  0  0
   50.2143   31.4280   53.4281 H   0  0  0  0  0  0  0  0  0  0  0  0
   53.2714   31.6018   50.3724 H   0  0  0  0  0  0  0  0  0  0  0  0
   54.4520   29.6783   51.4388 H   0  0  0  0  0  0  0  0  0  0  0  0
  1  2  2  0
  2  3  1  0
  3  4  1  0
  4  5  1  0
  5  6  1  0
  6  7  2  0
  7  8  1  0
  8  9  2  0
  8 10  1  0
 10 11  2  0
 11 12  1  0
 12 13  2  0
 13 14  1  0
 14 15  2  0
 15 16  1  0
  2 17  1  0
 17 18  1  0
 18 19  2  0
 19 20  1  0
 20 21  2  0
 21 22  1  0
 21 23  1  0
 23 24  2  0
 16  6  1  0
 24 18  1  0
 15 10  1  0
  3 25  1  0
  3 26  1  0
  4 27  1  0
  4 28  1  0
 11 29  1  0
 12 30  1  0
 13 31  1  0
 17 32  1  0
 19 33  1  0
 20 34  1  0
 23 35  1  0
 24 36  1  0
M  CHG  2  16  -1  22  -1
M  END
>  <UniqueID>  (70) 
68

>  <SMILES>  (70) 
O=C(CCSc1nc(=O)c2cccnc2[n-]1)Nc1ccc([O-])cc1

>  <Energy>  (70) 
40.664270037586796

>  <Genealogy>  (70) 
O=C(CCSc1nc(=O)c2cccnc2[n-]1)Nc1ccc([O-])cc1 (protonated)
O=C(CCSc1nc(=O)c2cccnc2[n-]1)Nc1ccc([O-])cc1 (3D coordinates assigned)
O=C(CCSc1nc(=O)c2cccnc2[n-]1)Nc1ccc([O-])cc1 (optimized conformer: 40.664270037586796 kcal/mol)

>  <smiles>  (70) 
O=C(CCSc1nc(=O)c2cccnc2[nH]1)Nc1ccc(O)cc1

>  <score_type>  (70) 
oracle

>  <origin>  (70) 
adg

>  <m_score__min__energy>  (70) 
-12.44

>  <m_primary>  (70) 
energy

$$$$
70:0
     RDKit          3D

 71 73  0  0  1  0  0  0  0  0999 V2000
   63.8430   33.4600   47.6720 C   0  0  0  0  0  0  0  0  0  0  0  0
   63.3000   32.8310   48.9080 C   0  0  0  0  0  0  0  0  0  0  0  0
   61.9930   32.3400   48.6840 O   0  0  0  0  0  0  0  0  0  0  0  0
   61.6710   31.1950   47.9940 C   0  0  0  0  0  0  0  0  0  0  0  0
   62.2170   30.8970   46.8830 O   0  0  0  0  0  0  0  0  0  0  0  0
   60.6490   30.2790   48.5770 C   0  0  0  0  0  0  0  0  0  0  0  0
   59.6260   30.8370   49.0320 O   0  0  0  0  0  0  0  0  0  0  0  0
   60.7910   28.9480   48.6250 O   0  0  0  0  0  0  0  0  0  0  0  0
   60.4060   27.9700   49.5280 C   0  0  0  0  0  0  0  0  0  0  0  0
   60.0250   26.6470   48.9610 C   0  0  0  0  0  0  0  0  0  0  0  0
   59.5840   26.5870   47.6900 O   0  0  0  0  0  0  0  0  0  0  0  0
   59.6160   27.3770   46.5920 C   0  0  0  0  0  0  0  0  0  0  0  0
   60.6430   28.1380   46.1920 N   0  0  0  0  0  0  0  0  0  0  0  0
   60.6380   28.9190   45.1010 C   0  0  0  0  0  0  0  0  0  0  0  0
   59.5460   28.9730   44.3270 N   0  0  0  0  0  0  0  0  0  0  0  0
   58.4760   28.2360   44.6590 C   0  0  0  0  0  0  0  0  0  0  0  0
   57.4090   28.3000   43.9850 N   0  0  0  0  0  0  0  0  0  0  0  0
   56.5110   29.7530   43.8170 S   0  0  0  0  0  0  0  0  0  0  0  0
   55.2000   29.6010   44.5240 O   0  0  0  0  0  0  0  0  0  0  0  0
   56.1530   29.9630   42.3520 O   0  0  0  0  0  0  0  0  0  0  0  0
   57.4180   31.1290   44.4170 C   0  0  0  0  0  0  0  0  0  0  0  0
   57.8030   31.0960   45.7620 C   0  0  0  0  0  0  0  0  0  0  0  0
   58.4870   32.1870   46.2440 C   0  0  0  0  0  0  0  0  0  0  0  0
   58.8020   33.2940   45.4860 C   0  0  0  0  0  0  0  0  0  0  0  0
   59.5690   34.3970   46.1450 C   0  0  0  0  0  0  0  0  0  0  0  0
   61.0110   33.9460   46.3350 C   0  0  0  0  0  0  0  0  0  0  0  0
   59.5790   35.6630   45.3320 C   0  0  0  0  0  0  0  0  0  0  0  0
   58.9760   34.7140   47.5160 C   0  0  0  0  0  0  0  0  0  0  0  0
   58.4170   33.3170   44.1620 C   0  0  0  0  0  0  0  0  0  0  0  0
   57.7220   32.2250   43.6280 C   0  0  0  0  0  0  0  0  0  0  0  0
   58.4740   27.4180   45.7920 C   0  0  0  0  0  0  0  0  0  0  0  0
   57.3310   26.6940   46.0520 O   0  0  0  0  0  0  0  0  0  0  0  0
   57.1470   25.3560   45.7680 C   0  0  0  0  0  0  0  0  0  0  0  0
   58.2940   24.6060   45.5480 C   0  0  0  0  0  0  0  0  0  0  0  0
   58.2450   23.2540   45.2620 C   0  0  0  0  0  0  0  0  0  0  0  0
   57.0290   22.5740   45.1740 C   0  0  0  0  0  0  0  0  0  0  0  0
   55.9060   23.3600   45.4000 C   0  0  0  0  0  0  0  0  0  0  0  0
   55.9560   24.6990   45.6850 C   0  0  0  0  0  0  0  0  0  0  0  0
   54.7870   25.3670   45.8860 O   0  0  0  0  0  0  0  0  0  0  0  0
   53.5190   24.8070   45.6130 C   0  0  0  0  0  0  0  0  0  0  0  0
   64.5391   34.2663   47.9463 H   0  0  0  0  0  0  0  0  0  0  0  0
   64.3753   32.7022   47.0784 H   0  0  0  0  0  0  0  0  0  0  0  0
   63.0156   33.8760   47.0784 H   0  0  0  0  0  0  0  0  0  0  0  0
   63.9530   31.9976   49.2063 H   0  0  0  0  0  0  0  0  0  0  0  0
   63.2623   33.5889   49.7043 H   0  0  0  0  0  0  0  0  0  0  0  0
   61.2454   27.8065   50.2199 H   0  0  0  0  0  0  0  0  0  0  0  0
   59.4901   28.3566   49.9988 H   0  0  0  0  0  0  0  0  0  0  0  0
   60.9124   26.0002   49.0258 H   0  0  0  0  0  0  0  0  0  0  0  0
   59.1530   26.3434   49.5589 H   0  0  0  0  0  0  0  0  0  0  0  0
   61.5210   28.1460   46.7520 H   0  0  0  0  0  0  0  0  0  0  0  0
   61.5273   29.5128   44.8431 H   0  0  0  0  0  0  0  0  0  0  0  0
   57.5687   30.2351   46.4053 H   0  0  0  0  0  0  0  0  0  0  0  0
   58.8017   32.1756   47.2980 H   0  0  0  0  0  0  0  0  0  0  0  0
   61.2347   33.8760   47.4097 H   0  0  0  0  0  0  0  0  0  0  0  0
   61.1519   32.9609   45.8663 H   0  0  0  0  0  0  0  0  0  0  0  0
   61.6881   34.6753   45.8663 H   0  0  0  0  0  0  0  0  0  0  0  0
   59.5859   36.5319   46.0065 H   0  0  0  0  0  0  0  0  0  0  0  0
   60.4773   35.6842   44.6975 H   0  0  0  0  0  0  0  0  0  0  0  0
   58.6811   35.6984   44.6975 H   0  0  0  0  0  0  0  0  0  0  0  0
   59.6548   34.3511   48.3019 H   0  0  0  0  0  0  0  0  0  0  0  0
   58.8464   35.8017   47.6169 H   0  0  0  0  0  0  0  0  0  0  0  0
   57.9996   34.2175   47.6169 H   0  0  0  0  0  0  0  0  0  0  0  0
   58.6539   34.1860   43.5306 H   0  0  0  0  0  0  0  0  0  0  0  0
   57.4148   32.2382   42.5719 H   0  0  0  0  0  0  0  0  0  0  0  0
   59.2737   25.1032   45.6029 H   0  0  0  0  0  0  0  0  0  0  0  0
   59.1833   22.7031   45.1005 H   0  0  0  0  0  0  0  0  0  0  0  0
   56.9650   21.5003   44.9438 H   0  0  0  0  0  0  0  0  0  0  0  0
   54.9183   22.8787   45.3470 H   0  0  0  0  0  0  0  0  0  0  0  0
   53.0066   24.5807   46.5597 H   0  0  0  0  0  0  0  0  0  0  0  0
   52.9187   25.5237   45.0334 H   0  0  0  0  0  0  0  0  0  0  0  0
   53.6444   23.8806   45.0334 H   0  0  0  0  0  0  0  0  0  0  0  0
  1  2  1  0
  2  3  1  0
  3  4  1  0
  4  5  2  0
  4  6  1  0
  6  7  2  0
  6  8  1  0
  8  9  1  0
  9 10  1  0
 10 11  1  0
 11 12  1  0
 12 13  1  0
 13 14  1  0
 14 15  2  0
 15 16  1  0
 16 17  2  0
 17 18  1  0
 18 19  2  0
 18 20  2  0
 18 21  1  0
 21 22  2  0
 22 23  1  0
 23 24  2  0
 24 25  1  0
 25 26  1  0
 25 27  1  0
 25 28  1  0
 24 29  1  0
 29 30  2  0
 16 31  1  0
 31 32  1  0
 32 33  1  0
 33 34  2  0
 34 35  1  0
 35 36  2  0
 36 37  1  0
 37 38  2  0
 38 39  1  0
 39 40  1  0
 31 12  2  0
 38 33  1  0
 30 21  1  0
  1 41  1  0
  1 42  1  0
  1 43  1  0
  2 44  1  0
  2 45  1  0
  9 46  1  0
  9 47  1  0
 10 48  1  0
 10 49  1  0
 13 50  1  0
 14 51  1  0
 22 52  1  0
 23 53  1  0
 26 54  1  0
 26 55  1  0
 26 56  1  0
 27 57  1  0
 27 58  1  0
 27 59  1  0
 28 60  1  0
 28 61  1  0
 28 62  1  0
 29 63  1  0
 30 64  1  0
 34 65  1  0
 35 66  1  0
 36 67  1  0
 37 68  1  0
 40 69  1  0
 40 70  1  0
 40 71  1  0
M  END
>  <smiles>  (71) 
CCOC(=O)C(=O)OCCOc1[nH]cnc(=NS(=O)(=O)c2ccc(C(C)(C)C)cc2)c1Oc1ccccc1OC

>  <score_type>  (71) 
oracle

>  <origin>  (71) 
adg

>  <m_score__min__energy>  (71) 
-9.8399999999999999

>  <m_primary>  (71) 
energy

$$$$
71:0
     RDKit          3D

 58 60  0  0  0  0  0  0  0  0999 V2000
   56.1000   29.8030   44.8840 O   0  0  0  0  0  0  0  0  0  0  0  0
   56.9300   30.7310   44.6820 C   0  0  0  0  0  0  0  0  0  0  0  0
   58.2480   30.4240   44.0370 C   0  0  0  0  0  0  0  0  0  0  0  0
   59.2470   29.7920   45.0200 C   0  0  0  0  0  0  0  0  0  0  0  0
   59.4320   28.2680   44.8680 C   0  0  0  0  0  0  0  0  0  0  0  0
   58.1600   27.4270   45.0910 C   0  0  0  0  0  0  0  0  0  0  0  0
   58.4200   25.9520   45.4500 C   0  0  0  0  0  0  0  0  0  0  0  0
   57.5420   25.4290   46.5630 C   0  0  0  0  0  0  0  0  0  0  0  0
   57.7610   25.7880   47.7520 O   0  0  0  0  0  0  0  0  0  0  0  0
   56.3150   24.6480   46.2650 C   0  0  0  0  0  0  0  0  0  0  0  0
   55.1120   25.3120   45.9890 C   0  0  0  0  0  0  0  0  0  0  0  0
   55.0460   26.7010   45.9990 O   0  0  0  0  0  0  0  0  0  0  0  0
   54.0010   24.6010   45.6880 N   0  0  0  0  0  0  0  0  0  0  0  0
   54.0100   23.2470   45.6490 C   0  0  0  0  0  0  0  0  0  0  0  0
   52.9490   22.6400   45.3390 O   0  0  0  0  0  0  0  0  0  0  0  0
   55.1570   22.5530   45.9400 N   0  0  0  0  0  0  0  0  0  0  0  0
   55.1740   21.0790   45.8540 C   0  0  0  0  0  0  0  0  0  0  0  0
   54.8800   20.4670   47.2260 C   0  0  0  0  0  0  0  0  0  0  0  0
   56.1500   20.2600   48.0020 C   0  0  0  0  0  0  0  0  0  0  0  0
   57.1720   19.4450   47.4870 C   0  0  0  0  0  0  0  0  0  0  0  0
   58.3620   19.2720   48.2000 C   0  0  0  0  0  0  0  0  0  0  0  0
   58.5470   19.9160   49.4270 C   0  0  0  0  0  0  0  0  0  0  0  0
   59.7370   19.7310   50.1270 O   0  0  0  0  0  0  0  0  0  0  0  0
   57.5370   20.7430   49.9380 C   0  0  0  0  0  0  0  0  0  0  0  0
   56.3470   20.9180   49.2270 C   0  0  0  0  0  0  0  0  0  0  0  0
   56.3060   23.2390   46.2490 C   0  0  0  0  0  0  0  0  0  0  0  0
   57.3580   22.6050   46.5420 O   0  0  0  0  0  0  0  0  0  0  0  0
   56.6530   32.0720   45.1050 N   0  0  0  0  0  0  0  0  0  0  0  0
   57.6020   33.0330   45.5890 C   0  0  0  0  0  0  0  0  0  0  0  0
   58.2620   33.9300   44.7280 C   0  0  0  0  0  0  0  0  0  0  0  0
   59.2150   34.8180   45.2370 C   0  0  0  0  0  0  0  0  0  0  0  0
   59.5250   34.8110   46.6000 C   0  0  0  0  0  0  0  0  0  0  0  0
   58.8860   33.9090   47.4550 C   0  0  0  0  0  0  0  0  0  0  0  0
   57.9340   33.0190   46.9490 C   0  0  0  0  0  0  0  0  0  0  0  0
   58.0800   29.7243   43.2050 H   0  0  0  0  0  0  0  0  0  0  0  0
   58.6784   31.3728   43.6841 H   0  0  0  0  0  0  0  0  0  0  0  0
   60.2252   30.2717   44.8687 H   0  0  0  0  0  0  0  0  0  0  0  0
   58.8337   29.9537   46.0265 H   0  0  0  0  0  0  0  0  0  0  0  0
   59.7970   28.0694   43.8495 H   0  0  0  0  0  0  0  0  0  0  0  0
   60.1391   27.9664   45.6548 H   0  0  0  0  0  0  0  0  0  0  0  0
   57.5865   27.8836   45.9112 H   0  0  0  0  0  0  0  0  0  0  0  0
   57.6175   27.4235   44.1341 H   0  0  0  0  0  0  0  0  0  0  0  0
   58.2429   25.3407   44.5528 H   0  0  0  0  0  0  0  0  0  0  0  0
   59.4588   25.8883   45.8060 H   0  0  0  0  0  0  0  0  0  0  0  0
   54.4086   20.7478   45.1367 H   0  0  0  0  0  0  0  0  0  0  0  0
   56.1689   20.7500   45.5195 H   0  0  0  0  0  0  0  0  0  0  0  0
   54.2200   21.1436   47.7886 H   0  0  0  0  0  0  0  0  0  0  0  0
   54.3937   19.4913   47.0796 H   0  0  0  0  0  0  0  0  0  0  0  0
   57.0353   18.9410   46.5189 H   0  0  0  0  0  0  0  0  0  0  0  0
   59.1554   18.6271   47.7943 H   0  0  0  0  0  0  0  0  0  0  0  0
   59.7940   19.0910   50.9120 H   0  0  0  0  0  0  0  0  0  0  0  0
   57.6816   21.2552   50.9007 H   0  0  0  0  0  0  0  0  0  0  0  0
   55.5608   21.5742   49.6286 H   0  0  0  0  0  0  0  0  0  0  0  0
   58.0278   33.9325   43.6532 H   0  0  0  0  0  0  0  0  0  0  0  0
   59.7221   35.5240   44.5628 H   0  0  0  0  0  0  0  0  0  0  0  0
   60.2707   35.5144   46.9990 H   0  0  0  0  0  0  0  0  0  0  0  0
   59.1323   33.8993   48.5270 H   0  0  0  0  0  0  0  0  0  0  0  0
   57.4425   32.3029   47.6240 H   0  0  0  0  0  0  0  0  0  0  0  0
  1  2  2  0
  2  3  1  0
  3  4  1  0
  4  5  1  0
  5  6  1  0
  6  7  1  0
  7  8  1  0
  8  9  2  0
  8 10  1  0
 10 11  2  0
 11 12  1  0
 11 13  1  0
 13 14  1  0
 14 15  2  0
 14 16  1  0
 16 17  1  0
 17 18  1  0
 18 19  1  0
 19 20  2  0
 20 21  1  0
 21 22  2  0
 22 23  1  0
 22 24  1  0
 24 25  2  0
 16 26  1  0
 26 27  2  0
  2 28  1  0
 28 29  1  0
 29 30  2  0
 30 31  1  0
 31 32  2  0
 32 33  1  0
 33 34  2  0
 26 10  1  0
 34 29  1  0
 25 19  1  0
  3 35  1  0
  3 36  1  0
  4 37  1  0
  4 38  1  0
  5 39  1  0
  5 40  1  0
  6 41  1  0
  6 42  1  0
  7 43  1  0
  7 44  1  0
 17 45  1  0
 17 46  1  0
 18 47  1  0
 18 48  1  0
 20 49  1  0
 21 50  1  0
 23 51  1  0
 24 52  1  0
 25 53  1  0
 30 54  1  0
 31 55  1  0
 32 56  1  0
 33 57  1  0
 34 58  1  0
M  CHG  3  12  -1  13  -1  28  -1
M  END
>  <UniqueID>  (72) 
69

>  <SMILES>  (72) 
O=C(CCCCCC(=O)c1c([O-])[n-]c(=O)n(CCc2ccc(O)cc2)c1=O)[N-]c1ccccc1

>  <Energy>  (72) 
66.13007504622296

>  <Genealogy>  (72) 
O=C(CCCCCC(=O)c1c([O-])[n-]c(=O)n(CCc2ccc(O)cc2)c1=O)[N-]c1ccccc1 (protonated)
O=C(CCCCCC(=O)c1c([O-])[n-]c(=O)n(CCc2ccc(O)cc2)c1=O)[N-]c1ccccc1 (3D coordinates assigned)
O=C(CCCCCC(=O)c1c([O-])[n-]c(=O)n(CCc2ccc(O)cc2)c1=O)[N-]c1ccccc1 (optimized conformer: 66.13007504622296 kcal/mol)

>  <smiles>  (72) 
O=C(CCCCCC(=O)c1c(O)[nH]c(=O)n(CCc2ccc(O)cc2)c1=O)Nc1ccccc1

>  <score_type>  (72) 
oracle

>  <origin>  (72) 
adg

>  <m_score__min__energy>  (72) 
-14.970000000000001

>  <m_primary>  (72) 
energy

$$$$
72:0
     RDKit          3D

 44 45  0  0  0  0  0  0  0  0999 V2000
   58.9100   29.4090   47.2170 C   0  0  0  0  0  0  0  0  0  0  0  0
   59.0840   29.8410   45.7660 C   0  0  0  0  0  0  0  0  0  0  0  0
   58.4700   28.8570   44.8660 N   0  0  0  0  0  0  0  0  0  0  0  0
   57.5500   29.3010   43.8110 C   0  0  0  0  0  0  0  0  0  0  0  0
   56.3550   29.9650   44.4210 C   0  0  0  0  0  0  0  0  0  0  0  0
   55.2810   29.3210   44.5640 O   0  0  0  0  0  0  0  0  0  0  0  0
   56.4490   31.3250   44.8540 N   0  0  0  0  0  0  0  0  0  0  0  0
   57.3670   32.2830   44.2570 C   0  0  0  0  0  0  0  0  0  0  0  0
   58.1270   32.9830   45.3460 C   0  0  0  0  0  0  0  0  0  0  0  0
   59.1900   33.8440   45.0290 C   0  0  0  0  0  0  0  0  0  0  0  0
   59.9200   34.4640   46.0470 C   0  0  0  0  0  0  0  0  0  0  0  0
   59.6120   34.2270   47.3920 C   0  0  0  0  0  0  0  0  0  0  0  0
   60.3750   34.8730   48.3750 O   0  0  0  0  0  0  0  0  0  0  0  0
   61.3210   34.2210   49.2150 C   0  0  0  0  0  0  0  0  0  0  0  0
   58.5570   33.3500   47.7100 C   0  0  0  0  0  0  0  0  0  0  0  0
   57.8250   32.7290   46.6910 C   0  0  0  0  0  0  0  0  0  0  0  0
   58.5860   27.4540   45.1690 C   0  0  0  0  0  0  0  0  0  0  0  0
   59.7330   26.9380   45.2810 O   0  0  0  0  0  0  0  0  0  0  0  0
   57.3870   26.6040   45.3420 C   0  0  0  0  0  0  0  0  0  0  0  0
   57.3540   25.3020   44.8170 C   0  0  0  0  0  0  0  0  0  0  0  0
   56.2120   24.5120   44.9720 C   0  0  0  0  0  0  0  0  0  0  0  0
   55.1040   25.0370   45.6410 C   0  0  0  0  0  0  0  0  0  0  0  0
   54.0660   24.3400   45.7880 O   0  0  0  0  0  0  0  0  0  0  0  0
   55.1440   26.3040   46.1320 N   0  0  0  0  0  0  0  0  0  0  0  0
   56.2450   27.0910   45.9980 C   0  0  0  0  0  0  0  0  0  0  0  0
   59.2371   30.2210   47.8831 H   0  0  0  0  0  0  0  0  0  0  0  0
   57.8506   29.1826   47.4077 H   0  0  0  0  0  0  0  0  0  0  0  0
   59.5168   28.5115   47.4077 H   0  0  0  0  0  0  0  0  0  0  0  0
   58.6024   30.8188   45.6179 H   0  0  0  0  0  0  0  0  0  0  0  0
   60.1581   29.9128   45.5396 H   0  0  0  0  0  0  0  0  0  0  0  0
   58.0673   30.0148   43.1530 H   0  0  0  0  0  0  0  0  0  0  0  0
   57.2203   28.4283   43.2281 H   0  0  0  0  0  0  0  0  0  0  0  0
   58.0716   31.7555   43.5972 H   0  0  0  0  0  0  0  0  0  0  0  0
   56.8009   33.0202   43.6688 H   0  0  0  0  0  0  0  0  0  0  0  0
   59.4490   34.0311   43.9764 H   0  0  0  0  0  0  0  0  0  0  0  0
   60.7446   35.1448   45.7889 H   0  0  0  0  0  0  0  0  0  0  0  0
   61.0607   34.4004   50.2686 H   0  0  0  0  0  0  0  0  0  0  0  0
   61.3070   33.1398   49.0128 H   0  0  0  0  0  0  0  0  0  0  0  0
   62.3264   34.6189   49.0128 H   0  0  0  0  0  0  0  0  0  0  0  0
   58.3072   33.1522   48.7628 H   0  0  0  0  0  0  0  0  0  0  0  0
   57.0084   32.0380   46.9472 H   0  0  0  0  0  0  0  0  0  0  0  0
   58.2289   24.9033   44.2827 H   0  0  0  0  0  0  0  0  0  0  0  0
   56.1858   23.4878   44.5715 H   0  0  0  0  0  0  0  0  0  0  0  0
   56.2409   28.1129   46.4050 H   0  0  0  0  0  0  0  0  0  0  0  0
  1  2  1  0
  2  3  1  0
  3  4  1  0
  4  5  1  0
  5  6  2  0
  5  7  1  0
  7  8  1  0
  8  9  1  0
  9 10  2  0
 10 11  1  0
 11 12  2  0
 12 13  1  0
 13 14  1  0
 12 15  1  0
 15 16  2  0
  3 17  1  0
 17 18  2  0
 17 19  1  0
 19 20  1  0
 20 21  2  0
 21 22  1  0
 22 23  2  0
 22 24  1  0
 24 25  1  0
 16  9  1  0
 25 19  2  0
  1 26  1  0
  1 27  1  0
  1 28  1  0
  2 29  1  0
  2 30  1  0
  4 31  1  0
  4 32  1  0
  8 33  1  0
  8 34  1  0
 10 35  1  0
 11 36  1  0
 14 37  1  0
 14 38  1  0
 14 39  1  0
 15 40  1  0
 16 41  1  0
 20 42  1  0
 21 43  1  0
 25 44  1  0
M  CHG  2   7  -1  24  -1
M  END
>  <UniqueID>  (73) 
70

>  <SMILES>  (73) 
CCN(CC(=O)[N-]Cc1ccc(OC)cc1)C(=O)c1ccc(=O)[n-]c1

>  <Energy>  (73) 
40.9728793423605

>  <Genealogy>  (73) 
CCN(CC(=O)[N-]Cc1ccc(OC)cc1)C(=O)c1ccc(=O)[n-]c1 (protonated)
CCN(CC(=O)[N-]Cc1ccc(OC)cc1)C(=O)c1ccc(=O)[n-]c1 (3D coordinates assigned)
CCN(CC(=O)[N-]Cc1ccc(OC)cc1)C(=O)c1ccc(=O)[n-]c1 (optimized conformer: 40.9728793423605 kcal/mol)

>  <smiles>  (73) 
CCN(CC(=O)NCc1ccc(OC)cc1)C(=O)c1ccc(=O)[nH]c1

>  <score_type>  (73) 
oracle

>  <origin>  (73) 
adg

>  <m_score__min__energy>  (73) 
-11.529999999999999

>  <m_primary>  (73) 
energy

$$$$
73:0
     RDKit          3D

 42 44  0  0  0  0  0  0  0  0999 V2000
   59.1620   34.6730   44.8930 C   0  0  0  0  0  0  0  0  0  0  0  0
   57.9620   33.8330   45.3570 C   0  0  0  0  0  0  0  0  0  0  0  0
   58.2130   32.3710   45.3700 N   0  0  0  0  0  0  0  0  0  0  0  0
   57.1610   31.6050   44.6630 C   0  0  0  0  0  0  0  0  0  0  0  0
   57.7740   30.3950   43.9520 C   0  0  0  0  0  0  0  0  0  0  0  0
   57.6210   29.1490   44.7790 C   0  0  0  0  0  0  0  0  0  0  0  0
   56.4390   28.5540   45.2030 C   0  0  0  0  0  0  0  0  0  0  0  0
   55.1670   28.9960   44.8680 O   0  0  0  0  0  0  0  0  0  0  0  0
   56.6580   27.4780   45.9940 N   0  0  0  0  0  0  0  0  0  0  0  0
   58.0010   27.3980   46.0720 C   0  0  0  0  0  0  0  0  0  0  0  0
   58.7360   26.4550   46.7870 C   0  0  0  0  0  0  0  0  0  0  0  0
   60.1400   26.5470   46.7540 C   0  0  0  0  0  0  0  0  0  0  0  0
   60.7720   27.5710   46.0160 C   0  0  0  0  0  0  0  0  0  0  0  0
   60.0080   28.5120   45.3030 C   0  0  0  0  0  0  0  0  0  0  0  0
   58.6180   28.3930   45.3540 C   0  0  0  0  0  0  0  0  0  0  0  0
   58.4900   31.8180   46.7140 C   0  0  0  0  0  0  0  0  0  0  0  0
   59.7710   32.3730   47.2810 C   0  0  0  0  0  0  0  0  0  0  0  0
   59.7400   33.5070   48.1090 C   0  0  0  0  0  0  0  0  0  0  0  0
   60.9220   34.0110   48.6590 C   0  0  0  0  0  0  0  0  0  0  0  0
   62.1420   33.3870   48.3880 C   0  0  0  0  0  0  0  0  0  0  0  0
   62.1830   32.2590   47.5630 C   0  0  0  0  0  0  0  0  0  0  0  0
   61.0020   31.7520   47.0110 C   0  0  0  0  0  0  0  0  0  0  0  0
   59.7049   35.0530   45.7710 H   0  0  0  0  0  0  0  0  0  0  0  0
   59.8351   34.0479   44.2879 H   0  0  0  0  0  0  0  0  0  0  0  0
   58.8050   35.5194   44.2879 H   0  0  0  0  0  0  0  0  0  0  0  0
   57.6951   34.1465   46.3770 H   0  0  0  0  0  0  0  0  0  0  0  0
   57.1534   34.0089   44.6323 H   0  0  0  0  0  0  0  0  0  0  0  0
   56.4131   31.2579   45.3911 H   0  0  0  0  0  0  0  0  0  0  0  0
   56.6842   32.2563   43.9157 H   0  0  0  0  0  0  0  0  0  0  0  0
   57.2671   30.2503   42.9866 H   0  0  0  0  0  0  0  0  0  0  0  0
   58.8468   30.5847   43.7997 H   0  0  0  0  0  0  0  0  0  0  0  0
   58.2338   25.6619   47.3604 H   0  0  0  0  0  0  0  0  0  0  0  0
   60.7487   25.8163   47.3068 H   0  0  0  0  0  0  0  0  0  0  0  0
   61.8701   27.6333   45.9985 H   0  0  0  0  0  0  0  0  0  0  0  0
   60.4893   29.3145   44.7248 H   0  0  0  0  0  0  0  0  0  0  0  0
   57.6588   32.0769   47.3863 H   0  0  0  0  0  0  0  0  0  0  0  0
   58.5936   30.7265   46.6257 H   0  0  0  0  0  0  0  0  0  0  0  0
   58.7812   34.0007   48.3256 H   0  0  0  0  0  0  0  0  0  0  0  0
   60.8915   34.9001   49.3060 H   0  0  0  0  0  0  0  0  0  0  0  0
   63.0709   33.7833   48.8239 H   0  0  0  0  0  0  0  0  0  0  0  0
   63.1445   31.7700   47.3479 H   0  0  0  0  0  0  0  0  0  0  0  0
   61.0372   30.8638   46.3631 H   0  0  0  0  0  0  0  0  0  0  0  0
  1  2  1  0
  2  3  1  0
  3  4  1  0
  4  5  1  0
  5  6  1  0
  6  7  2  0
  7  8  1  0
  7  9  1  0
  9 10  1  0
 10 11  2  0
 11 12  1  0
 12 13  2  0
 13 14  1  0
 14 15  2  0
  3 16  1  0
 16 17  1  0
 17 18  2  0
 18 19  1  0
 19 20  2  0
 20 21  1  0
 21 22  2  0
 15  6  1  0
 22 17  1  0
 15 10  1  0
  1 23  1  0
  1 24  1  0
  1 25  1  0
  2 26  1  0
  2 27  1  0
  4 28  1  0
  4 29  1  0
  5 30  1  0
  5 31  1  0
 11 32  1  0
 12 33  1  0
 13 34  1  0
 14 35  1  0
 16 36  1  0
 16 37  1  0
 18 38  1  0
 19 39  1  0
 20 40  1  0
 21 41  1  0
 22 42  1  0
M  CHG  2   8  -1   9  -1
M  END
>  <UniqueID>  (74) 
71

>  <SMILES>  (74) 
CCN(CCc1c([O-])[n-]c2ccccc12)Cc1ccccc1

>  <Energy>  (74) 
76.46039344019734

>  <Genealogy>  (74) 
CCN(CCc1c([O-])[n-]c2ccccc12)Cc1ccccc1 (protonated)
CCN(CCc1c([O-])[n-]c2ccccc12)Cc1ccccc1 (3D coordinates assigned)
CCN(CCc1c([O-])[n-]c2ccccc12)Cc1ccccc1 (optimized conformer: 76.46039344019734 kcal/mol)

>  <smiles>  (74) 
CCN(CCc1c(O)[nH]c2ccccc12)Cc1ccccc1

>  <score_type>  (74) 
oracle

>  <origin>  (74) 
adg

>  <m_score__min__energy>  (74) 
-13.25

>  <m_primary>  (74) 
energy

$$$$
74:0
     RDKit          3D

 71 75  0  0  0  0  0  0  0  0999 V2000
   57.2480   33.6350   45.3000 C   0  0  0  0  0  0  0  0  0  0  0  0
   57.6800   33.2930   43.9440 N   0  0  0  0  0  0  0  0  0  0  0  0
   58.4960   32.0750   43.9640 C   0  0  0  0  0  0  0  0  0  0  0  0
   57.6920   30.9070   44.4940 C   0  0  0  0  0  0  0  0  0  0  0  0
   58.1010   30.1740   45.6350 C   0  0  0  0  0  0  0  0  0  0  0  0
   59.3090   30.5300   46.3280 N   0  0  0  0  0  0  0  0  0  0  0  0
   59.5080   31.8050   46.9600 C   0  0  0  0  0  0  0  0  0  0  0  0
   60.2950   32.7710   46.3110 C   0  0  0  0  0  0  0  0  0  0  0  0
   60.4950   34.0280   46.8900 C   0  0  0  0  0  0  0  0  0  0  0  0
   59.9290   34.3240   48.1330 C   0  0  0  0  0  0  0  0  0  0  0  0
   59.1590   33.3650   48.7950 C   0  0  0  0  0  0  0  0  0  0  0  0
   58.9420   32.1120   48.2130 C   0  0  0  0  0  0  0  0  0  0  0  0
   58.1960   31.2000   48.8840 F   0  0  0  0  0  0  0  0  0  0  0  0
   57.3750   29.0260   46.0350 C   0  0  0  0  0  0  0  0  0  0  0  0
   57.8430   28.1880   47.2160 C   0  0  0  0  0  0  0  0  0  0  0  0
   58.5360   26.8960   46.8200 C   0  0  0  0  0  0  0  0  0  0  0  0
   57.7660   25.7690   46.4720 C   0  0  0  0  0  0  0  0  0  0  0  0
   58.3800   24.5880   46.0500 C   0  0  0  0  0  0  0  0  0  0  0  0
   59.7710   24.5020   45.9890 C   0  0  0  0  0  0  0  0  0  0  0  0
   60.3700   23.3210   45.5520 O   0  0  0  0  0  0  0  0  0  0  0  0
   60.5500   25.5960   46.3750 C   0  0  0  0  0  0  0  0  0  0  0  0
   59.9480   26.7920   46.8030 C   0  0  0  0  0  0  0  0  0  0  0  0
   60.7730   27.8650   47.2890 N   0  0  0  0  0  0  0  0  0  0  0  0
   60.7640   28.3210   48.6560 C   0  0  0  0  0  0  0  0  0  0  0  0
   60.4280   27.4450   49.7010 C   0  0  0  0  0  0  0  0  0  0  0  0
   60.4510   27.8860   51.0250 C   0  0  0  0  0  0  0  0  0  0  0  0
   60.8120   29.2020   51.3190 C   0  0  0  0  0  0  0  0  0  0  0  0
   61.1690   30.0880   50.2910 C   0  0  0  0  0  0  0  0  0  0  0  0
   61.5190   31.4870   50.6190 C   0  0  0  0  0  0  0  0  0  0  0  0
   60.6590   32.2240   51.1710 O   0  0  0  0  0  0  0  0  0  0  0  0
   62.8200   32.0190   50.3220 N   0  0  0  0  0  0  0  0  0  0  0  0
   63.3540   33.1990   50.9780 C   0  0  0  0  0  0  0  0  0  0  0  0
   64.7140   33.4410   50.3390 C   0  0  0  0  0  0  0  0  0  0  0  0
   64.6990   32.6630   49.0260 C   0  0  0  0  0  0  0  0  0  0  0  0
   63.6310   31.5910   49.1930 C   0  0  0  0  0  0  0  0  0  0  0  0
   61.1420   29.6430   48.9550 C   0  0  0  0  0  0  0  0  0  0  0  0
   61.4880   30.5110   47.9240 O   0  0  0  0  0  0  0  0  0  0  0  0
   56.2760   28.6210   45.2450 C   0  0  0  0  0  0  0  0  0  0  0  0
   55.5880   27.4450   45.5250 O   0  0  0  0  0  0  0  0  0  0  0  0
   55.8780   29.3730   44.1900 N   0  0  0  0  0  0  0  0  0  0  0  0
   56.5360   30.4930   43.8070 C   0  0  0  0  0  0  0  0  0  0  0  0
   56.1120   31.1440   42.8130 O   0  0  0  0  0  0  0  0  0  0  0  0
   57.8931   33.1243   46.0301 H   0  0  0  0  0  0  0  0  0  0  0  0
   57.3206   34.7230   45.4445 H   0  0  0  0  0  0  0  0  0  0  0  0
   56.2056   33.3147   45.4445 H   0  0  0  0  0  0  0  0  0  0  0  0
   56.8190   33.1040   43.3830 H   0  0  0  0  0  0  0  0  0  0  0  0
   58.8331   31.8483   42.9418 H   0  0  0  0  0  0  0  0  0  0  0  0
   59.3626   32.2380   44.6216 H   0  0  0  0  0  0  0  0  0  0  0  0
   60.1080   29.8620   46.2690 H   0  0  0  0  0  0  0  0  0  0  0  0
   60.7571   32.5369   45.3406 H   0  0  0  0  0  0  0  0  0  0  0  0
   61.0983   34.7844   46.3667 H   0  0  0  0  0  0  0  0  0  0  0  0
   60.0898   35.3117   48.5898 H   0  0  0  0  0  0  0  0  0  0  0  0
   58.7217   33.5961   49.7775 H   0  0  0  0  0  0  0  0  0  0  0  0
   58.5464   28.7899   47.8102 H   0  0  0  0  0  0  0  0  0  0  0  0
   56.9434   27.9061   47.7828 H   0  0  0  0  0  0  0  0  0  0  0  0
   56.6689   25.8198   46.5334 H   0  0  0  0  0  0  0  0  0  0  0  0
   57.7645   23.7222   45.7646 H   0  0  0  0  0  0  0  0  0  0  0  0
   61.3100   23.3180   45.1740 H   0  0  0  0  0  0  0  0  0  0  0  0
   61.6469   25.5204   46.3436 H   0  0  0  0  0  0  0  0  0  0  0  0
   61.3460   28.3930   46.5930 H   0  0  0  0  0  0  0  0  0  0  0  0
   60.1453   26.4063   49.4749 H   0  0  0  0  0  0  0  0  0  0  0  0
   60.1841   27.1952   51.8384 H   0  0  0  0  0  0  0  0  0  0  0  0
   60.8167   29.5468   52.3635 H   0  0  0  0  0  0  0  0  0  0  0  0
   62.6929   34.0626   50.8130 H   0  0  0  0  0  0  0  0  0  0  0  0
   63.4341   33.0592   52.0661 H   0  0  0  0  0  0  0  0  0  0  0  0
   64.8619   34.5140   50.1471 H   0  0  0  0  0  0  0  0  0  0  0  0
   65.5342   33.1138   50.9949 H   0  0  0  0  0  0  0  0  0  0  0  0
   64.4454   33.3295   48.1884 H   0  0  0  0  0  0  0  0  0  0  0  0
   65.6828   32.2240   48.8035 H   0  0  0  0  0  0  0  0  0  0  0  0
   63.0156   31.5173   48.2842 H   0  0  0  0  0  0  0  0  0  0  0  0
   64.0738   30.5985   49.3631 H   0  0  0  0  0  0  0  0  0  0  0  0
  1  2  1  0
  2  3  1  0
  3  4  1  0
  4  5  2  0
  5  6  1  0
  6  7  1  0
  7  8  2  0
  8  9  1  0
  9 10  2  0
 10 11  1  0
 11 12  2  0
 12 13  1  0
  5 14  1  0
 14 15  1  0
 15 16  1  0
 16 17  2  0
 17 18  1  0
 18 19  2  0
 19 20  1  0
 19 21  1  0
 21 22  2  0
 22 23  1  0
 23 24  1  0
 24 25  2  0
 25 26  1  0
 26 27  2  0
 27 28  1  0
 28 29  1  0
 29 30  2  0
 29 31  1  0
 31 32  1  0
 32 33  1  0
 33 34  1  0
 34 35  1  0
 28 36  2  0
 36 37  1  0
 14 38  2  0
 38 39  1  0
 38 40  1  0
 40 41  1  0
 41 42  2  0
 41  4  1  0
 12  7  1  0
 22 16  1  0
 36 24  1  0
 35 31  1  0
  1 43  1  0
  1 44  1  0
  1 45  1  0
  2 46  1  0
  3 47  1  0
  3 48  1  0
  6 49  1  0
  8 50  1  0
  9 51  1  0
 10 52  1  0
 11 53  1  0
 15 54  1  0
 15 55  1  0
 17 56  1  0
 18 57  1  0
 20 58  1  0
 21 59  1  0
 23 60  1  0
 25 61  1  0
 26 62  1  0
 27 63  1  0
 32 64  1  0
 32 65  1  0
 33 66  1  0
 33 67  1  0
 34 68  1  0
 34 69  1  0
 35 70  1  0
 35 71  1  0
M  CHG  3  37  -1  39  -1  40  -1
M  END
>  <UniqueID>  (75) 
72

>  <SMILES>  (75) 
CNCc1c(Nc2ccccc2F)c(Cc2ccc(O)cc2Nc2cccc(C(=O)N3CCCC3)c2[O-])c([O-])[n-]c1=O

>  <Energy>  (75) 
101.85410466916827

>  <Genealogy>  (75) 
CNCc1c(Nc2ccccc2F)c(Cc2ccc(O)cc2Nc2cccc(C(=O)N3CCCC3)c2[O-])c([O-])[n-]c1=O (protonated)
CNCc1c(Nc2ccccc2F)c(Cc2ccc(O)cc2Nc2cccc(C(=O)N3CCCC3)c2[O-])c([O-])[n-]c1=O (3D coordinates assigned)
CNCc1c(Nc2ccccc2F)c(Cc2ccc(O)cc2Nc2cccc(C(=O)N3CCCC3)c2[O-])c([O-])[n-]c1=O (nonaromatic ring conformer: 101.85410466916827 kcal/mol)

>  <smiles>  (75) 
CNCc1c(Nc2ccccc2F)c(Cc2ccc(O)cc2Nc2cccc(C(=O)N3CCCC3)c2O)c(O)[nH]c1=O

>  <score_type>  (75) 
oracle

>  <origin>  (75) 
adg

>  <m_score__min__energy>  (75) 
-15.35

>  <m_primary>  (75) 
energy

$$$$
75:0
     RDKit          3D

 58 61  0  0  0  0  0  0  0  0999 V2000
   67.0720   31.8690   50.5260 N   0  0  0  0  0  0  0  0  0  0  0  0
   66.0720   32.3860   50.2580 C   0  0  0  0  0  0  0  0  0  0  0  0
   64.8290   33.0290   49.9240 C   0  0  0  0  0  0  0  0  0  0  0  0
   64.4100   33.0980   48.5890 C   0  0  0  0  0  0  0  0  0  0  0  0
   63.2020   33.7230   48.2650 C   0  0  0  0  0  0  0  0  0  0  0  0
   62.3950   34.2690   49.2700 C   0  0  0  0  0  0  0  0  0  0  0  0
   61.1940   34.8940   48.9050 O   0  0  0  0  0  0  0  0  0  0  0  0
   60.2660   34.3810   47.9880 C   0  0  0  0  0  0  0  0  0  0  0  0
   60.5890   34.3800   46.6280 C   0  0  0  0  0  0  0  0  0  0  0  0
   59.6840   33.8850   45.6850 C   0  0  0  0  0  0  0  0  0  0  0  0
   58.4490   33.3610   46.0960 C   0  0  0  0  0  0  0  0  0  0  0  0
   57.4390   32.9030   45.0780 C   0  0  0  0  0  0  0  0  0  0  0  0
   57.6060   31.4670   44.8060 N   0  0  0  0  0  0  0  0  0  0  0  0
   56.7130   30.8110   43.8380 C   0  0  0  0  0  0  0  0  0  0  0  0
   56.2510   29.4860   44.3630 C   0  0  0  0  0  0  0  0  0  0  0  0
   55.1380   29.4000   44.9490 O   0  0  0  0  0  0  0  0  0  0  0  0
   57.0560   28.3200   44.1540 N   0  0  0  0  0  0  0  0  0  0  0  0
   57.7250   27.5650   45.1720 C   0  0  0  0  0  0  0  0  0  0  0  0
   57.0310   27.0130   46.2650 C   0  0  0  0  0  0  0  0  0  0  0  0
   57.7200   26.3030   47.2510 C   0  0  0  0  0  0  0  0  0  0  0  0
   59.1090   26.1550   47.1660 C   0  0  0  0  0  0  0  0  0  0  0  0
   59.8070   26.7210   46.0970 C   0  0  0  0  0  0  0  0  0  0  0  0
   59.1200   27.4300   45.1070 C   0  0  0  0  0  0  0  0  0  0  0  0
   59.8110   27.9790   44.0770 F   0  0  0  0  0  0  0  0  0  0  0  0
   58.6000   30.6920   45.5100 C   0  0  0  0  0  0  0  0  0  0  0  0
   59.6390   30.3080   44.9060 O   0  0  0  0  0  0  0  0  0  0  0  0
   58.3820   30.3070   46.8740 N   0  0  0  0  0  0  0  0  0  0  0  0
   59.3300   30.3670   47.9510 C   0  0  0  0  0  0  0  0  0  0  0  0
   58.8870   30.0840   49.2490 C   0  0  0  0  0  0  0  0  0  0  0  0
   59.7750   30.1340   50.3270 C   0  0  0  0  0  0  0  0  0  0  0  0
   61.1100   30.4870   50.1170 C   0  0  0  0  0  0  0  0  0  0  0  0
   61.5550   30.8000   48.8290 C   0  0  0  0  0  0  0  0  0  0  0  0
   60.6700   30.7480   47.7480 C   0  0  0  0  0  0  0  0  0  0  0  0
   58.1370   33.3310   47.4640 C   0  0  0  0  0  0  0  0  0  0  0  0
   59.0410   33.8340   48.4040 C   0  0  0  0  0  0  0  0  0  0  0  0
   62.8280   34.2150   50.6070 C   0  0  0  0  0  0  0  0  0  0  0  0
   64.0360   33.5920   50.9320 C   0  0  0  0  0  0  0  0  0  0  0  0
   65.0322   32.6599   47.7947 H   0  0  0  0  0  0  0  0  0  0  0  0
   62.8838   33.7860   47.2139 H   0  0  0  0  0  0  0  0  0  0  0  0
   61.5624   34.7716   46.2976 H   0  0  0  0  0  0  0  0  0  0  0  0
   59.9411   33.9063   44.6157 H   0  0  0  0  0  0  0  0  0  0  0  0
   56.4254   33.0839   45.4652 H   0  0  0  0  0  0  0  0  0  0  0  0
   57.5907   33.4648   44.1445 H   0  0  0  0  0  0  0  0  0  0  0  0
   55.8387   31.4540   43.6589 H   0  0  0  0  0  0  0  0  0  0  0  0
   57.2637   30.6489   42.8997 H   0  0  0  0  0  0  0  0  0  0  0  0
   55.9413   27.1413   46.3431 H   0  0  0  0  0  0  0  0  0  0  0  0
   57.1706   25.8600   48.0947 H   0  0  0  0  0  0  0  0  0  0  0  0
   59.6508   25.5930   47.9410 H   0  0  0  0  0  0  0  0  0  0  0  0
   60.8994   26.6088   46.0338 H   0  0  0  0  0  0  0  0  0  0  0  0
   57.8330   29.8206   49.4212 H   0  0  0  0  0  0  0  0  0  0  0  0
   59.4224   29.8953   51.3413 H   0  0  0  0  0  0  0  0  0  0  0  0
   61.8108   30.5187   50.9643 H   0  0  0  0  0  0  0  0  0  0  0  0
   62.6040   31.0879   48.6658 H   0  0  0  0  0  0  0  0  0  0  0  0
   61.0211   31.0051   46.7377 H   0  0  0  0  0  0  0  0  0  0  0  0
   57.1772   32.9099   47.7978 H   0  0  0  0  0  0  0  0  0  0  0  0
   58.7918   33.8013   49.4749 H   0  0  0  0  0  0  0  0  0  0  0  0
   62.2132   34.6651   51.4003 H   0  0  0  0  0  0  0  0  0  0  0  0
   64.3645   33.5437   51.9807 H   0  0  0  0  0  0  0  0  0  0  0  0
  1  2  3  0
  2  3  1  0
  3  4  2  0
  4  5  1  0
  5  6  2  0
  6  7  1  0
  7  8  1  0
  8  9  2  0
  9 10  1  0
 10 11  2  0
 11 12  1  0
 12 13  1  0
 13 14  1  0
 14 15  1  0
 15 16  2  0
 15 17  1  0
 17 18  1  0
 18 19  2  0
 19 20  1  0
 20 21  2  0
 21 22  1  0
 22 23  2  0
 23 24  1  0
 13 25  1  0
 25 26  2  0
 25 27  1  0
 27 28  1  0
 28 29  2  0
 29 30  1  0
 30 31  2  0
 31 32  1  0
 32 33  2  0
 11 34  1  0
 34 35  2  0
  6 36  1  0
 36 37  2  0
 37  3  1  0
 35  8  1  0
 23 18  1  0
 33 28  1  0
  4 38  1  0
  5 39  1  0
  9 40  1  0
 10 41  1  0
 12 42  1  0
 12 43  1  0
 14 44  1  0
 14 45  1  0
 19 46  1  0
 20 47  1  0
 21 48  1  0
 22 49  1  0
 29 50  1  0
 30 51  1  0
 31 52  1  0
 32 53  1  0
 33 54  1  0
 34 55  1  0
 35 56  1  0
 36 57  1  0
 37 58  1  0
M  CHG  2  17  -1  27  -1
M  END
>  <UniqueID>  (76) 
73

>  <SMILES>  (76) 
N#Cc1ccc(Oc2ccc(CN(CC(=O)[N-]c3ccccc3F)C(=O)[N-]c3ccccc3)cc2)cc1

>  <Energy>  (76) 
71.10784113951212

>  <Genealogy>  (76) 
N#Cc1ccc(Oc2ccc(CN(CC(=O)[N-]c3ccccc3F)C(=O)[N-]c3ccccc3)cc2)cc1 (protonated)
N#Cc1ccc(Oc2ccc(CN(CC(=O)[N-]c3ccccc3F)C(=O)[N-]c3ccccc3)cc2)cc1 (3D coordinates assigned)
N#Cc1ccc(Oc2ccc(CN(CC(=O)[N-]c3ccccc3F)C(=O)[N-]c3ccccc3)cc2)cc1 (optimized conformer: 71.10784113951212 kcal/mol)

>  <smiles>  (76) 
N#Cc1ccc(Oc2ccc(CN(CC(=O)Nc3ccccc3F)C(=O)Nc3ccccc3)cc2)cc1

>  <score_type>  (76) 
oracle

>  <origin>  (76) 
adg

>  <m_score__min__energy>  (76) 
-13.51

>  <m_primary>  (76) 
energy

$$$$
76:0
     RDKit          3D

 57 60  0  0  0  0  0  0  0  0999 V2000
   61.6020   32.0040   50.2890 C   0  0  0  0  0  0  0  0  0  0  0  0
   62.2860   30.7920   49.9870 O   0  0  0  0  0  0  0  0  0  0  0  0
   62.4470   29.7240   50.8840 C   0  0  0  0  0  0  0  0  0  0  0  0
   63.5130   29.6800   51.8080 C   0  0  0  0  0  0  0  0  0  0  0  0
   63.6560   28.5890   52.6690 C   0  0  0  0  0  0  0  0  0  0  0  0
   62.7460   27.5310   52.6200 C   0  0  0  0  0  0  0  0  0  0  0  0
   61.6850   27.5650   51.7130 C   0  0  0  0  0  0  0  0  0  0  0  0
   61.5250   28.6590   50.8470 C   0  0  0  0  0  0  0  0  0  0  0  0
   60.4160   28.6830   49.9340 N   0  0  0  0  0  0  0  0  0  0  0  0
   60.6210   28.2560   48.5420 C   0  0  0  0  0  0  0  0  0  0  0  0
   59.3800   28.5240   47.6850 C   0  0  0  0  0  0  0  0  0  0  0  0
   58.8550   29.8650   47.9690 N   0  0  0  0  0  0  0  0  0  0  0  0
   58.5320   30.7500   46.8870 C   0  0  0  0  0  0  0  0  0  0  0  0
   59.1780   31.9900   46.7960 C   0  0  0  0  0  0  0  0  0  0  0  0
   58.9150   32.8430   45.7250 C   0  0  0  0  0  0  0  0  0  0  0  0
   57.9870   32.4750   44.7480 C   0  0  0  0  0  0  0  0  0  0  0  0
   57.3100   31.2530   44.8340 C   0  0  0  0  0  0  0  0  0  0  0  0
   56.3260   30.9550   43.8360 N   0  0  0  0  0  0  0  0  0  0  0  0
   55.7200   29.6730   43.6440 C   0  0  0  0  0  0  0  0  0  0  0  0
   54.7850   29.2780   44.3900 O   0  0  0  0  0  0  0  0  0  0  0  0
   57.6230   30.3540   45.8860 C   0  0  0  0  0  0  0  0  0  0  0  0
   57.0980   29.0180   45.9210 N   0  0  0  0  0  0  0  0  0  0  0  0
   57.6390   27.8960   45.2100 C   0  0  0  0  0  0  0  0  0  0  0  0
   58.1780   28.0930   44.0880 O   0  0  0  0  0  0  0  0  0  0  0  0
   57.5500   26.5160   45.7440 C   0  0  0  0  0  0  0  0  0  0  0  0
   58.7120   25.7350   45.8700 C   0  0  0  0  0  0  0  0  0  0  0  0
   58.6410   24.4350   46.3720 C   0  0  0  0  0  0  0  0  0  0  0  0
   57.4120   23.9010   46.7650 C   0  0  0  0  0  0  0  0  0  0  0  0
   57.3420   22.6070   47.2650 O   0  0  0  0  0  0  0  0  0  0  0  0
   56.2510   24.6710   46.6560 C   0  0  0  0  0  0  0  0  0  0  0  0
   56.3100   25.9770   46.1470 C   0  0  0  0  0  0  0  0  0  0  0  0
   55.1420   26.7290   46.0260 O   0  0  0  0  0  0  0  0  0  0  0  0
   58.6920   30.3310   49.3530 C   0  0  0  0  0  0  0  0  0  0  0  0
   59.1340   29.2600   50.3550 C   0  0  0  0  0  0  0  0  0  0  0  0
   61.5340   32.1245   51.3803 H   0  0  0  0  0  0  0  0  0  0  0  0
   62.1540   32.8533   49.8600 H   0  0  0  0  0  0  0  0  0  0  0  0
   60.5897   31.9704   49.8600 H   0  0  0  0  0  0  0  0  0  0  0  0
   64.2349   30.5089   51.8505 H   0  0  0  0  0  0  0  0  0  0  0  0
   64.4882   28.5634   53.3879 H   0  0  0  0  0  0  0  0  0  0  0  0
   62.8650   26.6712   53.2957 H   0  0  0  0  0  0  0  0  0  0  0  0
   60.9701   26.7298   51.6765 H   0  0  0  0  0  0  0  0  0  0  0  0
   61.4732   28.8090   48.1201 H   0  0  0  0  0  0  0  0  0  0  0  0
   60.8166   27.1735   48.5379 H   0  0  0  0  0  0  0  0  0  0  0  0
   59.6504   28.4563   46.6209 H   0  0  0  0  0  0  0  0  0  0  0  0
   58.6088   27.7762   47.9218 H   0  0  0  0  0  0  0  0  0  0  0  0
   59.8958   32.2918   47.5730 H   0  0  0  0  0  0  0  0  0  0  0  0
   59.4390   33.8072   45.6493 H   0  0  0  0  0  0  0  0  0  0  0  0
   57.7866   33.1513   43.9039 H   0  0  0  0  0  0  0  0  0  0  0  0
   56.0763   29.0221   42.8320 H   0  0  0  0  0  0  0  0  0  0  0  0
   59.6849   26.1519   45.5705 H   0  0  0  0  0  0  0  0  0  0  0  0
   59.5552   23.8294   46.4584 H   0  0  0  0  0  0  0  0  0  0  0  0
   55.2847   24.2505   46.9713 H   0  0  0  0  0  0  0  0  0  0  0  0
   55.1440   27.6520   45.6090 H   0  0  0  0  0  0  0  0  0  0  0  0
   59.3018   31.2344   49.5014 H   0  0  0  0  0  0  0  0  0  0  0  0
   57.6273   30.5487   49.5236 H   0  0  0  0  0  0  0  0  0  0  0  0
   59.2479   29.7156   51.3497 H   0  0  0  0  0  0  0  0  0  0  0  0
   58.3744   28.4655   50.3955 H   0  0  0  0  0  0  0  0  0  0  0  0
  1  2  1  0
  2  3  1  0
  3  4  2  0
  4  5  1  0
  5  6  2  0
  6  7  1  0
  7  8  2  0
  8  9  1  0
  9 10  1  0
 10 11  1  0
 11 12  1  0
 12 13  1  0
 13 14  2  0
 14 15  1  0
 15 16  2  0
 16 17  1  0
 17 18  1  0
 18 19  1  0
 19 20  2  0
 17 21  2  0
 21 22  1  0
 22 23  1  0
 23 24  2  0
 23 25  1  0
 25 26  2  0
 26 27  1  0
 27 28  2  0
 28 29  1  0
 28 30  1  0
 30 31  2  0
 31 32  1  0
 12 33  1  0
 33 34  1  0
  8  3  1  0
 34  9  1  0
 21 13  1  0
 31 25  1  0
  1 35  1  0
  1 36  1  0
  1 37  1  0
  4 38  1  0
  5 39  1  0
  6 40  1  0
  7 41  1  0
 10 42  1  0
 10 43  1  0
 11 44  1  0
 11 45  1  0
 14 46  1  0
 15 47  1  0
 16 48  1  0
 19 49  1  0
 26 50  1  0
 27 51  1  0
 30 52  1  0
 32 53  1  0
 33 54  1  0
 33 55  1  0
 34 56  1  0
 34 57  1  0
M  CHG  3  18  -1  22  -1  29  -1
M  END
>  <UniqueID>  (77) 
74

>  <SMILES>  (77) 
COc1ccccc1N1CCN(c2cccc([N-]C=O)c2[N-]C(=O)c2ccc([O-])cc2O)CC1

>  <Energy>  (77) 
85.33149294995458

>  <Genealogy>  (77) 
COc1ccccc1N1CCN(c2cccc([N-]C=O)c2[N-]C(=O)c2ccc([O-])cc2O)CC1 (protonated)
COc1ccccc1N1CCN(c2cccc([N-]C=O)c2[N-]C(=O)c2ccc([O-])cc2O)CC1 (3D coordinates assigned)
COc1ccccc1N1CCN(c2cccc([N-]C=O)c2[N-]C(=O)c2ccc([O-])cc2O)CC1 (nonaromatic ring conformer: 85.33149294995458 kcal/mol)

>  <smiles>  (77) 
COc1ccccc1N1CCN(c2cccc(NC=O)c2NC(=O)c2ccc(O)cc2O)CC1

>  <score_type>  (77) 
oracle

>  <origin>  (77) 
adg

>  <m_score__min__energy>  (77) 
-13.34

>  <m_primary>  (77) 
energy

$$$$
77:0
     RDKit          3D

 39 41  0  0  0  0  0  0  0  0999 V2000
   57.3060   32.5810   44.8690 C   0  0  0  0  0  0  0  0  0  0  0  0
   58.4160   33.2980   45.4860 N   0  0  0  0  0  0  0  0  0  0  0  0
   58.6860   34.6090   45.3470 C   0  0  0  0  0  0  0  0  0  0  0  0
   59.8650   34.9130   45.9970 C   0  0  0  0  0  0  0  0  0  0  0  0
   60.3360   33.7250   46.5430 C   0  0  0  0  0  0  0  0  0  0  0  0
   61.5870   33.5410   47.3240 C   0  0  0  0  0  0  0  0  0  0  0  0
   62.7110   32.9580   46.7500 C   0  0  0  0  0  0  0  0  0  0  0  0
   63.8460   32.7950   47.4720 N   0  0  0  0  0  0  0  0  0  0  0  0
   63.9790   33.1830   48.7860 C   0  0  0  0  0  0  0  0  0  0  0  0
   65.2450   32.9380   49.3710 C   0  0  0  0  0  0  0  0  0  0  0  0
   65.8110   33.2240   50.6470 C   0  0  0  0  0  0  0  0  0  0  0  0
   67.1010   32.9250   50.8750 N   0  0  0  0  0  0  0  0  0  0  0  0
   67.5220   31.6730   51.5450 C   0  0  0  0  0  0  0  0  0  0  0  0
   68.2120   33.8270   50.4920 C   0  0  0  0  0  0  0  0  0  0  0  0
   65.0540   33.8040   51.6910 C   0  0  0  0  0  0  0  0  0  0  0  0
   63.7330   34.2130   51.7300 C   0  0  0  0  0  0  0  0  0  0  0  0
   62.7730   34.2130   50.7410 C   0  0  0  0  0  0  0  0  0  0  0  0
   62.8540   33.7790   49.4160 C   0  0  0  0  0  0  0  0  0  0  0  0
   61.6730   33.9470   48.6580 C   0  0  0  0  0  0  0  0  0  0  0  0
   59.4170   32.7460   46.1970 C   0  0  0  0  0  0  0  0  0  0  0  0
   56.6584   32.1627   45.6536 H   0  0  0  0  0  0  0  0  0  0  0  0
   56.7239   33.2742   44.2440 H   0  0  0  0  0  0  0  0  0  0  0  0
   57.6985   31.7653   44.2440 H   0  0  0  0  0  0  0  0  0  0  0  0
   58.0615   35.3294   44.7983 H   0  0  0  0  0  0  0  0  0  0  0  0
   60.3394   35.9028   46.0689 H   0  0  0  0  0  0  0  0  0  0  0  0
   62.6787   32.6265   45.7016 H   0  0  0  0  0  0  0  0  0  0  0  0
   64.6420   32.3480   46.9590 H   0  0  0  0  0  0  0  0  0  0  0  0
   65.9396   32.4156   48.6967 H   0  0  0  0  0  0  0  0  0  0  0  0
   67.4767   31.8077   52.6358 H   0  0  0  0  0  0  0  0  0  0  0  0
   66.8497   30.8544   51.2484 H   0  0  0  0  0  0  0  0  0  0  0  0
   68.5523   31.4270   51.2484 H   0  0  0  0  0  0  0  0  0  0  0  0
   68.6951   34.2193   51.3990 H   0  0  0  0  0  0  0  0  0  0  0  0
   68.9490   33.2685   49.8963 H   0  0  0  0  0  0  0  0  0  0  0  0
   67.8168   34.6630   49.8963 H   0  0  0  0  0  0  0  0  0  0  0  0
   65.6082   33.9553   52.6291 H   0  0  0  0  0  0  0  0  0  0  0  0
   63.3958   34.5989   52.7033 H   0  0  0  0  0  0  0  0  0  0  0  0
   61.7944   34.6160   51.0408 H   0  0  0  0  0  0  0  0  0  0  0  0
   60.7957   34.4111   49.1324 H   0  0  0  0  0  0  0  0  0  0  0  0
   59.4941   31.6814   46.4628 H   0  0  0  0  0  0  0  0  0  0  0  0
  1  2  1  0
  2  3  1  0
  3  4  2  0
  4  5  1  0
  5  6  1  0
  6  7  1  0
  7  8  2  0
  8  9  1  0
  9 10  2  0
 10 11  1  0
 11 12  2  3
 12 13  1  0
 12 14  1  0
 11 15  1  0
 15 16  2  0
 16 17  1  0
 17 18  2  0
 18 19  1  0
  5 20  2  0
 20  2  1  0
 19  6  2  0
 18  9  1  0
  1 21  1  0
  1 22  1  0
  1 23  1  0
  3 24  1  0
  4 25  1  0
  7 26  1  0
  8 27  1  0
 10 28  1  0
 13 29  1  0
 13 30  1  0
 13 31  1  0
 14 32  1  0
 14 33  1  0
 14 34  1  0
 15 35  1  0
 16 36  1  0
 17 37  1  0
 19 38  1  0
 20 39  1  0
M  CHG  2   8   1  12   1
M  END
>  <UniqueID>  (78) 
75

>  <SMILES>  (78) 
Cn1ccc(-c2c[nH+]c3cc(=[N+](C)C)cccc3c2)c1

>  <Energy>  (78) 
111.71050804470555

>  <Genealogy>  (78) 
Cn1ccc(-c2c[nH+]c3cc(=[N+](C)C)cccc3c2)c1 (protonated)
Cn1ccc(-c2c[nH+]c3cc(=[N+](C)C)cccc3c2)c1 (3D coordinates assigned)
Cn1ccc(-c2c[nH+]c3cc(=[N+](C)C)cccc3c2)c1 (optimized conformer: 111.71050804470555 kcal/mol)

>  <smiles>  (78) 
Cn1ccc(-c2cnc3cc(=[N+](C)C)cccc3c2)c1

>  <score_type>  (78) 
oracle

>  <origin>  (78) 
adg

>  <m_score__min__energy>  (78) 
-4.5300000000000002

>  <m_primary>  (78) 
energy

$$$$
78:0
     RDKit          3D

 44 46  0  0  0  0  0  0  0  0999 V2000
   59.4200   29.0590   48.1150 C   0  0  0  0  0  0  0  0  0  0  0  0
   59.3990   30.5420   47.9700 C   0  0  0  0  0  0  0  0  0  0  0  0
   58.5860   31.0320   46.9480 O   0  0  0  0  0  0  0  0  0  0  0  0
   58.7420   32.2850   46.4390 C   0  0  0  0  0  0  0  0  0  0  0  0
   59.6350   33.2340   46.8790 C   0  0  0  0  0  0  0  0  0  0  0  0
   59.7440   34.4890   46.3200 C   0  0  0  0  0  0  0  0  0  0  0  0
   58.9330   34.8520   45.2630 C   0  0  0  0  0  0  0  0  0  0  0  0
   58.0330   33.9070   44.8150 C   0  0  0  0  0  0  0  0  0  0  0  0
   57.9180   32.6490   45.3690 C   0  0  0  0  0  0  0  0  0  0  0  0
   56.9830   31.7210   44.8740 O   0  0  0  0  0  0  0  0  0  0  0  0
   57.4480   30.7230   44.0030 C   0  0  0  0  0  0  0  0  0  0  0  0
   57.5920   30.9990   42.7720 O   0  0  0  0  0  0  0  0  0  0  0  0
   57.7640   29.3850   44.4880 C   0  0  0  0  0  0  0  0  0  0  0  0
   59.0740   28.9520   44.4640 C   0  0  0  0  0  0  0  0  0  0  0  0
   59.3400   27.6980   44.9200 N   0  0  0  0  0  0  0  0  0  0  0  0
   58.3220   26.9330   45.3750 C   0  0  0  0  0  0  0  0  0  0  0  0
   58.5440   25.5440   45.8880 C   0  0  0  0  0  0  0  0  0  0  0  0
   57.9350   24.5240   44.9900 C   0  0  0  0  0  0  0  0  0  0  0  0
   56.7890   24.7530   44.2570 C   0  0  0  0  0  0  0  0  0  0  0  0
   56.3280   23.7200   43.4610 C   0  0  0  0  0  0  0  0  0  0  0  0
   56.9950   22.4940   43.4020 C   0  0  0  0  0  0  0  0  0  0  0  0
   58.1460   22.2700   44.1400 C   0  0  0  0  0  0  0  0  0  0  0  0
   58.6040   23.2990   44.9320 C   0  0  0  0  0  0  0  0  0  0  0  0
   59.7400   23.0880   45.6640 F   0  0  0  0  0  0  0  0  0  0  0  0
   57.0440   27.3700   45.3950 N   0  0  0  0  0  0  0  0  0  0  0  0
   56.7190   28.6140   44.9500 C   0  0  0  0  0  0  0  0  0  0  0  0
   55.5210   29.0270   44.9660 O   0  0  0  0  0  0  0  0  0  0  0  0
   59.4237   28.7950   49.1828 H   0  0  0  0  0  0  0  0  0  0  0  0
   58.5278   28.6309   47.6346 H   0  0  0  0  0  0  0  0  0  0  0  0
   60.3239   28.6564   47.6346 H   0  0  0  0  0  0  0  0  0  0  0  0
   59.0460   30.9708   48.9195 H   0  0  0  0  0  0  0  0  0  0  0  0
   60.4261   30.8353   47.7071 H   0  0  0  0  0  0  0  0  0  0  0  0
   60.2961   32.9782   47.7202 H   0  0  0  0  0  0  0  0  0  0  0  0
   60.4796   35.2040   46.7172 H   0  0  0  0  0  0  0  0  0  0  0  0
   59.0012   35.8475   44.8000 H   0  0  0  0  0  0  0  0  0  0  0  0
   57.3744   34.1699   43.9741 H   0  0  0  0  0  0  0  0  0  0  0  0
   59.8786   29.6008   44.0877 H   0  0  0  0  0  0  0  0  0  0  0  0
   60.3190   27.3290   44.9180 H   0  0  0  0  0  0  0  0  0  0  0  0
   59.6259   25.3579   45.9577 H   0  0  0  0  0  0  0  0  0  0  0  0
   58.0668   25.4617   46.8757 H   0  0  0  0  0  0  0  0  0  0  0  0
   56.2631   25.7180   44.3037 H   0  0  0  0  0  0  0  0  0  0  0  0
   55.4172   23.8669   42.8620 H   0  0  0  0  0  0  0  0  0  0  0  0
   56.6000   21.6935   42.7592 H   0  0  0  0  0  0  0  0  0  0  0  0
   58.6742   21.3062   44.0949 H   0  0  0  0  0  0  0  0  0  0  0  0
  1  2  1  0
  2  3  1  0
  3  4  1  0
  4  5  2  0
  5  6  1  0
  6  7  2  0
  7  8  1  0
  8  9  2  0
  9 10  1  0
 10 11  1  0
 11 12  2  0
 11 13  1  0
 13 14  2  0
 14 15  1  0
 15 16  1  0
 16 17  1  0
 17 18  1  0
 18 19  2  0
 19 20  1  0
 20 21  2  0
 21 22  1  0
 22 23  2  0
 23 24  1  0
 16 25  2  0
 25 26  1  0
 26 27  2  0
  9  4  1  0
 26 13  1  0
 23 18  1  0
  1 28  1  0
  1 29  1  0
  1 30  1  0
  2 31  1  0
  2 32  1  0
  5 33  1  0
  6 34  1  0
  7 35  1  0
  8 36  1  0
 14 37  1  0
 15 38  1  0
 17 39  1  0
 17 40  1  0
 19 41  1  0
 20 42  1  0
 21 43  1  0
 22 44  1  0
M  END
>  <smiles>  (79) 
CCOc1ccccc1OC(=O)c1c[nH]c(Cc2ccccc2F)nc1=O

>  <score_type>  (79) 
oracle

>  <origin>  (79) 
adg

>  <m_score__min__energy>  (79) 
-7.7999999999999998

>  <m_primary>  (79) 
energy

$$$$
79:0
     RDKit          3D

 45 47  0  0  0  0  0  0  0  0999 V2000
   59.2120   32.4340   48.8980 O   0  0  0  0  0  0  0  0  0  0  0  0
   59.9390   33.4240   48.6080 C   0  0  0  0  0  0  0  0  0  0  0  0
   59.3390   34.7050   48.3790 N   0  0  0  0  0  0  0  0  0  0  0  0
   59.2740   35.3420   47.0690 C   0  0  0  0  0  0  0  0  0  0  0  0
   58.6030   34.4160   46.0930 C   0  0  0  0  0  0  0  0  0  0  0  0
   57.4070   33.7660   46.4360 C   0  0  0  0  0  0  0  0  0  0  0  0
   56.8760   32.7840   45.5970 C   0  0  0  0  0  0  0  0  0  0  0  0
   57.5310   32.4410   44.4080 C   0  0  0  0  0  0  0  0  0  0  0  0
   56.9570   31.0640   43.4740 S   0  0  0  0  0  0  0  0  0  0  0  0
   55.5580   30.7320   43.9080 O   0  0  0  0  0  0  0  0  0  0  0  0
   56.9540   31.3780   42.0040 O   0  0  0  0  0  0  0  0  0  0  0  0
   57.9970   29.7100   43.7740 N   0  0  0  0  0  0  0  0  0  0  0  0
   58.5080   29.4350   45.0880 C   0  0  0  0  0  0  0  0  0  0  0  0
   59.6940   30.0600   45.5090 C   0  0  0  0  0  0  0  0  0  0  0  0
   60.2390   29.7850   46.7640 C   0  0  0  0  0  0  0  0  0  0  0  0
   59.6140   28.8700   47.6090 C   0  0  0  0  0  0  0  0  0  0  0  0
   58.4330   28.2410   47.2110 C   0  0  0  0  0  0  0  0  0  0  0  0
   57.8560   28.5210   45.9560 C   0  0  0  0  0  0  0  0  0  0  0  0
   56.5570   27.8880   45.6180 C   0  0  0  0  0  0  0  0  0  0  0  0
   55.5900   28.5780   45.1970 O   0  0  0  0  0  0  0  0  0  0  0  0
   56.3750   26.5230   45.8100 O   0  0  0  0  0  0  0  0  0  0  0  0
   58.7070   33.1120   44.0460 C   0  0  0  0  0  0  0  0  0  0  0  0
   59.2400   34.0930   44.8850 C   0  0  0  0  0  0  0  0  0  0  0  0
   61.4050   33.2540   48.4850 C   0  0  0  0  0  0  0  0  0  0  0  0
   62.2440   33.4520   49.5970 C   0  0  0  0  0  0  0  0  0  0  0  0
   63.6300   33.3180   49.4700 C   0  0  0  0  0  0  0  0  0  0  0  0
   64.1910   32.9830   48.2370 C   0  0  0  0  0  0  0  0  0  0  0  0
   63.3700   32.7840   47.1280 C   0  0  0  0  0  0  0  0  0  0  0  0
   61.9840   32.9190   47.2470 C   0  0  0  0  0  0  0  0  0  0  0  0
   58.6975   36.2759   47.1438 H   0  0  0  0  0  0  0  0  0  0  0  0
   60.2927   35.5663   46.7199 H   0  0  0  0  0  0  0  0  0  0  0  0
   56.8866   34.0309   47.3682 H   0  0  0  0  0  0  0  0  0  0  0  0
   55.9389   32.2776   45.8715 H   0  0  0  0  0  0  0  0  0  0  0  0
   58.1440   29.0230   43.0010 H   0  0  0  0  0  0  0  0  0  0  0  0
   60.1987   30.7742   44.8417 H   0  0  0  0  0  0  0  0  0  0  0  0
   61.1615   30.2903   47.0860 H   0  0  0  0  0  0  0  0  0  0  0  0
   60.0523   28.6428   48.5920 H   0  0  0  0  0  0  0  0  0  0  0  0
   57.9475   27.5191   47.8841 H   0  0  0  0  0  0  0  0  0  0  0  0
   59.2109   32.8656   43.0997 H   0  0  0  0  0  0  0  0  0  0  0  0
   60.1643   34.6154   44.5973 H   0  0  0  0  0  0  0  0  0  0  0  0
   61.8070   33.7137   50.5720 H   0  0  0  0  0  0  0  0  0  0  0  0
   64.2793   33.4769   50.3436 H   0  0  0  0  0  0  0  0  0  0  0  0
   65.2815   32.8759   48.1400 H   0  0  0  0  0  0  0  0  0  0  0  0
   63.8141   32.5201   46.1569 H   0  0  0  0  0  0  0  0  0  0  0  0
   61.3419   32.7624   46.3677 H   0  0  0  0  0  0  0  0  0  0  0  0
  1  2  2  0
  2  3  1  0
  3  4  1  0
  4  5  1  0
  5  6  2  0
  6  7  1  0
  7  8  2  0
  8  9  1  0
  9 10  2  0
  9 11  2  0
  9 12  1  0
 12 13  1  0
 13 14  2  0
 14 15  1  0
 15 16  2  0
 16 17  1  0
 17 18  2  0
 18 19  1  0
 19 20  2  0
 19 21  1  0
  8 22  1  0
 22 23  2  0
  2 24  1  0
 24 25  2  0
 25 26  1  0
 26 27  2  0
 27 28  1  0
 28 29  2  0
 23  5  1  0
 29 24  1  0
 18 13  1  0
  4 30  1  0
  4 31  1  0
  6 32  1  0
  7 33  1  0
 12 34  1  0
 14 35  1  0
 15 36  1  0
 16 37  1  0
 17 38  1  0
 22 39  1  0
 23 40  1  0
 25 41  1  0
 26 42  1  0
 27 43  1  0
 28 44  1  0
 29 45  1  0
M  CHG  2   3  -1  21  -1
M  END
>  <UniqueID>  (80) 
76

>  <SMILES>  (80) 
O=C([N-]Cc1ccc(S(=O)(=O)Nc2ccccc2C(=O)[O-])cc1)c1ccccc1

>  <Energy>  (80) 
52.41516987374254

>  <Genealogy>  (80) 
O=C([N-]Cc1ccc(S(=O)(=O)Nc2ccccc2C(=O)[O-])cc1)c1ccccc1 (protonated)
O=C([N-]Cc1ccc(S(=O)(=O)Nc2ccccc2C(=O)[O-])cc1)c1ccccc1 (3D coordinates assigned)
O=C([N-]Cc1ccc(S(=O)(=O)Nc2ccccc2C(=O)[O-])cc1)c1ccccc1 (optimized conformer: 52.41516987374254 kcal/mol)

>  <smiles>  (80) 
O=C(NCc1ccc(S(=O)(=O)Nc2ccccc2C(=O)O)cc1)c1ccccc1

>  <score_type>  (80) 
oracle

>  <origin>  (80) 
adg

>  <m_score__min__energy>  (80) 
-14.24

>  <m_primary>  (80) 
energy

$$$$
80:0
     RDKit          3D

 61 63  0  0  0  0  0  0  0  0999 V2000
   59.2180   25.9810   46.8880 C   0  0  0  0  0  0  0  0  0  0  0  0
   58.5760   27.2840   46.4780 C   0  0  0  0  0  0  0  0  0  0  0  0
   57.4550   27.2360   45.6370 C   0  0  0  0  0  0  0  0  0  0  0  0
   56.8680   28.3840   45.2250 N   0  0  0  0  0  0  0  0  0  0  0  0
   57.3410   29.5980   45.6060 C   0  0  0  0  0  0  0  0  0  0  0  0
   56.7870   30.6920   45.1750 N   0  0  0  0  0  0  0  0  0  0  0  0
   57.4670   31.7000   44.3630 C   0  0  0  0  0  0  0  0  0  0  0  0
   57.0970   33.1000   44.8530 C   0  0  0  0  0  0  0  0  0  0  0  0
   58.1100   33.6110   45.8440 C   0  0  0  0  0  0  0  0  0  0  0  0
   59.1530   34.4540   45.4240 C   0  0  0  0  0  0  0  0  0  0  0  0
   60.0660   34.9610   46.3550 C   0  0  0  0  0  0  0  0  0  0  0  0
   59.9380   34.6390   47.7090 C   0  0  0  0  0  0  0  0  0  0  0  0
   58.8940   33.8160   48.1370 C   0  0  0  0  0  0  0  0  0  0  0  0
   57.9790   33.3070   47.2100 C   0  0  0  0  0  0  0  0  0  0  0  0
   58.4470   29.6620   46.4660 C   0  0  0  0  0  0  0  0  0  0  0  0
   58.8880   30.7930   46.8240 O   0  0  0  0  0  0  0  0  0  0  0  0
   59.0430   28.5060   46.9150 N   0  0  0  0  0  0  0  0  0  0  0  0
   60.1990   28.6130   47.8320 C   0  0  0  0  0  0  0  0  0  0  0  0
   59.7410   28.9460   49.2220 C   0  0  0  0  0  0  0  0  0  0  0  0
   60.3820   28.5060   50.2140 O   0  0  0  0  0  0  0  0  0  0  0  0
   58.5650   29.7410   49.4180 N   0  0  0  0  0  0  0  0  0  0  0  0
   58.2410   30.3500   50.7050 C   0  0  0  0  0  0  0  0  0  0  0  0
   59.1220   31.5390   50.9500 C   0  0  0  0  0  0  0  0  0  0  0  0
   58.6070   32.6880   51.0120 O   0  0  0  0  0  0  0  0  0  0  0  0
   60.5390   31.3590   51.1080 N   0  0  0  0  0  0  0  0  0  0  0  0
   61.4790   32.4350   51.2230 C   0  0  0  0  0  0  0  0  0  0  0  0
   61.1170   33.6300   51.0370 O   0  0  0  0  0  0  0  0  0  0  0  0
   62.8110   32.1410   51.5300 O   0  0  0  0  0  0  0  0  0  0  0  0
   63.7130   31.5710   50.5880 C   0  0  0  0  0  0  0  0  0  0  0  0
   63.4180   32.1260   49.2250 C   0  0  0  0  0  0  0  0  0  0  0  0
   62.4800   31.4950   48.3900 C   0  0  0  0  0  0  0  0  0  0  0  0
   62.1770   32.0380   47.1370 C   0  0  0  0  0  0  0  0  0  0  0  0
   62.7980   33.2180   46.7150 C   0  0  0  0  0  0  0  0  0  0  0  0
   63.7190   33.8590   47.5480 C   0  0  0  0  0  0  0  0  0  0  0  0
   64.0250   33.3200   48.8020 C   0  0  0  0  0  0  0  0  0  0  0  0
   59.2494   25.9172   47.9857 H   0  0  0  0  0  0  0  0  0  0  0  0
   58.6306   25.1411   46.4886 H   0  0  0  0  0  0  0  0  0  0  0  0
   60.2419   25.9351   46.4886 H   0  0  0  0  0  0  0  0  0  0  0  0
   57.0526   26.2652   45.3120 H   0  0  0  0  0  0  0  0  0  0  0  0
   58.5551   31.5608   44.4448 H   0  0  0  0  0  0  0  0  0  0  0  0
   57.1556   31.5898   43.3138 H   0  0  0  0  0  0  0  0  0  0  0  0
   57.0592   33.7839   43.9923 H   0  0  0  0  0  0  0  0  0  0  0  0
   56.1164   33.0497   45.3489 H   0  0  0  0  0  0  0  0  0  0  0  0
   59.2518   34.7160   44.3602 H   0  0  0  0  0  0  0  0  0  0  0  0
   60.8857   35.6140   46.0209 H   0  0  0  0  0  0  0  0  0  0  0  0
   60.6604   35.0342   48.4384 H   0  0  0  0  0  0  0  0  0  0  0  0
   58.7914   33.5680   49.2038 H   0  0  0  0  0  0  0  0  0  0  0  0
   57.1530   32.6658   47.5514 H   0  0  0  0  0  0  0  0  0  0  0  0
   60.7373   27.6539   47.8487 H   0  0  0  0  0  0  0  0  0  0  0  0
   60.8619   29.4150   47.4752 H   0  0  0  0  0  0  0  0  0  0  0  0
   57.9540   29.9590   48.5990 H   0  0  0  0  0  0  0  0  0  0  0  0
   57.1891   30.6716   50.7006 H   0  0  0  0  0  0  0  0  0  0  0  0
   58.4037   29.6112   51.5036 H   0  0  0  0  0  0  0  0  0  0  0  0
   60.9150   30.3860   51.1450 H   0  0  0  0  0  0  0  0  0  0  0  0
   64.7465   31.8198   50.8709 H   0  0  0  0  0  0  0  0  0  0  0  0
   63.5931   30.4776   50.5760 H   0  0  0  0  0  0  0  0  0  0  0  0
   61.9829   30.5718   48.7226 H   0  0  0  0  0  0  0  0  0  0  0  0
   61.4491   31.5361   46.4825 H   0  0  0  0  0  0  0  0  0  0  0  0
   62.5615   33.6414   45.7277 H   0  0  0  0  0  0  0  0  0  0  0  0
   64.2042   34.7891   47.2170 H   0  0  0  0  0  0  0  0  0  0  0  0
   64.7431   33.8327   49.4588 H   0  0  0  0  0  0  0  0  0  0  0  0
  1  2  1  0
  2  3  2  0
  3  4  1  0
  4  5  1  0
  5  6  2  3
  6  7  1  0
  7  8  1  0
  8  9  1  0
  9 10  2  0
 10 11  1  0
 11 12  2  0
 12 13  1  0
 13 14  2  0
  5 15  1  0
 15 16  2  0
 15 17  1  0
 17 18  1  0
 18 19  1  0
 19 20  2  0
 19 21  1  0
 21 22  1  0
 22 23  1  0
 23 24  2  0
 23 25  1  0
 25 26  1  0
 26 27  2  0
 26 28  1  0
 28 29  1  0
 29 30  1  0
 30 31  2  0
 31 32  1  0
 32 33  2  0
 33 34  1  0
 34 35  2  0
 17  2  1  0
 35 30  1  0
 14  9  1  0
  1 36  1  0
  1 37  1  0
  1 38  1  0
  3 39  1  0
  7 40  1  0
  7 41  1  0
  8 42  1  0
  8 43  1  0
 10 44  1  0
 11 45  1  0
 12 46  1  0
 13 47  1  0
 14 48  1  0
 18 49  1  0
 18 50  1  0
 21 51  1  0
 22 52  1  0
 22 53  1  0
 25 54  1  0
 29 55  1  0
 29 56  1  0
 31 57  1  0
 32 58  1  0
 33 59  1  0
 34 60  1  0
 35 61  1  0
M  CHG  1   4  -1
M  END
>  <UniqueID>  (81) 
77

>  <SMILES>  (81) 
Cc1c[n-]c(=NCCc2ccccc2)c(=O)n1CC(=O)NCC(=O)NC(=O)OCc1ccccc1

>  <Energy>  (81) 
56.4267614440944

>  <Genealogy>  (81) 
Cc1c[n-]c(=NCCc2ccccc2)c(=O)n1CC(=O)NCC(=O)NC(=O)OCc1ccccc1 (protonated)
Cc1c[n-]c(=NCCc2ccccc2)c(=O)n1CC(=O)NCC(=O)NC(=O)OCc1ccccc1 (3D coordinates assigned)
Cc1c[n-]c(=NCCc2ccccc2)c(=O)n1CC(=O)NCC(=O)NC(=O)OCc1ccccc1 (optimized conformer: 56.4267614440944 kcal/mol)

>  <smiles>  (81) 
Cc1c[nH]c(=NCCc2ccccc2)c(=O)n1CC(=O)NCC(=O)NC(=O)OCc1ccccc1

>  <score_type>  (81) 
oracle

>  <origin>  (81) 
adg

>  <m_score__min__energy>  (81) 
-10.49

>  <m_primary>  (81) 
energy

$$$$
81:0
     RDKit          3D

 42 44  0  0  0  0  0  0  0  0999 V2000
   62.9060   34.4780   49.0730 C   0  0  0  0  0  0  0  0  0  0  0  0
   62.3730   33.1750   48.5570 C   0  0  0  0  0  0  0  0  0  0  0  0
   61.9080   33.0740   47.2360 C   0  0  0  0  0  0  0  0  0  0  0  0
   61.3820   31.8700   46.7630 C   0  0  0  0  0  0  0  0  0  0  0  0
   61.2990   30.7520   47.6090 C   0  0  0  0  0  0  0  0  0  0  0  0
   60.7640   29.4490   47.0870 C   0  0  0  0  0  0  0  0  0  0  0  0
   60.2890   29.5910   45.3260 S   0  0  0  0  0  0  0  0  0  0  0  0
   58.7360   28.6820   45.4940 C   0  0  0  0  0  0  0  0  0  0  0  0
   58.7820   27.4380   46.0470 N   0  0  0  0  0  0  0  0  0  0  0  0
   57.6540   26.7080   46.2380 C   0  0  0  0  0  0  0  0  0  0  0  0
   57.7200   25.5690   46.7710 O   0  0  0  0  0  0  0  0  0  0  0  0
   56.4260   27.2230   45.8450 C   0  0  0  0  0  0  0  0  0  0  0  0
   56.3840   28.4780   45.2460 C   0  0  0  0  0  0  0  0  0  0  0  0
   55.1480   28.9770   44.8390 O   0  0  0  0  0  0  0  0  0  0  0  0
   57.5360   29.2030   45.0600 N   0  0  0  0  0  0  0  0  0  0  0  0
   57.4770   30.5120   44.3770 C   0  0  0  0  0  0  0  0  0  0  0  0
   57.8430   31.6400   45.3100 C   0  0  0  0  0  0  0  0  0  0  0  0
   57.9740   32.9510   44.8200 C   0  0  0  0  0  0  0  0  0  0  0  0
   58.3180   33.9960   45.6820 C   0  0  0  0  0  0  0  0  0  0  0  0
   58.5210   33.7460   47.0410 C   0  0  0  0  0  0  0  0  0  0  0  0
   58.8560   34.7610   47.8750 F   0  0  0  0  0  0  0  0  0  0  0  0
   58.3750   32.4490   47.5420 C   0  0  0  0  0  0  0  0  0  0  0  0
   58.0320   31.4010   46.6830 C   0  0  0  0  0  0  0  0  0  0  0  0
   61.7450   30.8600   48.9360 C   0  0  0  0  0  0  0  0  0  0  0  0
   62.2740   32.0640   49.4080 C   0  0  0  0  0  0  0  0  0  0  0  0
   62.9012   34.4663   50.1729 H   0  0  0  0  0  0  0  0  0  0  0  0
   63.9352   34.6218   48.7123 H   0  0  0  0  0  0  0  0  0  0  0  0
   62.2726   35.3019   48.7123 H   0  0  0  0  0  0  0  0  0  0  0  0
   61.9583   33.9481   46.5701 H   0  0  0  0  0  0  0  0  0  0  0  0
   61.0311   31.7969   45.7231 H   0  0  0  0  0  0  0  0  0  0  0  0
   61.5395   28.6755   47.1888 H   0  0  0  0  0  0  0  0  0  0  0  0
   59.8706   29.1794   47.6694 H   0  0  0  0  0  0  0  0  0  0  0  0
   59.7020   27.0390   46.3420 H   0  0  0  0  0  0  0  0  0  0  0  0
   55.5017   26.6483   46.0046 H   0  0  0  0  0  0  0  0  0  0  0  0
   58.1800   30.5056   43.5310 H   0  0  0  0  0  0  0  0  0  0  0  0
   56.4461   30.6732   44.0286 H   0  0  0  0  0  0  0  0  0  0  0  0
   57.8049   33.1555   43.7525 H   0  0  0  0  0  0  0  0  0  0  0  0
   58.4291   35.0175   45.2893 H   0  0  0  0  0  0  0  0  0  0  0  0
   58.5302   32.2530   48.6132 H   0  0  0  0  0  0  0  0  0  0  0  0
   57.9092   30.3837   47.0831 H   0  0  0  0  0  0  0  0  0  0  0  0
   61.6775   29.9917   49.6079 H   0  0  0  0  0  0  0  0  0  0  0  0
   62.6143   32.1411   50.4512 H   0  0  0  0  0  0  0  0  0  0  0  0
  1  2  1  0
  2  3  2  0
  3  4  1  0
  4  5  2  0
  5  6  1  0
  6  7  1  0
  7  8  1  0
  8  9  2  0
  9 10  1  0
 10 11  2  0
 10 12  1  0
 12 13  2  0
 13 14  1  0
 13 15  1  0
 15 16  1  0
 16 17  1  0
 17 18  2  0
 18 19  1  0
 19 20  2  0
 20 21  1  0
 20 22  1  0
 22 23  2  0
  5 24  1  0
 24 25  2  0
 25  2  1  0
 15  8  1  0
 23 17  1  0
  1 26  1  0
  1 27  1  0
  1 28  1  0
  3 29  1  0
  4 30  1  0
  6 31  1  0
  6 32  1  0
  9 33  1  0
 12 34  1  0
 16 35  1  0
 16 36  1  0
 18 37  1  0
 19 38  1  0
 22 39  1  0
 23 40  1  0
 24 41  1  0
 25 42  1  0
M  CHG  2   9   1  14  -1
M  END
>  <UniqueID>  (82) 
78

>  <SMILES>  (82) 
Cc1ccc(CSc2[nH+]c(=O)cc([O-])n2Cc2ccc(F)cc2)cc1

>  <Energy>  (82) 
41.44870694176085

>  <Genealogy>  (82) 
Cc1ccc(CSc2[nH+]c(=O)cc([O-])n2Cc2ccc(F)cc2)cc1 (protonated)
Cc1ccc(CSc2[nH+]c(=O)cc([O-])n2Cc2ccc(F)cc2)cc1 (3D coordinates assigned)
Cc1ccc(CSc2[nH+]c(=O)cc([O-])n2Cc2ccc(F)cc2)cc1 (optimized conformer: 41.44870694176085 kcal/mol)

>  <smiles>  (82) 
Cc1ccc(CSc2nc(=O)cc(O)n2Cc2ccc(F)cc2)cc1

>  <score_type>  (82) 
oracle

>  <origin>  (82) 
adg

>  <m_score__min__energy>  (82) 
-9.0700000000000003

>  <m_primary>  (82) 
energy

$$$$
82:0
     RDKit          3D

 60 62  0  0  0  0  0  0  0  0999 V2000
   54.3430   30.5020   52.0180 C   0  0  0  0  0  0  0  0  0  0  0  0
   55.5800   29.8060   52.1440 O   0  0  0  0  0  0  0  0  0  0  0  0
   56.8430   30.4010   52.0020 C   0  0  0  0  0  0  0  0  0  0  0  0
   57.9450   29.7750   52.5980 C   0  0  0  0  0  0  0  0  0  0  0  0
   59.2230   30.3310   52.4870 C   0  0  0  0  0  0  0  0  0  0  0  0
   59.4130   31.5240   51.7780 C   0  0  0  0  0  0  0  0  0  0  0  0
   61.0210   32.2330   51.6180 S   0  0  0  0  0  0  0  0  0  0  0  0
   60.8790   33.7050   51.3480 O   0  0  0  0  0  0  0  0  0  0  0  0
   61.7980   32.0530   52.8930 O   0  0  0  0  0  0  0  0  0  0  0  0
   61.8700   31.4850   50.2940 N   0  0  0  0  0  0  0  0  0  0  0  0
   61.4630   30.0870   50.1320 C   0  0  0  0  0  0  0  0  0  0  0  0
   60.4340   29.9720   49.0550 C   0  0  0  0  0  0  0  0  0  0  0  0
   59.7750   28.9050   48.9360 O   0  0  0  0  0  0  0  0  0  0  0  0
   60.2170   31.0500   48.1900 O   0  0  0  0  0  0  0  0  0  0  0  0
   61.1420   31.4610   47.1820 C   0  0  0  0  0  0  0  0  0  0  0  0
   61.6010   32.8950   47.3930 C   0  0  0  0  0  0  0  0  0  0  0  0
   62.2210   33.4480   46.4940 O   0  0  0  0  0  0  0  0  0  0  0  0
   61.3580   33.6290   48.6310 N   0  0  0  0  0  0  0  0  0  0  0  0
   60.0290   34.2960   48.6120 C   0  0  0  0  0  0  0  0  0  0  0  0
   59.2810   34.1530   47.3010 C   0  0  0  0  0  0  0  0  0  0  0  0
   59.6030   34.9660   46.2000 C   0  0  0  0  0  0  0  0  0  0  0  0
   58.9080   34.8300   44.9940 C   0  0  0  0  0  0  0  0  0  0  0  0
   57.8770   33.8920   44.8820 C   0  0  0  0  0  0  0  0  0  0  0  0
   57.5330   33.0980   45.9790 C   0  0  0  0  0  0  0  0  0  0  0  0
   58.2260   33.2320   47.1860 C   0  0  0  0  0  0  0  0  0  0  0  0
   62.4750   34.5400   49.0020 C   0  0  0  0  0  0  0  0  0  0  0  0
   63.5970   33.8390   49.7450 C   0  0  0  0  0  0  0  0  0  0  0  0
   63.8580   34.1490   51.0920 C   0  0  0  0  0  0  0  0  0  0  0  0
   64.9030   33.5190   51.7740 C   0  0  0  0  0  0  0  0  0  0  0  0
   65.7100   32.5900   51.1140 C   0  0  0  0  0  0  0  0  0  0  0  0
   65.4820   32.3000   49.7670 C   0  0  0  0  0  0  0  0  0  0  0  0
   64.4390   32.9280   49.0800 C   0  0  0  0  0  0  0  0  0  0  0  0
   58.3170   32.1530   51.1770 C   0  0  0  0  0  0  0  0  0  0  0  0
   57.0370   31.5980   51.2870 C   0  0  0  0  0  0  0  0  0  0  0  0
   53.9448   30.7261   53.0186 H   0  0  0  0  0  0  0  0  0  0  0  0
   54.5051   31.4414   51.4691 H   0  0  0  0  0  0  0  0  0  0  0  0
   53.6242   29.8759   51.4691 H   0  0  0  0  0  0  0  0  0  0  0  0
   57.8039   28.8386   53.1578 H   0  0  0  0  0  0  0  0  0  0  0  0
   60.0818   29.8301   52.9578 H   0  0  0  0  0  0  0  0  0  0  0  0
   62.3409   29.4817   49.8622 H   0  0  0  0  0  0  0  0  0  0  0  0
   61.0347   29.7253   51.0784 H   0  0  0  0  0  0  0  0  0  0  0  0
   62.0191   30.7978   47.2109 H   0  0  0  0  0  0  0  0  0  0  0  0
   60.6361   31.4022   46.2070 H   0  0  0  0  0  0  0  0  0  0  0  0
   61.3090   32.8970   49.3770 H   0  0  0  0  0  0  0  0  0  0  0  0
   59.4120   33.8587   49.4108 H   0  0  0  0  0  0  0  0  0  0  0  0
   60.2126   35.3710   48.7558 H   0  0  0  0  0  0  0  0  0  0  0  0
   60.4058   35.7129   46.2876 H   0  0  0  0  0  0  0  0  0  0  0  0
   59.1726   35.4614   44.1330 H   0  0  0  0  0  0  0  0  0  0  0  0
   57.3369   33.7792   43.9304 H   0  0  0  0  0  0  0  0  0  0  0  0
   56.7159   32.3665   45.8930 H   0  0  0  0  0  0  0  0  0  0  0  0
   57.9437   32.6130   48.0504 H   0  0  0  0  0  0  0  0  0  0  0  0
   62.8868   34.9807   48.0821 H   0  0  0  0  0  0  0  0  0  0  0  0
   62.0629   35.3038   49.6778 H   0  0  0  0  0  0  0  0  0  0  0  0
   63.2357   34.8921   51.6121 H   0  0  0  0  0  0  0  0  0  0  0  0
   65.0898   33.7554   52.8319 H   0  0  0  0  0  0  0  0  0  0  0  0
   66.5250   32.0868   51.6548 H   0  0  0  0  0  0  0  0  0  0  0  0
   66.1248   31.5756   49.2453 H   0  0  0  0  0  0  0  0  0  0  0  0
   64.2755   32.7091   48.0145 H   0  0  0  0  0  0  0  0  0  0  0  0
   58.4622   33.0878   50.6156 H   0  0  0  0  0  0  0  0  0  0  0  0
   56.1798   32.0987   50.8132 H   0  0  0  0  0  0  0  0  0  0  0  0
  1  2  1  0
  2  3  1  0
  3  4  2  0
  4  5  1  0
  5  6  2  0
  6  7  1  0
  7  8  2  0
  7  9  2  0
  7 10  1  0
 10 11  1  0
 11 12  1  0
 12 13  2  0
 12 14  1  0
 14 15  1  0
 15 16  1  0
 16 17  2  0
 16 18  1  0
 18 19  1  0
 19 20  1  0
 20 21  2  0
 21 22  1  0
 22 23  2  0
 23 24  1  0
 24 25  2  0
 18 26  1  0
 26 27  1  0
 27 28  2  0
 28 29  1  0
 29 30  2  0
 30 31  1  0
 31 32  2  0
  6 33  1  0
 33 34  2  0
 34  3  1  0
 25 20  1  0
 32 27  1  0
  1 35  1  0
  1 36  1  0
  1 37  1  0
  4 38  1  0
  5 39  1  0
 11 40  1  0
 11 41  1  0
 15 42  1  0
 15 43  1  0
 18 44  1  0
 19 45  1  0
 19 46  1  0
 21 47  1  0
 22 48  1  0
 23 49  1  0
 24 50  1  0
 25 51  1  0
 26 52  1  0
 26 53  1  0
 28 54  1  0
 29 55  1  0
 30 56  1  0
 31 57  1  0
 32 58  1  0
 33 59  1  0
 34 60  1  0
M  CHG  2  10  -1  18   1
M  END
>  <UniqueID>  (83) 
79

>  <SMILES>  (83) 
COc1ccc(S(=O)(=O)[N-]CC(=O)OCC(=O)[NH+](Cc2ccccc2)Cc2ccccc2)cc1

>  <Energy>  (83) 
66.11825405773645

>  <Genealogy>  (83) 
COc1ccc(S(=O)(=O)[N-]CC(=O)OCC(=O)[NH+](Cc2ccccc2)Cc2ccccc2)cc1 (protonated)
COc1ccc(S(=O)(=O)[N-]CC(=O)OCC(=O)[NH+](Cc2ccccc2)Cc2ccccc2)cc1 (3D coordinates assigned)
COc1ccc(S(=O)(=O)[N-]CC(=O)OCC(=O)[NH+](Cc2ccccc2)Cc2ccccc2)cc1 (optimized conformer: 66.11825405773645 kcal/mol)

>  <smiles>  (83) 
COc1ccc(S(=O)(=O)NCC(=O)OCC(=O)N(Cc2ccccc2)Cc2ccccc2)cc1

>  <score_type>  (83) 
oracle

>  <origin>  (83) 
adg

>  <m_score__min__energy>  (83) 
-9.1600000000000001

>  <m_primary>  (83) 
energy

$$$$
83:0
     RDKit          3D

 42 46  0  0  0  0  0  0  0  0999 V2000
   52.5205   31.8870   53.5022 H   0  0  0  0  0  0  0  0  0  0  0  0
   52.7400   31.1380   52.7270 C   0  0  0  0  0  0  0  0  0  0  0  0
   52.0260   31.2400   51.4430 C   0  0  0  0  0  0  0  0  0  0  0  0
   52.1220   30.3150   50.4710 N   0  0  0  0  0  0  0  0  0  0  0  0
   51.3870   30.8340   49.4630 C   0  0  0  0  0  0  0  0  0  0  0  0
   51.1830   30.0680   48.0350 S   0  0  0  0  0  0  0  0  0  0  0  0
   50.8540   32.0460   49.7250 N   0  0  0  0  0  0  0  0  0  0  0  0
   51.2740   32.2960   50.9750 C   0  0  0  0  0  0  0  0  0  0  0  0
   51.0200   33.4830   51.6480 O   0  0  0  0  0  0  0  0  0  0  0  0
   53.6420   30.1860   53.0070 C   0  0  0  0  0  0  0  0  0  0  0  0
   53.4450   28.8950   53.5060 C   0  0  0  0  0  0  0  0  0  0  0  0
   52.4706   28.4669   53.7842 H   0  0  0  0  0  0  0  0  0  0  0  0
   54.6340   28.2490   53.5960 N   0  0  0  0  0  0  0  0  0  0  0  0
   55.5590   29.0940   53.1690 N   0  0  0  0  0  0  0  0  0  0  0  0
   56.8930   28.8920   53.0700 C   0  0  0  0  0  0  0  0  0  0  0  0
   57.4190   27.7580   53.4240 N   0  0  0  0  0  0  0  0  0  0  0  0
   57.8920   27.4820   54.7760 C   0  0  0  0  0  0  0  0  0  0  0  0
   58.9707   27.4882   54.5605 H   0  0  0  0  0  0  0  0  0  0  0  0
   56.9650   26.5830   55.5740 C   0  0  0  0  0  0  0  0  0  0  0  0
   56.0861   26.1312   55.0910 H   0  0  0  0  0  0  0  0  0  0  0  0
   57.0940   25.6774   56.1850 H   0  0  0  0  0  0  0  0  0  0  0  0
   56.9990   28.0800   55.8460 C   0  0  0  0  0  0  0  0  0  0  0  0
   56.1443   28.7107   55.5600 H   0  0  0  0  0  0  0  0  0  0  0  0
   57.1627   28.7057   56.7358 H   0  0  0  0  0  0  0  0  0  0  0  0
   57.6610   29.9100   52.5850 N   0  0  0  0  0  0  0  0  0  0  0  0
   57.0960   31.1020   52.2080 C   0  0  0  0  0  0  0  0  0  0  0  0
   57.9240   32.1670   51.6960 N   0  0  0  0  0  0  0  0  0  0  0  0
   58.3990   32.1180   50.3060 C   0  0  0  0  0  0  0  0  0  0  0  0
   58.6394   31.0775   50.0421 H   0  0  0  0  0  0  0  0  0  0  0  0
   57.6080   32.5037   49.6461 H   0  0  0  0  0  0  0  0  0  0  0  0
   59.6510   32.9830   50.1360 C   0  0  0  0  0  0  0  0  0  0  0  0
   60.4895   32.5121   50.6700 H   0  0  0  0  0  0  0  0  0  0  0  0
   59.8779   33.0666   49.0629 H   0  0  0  0  0  0  0  0  0  0  0  0
   59.4410   34.2800   50.6560 O   0  0  0  0  0  0  0  0  0  0  0  0
   59.2690   34.2030   52.0570 C   0  0  0  0  0  0  0  0  0  0  0  0
   60.1264   33.6726   52.4969 H   0  0  0  0  0  0  0  0  0  0  0  0
   59.2021   35.2242   52.4604 H   0  0  0  0  0  0  0  0  0  0  0  0
   57.9810   33.4520   52.4070 C   0  0  0  0  0  0  0  0  0  0  0  0
   57.9530   33.2673   53.4910 H   0  0  0  0  0  0  0  0  0  0  0  0
   57.1190   34.0644   52.1039 H   0  0  0  0  0  0  0  0  0  0  0  0
   55.7440   31.2730   52.3200 N   0  0  0  0  0  0  0  0  0  0  0  0
   55.0010   30.2500   52.8060 C   0  0  0  0  0  0  0  0  0  0  0  0
  1  2  1  0
  2  3  1  0
  3  4  1  0
  4  5  1  0
  5  6  2  0
  5  7  1  0
  7  8  1  0
  8  9  1  0
  2 10  2  3
 10 11  1  0
 11 12  1  0
 11 13  2  0
 13 14  1  0
 14 15  1  0
 15 16  2  0
 16 17  1  0
 17 18  1  0
 17 19  1  0
 19 20  1  0
 19 21  1  0
 19 22  1  0
 22 23  1  0
 22 24  1  0
 15 25  1  0
 25 26  2  0
 26 27  1  0
 27 28  1  0
 28 29  1  0
 28 30  1  0
 28 31  1  0
 31 32  1  0
 31 33  1  0
 31 34  1  0
 34 35  1  0
 35 36  1  0
 35 37  1  0
 35 38  1  0
 38 39  1  0
 38 40  1  0
 26 41  1  0
 41 42  2  0
  8  3  2  0
 42 10  1  0
 42 14  1  0
 22 17  1  0
 38 27  1  0
M  CHG  3   4  -1   7  -1   9  -1
M  END
>  <UniqueID>  (84) 
80

>  <SMILES>  (84) 
[O-]c1[n-]c(=S)[n-]c1C=c1cnn2/c(=N/C3CC3)nc(N3CCOCC3)nc12

>  <Energy>  (84) 
385.29650746449227

>  <Genealogy>  (84) 
[O-]c1[n-]c(=S)[n-]c1C=c1cnn2c(=NC3CC3)nc(N3CCOCC3)nc12 (protonated)
[O-]c1[n-]c(=S)[n-]c1C=c1cnn2/c(=N/C3CC3)nc(N3CCOCC3)nc12 (cis-trans isomerization)
[O-]c1[n-]c(=S)[n-]c1C=c1cnn2/c(=N/C3CC3)nc(N3CCOCC3)nc12 (3D coordinates assigned)
[O-]c1[n-]c(=S)[n-]c1C=c1cnn2/c(=N/C3CC3)nc(N3CCOCC3)nc12 (nonaromatic ring conformer: 385.29650746449227 kcal/mol)

>  <smiles>  (84) 
Oc1[nH]c(=S)[nH]c1C=c1cnn2c(=NC3CC3)nc(N3CCOCC3)nc12

>  <score_type>  (84) 
oracle

>  <origin>  (84) 
adg

>  <m_score__min__energy>  (84) 
-15.67

>  <m_primary>  (84) 
energy

$$$$
84:0
     RDKit          3D

 45 48  0  0  0  0  0  0  0  0999 V2000
   57.7660   26.1710   43.4870 O   0  0  0  0  0  0  0  0  0  0  0  0
   57.6760   26.5500   44.6870 C   0  0  0  0  0  0  0  0  0  0  0  0
   58.0090   27.9550   45.0290 C   0  0  0  0  0  0  0  0  0  0  0  0
   57.0630   28.9840   44.8630 C   0  0  0  0  0  0  0  0  0  0  0  0
   57.3910   30.3040   45.1800 C   0  0  0  0  0  0  0  0  0  0  0  0
   58.6680   30.6210   45.6560 C   0  0  0  0  0  0  0  0  0  0  0  0
   59.0550   32.2870   46.0790 S   0  0  0  0  0  0  0  0  0  0  0  0
   58.1350   32.7270   47.1850 O   0  0  0  0  0  0  0  0  0  0  0  0
   58.8390   33.1830   44.8900 O   0  0  0  0  0  0  0  0  0  0  0  0
   60.7150   32.3920   46.6110 N   0  0  1  0  0  0  0  0  0  0  0  0
   61.2000   33.7780   46.4750 C   0  0  0  0  0  0  0  0  0  0  0  0
   62.7030   33.8530   46.7650 C   0  0  0  0  0  0  0  0  0  0  0  0
   63.0730   33.1040   48.0180 C   0  0  0  0  0  0  0  0  0  0  0  0
   64.3390   33.3040   48.5910 C   0  0  0  0  0  0  0  0  0  0  0  0
   64.7250   32.5820   49.7230 C   0  0  0  0  0  0  0  0  0  0  0  0
   63.8540   31.6470   50.2870 C   0  0  0  0  0  0  0  0  0  0  0  0
   62.5970   31.4300   49.7180 C   0  0  0  0  0  0  0  0  0  0  0  0
   62.2040   32.1380   48.5720 C   0  0  0  0  0  0  0  0  0  0  0  0
   60.8150   31.9380   48.0120 C   0  0  0  0  0  0  0  0  0  0  0  0
   59.6180   29.6030   45.8170 C   0  0  0  0  0  0  0  0  0  0  0  0
   59.2930   28.2810   45.4990 C   0  0  0  0  0  0  0  0  0  0  0  0
   57.2330   25.5720   45.7110 C   0  0  0  0  0  0  0  0  0  0  0  0
   55.9600   25.6770   46.2970 C   0  0  0  0  0  0  0  0  0  0  0  0
   55.0990   26.7130   45.9490 O   0  0  0  0  0  0  0  0  0  0  0  0
   55.5620   24.7700   47.2260 N   0  0  0  0  0  0  0  0  0  0  0  0
   56.3720   23.7490   47.6010 C   0  0  0  0  0  0  0  0  0  0  0  0
   55.9830   22.9230   48.4660 O   0  0  0  0  0  0  0  0  0  0  0  0
   57.6010   23.6150   47.0410 N   0  0  0  0  0  0  0  0  0  0  0  0
   58.0470   24.4930   46.1060 C   0  0  0  0  0  0  0  0  0  0  0  0
   59.1830   24.3180   45.5890 O   0  0  0  0  0  0  0  0  0  0  0  0
   56.0590   28.7470   44.4812 H   0  0  0  0  0  0  0  0  0  0  0  0
   56.6411   31.0990   45.0548 H   0  0  0  0  0  0  0  0  0  0  0  0
   61.2830   31.7580   46.0000 H   0  0  0  0  0  0  0  0  0  0  0  0
   61.0115   34.1282   45.4494 H   0  0  0  0  0  0  0  0  0  0  0  0
   60.6667   34.4134   47.1974 H   0  0  0  0  0  0  0  0  0  0  0  0
   63.2508   33.4179   45.9161 H   0  0  0  0  0  0  0  0  0  0  0  0
   62.9691   34.9105   46.9097 H   0  0  0  0  0  0  0  0  0  0  0  0
   65.0313   34.0338   48.1458 H   0  0  0  0  0  0  0  0  0  0  0  0
   65.7157   32.7500   50.1705 H   0  0  0  0  0  0  0  0  0  0  0  0
   64.1582   31.0812   51.1799 H   0  0  0  0  0  0  0  0  0  0  0  0
   61.9108   30.6994   50.1711 H   0  0  0  0  0  0  0  0  0  0  0  0
   60.5639   30.8680   48.0577 H   0  0  0  0  0  0  0  0  0  0  0  0
   60.1155   32.5360   48.6146 H   0  0  0  0  0  0  0  0  0  0  0  0
   60.6224   29.8451   46.1947 H   0  0  0  0  0  0  0  0  0  0  0  0
   60.0479   27.4898   45.6175 H   0  0  0  0  0  0  0  0  0  0  0  0
  1  2  2  0
  2  3  1  0
  3  4  2  0
  4  5  1  0
  5  6  2  0
  6  7  1  0
  7  8  2  0
  7  9  2  0
  7 10  1  0
 10 11  1  0
 11 12  1  0
 12 13  1  0
 13 14  2  0
 14 15  1  0
 15 16  2  0
 16 17  1  0
 17 18  2  0
 18 19  1  0
  6 20  1  0
 20 21  2  0
  2 22  1  0
 22 23  2  0
 23 24  1  0
 23 25  1  0
 25 26  1  0
 26 27  2  0
 26 28  1  0
 28 29  1  0
 29 30  2  0
 21  3  1  0
 29 22  1  0
 19 10  1  0
 18 13  1  0
  4 31  1  0
  5 32  1  0
 10 33  1  6
 11 34  1  0
 11 35  1  0
 12 36  1  0
 12 37  1  0
 14 38  1  0
 15 39  1  0
 16 40  1  0
 17 41  1  0
 19 42  1  0
 19 43  1  0
 20 44  1  0
 21 45  1  0
M  CHG  4  10   1  24  -1  25  -1  28  -1
M  END
>  <UniqueID>  (85) 
81

>  <SMILES>  (85) 
O=C(c1ccc(S(=O)(=O)[N@H+]2CCc3ccccc3C2)cc1)c1c([O-])[n-]c(=O)[n-]c1=O

>  <Energy>  (85) 
60.31956095897329

>  <Genealogy>  (85) 
O=C(c1ccc(S(=O)(=O)[NH+]2CCc3ccccc3C2)cc1)c1c([O-])[n-]c(=O)[n-]c1=O (protonated)
O=C(c1ccc(S(=O)(=O)[N@H+]2CCc3ccccc3C2)cc1)c1c([O-])[n-]c(=O)[n-]c1=O (chirality)
O=C(c1ccc(S(=O)(=O)[N@H+]2CCc3ccccc3C2)cc1)c1c([O-])[n-]c(=O)[n-]c1=O (3D coordinates assigned)
O=C(c1ccc(S(=O)(=O)[N@H+]2CCc3ccccc3C2)cc1)c1c([O-])[n-]c(=O)[n-]c1=O (nonaromatic ring conformer: 60.31956095897329 kcal/mol)

>  <smiles>  (85) 
O=C(c1ccc(S(=O)(=O)N2CCc3ccccc3C2)cc1)c1c(O)[nH]c(=O)[nH]c1=O

>  <score_type>  (85) 
oracle

>  <origin>  (85) 
adg

>  <m_score__min__energy>  (85) 
-15.69

>  <m_primary>  (85) 
energy

$$$$
85:0
     RDKit          3D

 44 46  0  0  0  0  0  0  0  0999 V2000
   61.7960   32.6380   48.7420 H   0  0  0  0  0  0  0  0  0  0  0  0
   62.3510   31.8600   48.4740 O   0  0  0  0  0  0  0  0  0  0  0  0
   63.2610   32.3260   47.5160 C   0  0  0  0  0  0  0  0  0  0  0  0
   63.1647   31.7240   46.6004 H   0  0  0  0  0  0  0  0  0  0  0  0
   64.2813   32.2383   47.9176 H   0  0  0  0  0  0  0  0  0  0  0  0
   62.9780   33.7940   47.1880 C   0  0  0  0  0  0  0  0  0  0  0  0
   62.9200   33.9153   46.0962 H   0  0  0  0  0  0  0  0  0  0  0  0
   63.7911   34.4110   47.5981 H   0  0  0  0  0  0  0  0  0  0  0  0
   61.7450   34.2130   47.7720 O   0  0  0  0  0  0  0  0  0  0  0  0
   60.4680   34.0380   47.2100 C   0  0  0  0  0  0  0  0  0  0  0  0
   60.1540   34.4540   45.9000 C   0  0  0  0  0  0  0  0  0  0  0  0
   60.9246   34.9337   45.2787 H   0  0  0  0  0  0  0  0  0  0  0  0
   58.8690   34.2600   45.3870 C   0  0  0  0  0  0  0  0  0  0  0  0
   58.6326   34.5825   44.3623 H   0  0  0  0  0  0  0  0  0  0  0  0
   57.8850   33.6580   46.1720 C   0  0  0  0  0  0  0  0  0  0  0  0
   56.6350   33.4860   45.6770 F   0  0  0  0  0  0  0  0  0  0  0  0
   58.1850   33.2400   47.4700 C   0  0  0  0  0  0  0  0  0  0  0  0
   57.4042   32.7750   48.0897 H   0  0  0  0  0  0  0  0  0  0  0  0
   59.4820   33.4110   47.9890 C   0  0  0  0  0  0  0  0  0  0  0  0
   59.8060   33.0150   49.2960 O   0  0  0  0  0  0  0  0  0  0  0  0
   59.1630   32.0010   50.0220 C   0  0  0  0  0  0  0  0  0  0  0  0
   59.7360   30.7290   50.0510 C   0  0  0  0  0  0  0  0  0  0  0  0
   60.6772   30.5342   49.5160 H   0  0  0  0  0  0  0  0  0  0  0  0
   59.1090   29.7060   50.7620 C   0  0  0  0  0  0  0  0  0  0  0  0
   59.5674   28.7068   50.7997 H   0  0  0  0  0  0  0  0  0  0  0  0
   57.9350   29.9350   51.4090 N   0  0  0  0  0  0  0  0  0  0  0  0
   57.5270   29.1460   51.9540 H   0  0  0  0  0  0  0  0  0  0  0  0
   57.3230   31.1630   51.3660 C   0  0  0  0  0  0  0  0  0  0  0  0
   56.1890   31.3910   51.9680 N   0  0  0  0  0  0  0  0  0  0  0  0
   55.1630   30.4320   52.2610 C   0  0  0  0  0  0  0  0  0  0  0  0
   55.4840   29.2170   52.3580 O   0  0  0  0  0  0  0  0  0  0  0  0
   53.7610   30.8430   52.5290 C   0  0  0  0  0  0  0  0  0  0  0  0
   53.1220   30.4830   53.7310 C   0  0  0  0  0  0  0  0  0  0  0  0
   53.6649   29.8912   54.4827 H   0  0  0  0  0  0  0  0  0  0  0  0
   51.8020   30.8730   53.9750 C   0  0  0  0  0  0  0  0  0  0  0  0
   51.3120   30.5921   54.9189 H   0  0  0  0  0  0  0  0  0  0  0  0
   51.1040   31.6190   53.0220 C   0  0  0  0  0  0  0  0  0  0  0  0
   50.0661   31.9268   53.2168 H   0  0  0  0  0  0  0  0  0  0  0  0
   51.7240   31.9740   51.8220 C   0  0  0  0  0  0  0  0  0  0  0  0
   51.0280   32.7140   50.8730 O   0  0  0  0  0  0  0  0  0  0  0  0
   53.0450   31.5860   51.5720 C   0  0  0  0  0  0  0  0  0  0  0  0
   53.5263   31.8632   50.6225 H   0  0  0  0  0  0  0  0  0  0  0  0
   57.9390   32.2150   50.6770 C   0  0  0  0  0  0  0  0  0  0  0  0
   57.4651   33.2073   50.6488 H   0  0  0  0  0  0  0  0  0  0  0  0
  1  2  1  0
  2  3  1  0
  3  4  1  0
  3  5  1  0
  3  6  1  0
  6  7  1  0
  6  8  1  0
  6  9  1  0
  9 10  1  0
 10 11  2  0
 11 12  1  0
 11 13  1  0
 13 14  1  0
 13 15  2  0
 15 16  1  0
 15 17  1  0
 17 18  1  0
 17 19  2  0
 19 20  1  0
 20 21  1  0
 21 22  1  0
 22 23  1  0
 22 24  2  0
 24 25  1  0
 24 26  1  0
 26 27  1  0
 26 28  1  0
 28 29  2  0
 29 30  1  0
 30 31  2  0
 30 32  1  0
 32 33  2  0
 33 34  1  0
 33 35  1  0
 35 36  1  0
 35 37  2  0
 37 38  1  0
 37 39  1  0
 39 40  1  0
 39 41  2  0
 41 42  1  0
 28 43  1  0
 43 44  1  0
 19 10  1  0
 43 21  2  0
 41 32  1  0
M  CHG  1  40  -1
M  END
>  <UniqueID>  (86) 
82

>  <SMILES>  (86) 
O=C(/N=c1/cc(Oc2cc(F)ccc2OCCO)cc[nH]1)c1cccc([O-])c1

>  <Energy>  (86) 
61.90860676628936

>  <Genealogy>  (86) 
O=C(N=c1cc(Oc2cc(F)ccc2OCCO)cc[nH]1)c1cccc([O-])c1 (protonated)
O=C(/N=c1/cc(Oc2cc(F)ccc2OCCO)cc[nH]1)c1cccc([O-])c1 (cis-trans isomerization)
O=C(/N=c1/cc(Oc2cc(F)ccc2OCCO)cc[nH]1)c1cccc([O-])c1 (3D coordinates assigned)
O=C(/N=c1/cc(Oc2cc(F)ccc2OCCO)cc[nH]1)c1cccc([O-])c1 (optimized conformer: 61.90860676628936 kcal/mol)

>  <smiles>  (86) 
O=C(N=c1cc(Oc2cc(F)ccc2OCCO)cc[nH]1)c1cccc(O)c1

>  <score_type>  (86) 
oracle

>  <origin>  (86) 
adg

>  <m_score__min__energy>  (86) 
-12.94

>  <m_primary>  (86) 
energy

$$$$
86:0
     RDKit          3D

 57 60  0  0  0  0  0  0  0  0999 V2000
   59.3923   28.9335   43.9552 H   0  0  0  0  0  0  0  0  0  0  0  0
   59.4630   28.4610   44.9460 C   0  0  0  0  0  0  0  0  0  0  0  0
   60.3570   28.9350   45.8260 C   0  0  0  0  0  0  0  0  0  0  0  0
   61.3936   29.0789   45.4873 H   0  0  0  0  0  0  0  0  0  0  0  0
   60.0250   29.2760   47.2310 C   0  0  0  0  0  0  0  0  0  0  0  0
   60.0010   28.3130   48.2550 C   0  0  0  0  0  0  0  0  0  0  0  0
   60.2092   27.2592   48.0182 H   0  0  0  0  0  0  0  0  0  0  0  0
   59.7150   28.6840   49.5700 C   0  0  0  0  0  0  0  0  0  0  0  0
   59.7065   27.9195   50.3609 H   0  0  0  0  0  0  0  0  0  0  0  0
   59.4380   30.0220   49.8950 C   0  0  0  0  0  0  0  0  0  0  0  0
   59.1520   30.4160   51.2520 N   0  0  0  0  0  0  0  0  0  0  0  0
   59.9350   30.4890   51.9410 H   0  0  0  0  0  0  0  0  0  0  0  0
   57.5970   30.9570   51.8000 S   0  0  0  0  0  0  0  0  0  0  0  0
   57.0490   31.9890   50.8560 O   0  0  0  0  0  0  0  0  0  0  0  0
   56.6590   29.7840   51.8320 O   0  0  0  0  0  0  0  0  0  0  0  0
   57.7210   31.6240   53.4460 C   0  0  0  0  0  0  0  0  0  0  0  0
   57.5713   30.8187   54.1802 H   0  0  0  0  0  0  0  0  0  0  0  0
   58.7172   32.0686   53.5874 H   0  0  0  0  0  0  0  0  0  0  0  0
   56.9512   32.3969   53.5874 H   0  0  0  0  0  0  0  0  0  0  0  0
   59.4600   30.9950   48.8760 C   0  0  0  0  0  0  0  0  0  0  0  0
   59.2020   32.3340   49.2100 O   0  0  0  0  0  0  0  0  0  0  0  0
   59.6150   33.4490   48.4680 C   0  0  0  0  0  0  0  0  0  0  0  0
   60.5640   34.1780   48.8660 O   0  0  0  0  0  0  0  0  0  0  0  0
   58.9700   33.7300   47.1810 C   0  0  0  0  0  0  0  0  0  0  0  0
   59.6340   34.6590   45.9470 S   0  0  0  0  0  0  0  0  0  0  0  0
   58.3420   34.5010   44.8810 C   0  0  0  0  0  0  0  0  0  0  0  0
   58.2767   34.9453   43.8769 H   0  0  0  0  0  0  0  0  0  0  0  0
   57.3720   33.7130   45.4870 C   0  0  0  0  0  0  0  0  0  0  0  0
   56.4194   33.4533   45.0021 H   0  0  0  0  0  0  0  0  0  0  0  0
   57.7190   33.2800   46.7720 C   0  0  0  0  0  0  0  0  0  0  0  0
   57.0687   32.6483   47.3949 H   0  0  0  0  0  0  0  0  0  0  0  0
   59.7730   30.6170   47.5580 C   0  0  0  0  0  0  0  0  0  0  0  0
   59.8210   31.3845   46.7714 H   0  0  0  0  0  0  0  0  0  0  0  0
   58.5690   27.3260   45.2600 C   0  0  0  0  0  0  0  0  0  0  0  0
   59.0520   26.0560   45.3160 N   0  0  0  0  0  0  0  0  0  0  0  0
   58.2630   24.9870   45.6040 C   0  0  0  0  0  0  0  0  0  0  0  0
   58.8300   23.7120   45.6450 C   0  0  0  0  0  0  0  0  0  0  0  0
   59.9045   23.5878   45.4448 H   0  0  0  0  0  0  0  0  0  0  0  0
   58.0490   22.5940   45.9370 C   0  0  0  0  0  0  0  0  0  0  0  0
   58.6750   21.3380   45.9640 O   0  0  0  0  0  0  0  0  0  0  0  0
   58.0590   20.1390   46.4210 C   0  0  0  0  0  0  0  0  0  0  0  0
   58.0525   20.1263   47.5209 H   0  0  0  0  0  0  0  0  0  0  0  0
   57.0253   20.0925   46.0476 H   0  0  0  0  0  0  0  0  0  0  0  0
   58.6231   19.2716   46.0476 H   0  0  0  0  0  0  0  0  0  0  0  0
   56.6760   22.7590   46.1940 C   0  0  0  0  0  0  0  0  0  0  0  0
   56.0584   21.8789   46.4264 H   0  0  0  0  0  0  0  0  0  0  0  0
   56.0800   24.0360   46.1580 C   0  0  0  0  0  0  0  0  0  0  0  0
   54.7080   24.2050   46.4150 O   0  0  0  0  0  0  0  0  0  0  0  0
   53.6720   24.0340   45.4530 C   0  0  0  0  0  0  0  0  0  0  0  0
   52.7140   23.8759   45.9700 H   0  0  0  0  0  0  0  0  0  0  0  0
   53.6046   24.9332   44.8230 H   0  0  0  0  0  0  0  0  0  0  0  0
   53.8971   23.1609   44.8230 H   0  0  0  0  0  0  0  0  0  0  0  0
   56.8830   25.1670   45.8600 C   0  0  0  0  0  0  0  0  0  0  0  0
   56.3650   26.4830   45.8060 C   0  0  0  0  0  0  0  0  0  0  0  0
   55.1460   26.7180   46.0240 O   0  0  0  0  0  0  0  0  0  0  0  0
   57.2110   27.5550   45.5060 C   0  0  0  0  0  0  0  0  0  0  0  0
   56.8090   28.5780   45.4634 H   0  0  0  0  0  0  0  0  0  0  0  0
  1  2  1  0
  2  3  2  0
  3  4  1  0
  3  5  1  0
  5  6  2  0
  6  7  1  0
  6  8  1  0
  8  9  1  0
  8 10  2  0
 10 11  1  0
 11 12  1  0
 11 13  1  0
 13 14  2  0
 13 15  2  0
 13 16  1  0
 16 17  1  0
 16 18  1  0
 16 19  1  0
 10 20  1  0
 20 21  1  0
 21 22  1  0
 22 23  2  0
 22 24  1  0
 24 25  1  0
 25 26  1  0
 26 27  1  0
 26 28  2  0
 28 29  1  0
 28 30  1  0
 30 31  1  0
 20 32  2  0
 32 33  1  0
  2 34  1  0
 34 35  1  0
 35 36  1  0
 36 37  2  0
 37 38  1  0
 37 39  1  0
 39 40  1  0
 40 41  1  0
 41 42  1  0
 41 43  1  0
 41 44  1  0
 39 45  2  0
 45 46  1  0
 45 47  1  0
 47 48  1  0
 48 49  1  0
 49 50  1  0
 49 51  1  0
 49 52  1  0
 47 53  2  0
 53 54  1  0
 54 55  2  0
 54 56  1  0
 56 57  1  0
 32  5  1  0
 56 34  2  0
 30 24  2  0
 53 36  1  0
M  CHG  1  35  -1
M  END
>  <UniqueID>  (87) 
83

>  <SMILES>  (87) 
COc1cc(OC)c2c(=O)cc(/C=C/c3ccc(NS(C)(=O)=O)c(OC(=O)c4cccs4)c3)[n-]c2c1

>  <Energy>  (87) 
97.75326291779183

>  <Genealogy>  (87) 
COc1cc(OC)c2c(=O)cc(C=Cc3ccc(NS(C)(=O)=O)c(OC(=O)c4cccs4)c3)[n-]c2c1 (protonated)
COc1cc(OC)c2c(=O)cc(/C=C/c3ccc(NS(C)(=O)=O)c(OC(=O)c4cccs4)c3)[n-]c2c1 (cis-trans isomerization)
COc1cc(OC)c2c(=O)cc(/C=C/c3ccc(NS(C)(=O)=O)c(OC(=O)c4cccs4)c3)[n-]c2c1 (3D coordinates assigned)
COc1cc(OC)c2c(=O)cc(/C=C/c3ccc(NS(C)(=O)=O)c(OC(=O)c4cccs4)c3)[n-]c2c1 (optimized conformer: 97.75326291779183 kcal/mol)

>  <smiles>  (87) 
COc1cc(OC)c2c(=O)cc(C=Cc3ccc(NS(C)(=O)=O)c(OC(=O)c4cccs4)c3)[nH]c2c1

>  <score_type>  (87) 
oracle

>  <origin>  (87) 
adg

>  <m_score__min__energy>  (87) 
-10.619999999999999

>  <m_primary>  (87) 
energy

$$$$
87:0
     RDKit          3D

 69 72  0  0  0  0  0  0  0  0999 V2000
   55.1040   28.6160   53.5110 C   0  0  0  0  0  0  0  0  0  0  0  0
   55.6100   29.3070   52.3340 N   0  0  0  0  0  0  0  0  0  0  0  0
   56.8470   30.0280   52.3370 C   0  0  0  0  0  0  0  0  0  0  0  0
   57.3550   30.3920   51.2400 O   0  0  0  0  0  0  0  0  0  0  0  0
   57.5010   30.3530   53.5840 N   0  0  0  0  0  0  0  0  0  0  0  0
   57.6470   31.7860   53.9170 C   0  0  0  0  0  0  0  0  0  0  0  0
   59.1060   32.2540   54.0570 C   0  0  0  0  0  0  0  0  0  0  0  0
   59.6620   32.8490   52.7890 C   0  0  0  0  0  0  0  0  0  0  0  0
   58.8190   33.0900   51.6910 C   0  0  0  0  0  0  0  0  0  0  0  0
   59.3520   33.5500   50.4830 C   0  0  0  0  0  0  0  0  0  0  0  0
   60.7250   33.7730   50.3630 C   0  0  0  0  0  0  0  0  0  0  0  0
   61.5670   33.5590   51.4570 C   0  0  0  0  0  0  0  0  0  0  0  0
   61.0400   33.0930   52.6650 C   0  0  0  0  0  0  0  0  0  0  0  0
   58.4550   29.3840   54.1600 C   0  0  0  0  0  0  0  0  0  0  0  0
   59.8040   29.4130   53.4760 C   0  0  0  0  0  0  0  0  0  0  0  0
   60.9730   29.4210   54.2530 C   0  0  0  0  0  0  0  0  0  0  0  0
   62.2290   29.4090   53.6440 C   0  0  0  0  0  0  0  0  0  0  0  0
   62.3370   29.3780   52.2510 C   0  0  0  0  0  0  0  0  0  0  0  0
   63.6070   29.3310   51.6750 O   0  0  0  0  0  0  0  0  0  0  0  0
   61.1740   29.3760   51.4610 C   0  0  0  0  0  0  0  0  0  0  0  0
   61.2600   29.3730   50.0670 O   0  0  0  0  0  0  0  0  0  0  0  0
   60.7190   30.4300   49.2770 C   0  0  0  0  0  0  0  0  0  0  0  0
   61.8240   31.3190   48.7630 C   0  0  0  0  0  0  0  0  0  0  0  0
   63.0640   31.3380   49.4240 C   0  0  0  0  0  0  0  0  0  0  0  0
   64.0850   32.1860   48.9850 C   0  0  0  0  0  0  0  0  0  0  0  0
   63.8710   33.0370   47.9000 C   0  0  0  0  0  0  0  0  0  0  0  0
   62.6460   33.0260   47.2330 C   0  0  0  0  0  0  0  0  0  0  0  0
   61.6300   32.1520   47.6370 C   0  0  0  0  0  0  0  0  0  0  0  0
   60.4280   32.1400   46.9210 O   0  0  0  0  0  0  0  0  0  0  0  0
   59.9400   31.0190   46.2340 C   0  0  0  0  0  0  0  0  0  0  0  0
   60.7000   29.8430   46.1040 C   0  0  0  0  0  0  0  0  0  0  0  0
   60.1800   28.7440   45.4180 C   0  0  0  0  0  0  0  0  0  0  0  0
   58.9040   28.8090   44.8530 C   0  0  0  0  0  0  0  0  0  0  0  0
   58.1450   29.9820   44.9640 C   0  0  0  0  0  0  0  0  0  0  0  0
   56.5240   30.0740   44.2830 S   0  0  0  0  0  0  0  0  0  0  0  0
   55.5200   28.8830   45.0330 N   0  0  0  0  0  0  0  0  0  0  0  0
   55.9550   31.4410   44.5270 O   0  0  0  0  0  0  0  0  0  0  0  0
   56.5660   29.8230   42.8020 O   0  0  0  0  0  0  0  0  0  0  0  0
   58.6690   31.0840   45.6520 C   0  0  0  0  0  0  0  0  0  0  0  0
   59.9130   29.3670   52.0750 C   0  0  0  0  0  0  0  0  0  0  0  0
   55.4720   29.1185   54.4177 H   0  0  0  0  0  0  0  0  0  0  0  0
   54.0042   28.6343   53.5024 H   0  0  0  0  0  0  0  0  0  0  0  0
   55.4535   27.5730   53.5024 H   0  0  0  0  0  0  0  0  0  0  0  0
   57.1701   32.3759   53.1204 H   0  0  0  0  0  0  0  0  0  0  0  0
   57.1716   31.9332   54.8980 H   0  0  0  0  0  0  0  0  0  0  0  0
   59.1549   33.0140   54.8507 H   0  0  0  0  0  0  0  0  0  0  0  0
   59.7124   31.3679   54.2960 H   0  0  0  0  0  0  0  0  0  0  0  0
   57.7366   32.9163   51.7821 H   0  0  0  0  0  0  0  0  0  0  0  0
   58.6885   33.7365   49.6257 H   0  0  0  0  0  0  0  0  0  0  0  0
   61.1442   34.1175   49.4061 H   0  0  0  0  0  0  0  0  0  0  0  0
   62.6453   33.7573   51.3678 H   0  0  0  0  0  0  0  0  0  0  0  0
   61.7069   32.9167   53.5219 H   0  0  0  0  0  0  0  0  0  0  0  0
   58.5958   29.6199   55.2251 H   0  0  0  0  0  0  0  0  0  0  0  0
   58.0327   28.3784   54.0175 H   0  0  0  0  0  0  0  0  0  0  0  0
   60.8988   29.4368   55.3504 H   0  0  0  0  0  0  0  0  0  0  0  0
   63.1379   29.4240   54.2634 H   0  0  0  0  0  0  0  0  0  0  0  0
   63.7450   29.2740   50.6720 H   0  0  0  0  0  0  0  0  0  0  0  0
   60.1716   30.0019   48.4243 H   0  0  0  0  0  0  0  0  0  0  0  0
   60.0385   31.0293   49.8997 H   0  0  0  0  0  0  0  0  0  0  0  0
   63.2320   30.6824   50.2911 H   0  0  0  0  0  0  0  0  0  0  0  0
   65.0591   32.1824   49.4959 H   0  0  0  0  0  0  0  0  0  0  0  0
   64.6697   33.7176   47.5702 H   0  0  0  0  0  0  0  0  0  0  0  0
   62.4776   33.7071   46.3858 H   0  0  0  0  0  0  0  0  0  0  0  0
   61.7067   29.7889   46.5439 H   0  0  0  0  0  0  0  0  0  0  0  0
   60.7764   27.8247   45.3221 H   0  0  0  0  0  0  0  0  0  0  0  0
   58.4943   27.9382   44.3202 H   0  0  0  0  0  0  0  0  0  0  0  0
   54.6090   29.3460   45.2480 H   0  0  0  0  0  0  0  0  0  0  0  0
   58.0770   32.0073   45.7354 H   0  0  0  0  0  0  0  0  0  0  0  0
   59.0041   29.3237   51.4569 H   0  0  0  0  0  0  0  0  0  0  0  0
  1  2  1  0
  2  3  1  0
  3  4  2  0
  3  5  1  0
  5  6  1  0
  6  7  1  0
  7  8  1  0
  8  9  2  0
  9 10  1  0
 10 11  2  0
 11 12  1  0
 12 13  2  0
  5 14  1  0
 14 15  1  0
 15 16  2  0
 16 17  1  0
 17 18  2  0
 18 19  1  0
 18 20  1  0
 20 21  1  0
 21 22  1  0
 22 23  1  0
 23 24  2  0
 24 25  1  0
 25 26  2  0
 26 27  1  0
 27 28  2  0
 28 29  1  0
 29 30  1  0
 30 31  2  0
 31 32  1  0
 32 33  2  0
 33 34  1  0
 34 35  1  0
 35 36  1  0
 35 37  2  0
 35 38  2  0
 34 39  2  0
 20 40  2  0
 13  8  1  0
 40 15  1  0
 28 23  1  0
 39 30  1  0
  1 41  1  0
  1 42  1  0
  1 43  1  0
  6 44  1  0
  6 45  1  0
  7 46  1  0
  7 47  1  0
  9 48  1  0
 10 49  1  0
 11 50  1  0
 12 51  1  0
 13 52  1  0
 14 53  1  0
 14 54  1  0
 16 55  1  0
 17 56  1  0
 19 57  1  0
 22 58  1  0
 22 59  1  0
 24 60  1  0
 25 61  1  0
 26 62  1  0
 27 63  1  0
 31 64  1  0
 32 65  1  0
 33 66  1  0
 36 67  1  0
 39 68  1  0
 40 69  1  0
M  CHG  2   2  -1  36  -1
M  END
>  <UniqueID>  (88) 
84

>  <SMILES>  (88) 
C[N-]C(=O)N(CCc1ccccc1)Cc1ccc(O)c(OCc2ccccc2Oc2cccc(S([NH-])(=O)=O)c2)c1

>  <Energy>  (88) 
79.86129528853844

>  <Genealogy>  (88) 
C[N-]C(=O)N(CCc1ccccc1)Cc1ccc(O)c(OCc2ccccc2Oc2cccc(S([NH-])(=O)=O)c2)c1 (protonated)
C[N-]C(=O)N(CCc1ccccc1)Cc1ccc(O)c(OCc2ccccc2Oc2cccc(S([NH-])(=O)=O)c2)c1 (3D coordinates assigned)
C[N-]C(=O)N(CCc1ccccc1)Cc1ccc(O)c(OCc2ccccc2Oc2cccc(S([NH-])(=O)=O)c2)c1 (optimized conformer: 79.86129528853844 kcal/mol)

>  <smiles>  (88) 
CNC(=O)N(CCc1ccccc1)Cc1ccc(O)c(OCc2ccccc2Oc2cccc(S(N)(=O)=O)c2)c1

>  <score_type>  (88) 
oracle

>  <origin>  (88) 
adg

>  <m_score__min__energy>  (88) 
-14.369999999999999

>  <m_primary>  (88) 
energy

$$$$
88:0
     RDKit          3D

 47 49  0  0  0  0  0  0  0  0999 V2000
   56.3000   20.1700   44.3050 N   0  0  0  0  0  0  0  0  0  0  0  0
   56.9120   21.6150   43.5800 S   0  0  0  0  0  0  0  0  0  0  0  0
   58.3970   21.4910   43.3810 O   0  0  0  0  0  0  0  0  0  0  0  0
   56.2620   21.8180   42.2400 O   0  0  0  0  0  0  0  0  0  0  0  0
   56.5620   22.9870   44.6250 C   0  0  0  0  0  0  0  0  0  0  0  0
   55.2490   23.4580   44.7500 C   0  0  0  0  0  0  0  0  0  0  0  0
   54.9750   24.5670   45.5540 C   0  0  0  0  0  0  0  0  0  0  0  0
   56.0090   25.2070   46.2420 C   0  0  0  0  0  0  0  0  0  0  0  0
   57.3260   24.7400   46.1380 C   0  0  0  0  0  0  0  0  0  0  0  0
   58.3330   25.4240   46.8350 O   0  0  0  0  0  0  0  0  0  0  0  0
   59.4020   26.1140   46.2460 C   0  0  0  0  0  0  0  0  0  0  0  0
   60.5570   25.6050   46.2290 O   0  0  0  0  0  0  0  0  0  0  0  0
   59.1840   27.4320   45.7090 N   0  0  0  0  0  0  0  0  0  0  0  0
   57.8080   27.9450   45.6280 C   0  0  0  0  0  0  0  0  0  0  0  0
   57.7340   29.2480   44.8270 C   0  0  0  0  0  0  0  0  0  0  0  0
   58.7820   30.1710   45.2730 N   0  0  0  0  0  0  0  0  0  0  0  0
   58.4630   31.5460   45.5420 C   0  0  0  0  0  0  0  0  0  0  0  0
   58.0640   32.3650   44.4740 C   0  0  0  0  0  0  0  0  0  0  0  0
   57.7820   33.7140   44.6830 C   0  0  0  0  0  0  0  0  0  0  0  0
   57.9040   34.2630   45.9590 C   0  0  0  0  0  0  0  0  0  0  0  0
   58.2950   33.4610   47.0320 C   0  0  0  0  0  0  0  0  0  0  0  0
   58.5580   32.0890   46.8490 C   0  0  0  0  0  0  0  0  0  0  0  0
   58.9900   31.2460   48.0310 C   0  0  0  0  0  0  0  0  0  0  0  0
   58.4710   29.9670   47.9370 F   0  0  0  0  0  0  0  0  0  0  0  0
   58.5450   31.7930   49.2230 F   0  0  0  0  0  0  0  0  0  0  0  0
   60.3690   31.1780   48.0670 F   0  0  0  0  0  0  0  0  0  0  0  0
   60.1480   29.6920   45.5200 C   0  0  0  0  0  0  0  0  0  0  0  0
   60.3000   28.2130   45.1510 C   0  0  0  0  0  0  0  0  0  0  0  0
   57.6000   23.6360   45.3090 C   0  0  0  0  0  0  0  0  0  0  0  0
   56.6470   20.1520   45.2900 H   0  0  0  0  0  0  0  0  0  0  0  0
   56.7510   19.3660   43.8120 H   0  0  0  0  0  0  0  0  0  0  0  0
   54.4317   22.9535   44.2139 H   0  0  0  0  0  0  0  0  0  0  0  0
   53.9432   24.9371   45.6456 H   0  0  0  0  0  0  0  0  0  0  0  0
   55.7878   26.0831   46.8693 H   0  0  0  0  0  0  0  0  0  0  0  0
   57.1746   27.1900   45.1394 H   0  0  0  0  0  0  0  0  0  0  0  0
   57.4590   28.1515   46.6505 H   0  0  0  0  0  0  0  0  0  0  0  0
   57.8737   29.0272   43.7585 H   0  0  0  0  0  0  0  0  0  0  0  0
   56.7505   29.7143   44.9862 H   0  0  0  0  0  0  0  0  0  0  0  0
   57.9731   31.9388   43.4640 H   0  0  0  0  0  0  0  0  0  0  0  0
   57.4631   34.3458   43.8409 H   0  0  0  0  0  0  0  0  0  0  0  0
   57.6916   35.3302   46.1201 H   0  0  0  0  0  0  0  0  0  0  0  0
   58.3991   33.9054   48.0328 H   0  0  0  0  0  0  0  0  0  0  0  0
   60.8496   30.2852   44.9151 H   0  0  0  0  0  0  0  0  0  0  0  0
   60.3641   29.8039   46.5927 H   0  0  0  0  0  0  0  0  0  0  0  0
   60.3034   28.1103   44.0558 H   0  0  0  0  0  0  0  0  0  0  0  0
   61.2456   27.8349   45.5668 H   0  0  0  0  0  0  0  0  0  0  0  0
   58.6348   23.2801   45.1970 H   0  0  0  0  0  0  0  0  0  0  0  0
  1  2  1  0
  2  3  2  0
  2  4  2  0
  2  5  1  0
  5  6  2  0
  6  7  1  0
  7  8  2  0
  8  9  1  0
  9 10  1  0
 10 11  1  0
 11 12  2  0
 11 13  1  0
 13 14  1  0
 14 15  1  0
 15 16  1  0
 16 17  1  0
 17 18  2  0
 18 19  1  0
 19 20  2  0
 20 21  1  0
 21 22  2  0
 22 23  1  0
 23 24  1  0
 23 25  1  0
 23 26  1  0
 16 27  1  0
 27 28  1  0
  9 29  2  0
 29  5  1  0
 28 13  1  0
 22 17  1  0
  1 30  1  0
  1 31  1  0
  6 32  1  0
  7 33  1  0
  8 34  1  0
 14 35  1  0
 14 36  1  0
 15 37  1  0
 15 38  1  0
 18 39  1  0
 19 40  1  0
 20 41  1  0
 21 42  1  0
 27 43  1  0
 27 44  1  0
 28 45  1  0
 28 46  1  0
 29 47  1  0
M  END
>  <UniqueID>  (89) 
85

>  <SMILES>  (89) 
NS(=O)(=O)c1cccc(OC(=O)N2CCN(c3ccccc3C(F)(F)F)CC2)c1

>  <Energy>  (89) 
58.13638042062359

>  <Genealogy>  (89) 
NS(=O)(=O)c1cccc(OC(=O)N2CCN(c3ccccc3C(F)(F)F)CC2)c1 (3D coordinates assigned)
NS(=O)(=O)c1cccc(OC(=O)N2CCN(c3ccccc3C(F)(F)F)CC2)c1 (nonaromatic ring conformer: 58.13638042062359 kcal/mol)

>  <smiles>  (89) 
NS(=O)(=O)c1cccc(OC(=O)N2CCN(c3ccccc3C(F)(F)F)CC2)c1

>  <score_type>  (89) 
oracle

>  <origin>  (89) 
adg

>  <m_score__min__energy>  (89) 
-8.7100000000000009

>  <m_primary>  (89) 
energy

$$$$
89:0
     RDKit          3D

 55 57  0  0  0  0  0  0  0  0999 V2000
   60.9010   34.0780   48.8050 C   0  0  0  0  0  0  0  0  0  0  0  0
   60.5490   32.9060   49.6090 N   0  0  0  0  0  0  0  0  0  0  0  0
   60.5360   31.7230   48.7830 C   0  0  0  0  0  0  0  0  0  0  0  0
   61.3100   31.6660   47.6110 C   0  0  0  0  0  0  0  0  0  0  0  0
   61.3190   30.5090   46.8260 C   0  0  0  0  0  0  0  0  0  0  0  0
   60.5680   29.3870   47.2090 C   0  0  0  0  0  0  0  0  0  0  0  0
   60.5520   28.1560   46.3440 C   0  0  0  0  0  0  0  0  0  0  0  0
   59.9380   28.4660   44.9680 C   0  0  0  0  0  0  0  0  0  0  0  0
   58.4100   28.5310   45.0360 C   0  0  0  0  0  0  0  0  0  0  0  0
   57.6760   27.4090   45.5490 C   0  0  0  0  0  0  0  0  0  0  0  0
   58.3490   26.0950   45.9880 C   0  0  0  0  0  0  0  0  0  0  0  0
   57.8930   24.9160   45.1190 C   0  0  0  0  0  0  0  0  0  0  0  0
   58.1440   25.8030   47.4830 C   0  0  0  0  0  0  0  0  0  0  0  0
   56.2740   27.5290   45.6170 C   0  0  0  0  0  0  0  0  0  0  0  0
   55.5550   26.5790   46.0240 O   0  0  0  0  0  0  0  0  0  0  0  0
   55.6700   28.6730   45.2440 N   0  0  0  0  0  0  0  0  0  0  0  0
   56.3610   29.7310   44.7720 C   0  0  0  0  0  0  0  0  0  0  0  0
   55.7160   30.7690   44.4590 O   0  0  0  0  0  0  0  0  0  0  0  0
   57.7270   29.6740   44.6370 N   0  0  0  0  0  0  0  0  0  0  0  0
   58.4250   30.8450   44.0500 C   0  0  0  0  0  0  0  0  0  0  0  0
   58.3690   32.0480   44.9590 C   0  0  0  0  0  0  0  0  0  0  0  0
   58.5430   33.3380   44.4310 C   0  0  0  0  0  0  0  0  0  0  0  0
   58.4690   34.4590   45.2650 C   0  0  0  0  0  0  0  0  0  0  0  0
   58.2060   34.3010   46.6270 C   0  0  0  0  0  0  0  0  0  0  0  0
   58.0050   33.0240   47.1570 C   0  0  0  0  0  0  0  0  0  0  0  0
   58.0760   31.9010   46.3270 C   0  0  0  0  0  0  0  0  0  0  0  0
   59.7950   29.4430   48.3780 C   0  0  0  0  0  0  0  0  0  0  0  0
   59.7860   30.5990   49.1640 C   0  0  0  0  0  0  0  0  0  0  0  0
   61.1530   34.9169   49.4704 H   0  0  0  0  0  0  0  0  0  0  0  0
   61.7674   33.8404   48.1703 H   0  0  0  0  0  0  0  0  0  0  0  0
   60.0471   34.3571   48.1703 H   0  0  0  0  0  0  0  0  0  0  0  0
   59.6060   33.0540   50.0400 H   0  0  0  0  0  0  0  0  0  0  0  0
   61.2450   32.7990   50.3820 H   0  0  0  0  0  0  0  0  0  0  0  0
   61.9118   32.5362   47.3099 H   0  0  0  0  0  0  0  0  0  0  0  0
   61.9177   30.4780   45.9037 H   0  0  0  0  0  0  0  0  0  0  0  0
   61.5829   27.7976   46.2069 H   0  0  0  0  0  0  0  0  0  0  0  0
   59.9423   27.3849   46.8376 H   0  0  0  0  0  0  0  0  0  0  0  0
   60.3215   29.4350   44.6158 H   0  0  0  0  0  0  0  0  0  0  0  0
   60.2181   27.6584   44.2757 H   0  0  0  0  0  0  0  0  0  0  0  0
   59.4306   26.2264   45.8369 H   0  0  0  0  0  0  0  0  0  0  0  0
   57.5721   24.0862   45.7659 H   0  0  0  0  0  0  0  0  0  0  0  0
   57.0523   25.2321   44.4840 H   0  0  0  0  0  0  0  0  0  0  0  0
   58.7276   24.5842   44.4840 H   0  0  0  0  0  0  0  0  0  0  0  0
   58.6747   26.5590   48.0804 H   0  0  0  0  0  0  0  0  0  0  0  0
   57.0702   25.8366   47.7193 H   0  0  0  0  0  0  0  0  0  0  0  0
   58.5404   24.8045   47.7193 H   0  0  0  0  0  0  0  0  0  0  0  0
   59.4782   30.5802   43.8752 H   0  0  0  0  0  0  0  0  0  0  0  0
   57.9198   31.1058   43.1083 H   0  0  0  0  0  0  0  0  0  0  0  0
   58.7384   33.4675   43.3563 H   0  0  0  0  0  0  0  0  0  0  0  0
   58.6182   35.4656   44.8472 H   0  0  0  0  0  0  0  0  0  0  0  0
   58.1570   35.1825   47.2832 H   0  0  0  0  0  0  0  0  0  0  0  0
   57.7906   32.9019   48.2290 H   0  0  0  0  0  0  0  0  0  0  0  0
   57.9021   30.8987   46.7454 H   0  0  0  0  0  0  0  0  0  0  0  0
   59.1927   28.5728   48.6779 H   0  0  0  0  0  0  0  0  0  0  0  0
   59.1877   30.6281   50.0866 H   0  0  0  0  0  0  0  0  0  0  0  0
  1  2  1  0
  2  3  1  0
  3  4  2  0
  4  5  1  0
  5  6  2  0
  6  7  1  0
  7  8  1  0
  8  9  1  0
  9 10  2  0
 10 11  1  0
 11 12  1  0
 11 13  1  0
 10 14  1  0
 14 15  2  0
 14 16  1  0
 16 17  1  0
 17 18  2  0
 17 19  1  0
 19 20  1  0
 20 21  1  0
 21 22  2  0
 22 23  1  0
 23 24  2  0
 24 25  1  0
 25 26  2  0
  6 27  1  0
 27 28  2  0
 28  3  1  0
 19  9  1  0
 26 21  1  0
  1 29  1  0
  1 30  1  0
  1 31  1  0
  2 32  1  0
  2 33  1  0
  4 34  1  0
  5 35  1  0
  7 36  1  0
  7 37  1  0
  8 38  1  0
  8 39  1  0
 11 40  1  0
 12 41  1  0
 12 42  1  0
 12 43  1  0
 13 44  1  0
 13 45  1  0
 13 46  1  0
 20 47  1  0
 20 48  1  0
 22 49  1  0
 23 50  1  0
 24 51  1  0
 25 52  1  0
 26 53  1  0
 27 54  1  0
 28 55  1  0
M  CHG  2   2   1  16  -1
M  END
>  <UniqueID>  (90) 
86

>  <SMILES>  (90) 
C[NH2+]c1ccc(CCc2c(C(C)C)c(=O)[n-]c(=O)n2Cc2ccccc2)cc1

>  <Energy>  (90) 
63.59981075048056

>  <Genealogy>  (90) 
C[NH2+]c1ccc(CCc2c(C(C)C)c(=O)[n-]c(=O)n2Cc2ccccc2)cc1 (protonated)
C[NH2+]c1ccc(CCc2c(C(C)C)c(=O)[n-]c(=O)n2Cc2ccccc2)cc1 (3D coordinates assigned)
C[NH2+]c1ccc(CCc2c(C(C)C)c(=O)[n-]c(=O)n2Cc2ccccc2)cc1 (optimized conformer: 63.59981075048056 kcal/mol)

>  <smiles>  (90) 
CNc1ccc(CCc2c(C(C)C)c(=O)[nH]c(=O)n2Cc2ccccc2)cc1

>  <score_type>  (90) 
oracle

>  <origin>  (90) 
adg

>  <m_score__min__energy>  (90) 
-8.5899999999999999

>  <m_primary>  (90) 
energy

$$$$
90:0
     RDKit          3D

 37 39  0  0  0  0  0  0  0  0999 V2000
   54.9610   26.3440   45.9920 N   0  0  0  0  0  0  0  0  0  0  0  0
   56.6590   26.0830   46.1750 S   0  0  0  0  0  0  0  0  0  0  0  0
   56.9190   25.3420   47.4570 O   0  0  0  0  0  0  0  0  0  0  0  0
   57.1630   25.2520   45.0290 O   0  0  0  0  0  0  0  0  0  0  0  0
   57.4920   27.6340   46.2020 C   0  0  0  0  0  0  0  0  0  0  0  0
   58.7160   27.7620   46.8610 C   0  0  0  0  0  0  0  0  0  0  0  0
   59.3790   28.9920   46.9000 C   0  0  0  0  0  0  0  0  0  0  0  0
   58.8260   30.1370   46.2740 C   0  0  0  0  0  0  0  0  0  0  0  0
   57.5710   29.9890   45.6270 C   0  0  0  0  0  0  0  0  0  0  0  0
   56.9180   28.7520   45.5930 C   0  0  0  0  0  0  0  0  0  0  0  0
   56.9860   31.0570   45.0370 N   0  0  0  0  0  0  0  0  0  0  0  0
   57.5700   32.2760   45.0470 C   0  0  0  0  0  0  0  0  0  0  0  0
   56.9910   33.2490   44.4930 O   0  0  0  0  0  0  0  0  0  0  0  0
   58.8090   32.4470   45.6730 C   0  0  0  0  0  0  0  0  0  0  0  0
   59.3360   33.5950   45.6770 O   0  0  0  0  0  0  0  0  0  0  0  0
   59.4420   31.3800   46.2730 N   0  0  0  0  0  0  0  0  0  0  0  0
   60.7610   31.6290   46.9030 C   0  0  0  0  0  0  0  0  0  0  0  0
   60.5980   32.3030   48.2490 C   0  0  0  0  0  0  0  0  0  0  0  0
   59.4440   32.0650   49.0150 C   0  0  0  0  0  0  0  0  0  0  0  0
   59.2660   32.6900   50.2600 C   0  0  0  0  0  0  0  0  0  0  0  0
   58.0420   32.4030   51.0800 C   0  0  0  0  0  0  0  0  0  0  0  0
   58.0530   30.7000   51.6000 Cl  0  0  0  0  0  0  0  0  0  0  0  0
   60.2640   33.5390   50.7540 C   0  0  0  0  0  0  0  0  0  0  0  0
   61.4160   33.7810   50.0030 C   0  0  0  0  0  0  0  0  0  0  0  0
   61.5890   33.1710   48.7570 C   0  0  0  0  0  0  0  0  0  0  0  0
   62.7490   33.4340   48.0360 O   0  0  0  0  0  0  0  0  0  0  0  0
   54.6880   27.0730   46.6870 H   0  0  0  0  0  0  0  0  0  0  0  0
   59.1631   26.8864   47.3544 H   0  0  0  0  0  0  0  0  0  0  0  0
   60.3430   29.0723   47.4237 H   0  0  0  0  0  0  0  0  0  0  0  0
   55.9473   28.6596   45.0839 H   0  0  0  0  0  0  0  0  0  0  0  0
   61.2810   30.6696   47.0412 H   0  0  0  0  0  0  0  0  0  0  0  0
   61.3447   32.2912   46.2466 H   0  0  0  0  0  0  0  0  0  0  0  0
   58.6709   31.3810   48.6349 H   0  0  0  0  0  0  0  0  0  0  0  0
   58.0339   33.0556   51.9655 H   0  0  0  0  0  0  0  0  0  0  0  0
   57.1444   32.5925   50.4730 H   0  0  0  0  0  0  0  0  0  0  0  0
   60.1400   34.0169   51.7370 H   0  0  0  0  0  0  0  0  0  0  0  0
   62.1920   34.4555   50.3940 H   0  0  0  0  0  0  0  0  0  0  0  0
  1  2  1  0
  2  3  2  0
  2  4  2  0
  2  5  1  0
  5  6  2  0
  6  7  1  0
  7  8  2  0
  8  9  1  0
  9 10  2  0
  9 11  1  0
 11 12  1  0
 12 13  2  0
 12 14  1  0
 14 15  2  0
 14 16  1  0
 16 17  1  0
 17 18  1  0
 18 19  2  0
 19 20  1  0
 20 21  1  0
 21 22  1  0
 20 23  2  0
 23 24  1  0
 24 25  2  0
 25 26  1  0
 10  5  1  0
 25 18  1  0
 16  8  1  0
  1 27  1  0
  6 28  1  0
  7 29  1  0
 10 30  1  0
 17 31  1  0
 17 32  1  0
 19 33  1  0
 21 34  1  0
 21 35  1  0
 23 36  1  0
 24 37  1  0
M  CHG  3   1  -1  11  -1  26  -1
M  END
>  <UniqueID>  (91) 
87

>  <SMILES>  (91) 
[NH-]S(=O)(=O)c1ccc2c(c1)[n-]c(=O)c(=O)n2Cc1cc(CCl)ccc1[O-]

>  <Energy>  (91) 
51.84820332705023

>  <Genealogy>  (91) 
[NH-]S(=O)(=O)c1ccc2c(c1)[n-]c(=O)c(=O)n2Cc1cc(CCl)ccc1[O-] (protonated)
[NH-]S(=O)(=O)c1ccc2c(c1)[n-]c(=O)c(=O)n2Cc1cc(CCl)ccc1[O-] (3D coordinates assigned)
[NH-]S(=O)(=O)c1ccc2c(c1)[n-]c(=O)c(=O)n2Cc1cc(CCl)ccc1[O-] (optimized conformer: 51.84820332705023 kcal/mol)

>  <smiles>  (91) 
NS(=O)(=O)c1ccc2c(c1)[nH]c(=O)c(=O)n2Cc1cc(CCl)ccc1O

>  <score_type>  (91) 
oracle

>  <origin>  (91) 
adg

>  <m_score__min__energy>  (91) 
-12.539999999999999

>  <m_primary>  (91) 
energy

$$$$
91:0
     RDKit          3D

 45 47  0  0  0  0  0  0  0  0999 V2000
   55.1490   29.3400   44.8810 O   0  0  0  0  0  0  0  0  0  0  0  0
   56.3410   29.6890   44.6690 C   0  0  0  0  0  0  0  0  0  0  0  0
   56.7160   31.0080   44.8860 O   0  0  0  0  0  0  0  0  0  0  0  0
   57.3640   28.6850   44.2290 C   0  0  0  0  0  0  0  0  0  0  0  0
   57.8170   27.8300   45.3860 C   0  0  0  0  0  0  0  0  0  0  0  0
   57.2060   26.5740   45.5620 C   0  0  0  0  0  0  0  0  0  0  0  0
   57.5910   25.7340   46.6080 C   0  0  0  0  0  0  0  0  0  0  0  0
   58.5950   26.1320   47.4890 C   0  0  0  0  0  0  0  0  0  0  0  0
   59.2090   27.3750   47.3310 C   0  0  0  0  0  0  0  0  0  0  0  0
   58.8170   28.2450   46.3010 C   0  0  0  0  0  0  0  0  0  0  0  0
   59.6940   29.8200   46.1670 S   0  0  0  0  0  0  0  0  0  0  0  0
   59.4510   30.3290   47.8830 C   0  0  0  0  0  0  0  0  0  0  0  0
   60.0860   29.6120   48.9090 C   0  0  0  0  0  0  0  0  0  0  0  0
   59.8810   29.9540   50.2460 C   0  0  0  0  0  0  0  0  0  0  0  0
   59.0540   31.0270   50.5730 C   0  0  0  0  0  0  0  0  0  0  0  0
   58.4630   31.7870   49.5640 C   0  0  0  0  0  0  0  0  0  0  0  0
   58.6900   31.4760   48.2130 C   0  0  0  0  0  0  0  0  0  0  0  0
   58.1430   32.3780   47.1740 C   0  0  0  0  0  0  0  0  0  0  0  0
   57.1170   33.0520   47.4590 O   0  0  0  0  0  0  0  0  0  0  0  0
   58.8060   32.6100   45.8990 N   0  0  0  0  0  0  0  0  0  0  0  0
   60.2600   32.8720   46.0200 C   0  0  0  0  0  0  0  0  0  0  0  0
   60.6040   34.3190   46.4440 C   0  0  0  0  0  0  0  0  0  0  0  0
   59.4920   35.2540   46.2320 N   0  0  0  0  0  0  0  0  0  0  0  0
   58.8070   34.9670   44.9740 C   0  0  0  0  0  0  0  0  0  0  0  0
   58.0870   33.6120   45.0650 C   0  0  0  0  0  0  0  0  0  0  0  0
   56.9238   28.0388   43.4553 H   0  0  0  0  0  0  0  0  0  0  0  0
   58.2356   29.2252   43.8310 H   0  0  0  0  0  0  0  0  0  0  0  0
   56.4165   26.2511   44.8675 H   0  0  0  0  0  0  0  0  0  0  0  0
   57.1018   24.7573   46.7372 H   0  0  0  0  0  0  0  0  0  0  0  0
   58.9033   25.4664   48.3087 H   0  0  0  0  0  0  0  0  0  0  0  0
   60.0100   27.6770   48.0218 H   0  0  0  0  0  0  0  0  0  0  0  0
   60.7512   28.7730   48.6567 H   0  0  0  0  0  0  0  0  0  0  0  0
   60.3725   29.3763   51.0426 H   0  0  0  0  0  0  0  0  0  0  0  0
   58.8672   31.2748   51.6283 H   0  0  0  0  0  0  0  0  0  0  0  0
   57.8148   32.6357   49.8278 H   0  0  0  0  0  0  0  0  0  0  0  0
   58.7400   31.7000   45.3810 H   0  0  0  0  0  0  0  0  0  0  0  0
   60.6745   32.1834   46.7711 H   0  0  0  0  0  0  0  0  0  0  0  0
   60.6955   32.7204   45.0213 H   0  0  0  0  0  0  0  0  0  0  0  0
   60.8646   34.3195   47.5127 H   0  0  0  0  0  0  0  0  0  0  0  0
   61.4439   34.6563   45.8188 H   0  0  0  0  0  0  0  0  0  0  0  0
   59.8850   36.2230   46.1780 H   0  0  0  0  0  0  0  0  0  0  0  0
   58.0701   35.7582   44.7716 H   0  0  0  0  0  0  0  0  0  0  0  0
   59.5465   34.9292   44.1605 H   0  0  0  0  0  0  0  0  0  0  0  0
   57.0904   33.7763   45.5007 H   0  0  0  0  0  0  0  0  0  0  0  0
   58.0354   33.2049   44.0444 H   0  0  0  0  0  0  0  0  0  0  0  0
  1  2  2  0
  2  3  1  0
  2  4  1  0
  4  5  1  0
  5  6  2  0
  6  7  1  0
  7  8  2  0
  8  9  1  0
  9 10  2  0
 10 11  1  0
 11 12  1  0
 12 13  2  0
 13 14  1  0
 14 15  2  0
 15 16  1  0
 16 17  2  0
 17 18  1  0
 18 19  2  0
 18 20  1  0
 20 21  1  0
 21 22  1  0
 22 23  1  0
 23 24  1  0
 24 25  1  0
 10  5  1  0
 17 12  1  0
 25 20  1  0
  4 26  1  0
  4 27  1  0
  6 28  1  0
  7 29  1  0
  8 30  1  0
  9 31  1  0
 13 32  1  0
 14 33  1  0
 15 34  1  0
 16 35  1  0
 20 36  1  0
 21 37  1  0
 21 38  1  0
 22 39  1  0
 22 40  1  0
 23 41  1  0
 24 42  1  0
 24 43  1  0
 25 44  1  0
 25 45  1  0
M  CHG  2   3  -1  20   1
M  END
>  <UniqueID>  (92) 
88

>  <SMILES>  (92) 
O=C([O-])Cc1ccccc1Sc1ccccc1C(=O)[NH+]1CCNCC1

>  <Energy>  (92) 
67.0807816867289

>  <Genealogy>  (92) 
O=C([O-])Cc1ccccc1Sc1ccccc1C(=O)[NH+]1CCNCC1 (protonated)
O=C([O-])Cc1ccccc1Sc1ccccc1C(=O)[NH+]1CCNCC1 (3D coordinates assigned)
O=C([O-])Cc1ccccc1Sc1ccccc1C(=O)[NH+]1CCNCC1 (nonaromatic ring conformer: 67.0807816867289 kcal/mol)

>  <smiles>  (92) 
O=C(O)Cc1ccccc1Sc1ccccc1C(=O)N1CCNCC1

>  <score_type>  (92) 
oracle

>  <origin>  (92) 
adg

>  <m_score__min__energy>  (92) 
-9.4800000000000004

>  <m_primary>  (92) 
energy

$$$$
92:0
     RDKit          3D

 48 50  0  0  0  0  0  0  0  0999 V2000
   55.5200   22.9420   48.2830 O   0  0  0  0  0  0  0  0  0  0  0  0
   55.9890   23.8760   47.5750 C   0  0  0  0  0  0  0  0  0  0  0  0
   57.3700   24.3850   47.8290 C   0  0  0  0  0  0  0  0  0  0  0  0
   57.6870   25.4150   46.8420 N   0  0  0  0  0  0  0  0  0  0  0  0
   58.7010   26.4060   47.0880 C   0  0  0  0  0  0  0  0  0  0  0  0
   59.4850   26.2640   48.0690 O   0  0  0  0  0  0  0  0  0  0  0  0
   58.8250   27.6100   46.2350 C   0  0  0  0  0  0  0  0  0  0  0  0
   60.1040   28.0790   45.8770 C   0  0  0  0  0  0  0  0  0  0  0  0
   60.2450   29.2130   45.0710 C   0  0  0  0  0  0  0  0  0  0  0  0
   59.1140   29.8760   44.5940 C   0  0  0  0  0  0  0  0  0  0  0  0
   57.8350   29.4140   44.9250 C   0  0  0  0  0  0  0  0  0  0  0  0
   56.4150   30.2240   44.2690 S   0  0  0  0  0  0  0  0  0  0  0  0
   56.5360   30.2700   42.7700 O   0  0  0  0  0  0  0  0  0  0  0  0
   55.1670   29.4690   44.6410 O   0  0  0  0  0  0  0  0  0  0  0  0
   56.2930   31.8480   44.8700 N   0  0  0  0  0  0  0  0  0  0  0  0
   57.3910   32.6720   45.2820 C   0  0  0  0  0  0  0  0  0  0  0  0
   58.0870   33.3960   44.3070 C   0  0  0  0  0  0  0  0  0  0  0  0
   59.1950   34.1700   44.6560 C   0  0  0  0  0  0  0  0  0  0  0  0
   59.6330   34.2100   45.9790 C   0  0  0  0  0  0  0  0  0  0  0  0
   58.9530   33.4870   46.9620 C   0  0  0  0  0  0  0  0  0  0  0  0
   59.5260   33.5100   48.6190 Cl  0  0  0  0  0  0  0  0  0  0  0  0
   57.8270   32.7280   46.6190 C   0  0  0  0  0  0  0  0  0  0  0  0
   57.6910   28.2910   45.7550 C   0  0  0  0  0  0  0  0  0  0  0  0
   55.1710   24.5330   46.6000 N   0  0  0  0  0  0  0  0  0  0  0  0
   54.2830   23.8160   45.6910 C   0  0  0  0  0  0  0  0  0  0  0  0
   55.1000   22.9400   44.7770 C   0  0  0  0  0  0  0  0  0  0  0  0
   55.5560   21.6900   45.2210 C   0  0  0  0  0  0  0  0  0  0  0  0
   56.3350   20.8990   44.3730 C   0  0  0  0  0  0  0  0  0  0  0  0
   56.6520   21.3440   43.1270 N   0  0  0  0  0  0  0  0  0  0  0  0
   56.2360   22.5560   42.6770 C   0  0  0  0  0  0  0  0  0  0  0  0
   55.4560   23.3790   43.4930 C   0  0  0  0  0  0  0  0  0  0  0  0
   57.4246   24.8142   48.8403 H   0  0  0  0  0  0  0  0  0  0  0  0
   58.0912   23.5584   47.7480 H   0  0  0  0  0  0  0  0  0  0  0  0
   57.0280   25.5190   46.0370 H   0  0  0  0  0  0  0  0  0  0  0  0
   60.9992   27.5489   46.2343 H   0  0  0  0  0  0  0  0  0  0  0  0
   61.2484   29.5825   44.8129 H   0  0  0  0  0  0  0  0  0  0  0  0
   59.2278   30.7646   43.9558 H   0  0  0  0  0  0  0  0  0  0  0  0
   57.7584   33.3547   43.2580 H   0  0  0  0  0  0  0  0  0  0  0  0
   59.7239   34.7498   43.8852 H   0  0  0  0  0  0  0  0  0  0  0  0
   60.5140   34.8109   46.2488 H   0  0  0  0  0  0  0  0  0  0  0  0
   57.2816   32.1738   47.3971 H   0  0  0  0  0  0  0  0  0  0  0  0
   56.6855   27.9412   46.0318 H   0  0  0  0  0  0  0  0  0  0  0  0
   53.5888   23.1919   46.2730 H   0  0  0  0  0  0  0  0  0  0  0  0
   53.7112   24.5391   45.0909 H   0  0  0  0  0  0  0  0  0  0  0  0
   55.3018   21.3348   46.2306 H   0  0  0  0  0  0  0  0  0  0  0  0
   56.6923   19.9157   44.7129 H   0  0  0  0  0  0  0  0  0  0  0  0
   56.5141   22.8907   41.6667 H   0  0  0  0  0  0  0  0  0  0  0  0
   55.1236   24.3634   43.1316 H   0  0  0  0  0  0  0  0  0  0  0  0
  1  2  2  0
  2  3  1  0
  3  4  1  0
  4  5  1  0
  5  6  2  0
  5  7  1  0
  7  8  2  0
  8  9  1  0
  9 10  2  0
 10 11  1  0
 11 12  1  0
 12 13  2  0
 12 14  2  0
 12 15  1  0
 15 16  1  0
 16 17  2  0
 17 18  1  0
 18 19  2  0
 19 20  1  0
 20 21  1  0
 20 22  2  0
 11 23  2  0
  2 24  1  0
 24 25  1  0
 25 26  1  0
 26 27  2  0
 27 28  1  0
 28 29  2  0
 29 30  1  0
 30 31  2  0
 23  7  1  0
 31 26  1  0
 22 16  1  0
  3 32  1  0
  3 33  1  0
  4 34  1  0
  8 35  1  0
  9 36  1  0
 10 37  1  0
 17 38  1  0
 18 39  1  0
 19 40  1  0
 22 41  1  0
 23 42  1  0
 25 43  1  0
 25 44  1  0
 27 45  1  0
 28 46  1  0
 30 47  1  0
 31 48  1  0
M  CHG  2  15  -1  24  -1
M  END
>  <UniqueID>  (93) 
89

>  <SMILES>  (93) 
O=C(CNC(=O)c1cccc(S(=O)(=O)[N-]c2cccc(Cl)c2)c1)[N-]Cc1ccncc1

>  <Energy>  (93) 
49.419960538500895

>  <Genealogy>  (93) 
O=C(CNC(=O)c1cccc(S(=O)(=O)[N-]c2cccc(Cl)c2)c1)[N-]Cc1ccncc1 (protonated)
O=C(CNC(=O)c1cccc(S(=O)(=O)[N-]c2cccc(Cl)c2)c1)[N-]Cc1ccncc1 (3D coordinates assigned)
O=C(CNC(=O)c1cccc(S(=O)(=O)[N-]c2cccc(Cl)c2)c1)[N-]Cc1ccncc1 (optimized conformer: 49.419960538500895 kcal/mol)

>  <smiles>  (93) 
O=C(CNC(=O)c1cccc(S(=O)(=O)Nc2cccc(Cl)c2)c1)NCc1ccncc1

>  <score_type>  (93) 
oracle

>  <origin>  (93) 
adg

>  <m_score__min__energy>  (93) 
-12.74

>  <m_primary>  (93) 
energy

$$$$
93:0
     RDKit          3D

 37 39  0  0  0  0  0  0  0  0999 V2000
   56.5160   27.0780   44.8660 H   0  0  0  0  0  0  0  0  0  0  0  0
   57.1170   26.9090   45.7030 N   0  0  0  0  0  0  0  0  0  0  0  0
   57.9120   27.8200   46.1660 C   0  0  0  0  0  0  0  0  0  0  0  0
   58.9840   27.4470   46.9150 N   0  0  0  0  0  0  0  0  0  0  0  0
   59.8480   28.3550   47.4270 C   0  0  0  0  0  0  0  0  0  0  0  0
   60.7088   28.0235   48.0263 H   0  0  0  0  0  0  0  0  0  0  0  0
   59.6390   29.7160   47.1890 C   0  0  0  0  0  0  0  0  0  0  0  0
   60.5820   30.7290   47.7170 C   0  0  0  0  0  0  0  0  0  0  0  0
   61.8520   30.8310   47.1260 C   0  0  0  0  0  0  0  0  0  0  0  0
   62.1131   30.1795   46.2790 H   0  0  0  0  0  0  0  0  0  0  0  0
   62.7860   31.7520   47.6040 C   0  0  0  0  0  0  0  0  0  0  0  0
   63.7787   31.8214   47.1352 H   0  0  0  0  0  0  0  0  0  0  0  0
   62.4620   32.5840   48.6750 C   0  0  0  0  0  0  0  0  0  0  0  0
   63.2033   33.3016   49.0564 H   0  0  0  0  0  0  0  0  0  0  0  0
   61.1990   32.5080   49.2640 C   0  0  0  0  0  0  0  0  0  0  0  0
   60.9525   33.1645   50.1115 H   0  0  0  0  0  0  0  0  0  0  0  0
   60.2390   31.6000   48.7840 C   0  0  0  0  0  0  0  0  0  0  0  0
   58.8780   31.5730   49.4300 C   0  0  0  0  0  0  0  0  0  0  0  0
   58.9914   31.5752   50.5241 H   0  0  0  0  0  0  0  0  0  0  0  0
   58.3067   32.4600   49.1187 H   0  0  0  0  0  0  0  0  0  0  0  0
   58.3423   30.6641   49.1187 H   0  0  0  0  0  0  0  0  0  0  0  0
   58.5770   30.1020   46.4250 N   0  0  0  0  0  0  0  0  0  0  0  0
   58.4390   31.1220   46.2520 H   0  0  0  0  0  0  0  0  0  0  0  0
   57.6940   29.1950   45.9040 C   0  0  0  0  0  0  0  0  0  0  0  0
   56.5460   29.6810   45.0850 C   0  0  0  0  0  0  0  0  0  0  0  0
   55.5230   28.9590   44.9280 O   0  0  0  0  0  0  0  0  0  0  0  0
   56.6140   30.9820   44.4750 N   0  0  0  0  0  0  0  0  0  0  0  0
   57.3380   31.9950   44.8560 C   0  0  0  0  0  0  0  0  0  0  0  0
   57.3810   32.3870   46.1620 N   0  0  0  0  0  0  0  0  0  0  0  0
   58.1330   33.4430   46.5730 C   0  0  0  0  0  0  0  0  0  0  0  0
   58.1444   33.7296   47.6350 H   0  0  0  0  0  0  0  0  0  0  0  0
   58.8910   34.1640   45.6470 C   0  0  0  0  0  0  0  0  0  0  0  0
   59.8650   35.5270   46.1660 Cl  0  0  0  0  0  0  0  0  0  0  0  0
   58.8650   33.7840   44.3040 C   0  0  0  0  0  0  0  0  0  0  0  0
   59.4573   34.3407   43.5629 H   0  0  0  0  0  0  0  0  0  0  0  0
   58.0860   32.6960   43.9020 C   0  0  0  0  0  0  0  0  0  0  0  0
   58.0605   32.3926   42.8450 H   0  0  0  0  0  0  0  0  0  0  0  0
  1  2  1  0
  2  3  2  0
  3  4  1  0
  4  5  1  0
  5  6  1  0
  5  7  2  0
  7  8  1  0
  8  9  2  0
  9 10  1  0
  9 11  1  0
 11 12  1  0
 11 13  2  0
 13 14  1  0
 13 15  1  0
 15 16  1  0
 15 17  2  0
 17 18  1  0
 18 19  1  0
 18 20  1  0
 18 21  1  0
  7 22  1  0
 22 23  1  0
 22 24  2  0
 24 25  1  0
 25 26  2  0
 25 27  1  0
 27 28  2  3
 28 29  1  0
 29 30  1  0
 30 31  1  0
 30 32  2  0
 32 33  1  0
 32 34  1  0
 34 35  1  0
 34 36  2  0
 36 37  1  0
 24  3  1  0
 36 28  1  0
 17  8  1  0
M  CHG  3   4  -1  22   1  29  -1
M  END
>  <UniqueID>  (94) 
90

>  <SMILES>  (94) 
[H]/N=c1\[n-]cc(-c2ccccc2C)[nH+]c1C(=O)N=c1ccc(Cl)c[n-]1

>  <Energy>  (94) 
54.61726030279578

>  <Genealogy>  (94) 
Cc1ccccc1-c1c[n-]c(=N)c(C(=O)N=c2ccc(Cl)c[n-]2)[nH+]1 (protonated)
[H]/N=c1\[n-]cc(-c2ccccc2C)[nH+]c1C(=O)N=c1ccc(Cl)c[n-]1 (cis-trans isomerization)
[H]/N=c1\[n-]cc(-c2ccccc2C)[nH+]c1C(=O)N=c1ccc(Cl)c[n-]1 (3D coordinates assigned)
[H]/N=c1\[n-]cc(-c2ccccc2C)[nH+]c1C(=O)N=c1ccc(Cl)c[n-]1 (optimized conformer: 54.61726030279578 kcal/mol)

>  <smiles>  (94) 
Cc1ccccc1-c1c[nH]c(=N)c(C(=O)N=c2ccc(Cl)c[nH]2)n1

>  <score_type>  (94) 
oracle

>  <origin>  (94) 
adg

>  <m_score__min__energy>  (94) 
-9.7699999999999996

>  <m_primary>  (94) 
energy

$$$$
94:0
     RDKit          3D

 22 23  0  0  0  0  0  0  0  0999 V2000
   51.6940   30.4190   54.3700 O   0  0  0  0  0  0  0  0  0  0  0  0
   51.3200   31.2910   53.5410 C   0  0  0  0  0  0  0  0  0  0  0  0
   50.6490   32.4060   53.9040 N   0  0  0  0  0  0  0  0  0  0  0  0
   50.4570   33.0630   52.7400 C   0  0  0  0  0  0  0  0  0  0  0  0
   51.0150   32.3310   51.7160 C   0  0  0  0  0  0  0  0  0  0  0  0
   51.0340   32.6910   50.3740 O   0  0  0  0  0  0  0  0  0  0  0  0
   51.5510   31.2060   52.2150 N   0  0  0  0  0  0  0  0  0  0  0  0
   52.3040   30.1800   51.4950 C   0  0  0  0  0  0  0  0  0  0  0  0
   53.6920   30.0670   52.0640 C   0  0  0  0  0  0  0  0  0  0  0  0
   54.0850   28.9040   52.7470 C   0  0  0  0  0  0  0  0  0  0  0  0
   55.3640   28.8150   53.3080 C   0  0  0  0  0  0  0  0  0  0  0  0
   56.2520   29.8880   53.1990 C   0  0  0  0  0  0  0  0  0  0  0  0
   55.8640   31.0520   52.5320 C   0  0  0  0  0  0  0  0  0  0  0  0
   54.5870   31.1460   51.9690 C   0  0  0  0  0  0  0  0  0  0  0  0
   49.9388   34.0268   52.6280 H   0  0  0  0  0  0  0  0  0  0  0  0
   51.7894   29.2129   51.5949 H   0  0  0  0  0  0  0  0  0  0  0  0
   52.3704   30.4590   50.4330 H   0  0  0  0  0  0  0  0  0  0  0  0
   53.3852   28.0606   52.8412 H   0  0  0  0  0  0  0  0  0  0  0  0
   55.6704   27.8995   53.8352 H   0  0  0  0  0  0  0  0  0  0  0  0
   57.2576   29.8160   53.6389 H   0  0  0  0  0  0  0  0  0  0  0  0
   56.5640   31.8965   52.4492 H   0  0  0  0  0  0  0  0  0  0  0  0
   54.2826   32.0671   51.4505 H   0  0  0  0  0  0  0  0  0  0  0  0
  1  2  2  0
  2  3  1  0
  3  4  1  0
  4  5  2  0
  5  6  1  0
  5  7  1  0
  7  8  1  0
  8  9  1  0
  9 10  2  0
 10 11  1  0
 11 12  2  0
 12 13  1  0
 13 14  2  0
  7  2  1  0
 14  9  1  0
  4 15  1  0
  8 16  1  0
  8 17  1  0
 10 18  1  0
 11 19  1  0
 12 20  1  0
 13 21  1  0
 14 22  1  0
M  CHG  2   3  -1   6  -1
M  END
>  <UniqueID>  (95) 
91

>  <SMILES>  (95) 
O=c1[n-]cc([O-])n1Cc1ccccc1

>  <Energy>  (95) 
53.2012035543418

>  <Genealogy>  (95) 
O=c1[n-]cc([O-])n1Cc1ccccc1 (protonated)
O=c1[n-]cc([O-])n1Cc1ccccc1 (3D coordinates assigned)
O=c1[n-]cc([O-])n1Cc1ccccc1 (optimized conformer: 53.2012035543418 kcal/mol)

>  <smiles>  (95) 
O=c1[nH]cc(O)n1Cc1ccccc1

>  <score_type>  (95) 
oracle

>  <origin>  (95) 
adg

>  <m_score__min__energy>  (95) 
-10.949999999999999

>  <m_primary>  (95) 
energy

$$$$
95:0
     RDKit          3D

 43 44  0  0  0  0  0  0  0  0999 V2000
   60.8490   33.0130   48.7660 O   0  0  0  0  0  0  0  0  0  0  0  0
   59.6660   32.5840   48.8220 C   0  0  0  0  0  0  0  0  0  0  0  0
   58.6540   33.1150   47.8440 C   0  0  0  0  0  0  0  0  0  0  0  0
   59.3930   33.3050   46.1830 S   0  0  0  0  0  0  0  0  0  0  0  0
   59.0410   31.6270   45.6570 C   0  0  0  0  0  0  0  0  0  0  0  0
   59.9390   30.5970   45.9560 C   0  0  0  0  0  0  0  0  0  0  0  0
   59.6460   29.2840   45.5820 C   0  0  0  0  0  0  0  0  0  0  0  0
   58.4570   28.9940   44.9070 C   0  0  0  0  0  0  0  0  0  0  0  0
   57.5500   30.0230   44.5900 C   0  0  0  0  0  0  0  0  0  0  0  0
   56.3180   29.7300   43.9070 N   0  0  0  0  0  0  0  0  0  0  0  0
   56.2550   29.7600   42.6610 O   0  0  0  0  0  0  0  0  0  0  0  0
   55.1900   29.3970   44.6160 O   0  0  0  0  0  0  0  0  0  0  0  0
   57.8590   31.3440   44.9620 C   0  0  0  0  0  0  0  0  0  0  0  0
   59.3390   31.5890   49.8030 N   0  0  0  0  0  0  0  0  0  0  0  0
   58.3390   31.7470   50.8490 C   0  0  0  0  0  0  0  0  0  0  0  0
   58.2890   30.4870   51.7110 C   0  0  0  0  0  0  0  0  0  0  0  0
   56.9670   29.8750   51.6440 N   0  0  0  0  0  0  0  0  0  0  0  0
   55.8710   30.2590   52.4830 C   0  0  0  0  0  0  0  0  0  0  0  0
   55.9850   31.2280   53.2810 O   0  0  0  0  0  0  0  0  0  0  0  0
   54.5980   29.4760   52.4410 C   0  0  0  0  0  0  0  0  0  0  0  0
   53.4240   30.4070   52.3170 C   0  0  0  0  0  0  0  0  0  0  0  0
   53.1800   31.0810   51.1080 C   0  0  0  0  0  0  0  0  0  0  0  0
   52.1090   31.9740   51.0040 C   0  0  0  0  0  0  0  0  0  0  0  0
   51.2810   32.2080   52.1070 C   0  0  0  0  0  0  0  0  0  0  0  0
   50.2140   33.0910   51.9990 O   0  0  0  0  0  0  0  0  0  0  0  0
   51.5260   31.5510   53.3160 C   0  0  0  0  0  0  0  0  0  0  0  0
   52.5950   30.6550   53.4230 C   0  0  0  0  0  0  0  0  0  0  0  0
   57.8082   32.4143   47.7843 H   0  0  0  0  0  0  0  0  0  0  0  0
   58.3112   34.1006   48.1920 H   0  0  0  0  0  0  0  0  0  0  0  0
   60.8764   30.8215   46.4860 H   0  0  0  0  0  0  0  0  0  0  0  0
   60.3531   28.4755   45.8193 H   0  0  0  0  0  0  0  0  0  0  0  0
   58.2287   27.9564   44.6220 H   0  0  0  0  0  0  0  0  0  0  0  0
   57.1674   32.1600   44.7052 H   0  0  0  0  0  0  0  0  0  0  0  0
   58.6020   32.6099   51.4784 H   0  0  0  0  0  0  0  0  0  0  0  0
   57.3538   31.9113   50.3880 H   0  0  0  0  0  0  0  0  0  0  0  0
   59.0391   29.7694   51.3471 H   0  0  0  0  0  0  0  0  0  0  0  0
   58.5019   30.7611   52.7548 H   0  0  0  0  0  0  0  0  0  0  0  0
   54.6168   28.7967   51.5760 H   0  0  0  0  0  0  0  0  0  0  0  0
   54.5011   28.8953   53.3702 H   0  0  0  0  0  0  0  0  0  0  0  0
   53.8336   30.9054   50.2409 H   0  0  0  0  0  0  0  0  0  0  0  0
   51.9173   32.4933   50.0534 H   0  0  0  0  0  0  0  0  0  0  0  0
   50.8775   31.7387   54.1845 H   0  0  0  0  0  0  0  0  0  0  0  0
   52.7870   30.1427   54.3773 H   0  0  0  0  0  0  0  0  0  0  0  0
  1  2  2  0
  2  3  1  0
  3  4  1  0
  4  5  1  0
  5  6  2  0
  6  7  1  0
  7  8  2  0
  8  9  1  0
  9 10  1  0
 10 11  2  0
 10 12  1  0
  9 13  2  0
  2 14  1  0
 14 15  1  0
 15 16  1  0
 16 17  1  0
 17 18  1  0
 18 19  2  0
 18 20  1  0
 20 21  1  0
 21 22  2  0
 22 23  1  0
 23 24  2  0
 24 25  1  0
 24 26  1  0
 26 27  2  0
 13  5  1  0
 27 21  1  0
  3 28  1  0
  3 29  1  0
  6 30  1  0
  7 31  1  0
  8 32  1  0
 13 33  1  0
 15 34  1  0
 15 35  1  0
 16 36  1  0
 16 37  1  0
 20 38  1  0
 20 39  1  0
 22 40  1  0
 23 41  1  0
 26 42  1  0
 27 43  1  0
M  CHG  5  10   1  12  -1  14  -1  17  -1  25  -1
M  END
>  <UniqueID>  (96) 
92

>  <SMILES>  (96) 
O=C(CSc1cccc([N+](=O)[O-])c1)[N-]CC[N-]C(=O)Cc1ccc([O-])cc1

>  <Energy>  (96) 
30.432842616684802

>  <Genealogy>  (96) 
O=C(CSc1cccc([N+](=O)[O-])c1)[N-]CC[N-]C(=O)Cc1ccc([O-])cc1 (protonated)
O=C(CSc1cccc([N+](=O)[O-])c1)[N-]CC[N-]C(=O)Cc1ccc([O-])cc1 (3D coordinates assigned)
O=C(CSc1cccc([N+](=O)[O-])c1)[N-]CC[N-]C(=O)Cc1ccc([O-])cc1 (optimized conformer: 30.432842616684802 kcal/mol)

>  <smiles>  (96) 
O=C(CSc1cccc([N+](=O)[O-])c1)NCCNC(=O)Cc1ccc(O)cc1

>  <score_type>  (96) 
oracle

>  <origin>  (96) 
adg

>  <m_score__min__energy>  (96) 
-14.84

>  <m_primary>  (96) 
energy

$$$$
