0:0
     RDKit          3D

 42 44  0  0  0  0  0  0  0  0999 V2000
   57.5630   34.0000   45.1330 C   0  0  0  0  0  0  0  0  0  0  0  0
   58.3280   33.7910   46.4060 C   0  0  0  0  0  0  0  0  0  0  0  0
   59.1600   34.8040   46.9040 C   0  0  0  0  0  0  0  0  0  0  0  0
   59.8420   34.6240   48.1080 C   0  0  0  0  0  0  0  0  0  0  0  0
   59.6920   33.4390   48.8310 C   0  0  0  0  0  0  0  0  0  0  0  0
   58.8480   32.4170   48.3590 C   0  0  0  0  0  0  0  0  0  0  0  0
   58.6800   31.1640   49.1320 C   0  0  0  0  0  0  0  0  0  0  0  0
   58.5410   30.0660   48.5270 O   0  0  0  0  0  0  0  0  0  0  0  0
   58.6230   31.2050   50.5650 N   0  0  0  0  0  0  0  0  0  0  0  0
   57.5430   30.7480   51.3920 C   0  0  0  0  0  0  0  0  0  0  0  0
   57.5670   29.4890   52.0190 C   0  0  0  0  0  0  0  0  0  0  0  0
   56.5050   29.0890   52.8350 C   0  0  0  0  0  0  0  0  0  0  0  0
   55.4050   29.9400   53.0340 C   0  0  0  0  0  0  0  0  0  0  0  0
   54.3030   29.5640   53.8750 N   0  0  0  0  0  0  0  0  0  0  0  0
   52.9350   29.4300   53.4660 C   0  0  0  0  0  0  0  0  0  0  0  0
   52.2050   28.5990   54.0700 O   0  0  0  0  0  0  0  0  0  0  0  0
   52.3460   30.2730   52.3970 C   0  0  0  0  0  0  0  0  0  0  0  0
   51.7660   31.5160   52.6990 C   0  0  0  0  0  0  0  0  0  0  0  0
   51.2130   32.3040   51.6850 C   0  0  0  0  0  0  0  0  0  0  0  0
   50.6500   33.5360   51.9990 O   0  0  0  0  0  0  0  0  0  0  0  0
   51.2220   31.8530   50.3600 C   0  0  0  0  0  0  0  0  0  0  0  0
   50.6710   32.6450   49.3580 O   0  0  0  0  0  0  0  0  0  0  0  0
   51.7830   30.6040   50.0490 C   0  0  0  0  0  0  0  0  0  0  0  0
   51.8020   30.1280   48.7400 O   0  0  0  0  0  0  0  0  0  0  0  0
   52.3360   29.8180   51.0670 C   0  0  0  0  0  0  0  0  0  0  0  0
   55.4070   31.2110   52.4500 C   0  0  0  0  0  0  0  0  0  0  0  0
   56.4700   31.6120   51.6350 C   0  0  0  0  0  0  0  0  0  0  0  0
   58.1630   32.6080   47.1440 C   0  0  0  0  0  0  0  0  0  0  0  0
   56.5268   34.2831   45.3702 H   0  0  0  0  0  0  0  0  0  0  0  0
   58.0372   34.8015   44.5476 H   0  0  0  0  0  0  0  0  0  0  0  0
   57.5638   33.0687   44.5476 H   0  0  0  0  0  0  0  0  0  0  0  0
   59.2754   35.7436   46.3437 H   0  0  0  0  0  0  0  0  0  0  0  0
   60.5003   35.4187   48.4890 H   0  0  0  0  0  0  0  0  0  0  0  0
   60.2376   33.3034   49.7765 H   0  0  0  0  0  0  0  0  0  0  0  0
   58.4244   28.8170   51.8666 H   0  0  0  0  0  0  0  0  0  0  0  0
   56.5306   28.1037   53.3234 H   0  0  0  0  0  0  0  0  0  0  0  0
   51.7467   31.8718   53.7397 H   0  0  0  0  0  0  0  0  0  0  0  0
   51.5860   30.7220   47.9480 H   0  0  0  0  0  0  0  0  0  0  0  0
   52.7666   28.8354   50.8239 H   0  0  0  0  0  0  0  0  0  0  0  0
   54.5680   31.8985   52.6328 H   0  0  0  0  0  0  0  0  0  0  0  0
   56.4625   32.6142   51.1816 H   0  0  0  0  0  0  0  0  0  0  0  0
   57.4912   31.8219   46.7688 H   0  0  0  0  0  0  0  0  0  0  0  0
  1  2  1  0
  2  3  2  0
  3  4  1  0
  4  5  2  0
  5  6  1  0
  6  7  1  0
  7  8  2  0
  7  9  1  0
  9 10  1  0
 10 11  2  0
 11 12  1  0
 12 13  2  0
 13 14  1  0
 14 15  1  0
 15 16  2  0
 15 17  1  0
 17 18  2  0
 18 19  1  0
 19 20  1  0
 19 21  2  0
 21 22  1  0
 21 23  1  0
 23 24  1  0
 23 25  2  0
 13 26  1  0
 26 27  2  0
  6 28  2  0
 28  2  1  0
 27 10  1  0
 25 17  1  0
  1 29  1  0
  1 30  1  0
  1 31  1  0
  3 32  1  0
  4 33  1  0
  5 34  1  0
 11 35  1  0
 12 36  1  0
 18 37  1  0
 24 38  1  0
 25 39  1  0
 26 40  1  0
 27 41  1  0
 28 42  1  0
M  CHG  4   9  -1  14  -1  20  -1  22  -1
M  END
>  <UniqueID>  (1) 
1

>  <SMILES>  (1) 
Cc1cccc(C(=O)[N-]c2ccc([N-]C(=O)c3cc([O-])c([O-])c(O)c3)cc2)c1

>  <Energy>  (1) 
55.85399487911671

>  <Genealogy>  (1) 
Cc1cccc(C(=O)[N-]c2ccc([N-]C(=O)c3cc([O-])c([O-])c(O)c3)cc2)c1 (protonated)
Cc1cccc(C(=O)[N-]c2ccc([N-]C(=O)c3cc([O-])c([O-])c(O)c3)cc2)c1 (3D coordinates assigned)
Cc1cccc(C(=O)[N-]c2ccc([N-]C(=O)c3cc([O-])c([O-])c(O)c3)cc2)c1 (optimized conformer: 55.85399487911671 kcal/mol)

>  <smiles>  (1) 
Cc1cccc(C(=O)Nc2ccc(NC(=O)c3cc(O)c(O)c(O)c3)cc2)c1

>  <score_type>  (1) 
oracle

>  <origin>  (1) 
adg

>  <m_score__min__energy>  (1) 
-19.09

>  <m_primary>  (1) 
energy

$$$$
1:0
     RDKit          3D

 71 76  0  0  0  0  0  0  0  0999 V2000
   50.2570   26.9830   54.4320 C   0  0  0  0  0  0  0  0  0  0  0  0
   50.9960   26.4880   52.8900 S   0  0  0  0  0  0  0  0  0  0  0  0
   50.2490   27.0910   51.7330 O   0  0  0  0  0  0  0  0  0  0  0  0
   52.4160   26.9730   52.8660 O   0  0  0  0  0  0  0  0  0  0  0  0
   50.9970   24.7570   52.7630 N   0  0  0  0  0  0  0  0  0  0  0  0
   51.0290   24.0250   51.5320 C   0  0  0  0  0  0  0  0  0  0  0  0
   49.9380   24.0060   50.6470 C   0  0  0  0  0  0  0  0  0  0  0  0
   50.0130   23.2820   49.4540 C   0  0  0  0  0  0  0  0  0  0  0  0
   51.1640   22.5490   49.1370 C   0  0  0  0  0  0  0  0  0  0  0  0
   51.2490   21.7660   47.8530 C   0  0  0  0  0  0  0  0  0  0  0  0
   52.2980   22.3460   46.9570 C   0  0  0  0  0  0  0  0  0  0  0  0
   53.4140   22.9400   47.4310 N   0  0  0  0  0  0  0  0  0  0  0  0
   54.0660   23.3570   46.3320 C   0  0  0  0  0  0  0  0  0  0  0  0
   55.3450   24.1010   46.3860 C   0  0  0  0  0  0  0  0  0  0  0  0
   55.7320   24.9920   45.3690 C   0  0  0  0  0  0  0  0  0  0  0  0
   56.9510   25.6720   45.4460 C   0  0  0  0  0  0  0  0  0  0  0  0
   57.8150   25.4670   46.5360 C   0  0  0  0  0  0  0  0  0  0  0  0
   59.1230   26.1590   46.6070 C   0  0  0  0  0  0  0  0  0  0  0  0
   60.1750   25.4940   46.7950 O   0  0  0  0  0  0  0  0  0  0  0  0
   59.2140   27.5830   46.4690 N   0  0  0  0  0  0  0  0  0  0  0  0
   60.0930   28.1440   45.4320 C   0  0  0  0  0  0  0  0  0  0  0  0
   60.2640   29.6580   45.6080 C   0  0  0  0  0  0  0  0  0  0  0  0
   60.5810   29.9770   47.0840 C   0  0  0  0  0  0  0  0  0  0  0  0
   60.8590   31.4150   47.2990 N   0  0  0  0  0  0  0  0  0  0  0  0
   62.0520   31.8020   48.0030 C   0  0  0  0  0  0  0  0  0  0  0  0
   62.6110   31.0180   48.8140 O   0  0  0  0  0  0  0  0  0  0  0  0
   62.5810   33.0780   47.8060 O   0  0  0  0  0  0  0  0  0  0  0  0
   62.1530   33.8920   46.7160 C   0  0  0  0  0  0  0  0  0  0  0  0
   60.6740   33.7380   46.4840 C   0  0  0  0  0  0  0  0  0  0  0  0
   59.9290   34.7960   45.9410 C   0  0  0  0  0  0  0  0  0  0  0  0
   58.5630   34.6430   45.7120 C   0  0  0  0  0  0  0  0  0  0  0  0
   57.9370   33.4310   46.0100 C   0  0  0  0  0  0  0  0  0  0  0  0
   58.6760   32.3630   46.5250 C   0  0  0  0  0  0  0  0  0  0  0  0
   60.0600   32.4920   46.7460 C   0  0  0  0  0  0  0  0  0  0  0  0
   59.5160   29.4370   48.0760 C   0  0  0  0  0  0  0  0  0  0  0  0
   58.5240   28.4590   47.4240 C   0  0  0  0  0  0  0  0  0  0  0  0
   57.4390   24.5640   47.5420 C   0  0  0  0  0  0  0  0  0  0  0  0
   56.2200   23.8870   47.4660 C   0  0  0  0  0  0  0  0  0  0  0  0
   53.3110   23.0140   45.2280 C   0  0  0  0  0  0  0  0  0  0  0  0
   53.6060   23.3010   43.9010 O   0  0  0  0  0  0  0  0  0  0  0  0
   52.1920   22.3750   45.6110 N   0  0  0  0  0  0  0  0  0  0  0  0
   52.2500   22.5650   50.0250 C   0  0  0  0  0  0  0  0  0  0  0  0
   52.1850   23.3100   51.2050 C   0  0  0  0  0  0  0  0  0  0  0  0
   50.8512   26.5850   55.2678 H   0  0  0  0  0  0  0  0  0  0  0  0
   50.2314   28.0811   54.4905 H   0  0  0  0  0  0  0  0  0  0  0  0
   49.2318   26.5887   54.4905 H   0  0  0  0  0  0  0  0  0  0  0  0
   49.0220   24.5627   50.8939 H   0  0  0  0  0  0  0  0  0  0  0  0
   49.1612   23.2877   48.7581 H   0  0  0  0  0  0  0  0  0  0  0  0
   51.5052   20.7210   48.0819 H   0  0  0  0  0  0  0  0  0  0  0  0
   50.2765   21.8132   47.3411 H   0  0  0  0  0  0  0  0  0  0  0  0
   55.0700   25.1552   44.5058 H   0  0  0  0  0  0  0  0  0  0  0  0
   57.2364   26.3728   44.6476 H   0  0  0  0  0  0  0  0  0  0  0  0
   61.0793   27.6616   45.4985 H   0  0  0  0  0  0  0  0  0  0  0  0
   59.6349   27.9575   44.4495 H   0  0  0  0  0  0  0  0  0  0  0  0
   61.0903   30.0091   44.9723 H   0  0  0  0  0  0  0  0  0  0  0  0
   59.3328   30.1662   45.3171 H   0  0  0  0  0  0  0  0  0  0  0  0
   61.5071   29.4284   47.3108 H   0  0  0  0  0  0  0  0  0  0  0  0
   62.3749   34.9452   46.9432 H   0  0  0  0  0  0  0  0  0  0  0  0
   62.6876   33.5759   45.8081 H   0  0  0  0  0  0  0  0  0  0  0  0
   60.4239   35.7473   45.6958 H   0  0  0  0  0  0  0  0  0  0  0  0
   57.9780   35.4768   45.2966 H   0  0  0  0  0  0  0  0  0  0  0  0
   56.8565   33.3165   45.8384 H   0  0  0  0  0  0  0  0  0  0  0  0
   58.1721   31.4137   46.7596 H   0  0  0  0  0  0  0  0  0  0  0  0
   60.0332   28.9164   48.8955 H   0  0  0  0  0  0  0  0  0  0  0  0
   58.9366   30.2998   48.4364 H   0  0  0  0  0  0  0  0  0  0  0  0
   58.0562   27.8434   48.2064 H   0  0  0  0  0  0  0  0  0  0  0  0
   57.7582   29.0369   46.8858 H   0  0  0  0  0  0  0  0  0  0  0  0
   58.1091   24.3882   48.3964 H   0  0  0  0  0  0  0  0  0  0  0  0
   55.9411   23.1784   48.2598 H   0  0  0  0  0  0  0  0  0  0  0  0
   53.1570   21.9882   49.7910 H   0  0  0  0  0  0  0  0  0  0  0  0
   53.0510   23.3342   51.8828 H   0  0  0  0  0  0  0  0  0  0  0  0
  1  2  1  0
  2  3  2  0
  2  4  2  0
  2  5  1  0
  5  6  1  0
  6  7  2  0
  7  8  1  0
  8  9  2  0
  9 10  1  0
 10 11  1  0
 11 12  2  0
 12 13  1  0
 13 14  1  0
 14 15  2  0
 15 16  1  0
 16 17  2  0
 17 18  1  0
 18 19  2  0
 18 20  1  0
 20 21  1  0
 21 22  1  0
 22 23  1  0
 23 24  1  0
 24 25  1  0
 25 26  2  0
 25 27  1  0
 27 28  1  0
 28 29  1  0
 29 30  2  0
 30 31  1  0
 31 32  2  0
 32 33  1  0
 33 34  2  0
 23 35  1  0
 35 36  1  0
 17 37  1  0
 37 38  2  0
 13 39  2  0
 39 40  1  0
 39 41  1  0
  9 42  1  0
 42 43  2  0
 43  6  1  0
 41 11  1  0
 38 14  1  0
 36 20  1  0
 34 24  1  0
 34 29  1  0
  1 44  1  0
  1 45  1  0
  1 46  1  0
  7 47  1  0
  8 48  1  0
 10 49  1  0
 10 50  1  0
 15 51  1  0
 16 52  1  0
 21 53  1  0
 21 54  1  0
 22 55  1  0
 22 56  1  0
 23 57  1  0
 28 58  1  0
 28 59  1  0
 30 60  1  0
 31 61  1  0
 32 62  1  0
 33 63  1  0
 35 64  1  0
 35 65  1  0
 36 66  1  0
 36 67  1  0
 37 68  1  0
 38 69  1  0
 42 70  1  0
 43 71  1  0
M  CHG  3   5  -1  40  -1  41  -1
M  END
>  <UniqueID>  (2) 
2

>  <SMILES>  (2) 
CS(=O)(=O)[N-]c1ccc(Cc2nc(-c3ccc(C(=O)N4CCC(N5C(=O)OCc6ccccc65)CC4)cc3)c([O-])[n-]2)cc1

>  <Energy>  (2) 
124.54219461443063

>  <Genealogy>  (2) 
CS(=O)(=O)[N-]c1ccc(Cc2nc(-c3ccc(C(=O)N4CCC(N5C(=O)OCc6ccccc65)CC4)cc3)c([O-])[n-]2)cc1 (protonated)
CS(=O)(=O)[N-]c1ccc(Cc2nc(-c3ccc(C(=O)N4CCC(N5C(=O)OCc6ccccc65)CC4)cc3)c([O-])[n-]2)cc1 (3D coordinates assigned)
CS(=O)(=O)[N-]c1ccc(Cc2nc(-c3ccc(C(=O)N4CCC(N5C(=O)OCc6ccccc65)CC4)cc3)c([O-])[n-]2)cc1 (nonaromatic ring conformer: 124.54219461443063 kcal/mol)

>  <smiles>  (2) 
CS(=O)(=O)Nc1ccc(Cc2nc(-c3ccc(C(=O)N4CCC(N5C(=O)OCc6ccccc65)CC4)cc3)c(O)[nH]2)cc1

>  <score_type>  (2) 
oracle

>  <origin>  (2) 
adg

>  <m_score__min__energy>  (2) 
-14.56

>  <m_primary>  (2) 
energy

$$$$
2:0
     RDKit          3D

 67 71  0  0  1  0  0  0  0  0999 V2000
   55.0540   31.1940   51.6190 N   0  0  0  0  0  0  0  0  0  0  0  0
   56.5750   30.7530   52.3440 S   0  0  0  0  0  0  0  0  0  0  0  0
   56.3860   30.4600   53.7950 O   0  0  0  0  0  0  0  0  0  0  0  0
   57.0300   29.4740   51.6920 O   0  0  0  0  0  0  0  0  0  0  0  0
   57.6760   32.0730   52.0400 C   0  0  0  0  0  0  0  0  0  0  0  0
   57.9680   32.9530   53.0610 C   0  0  0  0  0  0  0  0  0  0  0  0
   58.8390   33.9960   52.8060 C   0  0  0  0  0  0  0  0  0  0  0  0
   59.4130   34.1650   51.5560 C   0  0  0  0  0  0  0  0  0  0  0  0
   59.0900   33.2520   50.5540 C   0  0  0  0  0  0  0  0  0  0  0  0
   59.8360   33.5210   48.9940 S   0  0  0  0  0  0  0  0  0  0  0  0
   61.0830   34.3320   49.2130 O   0  0  0  0  0  0  0  0  0  0  0  0
   58.9070   34.3170   48.1190 O   0  0  0  0  0  0  0  0  0  0  0  0
   60.2070   32.0740   48.1930 N   0  0  0  0  0  0  0  0  0  0  0  0
   61.1170   32.1860   47.1090 C   0  0  0  0  0  0  0  0  0  0  0  0
   61.7200   30.8290   46.8130 C   0  0  0  0  0  0  0  0  0  0  0  0
   60.6570   29.8420   46.7100 N   0  0  0  0  0  0  0  0  0  0  0  0
   60.7570   28.9160   45.6320 C   0  0  0  0  0  0  0  0  0  0  0  0
   61.7500   29.0320   44.8790 O   0  0  0  0  0  0  0  0  0  0  0  0
   59.7820   27.8690   45.3780 C   0  0  0  0  0  0  0  0  0  0  0  0
   59.0650   27.9410   44.2040 C   0  0  0  0  0  0  0  0  0  0  0  0
   58.1150   26.9640   43.9140 C   0  0  0  0  0  0  0  0  0  0  0  0
   57.8460   25.9070   44.7470 C   0  0  0  0  0  0  0  0  0  0  0  0
   56.8490   24.8920   44.4360 C   0  0  0  0  0  0  0  0  0  0  0  0
   55.7550   24.6670   45.2420 C   0  0  0  0  0  0  0  0  0  0  0  0
   54.8010   23.6990   44.9300 C   0  0  0  0  0  0  0  0  0  0  0  0
   53.7850   23.5100   45.6980 N   0  0  0  0  0  0  0  0  0  0  0  0
   53.8850   22.8900   46.9750 C   0  0  0  0  0  0  0  0  0  0  0  0
   52.7770   22.3000   47.5420 C   0  0  0  0  0  0  0  0  0  0  0  0
   52.8370   21.6830   48.7810 C   0  0  0  0  0  0  0  0  0  0  0  0
   54.0290   21.6400   49.4980 C   0  0  0  0  0  0  0  0  0  0  0  0
   54.1000   21.0190   50.7500 O   0  0  0  0  0  0  0  0  0  0  0  0
   55.1350   22.2380   48.9170 C   0  0  0  0  0  0  0  0  0  0  0  0
   55.0750   22.8570   47.6750 C   0  0  0  0  0  0  0  0  0  0  0  0
   54.9530   22.9640   43.8150 N   0  0  0  0  0  0  0  0  0  0  0  0
   56.0330   23.1780   43.0120 C   0  0  0  0  0  0  0  0  0  0  0  0
   56.9570   24.1300   43.3310 N   0  0  0  0  0  0  0  0  0  0  0  0
   58.5780   25.8490   45.9250 C   0  0  0  0  0  0  0  0  0  0  0  0
   59.5360   26.8210   46.2380 C   0  0  0  0  0  0  0  0  0  0  0  0
   59.5470   29.7650   47.6270 C   0  0  0  0  0  0  0  0  0  0  0  0
   59.1470   31.1380   48.0520 C   0  0  0  0  0  0  0  0  0  0  0  0
   58.2250   32.1990   50.7700 C   0  0  0  0  0  0  0  0  0  0  0  0
   54.7190   32.0880   52.0320 H   0  0  0  0  0  0  0  0  0  0  0  0
   55.1650   31.2600   50.5780 H   0  0  0  0  0  0  0  0  0  0  0  0
   57.5176   32.8277   54.0567 H   0  0  0  0  0  0  0  0  0  0  0  0
   59.0811   34.7055   53.6110 H   0  0  0  0  0  0  0  0  0  0  0  0
   60.1049   34.9974   51.3600 H   0  0  0  0  0  0  0  0  0  0  0  0
   60.5839   32.5522   46.2192 H   0  0  0  0  0  0  0  0  0  0  0  0
   61.9173   32.8926   47.3740 H   0  0  0  0  0  0  0  0  0  0  0  0
   62.2741   30.8724   45.8638 H   0  0  0  0  0  0  0  0  0  0  0  0
   62.4072   30.5466   47.6242 H   0  0  0  0  0  0  0  0  0  0  0  0
   59.2417   28.7663   43.4985 H   0  0  0  0  0  0  0  0  0  0  0  0
   57.5533   27.0437   42.9716 H   0  0  0  0  0  0  0  0  0  0  0  0
   55.6306   25.2666   46.1558 H   0  0  0  0  0  0  0  0  0  0  0  0
   51.8212   22.3192   46.9978 H   0  0  0  0  0  0  0  0  0  0  0  0
   51.9319   21.2217   49.2029 H   0  0  0  0  0  0  0  0  0  0  0  0
   53.5840   20.1670   50.9280 H   0  0  0  0  0  0  0  0  0  0  0  0
   56.0930   22.2222   49.4573 H   0  0  0  0  0  0  0  0  0  0  0  0
   55.9763   23.3214   47.2485 H   0  0  0  0  0  0  0  0  0  0  0  0
   56.1610   22.5782   42.0989 H   0  0  0  0  0  0  0  0  0  0  0  0
   57.7430   24.2120   42.6490 H   0  0  0  0  0  0  0  0  0  0  0  0
   58.4016   25.0214   46.6279 H   0  0  0  0  0  0  0  0  0  0  0  0
   60.0982   26.7471   47.1806 H   0  0  0  0  0  0  0  0  0  0  0  0
   58.6968   29.2740   47.1310 H   0  0  0  0  0  0  0  0  0  0  0  0
   59.8461   29.1835   48.5115 H   0  0  0  0  0  0  0  0  0  0  0  0
   58.4455   31.5327   47.3023 H   0  0  0  0  0  0  0  0  0  0  0  0
   58.7115   31.0256   49.0558 H   0  0  0  0  0  0  0  0  0  0  0  0
   57.9797   31.4871   49.9681 H   0  0  0  0  0  0  0  0  0  0  0  0
  1  2  1  0
  2  3  2  0
  2  4  2  0
  2  5  1  0
  5  6  2  0
  6  7  1  0
  7  8  2  0
  8  9  1  0
  9 10  1  0
 10 11  2  0
 10 12  2  0
 10 13  1  0
 13 14  1  0
 14 15  1  0
 15 16  1  0
 16 17  1  0
 17 18  2  0
 17 19  1  0
 19 20  2  0
 20 21  1  0
 21 22  2  0
 22 23  1  0
 23 24  2  0
 24 25  1  0
 25 26  2  0
 26 27  1  0
 27 28  2  0
 28 29  1  0
 29 30  2  0
 30 31  1  0
 30 32  1  0
 32 33  2  0
 25 34  1  0
 34 35  2  0
 35 36  1  0
 22 37  1  0
 37 38  2  0
 16 39  1  0
 39 40  1  0
  9 41  2  0
 41  5  1  0
 40 13  1  0
 38 19  1  0
 36 23  1  0
 33 27  1  0
  1 42  1  0
  1 43  1  0
  6 44  1  0
  7 45  1  0
  8 46  1  0
 14 47  1  0
 14 48  1  0
 15 49  1  0
 15 50  1  0
 20 51  1  0
 21 52  1  0
 24 53  1  0
 28 54  1  0
 29 55  1  0
 31 56  1  0
 32 57  1  0
 33 58  1  0
 35 59  1  0
 36 60  1  0
 37 61  1  0
 38 62  1  0
 39 63  1  0
 39 64  1  0
 40 65  1  0
 40 66  1  0
 41 67  1  0
M  END
>  <smiles>  (3) 
NS(=O)(=O)c1cccc(S(=O)(=O)N2CCN(C(=O)c3ccc(-c4cc(=Nc5ccc(O)cc5)nc[nH]4)cc3)CC2)c1

>  <score_type>  (3) 
oracle

>  <origin>  (3) 
adg

>  <m_score__min__energy>  (3) 
-12.15

>  <m_primary>  (3) 
energy

$$$$
3:0
     RDKit          3D

 42 44  0  0  0  0  0  0  0  0999 V2000
   58.1960   28.6070   46.7370 O   0  0  0  0  0  0  0  0  0  0  0  0
   57.3360   28.5660   45.8140 C   0  0  0  0  0  0  0  0  0  0  0  0
   56.3740   27.4980   45.7560 N   0  0  0  0  0  0  0  0  0  0  0  0
   56.6140   26.2180   45.7740 C   0  0  0  0  0  0  0  0  0  0  0  0
   57.8920   25.7400   45.7260 N   0  0  0  0  0  0  0  0  0  0  0  0
   58.1690   24.4090   45.7430 C   0  0  0  0  0  0  0  0  0  0  0  0
   57.1290   23.4810   45.8090 C   0  0  0  0  0  0  0  0  0  0  0  0
   55.8110   23.9350   45.8600 C   0  0  0  0  0  0  0  0  0  0  0  0
   55.5410   25.3070   45.8450 C   0  0  0  0  0  0  0  0  0  0  0  0
   54.2130   25.7370   45.9000 O   0  0  0  0  0  0  0  0  0  0  0  0
   57.3270   29.6230   44.7740 C   0  0  0  0  0  0  0  0  0  0  0  0
   56.6840   29.4090   43.5420 C   0  0  0  0  0  0  0  0  0  0  0  0
   56.6760   30.4080   42.5680 C   0  0  0  0  0  0  0  0  0  0  0  0
   57.3100   31.6280   42.8040 C   0  0  0  0  0  0  0  0  0  0  0  0
   57.9750   31.8560   44.0220 C   0  0  0  0  0  0  0  0  0  0  0  0
   58.6740   33.0780   44.3050 N   0  0  0  0  0  0  0  0  0  0  0  0
   58.4130   34.1550   45.6430 S   0  0  0  0  0  0  0  0  0  0  0  0
   56.9760   34.5920   45.6170 O   0  0  0  0  0  0  0  0  0  0  0  0
   59.2760   35.3780   45.5150 O   0  0  0  0  0  0  0  0  0  0  0  0
   58.7130   33.3260   47.1980 C   0  0  0  0  0  0  0  0  0  0  0  0
   60.1620   32.9560   47.3480 C   0  0  0  0  0  0  0  0  0  0  0  0
   61.1490   33.9550   47.3810 C   0  0  0  0  0  0  0  0  0  0  0  0
   62.5010   33.6070   47.4660 C   0  0  0  0  0  0  0  0  0  0  0  0
   62.8770   32.2620   47.5170 C   0  0  0  0  0  0  0  0  0  0  0  0
   61.9000   31.2610   47.4870 C   0  0  0  0  0  0  0  0  0  0  0  0
   60.5470   31.6060   47.4020 C   0  0  0  0  0  0  0  0  0  0  0  0
   57.9690   30.8540   45.0010 C   0  0  0  0  0  0  0  0  0  0  0  0
   59.2127   24.0638   45.7047 H   0  0  0  0  0  0  0  0  0  0  0  0
   57.3462   22.4027   45.8207 H   0  0  0  0  0  0  0  0  0  0  0  0
   54.9829   23.2128   45.9121 H   0  0  0  0  0  0  0  0  0  0  0  0
   53.9620   26.7170   45.9780 H   0  0  0  0  0  0  0  0  0  0  0  0
   56.1846   28.4489   43.3450 H   0  0  0  0  0  0  0  0  0  0  0  0
   56.1670   30.2326   41.6088 H   0  0  0  0  0  0  0  0  0  0  0  0
   57.2897   32.4142   42.0349 H   0  0  0  0  0  0  0  0  0  0  0  0
   58.4269   33.9958   48.0223 H   0  0  0  0  0  0  0  0  0  0  0  0
   58.1145   32.4034   47.2211 H   0  0  0  0  0  0  0  0  0  0  0  0
   60.8575   35.0149   47.3398 H   0  0  0  0  0  0  0  0  0  0  0  0
   63.2697   34.3934   47.4928 H   0  0  0  0  0  0  0  0  0  0  0  0
   63.9410   31.9904   47.5807 H   0  0  0  0  0  0  0  0  0  0  0  0
   62.1959   30.2024   47.5303 H   0  0  0  0  0  0  0  0  0  0  0  0
   59.7812   30.8168   47.3773 H   0  0  0  0  0  0  0  0  0  0  0  0
   58.4740   31.0325   45.9618 H   0  0  0  0  0  0  0  0  0  0  0  0
  1  2  2  0
  2  3  1  0
  3  4  2  3
  4  5  1  0
  5  6  1  0
  6  7  2  0
  7  8  1  0
  8  9  2  0
  9 10  1  0
  2 11  1  0
 11 12  2  0
 12 13  1  0
 13 14  2  0
 14 15  1  0
 15 16  1  0
 16 17  1  0
 17 18  2  0
 17 19  2  0
 17 20  1  0
 20 21  1  0
 21 22  2  0
 22 23  1  0
 23 24  2  0
 24 25  1  0
 25 26  2  0
 15 27  2  0
  9  4  1  0
 27 11  1  0
 26 21  1  0
  6 28  1  0
  7 29  1  0
  8 30  1  0
 10 31  1  0
 12 32  1  0
 13 33  1  0
 14 34  1  0
 20 35  1  0
 20 36  1  0
 22 37  1  0
 23 38  1  0
 24 39  1  0
 25 40  1  0
 26 41  1  0
 27 42  1  0
M  CHG  2   5  -1  16  -1
M  END
>  <UniqueID>  (4) 
3

>  <SMILES>  (4) 
O=C(N=c1[n-]cccc1O)c1cccc([N-]S(=O)(=O)Cc2ccccc2)c1

>  <Energy>  (4) 
46.67591887877484

>  <Genealogy>  (4) 
O=C(N=c1[n-]cccc1O)c1cccc([N-]S(=O)(=O)Cc2ccccc2)c1 (protonated)
O=C(N=c1[n-]cccc1O)c1cccc([N-]S(=O)(=O)Cc2ccccc2)c1 (3D coordinates assigned)
O=C(N=c1[n-]cccc1O)c1cccc([N-]S(=O)(=O)Cc2ccccc2)c1 (optimized conformer: 46.67591887877484 kcal/mol)

>  <smiles>  (4) 
O=C(N=c1[nH]cccc1O)c1cccc(NS(=O)(=O)Cc2ccccc2)c1

>  <score_type>  (4) 
oracle

>  <origin>  (4) 
adg

>  <m_score__min__energy>  (4) 
-11.98

>  <m_primary>  (4) 
energy

$$$$
4:0
     RDKit          3D

 66 69  0  0  0  0  0  0  0  0999 V2000
   54.4150   30.9560   52.0150 C   0  0  0  0  0  0  0  0  0  0  0  0
   55.6600   31.2990   52.3460 C   0  0  0  0  0  0  0  0  0  0  0  0
   56.8590   30.6180   51.8220 C   0  0  0  0  0  0  0  0  0  0  0  0
   56.9970   29.3870   52.0500 O   0  0  0  0  0  0  0  0  0  0  0  0
   57.8850   31.3350   51.1150 N   0  0  0  0  0  0  0  0  0  0  0  0
   58.9590   30.6780   50.4220 C   0  0  0  0  0  0  0  0  0  0  0  0
   58.7100   29.4850   49.7240 C   0  0  0  0  0  0  0  0  0  0  0  0
   59.7290   28.8660   48.9940 C   0  0  0  0  0  0  0  0  0  0  0  0
   61.0010   29.4390   48.9460 C   0  0  0  0  0  0  0  0  0  0  0  0
   61.2630   30.6240   49.6370 C   0  0  0  0  0  0  0  0  0  0  0  0
   60.2510   31.2510   50.3820 C   0  0  0  0  0  0  0  0  0  0  0  0
   60.6350   32.7060   51.3110 S   0  0  0  0  0  0  0  0  0  0  0  0
   59.3840   33.5040   51.5560 O   0  0  0  0  0  0  0  0  0  0  0  0
   61.2360   32.2830   52.6230 O   0  0  0  0  0  0  0  0  0  0  0  0
   61.7810   33.6780   50.4450 N   0  0  0  0  0  0  0  0  0  0  0  0
   61.8400   33.7680   49.0160 C   0  0  0  0  0  0  0  0  0  0  0  0
   60.6470   33.9490   48.3110 C   0  0  0  0  0  0  0  0  0  0  0  0
   60.6390   34.0190   46.9080 C   0  0  0  0  0  0  0  0  0  0  0  0
   59.3950   34.1370   46.1840 N   0  0  0  0  0  0  0  0  0  0  0  0
   59.4020   34.2380   44.7200 C   0  0  0  0  0  0  0  0  0  0  0  0
   58.1850   33.5010   44.1280 C   0  0  0  0  0  0  0  0  0  0  0  0
   57.8220   32.3110   44.9330 N   0  0  0  0  0  0  0  0  0  0  0  0
   58.8850   31.2790   44.9000 C   0  0  0  0  0  0  0  0  0  0  0  0
   58.8590   30.4340   46.1820 C   0  0  0  0  0  0  0  0  0  0  0  0
   58.3680   29.0320   45.9410 C   0  0  0  0  0  0  0  0  0  0  0  0
   57.2550   28.5090   46.4980 N   0  0  0  0  0  0  0  0  0  0  0  0
   57.2370   27.2440   46.0330 C   0  0  0  0  0  0  0  0  0  0  0  0
   56.2190   26.2260   46.3710 C   0  0  0  0  0  0  0  0  0  0  0  0
   56.5580   25.2430   47.0810 O   0  0  0  0  0  0  0  0  0  0  0  0
   54.8530   26.3110   45.9370 N   0  0  0  0  0  0  0  0  0  0  0  0
   53.9810   25.1860   45.6240 C   0  0  0  0  0  0  0  0  0  0  0  0
   58.3280   27.0480   45.2160 C   0  0  0  0  0  0  0  0  0  0  0  0
   59.0040   28.1710   45.1810 O   0  0  0  0  0  0  0  0  0  0  0  0
   57.4150   32.6740   46.3180 C   0  0  0  0  0  0  0  0  0  0  0  0
   58.0990   33.9510   46.8460 C   0  0  0  0  0  0  0  0  0  0  0  0
   61.8560   33.9190   46.2150 C   0  0  0  0  0  0  0  0  0  0  0  0
   63.0560   33.7620   46.9130 C   0  0  0  0  0  0  0  0  0  0  0  0
   63.0570   33.6980   48.3100 C   0  0  0  0  0  0  0  0  0  0  0  0
   64.2670   33.5940   48.9840 O   0  0  0  0  0  0  0  0  0  0  0  0
   53.5618   31.5043   52.4409 H   0  0  0  0  0  0  0  0  0  0  0  0
   54.2409   30.1247   51.3159 H   0  0  0  0  0  0  0  0  0  0  0  0
   55.8007   32.1346   53.0474 H   0  0  0  0  0  0  0  0  0  0  0  0
   57.9070   32.3750   51.1750 H   0  0  0  0  0  0  0  0  0  0  0  0
   57.7067   29.0348   49.7519 H   0  0  0  0  0  0  0  0  0  0  0  0
   59.5284   27.9271   48.4572 H   0  0  0  0  0  0  0  0  0  0  0  0
   61.7988   28.9561   48.3626 H   0  0  0  0  0  0  0  0  0  0  0  0
   62.2682   31.0690   49.5975 H   0  0  0  0  0  0  0  0  0  0  0  0
   59.6998   34.0380   48.8631 H   0  0  0  0  0  0  0  0  0  0  0  0
   59.3612   35.2980   44.4291 H   0  0  0  0  0  0  0  0  0  0  0  0
   60.3228   33.7767   44.3336 H   0  0  0  0  0  0  0  0  0  0  0  0
   57.3279   34.1901   44.1034 H   0  0  0  0  0  0  0  0  0  0  0  0
   58.4475   33.1632   43.1146 H   0  0  0  0  0  0  0  0  0  0  0  0
   58.7250   30.6231   44.0316 H   0  0  0  0  0  0  0  0  0  0  0  0
   59.8619   31.7789   44.8249 H   0  0  0  0  0  0  0  0  0  0  0  0
   59.8785   30.3846   46.5922 H   0  0  0  0  0  0  0  0  0  0  0  0
   58.1621   30.9151   46.8841 H   0  0  0  0  0  0  0  0  0  0  0  0
   53.6252   24.7269   46.5581 H   0  0  0  0  0  0  0  0  0  0  0  0
   53.1200   25.5412   45.0388 H   0  0  0  0  0  0  0  0  0  0  0  0
   54.5397   24.4408   45.0388 H   0  0  0  0  0  0  0  0  0  0  0  0
   58.5857   26.1179   44.6883 H   0  0  0  0  0  0  0  0  0  0  0  0
   56.3264   32.8315   46.3309 H   0  0  0  0  0  0  0  0  0  0  0  0
   57.7250   31.8467   46.9733 H   0  0  0  0  0  0  0  0  0  0  0  0
   57.4568   34.8199   46.6399 H   0  0  0  0  0  0  0  0  0  0  0  0
   58.2582   33.8532   47.9300 H   0  0  0  0  0  0  0  0  0  0  0  0
   61.8647   33.9645   45.1160 H   0  0  0  0  0  0  0  0  0  0  0  0
   64.0046   33.6884   46.3610 H   0  0  0  0  0  0  0  0  0  0  0  0
  1  2  2  0
  2  3  1  0
  3  4  2  0
  3  5  1  0
  5  6  1  0
  6  7  2  0
  7  8  1  0
  8  9  2  0
  9 10  1  0
 10 11  2  0
 11 12  1  0
 12 13  2  0
 12 14  2  0
 12 15  1  0
 15 16  1  0
 16 17  2  0
 17 18  1  0
 18 19  1  0
 19 20  1  0
 20 21  1  0
 21 22  1  0
 22 23  1  0
 23 24  1  0
 24 25  1  0
 25 26  2  0
 26 27  1  0
 27 28  1  0
 28 29  2  0
 28 30  1  0
 30 31  1  0
 27 32  2  0
 32 33  1  0
 22 34  1  0
 34 35  1  0
 18 36  2  0
 36 37  1  0
 37 38  2  0
 38 39  1  0
 11  6  1  0
 38 16  1  0
 35 19  1  0
 33 25  1  0
  1 40  1  0
  1 41  1  0
  2 42  1  0
  5 43  1  0
  7 44  1  0
  8 45  1  0
  9 46  1  0
 10 47  1  0
 17 48  1  0
 20 49  1  0
 20 50  1  0
 21 51  1  0
 21 52  1  0
 23 53  1  0
 23 54  1  0
 24 55  1  0
 24 56  1  0
 31 57  1  0
 31 58  1  0
 31 59  1  0
 32 60  1  0
 34 61  1  0
 34 62  1  0
 35 63  1  0
 35 64  1  0
 36 65  1  0
 37 66  1  0
M  CHG  3  15  -1  30  -1  39  -1
M  END
>  <UniqueID>  (5) 
4

>  <SMILES>  (5) 
C=CC(=O)Nc1ccccc1S(=O)(=O)[N-]c1cc(N2CCN(CCc3nc(C(=O)[N-]C)co3)CC2)ccc1[O-]

>  <Energy>  (5) 
119.99982703050665

>  <Genealogy>  (5) 
C=CC(=O)Nc1ccccc1S(=O)(=O)[N-]c1cc(N2CCN(CCc3nc(C(=O)[N-]C)co3)CC2)ccc1[O-] (protonated)
C=CC(=O)Nc1ccccc1S(=O)(=O)[N-]c1cc(N2CCN(CCc3nc(C(=O)[N-]C)co3)CC2)ccc1[O-] (3D coordinates assigned)
C=CC(=O)Nc1ccccc1S(=O)(=O)[N-]c1cc(N2CCN(CCc3nc(C(=O)[N-]C)co3)CC2)ccc1[O-] (nonaromatic ring conformer: 119.99982703050665 kcal/mol)

>  <smiles>  (5) 
C=CC(=O)Nc1ccccc1S(=O)(=O)Nc1cc(N2CCN(CCc3nc(C(=O)NC)co3)CC2)ccc1O

>  <score_type>  (5) 
oracle

>  <origin>  (5) 
adg

>  <m_score__min__energy>  (5) 
-14.34

>  <m_primary>  (5) 
energy

$$$$
5:0
     RDKit          3D

 65 68  0  0  0  0  0  0  0  0999 V2000
   62.3870   32.8340   51.0470 C   0  0  0  0  0  0  0  0  0  0  0  0
   62.5930   32.5500   49.6210 N   0  0  0  0  0  0  0  0  0  0  0  0
   62.4540   31.1780   49.1190 C   0  0  0  0  0  0  0  0  0  0  0  0
   62.9320   33.6360   48.7290 C   0  0  0  0  0  0  0  0  0  0  0  0
   63.0000   34.8100   49.1780 O   0  0  0  0  0  0  0  0  0  0  0  0
   63.2600   33.4010   47.2770 C   0  0  0  0  0  0  0  0  0  0  0  0
   62.2570   33.9750   46.4400 O   0  0  0  0  0  0  0  0  0  0  0  0
   60.8840   33.6900   46.5120 C   0  0  0  0  0  0  0  0  0  0  0  0
   59.9810   34.6950   46.1530 C   0  0  0  0  0  0  0  0  0  0  0  0
   58.6030   34.4720   46.2370 C   0  0  0  0  0  0  0  0  0  0  0  0
   58.1160   33.2320   46.6560 C   0  0  0  0  0  0  0  0  0  0  0  0
   59.0100   32.1940   46.9780 C   0  0  0  0  0  0  0  0  0  0  0  0
   58.5570   30.8950   47.3820 N   0  0  0  0  0  0  0  0  0  0  0  0
   58.6720   29.6750   46.6350 C   0  0  0  0  0  0  0  0  0  0  0  0
   59.3170   28.7040   47.1110 O   0  0  0  0  0  0  0  0  0  0  0  0
   57.9840   29.5540   45.3250 C   0  0  0  0  0  0  0  0  0  0  0  0
   57.2860   30.6660   44.8230 C   0  0  0  0  0  0  0  0  0  0  0  0
   56.6150   30.5880   43.6050 C   0  0  0  0  0  0  0  0  0  0  0  0
   56.6370   29.3960   42.8880 C   0  0  0  0  0  0  0  0  0  0  0  0
   57.3080   28.3190   43.3730 N   0  0  0  0  0  0  0  0  0  0  0  0
   57.9760   28.3590   44.5600 C   0  0  0  0  0  0  0  0  0  0  0  0
   58.7680   26.8420   45.1270 S   0  0  0  0  0  0  0  0  0  0  0  0
   57.2140   25.9630   45.2260 C   0  0  0  0  0  0  0  0  0  0  0  0
   56.2220   26.1650   46.1750 C   0  0  0  0  0  0  0  0  0  0  0  0
   55.1390   25.3500   46.0400 N   0  0  0  0  0  0  0  0  0  0  0  0
   55.2630   24.5110   44.9890 C   0  0  0  0  0  0  0  0  0  0  0  0
   54.3590   23.6120   44.7250 N   0  0  0  0  0  0  0  0  0  0  0  0
   53.6550   22.7470   45.6360 C   0  0  0  0  0  0  0  0  0  0  0  0
   52.4070   22.8700   45.7330 O   0  0  0  0  0  0  0  0  0  0  0  0
   54.3240   21.6350   46.3980 C   0  0  0  0  0  0  0  0  0  0  0  0
   55.7170   22.0530   46.8840 C   0  0  0  0  0  0  0  0  0  0  0  0
   56.7390   21.8600   45.7960 C   0  0  0  0  0  0  0  0  0  0  0  0
   56.3740   21.2530   44.5820 C   0  0  0  0  0  0  0  0  0  0  0  0
   57.3140   21.1060   43.5550 C   0  0  0  0  0  0  0  0  0  0  0  0
   58.6260   21.5550   43.7400 C   0  0  0  0  0  0  0  0  0  0  0  0
   58.9950   22.1680   44.9410 C   0  0  0  0  0  0  0  0  0  0  0  0
   58.0550   22.3230   45.9650 C   0  0  0  0  0  0  0  0  0  0  0  0
   56.7310   24.7370   44.1870 S   0  0  0  0  0  0  0  0  0  0  0  0
   60.3900   32.4360   46.9260 C   0  0  0  0  0  0  0  0  0  0  0  0
   62.9269   32.0897   51.6508 H   0  0  0  0  0  0  0  0  0  0  0  0
   62.7669   33.8399   51.2792 H   0  0  0  0  0  0  0  0  0  0  0  0
   61.3129   32.7852   51.2792 H   0  0  0  0  0  0  0  0  0  0  0  0
   62.3835   30.4823   49.9681 H   0  0  0  0  0  0  0  0  0  0  0  0
   61.5436   31.1022   48.5063 H   0  0  0  0  0  0  0  0  0  0  0  0
   63.3307   30.9211   48.5063 H   0  0  0  0  0  0  0  0  0  0  0  0
   64.2318   33.8618   47.0460 H   0  0  0  0  0  0  0  0  0  0  0  0
   63.3012   32.3175   47.0919 H   0  0  0  0  0  0  0  0  0  0  0  0
   60.3568   35.6675   45.8022 H   0  0  0  0  0  0  0  0  0  0  0  0
   57.9004   35.2759   45.9722 H   0  0  0  0  0  0  0  0  0  0  0  0
   57.0314   33.0663   46.7345 H   0  0  0  0  0  0  0  0  0  0  0  0
   57.2696   31.6047   45.3963 H   0  0  0  0  0  0  0  0  0  0  0  0
   56.0725   31.4611   43.2134 H   0  0  0  0  0  0  0  0  0  0  0  0
   56.1094   29.3254   41.9254 H   0  0  0  0  0  0  0  0  0  0  0  0
   57.2980   27.4340   42.8200 H   0  0  0  0  0  0  0  0  0  0  0  0
   56.3034   26.9206   46.9703 H   0  0  0  0  0  0  0  0  0  0  0  0
   53.7043   21.3735   47.2683 H   0  0  0  0  0  0  0  0  0  0  0  0
   54.4351   20.7712   45.7261 H   0  0  0  0  0  0  0  0  0  0  0  0
   55.6949   23.1136   47.1749 H   0  0  0  0  0  0  0  0  0  0  0  0
   55.9941   21.4272   47.7452 H   0  0  0  0  0  0  0  0  0  0  0  0
   55.3450   20.8918   44.4382 H   0  0  0  0  0  0  0  0  0  0  0  0
   57.0213   20.6379   42.6036 H   0  0  0  0  0  0  0  0  0  0  0  0
   59.3687   21.4255   42.9389 H   0  0  0  0  0  0  0  0  0  0  0  0
   60.0248   22.5285   45.0807 H   0  0  0  0  0  0  0  0  0  0  0  0
   58.3472   22.8097   46.9072 H   0  0  0  0  0  0  0  0  0  0  0  0
   61.0939   31.6401   47.2108 H   0  0  0  0  0  0  0  0  0  0  0  0
  1  2  1  0
  2  3  1  0
  2  4  1  0
  4  5  2  0
  4  6  1  0
  6  7  1  0
  7  8  1  0
  8  9  2  0
  9 10  1  0
 10 11  2  0
 11 12  1  0
 12 13  1  0
 13 14  1  0
 14 15  2  0
 14 16  1  0
 16 17  2  0
 17 18  1  0
 18 19  2  0
 19 20  1  0
 20 21  2  0
 21 22  1  0
 22 23  1  0
 23 24  2  0
 24 25  1  0
 25 26  1  0
 26 27  2  3
 27 28  1  0
 28 29  2  0
 28 30  1  0
 30 31  1  0
 31 32  1  0
 32 33  2  0
 33 34  1  0
 34 35  2  0
 35 36  1  0
 36 37  2  0
 26 38  1  0
 12 39  2  0
 39  8  1  0
 21 16  1  0
 38 23  1  0
 37 32  1  0
  1 40  1  0
  1 41  1  0
  1 42  1  0
  3 43  1  0
  3 44  1  0
  3 45  1  0
  6 46  1  0
  6 47  1  0
  9 48  1  0
 10 49  1  0
 11 50  1  0
 17 51  1  0
 18 52  1  0
 19 53  1  0
 20 54  1  0
 24 55  1  0
 30 56  1  0
 30 57  1  0
 31 58  1  0
 31 59  1  0
 33 60  1  0
 34 61  1  0
 35 62  1  0
 36 63  1  0
 37 64  1  0
 39 65  1  0
M  CHG  3  13  -1  20   1  25  -1
M  END
>  <UniqueID>  (6) 
5

>  <SMILES>  (6) 
CN(C)C(=O)COc1cccc([N-]C(=O)c2ccc[nH+]c2Sc2c[n-]c(=NC(=O)CCc3ccccc3)s2)c1

>  <Energy>  (6) 
97.9396614774914

>  <Genealogy>  (6) 
CN(C)C(=O)COc1cccc([N-]C(=O)c2ccc[nH+]c2Sc2c[n-]c(=NC(=O)CCc3ccccc3)s2)c1 (protonated)
CN(C)C(=O)COc1cccc([N-]C(=O)c2ccc[nH+]c2Sc2c[n-]c(=NC(=O)CCc3ccccc3)s2)c1 (3D coordinates assigned)
CN(C)C(=O)COc1cccc([N-]C(=O)c2ccc[nH+]c2Sc2c[n-]c(=NC(=O)CCc3ccccc3)s2)c1 (optimized conformer: 97.9396614774914 kcal/mol)

>  <smiles>  (6) 
CN(C)C(=O)COc1cccc(NC(=O)c2cccnc2Sc2c[nH]c(=NC(=O)CCc3ccccc3)s2)c1

>  <score_type>  (6) 
oracle

>  <origin>  (6) 
adg

>  <m_score__min__energy>  (6) 
-11.109999999999999

>  <m_primary>  (6) 
energy

$$$$
6:0
     RDKit          3D

 35 36  0  0  0  0  0  0  0  0999 V2000
   59.6660   35.4250   46.0510 C   0  0  0  0  0  0  0  0  0  0  0  0
   59.0940   34.4550   45.0220 C   0  0  0  0  0  0  0  0  0  0  0  0
   58.0490   33.5720   45.6430 C   0  0  0  0  0  0  0  0  0  0  0  0
   56.9680   34.0860   46.0400 O   0  0  0  0  0  0  0  0  0  0  0  0
   58.2340   32.1160   45.7670 C   0  0  0  0  0  0  0  0  0  0  0  0
   57.9480   31.1620   44.8050 C   0  0  0  0  0  0  0  0  0  0  0  0
   58.2800   29.9490   45.3760 C   0  0  0  0  0  0  0  0  0  0  0  0
   58.0940   28.5940   44.7540 C   0  0  0  0  0  0  0  0  0  0  0  0
   56.8690   27.9100   45.3020 C   0  0  0  0  0  0  0  0  0  0  0  0
   55.7570   28.5020   45.2270 O   0  0  0  0  0  0  0  0  0  0  0  0
   56.9460   26.6220   46.0290 C   0  0  0  0  0  0  0  0  0  0  0  0
   58.1950   26.1660   46.4830 C   0  0  0  0  0  0  0  0  0  0  0  0
   58.2980   24.9550   47.1660 C   0  0  0  0  0  0  0  0  0  0  0  0
   57.1460   24.2060   47.4060 C   0  0  0  0  0  0  0  0  0  0  0  0
   57.2210   23.1060   48.0140 O   0  0  0  0  0  0  0  0  0  0  0  0
   55.9390   24.6640   46.9850 N   0  0  0  0  0  0  0  0  0  0  0  0
   55.8060   25.8430   46.3160 C   0  0  0  0  0  0  0  0  0  0  0  0
   54.5370   26.2750   45.9480 O   0  0  0  0  0  0  0  0  0  0  0  0
   58.7410   30.2380   46.6510 C   0  0  0  0  0  0  0  0  0  0  0  0
   59.2090   29.2550   47.6750 C   0  0  0  0  0  0  0  0  0  0  0  0
   58.7020   31.5350   46.8500 O   0  0  0  0  0  0  0  0  0  0  0  0
   59.4481   35.0555   47.0639 H   0  0  0  0  0  0  0  0  0  0  0  0
   60.7548   35.5033   45.9155 H   0  0  0  0  0  0  0  0  0  0  0  0
   59.2075   36.4157   45.9155 H   0  0  0  0  0  0  0  0  0  0  0  0
   58.6398   35.0279   44.2001 H   0  0  0  0  0  0  0  0  0  0  0  0
   59.9099   33.8221   44.6430 H   0  0  0  0  0  0  0  0  0  0  0  0
   57.5416   31.3341   43.7974 H   0  0  0  0  0  0  0  0  0  0  0  0
   57.9842   28.7102   43.6657 H   0  0  0  0  0  0  0  0  0  0  0  0
   58.9738   27.9773   44.9898 H   0  0  0  0  0  0  0  0  0  0  0  0
   59.0969   26.7681   46.2985 H   0  0  0  0  0  0  0  0  0  0  0  0
   59.2777   24.5939   47.5121 H   0  0  0  0  0  0  0  0  0  0  0  0
   54.3750   26.7170   45.0510 H   0  0  0  0  0  0  0  0  0  0  0  0
   59.0184   29.6554   48.6817 H   0  0  0  0  0  0  0  0  0  0  0  0
   58.6656   28.3070   47.5485 H   0  0  0  0  0  0  0  0  0  0  0  0
   60.2875   29.0792   47.5485 H   0  0  0  0  0  0  0  0  0  0  0  0
  1  2  1  0
  2  3  1  0
  3  4  2  0
  3  5  1  0
  5  6  2  0
  6  7  1  0
  7  8  1  0
  8  9  1  0
  9 10  2  0
  9 11  1  0
 11 12  1  0
 12 13  2  0
 13 14  1  0
 14 15  2  0
 14 16  1  0
 16 17  1  0
 17 18  1  0
  7 19  2  0
 19 20  1  0
 19 21  1  0
 21  5  1  0
 17 11  2  0
  1 22  1  0
  1 23  1  0
  1 24  1  0
  2 25  1  0
  2 26  1  0
  6 27  1  0
  8 28  1  0
  8 29  1  0
 12 30  1  0
 13 31  1  0
 18 32  1  0
 20 33  1  0
 20 34  1  0
 20 35  1  0
M  CHG  1  16  -1
M  END
>  <UniqueID>  (7) 
6

>  <SMILES>  (7) 
CCC(=O)c1cc(CC(=O)c2ccc(=O)[n-]c2O)c(C)o1

>  <Energy>  (7) 
59.7050891873667

>  <Genealogy>  (7) 
CCC(=O)c1cc(CC(=O)c2ccc(=O)[n-]c2O)c(C)o1 (protonated)
CCC(=O)c1cc(CC(=O)c2ccc(=O)[n-]c2O)c(C)o1 (3D coordinates assigned)
CCC(=O)c1cc(CC(=O)c2ccc(=O)[n-]c2O)c(C)o1 (optimized conformer: 59.7050891873667 kcal/mol)

>  <smiles>  (7) 
CCC(=O)c1cc(CC(=O)c2ccc(=O)[nH]c2O)c(C)o1

>  <score_type>  (7) 
oracle

>  <origin>  (7) 
adg

>  <m_score__min__energy>  (7) 
-11.119999999999999

>  <m_primary>  (7) 
energy

$$$$
7:0
     RDKit          3D

 39 41  0  0  0  0  0  0  0  0999 V2000
   63.7290   34.4600   51.2280 C   0  0  0  0  0  0  0  0  0  0  0  0
   63.0190   34.9700   50.1030 O   0  0  0  0  0  0  0  0  0  0  0  0
   62.2610   34.1840   49.2230 C   0  0  0  0  0  0  0  0  0  0  0  0
   60.9520   33.8510   49.5880 C   0  0  0  0  0  0  0  0  0  0  0  0
   60.1550   33.0700   48.7450 C   0  0  0  0  0  0  0  0  0  0  0  0
   60.6580   32.6140   47.5160 C   0  0  0  0  0  0  0  0  0  0  0  0
   59.8420   31.8020   46.6480 N   0  0  0  0  0  0  0  0  0  0  0  0
   60.2760   30.5550   46.3060 C   0  0  0  0  0  0  0  0  0  0  0  0
   59.5030   29.7450   45.4760 C   0  0  0  0  0  0  0  0  0  0  0  0
   58.3010   30.1890   45.0040 N   0  0  0  0  0  0  0  0  0  0  0  0
   57.5230   29.3210   44.1060 C   0  0  0  0  0  0  0  0  0  0  0  0
   56.4210   28.6440   44.8730 C   0  0  0  0  0  0  0  0  0  0  0  0
   55.2730   29.1650   44.8480 O   0  0  0  0  0  0  0  0  0  0  0  0
   56.6400   27.4550   45.7290 C   0  0  0  0  0  0  0  0  0  0  0  0
   57.8160   27.1720   46.3960 C   0  0  0  0  0  0  0  0  0  0  0  0
   57.5900   25.9920   47.0740 C   0  0  0  0  0  0  0  0  0  0  0  0
   58.5250   25.3430   47.8730 O   0  0  0  0  0  0  0  0  0  0  0  0
   56.3410   25.5290   46.8820 N   0  0  0  0  0  0  0  0  0  0  0  0
   55.7660   26.4290   46.0620 C   0  0  0  0  0  0  0  0  0  0  0  0
   54.4420   26.3210   45.6540 O   0  0  0  0  0  0  0  0  0  0  0  0
   57.8670   31.4490   45.3270 C   0  0  0  0  0  0  0  0  0  0  0  0
   56.7710   31.8850   44.8810 O   0  0  0  0  0  0  0  0  0  0  0  0
   58.6470   32.2650   46.1610 C   0  0  0  0  0  0  0  0  0  0  0  0
   58.2480   33.4310   46.4420 O   0  0  0  0  0  0  0  0  0  0  0  0
   61.9730   32.9430   47.1490 C   0  0  0  0  0  0  0  0  0  0  0  0
   62.7690   33.7240   47.9930 C   0  0  0  0  0  0  0  0  0  0  0  0
   63.2466   34.8065   52.1539 H   0  0  0  0  0  0  0  0  0  0  0  0
   63.7203   33.3604   51.1994 H   0  0  0  0  0  0  0  0  0  0  0  0
   64.7683   34.8193   51.1994 H   0  0  0  0  0  0  0  0  0  0  0  0
   60.5461   34.2067   50.5465 H   0  0  0  0  0  0  0  0  0  0  0  0
   59.1291   32.8117   49.0462 H   0  0  0  0  0  0  0  0  0  0  0  0
   61.2401   30.1871   46.6868 H   0  0  0  0  0  0  0  0  0  0  0  0
   59.8630   28.7430   45.1997 H   0  0  0  0  0  0  0  0  0  0  0  0
   57.0858   29.9289   43.3002 H   0  0  0  0  0  0  0  0  0  0  0  0
   58.1875   28.5562   43.6776 H   0  0  0  0  0  0  0  0  0  0  0  0
   58.7422   27.7654   46.3882 H   0  0  0  0  0  0  0  0  0  0  0  0
   59.1620   25.8670   48.4620 H   0  0  0  0  0  0  0  0  0  0  0  0
   62.3794   32.5842   46.1919 H   0  0  0  0  0  0  0  0  0  0  0  0
   63.7963   33.9800   47.6946 H   0  0  0  0  0  0  0  0  0  0  0  0
  1  2  1  0
  2  3  1  0
  3  4  2  0
  4  5  1  0
  5  6  2  0
  6  7  1  0
  7  8  1  0
  8  9  2  0
  9 10  1  0
 10 11  1  0
 11 12  1  0
 12 13  2  0
 12 14  1  0
 14 15  1  0
 15 16  2  0
 16 17  1  0
 16 18  1  0
 18 19  1  0
 19 20  1  0
 10 21  1  0
 21 22  2  0
 21 23  1  0
 23 24  2  0
  6 25  1  0
 25 26  2  0
 26  3  1  0
 23  7  1  0
 19 14  2  0
  1 27  1  0
  1 28  1  0
  1 29  1  0
  4 30  1  0
  5 31  1  0
  8 32  1  0
  9 33  1  0
 11 34  1  0
 11 35  1  0
 15 36  1  0
 17 37  1  0
 25 38  1  0
 26 39  1  0
M  CHG  2  18  -1  20  -1
M  END
>  <UniqueID>  (8) 
7

>  <SMILES>  (8) 
COc1ccc(-n2ccn(CC(=O)c3cc(O)[n-]c3[O-])c(=O)c2=O)cc1

>  <Energy>  (8) 
80.20745474726158

>  <Genealogy>  (8) 
COc1ccc(-n2ccn(CC(=O)c3cc(O)[n-]c3[O-])c(=O)c2=O)cc1 (protonated)
COc1ccc(-n2ccn(CC(=O)c3cc(O)[n-]c3[O-])c(=O)c2=O)cc1 (3D coordinates assigned)
COc1ccc(-n2ccn(CC(=O)c3cc(O)[n-]c3[O-])c(=O)c2=O)cc1 (optimized conformer: 80.20745474726158 kcal/mol)

>  <smiles>  (8) 
COc1ccc(-n2ccn(CC(=O)c3cc(O)[nH]c3O)c(=O)c2=O)cc1

>  <score_type>  (8) 
oracle

>  <origin>  (8) 
adg

>  <m_score__min__energy>  (8) 
-13.15

>  <m_primary>  (8) 
energy

$$$$
8:0
     RDKit          3D

 45 47  0  0  0  0  0  0  0  0999 V2000
   61.2190   30.5340   49.5890 C   0  0  0  0  0  0  0  0  0  0  0  0
   60.8320   29.2700   49.4150 C   0  0  0  0  0  0  0  0  0  0  0  0
   60.1530   28.7660   48.1950 C   0  0  0  0  0  0  0  0  0  0  0  0
   59.9860   29.5510   47.0370 C   0  0  0  0  0  0  0  0  0  0  0  0
   59.3460   29.0260   45.9100 C   0  0  0  0  0  0  0  0  0  0  0  0
   58.8600   27.7110   45.9190 C   0  0  0  0  0  0  0  0  0  0  0  0
   58.2150   27.1360   44.6870 C   0  0  0  0  0  0  0  0  0  0  0  0
   57.8150   28.2040   43.7720 N   0  0  0  0  0  0  0  0  0  0  0  0
   56.6240   28.9700   43.9920 C   0  0  0  0  0  0  0  0  0  0  0  0
   55.8450   28.6770   44.9390 O   0  0  0  0  0  0  0  0  0  0  0  0
   56.3190   30.1550   43.1280 C   0  0  0  0  0  0  0  0  0  0  0  0
   57.0950   31.3480   43.5970 C   0  0  0  0  0  0  0  0  0  0  0  0
   57.3490   31.6060   44.8910 N   0  0  0  0  0  0  0  0  0  0  0  0
   58.1230   32.7140   44.8600 C   0  0  0  0  0  0  0  0  0  0  0  0
   58.6520   33.3680   46.0780 C   0  0  0  0  0  0  0  0  0  0  0  0
   59.1910   34.6660   46.0140 C   0  0  0  0  0  0  0  0  0  0  0  0
   59.6900   35.2810   47.1660 C   0  0  0  0  0  0  0  0  0  0  0  0
   59.6560   34.6100   48.3910 C   0  0  0  0  0  0  0  0  0  0  0  0
   59.1230   33.3210   48.4650 C   0  0  0  0  0  0  0  0  0  0  0  0
   58.6230   32.7010   47.3160 C   0  0  0  0  0  0  0  0  0  0  0  0
   58.3800   33.1600   43.6090 N   0  0  0  0  0  0  0  0  0  0  0  0
   57.7220   32.2970   42.8150 C   0  0  0  0  0  0  0  0  0  0  0  0
   57.7800   32.3410   41.3220 C   0  0  0  0  0  0  0  0  0  0  0  0
   59.0510   26.9150   47.0580 C   0  0  0  0  0  0  0  0  0  0  0  0
   59.6900   27.4390   48.1850 C   0  0  0  0  0  0  0  0  0  0  0  0
   61.7176   30.8330   50.5228 H   0  0  0  0  0  0  0  0  0  0  0  0
   61.0397   31.2779   48.7987 H   0  0  0  0  0  0  0  0  0  0  0  0
   61.0284   28.5549   50.2275 H   0  0  0  0  0  0  0  0  0  0  0  0
   60.3619   30.5846   47.0193 H   0  0  0  0  0  0  0  0  0  0  0  0
   59.2232   29.6483   45.0113 H   0  0  0  0  0  0  0  0  0  0  0  0
   58.9314   26.4736   44.1790 H   0  0  0  0  0  0  0  0  0  0  0  0
   57.3204   26.5697   44.9853 H   0  0  0  0  0  0  0  0  0  0  0  0
   58.4170   28.4360   42.9490 H   0  0  0  0  0  0  0  0  0  0  0  0
   56.5951   29.9275   42.0878 H   0  0  0  0  0  0  0  0  0  0  0  0
   55.2436   30.3782   43.1897 H   0  0  0  0  0  0  0  0  0  0  0  0
   59.2199   35.1997   45.0526 H   0  0  0  0  0  0  0  0  0  0  0  0
   60.1105   36.2958   47.1078 H   0  0  0  0  0  0  0  0  0  0  0  0
   60.0485   35.0963   49.2962 H   0  0  0  0  0  0  0  0  0  0  0  0
   59.0966   32.7926   49.4294 H   0  0  0  0  0  0  0  0  0  0  0  0
   58.2045   31.6858   47.3805 H   0  0  0  0  0  0  0  0  0  0  0  0
   58.6195   32.9779   41.0063 H   0  0  0  0  0  0  0  0  0  0  0  0
   57.9244   31.3232   40.9305 H   0  0  0  0  0  0  0  0  0  0  0  0
   56.8388   32.7543   40.9305 H   0  0  0  0  0  0  0  0  0  0  0  0
   58.6963   25.8738   47.0642 H   0  0  0  0  0  0  0  0  0  0  0  0
   59.8321   26.8063   49.0735 H   0  0  0  0  0  0  0  0  0  0  0  0
  1  2  2  0
  2  3  1  0
  3  4  2  0
  4  5  1  0
  5  6  2  0
  6  7  1  0
  7  8  1  0
  8  9  1  0
  9 10  2  0
  9 11  1  0
 11 12  1  0
 12 13  1  0
 13 14  2  0
 14 15  1  0
 15 16  2  0
 16 17  1  0
 17 18  2  0
 18 19  1  0
 19 20  2  0
 14 21  1  0
 21 22  1  0
 22 23  1  0
  6 24  1  0
 24 25  2  0
 25  3  1  0
 22 12  2  0
 20 15  1  0
  1 26  1  0
  1 27  1  0
  2 28  1  0
  4 29  1  0
  5 30  1  0
  7 31  1  0
  7 32  1  0
  8 33  1  0
 11 34  1  0
 11 35  1  0
 16 36  1  0
 17 37  1  0
 18 38  1  0
 19 39  1  0
 20 40  1  0
 23 41  1  0
 23 42  1  0
 23 43  1  0
 24 44  1  0
 25 45  1  0
M  CHG  1  21  -1
M  END
>  <UniqueID>  (9) 
8

>  <SMILES>  (9) 
C=Cc1ccc(CNC(=O)Cc2nc(-c3ccccc3)[n-]c2C)cc1

>  <Energy>  (9) 
70.02289400499102

>  <Genealogy>  (9) 
C=Cc1ccc(CNC(=O)Cc2nc(-c3ccccc3)[n-]c2C)cc1 (protonated)
C=Cc1ccc(CNC(=O)Cc2nc(-c3ccccc3)[n-]c2C)cc1 (3D coordinates assigned)
C=Cc1ccc(CNC(=O)Cc2nc(-c3ccccc3)[n-]c2C)cc1 (optimized conformer: 70.02289400499102 kcal/mol)

>  <smiles>  (9) 
C=Cc1ccc(CNC(=O)Cc2nc(-c3ccccc3)[nH]c2C)cc1

>  <score_type>  (9) 
oracle

>  <origin>  (9) 
adg

>  <m_score__min__energy>  (9) 
-9.3399999999999999

>  <m_primary>  (9) 
energy

$$$$
9:0
     RDKit          3D

 42 43  0  0  0  0  0  0  0  0999 V2000
   62.9840   33.9850   46.3800 C   0  0  0  0  0  0  0  0  0  0  0  0
   61.8850   33.3390   47.1060 N   0  0  0  0  0  0  0  0  0  0  0  0
   60.8820   34.1880   47.7680 C   0  0  0  0  0  0  0  0  0  0  0  0
   59.9350   34.8290   46.7470 C   0  0  0  0  0  0  0  0  0  0  0  0
   59.0260   33.8320   46.1540 N   0  0  0  0  0  0  0  0  0  0  0  0
   58.9690   33.7170   44.7930 C   0  0  0  0  0  0  0  0  0  0  0  0
   58.1240   32.7860   44.1930 C   0  0  0  0  0  0  0  0  0  0  0  0
   57.3430   31.9740   45.0110 C   0  0  0  0  0  0  0  0  0  0  0  0
   56.5690   31.1210   44.5060 O   0  0  0  0  0  0  0  0  0  0  0  0
   57.4150   32.1080   46.3590 N   0  0  0  0  0  0  0  0  0  0  0  0
   58.2380   33.0230   46.9360 C   0  0  0  0  0  0  0  0  0  0  0  0
   58.2630   33.1130   48.1920 O   0  0  0  0  0  0  0  0  0  0  0  0
   61.7900   31.8960   47.1770 C   0  0  0  0  0  0  0  0  0  0  0  0
   62.8140   31.2180   47.4680 O   0  0  0  0  0  0  0  0  0  0  0  0
   60.5110   31.1650   46.8100 C   0  0  0  0  0  0  0  0  0  0  0  0
   60.7120   29.7130   46.5570 N   0  0  0  0  0  0  0  0  0  0  0  0
   60.2910   29.3350   45.1760 C   0  0  0  0  0  0  0  0  0  0  0  0
   58.9770   28.5270   45.1240 C   0  0  0  0  0  0  0  0  0  0  0  0
   58.0140   29.0170   46.1130 N   0  0  0  0  0  0  0  0  0  0  0  0
   58.5210   28.9020   47.4930 C   0  0  0  0  0  0  0  0  0  0  0  0
   60.0630   28.8620   47.5820 C   0  0  0  0  0  0  0  0  0  0  0  0
   63.7011   34.4065   47.0997 H   0  0  0  0  0  0  0  0  0  0  0  0
   63.4926   33.2421   45.7479 H   0  0  0  0  0  0  0  0  0  0  0  0
   62.5823   34.7907   45.7479 H   0  0  0  0  0  0  0  0  0  0  0  0
   60.2944   33.5720   48.4646 H   0  0  0  0  0  0  0  0  0  0  0  0
   61.4070   34.9905   48.3068 H   0  0  0  0  0  0  0  0  0  0  0  0
   59.3372   35.6030   47.2506 H   0  0  0  0  0  0  0  0  0  0  0  0
   60.5416   35.2662   45.9403 H   0  0  0  0  0  0  0  0  0  0  0  0
   59.5968   34.3663   44.1651 H   0  0  0  0  0  0  0  0  0  0  0  0
   58.0750   32.6945   43.0979 H   0  0  0  0  0  0  0  0  0  0  0  0
   59.7947   31.2789   47.6370 H   0  0  0  0  0  0  0  0  0  0  0  0
   60.1402   31.6092   45.8745 H   0  0  0  0  0  0  0  0  0  0  0  0
   61.7430   29.5280   46.6140 H   0  0  0  0  0  0  0  0  0  0  0  0
   60.1549   30.2563   44.5906 H   0  0  0  0  0  0  0  0  0  0  0  0
   61.0809   28.6884   44.7662 H   0  0  0  0  0  0  0  0  0  0  0  0
   58.5383   28.6198   44.1195 H   0  0  0  0  0  0  0  0  0  0  0  0
   59.2056   27.4754   45.3519 H   0  0  0  0  0  0  0  0  0  0  0  0
   57.7970   30.0180   45.9000 H   0  0  0  0  0  0  0  0  0  0  0  0
   58.1614   29.7672   48.0692 H   0  0  0  0  0  0  0  0  0  0  0  0
   58.1489   27.9485   47.8959 H   0  0  0  0  0  0  0  0  0  0  0  0
   60.3683   29.2146   48.5782 H   0  0  0  0  0  0  0  0  0  0  0  0
   60.3815   27.8240   47.4057 H   0  0  0  0  0  0  0  0  0  0  0  0
  1  2  1  0
  2  3  1  0
  3  4  1  0
  4  5  1  0
  5  6  1  0
  6  7  2  0
  7  8  1  0
  8  9  2  0
  8 10  1  0
 10 11  1  0
 11 12  2  0
  2 13  1  0
 13 14  2  0
 13 15  1  0
 15 16  1  0
 16 17  1  0
 17 18  1  0
 18 19  1  0
 19 20  1  0
 20 21  1  0
 11  5  1  0
 21 16  1  0
  1 22  1  0
  1 23  1  0
  1 24  1  0
  3 25  1  0
  3 26  1  0
  4 27  1  0
  4 28  1  0
  6 29  1  0
  7 30  1  0
 15 31  1  0
 15 32  1  0
 16 33  1  0
 17 34  1  0
 17 35  1  0
 18 36  1  0
 18 37  1  0
 19 38  1  0
 20 39  1  0
 20 40  1  0
 21 41  1  0
 21 42  1  0
M  CHG  2  10  -1  16   1
M  END
>  <UniqueID>  (10) 
9

>  <SMILES>  (10) 
CN(CCn1ccc(=O)[n-]c1=O)C(=O)C[NH+]1CCNCC1

>  <Energy>  (10) 
50.65350785561181

>  <Genealogy>  (10) 
CN(CCn1ccc(=O)[n-]c1=O)C(=O)C[NH+]1CCNCC1 (protonated)
CN(CCn1ccc(=O)[n-]c1=O)C(=O)C[NH+]1CCNCC1 (3D coordinates assigned)
CN(CCn1ccc(=O)[n-]c1=O)C(=O)C[NH+]1CCNCC1 (nonaromatic ring conformer: 50.65350785561181 kcal/mol)

>  <smiles>  (10) 
CN(CCn1ccc(=O)[nH]c1=O)C(=O)CN1CCNCC1

>  <score_type>  (10) 
oracle

>  <origin>  (10) 
adg

>  <m_score__min__energy>  (10) 
-6.9299999999999997

>  <m_primary>  (10) 
energy

$$$$
10:0
     RDKit          3D

 57 60  0  0  0  0  0  0  0  0999 V2000
   59.0530   26.2910   46.6280 C   0  0  0  0  0  0  0  0  0  0  0  0
   57.7280   26.2310   46.7960 C   0  0  0  0  0  0  0  0  0  0  0  0
   56.7840   26.1570   45.6290 C   0  0  0  0  0  0  0  0  0  0  0  0
   55.9060   27.3220   45.6140 N   0  0  0  0  0  0  0  0  0  0  0  0
   56.2400   28.6140   45.0870 C   0  0  0  0  0  0  0  0  0  0  0  0
   55.3060   29.4200   44.8320 O   0  0  0  0  0  0  0  0  0  0  0  0
   57.6670   29.0550   44.8940 C   0  0  0  0  0  0  0  0  0  0  0  0
   57.8240   30.4690   45.2450 N   0  0  0  0  0  0  0  0  0  0  0  0
   57.6680   31.5080   44.3890 C   0  0  0  0  0  0  0  0  0  0  0  0
   57.9600   32.6970   45.0380 C   0  0  0  0  0  0  0  0  0  0  0  0
   57.9240   33.9640   44.4660 O   0  0  0  0  0  0  0  0  0  0  0  0
   58.3070   32.3630   46.3380 C   0  0  0  0  0  0  0  0  0  0  0  0
   58.2210   31.0040   46.4250 C   0  0  0  0  0  0  0  0  0  0  0  0
   58.5650   30.3640   47.6110 C   0  0  0  0  0  0  0  0  0  0  0  0
   58.4920   29.1080   47.7030 O   0  0  0  0  0  0  0  0  0  0  0  0
   58.9890   31.1260   48.6750 N   0  0  0  0  0  0  0  0  0  0  0  0
   59.4280   30.4650   49.9210 C   0  0  0  0  0  0  0  0  0  0  0  0
   60.9020   30.6920   50.1430 C   0  0  0  0  0  0  0  0  0  0  0  0
   61.4790   30.4340   51.3980 C   0  0  0  0  0  0  0  0  0  0  0  0
   62.8360   30.6860   51.6150 C   0  0  0  0  0  0  0  0  0  0  0  0
   63.6300   31.1980   50.5830 C   0  0  0  0  0  0  0  0  0  0  0  0
   65.3710   31.5260   50.8660 S   0  0  0  0  0  0  0  0  0  0  0  0
   65.3960   32.9860   49.7800 C   0  0  0  0  0  0  0  0  0  0  0  0
   63.0600   31.4630   49.3330 C   0  0  0  0  0  0  0  0  0  0  0  0
   61.7030   31.2130   49.1130 C   0  0  0  0  0  0  0  0  0  0  0  0
   59.0630   32.5050   48.5590 C   0  0  0  0  0  0  0  0  0  0  0  0
   59.4650   33.1910   49.5420 O   0  0  0  0  0  0  0  0  0  0  0  0
   58.7080   33.1400   47.3880 N   0  0  0  0  0  0  0  0  0  0  0  0
   58.8210   34.6050   47.2590 C   0  0  0  0  0  0  0  0  0  0  0  0
   60.2380   34.9830   46.8040 C   0  0  0  0  0  0  0  0  0  0  0  0
   61.3580   34.2060   47.4750 C   0  0  0  0  0  0  0  0  0  0  0  0
   60.9900   33.9120   46.0290 C   0  0  0  0  0  0  0  0  0  0  0  0
   59.7166   26.3444   47.5037 H   0  0  0  0  0  0  0  0  0  0  0  0
   59.4796   26.2870   45.6141 H   0  0  0  0  0  0  0  0  0  0  0  0
   57.3175   26.2359   47.8165 H   0  0  0  0  0  0  0  0  0  0  0  0
   57.3636   26.1273   44.6946 H   0  0  0  0  0  0  0  0  0  0  0  0
   56.1713   25.2481   45.7212 H   0  0  0  0  0  0  0  0  0  0  0  0
   58.3224   28.4485   45.5364 H   0  0  0  0  0  0  0  0  0  0  0  0
   57.9387   28.9208   43.8366 H   0  0  0  0  0  0  0  0  0  0  0  0
   57.3566   31.4207   43.3376 H   0  0  0  0  0  0  0  0  0  0  0  0
   57.0600   34.3460   44.1010 H   0  0  0  0  0  0  0  0  0  0  0  0
   58.8651   30.8804   50.7698 H   0  0  0  0  0  0  0  0  0  0  0  0
   59.2412   29.3842   49.8375 H   0  0  0  0  0  0  0  0  0  0  0  0
   60.8596   30.0318   52.2132 H   0  0  0  0  0  0  0  0  0  0  0  0
   63.2813   30.4813   52.5998 H   0  0  0  0  0  0  0  0  0  0  0  0
   65.4116   33.8990   50.3934 H   0  0  0  0  0  0  0  0  0  0  0  0
   66.2938   32.9554   49.1451 H   0  0  0  0  0  0  0  0  0  0  0  0
   64.4977   32.9861   49.1451 H   0  0  0  0  0  0  0  0  0  0  0  0
   63.6817   31.8691   48.5215 H   0  0  0  0  0  0  0  0  0  0  0  0
   61.2598   31.4251   48.1288 H   0  0  0  0  0  0  0  0  0  0  0  0
   58.0922   34.9629   46.5168 H   0  0  0  0  0  0  0  0  0  0  0  0
   58.6182   35.0707   48.2347 H   0  0  0  0  0  0  0  0  0  0  0  0
   60.0133   36.0469   46.6378 H   0  0  0  0  0  0  0  0  0  0  0  0
   62.3097   34.7052   47.7096 H   0  0  0  0  0  0  0  0  0  0  0  0
   61.4467   33.6055   48.3923 H   0  0  0  0  0  0  0  0  0  0  0  0
   61.6752   34.1989   45.2177 H   0  0  0  0  0  0  0  0  0  0  0  0
   60.7020   33.0113   45.4670 H   0  0  0  0  0  0  0  0  0  0  0  0
  1  2  2  0
  2  3  1  0
  3  4  1  0
  4  5  1  0
  5  6  2  0
  5  7  1  0
  7  8  1  0
  8  9  1  0
  9 10  2  0
 10 11  1  0
 10 12  1  0
 12 13  2  0
 13 14  1  0
 14 15  2  0
 14 16  1  0
 16 17  1  0
 17 18  1  0
 18 19  2  0
 19 20  1  0
 20 21  2  0
 21 22  1  0
 22 23  1  0
 21 24  1  0
 24 25  2  0
 16 26  1  0
 26 27  2  0
 26 28  1  0
 28 29  1  0
 29 30  1  0
 30 31  1  0
 31 32  1  0
 13  8  1  0
 25 18  1  0
 32 30  1  0
 28 12  1  0
  1 33  1  0
  1 34  1  0
  2 35  1  0
  3 36  1  0
  3 37  1  0
  7 38  1  0
  7 39  1  0
  9 40  1  0
 11 41  1  0
 17 42  1  0
 17 43  1  0
 19 44  1  0
 20 45  1  0
 23 46  1  0
 23 47  1  0
 23 48  1  0
 24 49  1  0
 25 50  1  0
 29 51  1  0
 29 52  1  0
 30 53  1  0
 31 54  1  0
 31 55  1  0
 32 56  1  0
 32 57  1  0
M  CHG  1   4  -1
M  END
>  <UniqueID>  (11) 
10

>  <SMILES>  (11) 
C=CC[N-]C(=O)Cn1cc(O)c2c1c(=O)n(Cc1ccc(SC)cc1)c(=O)n2CC1CC1

>  <Energy>  (11) 
357.1009193697935

>  <Genealogy>  (11) 
C=CC[N-]C(=O)Cn1cc(O)c2c1c(=O)n(Cc1ccc(SC)cc1)c(=O)n2CC1CC1 (protonated)
C=CC[N-]C(=O)Cn1cc(O)c2c1c(=O)n(Cc1ccc(SC)cc1)c(=O)n2CC1CC1 (3D coordinates assigned)
C=CC[N-]C(=O)Cn1cc(O)c2c1c(=O)n(Cc1ccc(SC)cc1)c(=O)n2CC1CC1 (nonaromatic ring conformer: 357.1009193697935 kcal/mol)

>  <smiles>  (11) 
C=CCNC(=O)Cn1cc(O)c2c1c(=O)n(Cc1ccc(SC)cc1)c(=O)n2CC1CC1

>  <score_type>  (11) 
oracle

>  <origin>  (11) 
adg

>  <m_score__min__energy>  (11) 
-9.2699999999999996

>  <m_primary>  (11) 
energy

$$$$
11:0
     RDKit          3D

 23 23  0  0  1  0  0  0  0  0999 V2000
   57.7680   32.2670   41.8600 C   0  0  0  0  0  0  0  0  0  0  0  0
   57.4730   31.7950   43.0610 C   0  0  0  0  0  0  0  0  0  0  0  0
   57.8220   32.6210   44.2710 C   0  0  0  0  0  0  0  0  0  0  0  0
   56.8070   30.4650   43.1840 C   0  0  0  0  0  0  0  0  0  0  0  0
   56.5460   30.2200   44.5530 N   0  0  0  0  0  0  0  0  0  0  0  0
   56.9340   29.1620   45.1700 C   0  0  0  0  0  0  0  0  0  0  0  0
   58.2040   29.0590   45.7200 C   0  0  0  0  0  0  0  0  0  0  0  0
   58.5000   27.8730   46.3580 C   0  0  0  0  0  0  0  0  0  0  0  0
   57.6410   26.8490   46.4660 N   0  0  0  0  0  0  0  0  0  0  0  0
   56.4140   26.9760   45.9230 C   0  0  0  0  0  0  0  0  0  0  0  0
   55.5800   26.0320   46.0040 O   0  0  0  0  0  0  0  0  0  0  0  0
   56.0850   28.1280   45.2860 N   0  0  0  0  0  0  0  0  0  0  0  0
   57.5220   31.6802   40.9627 H   0  0  0  0  0  0  0  0  0  0  0  0
   58.2592   33.2461   41.7592 H   0  0  0  0  0  0  0  0  0  0  0  0
   57.5827   32.0546   45.1831 H   0  0  0  0  0  0  0  0  0  0  0  0
   58.8964   32.8563   44.2568 H   0  0  0  0  0  0  0  0  0  0  0  0
   57.2418   33.5554   44.2568 H   0  0  0  0  0  0  0  0  0  0  0  0
   55.8621   30.4694   42.6208 H   0  0  0  0  0  0  0  0  0  0  0  0
   57.4584   29.6775   42.7771 H   0  0  0  0  0  0  0  0  0  0  0  0
   58.9344   29.8786   45.6508 H   0  0  0  0  0  0  0  0  0  0  0  0
   59.4990   27.7603   46.8044 H   0  0  0  0  0  0  0  0  0  0  0  0
   57.8570   25.9480   46.9470 H   0  0  0  0  0  0  0  0  0  0  0  0
   55.1450   28.1830   44.8890 H   0  0  0  0  0  0  0  0  0  0  0  0
  1  2  2  0
  2  3  1  0
  2  4  1  0
  4  5  1  0
  5  6  2  0
  6  7  1  0
  7  8  2  0
  8  9  1  0
  9 10  1  0
 10 11  2  0
 10 12  1  0
 12  6  1  0
  1 13  1  0
  1 14  1  0
  3 15  1  0
  3 16  1  0
  3 17  1  0
  4 18  1  0
  4 19  1  0
  7 20  1  0
  8 21  1  0
  9 22  1  0
 12 23  1  0
M  END
>  <smiles>  (12) 
C=C(C)CN=c1cc[nH]c(=O)[nH]1

>  <score_type>  (12) 
oracle

>  <origin>  (12) 
adg

>  <m_score__min__energy>  (12) 
-5.4500000000000002

>  <m_primary>  (12) 
energy

$$$$
12:0
     RDKit          3D

 48 50  0  0  0  0  0  0  0  0999 V2000
   60.0600   28.1260   49.0620 C   0  0  0  0  0  0  0  0  0  0  0  0
   59.2870   28.6130   48.0780 C   0  0  0  0  0  0  0  0  0  0  0  0
   58.5910   27.8720   47.1080 C   0  0  0  0  0  0  0  0  0  0  0  0
   58.3510   26.5500   47.0060 C   0  0  0  0  0  0  0  0  0  0  0  0
   57.0380   25.9320   46.7700 C   0  0  0  0  0  0  0  0  0  0  0  0
   56.7620   24.6450   47.0430 N   0  0  0  0  0  0  0  0  0  0  0  0
   55.5120   24.4840   46.5580 C   0  0  0  0  0  0  0  0  0  0  0  0
   54.8890   23.3940   46.6410 O   0  0  0  0  0  0  0  0  0  0  0  0
   54.9860   25.5780   45.9670 N   0  0  0  0  0  0  0  0  0  0  0  0
   55.9720   26.4830   46.0940 C   0  0  0  0  0  0  0  0  0  0  0  0
   55.9100   27.7750   45.5860 O   0  0  0  0  0  0  0  0  0  0  0  0
   58.1420   28.7870   46.1730 C   0  0  0  0  0  0  0  0  0  0  0  0
   58.5050   30.0370   46.6250 C   0  0  0  0  0  0  0  0  0  0  0  0
   58.2450   31.2930   45.8940 C   0  0  0  0  0  0  0  0  0  0  0  0
   58.2450   32.3820   46.5280 O   0  0  0  0  0  0  0  0  0  0  0  0
   58.0120   31.2950   44.4750 N   0  0  0  0  0  0  0  0  0  0  0  0
   58.3220   32.4470   43.6330 C   0  0  0  0  0  0  0  0  0  0  0  0
   57.8320   32.1560   42.1980 C   0  0  0  0  0  0  0  0  0  0  0  0
   56.6460   31.1860   42.2410 C   0  0  0  0  0  0  0  0  0  0  0  0
   56.9080   30.2360   43.6980 S   0  0  0  0  0  0  0  0  0  0  0  0
   57.5370   28.9080   43.3830 O   0  0  0  0  0  0  0  0  0  0  0  0
   55.6410   30.0730   44.4920 O   0  0  0  0  0  0  0  0  0  0  0  0
   59.1900   29.9380   47.7880 N   0  0  0  0  0  0  0  0  0  0  0  0
   59.7580   31.0600   48.5540 C   0  0  0  0  0  0  0  0  0  0  0  0
   61.0080   31.5990   47.9020 C   0  0  0  0  0  0  0  0  0  0  0  0
   61.8730   30.7930   47.4630 O   0  0  0  0  0  0  0  0  0  0  0  0
   61.2210   33.0200   47.7580 N   0  0  0  0  0  0  0  0  0  0  0  0
   60.2200   33.9810   48.2350 C   0  0  0  0  0  0  0  0  0  0  0  0
   62.4530   33.4960   47.1200 C   0  0  0  0  0  0  0  0  0  0  0  0
   60.5553   28.8133   49.7636 H   0  0  0  0  0  0  0  0  0  0  0  0
   60.1980   27.0397   49.1665 H   0  0  0  0  0  0  0  0  0  0  0  0
   59.2128   25.8741   47.1082 H   0  0  0  0  0  0  0  0  0  0  0  0
   56.2250   27.9750   44.6440 H   0  0  0  0  0  0  0  0  0  0  0  0
   57.5980   28.5598   45.2443 H   0  0  0  0  0  0  0  0  0  0  0  0
   57.8123   33.3397   44.0245 H   0  0  0  0  0  0  0  0  0  0  0  0
   59.4070   32.6282   43.6296 H   0  0  0  0  0  0  0  0  0  0  0  0
   57.5176   33.0964   41.7218 H   0  0  0  0  0  0  0  0  0  0  0  0
   58.6507   31.7032   41.6195 H   0  0  0  0  0  0  0  0  0  0  0  0
   55.6954   31.7363   42.3011 H   0  0  0  0  0  0  0  0  0  0  0  0
   56.5842   30.5601   41.3386 H   0  0  0  0  0  0  0  0  0  0  0  0
   59.0112   31.8653   48.6151 H   0  0  0  0  0  0  0  0  0  0  0  0
   60.0226   30.6939   49.5570 H   0  0  0  0  0  0  0  0  0  0  0  0
   60.2131   33.9877   49.3350 H   0  0  0  0  0  0  0  0  0  0  0  0
   60.4703   34.9858   47.8638 H   0  0  0  0  0  0  0  0  0  0  0  0
   59.2263   33.6900   47.8638 H   0  0  0  0  0  0  0  0  0  0  0  0
   63.1818   33.7776   47.8944 H   0  0  0  0  0  0  0  0  0  0  0  0
   62.8743   32.6959   46.4936 H   0  0  0  0  0  0  0  0  0  0  0  0
   62.2269   34.3715   46.4936 H   0  0  0  0  0  0  0  0  0  0  0  0
  1  2  2  0
  2  3  1  0
  3  4  2  3
  4  5  1  0
  5  6  1  0
  6  7  1  0
  7  8  2  0
  7  9  1  0
  9 10  1  0
 10 11  1  0
  3 12  1  0
 12 13  2  0
 13 14  1  0
 14 15  2  0
 14 16  1  0
 16 17  1  0
 17 18  1  0
 18 19  1  0
 19 20  1  0
 20 21  2  0
 20 22  2  0
 13 23  1  0
 23 24  1  0
 24 25  1  0
 25 26  2  0
 25 27  1  0
 27 28  1  0
 27 29  1  0
 23  2  1  0
 10  5  2  0
 20 16  1  0
  1 30  1  0
  1 31  1  0
  4 32  1  0
 11 33  1  0
 12 34  1  0
 17 35  1  0
 17 36  1  0
 18 37  1  0
 18 38  1  0
 19 39  1  0
 19 40  1  0
 24 41  1  0
 24 42  1  0
 28 43  1  0
 28 44  1  0
 28 45  1  0
 29 46  1  0
 29 47  1  0
 29 48  1  0
M  CHG  2   6  -1   9  -1
M  END
>  <UniqueID>  (13) 
11

>  <SMILES>  (13) 
C=c1c(=Cc2[n-]c(=O)[n-]c2O)cc(C(=O)N2CCCS2(=O)=O)n1CC(=O)N(C)C

>  <Energy>  (13) 
123.82252192948371

>  <Genealogy>  (13) 
C=c1c(=Cc2[n-]c(=O)[n-]c2O)cc(C(=O)N2CCCS2(=O)=O)n1CC(=O)N(C)C (protonated)
C=c1c(=Cc2[n-]c(=O)[n-]c2O)cc(C(=O)N2CCCS2(=O)=O)n1CC(=O)N(C)C (3D coordinates assigned)
C=c1c(=Cc2[n-]c(=O)[n-]c2O)cc(C(=O)N2CCCS2(=O)=O)n1CC(=O)N(C)C (nonaromatic ring conformer: 123.82252192948371 kcal/mol)

>  <smiles>  (13) 
C=c1c(=Cc2[nH]c(=O)[nH]c2O)cc(C(=O)N2CCCS2(=O)=O)n1CC(=O)N(C)C

>  <score_type>  (13) 
oracle

>  <origin>  (13) 
adg

>  <m_score__min__energy>  (13) 
-12.66

>  <m_primary>  (13) 
energy

$$$$
13:0
     RDKit          3D

 36 38  0  0  0  0  0  0  0  0999 V2000
   54.7670   28.9600   45.3890 H   0  0  0  0  0  0  0  0  0  0  0  0
   55.1480   29.3440   44.4940 N   0  0  0  0  0  0  0  0  0  0  0  0
   56.4190   29.3930   44.2520 C   0  0  0  0  0  0  0  0  0  0  0  0
   57.3980   29.4440   45.3670 C   0  0  0  0  0  0  0  0  0  0  0  0
   57.8690   30.6990   45.7840 C   0  0  0  0  0  0  0  0  0  0  0  0
   57.4868   31.6101   45.3004 H   0  0  0  0  0  0  0  0  0  0  0  0
   58.8130   30.8060   46.8010 C   0  0  0  0  0  0  0  0  0  0  0  0
   59.1797   31.7972   47.1061 H   0  0  0  0  0  0  0  0  0  0  0  0
   59.2960   29.6610   47.4350 C   0  0  0  0  0  0  0  0  0  0  0  0
   60.2080   29.7870   48.4360 N   0  0  0  0  0  0  0  0  0  0  0  0
   60.6980   28.7100   49.1040 C   0  0  0  0  0  0  0  0  0  0  0  0
   61.5440   28.8780   50.0210 O   0  0  0  0  0  0  0  0  0  0  0  0
   60.2570   27.4260   48.7750 C   0  0  0  0  0  0  0  0  0  0  0  0
   60.7420   26.3160   49.4590 O   0  0  0  0  0  0  0  0  0  0  0  0
   59.3210   27.2620   47.7530 C   0  0  0  0  0  0  0  0  0  0  0  0
   58.9649   26.2539   47.4943 H   0  0  0  0  0  0  0  0  0  0  0  0
   58.8290   28.3810   47.0500 C   0  0  0  0  0  0  0  0  0  0  0  0
   57.8770   28.2680   46.0000 C   0  0  0  0  0  0  0  0  0  0  0  0
   57.3520   26.9420   45.5940 C   0  0  0  0  0  0  0  0  0  0  0  0
   57.9090   26.2620   44.4990 C   0  0  0  0  0  0  0  0  0  0  0  0
   58.7479   26.7093   43.9457 H   0  0  0  0  0  0  0  0  0  0  0  0
   57.4020   25.0190   44.1090 C   0  0  0  0  0  0  0  0  0  0  0  0
   57.8465   24.4888   43.2538 H   0  0  0  0  0  0  0  0  0  0  0  0
   56.3290   24.4470   44.8050 C   0  0  0  0  0  0  0  0  0  0  0  0
   55.6980   22.8750   44.3230 S   0  0  0  0  0  0  0  0  0  0  0  0
   56.5830   21.7840   44.8570 O   0  0  0  0  0  0  0  0  0  0  0  0
   55.6640   22.7780   42.8240 O   0  0  0  0  0  0  0  0  0  0  0  0
   54.1010   22.6760   44.9520 N   0  0  0  0  0  0  0  0  0  0  0  0
   54.0390   21.7030   45.3260 H   0  0  0  0  0  0  0  0  0  0  0  0
   55.7750   25.1210   45.9020 C   0  0  0  0  0  0  0  0  0  0  0  0
   54.9389   24.6704   46.4569 H   0  0  0  0  0  0  0  0  0  0  0  0
   56.2810   26.3630   46.2930 C   0  0  0  0  0  0  0  0  0  0  0  0
   55.8386   26.8892   47.1517 H   0  0  0  0  0  0  0  0  0  0  0  0
   56.8700   29.4300   42.8970 N   0  0  0  0  0  0  0  0  0  0  0  0
   56.1880   29.3540   42.1100 H   0  0  0  0  0  0  0  0  0  0  0  0
   57.8780   29.5840   42.6720 H   0  0  0  0  0  0  0  0  0  0  0  0
  1  2  1  0
  2  3  2  0
  3  4  1  0
  4  5  2  0
  5  6  1  0
  5  7  1  0
  7  8  1  0
  7  9  2  0
  9 10  1  0
 10 11  1  0
 11 12  2  0
 11 13  1  0
 13 14  1  0
 13 15  2  0
 15 16  1  0
 15 17  1  0
 17 18  2  0
 18 19  1  0
 19 20  2  0
 20 21  1  0
 20 22  1  0
 22 23  1  0
 22 24  2  0
 24 25  1  0
 25 26  2  0
 25 27  2  0
 25 28  1  0
 28 29  1  0
 24 30  1  0
 30 31  1  0
 30 32  2  0
 32 33  1  0
  3 34  1  0
 34 35  1  0
 34 36  1  0
 18  4  1  0
 32 19  1  0
 17  9  1  0
M  CHG  3  10  -1  14  -1  28  -1
M  END
>  <UniqueID>  (14) 
12

>  <SMILES>  (14) 
[H]/N=C(/N)c1ccc2[n-]c(=O)c([O-])cc2c1-c1ccc(S([NH-])(=O)=O)cc1

>  <Energy>  (14) 
55.892544348946686

>  <Genealogy>  (14) 
N=C(N)c1ccc2[n-]c(=O)c([O-])cc2c1-c1ccc(S([NH-])(=O)=O)cc1 (protonated)
[H]/N=C(/N)c1ccc2[n-]c(=O)c([O-])cc2c1-c1ccc(S([NH-])(=O)=O)cc1 (cis-trans isomerization)
[H]/N=C(/N)c1ccc2[n-]c(=O)c([O-])cc2c1-c1ccc(S([NH-])(=O)=O)cc1 (3D coordinates assigned)
[H]/N=C(/N)c1ccc2[n-]c(=O)c([O-])cc2c1-c1ccc(S([NH-])(=O)=O)cc1 (optimized conformer: 55.892544348946686 kcal/mol)

>  <smiles>  (14) 
N=C(N)c1ccc2[nH]c(=O)c(O)cc2c1-c1ccc(S(N)(=O)=O)cc1

>  <score_type>  (14) 
oracle

>  <origin>  (14) 
adg

>  <m_score__min__energy>  (14) 
-11.380000000000001

>  <m_primary>  (14) 
energy

$$$$
14:0
     RDKit          3D

 43 46  0  0  0  0  0  0  0  0999 V2000
   58.7520   31.0960   43.9730 H   0  0  0  0  0  0  0  0  0  0  0  0
   59.1250   30.1580   44.0450 O   0  0  0  0  0  0  0  0  0  0  0  0
   58.4200   29.1290   44.6670 C   0  0  0  0  0  0  0  0  0  0  0  0
   58.9970   28.1370   45.4360 C   0  0  0  0  0  0  0  0  0  0  0  0
   57.9720   27.3470   45.8930 C   0  0  0  0  0  0  0  0  0  0  0  0
   56.8050   27.8820   45.3860 C   0  0  0  0  0  0  0  0  0  0  0  0
   55.5260   27.3960   45.6320 O   0  0  0  0  0  0  0  0  0  0  0  0
   57.0750   28.9640   44.6210 N   0  0  0  0  0  0  0  0  0  0  0  0
   56.0900   29.8260   43.9680 C   0  0  0  0  0  0  0  0  0  0  0  0
   55.1801   29.8720   44.5844 H   0  0  0  0  0  0  0  0  0  0  0  0
   55.8479   29.4133   42.9775 H   0  0  0  0  0  0  0  0  0  0  0  0
   56.6480   31.2040   43.8040 C   0  0  0  0  0  0  0  0  0  0  0  0
   57.0230   31.5900   42.6630 O   0  0  0  0  0  0  0  0  0  0  0  0
   56.6950   32.0830   44.9400 N   0  0  0  0  0  0  0  0  0  0  0  0
   57.7410   32.3460   45.6650 C   0  0  0  0  0  0  0  0  0  0  0  0
   58.8930   32.8680   45.1650 N   0  0  0  0  0  0  0  0  0  0  0  0
   59.6640   32.9590   46.2580 C   0  0  0  0  0  0  0  0  0  0  0  0
   60.9720   33.4250   46.3350 C   0  0  0  0  0  0  0  0  0  0  0  0
   61.5011   33.7803   45.4384 H   0  0  0  0  0  0  0  0  0  0  0  0
   61.6000   33.4280   47.6000 C   0  0  0  0  0  0  0  0  0  0  0  0
   63.0260   33.8760   47.7290 C   0  0  0  0  0  0  0  0  0  0  0  0
   63.2894   33.9588   48.7938 H   0  0  0  0  0  0  0  0  0  0  0  0
   63.6862   33.1420   47.2439 H   0  0  0  0  0  0  0  0  0  0  0  0
   63.1479   34.8557   47.2439 H   0  0  0  0  0  0  0  0  0  0  0  0
   60.9040   32.9400   48.7360 C   0  0  0  0  0  0  0  0  0  0  0  0
   61.4063   32.9180   49.7144 H   0  0  0  0  0  0  0  0  0  0  0  0
   59.5720   32.4820   48.6230 C   0  0  0  0  0  0  0  0  0  0  0  0
   58.8200   31.9590   49.8110 C   0  0  0  0  0  0  0  0  0  0  0  0
   59.3105   32.3001   50.7346 H   0  0  0  0  0  0  0  0  0  0  0  0
   57.7862   32.3340   49.7848 H   0  0  0  0  0  0  0  0  0  0  0  0
   58.8119   30.8593   49.7848 H   0  0  0  0  0  0  0  0  0  0  0  0
   58.9910   32.5060   47.3520 C   0  0  0  0  0  0  0  0  0  0  0  0
   57.7580   32.1070   47.0010 N   0  0  0  0  0  0  0  0  0  0  0  0
   58.1580   26.1650   46.7880 C   0  0  0  0  0  0  0  0  0  0  0  0
   57.7585   25.2716   46.2858 H   0  0  0  0  0  0  0  0  0  0  0  0
   57.6237   26.3610   47.7293 H   0  0  0  0  0  0  0  0  0  0  0  0
   59.6200   25.9320   47.1150 C   0  0  0  0  0  0  0  0  0  0  0  0
   59.8751   25.0755   47.7564 H   0  0  0  0  0  0  0  0  0  0  0  0
   60.6300   26.7120   46.6670 C   0  0  0  0  0  0  0  0  0  0  0  0
   61.6558   26.4496   46.9652 H   0  0  0  0  0  0  0  0  0  0  0  0
   60.4360   27.9260   45.7790 C   0  0  0  0  0  0  0  0  0  0  0  0
   61.0064   27.7823   44.8495 H   0  0  0  0  0  0  0  0  0  0  0  0
   60.7907   28.8113   46.3271 H   0  0  0  0  0  0  0  0  0  0  0  0
  1  2  1  0
  2  3  1  0
  3  4  2  0
  4  5  1  0
  5  6  2  0
  6  7  1  0
  6  8  1  0
  8  9  1  0
  9 10  1  0
  9 11  1  0
  9 12  1  0
 12 13  2  0
 12 14  1  0
 14 15  2  0
 15 16  1  0
 16 17  1  0
 17 18  2  0
 18 19  1  0
 18 20  1  0
 20 21  1  0
 21 22  1  0
 21 23  1  0
 21 24  1  0
 20 25  2  0
 25 26  1  0
 25 27  1  0
 27 28  1  0
 28 29  1  0
 28 30  1  0
 28 31  1  0
 27 32  2  0
 32 33  1  0
  5 34  1  0
 34 35  1  0
 34 36  1  0
 34 37  1  0
 37 38  1  0
 37 39  2  0
 39 40  1  0
 39 41  1  0
 41 42  1  0
 41 43  1  0
  8  3  1  0
 33 15  1  0
 41  4  1  0
 32 17  1  0
M  CHG  3   7  -1  16  -1  33  -1
M  END
>  <UniqueID>  (15) 
13

>  <SMILES>  (15) 
Cc1cc(C)c2[n-]/c(=N/C(=O)Cn3c([O-])c4c(c3O)CC=CC4)[n-]c2c1

>  <Energy>  (15) 
111.97405368760862

>  <Genealogy>  (15) 
Cc1cc(C)c2[n-]c(=NC(=O)Cn3c([O-])c4c(c3O)CC=CC4)[n-]c2c1 (protonated)
Cc1cc(C)c2[n-]/c(=N/C(=O)Cn3c([O-])c4c(c3O)CC=CC4)[n-]c2c1 (cis-trans isomerization)
Cc1cc(C)c2[n-]/c(=N/C(=O)Cn3c([O-])c4c(c3O)CC=CC4)[n-]c2c1 (3D coordinates assigned)
Cc1cc(C)c2[n-]/c(=N/C(=O)Cn3c([O-])c4c(c3O)CC=CC4)[n-]c2c1 (nonaromatic ring conformer: 111.97405368760862 kcal/mol)

>  <smiles>  (15) 
Cc1cc(C)c2[nH]c(=NC(=O)Cn3c(O)c4c(c3O)CC=CC4)[nH]c2c1

>  <score_type>  (15) 
oracle

>  <origin>  (15) 
adg

>  <m_score__min__energy>  (15) 
-12.199999999999999

>  <m_primary>  (15) 
energy

$$$$
15:0
     RDKit          3D

 48 51  0  0  0  0  0  0  0  0999 V2000
   56.4710   29.5180   43.4860 C   0  0  0  0  0  0  0  0  0  0  0  0
   57.2460   29.6000   44.5750 C   0  0  0  0  0  0  0  0  0  0  0  0
   57.5320   30.8520   45.0280 N   0  0  0  0  0  0  0  0  0  0  0  0
   58.1310   31.0880   46.2200 C   0  0  0  0  0  0  0  0  0  0  0  0
   58.4370   30.0260   47.0720 C   0  0  0  0  0  0  0  0  0  0  0  0
   59.0220   30.2700   48.4090 C   0  0  0  0  0  0  0  0  0  0  0  0
   58.4930   29.7270   49.4180 O   0  0  0  0  0  0  0  0  0  0  0  0
   60.1830   31.1050   48.5810 N   0  0  0  0  0  0  0  0  0  0  0  0
   60.3550   31.8430   49.8400 C   0  0  0  0  0  0  0  0  0  0  0  0
   61.1440   33.1350   49.5930 C   0  0  0  0  0  0  0  0  0  0  0  0
   62.4780   32.9000   48.8270 C   0  0  0  0  0  0  0  0  0  0  0  0
   63.6860   33.2500   49.6780 C   0  0  0  0  0  0  0  0  0  0  0  0
   63.5460   34.1030   50.7900 C   0  0  0  0  0  0  0  0  0  0  0  0
   64.6580   34.4390   51.5680 C   0  0  0  0  0  0  0  0  0  0  0  0
   65.9190   33.9340   51.2440 C   0  0  0  0  0  0  0  0  0  0  0  0
   66.0720   33.0930   50.1400 C   0  0  0  0  0  0  0  0  0  0  0  0
   64.9640   32.7530   49.3580 C   0  0  0  0  0  0  0  0  0  0  0  0
   62.6160   31.4690   48.2630 C   0  0  0  0  0  0  0  0  0  0  0  0
   61.3040   30.9950   47.6330 C   0  0  0  0  0  0  0  0  0  0  0  0
   58.1640   28.7210   46.6430 C   0  0  0  0  0  0  0  0  0  0  0  0
   57.6510   28.4690   45.3540 C   0  0  0  0  0  0  0  0  0  0  0  0
   57.6090   27.1740   44.9490 C   0  0  0  0  0  0  0  0  0  0  0  0
   57.1290   26.0300   45.7490 C   0  0  0  0  0  0  0  0  0  0  0  0
   57.9100   25.0500   46.2380 N   0  0  0  0  0  0  0  0  0  0  0  0
   57.0590   24.3150   46.9860 C   0  0  0  0  0  0  0  0  0  0  0  0
   57.4200   23.2830   47.6090 O   0  0  0  0  0  0  0  0  0  0  0  0
   55.7920   24.7810   47.0230 N   0  0  0  0  0  0  0  0  0  0  0  0
   55.8580   25.8730   46.2450 C   0  0  0  0  0  0  0  0  0  0  0  0
   54.7780   26.7110   45.9950 O   0  0  0  0  0  0  0  0  0  0  0  0
   56.2054   28.5338   43.0728 H   0  0  0  0  0  0  0  0  0  0  0  0
   56.1000   30.4349   43.0047 H   0  0  0  0  0  0  0  0  0  0  0  0
   58.3765   32.1184   46.5167 H   0  0  0  0  0  0  0  0  0  0  0  0
   59.3665   32.0941   50.2520 H   0  0  0  0  0  0  0  0  0  0  0  0
   60.9098   31.2141   50.5518 H   0  0  0  0  0  0  0  0  0  0  0  0
   60.5176   33.8200   49.0028 H   0  0  0  0  0  0  0  0  0  0  0  0
   61.4008   33.5550   50.5767 H   0  0  0  0  0  0  0  0  0  0  0  0
   62.4434   33.5831   47.9655 H   0  0  0  0  0  0  0  0  0  0  0  0
   62.5560   34.5072   51.0479 H   0  0  0  0  0  0  0  0  0  0  0  0
   64.5393   35.1026   52.4372 H   0  0  0  0  0  0  0  0  0  0  0  0
   66.7919   34.1988   51.8587 H   0  0  0  0  0  0  0  0  0  0  0  0
   67.0661   32.6972   49.8850 H   0  0  0  0  0  0  0  0  0  0  0  0
   65.0915   32.0930   48.4872 H   0  0  0  0  0  0  0  0  0  0  0  0
   63.4059   31.4594   47.4976 H   0  0  0  0  0  0  0  0  0  0  0  0
   62.8707   30.7908   49.0907 H   0  0  0  0  0  0  0  0  0  0  0  0
   61.0874   31.6131   46.7492 H   0  0  0  0  0  0  0  0  0  0  0  0
   61.4171   29.9377   47.3514 H   0  0  0  0  0  0  0  0  0  0  0  0
   58.3531   27.8778   47.3236 H   0  0  0  0  0  0  0  0  0  0  0  0
   57.9654   26.9572   43.9312 H   0  0  0  0  0  0  0  0  0  0  0  0
  1  2  2  0
  2  3  1  0
  3  4  2  0
  4  5  1  0
  5  6  1  0
  6  7  2  0
  6  8  1  0
  8  9  1  0
  9 10  1  0
 10 11  1  0
 11 12  1  0
 12 13  2  0
 13 14  1  0
 14 15  2  0
 15 16  1  0
 16 17  2  0
 11 18  1  0
 18 19  1  0
  5 20  2  0
 20 21  1  0
 21 22  2  3
 22 23  1  0
 23 24  1  0
 24 25  1  0
 25 26  2  0
 25 27  1  0
 27 28  1  0
 28 29  1  0
 21  2  1  0
 28 23  2  0
 19  8  1  0
 17 12  1  0
  1 30  1  0
  1 31  1  0
  4 32  1  0
  9 33  1  0
  9 34  1  0
 10 35  1  0
 10 36  1  0
 11 37  1  0
 13 38  1  0
 14 39  1  0
 15 40  1  0
 16 41  1  0
 17 42  1  0
 18 43  1  0
 18 44  1  0
 19 45  1  0
 19 46  1  0
 20 47  1  0
 22 48  1  0
M  CHG  3  24  -1  27  -1  29  -1
M  END
>  <UniqueID>  (16) 
14

>  <SMILES>  (16) 
C=c1ncc(C(=O)N2CCC(c3ccccc3)CC2)cc1=Cc1[n-]c(=O)[n-]c1[O-]

>  <Energy>  (16) 
108.3731249651602

>  <Genealogy>  (16) 
C=c1ncc(C(=O)N2CCC(c3ccccc3)CC2)cc1=Cc1[n-]c(=O)[n-]c1[O-] (protonated)
C=c1ncc(C(=O)N2CCC(c3ccccc3)CC2)cc1=Cc1[n-]c(=O)[n-]c1[O-] (3D coordinates assigned)
C=c1ncc(C(=O)N2CCC(c3ccccc3)CC2)cc1=Cc1[n-]c(=O)[n-]c1[O-] (nonaromatic ring conformer: 108.3731249651602 kcal/mol)

>  <smiles>  (16) 
C=c1ncc(C(=O)N2CCC(c3ccccc3)CC2)cc1=Cc1[nH]c(=O)[nH]c1O

>  <score_type>  (16) 
oracle

>  <origin>  (16) 
adg

>  <m_score__min__energy>  (16) 
-18

>  <m_primary>  (16) 
energy

$$$$
16:0
     RDKit          3D

 49 51  0  0  0  0  0  0  0  0999 V2000
   53.8280   29.8020   54.9120 C   0  0  0  0  0  0  0  0  0  0  0  0
   54.2970   30.3210   53.7640 C   0  0  0  0  0  0  0  0  0  0  0  0
   53.5940   30.4930   52.5610 C   0  0  0  0  0  0  0  0  0  0  0  0
   52.2860   30.3490   52.2700 C   0  0  0  0  0  0  0  0  0  0  0  0
   51.6390   30.7790   51.0230 C   0  0  0  0  0  0  0  0  0  0  0  0
   51.6120   30.0390   49.9030 N   0  0  0  0  0  0  0  0  0  0  0  0
   51.0300   30.8590   49.0020 C   0  0  0  0  0  0  0  0  0  0  0  0
   50.8150   30.5110   47.8090 O   0  0  0  0  0  0  0  0  0  0  0  0
   50.7100   32.0820   49.4730 N   0  0  0  0  0  0  0  0  0  0  0  0
   51.1110   32.0190   50.7520 C   0  0  0  0  0  0  0  0  0  0  0  0
   51.0240   33.0790   51.6430 O   0  0  0  0  0  0  0  0  0  0  0  0
   54.5370   30.8380   51.6080 C   0  0  0  0  0  0  0  0  0  0  0  0
   55.7500   30.9330   52.2570 C   0  0  0  0  0  0  0  0  0  0  0  0
   57.0410   31.2050   51.5940 C   0  0  0  0  0  0  0  0  0  0  0  0
   57.0810   32.1170   50.7200 O   0  0  0  0  0  0  0  0  0  0  0  0
   58.2250   30.4170   51.9080 N   0  0  0  0  0  0  0  0  0  0  0  0
   59.2760   31.1960   52.5810 C   0  0  0  0  0  0  0  0  0  0  0  0
   59.7440   32.3680   51.7240 C   0  0  0  0  0  0  0  0  0  0  0  0
   59.9090   32.0040   50.3060 N   0  0  0  0  0  0  0  0  0  0  0  0
   60.3870   33.0170   49.3990 C   0  0  0  0  0  0  0  0  0  0  0  0
   60.5180   34.2120   49.7950 O   0  0  0  0  0  0  0  0  0  0  0  0
   60.7120   32.6780   48.0820 O   0  0  0  0  0  0  0  0  0  0  0  0
   60.6800   33.6210   47.0150 C   0  0  0  0  0  0  0  0  0  0  0  0
   59.2910   34.2320   46.9150 C   0  0  0  0  0  0  0  0  0  0  0  0
   59.5140   30.6970   49.7390 C   0  0  0  0  0  0  0  0  0  0  0  0
   58.8030   29.7400   50.7270 C   0  0  0  0  0  0  0  0  0  0  0  0
   55.6070   30.6210   53.5670 N   0  0  0  0  0  0  0  0  0  0  0  0
   56.6930   30.4820   54.5450 C   0  0  0  0  0  0  0  0  0  0  0  0
   54.4869   29.7221   55.7892 H   0  0  0  0  0  0  0  0  0  0  0  0
   52.7853   29.4572   54.9742 H   0  0  0  0  0  0  0  0  0  0  0  0
   51.6501   29.8698   53.0290 H   0  0  0  0  0  0  0  0  0  0  0  0
   54.3535   31.0047   50.5363 H   0  0  0  0  0  0  0  0  0  0  0  0
   57.9280   29.6660   52.5740 H   0  0  0  0  0  0  0  0  0  0  0  0
   58.8793   31.5845   53.5306 H   0  0  0  0  0  0  0  0  0  0  0  0
   60.1363   30.5331   52.7557 H   0  0  0  0  0  0  0  0  0  0  0  0
   59.0008   33.1757   51.7960 H   0  0  0  0  0  0  0  0  0  0  0  0
   60.7268   32.6854   52.1025 H   0  0  0  0  0  0  0  0  0  0  0  0
   61.4164   34.4154   47.2064 H   0  0  0  0  0  0  0  0  0  0  0  0
   60.9239   33.1123   46.0707 H   0  0  0  0  0  0  0  0  0  0  0  0
   58.8937   34.4068   47.9257 H   0  0  0  0  0  0  0  0  0  0  0  0
   59.3489   35.1877   46.3735 H   0  0  0  0  0  0  0  0  0  0  0  0
   58.6257   33.5435   46.3735 H   0  0  0  0  0  0  0  0  0  0  0  0
   58.8330   30.8833   48.8955 H   0  0  0  0  0  0  0  0  0  0  0  0
   60.4481   30.1956   49.4456 H   0  0  0  0  0  0  0  0  0  0  0  0
   57.9910   29.2284   50.1895 H   0  0  0  0  0  0  0  0  0  0  0  0
   59.5673   29.0431   51.1015 H   0  0  0  0  0  0  0  0  0  0  0  0
   56.2789   30.5350   55.5627 H   0  0  0  0  0  0  0  0  0  0  0  0
   57.1929   29.5125   54.4025 H   0  0  0  0  0  0  0  0  0  0  0  0
   57.4209   31.2943   54.4025 H   0  0  0  0  0  0  0  0  0  0  0  0
  1  2  2  0
  2  3  1  0
  3  4  2  3
  4  5  1  0
  5  6  1  0
  6  7  1  0
  7  8  2  0
  7  9  1  0
  9 10  1  0
 10 11  1  0
  3 12  1  0
 12 13  2  0
 13 14  1  0
 14 15  2  0
 14 16  1  0
 16 17  1  0
 17 18  1  0
 18 19  1  0
 19 20  1  0
 20 21  2  0
 20 22  1  0
 22 23  1  0
 23 24  1  0
 19 25  1  0
 25 26  1  0
 13 27  1  0
 27 28  1  0
 27  2  1  0
 10  5  2  0
 26 16  1  0
  1 29  1  0
  1 30  1  0
  4 31  1  0
 12 32  1  0
 16 33  1  0
 17 34  1  0
 17 35  1  0
 18 36  1  0
 18 37  1  0
 23 38  1  0
 23 39  1  0
 24 40  1  0
 24 41  1  0
 24 42  1  0
 25 43  1  0
 25 44  1  0
 26 45  1  0
 26 46  1  0
 28 47  1  0
 28 48  1  0
 28 49  1  0
M  CHG  4   6  -1   9  -1  11  -1  16   1
M  END
>  <UniqueID>  (17) 
15

>  <SMILES>  (17) 
C=c1c(=Cc2[n-]c(=O)[n-]c2[O-])cc(C(=O)[NH+]2CCN(C(=O)OCC)CC2)n1C

>  <Energy>  (17) 
131.4137989402005

>  <Genealogy>  (17) 
C=c1c(=Cc2[n-]c(=O)[n-]c2[O-])cc(C(=O)[NH+]2CCN(C(=O)OCC)CC2)n1C (protonated)
C=c1c(=Cc2[n-]c(=O)[n-]c2[O-])cc(C(=O)[NH+]2CCN(C(=O)OCC)CC2)n1C (3D coordinates assigned)
C=c1c(=Cc2[n-]c(=O)[n-]c2[O-])cc(C(=O)[NH+]2CCN(C(=O)OCC)CC2)n1C (nonaromatic ring conformer: 131.4137989402005 kcal/mol)

>  <smiles>  (17) 
C=c1c(=Cc2[nH]c(=O)[nH]c2O)cc(C(=O)N2CCN(C(=O)OCC)CC2)n1C

>  <score_type>  (17) 
oracle

>  <origin>  (17) 
adg

>  <m_score__min__energy>  (17) 
-15.6

>  <m_primary>  (17) 
energy

$$$$
17:0
     RDKit          3D

 59 62  0  0  0  0  0  0  0  0999 V2000
   51.4000   32.7000   50.1120 O   0  0  0  0  0  0  0  0  0  0  0  0
   51.2970   32.3430   51.3160 C   0  0  0  0  0  0  0  0  0  0  0  0
   50.1760   32.7280   52.0400 O   0  0  0  0  0  0  0  0  0  0  0  0
   52.3470   31.5170   51.9460 C   0  0  0  0  0  0  0  0  0  0  0  0
   53.5030   31.1690   51.2280 C   0  0  0  0  0  0  0  0  0  0  0  0
   54.5190   30.4270   51.8370 C   0  0  0  0  0  0  0  0  0  0  0  0
   54.4040   30.0320   53.1810 C   0  0  0  0  0  0  0  0  0  0  0  0
   55.5230   29.3500   53.8770 C   0  0  0  0  0  0  0  0  0  0  0  0
   55.5550   29.3560   55.1350 O   0  0  0  0  0  0  0  0  0  0  0  0
   56.5690   28.6670   53.1680 N   0  0  0  0  0  0  0  0  0  0  0  0
   57.8950   29.1580   52.9130 C   0  0  0  0  0  0  0  0  0  0  0  0
   58.9020   28.8820   53.8470 C   0  0  0  0  0  0  0  0  0  0  0  0
   60.2240   29.2520   53.5930 C   0  0  0  0  0  0  0  0  0  0  0  0
   60.5540   29.9000   52.4010 C   0  0  0  0  0  0  0  0  0  0  0  0
   59.5530   30.2300   51.4800 C   0  0  0  0  0  0  0  0  0  0  0  0
   59.9130   30.7940   50.2120 N   0  0  0  0  0  0  0  0  0  0  0  0
   60.6120   32.0840   50.1430 C   0  0  0  0  0  0  0  0  0  0  0  0
   60.5980   32.6470   48.7160 C   0  0  0  0  0  0  0  0  0  0  0  0
   59.2660   32.4620   48.1100 N   0  0  0  0  0  0  0  0  0  0  0  0
   58.5920   33.5710   47.4780 C   0  0  0  0  0  0  0  0  0  0  0  0
   58.8780   34.7530   47.8160 O   0  0  0  0  0  0  0  0  0  0  0  0
   57.5940   33.3730   46.3650 C   0  0  0  0  0  0  0  0  0  0  0  0
   58.2870   32.9760   45.0530 C   0  0  0  0  0  0  0  0  0  0  0  0
   58.2030   31.4930   44.8020 C   0  0  0  0  0  0  0  0  0  0  0  0
   57.1030   30.9500   44.1140 C   0  0  0  0  0  0  0  0  0  0  0  0
   57.0710   29.5920   43.7920 C   0  0  0  0  0  0  0  0  0  0  0  0
   58.1370   28.7610   44.1530 C   0  0  0  0  0  0  0  0  0  0  0  0
   58.1100   27.0620   43.7190 Cl  0  0  0  0  0  0  0  0  0  0  0  0
   59.2310   29.2900   44.8450 C   0  0  0  0  0  0  0  0  0  0  0  0
   59.2660   30.6500   45.1690 C   0  0  0  0  0  0  0  0  0  0  0  0
   58.6270   31.1340   48.1590 C   0  0  0  0  0  0  0  0  0  0  0  0
   59.4490   30.1410   48.9830 C   0  0  0  0  0  0  0  0  0  0  0  0
   58.2160   29.8910   51.7510 C   0  0  0  0  0  0  0  0  0  0  0  0
   57.2180   30.2800   50.8640 O   0  0  0  0  0  0  0  0  0  0  0  0
   53.2280   30.3360   53.8830 C   0  0  0  0  0  0  0  0  0  0  0  0
   52.2140   31.0790   53.2750 C   0  0  0  0  0  0  0  0  0  0  0  0
   53.6095   31.4826   50.1790 H   0  0  0  0  0  0  0  0  0  0  0  0
   55.4143   30.1504   51.2608 H   0  0  0  0  0  0  0  0  0  0  0  0
   58.6493   28.3701   54.7872 H   0  0  0  0  0  0  0  0  0  0  0  0
   61.0073   29.0326   54.3335 H   0  0  0  0  0  0  0  0  0  0  0  0
   61.6029   30.1517   52.1853 H   0  0  0  0  0  0  0  0  0  0  0  0
   60.1142   32.7982   50.8154 H   0  0  0  0  0  0  0  0  0  0  0  0
   61.6580   31.9300   50.4464 H   0  0  0  0  0  0  0  0  0  0  0  0
   60.8379   33.7201   48.7461 H   0  0  0  0  0  0  0  0  0  0  0  0
   61.3455   32.1126   48.1113 H   0  0  0  0  0  0  0  0  0  0  0  0
   56.8905   32.5778   46.6527 H   0  0  0  0  0  0  0  0  0  0  0  0
   57.0646   34.3234   46.2024 H   0  0  0  0  0  0  0  0  0  0  0  0
   57.8023   33.5061   44.2199 H   0  0  0  0  0  0  0  0  0  0  0  0
   59.3495   33.2497   45.1313 H   0  0  0  0  0  0  0  0  0  0  0  0
   56.2626   31.5995   43.8278 H   0  0  0  0  0  0  0  0  0  0  0  0
   56.2069   29.1750   43.2540 H   0  0  0  0  0  0  0  0  0  0  0  0
   60.0658   28.6350   45.1351 H   0  0  0  0  0  0  0  0  0  0  0  0
   60.1288   31.0615   45.7132 H   0  0  0  0  0  0  0  0  0  0  0  0
   57.6300   31.2346   48.6128 H   0  0  0  0  0  0  0  0  0  0  0  0
   58.5550   30.7498   47.1308 H   0  0  0  0  0  0  0  0  0  0  0  0
   58.8244   29.2733   49.2418 H   0  0  0  0  0  0  0  0  0  0  0  0
   60.3162   29.8053   48.3954 H   0  0  0  0  0  0  0  0  0  0  0  0
   53.1039   29.9869   54.9187 H   0  0  0  0  0  0  0  0  0  0  0  0
   51.3031   31.3237   53.8411 H   0  0  0  0  0  0  0  0  0  0  0  0
  1  2  2  0
  2  3  1  0
  2  4  1  0
  4  5  2  0
  5  6  1  0
  6  7  2  0
  7  8  1  0
  8  9  2  0
  8 10  1  0
 10 11  1  0
 11 12  2  0
 12 13  1  0
 13 14  2  0
 14 15  1  0
 15 16  1  0
 16 17  1  0
 17 18  1  0
 18 19  1  0
 19 20  1  0
 20 21  2  0
 20 22  1  0
 22 23  1  0
 23 24  1  0
 24 25  2  0
 25 26  1  0
 26 27  2  0
 27 28  1  0
 27 29  1  0
 29 30  2  0
 19 31  1  0
 31 32  1  0
 15 33  2  0
 33 34  1  0
  7 35  1  0
 35 36  2  0
 36  4  1  0
 33 11  1  0
 32 16  1  0
 30 24  1  0
  5 37  1  0
  6 38  1  0
 12 39  1  0
 13 40  1  0
 14 41  1  0
 17 42  1  0
 17 43  1  0
 18 44  1  0
 18 45  1  0
 22 46  1  0
 22 47  1  0
 23 48  1  0
 23 49  1  0
 25 50  1  0
 26 51  1  0
 29 52  1  0
 30 53  1  0
 31 54  1  0
 31 55  1  0
 32 56  1  0
 32 57  1  0
 35 58  1  0
 36 59  1  0
M  CHG  3   3  -1  10  -1  34  -1
M  END
>  <UniqueID>  (18) 
16

>  <SMILES>  (18) 
O=C([O-])c1ccc(C(=O)[N-]c2cccc(N3CCN(C(=O)CCc4ccc(Cl)cc4)CC3)c2[O-])cc1

>  <Energy>  (18) 
72.58170398814218

>  <Genealogy>  (18) 
O=C([O-])c1ccc(C(=O)[N-]c2cccc(N3CCN(C(=O)CCc4ccc(Cl)cc4)CC3)c2[O-])cc1 (protonated)
O=C([O-])c1ccc(C(=O)[N-]c2cccc(N3CCN(C(=O)CCc4ccc(Cl)cc4)CC3)c2[O-])cc1 (3D coordinates assigned)
O=C([O-])c1ccc(C(=O)[N-]c2cccc(N3CCN(C(=O)CCc4ccc(Cl)cc4)CC3)c2[O-])cc1 (nonaromatic ring conformer: 72.58170398814218 kcal/mol)

>  <smiles>  (18) 
O=C(O)c1ccc(C(=O)Nc2cccc(N3CCN(C(=O)CCc4ccc(Cl)cc4)CC3)c2O)cc1

>  <score_type>  (18) 
oracle

>  <origin>  (18) 
adg

>  <m_score__min__energy>  (18) 
-15.93

>  <m_primary>  (18) 
energy

$$$$
18:0
     RDKit          3D

 56 59  0  0  0  0  0  0  0  0999 V2000
   62.0900   30.5120   50.7380 C   0  0  0  0  0  0  0  0  0  0  0  0
   61.9840   30.4670   49.3190 O   0  0  0  0  0  0  0  0  0  0  0  0
   62.1390   31.5760   48.4730 C   0  0  0  0  0  0  0  0  0  0  0  0
   63.3600   31.8510   47.8240 C   0  0  0  0  0  0  0  0  0  0  0  0
   63.4790   32.9600   46.9850 C   0  0  0  0  0  0  0  0  0  0  0  0
   62.3880   33.8010   46.7740 C   0  0  0  0  0  0  0  0  0  0  0  0
   61.1610   33.5440   47.4050 C   0  0  0  0  0  0  0  0  0  0  0  0
   59.9760   34.4400   47.1420 C   0  0  0  0  0  0  0  0  0  0  0  0
   59.0510   33.7950   46.1910 N   0  0  0  0  0  0  0  0  0  0  0  0
   59.5080   33.9950   44.7980 C   0  0  0  0  0  0  0  0  0  0  0  0
   58.5350   33.3480   43.7890 C   0  0  0  0  0  0  0  0  0  0  0  0
   57.4410   32.6880   44.5050 N   0  0  0  0  0  0  0  0  0  0  0  0
   57.4340   31.2610   44.6720 C   0  0  0  0  0  0  0  0  0  0  0  0
   56.3410   30.6560   44.8190 O   0  0  0  0  0  0  0  0  0  0  0  0
   58.6730   30.5400   44.6630 N   0  0  0  0  0  0  0  0  0  0  0  0
   59.0660   29.4510   45.5120 C   0  0  0  0  0  0  0  0  0  0  0  0
   59.8570   29.7350   46.6290 C   0  0  0  0  0  0  0  0  0  0  0  0
   60.2370   28.7190   47.5070 C   0  0  0  0  0  0  0  0  0  0  0  0
   59.8290   27.4040   47.2790 C   0  0  0  0  0  0  0  0  0  0  0  0
   59.0290   27.0980   46.1690 C   0  0  0  0  0  0  0  0  0  0  0  0
   58.5860   25.6810   45.9150 C   0  0  0  0  0  0  0  0  0  0  0  0
   57.0930   25.5960   45.8660 C   0  0  0  0  0  0  0  0  0  0  0  0
   56.2050   26.6350   46.1290 C   0  0  0  0  0  0  0  0  0  0  0  0
   54.8930   26.3060   45.9990 N   0  0  0  0  0  0  0  0  0  0  0  0
   54.7460   25.0190   45.6200 C   0  0  0  0  0  0  0  0  0  0  0  0
   53.6220   24.4820   45.4350 O   0  0  0  0  0  0  0  0  0  0  0  0
   56.2130   24.2250   45.4280 S   0  0  0  0  0  0  0  0  0  0  0  0
   58.6280   28.1280   45.3010 C   0  0  0  0  0  0  0  0  0  0  0  0
   56.6890   33.5250   45.4460 C   0  0  0  0  0  0  0  0  0  0  0  0
   57.6660   34.2940   46.3610 C   0  0  0  0  0  0  0  0  0  0  0  0
   61.0400   32.4330   48.2660 C   0  0  0  0  0  0  0  0  0  0  0  0
   59.8230   32.1880   48.9040 O   0  0  0  0  0  0  0  0  0  0  0  0
   61.1658   30.1196   51.1873 H   0  0  0  0  0  0  0  0  0  0  0  0
   62.9440   29.8988   51.0615 H   0  0  0  0  0  0  0  0  0  0  0  0
   62.2421   31.5523   51.0615 H   0  0  0  0  0  0  0  0  0  0  0  0
   64.2237   31.1878   47.9798 H   0  0  0  0  0  0  0  0  0  0  0  0
   64.4376   33.1710   46.4884 H   0  0  0  0  0  0  0  0  0  0  0  0
   62.4891   34.6714   46.1090 H   0  0  0  0  0  0  0  0  0  0  0  0
   59.4488   34.6323   48.0881 H   0  0  0  0  0  0  0  0  0  0  0  0
   60.3311   35.3876   46.7108 H   0  0  0  0  0  0  0  0  0  0  0  0
   59.5712   35.0739   44.5932 H   0  0  0  0  0  0  0  0  0  0  0  0
   60.4929   33.5185   44.6844 H   0  0  0  0  0  0  0  0  0  0  0  0
   58.1226   34.1260   43.1297 H   0  0  0  0  0  0  0  0  0  0  0  0
   59.0777   32.6022   43.1896 H   0  0  0  0  0  0  0  0  0  0  0  0
   60.1828   30.7686   46.8176 H   0  0  0  0  0  0  0  0  0  0  0  0
   60.8604   28.9555   48.3819 H   0  0  0  0  0  0  0  0  0  0  0  0
   60.1356   26.6062   47.9714 H   0  0  0  0  0  0  0  0  0  0  0  0
   58.9991   25.3399   44.9543 H   0  0  0  0  0  0  0  0  0  0  0  0
   58.9505   25.0436   46.7341 H   0  0  0  0  0  0  0  0  0  0  0  0
   56.5387   27.6422   46.4190 H   0  0  0  0  0  0  0  0  0  0  0  0
   57.9678   27.9001   44.4512 H   0  0  0  0  0  0  0  0  0  0  0  0
   56.0736   34.2430   44.8842 H   0  0  0  0  0  0  0  0  0  0  0  0
   56.0422   32.8845   46.0636 H   0  0  0  0  0  0  0  0  0  0  0  0
   57.6341   35.3632   46.1046 H   0  0  0  0  0  0  0  0  0  0  0  0
   57.3626   34.1414   47.4073 H   0  0  0  0  0  0  0  0  0  0  0  0
   59.6760   31.3860   49.5020 H   0  0  0  0  0  0  0  0  0  0  0  0
  1  2  1  0
  2  3  1  0
  3  4  2  0
  4  5  1  0
  5  6  2  0
  6  7  1  0
  7  8  1  0
  8  9  1  0
  9 10  1  0
 10 11  1  0
 11 12  1  0
 12 13  1  0
 13 14  2  0
 13 15  1  0
 15 16  1  0
 16 17  2  0
 17 18  1  0
 18 19  2  0
 19 20  1  0
 20 21  1  0
 21 22  1  0
 22 23  2  0
 23 24  1  0
 24 25  1  0
 25 26  2  0
 25 27  1  0
 20 28  2  0
 12 29  1  0
 29 30  1  0
  7 31  2  0
 31 32  1  0
 31  3  1  0
 30  9  1  0
 28 16  1  0
 27 22  1  0
  1 33  1  0
  1 34  1  0
  1 35  1  0
  4 36  1  0
  5 37  1  0
  6 38  1  0
  8 39  1  0
  8 40  1  0
 10 41  1  0
 10 42  1  0
 11 43  1  0
 11 44  1  0
 17 45  1  0
 18 46  1  0
 19 47  1  0
 21 48  1  0
 21 49  1  0
 23 50  1  0
 28 51  1  0
 29 52  1  0
 29 53  1  0
 30 54  1  0
 30 55  1  0
 32 56  1  0
M  CHG  2  15  -1  24  -1
M  END
>  <UniqueID>  (19) 
17

>  <SMILES>  (19) 
COc1cccc(CN2CCN(C(=O)[N-]c3cccc(Cc4c[n-]c(=O)s4)c3)CC2)c1O

>  <Energy>  (19) 
98.91393006849056

>  <Genealogy>  (19) 
COc1cccc(CN2CCN(C(=O)[N-]c3cccc(Cc4c[n-]c(=O)s4)c3)CC2)c1O (protonated)
COc1cccc(CN2CCN(C(=O)[N-]c3cccc(Cc4c[n-]c(=O)s4)c3)CC2)c1O (3D coordinates assigned)
COc1cccc(CN2CCN(C(=O)[N-]c3cccc(Cc4c[n-]c(=O)s4)c3)CC2)c1O (nonaromatic ring conformer: 98.91393006849056 kcal/mol)

>  <smiles>  (19) 
COc1cccc(CN2CCN(C(=O)Nc3cccc(Cc4c[nH]c(=O)s4)c3)CC2)c1O

>  <score_type>  (19) 
oracle

>  <origin>  (19) 
adg

>  <m_score__min__energy>  (19) 
-13.119999999999999

>  <m_primary>  (19) 
energy

$$$$
19:0
     RDKit          3D

 66 69  0  0  0  0  0  0  0  0999 V2000
   59.0720   27.8100   48.2330 C   0  0  0  0  0  0  0  0  0  0  0  0
   60.4440   27.3520   47.7380 C   0  0  0  0  0  0  0  0  0  0  0  0
   60.3960   26.8420   46.2810 C   0  0  0  0  0  0  0  0  0  0  0  0
   60.7450   27.9230   45.2430 C   0  0  0  0  0  0  0  0  0  0  0  0
   59.8940   29.1520   45.3810 C   0  0  0  0  0  0  0  0  0  0  0  0
   60.2840   30.2310   46.1010 N   0  0  0  0  0  0  0  0  0  0  0  0
   59.3170   31.1240   45.9680 N   0  0  0  0  0  0  0  0  0  0  0  0
   59.3020   32.4040   46.6090 C   0  0  0  0  0  0  0  0  0  0  0  0
   59.1140   33.5820   45.8470 C   0  0  0  0  0  0  0  0  0  0  0  0
   58.9210   33.5110   44.3560 C   0  0  0  0  0  0  0  0  0  0  0  0
   59.1140   34.8290   46.4940 C   0  0  0  0  0  0  0  0  0  0  0  0
   59.2810   34.9050   47.8810 C   0  0  0  0  0  0  0  0  0  0  0  0
   59.4590   33.7400   48.6340 C   0  0  0  0  0  0  0  0  0  0  0  0
   59.4710   32.4920   48.0050 C   0  0  0  0  0  0  0  0  0  0  0  0
   59.7240   31.0490   48.9800 Cl  0  0  0  0  0  0  0  0  0  0  0  0
   58.3670   30.5990   45.1770 C   0  0  0  0  0  0  0  0  0  0  0  0
   57.3110   31.2010   44.8440 O   0  0  0  0  0  0  0  0  0  0  0  0
   58.6940   29.3540   44.7810 N   0  0  0  0  0  0  0  0  0  0  0  0
   57.8940   28.4360   43.9660 C   0  0  0  0  0  0  0  0  0  0  0  0
   57.4550   27.2500   44.7850 C   0  0  0  0  0  0  0  0  0  0  0  0
   56.7250   27.4340   45.9670 C   0  0  0  0  0  0  0  0  0  0  0  0
   56.3150   26.3330   46.7190 C   0  0  0  0  0  0  0  0  0  0  0  0
   56.6150   25.0290   46.3010 C   0  0  0  0  0  0  0  0  0  0  0  0
   56.1840   23.8970   47.1500 C   0  0  0  0  0  0  0  0  0  0  0  0
   56.9800   23.5390   48.2500 C   0  0  0  0  0  0  0  0  0  0  0  0
   56.6230   22.4630   49.0640 C   0  0  0  0  0  0  0  0  0  0  0  0
   55.4770   21.7200   48.7790 C   0  0  0  0  0  0  0  0  0  0  0  0
   54.6810   22.0560   47.6800 C   0  0  0  0  0  0  0  0  0  0  0  0
   55.0180   23.1440   46.8590 C   0  0  0  0  0  0  0  0  0  0  0  0
   53.9790   23.5170   45.4700 S   0  0  0  0  0  0  0  0  0  0  0  0
   52.5350   22.5680   45.5330 N   0  0  0  0  0  0  0  0  0  0  0  0
   54.7160   23.2060   44.1990 O   0  0  0  0  0  0  0  0  0  0  0  0
   53.5880   24.9680   45.4810 O   0  0  0  0  0  0  0  0  0  0  0  0
   57.3220   24.8290   45.0900 C   0  0  0  0  0  0  0  0  0  0  0  0
   57.6820   23.4490   44.5850 C   0  0  0  0  0  0  0  0  0  0  0  0
   58.6090   22.7610   45.5370 C   0  0  0  0  0  0  0  0  0  0  0  0
   59.8100   23.1260   45.6220 O   0  0  0  0  0  0  0  0  0  0  0  0
   58.1430   21.7320   46.3470 O   0  0  0  0  0  0  0  0  0  0  0  0
   57.7510   25.9480   44.3570 C   0  0  0  0  0  0  0  0  0  0  0  0
   59.0615   27.8135   49.3329 H   0  0  0  0  0  0  0  0  0  0  0  0
   58.8681   28.8249   47.8611 H   0  0  0  0  0  0  0  0  0  0  0  0
   58.2993   27.1211   47.8611 H   0  0  0  0  0  0  0  0  0  0  0  0
   61.1424   28.2000   47.7940 H   0  0  0  0  0  0  0  0  0  0  0  0
   60.7740   26.5199   48.3772 H   0  0  0  0  0  0  0  0  0  0  0  0
   61.1135   26.0147   46.1774 H   0  0  0  0  0  0  0  0  0  0  0  0
   59.3621   26.5232   46.0826 H   0  0  0  0  0  0  0  0  0  0  0  0
   61.7995   28.2083   45.3724 H   0  0  0  0  0  0  0  0  0  0  0  0
   60.5588   27.4992   44.2451 H   0  0  0  0  0  0  0  0  0  0  0  0
   57.9098   33.1390   44.1345 H   0  0  0  0  0  0  0  0  0  0  0  0
   59.0460   34.5140   43.9219 H   0  0  0  0  0  0  0  0  0  0  0  0
   59.6662   32.8281   43.9219 H   0  0  0  0  0  0  0  0  0  0  0  0
   58.9821   35.7501   45.9073 H   0  0  0  0  0  0  0  0  0  0  0  0
   59.2723   35.8847   48.3811 H   0  0  0  0  0  0  0  0  0  0  0  0
   59.5899   33.8061   49.7242 H   0  0  0  0  0  0  0  0  0  0  0  0
   57.0059   28.9654   43.5905 H   0  0  0  0  0  0  0  0  0  0  0  0
   58.5071   28.0804   43.1248 H   0  0  0  0  0  0  0  0  0  0  0  0
   56.4743   28.4509   46.3032 H   0  0  0  0  0  0  0  0  0  0  0  0
   55.7503   26.4897   47.6499 H   0  0  0  0  0  0  0  0  0  0  0  0
   57.8927   24.1115   48.4720 H   0  0  0  0  0  0  0  0  0  0  0  0
   57.2461   22.2003   49.9316 H   0  0  0  0  0  0  0  0  0  0  0  0
   55.1997   20.8696   49.4192 H   0  0  0  0  0  0  0  0  0  0  0  0
   53.7823   21.4625   47.4564 H   0  0  0  0  0  0  0  0  0  0  0  0
   52.8290   21.5720   45.6420 H   0  0  0  0  0  0  0  0  0  0  0  0
   56.7639   22.8522   44.4805 H   0  0  0  0  0  0  0  0  0  0  0  0
   58.1856   23.5493   43.6122 H   0  0  0  0  0  0  0  0  0  0  0  0
   58.3284   25.8004   43.4324 H   0  0  0  0  0  0  0  0  0  0  0  0
  1  2  1  0
  2  3  1  0
  3  4  1  0
  4  5  1  0
  5  6  2  0
  6  7  1  0
  7  8  1  0
  8  9  2  0
  9 10  1  0
  9 11  1  0
 11 12  2  0
 12 13  1  0
 13 14  2  0
 14 15  1  0
  7 16  1  0
 16 17  2  0
 16 18  1  0
 18 19  1  0
 19 20  1  0
 20 21  2  0
 21 22  1  0
 22 23  2  0
 23 24  1  0
 24 25  2  0
 25 26  1  0
 26 27  2  0
 27 28  1  0
 28 29  2  0
 29 30  1  0
 30 31  1  0
 30 32  2  0
 30 33  2  0
 23 34  1  0
 34 35  1  0
 35 36  1  0
 36 37  2  0
 36 38  1  0
 34 39  2  0
 18  5  1  0
 39 20  1  0
 14  8  1  0
 29 24  1  0
  1 40  1  0
  1 41  1  0
  1 42  1  0
  2 43  1  0
  2 44  1  0
  3 45  1  0
  3 46  1  0
  4 47  1  0
  4 48  1  0
 10 49  1  0
 10 50  1  0
 10 51  1  0
 11 52  1  0
 12 53  1  0
 13 54  1  0
 19 55  1  0
 19 56  1  0
 21 57  1  0
 22 58  1  0
 25 59  1  0
 26 60  1  0
 27 61  1  0
 28 62  1  0
 31 63  1  0
 35 64  1  0
 35 65  1  0
 39 66  1  0
M  CHG  2  31  -1  38  -1
M  END
>  <UniqueID>  (20) 
18

>  <SMILES>  (20) 
CCCCc1nn(-c2c(C)cccc2Cl)c(=O)n1Cc1ccc(-c2ccccc2S([NH-])(=O)=O)c(CC(=O)[O-])c1

>  <Energy>  (20) 
114.36446814151354

>  <Genealogy>  (20) 
CCCCc1nn(-c2c(C)cccc2Cl)c(=O)n1Cc1ccc(-c2ccccc2S([NH-])(=O)=O)c(CC(=O)[O-])c1 (protonated)
CCCCc1nn(-c2c(C)cccc2Cl)c(=O)n1Cc1ccc(-c2ccccc2S([NH-])(=O)=O)c(CC(=O)[O-])c1 (3D coordinates assigned)
CCCCc1nn(-c2c(C)cccc2Cl)c(=O)n1Cc1ccc(-c2ccccc2S([NH-])(=O)=O)c(CC(=O)[O-])c1 (optimized conformer: 114.36446814151354 kcal/mol)

>  <smiles>  (20) 
CCCCc1nn(-c2c(C)cccc2Cl)c(=O)n1Cc1ccc(-c2ccccc2S(N)(=O)=O)c(CC(=O)O)c1

>  <score_type>  (20) 
oracle

>  <origin>  (20) 
adg

>  <m_score__min__energy>  (20) 
-14.960000000000001

>  <m_primary>  (20) 
energy

$$$$
20:0
     RDKit          3D

 26 27  0  0  0  0  0  0  0  0999 V2000
   58.1961   34.4229   46.3387 H   0  0  0  0  0  0  0  0  0  0  0  0
   58.1510   33.3780   45.9980 C   0  0  0  0  0  0  0  0  0  0  0  0
   58.9110   32.4350   46.4500 N   0  0  0  0  0  0  0  0  0  0  0  0
   58.5560   31.2600   45.7300 C   0  0  0  0  0  0  0  0  0  0  0  0
   59.2660   30.1270   45.8340 C   0  0  0  0  0  0  0  0  0  0  0  0
   60.2931   30.2042   46.2201 H   0  0  0  0  0  0  0  0  0  0  0  0
   58.7740   28.7860   45.4700 C   0  0  0  0  0  0  0  0  0  0  0  0
   58.9110   28.3380   44.1470 C   0  0  0  0  0  0  0  0  0  0  0  0
   59.4067   28.9767   43.4011 H   0  0  0  0  0  0  0  0  0  0  0  0
   58.4200   27.0830   43.7730 C   0  0  0  0  0  0  0  0  0  0  0  0
   58.5476   26.7293   42.7393 H   0  0  0  0  0  0  0  0  0  0  0  0
   57.7670   26.2770   44.7110 C   0  0  0  0  0  0  0  0  0  0  0  0
   57.1530   24.7030   44.2390 Cl  0  0  0  0  0  0  0  0  0  0  0  0
   57.5950   26.7310   46.0220 C   0  0  0  0  0  0  0  0  0  0  0  0
   57.0736   26.1010   46.7577 H   0  0  0  0  0  0  0  0  0  0  0  0
   58.0850   27.9850   46.3990 C   0  0  0  0  0  0  0  0  0  0  0  0
   57.9312   28.3469   47.4263 H   0  0  0  0  0  0  0  0  0  0  0  0
   57.4400   31.5890   44.8280 C   0  0  0  0  0  0  0  0  0  0  0  0
   56.5100   30.6930   44.1140 C   0  0  0  0  0  0  0  0  0  0  0  0
   55.6170   30.0870   44.7650 O   0  0  0  0  0  0  0  0  0  0  0  0
   56.6480   30.4200   42.6490 C   0  0  0  0  0  0  0  0  0  0  0  0
   57.1398   29.4471   42.5021 H   0  0  0  0  0  0  0  0  0  0  0  0
   55.6513   30.4009   42.1841 H   0  0  0  0  0  0  0  0  0  0  0  0
   57.2544   31.2113   42.1841 H   0  0  0  0  0  0  0  0  0  0  0  0
   57.2250   32.8880   44.9800 C   0  0  0  0  0  0  0  0  0  0  0  0
   56.4818   33.4898   44.4365 H   0  0  0  0  0  0  0  0  0  0  0  0
  1  2  1  0
  2  3  2  0
  3  4  1  0
  4  5  2  0
  5  6  1  0
  5  7  1  0
  7  8  2  0
  8  9  1  0
  8 10  1  0
 10 11  1  0
 10 12  2  0
 12 13  1  0
 12 14  1  0
 14 15  1  0
 14 16  2  0
 16 17  1  0
  4 18  1  0
 18 19  1  0
 19 20  2  0
 19 21  1  0
 21 22  1  0
 21 23  1  0
 21 24  1  0
 18 25  2  0
 25 26  1  0
 25  2  1  0
 16  7  1  0
M  END
>  <UniqueID>  (21) 
19

>  <SMILES>  (21) 
CC(=O)C1=CC=N/C1=C/c1ccc(Cl)cc1

>  <Energy>  (21) 
60.152590361250255

>  <Genealogy>  (21) 
CC(=O)C1=CC=N/C1=C/c1ccc(Cl)cc1 (cis-trans isomerization)
CC(=O)C1=CC=N/C1=C/c1ccc(Cl)cc1 (3D coordinates assigned)
CC(=O)C1=CC=N/C1=C/c1ccc(Cl)cc1 (nonaromatic ring conformer: 60.152590361250255 kcal/mol)

>  <smiles>  (21) 
CC(=O)C1=CC=NC1=Cc1ccc(Cl)cc1

>  <score_type>  (21) 
oracle

>  <origin>  (21) 
adg

>  <m_score__min__energy>  (21) 
-7.2199999999999998

>  <m_primary>  (21) 
energy

$$$$
21:0
     RDKit          3D

 57 61  0  0  0  0  0  0  0  0999 V2000
   58.5127   31.4706   45.0828 H   0  0  0  0  0  0  0  0  0  0  0  0
   58.2630   30.4050   45.1930 C   0  0  0  0  0  0  0  0  0  0  0  0
   57.6669   29.8970   44.4206 H   0  0  0  0  0  0  0  0  0  0  0  0
   58.6860   29.7240   46.2710 C   0  0  0  0  0  0  0  0  0  0  0  0
   58.4490   28.3700   46.5500 C   0  0  0  0  0  0  0  0  0  0  0  0
   57.7260   27.5070   45.8040 C   0  0  0  0  0  0  0  0  0  0  0  0
   57.5144   27.8001   44.7651 H   0  0  0  0  0  0  0  0  0  0  0  0
   57.1920   26.2020   46.2570 C   0  0  0  0  0  0  0  0  0  0  0  0
   57.9160   25.1470   46.6700 N   0  0  0  0  0  0  0  0  0  0  0  0
   56.9830   24.2210   46.9790 C   0  0  0  0  0  0  0  0  0  0  0  0
   57.2800   23.0760   47.4100 O   0  0  0  0  0  0  0  0  0  0  0  0
   55.7070   24.6200   46.7910 N   0  0  0  0  0  0  0  0  0  0  0  0
   55.8570   25.8740   46.3360 C   0  0  0  0  0  0  0  0  0  0  0  0
   54.7950   26.7020   45.9990 O   0  0  0  0  0  0  0  0  0  0  0  0
   59.1190   28.1030   47.7400 C   0  0  0  0  0  0  0  0  0  0  0  0
   59.1657   27.1366   48.2633 H   0  0  0  0  0  0  0  0  0  0  0  0
   59.7140   29.2840   48.1380 C   0  0  0  0  0  0  0  0  0  0  0  0
   60.5730   29.4310   49.3570 C   0  0  0  0  0  0  0  0  0  0  0  0
   59.9516   29.3247   50.2584 H   0  0  0  0  0  0  0  0  0  0  0  0
   61.3505   28.6528   49.3537 H   0  0  0  0  0  0  0  0  0  0  0  0
   61.0475   30.4234   49.3537 H   0  0  0  0  0  0  0  0  0  0  0  0
   59.4570   30.2660   47.2480 N   0  0  0  0  0  0  0  0  0  0  0  0
   59.9260   31.6230   47.3360 C   0  0  0  0  0  0  0  0  0  0  0  0
   61.2680   31.8820   47.6480 C   0  0  0  0  0  0  0  0  0  0  0  0
   61.9609   31.0445   47.8165 H   0  0  0  0  0  0  0  0  0  0  0  0
   61.7340   33.2030   47.7470 C   0  0  0  0  0  0  0  0  0  0  0  0
   63.1530   33.4790   48.0640 C   0  0  0  0  0  0  0  0  0  0  0  0
   63.8670   34.0700   47.2090 O   0  0  0  0  0  0  0  0  0  0  0  0
   63.7250   33.1080   49.3330 N   0  0  0  0  0  0  0  0  0  0  0  0
   65.1380   32.7160   49.4250 C   0  0  0  0  0  0  0  0  0  0  0  0
   65.1995   31.6654   49.7451 H   0  0  0  0  0  0  0  0  0  0  0  0
   65.6023   32.8462   48.4363 H   0  0  0  0  0  0  0  0  0  0  0  0
   65.8940   33.5990   50.4430 C   0  0  0  0  0  0  0  0  0  0  0  0
   66.5999   32.9662   51.0010 H   0  0  0  0  0  0  0  0  0  0  0  0
   66.4118   34.3873   49.8769 H   0  0  0  0  0  0  0  0  0  0  0  0
   64.9910   34.2640   51.4080 N   0  0  0  0  0  0  0  0  0  0  0  0
   65.7730   34.8740   52.5170 C   0  0  0  0  0  0  0  0  0  0  0  0
   65.4828   34.1433   53.2863 H   0  0  0  0  0  0  0  0  0  0  0  0
   67.1920   35.2320   52.1380 C   0  0  0  0  0  0  0  0  0  0  0  0
   67.9471   34.8078   52.8162 H   0  0  0  0  0  0  0  0  0  0  0  0
   67.5863   34.8912   51.1693 H   0  0  0  0  0  0  0  0  0  0  0  0
   66.9690   36.6090   52.3370 O   0  0  0  0  0  0  0  0  0  0  0  0
   65.6360   36.3700   52.7300 C   0  0  0  0  0  0  0  0  0  0  0  0
   65.4291   36.6481   53.7740 H   0  0  0  0  0  0  0  0  0  0  0  0
   64.8236   36.9103   52.2220 H   0  0  0  0  0  0  0  0  0  0  0  0
   63.8610   33.3850   51.7820 C   0  0  0  0  0  0  0  0  0  0  0  0
   64.2409   32.3954   52.0758 H   0  0  0  0  0  0  0  0  0  0  0  0
   63.3093   33.8169   52.6300 H   0  0  0  0  0  0  0  0  0  0  0  0
   62.9390   33.2460   50.5690 C   0  0  0  0  0  0  0  0  0  0  0  0
   62.3063   32.3552   50.6962 H   0  0  0  0  0  0  0  0  0  0  0  0
   62.3151   34.1488   50.4930 H   0  0  0  0  0  0  0  0  0  0  0  0
   60.8480   34.2640   47.5050 C   0  0  0  0  0  0  0  0  0  0  0  0
   61.2102   35.3015   47.5541 H   0  0  0  0  0  0  0  0  0  0  0  0
   59.5080   34.0090   47.2020 C   0  0  0  0  0  0  0  0  0  0  0  0
   58.8168   34.8461   47.0244 H   0  0  0  0  0  0  0  0  0  0  0  0
   59.0440   32.6940   47.1240 C   0  0  0  0  0  0  0  0  0  0  0  0
   57.7350   32.4610   46.8480 F   0  0  0  0  0  0  0  0  0  0  0  0
  1  2  1  0
  2  3  1  0
  2  4  2  0
  4  5  1  0
  5  6  2  0
  6  7  1  0
  6  8  1  0
  8  9  1  0
  9 10  1  0
 10 11  2  0
 10 12  1  0
 12 13  1  0
 13 14  1  0
  5 15  1  0
 15 16  1  0
 15 17  2  0
 17 18  1  0
 18 19  1  0
 18 20  1  0
 18 21  1  0
 17 22  1  0
 22 23  1  0
 23 24  2  0
 24 25  1  0
 24 26  1  0
 26 27  1  0
 27 28  2  0
 27 29  1  0
 29 30  1  0
 30 31  1  0
 30 32  1  0
 30 33  1  0
 33 34  1  0
 33 35  1  0
 33 36  1  0
 36 37  1  0
 37 38  1  0
 37 39  1  0
 39 40  1  0
 39 41  1  0
 39 42  1  0
 42 43  1  0
 43 44  1  0
 43 45  1  0
 36 46  1  0
 46 47  1  0
 46 48  1  0
 46 49  1  0
 49 50  1  0
 49 51  1  0
 26 52  2  0
 52 53  1  0
 52 54  1  0
 54 55  1  0
 54 56  2  0
 56 57  1  0
 22  4  1  0
 56 23  1  0
 13  8  2  0
 49 29  1  0
 43 37  1  0
M  CHG  3   9  -1  12  -1  14  -1
M  END
>  <UniqueID>  (22) 
20

>  <SMILES>  (22) 
C=c1/c(=C/c2[n-]c(=O)[n-]c2[O-])cc(C)n1-c1cc(C(=O)N2CCN(C3COC3)CC2)ccc1F

>  <Energy>  (22) 
211.2189338036026

>  <Genealogy>  (22) 
C=c1c(=Cc2[n-]c(=O)[n-]c2[O-])cc(C)n1-c1cc(C(=O)N2CCN(C3COC3)CC2)ccc1F (protonated)
C=c1/c(=C/c2[n-]c(=O)[n-]c2[O-])cc(C)n1-c1cc(C(=O)N2CCN(C3COC3)CC2)ccc1F (cis-trans isomerization)
C=c1/c(=C/c2[n-]c(=O)[n-]c2[O-])cc(C)n1-c1cc(C(=O)N2CCN(C3COC3)CC2)ccc1F (3D coordinates assigned)
C=c1/c(=C/c2[n-]c(=O)[n-]c2[O-])cc(C)n1-c1cc(C(=O)N2CCN(C3COC3)CC2)ccc1F (nonaromatic ring conformer: 211.2189338036026 kcal/mol)

>  <smiles>  (22) 
C=c1c(=Cc2[nH]c(=O)[nH]c2O)cc(C)n1-c1cc(C(=O)N2CCN(C3COC3)CC2)ccc1F

>  <score_type>  (22) 
oracle

>  <origin>  (22) 
adg

>  <m_score__min__energy>  (22) 
-17.690000000000001

>  <m_primary>  (22) 
energy

$$$$
22:0
     RDKit          3D

 41 43  0  0  0  0  0  0  0  0999 V2000
   58.1160   32.5860   41.9950 C   0  0  0  0  0  0  0  0  0  0  0  0
   58.2430   32.7070   43.3270 C   0  0  0  0  0  0  0  0  0  0  0  0
   58.7350   33.8870   43.7760 N   0  0  0  0  0  0  0  0  0  0  0  0
   58.9630   34.1410   45.0810 C   0  0  0  0  0  0  0  0  0  0  0  0
   59.4260   35.2670   45.4070 O   0  0  0  0  0  0  0  0  0  0  0  0
   58.6870   33.1920   46.0260 N   0  0  0  0  0  0  0  0  0  0  0  0
   58.8950   33.4910   47.4600 C   0  0  0  0  0  0  0  0  0  0  0  0
   59.8310   32.4660   48.1200 C   0  0  0  0  0  0  0  0  0  0  0  0
   61.2800   32.8220   47.9200 C   0  0  0  0  0  0  0  0  0  0  0  0
   61.6860   33.5280   46.7740 C   0  0  0  0  0  0  0  0  0  0  0  0
   63.0390   33.8170   46.5670 C   0  0  0  0  0  0  0  0  0  0  0  0
   63.9930   33.4010   47.4990 C   0  0  0  0  0  0  0  0  0  0  0  0
   63.5980   32.6930   48.6380 C   0  0  0  0  0  0  0  0  0  0  0  0
   62.2480   32.4000   48.8470 C   0  0  0  0  0  0  0  0  0  0  0  0
   58.1610   31.9830   45.6470 C   0  0  0  0  0  0  0  0  0  0  0  0
   57.8290   31.1570   46.5440 O   0  0  0  0  0  0  0  0  0  0  0  0
   57.9400   31.6750   44.2700 C   0  0  0  0  0  0  0  0  0  0  0  0
   57.4180   30.4760   43.8720 C   0  0  0  0  0  0  0  0  0  0  0  0
   57.4590   29.2120   44.6350 C   0  0  0  0  0  0  0  0  0  0  0  0
   58.6850   28.5960   44.9400 C   0  0  0  0  0  0  0  0  0  0  0  0
   58.7080   27.3720   45.6160 C   0  0  0  0  0  0  0  0  0  0  0  0
   57.5110   26.7460   45.9720 C   0  0  0  0  0  0  0  0  0  0  0  0
   56.2860   27.3380   45.6440 C   0  0  0  0  0  0  0  0  0  0  0  0
   55.0970   26.7080   45.9880 O   0  0  0  0  0  0  0  0  0  0  0  0
   56.2600   28.5620   44.9680 C   0  0  0  0  0  0  0  0  0  0  0  0
   57.7228   31.6542   41.5624 H   0  0  0  0  0  0  0  0  0  0  0  0
   58.4052   33.4187   41.3370 H   0  0  0  0  0  0  0  0  0  0  0  0
   59.3385   34.4931   47.5553 H   0  0  0  0  0  0  0  0  0  0  0  0
   57.9199   33.4440   47.9669 H   0  0  0  0  0  0  0  0  0  0  0  0
   59.6182   32.4324   49.1987 H   0  0  0  0  0  0  0  0  0  0  0  0
   59.6515   31.4874   47.6509 H   0  0  0  0  0  0  0  0  0  0  0  0
   60.9370   33.8543   46.0374 H   0  0  0  0  0  0  0  0  0  0  0  0
   63.3518   34.3719   45.6702 H   0  0  0  0  0  0  0  0  0  0  0  0
   65.0564   33.6308   47.3364 H   0  0  0  0  0  0  0  0  0  0  0  0
   64.3509   32.3663   49.3704 H   0  0  0  0  0  0  0  0  0  0  0  0
   61.9417   31.8367   49.7408 H   0  0  0  0  0  0  0  0  0  0  0  0
   56.9206   30.4501   42.8912 H   0  0  0  0  0  0  0  0  0  0  0  0
   59.6291   29.0781   44.6461 H   0  0  0  0  0  0  0  0  0  0  0  0
   59.6699   26.9015   45.8677 H   0  0  0  0  0  0  0  0  0  0  0  0
   57.5313   25.7871   46.5105 H   0  0  0  0  0  0  0  0  0  0  0  0
   55.2963   29.0173   44.6961 H   0  0  0  0  0  0  0  0  0  0  0  0
  1  2  2  0
  2  3  1  0
  3  4  1  0
  4  5  2  0
  4  6  1  0
  6  7  1  0
  7  8  1  0
  8  9  1  0
  9 10  2  0
 10 11  1  0
 11 12  2  0
 12 13  1  0
 13 14  2  0
  6 15  1  0
 15 16  2  0
 15 17  1  0
 17 18  2  3
 18 19  1  0
 19 20  2  0
 20 21  1  0
 21 22  2  0
 22 23  1  0
 23 24  1  0
 23 25  2  0
 17  2  1  0
 25 19  1  0
 14  9  1  0
  1 26  1  0
  1 27  1  0
  7 28  1  0
  7 29  1  0
  8 30  1  0
  8 31  1  0
 10 32  1  0
 11 33  1  0
 12 34  1  0
 13 35  1  0
 14 36  1  0
 18 37  1  0
 20 38  1  0
 21 39  1  0
 22 40  1  0
 25 41  1  0
M  CHG  2   3  -1  24  -1
M  END
>  <UniqueID>  (23) 
21

>  <SMILES>  (23) 
C=c1[n-]c(=O)n(CCc2ccccc2)c(=O)c1=Cc1cccc([O-])c1

>  <Energy>  (23) 
65.4312337003256

>  <Genealogy>  (23) 
C=c1[n-]c(=O)n(CCc2ccccc2)c(=O)c1=Cc1cccc([O-])c1 (protonated)
C=c1[n-]c(=O)n(CCc2ccccc2)c(=O)c1=Cc1cccc([O-])c1 (3D coordinates assigned)
C=c1[n-]c(=O)n(CCc2ccccc2)c(=O)c1=Cc1cccc([O-])c1 (optimized conformer: 65.4312337003256 kcal/mol)

>  <smiles>  (23) 
C=c1[nH]c(=O)n(CCc2ccccc2)c(=O)c1=Cc1cccc(O)c1

>  <score_type>  (23) 
oracle

>  <origin>  (23) 
adg

>  <m_score__min__energy>  (23) 
-14.01

>  <m_primary>  (23) 
energy

$$$$
23:0
     RDKit          3D

 46 48  0  0  0  0  0  0  0  0999 V2000
   57.5890   33.7920   47.0510 N   0  0  0  0  0  0  0  0  0  0  0  0
   58.1250   33.8190   45.7250 C   0  0  0  0  0  0  0  0  0  0  0  0
   58.8980   34.7600   45.3980 O   0  0  0  0  0  0  0  0  0  0  0  0
   57.7820   32.7650   44.7480 C   0  0  0  0  0  0  0  0  0  0  0  0
   58.0190   32.9420   43.3760 C   0  0  0  0  0  0  0  0  0  0  0  0
   57.6940   31.9170   42.4830 C   0  0  0  0  0  0  0  0  0  0  0  0
   57.9180   32.0570   41.2520 O   0  0  0  0  0  0  0  0  0  0  0  0
   57.1270   30.7330   42.9610 C   0  0  0  0  0  0  0  0  0  0  0  0
   56.8770   30.5950   44.3330 C   0  0  0  0  0  0  0  0  0  0  0  0
   56.3000   29.3570   44.8820 C   0  0  0  0  0  0  0  0  0  0  0  0
   55.1600   28.9940   44.4900 O   0  0  0  0  0  0  0  0  0  0  0  0
   56.9980   28.5360   45.8270 N   0  0  0  0  0  0  0  0  0  0  0  0
   58.0380   27.5510   45.5160 C   0  0  0  0  0  0  0  0  0  0  0  0
   59.0720   28.1730   44.5510 C   0  0  0  0  0  0  0  0  0  0  0  0
   60.4090   28.5270   45.2320 C   0  0  0  0  0  0  0  0  0  0  0  0
   60.2290   29.0910   46.5900 N   0  0  0  0  0  0  0  0  0  0  0  0
   59.7050   30.4760   46.5780 C   0  0  0  0  0  0  0  0  0  0  0  0
   60.6740   31.4260   47.2320 C   0  0  0  0  0  0  0  0  0  0  0  0
   60.2080   32.5520   47.9340 C   0  0  0  0  0  0  0  0  0  0  0  0
   61.1150   33.4370   48.5240 C   0  0  0  0  0  0  0  0  0  0  0  0
   62.4890   33.2070   48.4170 C   0  0  0  0  0  0  0  0  0  0  0  0
   62.9600   32.0920   47.7190 C   0  0  0  0  0  0  0  0  0  0  0  0
   62.0560   31.2030   47.1270 C   0  0  0  0  0  0  0  0  0  0  0  0
   59.4720   28.1990   47.5100 C   0  0  0  0  0  0  0  0  0  0  0  0
   58.7150   27.0570   46.8030 C   0  0  0  0  0  0  0  0  0  0  0  0
   57.2260   31.5990   45.1820 N   0  0  0  0  0  0  0  0  0  0  0  0
   56.9440   33.0320   47.3610 H   0  0  0  0  0  0  0  0  0  0  0  0
   57.8380   34.5430   47.7320 H   0  0  0  0  0  0  0  0  0  0  0  0
   58.4574   33.8806   43.0061 H   0  0  0  0  0  0  0  0  0  0  0  0
   56.8791   29.9166   42.2668 H   0  0  0  0  0  0  0  0  0  0  0  0
   57.5758   26.6821   45.0248 H   0  0  0  0  0  0  0  0  0  0  0  0
   59.2718   27.4537   43.7431 H   0  0  0  0  0  0  0  0  0  0  0  0
   58.6407   29.1121   44.1741 H   0  0  0  0  0  0  0  0  0  0  0  0
   61.0173   27.6137   45.3084 H   0  0  0  0  0  0  0  0  0  0  0  0
   60.9014   29.2945   44.6168 H   0  0  0  0  0  0  0  0  0  0  0  0
   59.5415   30.7896   45.5364 H   0  0  0  0  0  0  0  0  0  0  0  0
   58.7598   30.4977   47.1402 H   0  0  0  0  0  0  0  0  0  0  0  0
   59.1270   32.7368   48.0190 H   0  0  0  0  0  0  0  0  0  0  0  0
   60.7465   34.3158   49.0734 H   0  0  0  0  0  0  0  0  0  0  0  0
   63.2007   33.9045   48.8828 H   0  0  0  0  0  0  0  0  0  0  0  0
   64.0421   31.9129   47.6348 H   0  0  0  0  0  0  0  0  0  0  0  0
   62.4296   30.3264   46.5774 H   0  0  0  0  0  0  0  0  0  0  0  0
   60.1833   27.7531   48.2208 H   0  0  0  0  0  0  0  0  0  0  0  0
   58.7125   28.8242   48.0022 H   0  0  0  0  0  0  0  0  0  0  0  0
   59.4271   26.2578   46.5496 H   0  0  0  0  0  0  0  0  0  0  0  0
   57.9364   26.6822   47.4837 H   0  0  0  0  0  0  0  0  0  0  0  0
  1  2  1  0
  2  3  2  0
  2  4  1  0
  4  5  2  0
  5  6  1  0
  6  7  2  0
  6  8  1  0
  8  9  2  0
  9 10  1  0
 10 11  2  0
 10 12  1  0
 12 13  1  0
 13 14  1  0
 14 15  1  0
 15 16  1  0
 16 17  1  0
 17 18  1  0
 18 19  2  0
 19 20  1  0
 20 21  2  0
 21 22  1  0
 22 23  2  0
 16 24  1  0
 24 25  1  0
  9 26  1  0
 26  4  1  0
 25 13  1  0
 23 18  1  0
  1 27  1  0
  1 28  1  0
  5 29  1  0
  8 30  1  0
 13 31  1  0
 14 32  1  0
 14 33  1  0
 15 34  1  0
 15 35  1  0
 17 36  1  0
 17 37  1  0
 19 38  1  0
 20 39  1  0
 21 40  1  0
 22 41  1  0
 23 42  1  0
 24 43  1  0
 24 44  1  0
 25 45  1  0
 25 46  1  0
M  CHG  2  12  -1  26  -1
M  END
>  <UniqueID>  (24) 
22

>  <SMILES>  (24) 
NC(=O)c1cc(=O)cc(C(=O)[N-]C2CCN(Cc3ccccc3)CC2)[n-]1

>  <Energy>  (24) 
60.934631300081264

>  <Genealogy>  (24) 
NC(=O)c1cc(=O)cc(C(=O)[N-]C2CCN(Cc3ccccc3)CC2)[n-]1 (protonated)
NC(=O)c1cc(=O)cc(C(=O)[N-]C2CCN(Cc3ccccc3)CC2)[n-]1 (3D coordinates assigned)
NC(=O)c1cc(=O)cc(C(=O)[N-]C2CCN(Cc3ccccc3)CC2)[n-]1 (nonaromatic ring conformer: 60.934631300081264 kcal/mol)

>  <smiles>  (24) 
NC(=O)c1cc(=O)cc(C(=O)NC2CCN(Cc3ccccc3)CC2)[nH]1

>  <score_type>  (24) 
oracle

>  <origin>  (24) 
adg

>  <m_score__min__energy>  (24) 
-11.98

>  <m_primary>  (24) 
energy

$$$$
24:0
     RDKit          3D

 60 63  0  0  0  0  0  0  0  0999 V2000
   61.3078   29.3339   47.4300 H   0  0  0  0  0  0  0  0  0  0  0  0
   60.6220   30.1930   47.4690 C   0  0  0  0  0  0  0  0  0  0  0  0
   60.9310   31.2720   48.2330 N   0  0  0  0  0  0  0  0  0  0  0  0
   60.1050   32.3470   48.2980 C   0  0  0  0  0  0  0  0  0  0  0  0
   60.4370   33.3650   49.0330 N   0  0  0  0  0  0  0  0  0  0  0  0
   60.6800   33.2870   50.4700 C   0  0  0  0  0  0  0  0  0  0  0  0
   60.6829   34.3006   50.8973 H   0  0  0  0  0  0  0  0  0  0  0  0
   61.6544   32.8103   50.6527 H   0  0  0  0  0  0  0  0  0  0  0  0
   59.5960   32.4750   51.1150 C   0  0  0  0  0  0  0  0  0  0  0  0
   59.6980   31.0760   51.1680 C   0  0  0  0  0  0  0  0  0  0  0  0
   60.5901   30.5767   50.7619 H   0  0  0  0  0  0  0  0  0  0  0  0
   58.6720   30.3140   51.7340 C   0  0  0  0  0  0  0  0  0  0  0  0
   58.7613   29.2184   51.7744 H   0  0  0  0  0  0  0  0  0  0  0  0
   57.5280   30.9420   52.2510 C   0  0  0  0  0  0  0  0  0  0  0  0
   56.4160   30.1130   52.8400 C   0  0  0  0  0  0  0  0  0  0  0  0
   55.9578   30.6629   53.6753 H   0  0  0  0  0  0  0  0  0  0  0  0
   56.8333   29.1600   53.1973 H   0  0  0  0  0  0  0  0  0  0  0  0
   55.4290   29.8430   51.8630 O   0  0  0  0  0  0  0  0  0  0  0  0
   54.3490   30.7420   51.9990 C   0  0  0  0  0  0  0  0  0  0  0  0
   54.1453   30.9116   53.0666 H   0  0  0  0  0  0  0  0  0  0  0  0
   54.6047   31.6977   51.5182 H   0  0  0  0  0  0  0  0  0  0  0  0
   53.4555   30.3172   51.5182 H   0  0  0  0  0  0  0  0  0  0  0  0
   57.4150   32.3380   52.1790 C   0  0  0  0  0  0  0  0  0  0  0  0
   56.5161   32.8356   52.5719 H   0  0  0  0  0  0  0  0  0  0  0  0
   58.4400   33.1000   51.6100 C   0  0  0  0  0  0  0  0  0  0  0  0
   58.3404   34.1938   51.5498 H   0  0  0  0  0  0  0  0  0  0  0  0
   58.9480   32.3490   47.5850 N   0  0  0  0  0  0  0  0  0  0  0  0
   58.5940   31.2990   46.7970 C   0  0  0  0  0  0  0  0  0  0  0  0
   57.4070   31.3440   46.0540 O   0  0  0  0  0  0  0  0  0  0  0  0
   57.3740   31.4470   44.6590 C   0  0  0  0  0  0  0  0  0  0  0  0
   56.7100   30.4510   43.9330 C   0  0  0  0  0  0  0  0  0  0  0  0
   56.2527   29.6016   44.4616 H   0  0  0  0  0  0  0  0  0  0  0  0
   56.6250   30.5300   42.5410 C   0  0  0  0  0  0  0  0  0  0  0  0
   56.0963   29.7470   41.9777 H   0  0  0  0  0  0  0  0  0  0  0  0
   57.2100   31.6010   41.8640 C   0  0  0  0  0  0  0  0  0  0  0  0
   57.1291   31.6689   40.7691 H   0  0  0  0  0  0  0  0  0  0  0  0
   57.8990   32.5880   42.5760 C   0  0  0  0  0  0  0  0  0  0  0  0
   58.3572   33.4305   42.0373 H   0  0  0  0  0  0  0  0  0  0  0  0
   58.0100   32.5110   43.9740 C   0  0  0  0  0  0  0  0  0  0  0  0
   58.7910   33.5670   44.7070 C   0  0  0  0  0  0  0  0  0  0  0  0
   58.6809   33.4181   45.7913 H   0  0  0  0  0  0  0  0  0  0  0  0
   59.8538   33.4935   44.4329 H   0  0  0  0  0  0  0  0  0  0  0  0
   58.4095   34.5617   44.4329 H   0  0  0  0  0  0  0  0  0  0  0  0
   59.4300   30.1710   46.7290 C   0  0  0  0  0  0  0  0  0  0  0  0
   59.0860   28.9920   45.8960 C   0  0  0  0  0  0  0  0  0  0  0  0
   59.4630   28.9450   44.5430 C   0  0  0  0  0  0  0  0  0  0  0  0
   60.0246   29.7816   44.1018 H   0  0  0  0  0  0  0  0  0  0  0  0
   59.1280   27.8410   43.7560 C   0  0  0  0  0  0  0  0  0  0  0  0
   59.4238   27.8134   42.6969 H   0  0  0  0  0  0  0  0  0  0  0  0
   58.4190   26.7720   44.3080 C   0  0  0  0  0  0  0  0  0  0  0  0
   58.1507   25.9084   43.6817 H   0  0  0  0  0  0  0  0  0  0  0  0
   58.0490   26.7990   45.6600 C   0  0  0  0  0  0  0  0  0  0  0  0
   57.1470   25.4660   46.3710 S   0  0  0  0  0  0  0  0  0  0  0  0
   57.6140   24.1570   45.7980 O   0  0  0  0  0  0  0  0  0  0  0  0
   57.3660   25.4500   47.8580 O   0  0  0  0  0  0  0  0  0  0  0  0
   55.4640   25.6680   46.0300 N   0  0  0  0  0  0  0  0  0  0  0  0
   55.3950   26.1600   45.1100 H   0  0  0  0  0  0  0  0  0  0  0  0
   55.0820   26.3200   46.7500 H   0  0  0  0  0  0  0  0  0  0  0  0
   58.3850   27.9060   46.4500 C   0  0  0  0  0  0  0  0  0  0  0  0
   58.0983   27.9259   47.5118 H   0  0  0  0  0  0  0  0  0  0  0  0
  1  2  1  0
  2  3  1  0
  3  4  1  0
  4  5  2  0
  5  6  1  0
  6  7  1  0
  6  8  1  0
  6  9  1  0
  9 10  2  0
 10 11  1  0
 10 12  1  0
 12 13  1  0
 12 14  2  0
 14 15  1  0
 15 16  1  0
 15 17  1  0
 15 18  1  0
 18 19  1  0
 19 20  1  0
 19 21  1  0
 19 22  1  0
 14 23  1  0
 23 24  1  0
 23 25  2  0
 25 26  1  0
  4 27  1  0
 27 28  2  0
 28 29  1  0
 29 30  1  0
 30 31  2  0
 31 32  1  0
 31 33  1  0
 33 34  1  0
 33 35  2  0
 35 36  1  0
 35 37  1  0
 37 38  1  0
 37 39  2  0
 39 40  1  0
 40 41  1  0
 40 42  1  0
 40 43  1  0
 28 44  1  0
 44 45  1  0
 45 46  2  0
 46 47  1  0
 46 48  1  0
 48 49  1  0
 48 50  2  0
 50 51  1  0
 50 52  1  0
 52 53  1  0
 53 54  2  0
 53 55  2  0
 53 56  1  0
 56 57  1  0
 56 58  1  0
 52 59  2  0
 59 60  1  0
 44  2  2  0
 59 45  1  0
 25  9  1  0
 39 30  1  0
M  CHG  1   3  -1
M  END
>  <UniqueID>  (25) 
23

>  <SMILES>  (25) 
COCc1ccc(C/N=c2\nc(Oc3ccccc3C)c(-c3cccc(S(N)(=O)=O)c3)c[n-]2)cc1

>  <Energy>  (25) 
75.295578791036

>  <Genealogy>  (25) 
COCc1ccc(CN=c2nc(Oc3ccccc3C)c(-c3cccc(S(N)(=O)=O)c3)c[n-]2)cc1 (protonated)
COCc1ccc(C/N=c2\nc(Oc3ccccc3C)c(-c3cccc(S(N)(=O)=O)c3)c[n-]2)cc1 (cis-trans isomerization)
COCc1ccc(C/N=c2\nc(Oc3ccccc3C)c(-c3cccc(S(N)(=O)=O)c3)c[n-]2)cc1 (3D coordinates assigned)
COCc1ccc(C/N=c2\nc(Oc3ccccc3C)c(-c3cccc(S(N)(=O)=O)c3)c[n-]2)cc1 (optimized conformer: 75.295578791036 kcal/mol)

>  <smiles>  (25) 
COCc1ccc(CN=c2nc(Oc3ccccc3C)c(-c3cccc(S(N)(=O)=O)c3)c[nH]2)cc1

>  <score_type>  (25) 
oracle

>  <origin>  (25) 
adg

>  <m_score__min__energy>  (25) 
-10.960000000000001

>  <m_primary>  (25) 
energy

$$$$
25:0
     RDKit          3D

 97103  0  0  0  0  0  0  0  0999 V2000
   62.2310   33.6020   53.7860 C   0  0  0  0  0  0  0  0  0  0  0  0
   61.4360   32.3200   53.8930 C   0  0  0  0  0  0  0  0  0  0  0  0
   60.6350   32.2220   54.8630 O   0  0  0  0  0  0  0  0  0  0  0  0
   61.5580   31.2360   52.9310 N   0  0  0  0  0  0  0  0  0  0  0  0
   60.5870   30.1300   52.9800 C   0  0  0  0  0  0  0  0  0  0  0  0
   61.1390   28.8600   52.3010 C   0  0  0  0  0  0  0  0  0  0  0  0
   61.6850   29.2190   50.9890 N   0  0  0  0  0  0  0  0  0  0  0  0
   60.9460   28.9970   49.7620 C   0  0  0  0  0  0  0  0  0  0  0  0
   60.7440   27.6930   49.3020 C   0  0  0  0  0  0  0  0  0  0  0  0
   60.1540   27.4790   48.0620 C   0  0  0  0  0  0  0  0  0  0  0  0
   59.7050   28.5650   47.3040 C   0  0  0  0  0  0  0  0  0  0  0  0
   59.1750   28.3680   46.0240 O   0  0  0  0  0  0  0  0  0  0  0  0
   58.1400   29.1740   45.5330 C   0  0  0  0  0  0  0  0  0  0  0  0
   56.9050   28.6050   45.2100 C   0  0  0  0  0  0  0  0  0  0  0  0
   55.9040   29.4110   44.6580 C   0  0  0  0  0  0  0  0  0  0  0  0
   56.1230   30.7460   44.4920 N   0  0  0  0  0  0  0  0  0  0  0  0
   57.3070   31.3320   44.8380 C   0  0  0  0  0  0  0  0  0  0  0  0
   57.4950   32.6140   44.7140 N   0  0  0  0  0  0  0  0  0  0  0  0
   58.0990   33.4810   45.6800 C   0  0  0  0  0  0  0  0  0  0  0  0
   58.2790   34.6950   45.3840 O   0  0  0  0  0  0  0  0  0  0  0  0
   58.3630   33.0110   47.0870 C   0  0  0  0  0  0  0  0  0  0  0  0
   59.7750   33.2270   47.5900 C   0  0  0  0  0  0  0  0  0  0  0  0
   60.8490   33.3610   46.6900 C   0  0  0  0  0  0  0  0  0  0  0  0
   62.1380   33.6320   47.1370 C   0  0  0  0  0  0  0  0  0  0  0  0
   62.3710   33.8200   48.4970 C   0  0  0  0  0  0  0  0  0  0  0  0
   61.3240   33.6990   49.4210 C   0  0  0  0  0  0  0  0  0  0  0  0
   60.0180   33.3990   48.9840 C   0  0  0  0  0  0  0  0  0  0  0  0
   58.9250   33.2080   49.9150 N   0  0  0  0  0  0  0  0  0  0  0  0
   58.9400   33.1450   51.3460 C   0  0  0  0  0  0  0  0  0  0  0  0
   59.6630   33.9280   52.0150 O   0  0  0  0  0  0  0  0  0  0  0  0
   58.0730   32.1490   52.0310 C   0  0  0  0  0  0  0  0  0  0  0  0
   58.0850   32.0560   53.4340 C   0  0  0  0  0  0  0  0  0  0  0  0
   57.1850   31.2240   54.1030 C   0  0  0  0  0  0  0  0  0  0  0  0
   56.2640   30.4550   53.3820 C   0  0  0  0  0  0  0  0  0  0  0  0
   55.3130   29.6330   54.0770 N   0  0  0  0  0  0  0  0  0  0  0  0
   55.2200   28.1990   53.8010 C   0  0  0  0  0  0  0  0  0  0  0  0
   53.7410   27.7990   53.7400 C   0  0  0  0  0  0  0  0  0  0  0  0
   52.9330   28.3110   54.8900 N   0  0  0  0  0  0  0  0  0  0  0  0
   51.7140   29.0090   54.4450 C   0  0  0  0  0  0  0  0  0  0  0  0
   51.9220   29.6530   53.1050 C   0  0  0  0  0  0  0  0  0  0  0  0
   52.3860   30.9740   53.0160 C   0  0  0  0  0  0  0  0  0  0  0  0
   52.5710   31.5750   51.7620 C   0  0  0  0  0  0  0  0  0  0  0  0
   52.2760   30.8740   50.5990 C   0  0  0  0  0  0  0  0  0  0  0  0
   51.8260   29.5570   50.6770 C   0  0  0  0  0  0  0  0  0  0  0  0
   51.6520   28.9380   51.9180 C   0  0  0  0  0  0  0  0  0  0  0  0
   53.6870   29.1200   55.8740 C   0  0  0  0  0  0  0  0  0  0  0  0
   54.5370   30.1990   55.2010 C   0  0  0  0  0  0  0  0  0  0  0  0
   56.2680   30.5070   51.9790 C   0  0  0  0  0  0  0  0  0  0  0  0
   57.1740   31.3420   51.3100 C   0  0  0  0  0  0  0  0  0  0  0  0
   58.3300   30.5490   45.3620 C   0  0  0  0  0  0  0  0  0  0  0  0
   59.8210   29.8540   47.8310 C   0  0  0  0  0  0  0  0  0  0  0  0
   60.4440   30.0470   49.0300 N   0  0  0  0  0  0  0  0  0  0  0  0
   62.7920   30.1830   51.0330 C   0  0  0  0  0  0  0  0  0  0  0  0
   62.2920   31.4850   51.6640 C   0  0  0  0  0  0  0  0  0  0  0  0
   62.4624   33.9752   54.7945 H   0  0  0  0  0  0  0  0  0  0  0  0
   63.1677   33.4083   53.2428 H   0  0  0  0  0  0  0  0  0  0  0  0
   61.6411   34.3550   53.2428 H   0  0  0  0  0  0  0  0  0  0  0  0
   60.3583   29.9020   54.0315 H   0  0  0  0  0  0  0  0  0  0  0  0
   59.6812   30.4430   52.4401 H   0  0  0  0  0  0  0  0  0  0  0  0
   61.9336   28.4243   52.9244 H   0  0  0  0  0  0  0  0  0  0  0  0
   60.3314   28.1233   52.1784 H   0  0  0  0  0  0  0  0  0  0  0  0
   61.0516   26.8370   49.9206 H   0  0  0  0  0  0  0  0  0  0  0  0
   60.0402   26.4550   47.6767 H   0  0  0  0  0  0  0  0  0  0  0  0
   56.7222   27.5350   45.3880 H   0  0  0  0  0  0  0  0  0  0  0  0
   54.9424   28.9686   44.3586 H   0  0  0  0  0  0  0  0  0  0  0  0
   57.6776   33.5487   47.7586 H   0  0  0  0  0  0  0  0  0  0  0  0
   58.2083   31.9220   47.0767 H   0  0  0  0  0  0  0  0  0  0  0  0
   60.6652   33.2491   45.6113 H   0  0  0  0  0  0  0  0  0  0  0  0
   62.9693   33.6975   46.4197 H   0  0  0  0  0  0  0  0  0  0  0  0
   63.3840   34.0652   48.8487 H   0  0  0  0  0  0  0  0  0  0  0  0
   61.5228   33.8390   50.4938 H   0  0  0  0  0  0  0  0  0  0  0  0
   58.8121   32.6458   54.0115 H   0  0  0  0  0  0  0  0  0  0  0  0
   57.1998   31.1726   55.2017 H   0  0  0  0  0  0  0  0  0  0  0  0
   55.7026   27.9764   52.8379 H   0  0  0  0  0  0  0  0  0  0  0  0
   55.7263   27.6330   54.5969 H   0  0  0  0  0  0  0  0  0  0  0  0
   53.3114   28.1971   52.8089 H   0  0  0  0  0  0  0  0  0  0  0  0
   53.7025   26.7005   53.7831 H   0  0  0  0  0  0  0  0  0  0  0  0
   50.8905   28.2835   54.3715 H   0  0  0  0  0  0  0  0  0  0  0  0
   51.4721   29.7934   55.1772 H   0  0  0  0  0  0  0  0  0  0  0  0
   52.6056   31.5406   53.9329 H   0  0  0  0  0  0  0  0  0  0  0  0
   52.9511   32.6053   51.6991 H   0  0  0  0  0  0  0  0  0  0  0  0
   52.3974   31.3576   49.6185 H   0  0  0  0  0  0  0  0  0  0  0  0
   51.6060   29.0002   49.7542 H   0  0  0  0  0  0  0  0  0  0  0  0
   51.3052   27.8954   51.9697 H   0  0  0  0  0  0  0  0  0  0  0  0
   52.9731   29.6050   56.5560 H   0  0  0  0  0  0  0  0  0  0  0  0
   54.3644   28.4459   56.4188 H   0  0  0  0  0  0  0  0  0  0  0  0
   53.8769   30.9921   54.8199 H   0  0  0  0  0  0  0  0  0  0  0  0
   55.2390   30.6076   55.9428 H   0  0  0  0  0  0  0  0  0  0  0  0
   55.5598   29.8922   51.4042 H   0  0  0  0  0  0  0  0  0  0  0  0
   57.1820   31.3664   50.2103 H   0  0  0  0  0  0  0  0  0  0  0  0
   59.2882   31.0110   45.6419 H   0  0  0  0  0  0  0  0  0  0  0  0
   59.4104   30.7128   47.2798 H   0  0  0  0  0  0  0  0  0  0  0  0
   60.5490   31.0370   49.3610 H   0  0  0  0  0  0  0  0  0  0  0  0
   63.6150   29.7726   51.6365 H   0  0  0  0  0  0  0  0  0  0  0  0
   63.1558   30.3790   50.0136 H   0  0  0  0  0  0  0  0  0  0  0  0
   63.1552   32.1337   51.8739 H   0  0  0  0  0  0  0  0  0  0  0  0
   61.6003   31.9651   50.9561 H   0  0  0  0  0  0  0  0  0  0  0  0
  1  2  1  0
  2  3  2  0
  2  4  1  0
  4  5  1  0
  5  6  1  0
  6  7  1  0
  7  8  1  0
  8  9  2  0
  9 10  1  0
 10 11  2  0
 11 12  1  0
 12 13  1  0
 13 14  1  0
 14 15  2  0
 15 16  1  0
 16 17  1  0
 17 18  2  3
 18 19  1  0
 19 20  2  0
 19 21  1  0
 21 22  1  0
 22 23  2  0
 23 24  1  0
 24 25  2  0
 25 26  1  0
 26 27  2  0
 27 28  1  0
 28 29  1  0
 29 30  2  0
 29 31  1  0
 31 32  2  0
 32 33  1  0
 33 34  2  0
 34 35  1  0
 35 36  1  0
 36 37  1  0
 37 38  1  0
 38 39  1  0
 39 40  1  0
 40 41  2  0
 41 42  1  0
 42 43  2  0
 43 44  1  0
 44 45  2  0
 38 46  1  0
 46 47  1  0
 34 48  1  0
 48 49  2  0
 17 50  1  0
 11 51  1  0
 51 52  2  0
  7 53  1  0
 53 54  1  0
 54  4  1  0
 52  8  1  0
 50 13  2  0
 27 22  1  0
 49 31  1  0
 47 35  1  0
 45 40  1  0
  1 55  1  0
  1 56  1  0
  1 57  1  0
  5 58  1  0
  5 59  1  0
  6 60  1  0
  6 61  1  0
  9 62  1  0
 10 63  1  0
 14 64  1  0
 15 65  1  0
 21 66  1  0
 21 67  1  0
 23 68  1  0
 24 69  1  0
 25 70  1  0
 26 71  1  0
 32 72  1  0
 33 73  1  0
 36 74  1  0
 36 75  1  0
 37 76  1  0
 37 77  1  0
 39 78  1  0
 39 79  1  0
 41 80  1  0
 42 81  1  0
 43 82  1  0
 44 83  1  0
 45 84  1  0
 46 85  1  0
 46 86  1  0
 47 87  1  0
 47 88  1  0
 48 89  1  0
 49 90  1  0
 50 91  1  0
 51 92  1  0
 52 93  1  0
 53 94  1  0
 53 95  1  0
 54 96  1  0
 54 97  1  0
M  CHG  3  16  -1  28  -1  52   1
M  END
>  <UniqueID>  (26) 
24

>  <SMILES>  (26) 
CC(=O)N1CCN(c2ccc(Oc3cc[n-]c(=NC(=O)Cc4ccccc4[N-]C(=O)c4ccc(N5CCN(Cc6ccccc6)CC5)cc4)c3)c[nH+]2)CC1

>  <Energy>  (26) 
146.35674845338738

>  <Genealogy>  (26) 
CC(=O)N1CCN(c2ccc(Oc3cc[n-]c(=NC(=O)Cc4ccccc4[N-]C(=O)c4ccc(N5CCN(Cc6ccccc6)CC5)cc4)c3)c[nH+]2)CC1 (protonated)
CC(=O)N1CCN(c2ccc(Oc3cc[n-]c(=NC(=O)Cc4ccccc4[N-]C(=O)c4ccc(N5CCN(Cc6ccccc6)CC5)cc4)c3)c[nH+]2)CC1 (3D coordinates assigned)
CC(=O)N1CCN(c2ccc(Oc3cc[n-]c(=NC(=O)Cc4ccccc4[N-]C(=O)c4ccc(N5CCN(Cc6ccccc6)CC5)cc4)c3)c[nH+]2)CC1 (nonaromatic ring conformer: 146.35674845338738 kcal/mol)

>  <smiles>  (26) 
CC(=O)N1CCN(c2ccc(Oc3cc[nH]c(=NC(=O)Cc4ccccc4NC(=O)c4ccc(N5CCN(Cc6ccccc6)CC5)cc4)c3)cn2)CC1

>  <score_type>  (26) 
oracle

>  <origin>  (26) 
adg

>  <m_score__min__energy>  (26) 
-11.74

>  <m_primary>  (26) 
energy

$$$$
26:0
     RDKit          3D

 48 49  0  0  0  0  0  0  0  0999 V2000
   50.1180   25.2560   43.2920 C   0  0  0  0  0  0  0  0  0  0  0  0
   50.8080   24.1440   43.5520 C   0  0  0  0  0  0  0  0  0  0  0  0
   51.5970   23.9930   44.8190 C   0  0  0  0  0  0  0  0  0  0  0  0
   52.6590   23.0180   44.6210 N   0  0  0  0  0  0  0  0  0  0  0  0
   53.8030   22.9250   45.4780 C   0  0  0  0  0  0  0  0  0  0  0  0
   53.7380   22.2280   46.5280 O   0  0  0  0  0  0  0  0  0  0  0  0
   55.0570   23.6430   45.1300 C   0  0  0  0  0  0  0  0  0  0  0  0
   55.2750   24.9500   45.6080 C   0  0  0  0  0  0  0  0  0  0  0  0
   56.4690   25.6400   45.3170 C   0  0  0  0  0  0  0  0  0  0  0  0
   56.7570   27.0220   45.8610 C   0  0  0  0  0  0  0  0  0  0  0  0
   55.8930   28.0430   45.2730 N   0  0  0  0  0  0  0  0  0  0  0  0
   56.2340   29.3950   44.9250 C   0  0  0  0  0  0  0  0  0  0  0  0
   55.4040   30.0480   44.2360 O   0  0  0  0  0  0  0  0  0  0  0  0
   57.5070   30.0530   45.3240 C   0  0  0  0  0  0  0  0  0  0  0  0
   58.6940   29.3070   45.3780 C   0  0  0  0  0  0  0  0  0  0  0  0
   59.8790   29.9510   45.7310 C   0  0  0  0  0  0  0  0  0  0  0  0
   60.9580   29.3050   45.7990 O   0  0  0  0  0  0  0  0  0  0  0  0
   59.8700   31.2790   46.0050 N   0  0  0  0  0  0  0  0  0  0  0  0
   58.7210   32.0080   45.9400 C   0  0  0  0  0  0  0  0  0  0  0  0
   58.7590   33.4930   46.2720 C   0  0  0  0  0  0  0  0  0  0  0  0
   59.9460   34.2020   45.5890 C   0  0  0  0  0  0  0  0  0  0  0  0
   57.4490   34.1450   45.7930 C   0  0  0  0  0  0  0  0  0  0  0  0
   58.8920   33.6680   47.7970 C   0  0  0  0  0  0  0  0  0  0  0  0
   57.5550   31.3860   45.5990 N   0  0  0  0  0  0  0  0  0  0  0  0
   57.4550   24.9970   44.5540 C   0  0  0  0  0  0  0  0  0  0  0  0
   57.2420   23.7100   44.0630 C   0  0  0  0  0  0  0  0  0  0  0  0
   56.0530   23.0330   44.3420 C   0  0  0  0  0  0  0  0  0  0  0  0
   55.8910   21.7790   43.8470 F   0  0  0  0  0  0  0  0  0  0  0  0
   49.5471   25.3428   42.3558 H   0  0  0  0  0  0  0  0  0  0  0  0
   50.1201   26.0860   44.0139 H   0  0  0  0  0  0  0  0  0  0  0  0
   50.7981   23.3210   42.8223 H   0  0  0  0  0  0  0  0  0  0  0  0
   52.0373   24.9629   45.0936 H   0  0  0  0  0  0  0  0  0  0  0  0
   50.9314   23.6489   45.6243 H   0  0  0  0  0  0  0  0  0  0  0  0
   54.5014   25.4397   46.2178 H   0  0  0  0  0  0  0  0  0  0  0  0
   56.6020   27.0124   46.9500 H   0  0  0  0  0  0  0  0  0  0  0  0
   57.7966   27.2737   45.6042 H   0  0  0  0  0  0  0  0  0  0  0  0
   58.6897   28.2318   45.1457 H   0  0  0  0  0  0  0  0  0  0  0  0
   60.6226   34.6061   46.3564 H   0  0  0  0  0  0  0  0  0  0  0  0
   60.4916   33.4817   44.9617 H   0  0  0  0  0  0  0  0  0  0  0  0
   59.5705   35.0239   44.9617 H   0  0  0  0  0  0  0  0  0  0  0  0
   56.8482   34.4440   46.6646 H   0  0  0  0  0  0  0  0  0  0  0  0
   57.6816   35.0325   45.1861 H   0  0  0  0  0  0  0  0  0  0  0  0
   56.8813   33.4243   45.1861 H   0  0  0  0  0  0  0  0  0  0  0  0
   58.3025   32.8924   48.3079 H   0  0  0  0  0  0  0  0  0  0  0  0
   59.9493   33.5748   48.0859 H   0  0  0  0  0  0  0  0  0  0  0  0
   58.5191   34.6617   48.0859 H   0  0  0  0  0  0  0  0  0  0  0  0
   58.4033   25.5123   44.3416 H   0  0  0  0  0  0  0  0  0  0  0  0
   58.0163   23.2240   43.4512 H   0  0  0  0  0  0  0  0  0  0  0  0
  1  2  2  0
  2  3  1  0
  3  4  1  0
  4  5  1  0
  5  6  2  0
  5  7  1  0
  7  8  2  0
  8  9  1  0
  9 10  1  0
 10 11  1  0
 11 12  1  0
 12 13  2  0
 12 14  1  0
 14 15  2  0
 15 16  1  0
 16 17  2  0
 16 18  1  0
 18 19  1  0
 19 20  1  0
 20 21  1  0
 20 22  1  0
 20 23  1  0
 19 24  2  0
  9 25  2  0
 25 26  1  0
 26 27  2  0
 27 28  1  0
 27  7  1  0
 24 14  1  0
  1 29  1  0
  1 30  1  0
  2 31  1  0
  3 32  1  0
  3 33  1  0
  8 34  1  0
 10 35  1  0
 10 36  1  0
 15 37  1  0
 21 38  1  0
 21 39  1  0
 21 40  1  0
 22 41  1  0
 22 42  1  0
 22 43  1  0
 23 44  1  0
 23 45  1  0
 23 46  1  0
 25 47  1  0
 26 48  1  0
M  CHG  3   4  -1  11  -1  18  -1
M  END
>  <UniqueID>  (27) 
25

>  <SMILES>  (27) 
C=CC[N-]C(=O)c1cc(C[N-]C(=O)c2cc(=O)[n-]c(C(C)(C)C)n2)ccc1F

>  <Energy>  (27) 
43.00506909422401

>  <Genealogy>  (27) 
C=CC[N-]C(=O)c1cc(C[N-]C(=O)c2cc(=O)[n-]c(C(C)(C)C)n2)ccc1F (protonated)
C=CC[N-]C(=O)c1cc(C[N-]C(=O)c2cc(=O)[n-]c(C(C)(C)C)n2)ccc1F (3D coordinates assigned)
C=CC[N-]C(=O)c1cc(C[N-]C(=O)c2cc(=O)[n-]c(C(C)(C)C)n2)ccc1F (optimized conformer: 43.00506909422401 kcal/mol)

>  <smiles>  (27) 
C=CCNC(=O)c1cc(CNC(=O)c2cc(=O)[nH]c(C(C)(C)C)n2)ccc1F

>  <score_type>  (27) 
oracle

>  <origin>  (27) 
adg

>  <m_score__min__energy>  (27) 
-12.279999999999999

>  <m_primary>  (27) 
energy

$$$$
27:0
     RDKit          3D

 38 40  0  0  0  0  0  0  0  0999 V2000
   60.4393   27.2398   45.8555 H   0  0  0  0  0  0  0  0  0  0  0  0
   59.3410   27.1840   45.8810 C   0  0  0  0  0  0  0  0  0  0  0  0
   58.7150   26.0500   46.3960 C   0  0  0  0  0  0  0  0  0  0  0  0
   59.3212   25.2137   46.7742 H   0  0  0  0  0  0  0  0  0  0  0  0
   57.3120   25.9710   46.4340 C   0  0  0  0  0  0  0  0  0  0  0  0
   56.6420   24.8420   46.9350 O   0  0  0  0  0  0  0  0  0  0  0  0
   55.7640   24.0190   46.1720 C   0  0  0  0  0  0  0  0  0  0  0  0
   55.1329   23.4274   46.8515 H   0  0  0  0  0  0  0  0  0  0  0  0
   55.1264   24.6524   45.5377 H   0  0  0  0  0  0  0  0  0  0  0  0
   56.3549   23.3418   45.5377 H   0  0  0  0  0  0  0  0  0  0  0  0
   56.5460   27.0440   45.9510 C   0  0  0  0  0  0  0  0  0  0  0  0
   55.1590   26.9380   45.9900 O   0  0  0  0  0  0  0  0  0  0  0  0
   57.1730   28.2010   45.4280 C   0  0  0  0  0  0  0  0  0  0  0  0
   56.3930   29.3560   44.9070 C   0  0  0  0  0  0  0  0  0  0  0  0
   55.1340   29.3300   44.9750 O   0  0  0  0  0  0  0  0  0  0  0  0
   57.0670   30.4780   44.3110 N   0  0  0  0  0  0  0  0  0  0  0  0
   57.7730   31.3920   44.9110 C   0  0  0  0  0  0  0  0  0  0  0  0
   59.0280   31.1540   45.3460 N   0  0  0  0  0  0  0  0  0  0  0  0
   59.5820   32.2020   45.9530 N   0  0  0  0  0  0  0  0  0  0  0  0
   58.7660   33.2770   46.0090 C   0  0  0  0  0  0  0  0  0  0  0  0
   59.2230   34.8320   46.7690 S   0  0  0  0  0  0  0  0  0  0  0  0
   59.5600   34.1120   48.4140 C   0  0  0  0  0  0  0  0  0  0  0  0
   59.2001   34.8044   49.1893 H   0  0  0  0  0  0  0  0  0  0  0  0
   59.0390   33.1458   48.4846 H   0  0  0  0  0  0  0  0  0  0  0  0
   61.0320   33.8750   48.6130 C   0  0  0  0  0  0  0  0  0  0  0  0
   61.8720   33.6350   47.5110 C   0  0  0  0  0  0  0  0  0  0  0  0
   61.4537   33.6337   46.4936 H   0  0  0  0  0  0  0  0  0  0  0  0
   63.2370   33.3980   47.7030 C   0  0  0  0  0  0  0  0  0  0  0  0
   63.8901   33.2139   46.8372 H   0  0  0  0  0  0  0  0  0  0  0  0
   63.7720   33.3950   48.9950 C   0  0  0  0  0  0  0  0  0  0  0  0
   65.1280   33.1630   49.1840 O   0  0  0  0  0  0  0  0  0  0  0  0
   62.9420   33.6290   50.0950 C   0  0  0  0  0  0  0  0  0  0  0  0
   63.3633   33.6243   51.1111 H   0  0  0  0  0  0  0  0  0  0  0  0
   61.5780   33.8690   49.9070 C   0  0  0  0  0  0  0  0  0  0  0  0
   60.9295   34.0539   50.7760 H   0  0  0  0  0  0  0  0  0  0  0  0
   57.2820   32.9710   45.2750 S   0  0  0  0  0  0  0  0  0  0  0  0
   58.5800   28.2480   45.3980 C   0  0  0  0  0  0  0  0  0  0  0  0
   59.0852   29.1352   44.9884 H   0  0  0  0  0  0  0  0  0  0  0  0
  1  2  1  0
  2  3  2  0
  3  4  1  0
  3  5  1  0
  5  6  1  0
  6  7  1  0
  7  8  1  0
  7  9  1  0
  7 10  1  0
  5 11  2  0
 11 12  1  0
 11 13  1  0
 13 14  1  0
 14 15  2  0
 14 16  1  0
 16 17  2  0
 17 18  1  0
 18 19  1  0
 19 20  2  0
 20 21  1  0
 21 22  1  0
 22 23  1  0
 22 24  1  0
 22 25  1  0
 25 26  2  0
 26 27  1  0
 26 28  1  0
 28 29  1  0
 28 30  2  0
 30 31  1  0
 30 32  1  0
 32 33  1  0
 32 34  2  0
 34 35  1  0
 20 36  1  0
 13 37  2  0
 37 38  1  0
 37  2  1  0
 36 17  1  0
 34 25  1  0
M  CHG  3  12  -1  18  -1  31  -1
M  END
>  <UniqueID>  (28) 
26

>  <SMILES>  (28) 
COc1cccc(C(=O)/N=c2/[n-]nc(SCc3ccc([O-])cc3)s2)c1[O-]

>  <Energy>  (28) 
76.68403804030291

>  <Genealogy>  (28) 
COc1cccc(C(=O)N=c2[n-]nc(SCc3ccc([O-])cc3)s2)c1[O-] (protonated)
COc1cccc(C(=O)/N=c2/[n-]nc(SCc3ccc([O-])cc3)s2)c1[O-] (cis-trans isomerization)
COc1cccc(C(=O)/N=c2/[n-]nc(SCc3ccc([O-])cc3)s2)c1[O-] (3D coordinates assigned)
COc1cccc(C(=O)/N=c2/[n-]nc(SCc3ccc([O-])cc3)s2)c1[O-] (optimized conformer: 76.68403804030291 kcal/mol)

>  <smiles>  (28) 
COc1cccc(C(=O)N=c2[nH]nc(SCc3ccc(O)cc3)s2)c1O

>  <score_type>  (28) 
oracle

>  <origin>  (28) 
adg

>  <m_score__min__energy>  (28) 
-14.44

>  <m_primary>  (28) 
energy

$$$$
28:0
     RDKit          3D

 49 53  0  0  0  0  0  0  0  0999 V2000
   56.3460   33.8240   44.9220 H   0  0  0  0  0  0  0  0  0  0  0  0
   55.1540   25.1440   46.3650 N   0  0  0  0  0  0  0  0  0  0  0  0
   56.3090   25.7370   46.2540 C   0  0  0  0  0  0  0  0  0  0  0  0
   56.3290   27.0710   45.9840 N   0  0  0  0  0  0  0  0  0  0  0  0
   56.3360   29.7400   44.8060 C   0  0  0  0  0  0  0  0  0  0  0  0
   55.5307   29.0671   44.4763 H   0  0  0  0  0  0  0  0  0  0  0  0
   57.4220   29.2210   45.5420 C   0  0  0  0  0  0  0  0  0  0  0  0
   57.4870   27.7780   45.8580 C   0  0  0  0  0  0  0  0  0  0  0  0
   56.2740   31.0720   44.4980 N   0  0  0  0  0  0  0  0  0  0  0  0
   57.2320   31.9590   44.8910 C   0  0  0  0  0  0  0  0  0  0  0  0
   57.1140   33.2100   44.5710 N   0  0  0  0  0  0  0  0  0  0  0  0
   54.4260   24.4660   45.2940 C   0  0  0  0  0  0  0  0  0  0  0  0
   53.5156   24.0038   45.7033 H   0  0  0  0  0  0  0  0  0  0  0  0
   54.1467   25.1944   44.5185 H   0  0  0  0  0  0  0  0  0  0  0  0
   55.3030   23.4040   44.6960 C   0  0  0  0  0  0  0  0  0  0  0  0
   55.7620   23.5280   43.3730 C   0  0  0  0  0  0  0  0  0  0  0  0
   55.4556   24.3915   42.7643 H   0  0  0  0  0  0  0  0  0  0  0  0
   56.6080   22.5550   42.8290 C   0  0  0  0  0  0  0  0  0  0  0  0
   56.9578   22.6500   41.7905 H   0  0  0  0  0  0  0  0  0  0  0  0
   57.0090   21.4630   43.6030 C   0  0  0  0  0  0  0  0  0  0  0  0
   57.6708   20.6973   43.1720 H   0  0  0  0  0  0  0  0  0  0  0  0
   56.5700   21.3430   44.9240 C   0  0  0  0  0  0  0  0  0  0  0  0
   56.8899   20.4848   45.5333 H   0  0  0  0  0  0  0  0  0  0  0  0
   55.7240   22.3130   45.4730 C   0  0  0  0  0  0  0  0  0  0  0  0
   55.3878   22.2205   46.5163 H   0  0  0  0  0  0  0  0  0  0  0  0
   57.5290   25.0490   46.4010 C   0  0  0  0  0  0  0  0  0  0  0  0
   57.5360   23.9723   46.6263 H   0  0  0  0  0  0  0  0  0  0  0  0
   58.7290   25.7470   46.2580 C   0  0  0  0  0  0  0  0  0  0  0  0
   59.6875   25.2181   46.3657 H   0  0  0  0  0  0  0  0  0  0  0  0
   58.7160   27.1130   45.9790 C   0  0  0  0  0  0  0  0  0  0  0  0
   59.6601   27.6637   45.8550 H   0  0  0  0  0  0  0  0  0  0  0  0
   58.3980   30.1410   45.9570 C   0  0  0  0  0  0  0  0  0  0  0  0
   59.5260   29.9830   46.7400 C   0  0  0  0  0  0  0  0  0  0  0  0
   59.9020   29.0500   47.1851 H   0  0  0  0  0  0  0  0  0  0  0  0
   60.0870   31.2550   46.8470 C   0  0  0  0  0  0  0  0  0  0  0  0
   61.3200   31.5880   47.6030 C   0  0  0  0  0  0  0  0  0  0  0  0
   62.2160   32.5620   47.1210 C   0  0  0  0  0  0  0  0  0  0  0  0
   62.0011   33.0811   46.1753 H   0  0  0  0  0  0  0  0  0  0  0  0
   63.3770   32.8740   47.8360 C   0  0  0  0  0  0  0  0  0  0  0  0
   64.0704   33.6361   47.4507 H   0  0  0  0  0  0  0  0  0  0  0  0
   63.6580   32.2210   49.0370 C   0  0  0  0  0  0  0  0  0  0  0  0
   64.5722   32.4678   49.5967 H   0  0  0  0  0  0  0  0  0  0  0  0
   62.7780   31.2540   49.5280 C   0  0  0  0  0  0  0  0  0  0  0  0
   63.0000   30.7394   50.4745 H   0  0  0  0  0  0  0  0  0  0  0  0
   61.6150   30.9390   48.8180 C   0  0  0  0  0  0  0  0  0  0  0  0
   60.9249   30.1782   49.2116 H   0  0  0  0  0  0  0  0  0  0  0  0
   59.3400   32.1620   46.1720 N   0  0  0  0  0  0  0  0  0  0  0  0
   59.5280   33.1830   46.0770 H   0  0  0  0  0  0  0  0  0  0  0  0
   58.3110   31.4740   45.6410 C   0  0  0  0  0  0  0  0  0  0  0  0
  1  2  1  0
  2  3  2  0
  3  4  1  0
  4  5  1  0
  5  6  1  0
  5  7  2  0
  7  8  1  0
  8  9  1  0
  9 10  1  0
 10 11  2  0
 11 12  1  0
 12 13  1  0
 12 14  1  0
 12 15  1  0
 15 16  2  0
 16 17  1  0
 16 18  1  0
 18 19  1  0
 18 20  2  0
 20 21  1  0
 20 22  1  0
 22 23  1  0
 22 24  2  0
 24 25  1  0
 10 26  1  0
 26 27  1  0
 26 28  2  0
 28 29  1  0
 28 30  1  0
 30 31  1  0
  7 32  1  0
 32 33  1  0
 33 34  1  0
 33 35  2  0
 35 36  1  0
 36 37  2  0
 37 38  1  0
 37 39  1  0
 39 40  1  0
 39 41  2  0
 41 42  1  0
 41 43  1  0
 43 44  1  0
 43 45  2  0
 45 46  1  0
 35 47  1  0
 47 48  1  0
 47 49  1  0
 49  3  1  0
 30  8  2  0
 49 32  2  0
 24 15  1  0
 45 36  1  0
M  CHG  2   4  -1   9  -1
M  END
>  <UniqueID>  (29) 
27

>  <SMILES>  (29) 
[H]/N=c1/[n-]cc(-c2ccc/c(=N\Cc3ccccc3)[n-]2)c2cc(-c3ccccc3)[nH]c12

>  <Energy>  (29) 
100.06885941194764

>  <Genealogy>  (29) 
N=c1[n-]cc(-c2cccc(=NCc3ccccc3)[n-]2)c2cc(-c3ccccc3)[nH]c12 (protonated)
[H]/N=c1/[n-]cc(-c2ccc/c(=N\Cc3ccccc3)[n-]2)c2cc(-c3ccccc3)[nH]c12 (cis-trans isomerization)
[H]/N=c1/[n-]cc(-c2ccc/c(=N\Cc3ccccc3)[n-]2)c2cc(-c3ccccc3)[nH]c12 (3D coordinates assigned)
[H]/N=c1/[n-]cc(-c2ccc/c(=N\Cc3ccccc3)[n-]2)c2cc(-c3ccccc3)[nH]c12 (optimized conformer: 100.06885941194764 kcal/mol)

>  <smiles>  (29) 
N=c1[nH]cc(-c2cccc(=NCc3ccccc3)[nH]2)c2cc(-c3ccccc3)[nH]c12

>  <score_type>  (29) 
oracle

>  <origin>  (29) 
adg

>  <m_score__min__energy>  (29) 
-12.039999999999999

>  <m_primary>  (29) 
energy

$$$$
29:0
     RDKit          3D

 59 62  0  0  0  0  0  0  0  0999 V2000
   59.5950   26.1300   47.0410 N   0  0  0  0  0  0  0  0  0  0  0  0
   58.6550   26.3710   46.4100 C   0  0  0  0  0  0  0  0  0  0  0  0
   57.4810   26.6690   45.6190 C   0  0  0  0  0  0  0  0  0  0  0  0
   57.5180   27.5660   44.6100 C   0  0  0  0  0  0  0  0  0  0  0  0
   57.4900   29.0430   44.7530 C   0  0  0  0  0  0  0  0  0  0  0  0
   56.9520   29.8060   43.7060 C   0  0  0  0  0  0  0  0  0  0  0  0
   56.9690   31.2030   43.7590 C   0  0  0  0  0  0  0  0  0  0  0  0
   57.5310   31.8680   44.8540 C   0  0  0  0  0  0  0  0  0  0  0  0
   57.5440   33.2730   44.8250 O   0  0  0  0  0  0  0  0  0  0  0  0
   58.6970   34.1120   44.8880 C   0  0  0  0  0  0  0  0  0  0  0  0
   59.3280   34.0110   46.2480 C   0  0  0  0  0  0  0  0  0  0  0  0
   60.7230   34.1120   46.3730 C   0  0  0  0  0  0  0  0  0  0  0  0
   61.3290   34.0270   47.6290 C   0  0  0  0  0  0  0  0  0  0  0  0
   60.5500   33.8440   48.7850 C   0  0  0  0  0  0  0  0  0  0  0  0
   61.1930   33.7520   50.1150 C   0  0  0  0  0  0  0  0  0  0  0  0
   60.5350   34.0600   51.1450 O   0  0  0  0  0  0  0  0  0  0  0  0
   62.5650   33.3440   50.2500 N   0  0  0  0  0  0  0  0  0  0  0  0
   63.0490   32.1180   49.6050 C   0  0  0  0  0  0  0  0  0  0  0  0
   64.5020   32.2960   49.1050 C   0  0  0  0  0  0  0  0  0  0  0  0
   65.1530   33.4440   49.6310 O   0  0  0  0  0  0  0  0  0  0  0  0
   64.8870   33.5790   51.0110 C   0  0  0  0  0  0  0  0  0  0  0  0
   63.4380   34.0320   51.2060 C   0  0  0  0  0  0  0  0  0  0  0  0
   59.1510   33.7810   48.6610 C   0  0  0  0  0  0  0  0  0  0  0  0
   58.5440   33.8640   47.4010 C   0  0  0  0  0  0  0  0  0  0  0  0
   58.0650   31.1080   45.9120 C   0  0  0  0  0  0  0  0  0  0  0  0
   58.0650   29.7100   45.8490 C   0  0  0  0  0  0  0  0  0  0  0  0
   56.2050   26.0200   46.0070 C   0  0  0  0  0  0  0  0  0  0  0  0
   55.1450   26.7030   46.0340 O   0  0  0  0  0  0  0  0  0  0  0  0
   56.1620   24.6080   46.2730 N   0  0  0  0  0  0  0  0  0  0  0  0
   56.5730   23.5610   45.3820 C   0  0  0  0  0  0  0  0  0  0  0  0
   57.6730   22.7690   45.7420 C   0  0  0  0  0  0  0  0  0  0  0  0
   58.0830   21.7130   44.9240 C   0  0  0  0  0  0  0  0  0  0  0  0
   57.3900   21.4310   43.7440 C   0  0  0  0  0  0  0  0  0  0  0  0
   56.2680   22.1910   43.3920 C   0  0  0  0  0  0  0  0  0  0  0  0
   55.5500   21.8750   42.2420 O   0  0  0  0  0  0  0  0  0  0  0  0
   55.8590   23.2530   44.2080 C   0  0  0  0  0  0  0  0  0  0  0  0
   57.5741   27.1647   43.5874 H   0  0  0  0  0  0  0  0  0  0  0  0
   56.5121   29.2998   42.8341 H   0  0  0  0  0  0  0  0  0  0  0  0
   56.5363   31.7848   42.9318 H   0  0  0  0  0  0  0  0  0  0  0  0
   59.4222   33.7935   44.1247 H   0  0  0  0  0  0  0  0  0  0  0  0
   58.3975   35.1543   44.7037 H   0  0  0  0  0  0  0  0  0  0  0  0
   61.3427   34.2590   45.4762 H   0  0  0  0  0  0  0  0  0  0  0  0
   62.4230   34.1038   47.7140 H   0  0  0  0  0  0  0  0  0  0  0  0
   63.0161   31.2919   50.3306 H   0  0  0  0  0  0  0  0  0  0  0  0
   62.4042   31.8960   48.7419 H   0  0  0  0  0  0  0  0  0  0  0  0
   65.0800   31.4062   49.3951 H   0  0  0  0  0  0  0  0  0  0  0  0
   64.4514   32.4281   48.0141 H   0  0  0  0  0  0  0  0  0  0  0  0
   65.0396   32.6111   51.5108 H   0  0  0  0  0  0  0  0  0  0  0  0
   65.5677   34.3257   51.4457 H   0  0  0  0  0  0  0  0  0  0  0  0
   63.1163   33.7931   52.2304 H   0  0  0  0  0  0  0  0  0  0  0  0
   63.3731   35.1172   51.0383 H   0  0  0  0  0  0  0  0  0  0  0  0
   58.5281   33.6656   49.5603 H   0  0  0  0  0  0  0  0  0  0  0  0
   57.4484   33.8137   47.3161 H   0  0  0  0  0  0  0  0  0  0  0  0
   58.4845   31.6159   46.7930 H   0  0  0  0  0  0  0  0  0  0  0  0
   58.5190   29.1277   46.6644 H   0  0  0  0  0  0  0  0  0  0  0  0
   58.2166   22.9806   46.6746 H   0  0  0  0  0  0  0  0  0  0  0  0
   58.9526   21.1028   45.2094 H   0  0  0  0  0  0  0  0  0  0  0  0
   57.7260   20.6117   43.0914 H   0  0  0  0  0  0  0  0  0  0  0  0
   54.9768   23.8488   43.9309 H   0  0  0  0  0  0  0  0  0  0  0  0
  1  2  3  0
  2  3  1  0
  3  4  2  3
  4  5  1  0
  5  6  2  0
  6  7  1  0
  7  8  2  0
  8  9  1  0
  9 10  1  0
 10 11  1  0
 11 12  2  0
 12 13  1  0
 13 14  2  0
 14 15  1  0
 15 16  2  0
 15 17  1  0
 17 18  1  0
 18 19  1  0
 19 20  1  0
 20 21  1  0
 21 22  1  0
 14 23  1  0
 23 24  2  0
  8 25  1  0
 25 26  2  0
  3 27  1  0
 27 28  2  0
 27 29  1  0
 29 30  1  0
 30 31  2  0
 31 32  1  0
 32 33  2  0
 33 34  1  0
 34 35  1  0
 34 36  2  0
 26  5  1  0
 36 30  1  0
 24 11  1  0
 22 17  1  0
  4 37  1  0
  6 38  1  0
  7 39  1  0
 10 40  1  0
 10 41  1  0
 12 42  1  0
 13 43  1  0
 18 44  1  0
 18 45  1  0
 19 46  1  0
 19 47  1  0
 21 48  1  0
 21 49  1  0
 22 50  1  0
 22 51  1  0
 23 52  1  0
 24 53  1  0
 25 54  1  0
 26 55  1  0
 31 56  1  0
 32 57  1  0
 33 58  1  0
 36 59  1  0
M  CHG  2  29  -1  35  -1
M  END
>  <UniqueID>  (30) 
28

>  <SMILES>  (30) 
N#CC(=Cc1ccc(OCc2ccc(C(=O)N3CCOCC3)cc2)cc1)C(=O)[N-]c1cccc([O-])c1

>  <Energy>  (30) 
85.70155897285787

>  <Genealogy>  (30) 
N#CC(=Cc1ccc(OCc2ccc(C(=O)N3CCOCC3)cc2)cc1)C(=O)[N-]c1cccc([O-])c1 (protonated)
N#CC(=Cc1ccc(OCc2ccc(C(=O)N3CCOCC3)cc2)cc1)C(=O)[N-]c1cccc([O-])c1 (3D coordinates assigned)
N#CC(=Cc1ccc(OCc2ccc(C(=O)N3CCOCC3)cc2)cc1)C(=O)[N-]c1cccc([O-])c1 (nonaromatic ring conformer: 85.70155897285787 kcal/mol)

>  <smiles>  (30) 
N#CC(=Cc1ccc(OCc2ccc(C(=O)N3CCOCC3)cc2)cc1)C(=O)Nc1cccc(O)c1

>  <score_type>  (30) 
oracle

>  <origin>  (30) 
adg

>  <m_score__min__energy>  (30) 
-14.449999999999999

>  <m_primary>  (30) 
energy

$$$$
30:0
     RDKit          3D

 33 35  0  0  0  0  0  0  0  0999 V2000
   55.1440   27.5150   45.4530 H   0  0  0  0  0  0  0  0  0  0  0  0
   54.9680   26.6950   46.0190 O   0  0  0  0  0  0  0  0  0  0  0  0
   55.9970   25.8130   46.3320 C   0  0  0  0  0  0  0  0  0  0  0  0
   55.8470   24.7480   47.1370 N   0  0  0  0  0  0  0  0  0  0  0  0
   57.0620   24.1630   47.0880 C   0  0  0  0  0  0  0  0  0  0  0  0
   57.3330   23.1090   47.7190 O   0  0  0  0  0  0  0  0  0  0  0  0
   57.9620   24.7920   46.3030 N   0  0  0  0  0  0  0  0  0  0  0  0
   57.2850   25.8580   45.8400 C   0  0  0  0  0  0  0  0  0  0  0  0
   57.8530   26.8140   44.8720 C   0  0  0  0  0  0  0  0  0  0  0  0
   58.5540   26.4264   44.1181 H   0  0  0  0  0  0  0  0  0  0  0  0
   57.5720   28.1220   44.8500 C   0  0  0  0  0  0  0  0  0  0  0  0
   56.3260   28.5910   44.6130 N   0  0  0  0  0  0  0  0  0  0  0  0
   56.2840   29.9500   44.6010 C   0  0  0  0  0  0  0  0  0  0  0  0
   55.2060   30.5700   44.3950 O   0  0  0  0  0  0  0  0  0  0  0  0
   57.5030   30.5930   44.8270 C   0  0  0  0  0  0  0  0  0  0  0  0
   57.7010   31.9220   44.8250 C   0  0  0  0  0  0  0  0  0  0  0  0
   57.3064   32.4997   43.9761 H   0  0  0  0  0  0  0  0  0  0  0  0
   58.4150   32.6580   45.8900 C   0  0  0  0  0  0  0  0  0  0  0  0
   58.8800   31.9530   47.0100 C   0  0  0  0  0  0  0  0  0  0  0  0
   58.6903   30.8726   47.0928 H   0  0  0  0  0  0  0  0  0  0  0  0
   59.5830   32.6140   48.0220 C   0  0  0  0  0  0  0  0  0  0  0  0
   59.9275   32.0547   48.9043 H   0  0  0  0  0  0  0  0  0  0  0  0
   59.8520   33.9920   47.9170 C   0  0  0  0  0  0  0  0  0  0  0  0
   60.5500   34.6960   48.9100 O   0  0  0  0  0  0  0  0  0  0  0  0
   61.7630   34.2520   49.5090 C   0  0  0  0  0  0  0  0  0  0  0  0
   61.6657   34.2876   50.6041 H   0  0  0  0  0  0  0  0  0  0  0  0
   61.9715   33.2193   49.1928 H   0  0  0  0  0  0  0  0  0  0  0  0
   62.5890   34.9061   49.1928 H   0  0  0  0  0  0  0  0  0  0  0  0
   59.4140   34.6890   46.7830 C   0  0  0  0  0  0  0  0  0  0  0  0
   59.6850   36.0470   46.6540 O   0  0  0  0  0  0  0  0  0  0  0  0
   58.7100   34.0270   45.7730 C   0  0  0  0  0  0  0  0  0  0  0  0
   58.3847   34.5815   44.8804 H   0  0  0  0  0  0  0  0  0  0  0  0
   58.6710   29.3920   45.0280 S   0  0  0  0  0  0  0  0  0  0  0  0
  1  2  1  0
  2  3  1  0
  3  4  1  0
  4  5  1  0
  5  6  2  0
  5  7  1  0
  7  8  1  0
  8  9  1  0
  9 10  1  0
  9 11  2  3
 11 12  1  0
 12 13  1  0
 13 14  2  0
 13 15  1  0
 15 16  2  0
 16 17  1  0
 16 18  1  0
 18 19  2  0
 19 20  1  0
 19 21  1  0
 21 22  1  0
 21 23  2  0
 23 24  1  0
 24 25  1  0
 25 26  1  0
 25 27  1  0
 25 28  1  0
 23 29  1  0
 29 30  1  0
 29 31  2  0
 31 32  1  0
 15 33  1  0
  8  3  2  0
 33 11  1  0
 31 18  1  0
M  CHG  4   4  -1   7  -1  12  -1  30  -1
M  END
>  <UniqueID>  (31) 
29

>  <SMILES>  (31) 
COc1ccc(/C=c2\sc(=Cc3[n-]c(=O)[n-]c3O)[n-]c2=O)cc1[O-]

>  <Energy>  (31) 
106.15404967660338

>  <Genealogy>  (31) 
COc1ccc(C=c2sc(=Cc3[n-]c(=O)[n-]c3O)[n-]c2=O)cc1[O-] (protonated)
COc1ccc(/C=c2\sc(=Cc3[n-]c(=O)[n-]c3O)[n-]c2=O)cc1[O-] (cis-trans isomerization)
COc1ccc(/C=c2\sc(=Cc3[n-]c(=O)[n-]c3O)[n-]c2=O)cc1[O-] (3D coordinates assigned)
COc1ccc(/C=c2\sc(=Cc3[n-]c(=O)[n-]c3O)[n-]c2=O)cc1[O-] (optimized conformer: 106.15404967660338 kcal/mol)

>  <smiles>  (31) 
COc1ccc(C=c2sc(=Cc3[nH]c(=O)[nH]c3O)[nH]c2=O)cc1O

>  <score_type>  (31) 
oracle

>  <origin>  (31) 
adg

>  <m_score__min__energy>  (31) 
-14.68

>  <m_primary>  (31) 
energy

$$$$
31:0
     RDKit          3D

 53 56  0  0  0  0  0  0  0  0999 V2000
   57.0534   32.1226   52.3954 H   0  0  0  0  0  0  0  0  0  0  0  0
   55.9660   31.9660   52.3410 C   0  0  0  0  0  0  0  0  0  0  0  0
   55.3150   32.7602   51.9467 H   0  0  0  0  0  0  0  0  0  0  0  0
   55.4330   30.8050   52.7560 C   0  0  0  0  0  0  0  0  0  0  0  0
   54.0690   30.4680   52.7450 C   0  0  0  0  0  0  0  0  0  0  0  0
   52.9700   31.2230   52.5420 C   0  0  0  0  0  0  0  0  0  0  0  0
   52.6666   31.8965   53.3570 H   0  0  0  0  0  0  0  0  0  0  0  0
   52.1410   31.2250   51.3260 C   0  0  0  0  0  0  0  0  0  0  0  0
   52.2150   30.3060   50.3450 N   0  0  0  0  0  0  0  0  0  0  0  0
   51.3860   30.7950   49.3970 C   0  0  0  0  0  0  0  0  0  0  0  0
   51.1750   30.1980   48.3090 O   0  0  0  0  0  0  0  0  0  0  0  0
   50.8150   31.9800   49.7000 N   0  0  0  0  0  0  0  0  0  0  0  0
   51.3150   32.2440   50.9170 C   0  0  0  0  0  0  0  0  0  0  0  0
   51.0270   33.3950   51.6380 O   0  0  0  0  0  0  0  0  0  0  0  0
   53.9990   29.1180   53.0260 C   0  0  0  0  0  0  0  0  0  0  0  0
   53.0899   28.4989   53.0424 H   0  0  0  0  0  0  0  0  0  0  0  0
   55.2850   28.6940   53.2820 C   0  0  0  0  0  0  0  0  0  0  0  0
   55.6470   27.2830   53.6330 C   0  0  0  0  0  0  0  0  0  0  0  0
   55.6752   27.1730   54.7271 H   0  0  0  0  0  0  0  0  0  0  0  0
   54.8958   26.5969   53.2148 H   0  0  0  0  0  0  0  0  0  0  0  0
   56.6357   27.0433   53.2148 H   0  0  0  0  0  0  0  0  0  0  0  0
   56.1660   29.7110   53.1140 N   0  0  0  0  0  0  0  0  0  0  0  0
   57.6280   29.6000   53.2800 C   0  0  0  0  0  0  0  0  0  0  0  0
   57.8715   29.6446   54.3518 H   0  0  0  0  0  0  0  0  0  0  0  0
   57.9554   28.6435   52.8464 H   0  0  0  0  0  0  0  0  0  0  0  0
   58.3470   30.7190   52.5650 C   0  0  0  0  0  0  0  0  0  0  0  0
   58.4970   30.6780   51.1680 C   0  0  0  0  0  0  0  0  0  0  0  0
   58.0916   29.8241   50.6054 H   0  0  0  0  0  0  0  0  0  0  0  0
   59.1570   31.7110   50.4770 C   0  0  0  0  0  0  0  0  0  0  0  0
   59.2750   31.6450   48.9930 C   0  0  0  0  0  0  0  0  0  0  0  0
   58.4030   32.2360   48.2980 O   0  0  0  0  0  0  0  0  0  0  0  0
   60.3740   30.9490   48.3420 N   0  0  0  0  0  0  0  0  0  0  0  0
   60.1130   29.9370   48.2790 H   0  0  0  0  0  0  0  0  0  0  0  0
   61.6210   31.0180   49.1380 C   0  0  0  0  0  0  0  0  0  0  0  0
   61.3876   30.7508   50.1792 H   0  0  0  0  0  0  0  0  0  0  0  0
   62.3393   30.3182   48.6860 H   0  0  0  0  0  0  0  0  0  0  0  0
   62.2650   32.4110   49.1230 C   0  0  0  0  0  0  0  0  0  0  0  0
   61.6319   33.1113   49.6876 H   0  0  0  0  0  0  0  0  0  0  0  0
   63.2614   32.3537   49.5855 H   0  0  0  0  0  0  0  0  0  0  0  0
   62.4040   32.8940   47.7140 C   0  0  0  0  0  0  0  0  0  0  0  0
   63.4090   33.4950   47.3670 O   0  0  0  0  0  0  0  0  0  0  0  0
   61.2520   32.7440   46.7690 C   0  0  0  0  0  0  0  0  0  0  0  0
   60.5141   33.5336   46.9739 H   0  0  0  0  0  0  0  0  0  0  0  0
   61.6314   32.8269   45.7398 H   0  0  0  0  0  0  0  0  0  0  0  0
   60.5760   31.3690   46.9320 C   0  0  0  0  0  0  0  0  0  0  0  0
   59.5928   31.4084   46.4403 H   0  0  0  0  0  0  0  0  0  0  0  0
   61.2527   30.6302   46.4778 H   0  0  0  0  0  0  0  0  0  0  0  0
   59.6700   32.7960   51.2130 C   0  0  0  0  0  0  0  0  0  0  0  0
   60.1814   33.6177   50.6902 H   0  0  0  0  0  0  0  0  0  0  0  0
   59.5340   32.8360   52.6020 C   0  0  0  0  0  0  0  0  0  0  0  0
   59.9444   33.6861   53.1667 H   0  0  0  0  0  0  0  0  0  0  0  0
   58.8810   31.8050   53.2790 C   0  0  0  0  0  0  0  0  0  0  0  0
   58.7730   31.8720   54.6290 F   0  0  0  0  0  0  0  0  0  0  0  0
  1  2  1  0
  2  3  1  0
  2  4  2  0
  4  5  1  0
  5  6  2  0
  6  7  1  0
  6  8  1  0
  8  9  1  0
  9 10  1  0
 10 11  2  0
 10 12  1  0
 12 13  1  0
 13 14  1  0
  5 15  1  0
 15 16  1  0
 15 17  2  0
 17 18  1  0
 18 19  1  0
 18 20  1  0
 18 21  1  0
 17 22  1  0
 22 23  1  0
 23 24  1  0
 23 25  1  0
 23 26  1  0
 26 27  2  0
 27 28  1  0
 27 29  1  0
 29 30  1  0
 30 31  2  0
 30 32  1  0
 32 33  1  0
 32 34  1  0
 34 35  1  0
 34 36  1  0
 34 37  1  0
 37 38  1  0
 37 39  1  0
 37 40  1  0
 40 41  2  0
 40 42  1  0
 42 43  1  0
 42 44  1  0
 42 45  1  0
 45 46  1  0
 45 47  1  0
 29 48  2  0
 48 49  1  0
 48 50  1  0
 50 51  1  0
 50 52  2  0
 52 53  1  0
 22  4  1  0
 52 26  1  0
 13  8  2  0
 45 32  1  0
M  CHG  4   9  -1  12  -1  14  -1  32   1
M  END
>  <UniqueID>  (32) 
30

>  <SMILES>  (32) 
C=c1/c(=C\c2[n-]c(=O)[n-]c2[O-])cc(C)n1Cc1cc(C(=O)[NH+]2CCC(=O)CC2)ccc1F

>  <Energy>  (32) 
134.1324011221524

>  <Genealogy>  (32) 
C=c1c(=Cc2[n-]c(=O)[n-]c2[O-])cc(C)n1Cc1cc(C(=O)[NH+]2CCC(=O)CC2)ccc1F (protonated)
C=c1/c(=C\c2[n-]c(=O)[n-]c2[O-])cc(C)n1Cc1cc(C(=O)[NH+]2CCC(=O)CC2)ccc1F (cis-trans isomerization)
C=c1/c(=C\c2[n-]c(=O)[n-]c2[O-])cc(C)n1Cc1cc(C(=O)[NH+]2CCC(=O)CC2)ccc1F (3D coordinates assigned)
C=c1/c(=C\c2[n-]c(=O)[n-]c2[O-])cc(C)n1Cc1cc(C(=O)[NH+]2CCC(=O)CC2)ccc1F (nonaromatic ring conformer: 134.1324011221524 kcal/mol)

>  <smiles>  (32) 
C=c1c(=Cc2[nH]c(=O)[nH]c2O)cc(C)n1Cc1cc(C(=O)N2CCC(=O)CC2)ccc1F

>  <score_type>  (32) 
oracle

>  <origin>  (32) 
adg

>  <m_score__min__energy>  (32) 
-15.890000000000001

>  <m_primary>  (32) 
energy

$$$$
32:0
     RDKit          3D

 66 70  0  0  0  0  0  0  0  0999 V2000
   58.4340   30.0900   52.0100 O   0  0  0  0  0  0  0  0  0  0  0  0
   57.7390   30.8770   51.3120 C   0  0  0  0  0  0  0  0  0  0  0  0
   58.3990   31.6650   50.2180 C   0  0  0  0  0  0  0  0  0  0  0  0
   59.8560   31.5330   50.2600 N   0  0  0  0  0  0  0  0  0  0  0  0
   60.6300   30.4450   49.7310 C   0  0  0  0  0  0  0  0  0  0  0  0
   61.8430   30.3530   50.0580 O   0  0  0  0  0  0  0  0  0  0  0  0
   60.0720   29.4700   48.7750 C   0  0  0  0  0  0  0  0  0  0  0  0
   60.0710   28.1040   49.0970 C   0  0  0  0  0  0  0  0  0  0  0  0
   59.5870   27.1650   48.1810 C   0  0  0  0  0  0  0  0  0  0  0  0
   59.0890   27.5850   46.9440 C   0  0  0  0  0  0  0  0  0  0  0  0
   59.0550   28.9480   46.6250 C   0  0  0  0  0  0  0  0  0  0  0  0
   58.4470   29.4660   45.0540 S   0  0  0  0  0  0  0  0  0  0  0  0
   57.6430   28.3410   44.4660 O   0  0  0  0  0  0  0  0  0  0  0  0
   59.5980   29.7800   44.1360 O   0  0  0  0  0  0  0  0  0  0  0  0
   57.4370   30.8830   45.2250 N   0  0  0  0  0  0  0  0  0  0  0  0
   57.9520   31.7430   46.3110 C   0  0  0  0  0  0  0  0  0  0  0  0
   57.3790   33.1630   46.2060 C   0  0  0  0  0  0  0  0  0  0  0  0
   57.7280   33.8260   44.9200 N   0  0  0  0  0  0  0  0  0  0  0  0
   58.7600   34.8690   45.0900 C   0  0  0  0  0  0  0  0  0  0  0  0
   59.6850   34.5130   46.2220 C   0  0  0  0  0  0  0  0  0  0  0  0
   59.3770   34.9290   47.5430 C   0  0  0  0  0  0  0  0  0  0  0  0
   60.2270   34.5950   48.6140 C   0  0  0  0  0  0  0  0  0  0  0  0
   61.3660   33.8490   48.3300 C   0  0  0  0  0  0  0  0  0  0  0  0
   61.6670   33.4480   47.0680 C   0  0  0  0  0  0  0  0  0  0  0  0
   60.8550   33.7570   45.9810 C   0  0  0  0  0  0  0  0  0  0  0  0
   62.8460   32.7290   47.0830 O   0  0  0  0  0  0  0  0  0  0  0  0
   63.3140   32.6720   48.4390 C   0  0  0  0  0  0  0  0  0  0  0  0
   62.3410   33.4020   49.2010 O   0  0  0  0  0  0  0  0  0  0  0  0
   58.1230   32.8750   43.8580 C   0  0  0  0  0  0  0  0  0  0  0  0
   57.2900   31.5870   43.9290 C   0  0  0  0  0  0  0  0  0  0  0  0
   59.5420   29.8890   47.5440 C   0  0  0  0  0  0  0  0  0  0  0  0
   56.3380   31.0260   51.5770 N   0  0  0  0  0  0  0  0  0  0  0  0
   55.6410   30.1180   52.4860 C   0  0  0  0  0  0  0  0  0  0  0  0
   54.1620   30.2870   52.3660 C   0  0  0  0  0  0  0  0  0  0  0  0
   53.5760   31.3790   51.8260 N   0  0  0  0  0  0  0  0  0  0  0  0
   52.2200   31.2580   51.7870 C   0  0  0  0  0  0  0  0  0  0  0  0
   51.3650   32.3240   51.2470 C   0  0  0  0  0  0  0  0  0  0  0  0
   50.9280   33.2280   52.0080 O   0  0  0  0  0  0  0  0  0  0  0  0
   51.0310   32.3440   49.8990 O   0  0  0  0  0  0  0  0  0  0  0  0
   51.7190   30.0570   52.2860 C   0  0  0  0  0  0  0  0  0  0  0  0
   53.0260   29.1230   52.7880 S   0  0  0  0  0  0  0  0  0  0  0  0
   58.0357   31.2995   49.2462 H   0  0  0  0  0  0  0  0  0  0  0  0
   58.1463   32.7263   50.3591 H   0  0  0  0  0  0  0  0  0  0  0  0
   60.4524   27.7709   50.0735 H   0  0  0  0  0  0  0  0  0  0  0  0
   59.5981   26.0945   48.4340 H   0  0  0  0  0  0  0  0  0  0  0  0
   58.7229   26.8427   46.2194 H   0  0  0  0  0  0  0  0  0  0  0  0
   57.6643   31.3097   47.2803 H   0  0  0  0  0  0  0  0  0  0  0  0
   59.0471   31.7994   46.2242 H   0  0  0  0  0  0  0  0  0  0  0  0
   56.2835   33.1081   46.2884 H   0  0  0  0  0  0  0  0  0  0  0  0
   57.8169   33.7605   47.0191 H   0  0  0  0  0  0  0  0  0  0  0  0
   59.3420   34.9577   44.1608 H   0  0  0  0  0  0  0  0  0  0  0  0
   58.2664   35.8248   45.3200 H   0  0  0  0  0  0  0  0  0  0  0  0
   58.4668   35.5172   47.7317 H   0  0  0  0  0  0  0  0  0  0  0  0
   59.9980   34.9135   49.6417 H   0  0  0  0  0  0  0  0  0  0  0  0
   61.1154   33.4234   44.9657 H   0  0  0  0  0  0  0  0  0  0  0  0
   63.3717   31.6292   48.7842 H   0  0  0  0  0  0  0  0  0  0  0  0
   64.3234   33.0961   48.5450 H   0  0  0  0  0  0  0  0  0  0  0  0
   57.9692   33.3483   42.8770 H   0  0  0  0  0  0  0  0  0  0  0  0
   59.1820   32.6136   44.0004 H   0  0  0  0  0  0  0  0  0  0  0  0
   56.2302   31.8447   43.7865 H   0  0  0  0  0  0  0  0  0  0  0  0
   57.6533   30.9117   43.1403 H   0  0  0  0  0  0  0  0  0  0  0  0
   59.5086   30.9609   47.2991 H   0  0  0  0  0  0  0  0  0  0  0  0
   55.8040   31.7630   51.0620 H   0  0  0  0  0  0  0  0  0  0  0  0
   55.9078   29.0806   52.2357 H   0  0  0  0  0  0  0  0  0  0  0  0
   55.9418   30.3497   53.5184 H   0  0  0  0  0  0  0  0  0  0  0  0
   50.6584   29.7706   52.3418 H   0  0  0  0  0  0  0  0  0  0  0  0
  1  2  2  0
  2  3  1  0
  3  4  1  0
  4  5  1  0
  5  6  2  0
  5  7  1  0
  7  8  2  0
  8  9  1  0
  9 10  2  0
 10 11  1  0
 11 12  1  0
 12 13  2  0
 12 14  2  0
 12 15  1  0
 15 16  1  0
 16 17  1  0
 17 18  1  0
 18 19  1  0
 19 20  1  0
 20 21  2  0
 21 22  1  0
 22 23  2  0
 23 24  1  0
 24 25  2  0
 24 26  1  0
 26 27  1  0
 27 28  1  0
 18 29  1  0
 29 30  1  0
 11 31  2  0
  2 32  1  0
 32 33  1  0
 33 34  1  0
 34 35  2  0
 35 36  1  0
 36 37  1  0
 37 38  2  0
 37 39  1  0
 36 40  2  0
 40 41  1  0
 31  7  1  0
 41 34  1  0
 30 15  1  0
 25 20  1  0
 28 23  1  0
  3 42  1  0
  3 43  1  0
  8 44  1  0
  9 45  1  0
 10 46  1  0
 16 47  1  0
 16 48  1  0
 17 49  1  0
 17 50  1  0
 19 51  1  0
 19 52  1  0
 21 53  1  0
 22 54  1  0
 25 55  1  0
 27 56  1  0
 27 57  1  0
 29 58  1  0
 29 59  1  0
 30 60  1  0
 30 61  1  0
 31 62  1  0
 32 63  1  0
 33 64  1  0
 33 65  1  0
 40 66  1  0
M  CHG  2   4  -1  39  -1
M  END
>  <UniqueID>  (33) 
31

>  <SMILES>  (33) 
O=C(C[N-]C(=O)c1cccc(S(=O)(=O)N2CCN(Cc3ccc4c(c3)OCO4)CC2)c1)NCc1nc(C(=O)[O-])cs1

>  <Energy>  (33) 
136.15760067645184

>  <Genealogy>  (33) 
O=C(C[N-]C(=O)c1cccc(S(=O)(=O)N2CCN(Cc3ccc4c(c3)OCO4)CC2)c1)NCc1nc(C(=O)[O-])cs1 (protonated)
O=C(C[N-]C(=O)c1cccc(S(=O)(=O)N2CCN(Cc3ccc4c(c3)OCO4)CC2)c1)NCc1nc(C(=O)[O-])cs1 (3D coordinates assigned)
O=C(C[N-]C(=O)c1cccc(S(=O)(=O)N2CCN(Cc3ccc4c(c3)OCO4)CC2)c1)NCc1nc(C(=O)[O-])cs1 (nonaromatic ring conformer: 136.15760067645184 kcal/mol)

>  <smiles>  (33) 
O=C(CNC(=O)c1cccc(S(=O)(=O)N2CCN(Cc3ccc4c(c3)OCO4)CC2)c1)NCc1nc(C(=O)O)cs1

>  <score_type>  (33) 
oracle

>  <origin>  (33) 
adg

>  <m_score__min__energy>  (33) 
-17.260000000000002

>  <m_primary>  (33) 
energy

$$$$
33:0
     RDKit          3D

 37 39  0  0  0  0  0  0  0  0999 V2000
   57.8220   30.6015   46.9269 H   0  0  0  0  0  0  0  0  0  0  0  0
   57.7900   31.1670   45.9840 C   0  0  0  0  0  0  0  0  0  0  0  0
   58.0280   32.5040   45.9880 N   0  0  0  0  0  0  0  0  0  0  0  0
   57.9830   33.2520   44.8490 C   0  0  0  0  0  0  0  0  0  0  0  0
   58.2310   34.5300   44.8720 N   0  0  0  0  0  0  0  0  0  0  0  0
   59.3530   35.1560   45.5150 C   0  0  0  0  0  0  0  0  0  0  0  0
   59.6960   36.3090   45.1420 O   0  0  0  0  0  0  0  0  0  0  0  0
   60.0850   34.5180   46.6310 C   0  0  0  0  0  0  0  0  0  0  0  0
   61.3490   34.0580   46.4170 N   0  0  0  0  0  0  0  0  0  0  0  0
   62.0870   33.4770   47.4040 C   0  0  0  0  0  0  0  0  0  0  0  0
   63.4660   32.9800   47.1100 C   0  0  0  0  0  0  0  0  0  0  0  0
   63.9961   32.7890   48.0547 H   0  0  0  0  0  0  0  0  0  0  0  0
   63.4038   32.0477   46.5295 H   0  0  0  0  0  0  0  0  0  0  0  0
   64.0128   33.7376   46.5295 H   0  0  0  0  0  0  0  0  0  0  0  0
   61.5460   33.3450   48.6880 C   0  0  0  0  0  0  0  0  0  0  0  0
   62.1290   32.8691   49.4903 H   0  0  0  0  0  0  0  0  0  0  0  0
   60.2600   33.8230   48.9400 C   0  0  0  0  0  0  0  0  0  0  0  0
   59.8261   33.7302   49.9465 H   0  0  0  0  0  0  0  0  0  0  0  0
   59.5240   34.4190   47.9150 C   0  0  0  0  0  0  0  0  0  0  0  0
   58.5138   34.8077   48.1108 H   0  0  0  0  0  0  0  0  0  0  0  0
   57.6920   32.6320   43.6300 C   0  0  0  0  0  0  0  0  0  0  0  0
   57.6619   33.2211   42.7015 H   0  0  0  0  0  0  0  0  0  0  0  0
   57.4400   31.2590   43.6010 C   0  0  0  0  0  0  0  0  0  0  0  0
   57.1909   30.7681   42.6487 H   0  0  0  0  0  0  0  0  0  0  0  0
   57.5030   30.5040   44.7790 C   0  0  0  0  0  0  0  0  0  0  0  0
   57.2180   29.0950   44.7390 N   0  0  0  0  0  0  0  0  0  0  0  0
   56.9680   28.6760   43.8140 H   0  0  0  0  0  0  0  0  0  0  0  0
   57.3860   28.2120   45.8610 C   0  0  0  0  0  0  0  0  0  0  0  0
   58.1160   28.5540   46.8310 O   0  0  0  0  0  0  0  0  0  0  0  0
   56.7520   26.8820   45.8790 C   0  0  0  0  0  0  0  0  0  0  0  0
   55.4180   26.7070   45.9920 N   0  0  0  0  0  0  0  0  0  0  0  0
   55.2400   25.3740   45.9550 C   0  0  0  0  0  0  0  0  0  0  0  0
   53.9930   24.7690   46.0430 O   0  0  0  0  0  0  0  0  0  0  0  0
   56.4300   24.6970   45.8160 C   0  0  0  0  0  0  0  0  0  0  0  0
   56.5717   23.6078   45.7571 H   0  0  0  0  0  0  0  0  0  0  0  0
   57.4060   25.6660   45.7660 C   0  0  0  0  0  0  0  0  0  0  0  0
   58.4890   25.5068   45.6579 H   0  0  0  0  0  0  0  0  0  0  0  0
  1  2  1  0
  2  3  1  0
  3  4  1  0
  4  5  2  0
  5  6  1  0
  6  7  2  0
  6  8  1  0
  8  9  2  0
  9 10  1  0
 10 11  1  0
 11 12  1  0
 11 13  1  0
 11 14  1  0
 10 15  2  0
 15 16  1  0
 15 17  1  0
 17 18  1  0
 17 19  2  0
 19 20  1  0
  4 21  1  0
 21 22  1  0
 21 23  2  0
 23 24  1  0
 23 25  1  0
 25 26  1  0
 26 27  1  0
 26 28  1  0
 28 29  2  0
 28 30  1  0
 30 31  1  0
 31 32  1  0
 32 33  1  0
 32 34  2  0
 34 35  1  0
 34 36  1  0
 36 37  1  0
 25  2  2  0
 36 30  2  0
 19  8  1  0
M  CHG  3   3  -1  31  -1  33  -1
M  END
>  <UniqueID>  (34) 
32

>  <SMILES>  (34) 
Cc1cccc(C(=O)/N=c2/ccc(NC(=O)c3ccc([O-])[n-]3)c[n-]2)n1

>  <Energy>  (34) 
75.21207159966936

>  <Genealogy>  (34) 
Cc1cccc(C(=O)N=c2ccc(NC(=O)c3ccc([O-])[n-]3)c[n-]2)n1 (protonated)
Cc1cccc(C(=O)/N=c2/ccc(NC(=O)c3ccc([O-])[n-]3)c[n-]2)n1 (cis-trans isomerization)
Cc1cccc(C(=O)/N=c2/ccc(NC(=O)c3ccc([O-])[n-]3)c[n-]2)n1 (3D coordinates assigned)
Cc1cccc(C(=O)/N=c2/ccc(NC(=O)c3ccc([O-])[n-]3)c[n-]2)n1 (optimized conformer: 75.21207159966936 kcal/mol)

>  <smiles>  (34) 
Cc1cccc(C(=O)N=c2ccc(NC(=O)c3ccc(O)[nH]3)c[nH]2)n1

>  <score_type>  (34) 
oracle

>  <origin>  (34) 
adg

>  <m_score__min__energy>  (34) 
-13.43

>  <m_primary>  (34) 
energy

$$$$
34:0
     RDKit          3D

 45 47  0  0  0  0  0  0  0  0999 V2000
   56.6120   30.5850   42.8290 O   0  0  0  0  0  0  0  0  0  0  0  0
   56.8790   30.2930   44.0260 C   0  0  0  0  0  0  0  0  0  0  0  0
   57.3320   28.9100   44.3610 C   0  0  0  0  0  0  0  0  0  0  0  0
   56.3600   28.2940   45.2540 N   0  0  0  0  0  0  0  0  0  0  0  0
   56.5580   27.1070   46.0340 C   0  0  0  0  0  0  0  0  0  0  0  0
   57.5160   27.0830   46.8510 O   0  0  0  0  0  0  0  0  0  0  0  0
   55.7270   25.8930   45.8930 C   0  0  0  0  0  0  0  0  0  0  0  0
   56.1690   24.5790   45.8930 C   0  0  0  0  0  0  0  0  0  0  0  0
   55.0600   23.7970   45.6640 C   0  0  0  0  0  0  0  0  0  0  0  0
   54.0070   24.6740   45.5230 C   0  0  0  0  0  0  0  0  0  0  0  0
   52.6910   24.3070   45.2670 O   0  0  0  0  0  0  0  0  0  0  0  0
   54.4010   25.9530   45.6520 N   0  0  0  0  0  0  0  0  0  0  0  0
   56.6510   31.2350   45.0810 N   0  0  0  0  0  0  0  0  0  0  0  0
   57.4750   32.3650   45.4060 C   0  0  0  0  0  0  0  0  0  0  0  0
   57.7130   33.4020   44.4860 C   0  0  0  0  0  0  0  0  0  0  0  0
   58.5350   34.4740   44.8370 C   0  0  0  0  0  0  0  0  0  0  0  0
   59.1300   34.5250   46.0990 C   0  0  0  0  0  0  0  0  0  0  0  0
   59.9290   35.5780   46.4050 F   0  0  0  0  0  0  0  0  0  0  0  0
   58.9100   33.4880   47.0230 C   0  0  0  0  0  0  0  0  0  0  0  0
   59.6370   33.5300   48.6370 S   0  0  0  0  0  0  0  0  0  0  0  0
   59.6510   34.9500   49.1310 O   0  0  0  0  0  0  0  0  0  0  0  0
   58.8020   32.7200   49.5900 O   0  0  0  0  0  0  0  0  0  0  0  0
   61.2720   32.9020   48.6330 N   0  0  0  0  0  0  0  0  0  0  0  0
   61.7240   32.5580   47.2680 C   0  0  0  0  0  0  0  0  0  0  0  0
   62.7090   33.5990   46.7070 C   0  0  0  0  0  0  0  0  0  0  0  0
   63.8720   33.7610   47.5080 O   0  0  0  0  0  0  0  0  0  0  0  0
   63.6390   33.5790   48.9000 C   0  0  0  0  0  0  0  0  0  0  0  0
   62.1850   33.8280   49.3290 C   0  0  0  0  0  0  0  0  0  0  0  0
   58.0980   32.4040   46.6580 C   0  0  0  0  0  0  0  0  0  0  0  0
   57.4138   28.3156   43.4390 H   0  0  0  0  0  0  0  0  0  0  0  0
   58.3146   28.9507   44.8537 H   0  0  0  0  0  0  0  0  0  0  0  0
   57.2011   24.2307   46.0457 H   0  0  0  0  0  0  0  0  0  0  0  0
   55.0222   22.6992   45.6056 H   0  0  0  0  0  0  0  0  0  0  0  0
   52.1340   24.8080   44.5860 H   0  0  0  0  0  0  0  0  0  0  0  0
   57.2506   33.3681   43.4885 H   0  0  0  0  0  0  0  0  0  0  0  0
   58.7152   35.2838   44.1147 H   0  0  0  0  0  0  0  0  0  0  0  0
   62.2213   31.5772   47.2953 H   0  0  0  0  0  0  0  0  0  0  0  0
   60.8408   32.5384   46.6126 H   0  0  0  0  0  0  0  0  0  0  0  0
   63.0194   33.2795   45.7012 H   0  0  0  0  0  0  0  0  0  0  0  0
   62.1865   34.5669   46.6915 H   0  0  0  0  0  0  0  0  0  0  0  0
   63.9046   32.5443   49.1626 H   0  0  0  0  0  0  0  0  0  0  0  0
   64.2571   34.3219   49.4255 H   0  0  0  0  0  0  0  0  0  0  0  0
   62.0971   33.6743   50.4147 H   0  0  0  0  0  0  0  0  0  0  0  0
   61.9101   34.8604   49.0671 H   0  0  0  0  0  0  0  0  0  0  0  0
   57.9493   31.5744   47.3649 H   0  0  0  0  0  0  0  0  0  0  0  0
  1  2  2  0
  2  3  1  0
  3  4  1  0
  4  5  1  0
  5  6  2  0
  5  7  1  0
  7  8  2  0
  8  9  1  0
  9 10  2  0
 10 11  1  0
 10 12  1  0
  2 13  1  0
 13 14  1  0
 14 15  2  0
 15 16  1  0
 16 17  2  0
 17 18  1  0
 17 19  1  0
 19 20  1  0
 20 21  2  0
 20 22  2  0
 20 23  1  0
 23 24  1  0
 24 25  1  0
 25 26  1  0
 26 27  1  0
 27 28  1  0
 19 29  2  0
 12  7  1  0
 29 14  1  0
 28 23  1  0
  3 30  1  0
  3 31  1  0
  8 32  1  0
  9 33  1  0
 11 34  1  0
 15 35  1  0
 16 36  1  0
 24 37  1  0
 24 38  1  0
 25 39  1  0
 25 40  1  0
 27 41  1  0
 27 42  1  0
 28 43  1  0
 28 44  1  0
 29 45  1  0
M  CHG  3   4  -1  12  -1  13  -1
M  END
>  <UniqueID>  (35) 
33

>  <SMILES>  (35) 
O=C(C[N-]C(=O)c1ccc(O)[n-]1)[N-]c1ccc(F)c(S(=O)(=O)N2CCOCC2)c1

>  <Energy>  (35) 
87.58507568925721

>  <Genealogy>  (35) 
O=C(C[N-]C(=O)c1ccc(O)[n-]1)[N-]c1ccc(F)c(S(=O)(=O)N2CCOCC2)c1 (protonated)
O=C(C[N-]C(=O)c1ccc(O)[n-]1)[N-]c1ccc(F)c(S(=O)(=O)N2CCOCC2)c1 (3D coordinates assigned)
O=C(C[N-]C(=O)c1ccc(O)[n-]1)[N-]c1ccc(F)c(S(=O)(=O)N2CCOCC2)c1 (nonaromatic ring conformer: 87.58507568925721 kcal/mol)

>  <smiles>  (35) 
O=C(CNC(=O)c1ccc(O)[nH]1)Nc1ccc(F)c(S(=O)(=O)N2CCOCC2)c1

>  <score_type>  (35) 
oracle

>  <origin>  (35) 
adg

>  <m_score__min__energy>  (35) 
-14.68

>  <m_primary>  (35) 
energy

$$$$
35:0
     RDKit          3D

 49 52  0  0  0  0  0  0  0  0999 V2000
   56.2007   31.2162   42.6757 H   0  0  0  0  0  0  0  0  0  0  0  0
   56.3610   30.1290   42.6280 C   0  0  0  0  0  0  0  0  0  0  0  0
   56.0189   29.5606   41.7506 H   0  0  0  0  0  0  0  0  0  0  0  0
   56.9700   29.5000   43.6340 C   0  0  0  0  0  0  0  0  0  0  0  0
   57.4270   30.0670   44.8210 C   0  0  0  0  0  0  0  0  0  0  0  0
   57.3760   31.4770   45.2710 C   0  0  0  0  0  0  0  0  0  0  0  0
   56.3950   32.1740   44.8920 O   0  0  0  0  0  0  0  0  0  0  0  0
   58.3420   32.0640   46.1850 N   0  0  0  0  0  0  0  0  0  0  0  0
   58.0440   31.7540   47.1420 H   0  0  0  0  0  0  0  0  0  0  0  0
   58.2530   33.5520   46.1580 C   0  0  0  0  0  0  0  0  0  0  0  0
   57.8506   33.8580   45.1811 H   0  0  0  0  0  0  0  0  0  0  0  0
   57.6015   33.8499   46.9927 H   0  0  0  0  0  0  0  0  0  0  0  0
   59.6040   34.2570   46.3690 C   0  0  0  0  0  0  0  0  0  0  0  0
   60.1339   34.3203   45.4072 H   0  0  0  0  0  0  0  0  0  0  0  0
   59.4217   35.2661   46.7671 H   0  0  0  0  0  0  0  0  0  0  0  0
   60.4260   33.5100   47.3250 N   0  0  0  0  0  0  0  0  0  0  0  0
   60.8650   34.1280   48.5500 C   0  0  0  0  0  0  0  0  0  0  0  0
   60.1070   34.9480   49.1360 O   0  0  0  0  0  0  0  0  0  0  0  0
   62.1810   33.8130   49.1450 C   0  0  0  0  0  0  0  0  0  0  0  0
   62.3750   33.8810   50.5350 C   0  0  0  0  0  0  0  0  0  0  0  0
   61.5436   34.1832   51.1888 H   0  0  0  0  0  0  0  0  0  0  0  0
   63.6180   33.5670   51.0920 C   0  0  0  0  0  0  0  0  0  0  0  0
   63.7640   33.6302   52.1804 H   0  0  0  0  0  0  0  0  0  0  0  0
   64.6750   33.1730   50.2680 C   0  0  0  0  0  0  0  0  0  0  0  0
   65.6542   32.9313   50.7070 H   0  0  0  0  0  0  0  0  0  0  0  0
   64.4880   33.0860   48.8860 C   0  0  0  0  0  0  0  0  0  0  0  0
   65.3193   32.7707   48.2382 H   0  0  0  0  0  0  0  0  0  0  0  0
   63.2460   33.3990   48.3250 C   0  0  0  0  0  0  0  0  0  0  0  0
   63.1013   33.3211   47.2374 H   0  0  0  0  0  0  0  0  0  0  0  0
   60.6390   32.0720   47.1090 C   0  0  0  0  0  0  0  0  0  0  0  0
   61.6863   31.9022   46.8185 H   0  0  0  0  0  0  0  0  0  0  0  0
   60.4090   31.5375   48.0425 H   0  0  0  0  0  0  0  0  0  0  0  0
   59.7180   31.5450   46.0010 C   0  0  0  0  0  0  0  0  0  0  0  0
   60.1018   31.8730   45.0237 H   0  0  0  0  0  0  0  0  0  0  0  0
   59.6950   30.4462   46.0476 H   0  0  0  0  0  0  0  0  0  0  0  0
   57.9290   29.0270   45.5810 C   0  0  0  0  0  0  0  0  0  0  0  0
   58.3667   29.0984   46.5876 H   0  0  0  0  0  0  0  0  0  0  0  0
   57.7720   27.8780   44.8250 C   0  0  0  0  0  0  0  0  0  0  0  0
   58.1770   26.6600   45.2130 C   0  0  0  0  0  0  0  0  0  0  0  0
   59.1883   26.3371   44.9247 H   0  0  0  0  0  0  0  0  0  0  0  0
   57.3530   25.7270   46.0010 C   0  0  0  0  0  0  0  0  0  0  0  0
   57.8590   24.6670   46.6540 N   0  0  0  0  0  0  0  0  0  0  0  0
   56.7890   24.1540   47.2970 C   0  0  0  0  0  0  0  0  0  0  0  0
   56.8590   23.1250   48.0180 O   0  0  0  0  0  0  0  0  0  0  0  0
   55.6380   24.8360   47.1170 N   0  0  0  0  0  0  0  0  0  0  0  0
   56.0130   25.8360   46.3040 C   0  0  0  0  0  0  0  0  0  0  0  0
   55.1600   26.8520   45.8890 O   0  0  0  0  0  0  0  0  0  0  0  0
   57.1970   28.1710   43.6380 N   0  0  0  0  0  0  0  0  0  0  0  0
   56.9910   27.5150   42.8530 H   0  0  0  0  0  0  0  0  0  0  0  0
  1  2  1  0
  2  3  1  0
  2  4  2  0
  4  5  1  0
  5  6  1  0
  6  7  2  0
  6  8  1  0
  8  9  1  0
  8 10  1  0
 10 11  1  0
 10 12  1  0
 10 13  1  0
 13 14  1  0
 13 15  1  0
 13 16  1  0
 16 17  1  0
 17 18  2  0
 17 19  1  0
 19 20  2  0
 20 21  1  0
 20 22  1  0
 22 23  1  0
 22 24  2  0
 24 25  1  0
 24 26  1  0
 26 27  1  0
 26 28  2  0
 28 29  1  0
 16 30  1  0
 30 31  1  0
 30 32  1  0
 30 33  1  0
 33 34  1  0
 33 35  1  0
  5 36  2  0
 36 37  1  0
 36 38  1  0
 38 39  2  0
 39 40  1  0
 39 41  1  0
 41 42  1  0
 42 43  1  0
 43 44  2  0
 43 45  1  0
 45 46  1  0
 46 47  1  0
 38 48  1  0
 48 49  1  0
 48  4  1  0
 33  8  1  0
 46 41  2  0
 28 19  1  0
M  CHG  4   8   1  42  -1  45  -1  47  -1
M  END
>  <UniqueID>  (36) 
34

>  <SMILES>  (36) 
C=c1[nH]/c(=C\c2[n-]c(=O)[n-]c2[O-])cc1C(=O)[NH+]1CCN(C(=O)c2ccccc2)CC1

>  <Energy>  (36) 
137.08183873120066

>  <Genealogy>  (36) 
C=c1[nH]c(=Cc2[n-]c(=O)[n-]c2[O-])cc1C(=O)[NH+]1CCN(C(=O)c2ccccc2)CC1 (protonated)
C=c1[nH]/c(=C\c2[n-]c(=O)[n-]c2[O-])cc1C(=O)[NH+]1CCN(C(=O)c2ccccc2)CC1 (cis-trans isomerization)
C=c1[nH]/c(=C\c2[n-]c(=O)[n-]c2[O-])cc1C(=O)[NH+]1CCN(C(=O)c2ccccc2)CC1 (3D coordinates assigned)
C=c1[nH]/c(=C\c2[n-]c(=O)[n-]c2[O-])cc1C(=O)[NH+]1CCN(C(=O)c2ccccc2)CC1 (nonaromatic ring conformer: 137.08183873120066 kcal/mol)

>  <smiles>  (36) 
C=c1[nH]c(=Cc2[nH]c(=O)[nH]c2O)cc1C(=O)N1CCN(C(=O)c2ccccc2)CC1

>  <score_type>  (36) 
oracle

>  <origin>  (36) 
adg

>  <m_score__min__energy>  (36) 
-16.969999999999999

>  <m_primary>  (36) 
energy

$$$$
36:0
     RDKit          3D

 66 70  0  0  0  0  0  0  0  0999 V2000
   58.3680   28.6910   43.8840 O   0  0  0  0  0  0  0  0  0  0  0  0
   57.8650   29.2330   44.9080 C   0  0  0  0  0  0  0  0  0  0  0  0
   57.1910   28.4290   45.8820 N   0  0  0  0  0  0  0  0  0  0  0  0
   57.5060   27.0350   46.2350 C   0  0  1  0  0  0  0  0  0  0  0  0
   58.4200   26.9410   47.4730 C   0  0  0  0  0  0  0  0  0  0  0  0
   58.6860   28.5750   48.2620 S   0  0  0  0  0  0  0  0  0  0  0  0
   60.3300   28.2450   48.9980 C   0  0  0  0  0  0  0  0  0  0  0  0
   60.5740   29.1110   50.2060 C   0  0  0  0  0  0  0  0  0  0  0  0
   61.8340   29.7000   50.4190 C   0  0  0  0  0  0  0  0  0  0  0  0
   62.0520   30.5150   51.5360 C   0  0  0  0  0  0  0  0  0  0  0  0
   61.0170   30.7420   52.4510 C   0  0  0  0  0  0  0  0  0  0  0  0
   59.7690   30.1460   52.2560 C   0  0  0  0  0  0  0  0  0  0  0  0
   59.5440   29.3370   51.1360 C   0  0  0  0  0  0  0  0  0  0  0  0
   56.2410   26.2380   46.4030 C   0  0  0  0  0  0  0  0  0  0  0  0
   55.1490   26.7110   45.9910 O   0  0  0  0  0  0  0  0  0  0  0  0
   56.2690   24.9710   47.0680 N   0  0  0  0  0  0  0  0  0  0  0  0
   55.4410   23.8360   46.6740 C   0  0  0  0  0  0  0  0  0  0  0  0
   56.0490   23.1350   45.4910 C   0  0  0  0  0  0  0  0  0  0  0  0
   57.3670   22.6630   45.5530 C   0  0  0  0  0  0  0  0  0  0  0  0
   57.9330   22.0210   44.4470 C   0  0  0  0  0  0  0  0  0  0  0  0
   57.1780   21.8860   43.2810 C   0  0  0  0  0  0  0  0  0  0  0  0
   55.9070   22.3700   43.2300 N   0  0  0  0  0  0  0  0  0  0  0  0
   55.3340   22.9920   44.2940 C   0  0  0  0  0  0  0  0  0  0  0  0
   58.0510   30.6920   45.1090 C   0  0  0  0  0  0  0  0  0  0  0  0
   56.9970   31.5370   44.6990 C   0  0  0  0  0  0  0  0  0  0  0  0
   57.0530   32.9140   44.9170 C   0  0  0  0  0  0  0  0  0  0  0  0
   58.1560   33.4760   45.5540 C   0  0  0  0  0  0  0  0  0  0  0  0
   59.2090   32.6610   45.9690 C   0  0  0  0  0  0  0  0  0  0  0  0
   59.1950   31.2760   45.7280 C   0  0  0  0  0  0  0  0  0  0  0  0
   60.5590   30.3240   46.4450 S   0  0  0  0  0  0  0  0  0  0  0  0
   61.2900   31.6580   47.4280 C   0  0  0  0  0  0  0  0  0  0  0  0
   62.6130   32.0340   47.1520 C   0  0  0  0  0  0  0  0  0  0  0  0
   63.2440   33.0350   47.8970 C   0  0  0  0  0  0  0  0  0  0  0  0
   62.5700   33.6620   48.9500 C   0  0  0  0  0  0  0  0  0  0  0  0
   61.2680   33.2570   49.2850 C   0  0  0  0  0  0  0  0  0  0  0  0
   60.5900   33.8320   50.3700 C   0  0  0  0  0  0  0  0  0  0  0  0
   59.3050   33.3890   50.7050 C   0  0  0  0  0  0  0  0  0  0  0  0
   58.7150   32.3710   49.9530 C   0  0  0  0  0  0  0  0  0  0  0  0
   59.3850   31.8220   48.9030 N   0  0  0  0  0  0  0  0  0  0  0  0
   60.6290   32.2390   48.5360 C   0  0  0  0  0  0  0  0  0  0  0  0
   58.0756   26.5957   45.4028 H   0  0  0  0  0  0  0  0  0  0  0  0
   57.9555   26.2649   48.2059 H   0  0  0  0  0  0  0  0  0  0  0  0
   59.3983   26.5617   47.1429 H   0  0  0  0  0  0  0  0  0  0  0  0
   60.3822   27.1882   49.2986 H   0  0  0  0  0  0  0  0  0  0  0  0
   61.0990   28.4747   48.2458 H   0  0  0  0  0  0  0  0  0  0  0  0
   62.6510   29.5193   49.7049 H   0  0  0  0  0  0  0  0  0  0  0  0
   63.0373   30.9775   51.6950 H   0  0  0  0  0  0  0  0  0  0  0  0
   61.1867   31.3898   53.3236 H   0  0  0  0  0  0  0  0  0  0  0  0
   58.9613   30.3127   52.9840 H   0  0  0  0  0  0  0  0  0  0  0  0
   58.5570   28.8761   50.9828 H   0  0  0  0  0  0  0  0  0  0  0  0
   55.3668   23.1311   47.5152 H   0  0  0  0  0  0  0  0  0  0  0  0
   54.4400   24.2003   46.3996 H   0  0  0  0  0  0  0  0  0  0  0  0
   57.9566   22.7975   46.4719 H   0  0  0  0  0  0  0  0  0  0  0  0
   58.9592   21.6278   44.4954 H   0  0  0  0  0  0  0  0  0  0  0  0
   57.6111   21.3874   42.4014 H   0  0  0  0  0  0  0  0  0  0  0  0
   54.3089   23.3832   44.2157 H   0  0  0  0  0  0  0  0  0  0  0  0
   56.1180   31.1031   44.1999 H   0  0  0  0  0  0  0  0  0  0  0  0
   56.2243   33.5566   44.5850 H   0  0  0  0  0  0  0  0  0  0  0  0
   58.1969   34.5611   45.7297 H   0  0  0  0  0  0  0  0  0  0  0  0
   60.0652   33.1096   46.4939 H   0  0  0  0  0  0  0  0  0  0  0  0
   63.1610   31.5350   46.3392 H   0  0  0  0  0  0  0  0  0  0  0  0
   64.2752   33.3307   47.6538 H   0  0  0  0  0  0  0  0  0  0  0  0
   63.0586   34.4701   49.5141 H   0  0  0  0  0  0  0  0  0  0  0  0
   61.0676   34.6303   50.9571 H   0  0  0  0  0  0  0  0  0  0  0  0
   58.7656   33.8382   51.5519 H   0  0  0  0  0  0  0  0  0  0  0  0
   57.7073   32.0122   50.2095 H   0  0  0  0  0  0  0  0  0  0  0  0
  1  2  2  0
  2  3  1  0
  3  4  1  0
  4  5  1  0
  5  6  1  0
  6  7  1  0
  7  8  1  0
  8  9  2  0
  9 10  1  0
 10 11  2  0
 11 12  1  0
 12 13  2  0
  4 14  1  0
 14 15  2  0
 14 16  1  0
 16 17  1  0
 17 18  1  0
 18 19  2  0
 19 20  1  0
 20 21  2  0
 21 22  1  0
 22 23  2  0
  2 24  1  0
 24 25  2  0
 25 26  1  0
 26 27  2  0
 27 28  1  0
 28 29  2  0
 29 30  1  0
 30 31  1  0
 31 32  2  0
 32 33  1  0
 33 34  2  0
 34 35  1  0
 35 36  2  0
 36 37  1  0
 37 38  2  0
 38 39  1  0
 39 40  2  0
 13  8  1  0
 23 18  1  0
 29 24  1  0
 40 31  1  0
 40 35  1  0
  4 41  1  6
  5 42  1  0
  5 43  1  0
  7 44  1  0
  7 45  1  0
  9 46  1  0
 10 47  1  0
 11 48  1  0
 12 49  1  0
 13 50  1  0
 17 51  1  0
 17 52  1  0
 19 53  1  0
 20 54  1  0
 21 55  1  0
 23 56  1  0
 25 57  1  0
 26 58  1  0
 27 59  1  0
 28 60  1  0
 32 61  1  0
 33 62  1  0
 34 63  1  0
 36 64  1  0
 37 65  1  0
 38 66  1  0
M  CHG  2   3  -1  16  -1
M  END
>  <UniqueID>  (37) 
35

>  <SMILES>  (37) 
O=C([N-][C@@H](CSCc1ccccc1)C(=O)[N-]Cc1cccnc1)c1ccccc1Sc1cccc2cccnc12

>  <Energy>  (37) 
76.00977224431365

>  <Genealogy>  (37) 
O=C([N-]C(CSCc1ccccc1)C(=O)[N-]Cc1cccnc1)c1ccccc1Sc1cccc2cccnc12 (protonated)
O=C([N-][C@@H](CSCc1ccccc1)C(=O)[N-]Cc1cccnc1)c1ccccc1Sc1cccc2cccnc12 (chirality)
O=C([N-][C@@H](CSCc1ccccc1)C(=O)[N-]Cc1cccnc1)c1ccccc1Sc1cccc2cccnc12 (3D coordinates assigned)
O=C([N-][C@@H](CSCc1ccccc1)C(=O)[N-]Cc1cccnc1)c1ccccc1Sc1cccc2cccnc12 (optimized conformer: 76.00977224431365 kcal/mol)

>  <smiles>  (37) 
O=C(NC(CSCc1ccccc1)C(=O)NCc1cccnc1)c1ccccc1Sc1cccc2cccnc12

>  <score_type>  (37) 
oracle

>  <origin>  (37) 
adg

>  <m_score__min__energy>  (37) 
-15.23

>  <m_primary>  (37) 
energy

$$$$
37:0
     RDKit          3D

 56 59  0  0  0  0  0  0  0  0999 V2000
   59.3160   34.5200   44.7550 C   0  0  0  0  0  0  0  0  0  0  0  0
   58.5970   33.2290   45.0060 C   0  0  0  0  0  0  0  0  0  0  0  0
   58.4670   32.5470   46.2200 C   0  0  0  0  0  0  0  0  0  0  0  0
   59.0460   32.9520   47.5160 C   0  0  0  0  0  0  0  0  0  0  0  0
   58.4150   32.7020   48.5810 O   0  0  0  0  0  0  0  0  0  0  0  0
   60.3140   33.6350   47.5800 N   0  0  0  0  0  0  0  0  0  0  0  0
   61.4350   33.1650   46.7550 C   0  0  0  0  0  0  0  0  0  0  0  0
   62.7960   33.5400   47.3760 C   0  0  0  0  0  0  0  0  0  0  0  0
   62.8190   33.4250   48.8530 N   0  0  0  0  0  0  0  0  0  0  0  0
   63.3130   32.1320   49.3740 C   0  0  0  0  0  0  0  0  0  0  0  0
   62.2050   31.2430   49.9610 C   0  0  0  0  0  0  0  0  0  0  0  0
   61.1240   31.0910   48.9690 N   0  0  0  0  0  0  0  0  0  0  0  0
   60.4860   29.7680   49.0340 C   0  0  0  0  0  0  0  0  0  0  0  0
   60.0680   29.3100   47.6600 C   0  0  0  0  0  0  0  0  0  0  0  0
   60.7700   29.7540   46.5260 C   0  0  0  0  0  0  0  0  0  0  0  0
   60.4080   29.3030   45.2530 C   0  0  0  0  0  0  0  0  0  0  0  0
   59.3430   28.4120   45.1010 C   0  0  0  0  0  0  0  0  0  0  0  0
   58.6350   27.9700   46.2240 C   0  0  0  0  0  0  0  0  0  0  0  0
   58.9940   28.4170   47.5000 C   0  0  0  0  0  0  0  0  0  0  0  0
   61.6430   33.9570   49.5880 C   0  0  0  0  0  0  0  0  0  0  0  0
   60.5930   34.5720   48.6660 C   0  0  0  0  0  0  0  0  0  0  0  0
   57.7750   31.3960   46.0450 N   0  0  0  0  0  0  0  0  0  0  0  0
   57.4790   31.3370   44.7330 C   0  0  0  0  0  0  0  0  0  0  0  0
   56.7950   30.3200   44.0670 C   0  0  0  0  0  0  0  0  0  0  0  0
   56.3220   29.2400   44.7360 F   0  0  0  0  0  0  0  0  0  0  0  0
   56.6170   30.4460   42.6790 C   0  0  0  0  0  0  0  0  0  0  0  0
   57.1240   31.5710   41.9920 C   0  0  0  0  0  0  0  0  0  0  0  0
   57.8100   32.5810   42.6880 C   0  0  0  0  0  0  0  0  0  0  0  0
   57.9690   32.4320   44.0670 C   0  0  0  0  0  0  0  0  0  0  0  0
   59.5764   34.9875   45.7160 H   0  0  0  0  0  0  0  0  0  0  0  0
   60.2343   34.3229   44.1824 H   0  0  0  0  0  0  0  0  0  0  0  0
   58.6650   35.1970   44.1824 H   0  0  0  0  0  0  0  0  0  0  0  0
   61.3749   32.0706   46.6619 H   0  0  0  0  0  0  0  0  0  0  0  0
   61.3624   33.6487   45.7697 H   0  0  0  0  0  0  0  0  0  0  0  0
   63.5647   32.8710   46.9619 H   0  0  0  0  0  0  0  0  0  0  0  0
   62.9869   34.5947   47.1288 H   0  0  0  0  0  0  0  0  0  0  0  0
   63.7968   31.5868   48.5502 H   0  0  0  0  0  0  0  0  0  0  0  0
   64.0125   32.3592   50.1920 H   0  0  0  0  0  0  0  0  0  0  0  0
   62.6193   30.2542   50.2072 H   0  0  0  0  0  0  0  0  0  0  0  0
   61.8044   31.7084   50.8736 H   0  0  0  0  0  0  0  0  0  0  0  0
   60.3880   31.8080   49.1650 H   0  0  0  0  0  0  0  0  0  0  0  0
   61.1989   29.0436   49.4548 H   0  0  0  0  0  0  0  0  0  0  0  0
   59.5918   29.8375   49.6709 H   0  0  0  0  0  0  0  0  0  0  0  0
   61.6069   30.4586   46.6405 H   0  0  0  0  0  0  0  0  0  0  0  0
   60.9631   29.6506   44.3692 H   0  0  0  0  0  0  0  0  0  0  0  0
   59.0609   28.0579   44.0985 H   0  0  0  0  0  0  0  0  0  0  0  0
   57.7950   27.2701   46.1033 H   0  0  0  0  0  0  0  0  0  0  0  0
   58.4344   28.0688   48.3807 H   0  0  0  0  0  0  0  0  0  0  0  0
   61.1778   33.1330   50.1489 H   0  0  0  0  0  0  0  0  0  0  0  0
   62.0039   34.7543   50.2544 H   0  0  0  0  0  0  0  0  0  0  0  0
   59.6707   34.7659   49.2333 H   0  0  0  0  0  0  0  0  0  0  0  0
   60.9666   35.5212   48.2543 H   0  0  0  0  0  0  0  0  0  0  0  0
   57.5660   30.6670   46.7620 H   0  0  0  0  0  0  0  0  0  0  0  0
   56.0793   29.6633   42.1238 H   0  0  0  0  0  0  0  0  0  0  0  0
   56.9810   31.6573   40.9048 H   0  0  0  0  0  0  0  0  0  0  0  0
   58.2091   33.4612   42.1628 H   0  0  0  0  0  0  0  0  0  0  0  0
  1  2  1  0
  2  3  2  0
  3  4  1  0
  4  5  2  0
  4  6  1  0
  6  7  1  0
  7  8  1  0
  8  9  1  0
  9 10  1  0
 10 11  1  0
 11 12  1  0
 12 13  1  0
 13 14  1  0
 14 15  2  0
 15 16  1  0
 16 17  2  0
 17 18  1  0
 18 19  2  0
  9 20  1  0
 20 21  1  0
  3 22  1  0
 22 23  1  0
 23 24  2  0
 24 25  1  0
 24 26  1  0
 26 27  2  0
 27 28  1  0
 28 29  2  0
 29  2  1  0
 21  6  1  0
 29 23  1  0
 19 14  1  0
  1 30  1  0
  1 31  1  0
  1 32  1  0
  7 33  1  0
  7 34  1  0
  8 35  1  0
  8 36  1  0
 10 37  1  0
 10 38  1  0
 11 39  1  0
 11 40  1  0
 12 41  1  0
 13 42  1  0
 13 43  1  0
 15 44  1  0
 16 45  1  0
 17 46  1  0
 18 47  1  0
 19 48  1  0
 20 49  1  0
 20 50  1  0
 21 51  1  0
 21 52  1  0
 22 53  1  0
 26 54  1  0
 27 55  1  0
 28 56  1  0
M  END
>  <UniqueID>  (38) 
36

>  <SMILES>  (38) 
Cc1c(C(=O)N2CCN(CCNCc3ccccc3)CC2)[nH]c2c(F)cccc12

>  <Energy>  (38) 
103.95263283222509

>  <Genealogy>  (38) 
Cc1c(C(=O)N2CCN(CCNCc3ccccc3)CC2)[nH]c2c(F)cccc12 (3D coordinates assigned)
Cc1c(C(=O)N2CCN(CCNCc3ccccc3)CC2)[nH]c2c(F)cccc12 (nonaromatic ring conformer: 103.95263283222509 kcal/mol)

>  <smiles>  (38) 
Cc1c(C(=O)N2CCN(CCNCc3ccccc3)CC2)[nH]c2c(F)cccc12

>  <score_type>  (38) 
oracle

>  <origin>  (38) 
adg

>  <m_score__min__energy>  (38) 
-8.6199999999999992

>  <m_primary>  (38) 
energy

$$$$
38:0
     RDKit          3D

 57 60  0  0  0  0  0  0  0  0999 V2000
   56.4590   30.1250   43.0260 O   0  0  0  0  0  0  0  0  0  0  0  0
   56.9040   30.3060   44.1930 C   0  0  0  0  0  0  0  0  0  0  0  0
   56.6430   31.5300   44.8960 N   0  0  0  0  0  0  0  0  0  0  0  0
   57.5630   32.5240   45.3740 C   0  0  0  0  0  0  0  0  0  0  0  0
   57.9420   33.5430   44.4890 C   0  0  0  0  0  0  0  0  0  0  0  0
   58.8460   34.5300   44.8850 C   0  0  0  0  0  0  0  0  0  0  0  0
   59.3830   34.5110   46.1730 C   0  0  0  0  0  0  0  0  0  0  0  0
   59.0060   33.5080   47.0760 C   0  0  0  0  0  0  0  0  0  0  0  0
   59.6820   33.4860   48.7020 S   0  0  0  0  0  0  0  0  0  0  0  0
   58.8350   32.6150   49.5860 O   0  0  0  0  0  0  0  0  0  0  0  0
   59.6730   34.8810   49.2590 O   0  0  0  0  0  0  0  0  0  0  0  0
   61.3210   32.8870   48.6520 N   0  0  0  0  0  0  0  0  0  0  0  0
   62.3050   33.9730   48.6620 C   0  0  0  0  0  0  0  0  0  0  0  0
   63.5090   33.5020   47.8470 C   0  0  0  0  0  0  0  0  0  0  0  0
   63.0680   32.2170   47.1670 C   0  0  0  0  0  0  0  0  0  0  0  0
   61.5760   32.1220   47.4300 C   0  0  0  0  0  0  0  0  0  0  0  0
   58.0810   32.5300   46.6840 C   0  0  0  0  0  0  0  0  0  0  0  0
   57.6720   29.2280   44.8620 C   0  0  0  0  0  0  0  0  0  0  0  0
   59.0350   29.3970   45.1600 C   0  0  0  0  0  0  0  0  0  0  0  0
   59.7620   28.3670   45.7620 C   0  0  0  0  0  0  0  0  0  0  0  0
   59.1420   27.1510   46.0580 C   0  0  0  0  0  0  0  0  0  0  0  0
   57.7840   26.9650   45.7720 C   0  0  0  0  0  0  0  0  0  0  0  0
   57.0060   25.4140   46.1110 S   0  0  0  0  0  0  0  0  0  0  0  0
   57.4190   24.9400   47.4760 O   0  0  0  0  0  0  0  0  0  0  0  0
   55.5160   25.6000   46.1140 O   0  0  0  0  0  0  0  0  0  0  0  0
   57.4460   24.1990   44.9310 N   0  0  0  0  0  0  0  0  0  0  0  0
   56.5770   24.2890   43.7430 C   0  0  0  0  0  0  0  0  0  0  0  0
   56.6340   22.9840   42.9360 C   0  0  0  0  0  0  0  0  0  0  0  0
   56.2080   21.8350   43.6580 O   0  0  0  0  0  0  0  0  0  0  0  0
   56.2990   21.9770   45.0700 C   0  0  0  0  0  0  0  0  0  0  0  0
   57.4910   22.8430   45.5190 C   0  0  0  0  0  0  0  0  0  0  0  0
   57.0510   28.0080   45.1920 C   0  0  0  0  0  0  0  0  0  0  0  0
   57.5227   33.5650   43.4723 H   0  0  0  0  0  0  0  0  0  0  0  0
   59.1356   35.3239   44.1809 H   0  0  0  0  0  0  0  0  0  0  0  0
   60.1029   35.2841   46.4796 H   0  0  0  0  0  0  0  0  0  0  0  0
   61.4740   32.2670   49.4850 H   0  0  0  0  0  0  0  0  0  0  0  0
   61.8730   34.8768   48.2075 H   0  0  0  0  0  0  0  0  0  0  0  0
   62.6036   34.2189   49.6918 H   0  0  0  0  0  0  0  0  0  0  0  0
   63.7838   34.2581   47.0968 H   0  0  0  0  0  0  0  0  0  0  0  0
   64.3923   33.3423   48.4829 H   0  0  0  0  0  0  0  0  0  0  0  0
   63.2673   32.2640   46.0862 H   0  0  0  0  0  0  0  0  0  0  0  0
   63.6107   31.3405   47.5508 H   0  0  0  0  0  0  0  0  0  0  0  0
   61.0134   32.5517   46.5881 H   0  0  0  0  0  0  0  0  0  0  0  0
   61.2571   31.0752   47.5416 H   0  0  0  0  0  0  0  0  0  0  0  0
   57.7580   31.7631   47.4034 H   0  0  0  0  0  0  0  0  0  0  0  0
   59.5331   30.3473   44.9175 H   0  0  0  0  0  0  0  0  0  0  0  0
   60.8251   28.5141   46.0034 H   0  0  0  0  0  0  0  0  0  0  0  0
   59.7222   26.3370   46.5171 H   0  0  0  0  0  0  0  0  0  0  0  0
   55.5410   24.4707   44.0650 H   0  0  0  0  0  0  0  0  0  0  0  0
   56.9268   25.1161   43.1078 H   0  0  0  0  0  0  0  0  0  0  0  0
   55.9882   23.0958   42.0526 H   0  0  0  0  0  0  0  0  0  0  0  0
   57.6894   22.8198   42.6731 H   0  0  0  0  0  0  0  0  0  0  0  0
   55.3717   22.4431   45.4346 H   0  0  0  0  0  0  0  0  0  0  0  0
   56.4500   20.9715   45.4898 H   0  0  0  0  0  0  0  0  0  0  0  0
   57.4725   22.9310   46.6153 H   0  0  0  0  0  0  0  0  0  0  0  0
   58.4139   22.3544   45.1734 H   0  0  0  0  0  0  0  0  0  0  0  0
   55.9778   27.8726   44.9919 H   0  0  0  0  0  0  0  0  0  0  0  0
  1  2  2  0
  2  3  1  0
  3  4  1  0
  4  5  2  0
  5  6  1  0
  6  7  2  0
  7  8  1  0
  8  9  1  0
  9 10  2  0
  9 11  2  0
  9 12  1  0
 12 13  1  0
 13 14  1  0
 14 15  1  0
 15 16  1  0
  8 17  2  0
  2 18  1  0
 18 19  2  0
 19 20  1  0
 20 21  2  0
 21 22  1  0
 22 23  1  0
 23 24  2  0
 23 25  2  0
 23 26  1  0
 26 27  1  0
 27 28  1  0
 28 29  1  0
 29 30  1  0
 30 31  1  0
 22 32  2  0
 17  4  1  0
 32 18  1  0
 16 12  1  0
 31 26  1  0
  5 33  1  0
  6 34  1  0
  7 35  1  0
 12 36  1  0
 13 37  1  0
 13 38  1  0
 14 39  1  0
 14 40  1  0
 15 41  1  0
 15 42  1  0
 16 43  1  0
 16 44  1  0
 17 45  1  0
 19 46  1  0
 20 47  1  0
 21 48  1  0
 27 49  1  0
 27 50  1  0
 28 51  1  0
 28 52  1  0
 30 53  1  0
 30 54  1  0
 31 55  1  0
 31 56  1  0
 32 57  1  0
M  CHG  2   3  -1  12   1
M  END
>  <UniqueID>  (39) 
37

>  <SMILES>  (39) 
O=C([N-]c1cccc(S(=O)(=O)[NH+]2CCCC2)c1)c1cccc(S(=O)(=O)N2CCOCC2)c1

>  <Energy>  (39) 
76.50700946622658

>  <Genealogy>  (39) 
O=C([N-]c1cccc(S(=O)(=O)[NH+]2CCCC2)c1)c1cccc(S(=O)(=O)N2CCOCC2)c1 (protonated)
O=C([N-]c1cccc(S(=O)(=O)[NH+]2CCCC2)c1)c1cccc(S(=O)(=O)N2CCOCC2)c1 (3D coordinates assigned)
O=C([N-]c1cccc(S(=O)(=O)[NH+]2CCCC2)c1)c1cccc(S(=O)(=O)N2CCOCC2)c1 (nonaromatic ring conformer: 76.50700946622658 kcal/mol)

>  <smiles>  (39) 
O=C(Nc1cccc(S(=O)(=O)N2CCCC2)c1)c1cccc(S(=O)(=O)N2CCOCC2)c1

>  <score_type>  (39) 
oracle

>  <origin>  (39) 
adg

>  <m_score__min__energy>  (39) 
-11.58

>  <m_primary>  (39) 
energy

$$$$
39:0
     RDKit          3D

 47 51  0  0  0  0  0  0  0  0999 V2000
   59.6810   28.4440   49.1620 O   0  0  0  0  0  0  0  0  0  0  0  0
   59.2650   29.5230   48.6550 C   0  0  0  0  0  0  0  0  0  0  0  0
   58.8170   29.5500   47.2920 N   0  0  0  0  0  0  0  0  0  0  0  0
   58.6380   28.3540   46.5170 C   0  0  0  0  0  0  0  0  0  0  0  0
   59.5510   27.2990   46.6930 C   0  0  0  0  0  0  0  0  0  0  0  0
   59.3830   26.0940   46.0080 C   0  0  0  0  0  0  0  0  0  0  0  0
   58.3040   25.9300   45.1400 C   0  0  0  0  0  0  0  0  0  0  0  0
   57.4000   26.9760   44.9370 C   0  0  0  0  0  0  0  0  0  0  0  0
   57.5680   28.2070   45.5960 C   0  0  0  0  0  0  0  0  0  0  0  0
   56.6600   29.3240   45.2560 C   0  0  0  0  0  0  0  0  0  0  0  0
   55.5430   29.0940   44.7160 O   0  0  0  0  0  0  0  0  0  0  0  0
   57.0270   30.6350   45.5740 O   0  0  0  0  0  0  0  0  0  0  0  0
   57.7870   31.4570   44.6950 C   0  0  0  0  0  0  0  0  0  0  0  0
   58.7710   32.2510   45.4930 C   0  0  0  0  0  0  0  0  0  0  0  0
   58.5290   33.6120   45.7720 C   0  0  0  0  0  0  0  0  0  0  0  0
   59.4570   34.3190   46.5470 C   0  0  0  0  0  0  0  0  0  0  0  0
   59.2730   35.5380   46.8110 O   0  0  0  0  0  0  0  0  0  0  0  0
   60.5550   33.6620   47.0130 N   0  0  0  0  0  0  0  0  0  0  0  0
   61.5100   34.2160   47.7560 N   0  0  0  0  0  0  0  0  0  0  0  0
   62.4690   33.3210   48.1040 C   0  0  0  0  0  0  0  0  0  0  0  0
   63.6930   33.6770   48.8890 C   0  0  0  0  0  0  0  0  0  0  0  0
   63.6660   33.2780   50.3580 C   0  0  0  0  0  0  0  0  0  0  0  0
   64.4900   32.4720   49.3650 C   0  0  0  0  0  0  0  0  0  0  0  0
   62.1620   31.7820   47.4610 S   0  0  0  0  0  0  0  0  0  0  0  0
   60.7500   32.3560   46.7510 C   0  0  0  0  0  0  0  0  0  0  0  0
   59.8760   31.6400   46.0030 N   0  0  0  0  0  0  0  0  0  0  0  0
   59.2600   30.7410   49.4780 C   0  0  0  0  0  0  0  0  0  0  0  0
   59.7760   30.8830   50.7530 C   0  0  0  0  0  0  0  0  0  0  0  0
   59.5450   32.1940   51.1050 C   0  0  0  0  0  0  0  0  0  0  0  0
   58.9020   32.7700   50.0310 C   0  0  0  0  0  0  0  0  0  0  0  0
   58.7480   31.8810   49.0780 O   0  0  0  0  0  0  0  0  0  0  0  0
   58.8010   30.4630   46.7840 H   0  0  0  0  0  0  0  0  0  0  0  0
   60.4043   27.4241   47.3758 H   0  0  0  0  0  0  0  0  0  0  0  0
   60.1018   25.2740   46.1530 H   0  0  0  0  0  0  0  0  0  0  0  0
   58.1641   24.9744   44.6135 H   0  0  0  0  0  0  0  0  0  0  0  0
   56.5485   26.8352   44.2550 H   0  0  0  0  0  0  0  0  0  0  0  0
   58.3239   30.8250   43.9723 H   0  0  0  0  0  0  0  0  0  0  0  0
   57.1151   32.1385   44.1526 H   0  0  0  0  0  0  0  0  0  0  0  0
   57.6267   34.1099   45.3875 H   0  0  0  0  0  0  0  0  0  0  0  0
   63.9172   34.6073   48.3465 H   0  0  0  0  0  0  0  0  0  0  0  0
   64.1687   33.9063   51.1080 H   0  0  0  0  0  0  0  0  0  0  0  0
   62.8756   33.0420   51.0857 H   0  0  0  0  0  0  0  0  0  0  0  0
   65.5886   32.5173   49.3974 H   0  0  0  0  0  0  0  0  0  0  0  0
   64.5420   31.4114   49.0777 H   0  0  0  0  0  0  0  0  0  0  0  0
   60.2687   30.1093   51.3601 H   0  0  0  0  0  0  0  0  0  0  0  0
   59.8184   32.6826   52.0519 H   0  0  0  0  0  0  0  0  0  0  0  0
   58.5682   33.8169   49.9801 H   0  0  0  0  0  0  0  0  0  0  0  0
  1  2  2  0
  2  3  1  0
  3  4  1  0
  4  5  2  0
  5  6  1  0
  6  7  2  0
  7  8  1  0
  8  9  2  0
  9 10  1  0
 10 11  2  0
 10 12  1  0
 12 13  1  0
 13 14  1  0
 14 15  2  0
 15 16  1  0
 16 17  2  0
 16 18  1  0
 18 19  1  0
 19 20  2  0
 20 21  1  0
 21 22  1  0
 22 23  1  0
 20 24  1  0
 24 25  1  0
 25 26  2  0
  2 27  1  0
 27 28  2  0
 28 29  1  0
 29 30  2  0
 30 31  1  0
  9  4  1  0
 26 14  1  0
 31 27  1  0
 25 18  1  0
 23 21  1  0
  3 32  1  0
  5 33  1  0
  6 34  1  0
  7 35  1  0
  8 36  1  0
 13 37  1  0
 13 38  1  0
 15 39  1  0
 21 40  1  0
 22 41  1  0
 22 42  1  0
 23 43  1  0
 23 44  1  0
 28 45  1  0
 29 46  1  0
 30 47  1  0
M  END
>  <UniqueID>  (40) 
38

>  <SMILES>  (40) 
O=C(Nc1ccccc1C(=O)OCc1cc(=O)n2nc(C3CC3)sc2n1)c1ccco1

>  <Energy>  (40) 
385.09947089961395

>  <Genealogy>  (40) 
O=C(Nc1ccccc1C(=O)OCc1cc(=O)n2nc(C3CC3)sc2n1)c1ccco1 (3D coordinates assigned)
O=C(Nc1ccccc1C(=O)OCc1cc(=O)n2nc(C3CC3)sc2n1)c1ccco1 (nonaromatic ring conformer: 385.09947089961395 kcal/mol)

>  <smiles>  (40) 
O=C(Nc1ccccc1C(=O)OCc1cc(=O)n2nc(C3CC3)sc2n1)c1ccco1

>  <score_type>  (40) 
oracle

>  <origin>  (40) 
adg

>  <m_score__min__energy>  (40) 
-9.4900000000000002

>  <m_primary>  (40) 
energy

$$$$
40:0
     RDKit          3D

 56 59  0  0  0  0  0  0  0  0999 V2000
   59.7290   26.7030   48.1050 C   0  0  0  0  0  0  0  0  0  0  0  0
   59.8400   27.9040   47.5170 C   0  0  0  0  0  0  0  0  0  0  0  0
   59.4380   28.2330   46.2140 C   0  0  0  0  0  0  0  0  0  0  0  0
   58.6730   27.5640   45.3260 C   0  0  0  0  0  0  0  0  0  0  0  0
   57.4040   26.8760   45.6320 C   0  0  0  0  0  0  0  0  0  0  0  0
   57.3150   25.6300   46.1390 N   0  0  0  0  0  0  0  0  0  0  0  0
   55.9940   25.4800   46.3730 C   0  0  0  0  0  0  0  0  0  0  0  0
   55.5030   24.4220   46.8520 O   0  0  0  0  0  0  0  0  0  0  0  0
   55.2370   26.5570   46.0750 N   0  0  0  0  0  0  0  0  0  0  0  0
   56.1430   27.4420   45.6180 C   0  0  0  0  0  0  0  0  0  0  0  0
   55.8160   28.7230   45.1870 O   0  0  0  0  0  0  0  0  0  0  0  0
   59.9870   29.4790   45.9480 C   0  0  0  0  0  0  0  0  0  0  0  0
   60.6370   29.8890   47.0950 C   0  0  0  0  0  0  0  0  0  0  0  0
   61.3570   31.1980   47.2520 C   0  0  0  0  0  0  0  0  0  0  0  0
   60.5280   28.9480   48.0620 N   0  0  0  0  0  0  0  0  0  0  0  0
   61.1450   29.0290   49.3940 C   0  0  0  0  0  0  0  0  0  0  0  0
   60.1850   29.6420   50.3860 C   0  0  0  0  0  0  0  0  0  0  0  0
   59.2720   28.9110   50.8510 O   0  0  0  0  0  0  0  0  0  0  0  0
   60.1900   31.0410   50.7160 N   0  0  0  0  0  0  0  0  0  0  0  0
   61.4010   31.8650   50.7350 C   0  0  0  0  0  0  0  0  0  0  0  0
   61.2770   33.0070   49.7060 C   0  0  0  0  0  0  0  0  0  0  0  0
   59.8680   33.2690   49.3300 N   0  0  0  0  0  0  0  0  0  0  0  0
   59.7470   34.5700   48.6460 C   0  0  0  0  0  0  0  0  0  0  0  0
   59.1560   34.3880   47.2700 C   0  0  0  0  0  0  0  0  0  0  0  0
   58.1050   33.4800   47.0520 C   0  0  0  0  0  0  0  0  0  0  0  0
   57.5800   33.3060   45.7720 C   0  0  0  0  0  0  0  0  0  0  0  0
   58.0970   34.0370   44.7040 C   0  0  0  0  0  0  0  0  0  0  0  0
   59.1380   34.9490   44.9100 C   0  0  0  0  0  0  0  0  0  0  0  0
   59.6690   35.1230   46.1910 C   0  0  0  0  0  0  0  0  0  0  0  0
   58.9820   33.1860   50.5100 C   0  0  0  0  0  0  0  0  0  0  0  0
   58.9170   31.7270   50.9870 C   0  0  0  0  0  0  0  0  0  0  0  0
   60.0807   26.5616   49.1376 H   0  0  0  0  0  0  0  0  0  0  0  0
   59.2863   25.8599   47.5544 H   0  0  0  0  0  0  0  0  0  0  0  0
   59.0258   27.5286   44.2847 H   0  0  0  0  0  0  0  0  0  0  0  0
   55.7080   28.9370   44.2040 H   0  0  0  0  0  0  0  0  0  0  0  0
   59.9175   30.0354   45.0016 H   0  0  0  0  0  0  0  0  0  0  0  0
   61.4805   31.4225   48.3217 H   0  0  0  0  0  0  0  0  0  0  0  0
   62.3458   31.1321   46.7746 H   0  0  0  0  0  0  0  0  0  0  0  0
   60.7719   31.9979   46.7746 H   0  0  0  0  0  0  0  0  0  0  0  0
   61.4151   28.0170   49.7298 H   0  0  0  0  0  0  0  0  0  0  0  0
   62.0434   29.6607   49.3318 H   0  0  0  0  0  0  0  0  0  0  0  0
   61.5351   32.2926   51.7396 H   0  0  0  0  0  0  0  0  0  0  0  0
   62.2682   31.2391   50.4776 H   0  0  0  0  0  0  0  0  0  0  0  0
   61.7044   33.9231   50.1398 H   0  0  0  0  0  0  0  0  0  0  0  0
   61.8189   32.7045   48.7978 H   0  0  0  0  0  0  0  0  0  0  0  0
   59.0947   35.2304   49.2362 H   0  0  0  0  0  0  0  0  0  0  0  0
   60.7477   35.0161   48.5483 H   0  0  0  0  0  0  0  0  0  0  0  0
   57.6950   32.9043   47.8949 H   0  0  0  0  0  0  0  0  0  0  0  0
   56.7591   32.5929   45.6055 H   0  0  0  0  0  0  0  0  0  0  0  0
   57.6846   33.8963   43.6940 H   0  0  0  0  0  0  0  0  0  0  0  0
   59.5379   35.5283   44.0647 H   0  0  0  0  0  0  0  0  0  0  0  0
   60.4899   35.8370   46.3533 H   0  0  0  0  0  0  0  0  0  0  0  0
   59.3810   33.8197   51.3157 H   0  0  0  0  0  0  0  0  0  0  0  0
   57.9735   33.5339   50.2419 H   0  0  0  0  0  0  0  0  0  0  0  0
   58.7183   31.7080   52.0687 H   0  0  0  0  0  0  0  0  0  0  0  0
   58.1111   31.2103   50.4452 H   0  0  0  0  0  0  0  0  0  0  0  0
  1  2  2  0
  2  3  1  0
  3  4  2  3
  4  5  1  0
  5  6  1  0
  6  7  1  0
  7  8  2  0
  7  9  1  0
  9 10  1  0
 10 11  1  0
  3 12  1  0
 12 13  2  0
 13 14  1  0
 13 15  1  0
 15 16  1  0
 16 17  1  0
 17 18  2  0
 17 19  1  0
 19 20  1  0
 20 21  1  0
 21 22  1  0
 22 23  1  0
 23 24  1  0
 24 25  2  0
 25 26  1  0
 26 27  2  0
 27 28  1  0
 28 29  2  0
 22 30  1  0
 30 31  1  0
 15  2  1  0
 31 19  1  0
 10  5  2  0
 29 24  1  0
  1 32  1  0
  1 33  1  0
  4 34  1  0
 11 35  1  0
 12 36  1  0
 14 37  1  0
 14 38  1  0
 14 39  1  0
 16 40  1  0
 16 41  1  0
 20 42  1  0
 20 43  1  0
 21 44  1  0
 21 45  1  0
 23 46  1  0
 23 47  1  0
 25 48  1  0
 26 49  1  0
 27 50  1  0
 28 51  1  0
 29 52  1  0
 30 53  1  0
 30 54  1  0
 31 55  1  0
 31 56  1  0
M  CHG  2   6  -1   9  -1
M  END
>  <UniqueID>  (41) 
39

>  <SMILES>  (41) 
C=c1c(=Cc2[n-]c(=O)[n-]c2O)cc(C)n1CC(=O)N1CCN(Cc2ccccc2)CC1

>  <Energy>  (41) 
136.59937945433109

>  <Genealogy>  (41) 
C=c1c(=Cc2[n-]c(=O)[n-]c2O)cc(C)n1CC(=O)N1CCN(Cc2ccccc2)CC1 (protonated)
C=c1c(=Cc2[n-]c(=O)[n-]c2O)cc(C)n1CC(=O)N1CCN(Cc2ccccc2)CC1 (3D coordinates assigned)
C=c1c(=Cc2[n-]c(=O)[n-]c2O)cc(C)n1CC(=O)N1CCN(Cc2ccccc2)CC1 (nonaromatic ring conformer: 136.59937945433109 kcal/mol)

>  <smiles>  (41) 
C=c1c(=Cc2[nH]c(=O)[nH]c2O)cc(C)n1CC(=O)N1CCN(Cc2ccccc2)CC1

>  <score_type>  (41) 
oracle

>  <origin>  (41) 
adg

>  <m_score__min__energy>  (41) 
-13.73

>  <m_primary>  (41) 
energy

$$$$
41:0
     RDKit          3D

 60 64  0  0  0  0  0  0  0  0999 V2000
   58.9495   29.4215   48.5260 H   0  0  0  0  0  0  0  0  0  0  0  0
   58.7430   28.7110   47.7120 C   0  0  0  0  0  0  0  0  0  0  0  0
   58.9463   27.6391   47.8527 H   0  0  0  0  0  0  0  0  0  0  0  0
   58.2430   29.1520   46.5470 C   0  0  0  0  0  0  0  0  0  0  0  0
   57.9280   28.3840   45.4230 C   0  0  0  0  0  0  0  0  0  0  0  0
   58.0870   27.0550   45.2800 C   0  0  0  0  0  0  0  0  0  0  0  0
   58.7580   26.7019   44.4831 H   0  0  0  0  0  0  0  0  0  0  0  0
   57.4220   26.0390   46.1200 C   0  0  0  0  0  0  0  0  0  0  0  0
   58.1100   25.1250   46.8270 N   0  0  0  0  0  0  0  0  0  0  0  0
   57.1510   24.4540   47.5010 C   0  0  0  0  0  0  0  0  0  0  0  0
   57.4100   23.5010   48.2800 O   0  0  0  0  0  0  0  0  0  0  0  0
   55.8940   24.8950   47.2850 N   0  0  0  0  0  0  0  0  0  0  0  0
   56.0770   25.9080   46.4210 C   0  0  0  0  0  0  0  0  0  0  0  0
   55.0440   26.7160   45.9680 O   0  0  0  0  0  0  0  0  0  0  0  0
   57.4700   29.1950   44.4450 N   0  0  0  0  0  0  0  0  0  0  0  0
   57.5010   30.4250   44.9930 C   0  0  0  0  0  0  0  0  0  0  0  0
   57.1450   31.4580   44.3660 O   0  0  0  0  0  0  0  0  0  0  0  0
   57.9550   30.4450   46.2650 N   0  0  0  0  0  0  0  0  0  0  0  0
   58.1470   31.6480   47.0870 C   0  0  0  0  0  0  0  0  0  0  0  0
   58.1990   32.5306   46.4325 H   0  0  0  0  0  0  0  0  0  0  0  0
   57.3008   31.7454   47.7831 H   0  0  0  0  0  0  0  0  0  0  0  0
   59.4230   31.5400   47.8780 C   0  0  0  0  0  0  0  0  0  0  0  0
   60.6680   31.6700   47.2400 C   0  0  0  0  0  0  0  0  0  0  0  0
   60.7112   31.8246   46.1518 H   0  0  0  0  0  0  0  0  0  0  0  0
   61.8520   31.6040   47.9800 C   0  0  0  0  0  0  0  0  0  0  0  0
   62.8206   31.7086   47.4692 H   0  0  0  0  0  0  0  0  0  0  0  0
   61.8160   31.4050   49.3720 C   0  0  0  0  0  0  0  0  0  0  0  0
   63.0390   31.3290   50.1340 N   0  0  0  0  0  0  0  0  0  0  0  0
   63.0190   30.6390   51.4320 C   0  0  0  0  0  0  0  0  0  0  0  0
   62.2932   31.1402   52.0893 H   0  0  0  0  0  0  0  0  0  0  0  0
   62.7380   29.5904   51.2546 H   0  0  0  0  0  0  0  0  0  0  0  0
   64.3900   30.6520   52.1100 C   0  0  0  0  0  0  0  0  0  0  0  0
   64.5433   31.6218   52.6060 H   0  0  0  0  0  0  0  0  0  0  0  0
   64.4350   29.8442   52.8553 H   0  0  0  0  0  0  0  0  0  0  0  0
   65.4460   30.4450   51.1020 N   0  0  0  0  0  0  0  0  0  0  0  0
   65.1660   29.6340   50.4970 H   0  0  0  0  0  0  0  0  0  0  0  0
   66.7500   30.0670   51.7080 C   0  0  0  0  0  0  0  0  0  0  0  0
   67.5068   30.7929   51.3758 H   0  0  0  0  0  0  0  0  0  0  0  0
   66.6017   30.0698   52.7980 H   0  0  0  0  0  0  0  0  0  0  0  0
   67.2330   28.6770   51.3410 C   0  0  0  0  0  0  0  0  0  0  0  0
   67.0080   27.5920   52.2060 C   0  0  0  0  0  0  0  0  0  0  0  0
   66.4646   27.7486   53.1495 H   0  0  0  0  0  0  0  0  0  0  0  0
   67.4700   26.3170   51.8750 C   0  0  0  0  0  0  0  0  0  0  0  0
   67.2972   25.4750   52.5614 H   0  0  0  0  0  0  0  0  0  0  0  0
   68.1500   26.1090   50.6760 C   0  0  0  0  0  0  0  0  0  0  0  0
   68.5242   25.1061   50.4228 H   0  0  0  0  0  0  0  0  0  0  0  0
   68.3560   27.1730   49.7970 C   0  0  0  0  0  0  0  0  0  0  0  0
   68.8834   27.0058   48.8463 H   0  0  0  0  0  0  0  0  0  0  0  0
   67.8930   28.4510   50.1230 C   0  0  0  0  0  0  0  0  0  0  0  0
   68.0467   29.2840   49.4213 H   0  0  0  0  0  0  0  0  0  0  0  0
   65.5570   31.6290   50.2250 C   0  0  0  0  0  0  0  0  0  0  0  0
   66.0378   32.4392   50.7928 H   0  0  0  0  0  0  0  0  0  0  0  0
   66.1478   31.3279   49.3473 H   0  0  0  0  0  0  0  0  0  0  0  0
   64.1930   32.1390   49.7030 C   0  0  0  0  0  0  0  0  0  0  0  0
   64.0474   33.1671   50.0660 H   0  0  0  0  0  0  0  0  0  0  0  0
   64.2311   32.0754   48.6055 H   0  0  0  0  0  0  0  0  0  0  0  0
   60.5650   31.2840   50.0070 C   0  0  0  0  0  0  0  0  0  0  0  0
   60.5190   31.1321   51.0955 H   0  0  0  0  0  0  0  0  0  0  0  0
   59.3820   31.3550   49.2680 C   0  0  0  0  0  0  0  0  0  0  0  0
   58.4121   31.2653   49.7791 H   0  0  0  0  0  0  0  0  0  0  0  0
  1  2  1  0
  2  3  1  0
  2  4  2  0
  4  5  1  0
  5  6  2  0
  6  7  1  0
  6  8  1  0
  8  9  1  0
  9 10  1  0
 10 11  2  0
 10 12  1  0
 12 13  1  0
 13 14  1  0
  5 15  1  0
 15 16  1  0
 16 17  2  0
 16 18  1  0
 18 19  1  0
 19 20  1  0
 19 21  1  0
 19 22  1  0
 22 23  2  0
 23 24  1  0
 23 25  1  0
 25 26  1  0
 25 27  2  0
 27 28  1  0
 28 29  1  0
 29 30  1  0
 29 31  1  0
 29 32  1  0
 32 33  1  0
 32 34  1  0
 32 35  1  0
 35 36  1  0
 35 37  1  0
 37 38  1  0
 37 39  1  0
 37 40  1  0
 40 41  2  0
 41 42  1  0
 41 43  1  0
 43 44  1  0
 43 45  2  0
 45 46  1  0
 45 47  1  0
 47 48  1  0
 47 49  2  0
 49 50  1  0
 35 51  1  0
 51 52  1  0
 51 53  1  0
 51 54  1  0
 54 55  1  0
 54 56  1  0
 27 57  1  0
 57 58  1  0
 57 59  2  0
 59 60  1  0
 18  4  1  0
 59 22  1  0
 13  8  2  0
 54 28  1  0
 49 40  1  0
M  CHG  5   9  -1  12  -1  14  -1  15  -1  35   1
M  END
>  <UniqueID>  (42) 
40

>  <SMILES>  (42) 
C=c1/c(=C/c2[n-]c(=O)[n-]c2[O-])[n-]c(=O)n1Cc1ccc(N2CC[NH+](Cc3ccccc3)CC2)cc1

>  <Energy>  (42) 
146.61300749094897

>  <Genealogy>  (42) 
C=c1c(=Cc2[n-]c(=O)[n-]c2[O-])[n-]c(=O)n1Cc1ccc(N2CC[NH+](Cc3ccccc3)CC2)cc1 (protonated)
C=c1/c(=C/c2[n-]c(=O)[n-]c2[O-])[n-]c(=O)n1Cc1ccc(N2CC[NH+](Cc3ccccc3)CC2)cc1 (cis-trans isomerization)
C=c1/c(=C/c2[n-]c(=O)[n-]c2[O-])[n-]c(=O)n1Cc1ccc(N2CC[NH+](Cc3ccccc3)CC2)cc1 (3D coordinates assigned)
C=c1/c(=C/c2[n-]c(=O)[n-]c2[O-])[n-]c(=O)n1Cc1ccc(N2CC[NH+](Cc3ccccc3)CC2)cc1 (nonaromatic ring conformer: 146.61300749094897 kcal/mol)

>  <smiles>  (42) 
C=c1c(=Cc2[nH]c(=O)[nH]c2O)[nH]c(=O)n1Cc1ccc(N2CCN(Cc3ccccc3)CC2)cc1

>  <score_type>  (42) 
oracle

>  <origin>  (42) 
adg

>  <m_score__min__energy>  (42) 
-17.100000000000001

>  <m_primary>  (42) 
energy

$$$$
42:0
     RDKit          3D

 47 49  0  0  0  0  0  0  0  0999 V2000
   54.4420   28.5840   53.5990 C   0  0  0  0  0  0  0  0  0  0  0  0
   54.9970   29.5880   52.9020 C   0  0  0  0  0  0  0  0  0  0  0  0
   54.3500   30.7400   52.4200 C   0  0  0  0  0  0  0  0  0  0  0  0
   53.0430   31.0580   52.3410 C   0  0  0  0  0  0  0  0  0  0  0  0
   52.2710   31.2240   51.1000 C   0  0  0  0  0  0  0  0  0  0  0  0
   52.2370   30.3050   50.1190 N   0  0  0  0  0  0  0  0  0  0  0  0
   51.3180   30.7980   49.2600 C   0  0  0  0  0  0  0  0  0  0  0  0
   51.0120   30.2150   48.1880 O   0  0  0  0  0  0  0  0  0  0  0  0
   50.7430   31.9570   49.6480 N   0  0  0  0  0  0  0  0  0  0  0  0
   51.3440   32.2050   50.8230 C   0  0  0  0  0  0  0  0  0  0  0  0
   51.0340   33.2900   51.6360 O   0  0  0  0  0  0  0  0  0  0  0  0
   55.3530   31.5950   51.9970 C   0  0  0  0  0  0  0  0  0  0  0  0
   56.5470   30.9300   52.1760 C   0  0  0  0  0  0  0  0  0  0  0  0
   57.8730   31.5240   51.8980 C   0  0  0  0  0  0  0  0  0  0  0  0
   58.3810   32.2750   52.7750 O   0  0  0  0  0  0  0  0  0  0  0  0
   58.6000   31.2780   50.6650 N   0  0  0  0  0  0  0  0  0  0  0  0
   58.3580   29.9230   50.1140 C   0  0  0  0  0  0  0  0  0  0  0  0
   59.1510   29.7150   48.8200 C   0  0  0  0  0  0  0  0  0  0  0  0
   58.7720   30.7560   47.8470 N   0  0  0  0  0  0  0  0  0  0  0  0
   59.3080   30.5230   46.4880 C   0  0  0  0  0  0  0  0  0  0  0  0
   58.3210   29.8580   45.5160 C   0  0  0  0  0  0  0  0  0  0  0  0
   57.0880   30.5190   45.5940 O   0  0  0  0  0  0  0  0  0  0  0  0
   59.0600   32.1040   48.3720 C   0  0  0  0  0  0  0  0  0  0  0  0
   58.2710   32.3220   49.6700 C   0  0  0  0  0  0  0  0  0  0  0  0
   56.3340   29.6980   52.6900 N   0  0  0  0  0  0  0  0  0  0  0  0
   57.3730   28.7290   53.0590 C   0  0  0  0  0  0  0  0  0  0  0  0
   55.0583   27.7318   53.9215 H   0  0  0  0  0  0  0  0  0  0  0  0
   53.3709   28.6134   53.8477 H   0  0  0  0  0  0  0  0  0  0  0  0
   52.5054   31.2067   53.2891 H   0  0  0  0  0  0  0  0  0  0  0  0
   55.2223   32.6105   51.5950 H   0  0  0  0  0  0  0  0  0  0  0  0
   59.6220   31.3520   50.8960 H   0  0  0  0  0  0  0  0  0  0  0  0
   58.6705   29.1713   50.8538 H   0  0  0  0  0  0  0  0  0  0  0  0
   57.2857   29.8177   49.8924 H   0  0  0  0  0  0  0  0  0  0  0  0
   60.2279   29.7850   49.0331 H   0  0  0  0  0  0  0  0  0  0  0  0
   58.9268   28.7214   48.4046 H   0  0  0  0  0  0  0  0  0  0  0  0
   59.6043   31.4942   46.0649 H   0  0  0  0  0  0  0  0  0  0  0  0
   60.1514   29.8260   46.6010 H   0  0  0  0  0  0  0  0  0  0  0  0
   58.7116   29.9261   44.4899 H   0  0  0  0  0  0  0  0  0  0  0  0
   58.1923   28.7989   45.7840 H   0  0  0  0  0  0  0  0  0  0  0  0
   57.0510   30.9280   46.4990 H   0  0  0  0  0  0  0  0  0  0  0  0
   60.1368   32.1963   48.5767 H   0  0  0  0  0  0  0  0  0  0  0  0
   58.7639   32.8596   47.6295 H   0  0  0  0  0  0  0  0  0  0  0  0
   58.5245   33.3087   50.0850 H   0  0  0  0  0  0  0  0  0  0  0  0
   57.1960   32.2673   49.4432 H   0  0  0  0  0  0  0  0  0  0  0  0
   57.4419   28.6648   54.1550 H   0  0  0  0  0  0  0  0  0  0  0  0
   57.1153   27.7412   52.6493 H   0  0  0  0  0  0  0  0  0  0  0  0
   58.3404   29.0549   52.6493 H   0  0  0  0  0  0  0  0  0  0  0  0
  1  2  2  0
  2  3  1  0
  3  4  2  3
  4  5  1  0
  5  6  1  0
  6  7  1  0
  7  8  2  0
  7  9  1  0
  9 10  1  0
 10 11  1  0
  3 12  1  0
 12 13  2  0
 13 14  1  0
 14 15  2  0
 14 16  1  0
 16 17  1  0
 17 18  1  0
 18 19  1  0
 19 20  1  0
 20 21  1  0
 21 22  1  0
 19 23  1  0
 23 24  1  0
 13 25  1  0
 25 26  1  0
 25  2  1  0
 10  5  2  0
 24 16  1  0
  1 27  1  0
  1 28  1  0
  4 29  1  0
 12 30  1  0
 16 31  1  0
 17 32  1  0
 17 33  1  0
 18 34  1  0
 18 35  1  0
 20 36  1  0
 20 37  1  0
 21 38  1  0
 21 39  1  0
 22 40  1  0
 23 41  1  0
 23 42  1  0
 24 43  1  0
 24 44  1  0
 26 45  1  0
 26 46  1  0
 26 47  1  0
M  CHG  4   6  -1   9  -1  11  -1  16   1
M  END
>  <UniqueID>  (43) 
41

>  <SMILES>  (43) 
C=c1c(=Cc2[n-]c(=O)[n-]c2[O-])cc(C(=O)[NH+]2CCN(CCO)CC2)n1C

>  <Energy>  (43) 
130.7648352933679

>  <Genealogy>  (43) 
C=c1c(=Cc2[n-]c(=O)[n-]c2[O-])cc(C(=O)[NH+]2CCN(CCO)CC2)n1C (protonated)
C=c1c(=Cc2[n-]c(=O)[n-]c2[O-])cc(C(=O)[NH+]2CCN(CCO)CC2)n1C (3D coordinates assigned)
C=c1c(=Cc2[n-]c(=O)[n-]c2[O-])cc(C(=O)[NH+]2CCN(CCO)CC2)n1C (nonaromatic ring conformer: 130.7648352933679 kcal/mol)

>  <smiles>  (43) 
C=c1c(=Cc2[nH]c(=O)[nH]c2O)cc(C(=O)N2CCN(CCO)CC2)n1C

>  <score_type>  (43) 
oracle

>  <origin>  (43) 
adg

>  <m_score__min__energy>  (43) 
-14.56

>  <m_primary>  (43) 
energy

$$$$
43:0
     RDKit          3D

 28 29  0  0  0  0  0  0  0  0999 V2000
   59.6044   23.9443   46.1327 H   0  0  0  0  0  0  0  0  0  0  0  0
   58.6780   24.5330   46.0610 C   0  0  0  0  0  0  0  0  0  0  0  0
   58.6830   25.8500   46.3950 N   0  0  0  0  0  0  0  0  0  0  0  0
   57.5680   26.6330   46.3250 C   0  0  0  0  0  0  0  0  0  0  0  0
   57.6950   27.8900   46.6560 N   0  0  0  0  0  0  0  0  0  0  0  0
   58.6730   28.5290   47.4940 C   0  0  0  0  0  0  0  0  0  0  0  0
   58.5670   28.5020   48.7520 O   0  0  0  0  0  0  0  0  0  0  0  0
   59.7150   29.3990   46.8640 C   0  0  0  0  0  0  0  0  0  0  0  0
   59.8869   29.0642   45.8304 H   0  0  0  0  0  0  0  0  0  0  0  0
   60.6412   29.3204   47.4522 H   0  0  0  0  0  0  0  0  0  0  0  0
   59.1810   31.1470   46.8460 S   0  0  0  0  0  0  0  0  0  0  0  0
   58.1450   30.9680   45.3960 C   0  0  0  0  0  0  0  0  0  0  0  0
   57.0430   30.1760   45.4420 N   0  0  0  0  0  0  0  0  0  0  0  0
   56.2390   30.0260   44.3540 C   0  0  0  0  0  0  0  0  0  0  0  0
   55.0900   29.1840   44.4300 N   0  0  0  0  0  0  0  0  0  0  0  0
   54.1760   29.4990   44.0330 H   0  0  0  0  0  0  0  0  0  0  0  0
   55.1500   28.2340   44.8630 H   0  0  0  0  0  0  0  0  0  0  0  0
   56.5440   30.7080   43.1700 C   0  0  0  0  0  0  0  0  0  0  0  0
   55.9068   30.6027   42.2796 H   0  0  0  0  0  0  0  0  0  0  0  0
   57.6760   31.5250   43.1460 C   0  0  0  0  0  0  0  0  0  0  0  0
   57.9820   32.1550   42.1000 O   0  0  0  0  0  0  0  0  0  0  0  0
   58.4550   31.6390   44.2550 N   0  0  0  0  0  0  0  0  0  0  0  0
   56.3380   26.0310   45.9420 C   0  0  0  0  0  0  0  0  0  0  0  0
   55.1260   26.7110   45.9710 O   0  0  0  0  0  0  0  0  0  0  0  0
   56.3310   24.6820   45.5770 C   0  0  0  0  0  0  0  0  0  0  0  0
   55.3932   24.2115   45.2465 H   0  0  0  0  0  0  0  0  0  0  0  0
   57.5010   23.9280   45.6280 C   0  0  0  0  0  0  0  0  0  0  0  0
   57.4953   22.8691   45.3303 H   0  0  0  0  0  0  0  0  0  0  0  0
  1  2  1  0
  2  3  1  0
  3  4  1  0
  4  5  2  0
  5  6  1  0
  6  7  2  0
  6  8  1  0
  8  9  1  0
  8 10  1  0
  8 11  1  0
 11 12  1  0
 12 13  2  0
 13 14  1  0
 14 15  1  0
 15 16  1  0
 15 17  1  0
 14 18  2  0
 18 19  1  0
 18 20  1  0
 20 21  2  0
 20 22  1  0
  4 23  1  0
 23 24  1  0
 23 25  2  0
 25 26  1  0
 25 27  1  0
 27 28  1  0
 27  2  2  0
 22 12  1  0
M  CHG  3   3  -1  22  -1  24  -1
M  END
>  <UniqueID>  (44) 
42

>  <SMILES>  (44) 
Nc1cc(=O)[n-]c(SCC(=O)/N=c2/[n-]cccc2[O-])n1

>  <Energy>  (44) 
35.58727623372746

>  <Genealogy>  (44) 
Nc1cc(=O)[n-]c(SCC(=O)N=c2[n-]cccc2[O-])n1 (protonated)
Nc1cc(=O)[n-]c(SCC(=O)/N=c2/[n-]cccc2[O-])n1 (cis-trans isomerization)
Nc1cc(=O)[n-]c(SCC(=O)/N=c2/[n-]cccc2[O-])n1 (3D coordinates assigned)
Nc1cc(=O)[n-]c(SCC(=O)/N=c2/[n-]cccc2[O-])n1 (optimized conformer: 35.58727623372746 kcal/mol)

>  <smiles>  (44) 
Nc1cc(=O)[nH]c(SCC(=O)N=c2[nH]cccc2O)n1

>  <score_type>  (44) 
oracle

>  <origin>  (44) 
adg

>  <m_score__min__energy>  (44) 
-13.279999999999999

>  <m_primary>  (44) 
energy

$$$$
44:0
     RDKit          3D

 50 54  0  0  0  0  0  0  0  0999 V2000
   59.8360   34.2300   50.0170 C   0  0  0  0  0  0  0  0  0  0  0  0
   60.8070   33.5050   49.1830 N   0  0  0  0  0  0  0  0  0  0  0  0
   62.1680   33.6420   49.3630 C   0  0  0  0  0  0  0  0  0  0  0  0
   62.6030   34.4110   50.2660 O   0  0  0  0  0  0  0  0  0  0  0  0
   63.0640   32.9510   48.5610 N   0  0  0  0  0  0  0  0  0  0  0  0
   64.5160   33.0800   48.8080 C   0  0  0  0  0  0  0  0  0  0  0  0
   64.9570   32.1510   49.9140 C   0  0  0  0  0  0  0  0  0  0  0  0
   64.0380   31.2610   50.4960 C   0  0  0  0  0  0  0  0  0  0  0  0
   64.4450   30.3820   51.5050 C   0  0  0  0  0  0  0  0  0  0  0  0
   65.7710   30.3840   51.9420 C   0  0  0  0  0  0  0  0  0  0  0  0
   66.6920   31.2660   51.3730 C   0  0  0  0  0  0  0  0  0  0  0  0
   66.2930   32.1480   50.3630 C   0  0  0  0  0  0  0  0  0  0  0  0
   67.2050   33.0000   49.8340 F   0  0  0  0  0  0  0  0  0  0  0  0
   62.6000   32.1400   47.5480 C   0  0  0  0  0  0  0  0  0  0  0  0
   63.3890   31.5140   46.7890 O   0  0  0  0  0  0  0  0  0  0  0  0
   61.2320   32.0300   47.3640 C   0  0  0  0  0  0  0  0  0  0  0  0
   60.5690   31.3070   46.4460 N   0  0  0  0  0  0  0  0  0  0  0  0
   59.2540   31.5340   46.6860 C   0  0  0  0  0  0  0  0  0  0  0  0
   58.1540   30.9180   45.9060 C   0  0  0  0  0  0  0  0  0  0  0  0
   57.9270   29.5200   45.8970 C   0  0  0  0  0  0  0  0  0  0  0  0
   58.8430   28.5550   46.5480 C   0  0  0  0  0  0  0  0  0  0  0  0
   59.0410   28.6080   47.9370 C   0  0  0  0  0  0  0  0  0  0  0  0
   59.9010   27.6990   48.5620 C   0  0  0  0  0  0  0  0  0  0  0  0
   60.5590   26.7240   47.8060 C   0  0  0  0  0  0  0  0  0  0  0  0
   60.3500   26.6510   46.4260 C   0  0  0  0  0  0  0  0  0  0  0  0
   59.4900   27.5560   45.7990 C   0  0  0  0  0  0  0  0  0  0  0  0
   56.8460   29.0240   45.2370 N   0  0  0  0  0  0  0  0  0  0  0  0
   55.9900   29.8330   44.5660 C   0  0  0  0  0  0  0  0  0  0  0  0
   55.0020   29.3420   43.9630 O   0  0  0  0  0  0  0  0  0  0  0  0
   56.2010   31.1720   44.5400 N   0  0  0  0  0  0  0  0  0  0  0  0
   57.2540   31.7300   45.1900 C   0  0  0  0  0  0  0  0  0  0  0  0
   57.3960   32.9820   45.1620 O   0  0  0  0  0  0  0  0  0  0  0  0
   59.0900   32.4160   47.7550 C   0  0  0  0  0  0  0  0  0  0  0  0
   60.3760   32.7070   48.1690 C   0  0  0  0  0  0  0  0  0  0  0  0
   60.0651   34.0589   51.0792 H   0  0  0  0  0  0  0  0  0  0  0  0
   59.8958   35.3063   49.7977 H   0  0  0  0  0  0  0  0  0  0  0  0
   58.8211   33.8669   49.7977 H   0  0  0  0  0  0  0  0  0  0  0  0
   65.0621   32.8287   47.8868 H   0  0  0  0  0  0  0  0  0  0  0  0
   64.7313   34.1154   49.1107 H   0  0  0  0  0  0  0  0  0  0  0  0
   62.9919   31.2557   50.1558 H   0  0  0  0  0  0  0  0  0  0  0  0
   63.7194   29.6883   51.9548 H   0  0  0  0  0  0  0  0  0  0  0  0
   66.0902   29.6909   52.7344 H   0  0  0  0  0  0  0  0  0  0  0  0
   67.7357   31.2673   51.7204 H   0  0  0  0  0  0  0  0  0  0  0  0
   60.9800   30.6830   45.7160 H   0  0  0  0  0  0  0  0  0  0  0  0
   58.5176   29.3676   48.5362 H   0  0  0  0  0  0  0  0  0  0  0  0
   60.0598   27.7512   49.6492 H   0  0  0  0  0  0  0  0  0  0  0  0
   61.2411   26.0145   48.2973 H   0  0  0  0  0  0  0  0  0  0  0  0
   60.8633   25.8799   45.8328 H   0  0  0  0  0  0  0  0  0  0  0  0
   59.3182   27.4868   44.7147 H   0  0  0  0  0  0  0  0  0  0  0  0
   58.1467   32.7953   48.1748 H   0  0  0  0  0  0  0  0  0  0  0  0
  1  2  1  0
  2  3  1  0
  3  4  2  0
  3  5  1  0
  5  6  1  0
  6  7  1  0
  7  8  2  0
  8  9  1  0
  9 10  2  0
 10 11  1  0
 11 12  2  0
 12 13  1  0
  5 14  1  0
 14 15  2  0
 14 16  1  0
 16 17  1  0
 17 18  1  0
 18 19  1  0
 19 20  2  0
 20 21  1  0
 21 22  2  0
 22 23  1  0
 23 24  2  0
 24 25  1  0
 25 26  2  0
 20 27  1  0
 27 28  1  0
 28 29  2  0
 28 30  1  0
 30 31  1  0
 31 32  2  0
 18 33  2  0
 33 34  1  0
 34  2  1  0
 12  7  1  0
 34 16  2  0
 31 19  1  0
 26 21  1  0
  1 35  1  0
  1 36  1  0
  1 37  1  0
  6 38  1  0
  6 39  1  0
  8 40  1  0
  9 41  1  0
 10 42  1  0
 11 43  1  0
 17 44  1  0
 22 45  1  0
 23 46  1  0
 24 47  1  0
 25 48  1  0
 26 49  1  0
 33 50  1  0
M  CHG  2  27  -1  30  -1
M  END
>  <UniqueID>  (45) 
43

>  <SMILES>  (45) 
Cn1c(=O)n(Cc2ccccc2F)c(=O)c2[nH]c(-c3c(-c4ccccc4)[n-]c(=O)[n-]c3=O)cc21

>  <Energy>  (45) 
111.29542910224653

>  <Genealogy>  (45) 
Cn1c(=O)n(Cc2ccccc2F)c(=O)c2[nH]c(-c3c(-c4ccccc4)[n-]c(=O)[n-]c3=O)cc21 (protonated)
Cn1c(=O)n(Cc2ccccc2F)c(=O)c2[nH]c(-c3c(-c4ccccc4)[n-]c(=O)[n-]c3=O)cc21 (3D coordinates assigned)
Cn1c(=O)n(Cc2ccccc2F)c(=O)c2[nH]c(-c3c(-c4ccccc4)[n-]c(=O)[n-]c3=O)cc21 (optimized conformer: 111.29542910224653 kcal/mol)

>  <smiles>  (45) 
Cn1c(=O)n(Cc2ccccc2F)c(=O)c2[nH]c(-c3c(-c4ccccc4)[nH]c(=O)[nH]c3=O)cc21

>  <score_type>  (45) 
oracle

>  <origin>  (45) 
adg

>  <m_score__min__energy>  (45) 
-11.800000000000001

>  <m_primary>  (45) 
energy

$$$$
45:0
     RDKit          3D

 68 71  0  0  0  0  0  0  0  0999 V2000
   54.4990   27.0910   46.7400 H   0  0  0  0  0  0  0  0  0  0  0  0
   55.1250   26.6940   46.0030 N   0  0  0  0  0  0  0  0  0  0  0  0
   56.4810   26.3630   46.2970 C   0  0  0  0  0  0  0  0  0  0  0  0
   56.7800   25.1600   46.5370 O   0  0  0  0  0  0  0  0  0  0  0  0
   57.5270   27.4150   46.3140 C   0  0  0  0  0  0  0  0  0  0  0  0
   57.6070   28.3610   45.2780 C   0  0  0  0  0  0  0  0  0  0  0  0
   56.8906   28.3187   44.4443 H   0  0  0  0  0  0  0  0  0  0  0  0
   58.5900   29.3560   45.2980 C   0  0  0  0  0  0  0  0  0  0  0  0
   58.6284   30.1005   44.4892 H   0  0  0  0  0  0  0  0  0  0  0  0
   59.5280   29.4130   46.3410 C   0  0  0  0  0  0  0  0  0  0  0  0
   60.5480   30.5280   46.4070 C   0  0  0  0  0  0  0  0  0  0  0  0
   60.5735   31.0027   45.4150 H   0  0  0  0  0  0  0  0  0  0  0  0
   61.4718   30.0263   46.7308 H   0  0  0  0  0  0  0  0  0  0  0  0
   60.3450   31.6770   47.4660 C   0  0  2  0  0  0  0  0  0  0  0  0
   60.6440   31.1240   48.7360 O   0  0  0  0  0  0  0  0  0  0  0  0
   59.8390   31.1390   49.3130 H   0  0  0  0  0  0  0  0  0  0  0  0
   58.8530   32.0790   47.5370 C   0  0  0  0  0  0  0  0  0  0  0  0
   58.2441   31.1677   47.6314 H   0  0  0  0  0  0  0  0  0  0  0  0
   58.6063   32.6300   46.6175 H   0  0  0  0  0  0  0  0  0  0  0  0
   58.5590   32.9970   48.7320 C   0  0  0  0  0  0  0  0  0  0  0  0
   58.5826   32.3859   49.6463 H   0  0  0  0  0  0  0  0  0  0  0  0
   57.5764   33.4516   48.5375 H   0  0  0  0  0  0  0  0  0  0  0  0
   59.5520   34.1700   48.9120 C   0  0  0  0  0  0  0  0  0  0  0  0
   59.5341   34.4577   49.9735 H   0  0  0  0  0  0  0  0  0  0  0  0
   59.2047   34.9432   48.2109 H   0  0  0  0  0  0  0  0  0  0  0  0
   61.0440   33.9150   48.5200 C   0  0  1  0  0  0  0  0  0  0  0  0
   61.3000   34.9505   48.2512 H   0  0  0  0  0  0  0  0  0  0  0  0
   62.1040   33.6450   49.6060 C   0  0  0  0  0  0  0  0  0  0  0  0
   61.9110   33.4040   50.9210 C   0  0  0  0  0  0  0  0  0  0  0  0
   62.1186   34.2329   51.6137 H   0  0  0  0  0  0  0  0  0  0  0  0
   61.4510   32.1430   51.5150 C   0  0  0  0  0  0  0  0  0  0  0  0
   62.1922   31.3478   51.6834 H   0  0  0  0  0  0  0  0  0  0  0  0
   60.1740   31.9050   51.8650 C   0  0  0  0  0  0  0  0  0  0  0  0
   59.1650   33.0270   52.0230 C   0  0  0  0  0  0  0  0  0  0  0  0
   58.9991   33.4926   51.0403 H   0  0  0  0  0  0  0  0  0  0  0  0
   59.5759   33.7451   52.7479 H   0  0  0  0  0  0  0  0  0  0  0  0
   57.8150   32.5350   52.5690 C   0  0  0  0  0  0  0  0  0  0  0  0
   57.0653   33.3293   52.4381 H   0  0  0  0  0  0  0  0  0  0  0  0
   57.9417   32.2887   53.6336 H   0  0  0  0  0  0  0  0  0  0  0  0
   57.3460   31.2920   51.8460 C   0  0  0  0  0  0  0  0  0  0  0  0
   56.0380   31.1010   51.6130 C   0  0  0  0  0  0  0  0  0  0  0  0
   55.6994   30.1962   51.0870 H   0  0  0  0  0  0  0  0  0  0  0  0
   55.3046   31.8493   51.9481 H   0  0  0  0  0  0  0  0  0  0  0  0
   58.3500   30.2300   51.4410 C   0  0  1  0  0  0  0  0  0  0  0  0
   57.9935   29.2489   51.7878 H   0  0  0  0  0  0  0  0  0  0  0  0
   58.4700   30.2310   50.0390 O   0  0  0  0  0  0  0  0  0  0  0  0
   59.3350   29.7910   49.8220 H   0  0  0  0  0  0  0  0  0  0  0  0
   59.7230   30.4820   52.0940 C   0  0  0  0  0  0  0  0  0  0  0  0
   60.4619   29.7948   51.6561 H   0  0  0  0  0  0  0  0  0  0  0  0
   59.6346   30.3106   53.1770 H   0  0  0  0  0  0  0  0  0  0  0  0
   63.5480   33.7570   49.1530 C   0  0  0  0  0  0  0  0  0  0  0  0
   63.9483   34.7248   49.4892 H   0  0  0  0  0  0  0  0  0  0  0  0
   64.1007   32.9136   49.5926 H   0  0  0  0  0  0  0  0  0  0  0  0
   63.6990   33.6660   47.6260 C   0  0  0  0  0  0  0  0  0  0  0  0
   63.4646   34.6439   47.1801 H   0  0  0  0  0  0  0  0  0  0  0  0
   64.7336   33.3786   47.3873 H   0  0  0  0  0  0  0  0  0  0  0  0
   62.7460   32.6090   47.0540 C   0  0  0  0  0  0  0  0  0  0  0  0
   62.9411   32.5055   45.9764 H   0  0  0  0  0  0  0  0  0  0  0  0
   62.9311   31.6681   47.5929 H   0  0  0  0  0  0  0  0  0  0  0  0
   61.2300   32.9840   47.2580 C   0  0  1  0  0  0  0  0  0  0  0  0
   60.8030   33.8260   46.0130 C   0  0  0  0  0  0  0  0  0  0  0  0
   60.3290   34.7606   46.3475 H   0  0  0  0  0  0  0  0  0  0  0  0
   61.6907   34.0613   45.4075 H   0  0  0  0  0  0  0  0  0  0  0  0
   60.0886   33.2489   45.4075 H   0  0  0  0  0  0  0  0  0  0  0  0
   59.4230   28.4920   47.3980 C   0  0  0  0  0  0  0  0  0  0  0  0
   60.1168   28.5575   48.2491 H   0  0  0  0  0  0  0  0  0  0  0  0
   58.4450   27.4940   47.3770 C   0  0  0  0  0  0  0  0  0  0  0  0
   58.3926   26.7642   48.1984 H   0  0  0  0  0  0  0  0  0  0  0  0
  1  2  1  0
  2  3  1  0
  3  4  2  0
  3  5  1  0
  5  6  2  0
  6  7  1  0
  6  8  1  0
  8  9  1  0
  8 10  2  0
 10 11  1  0
 11 12  1  0
 11 13  1  0
 11 14  1  0
 14 15  1  1
 15 16  1  0
 14 17  1  0
 17 18  1  0
 17 19  1  0
 17 20  1  0
 20 21  1  0
 20 22  1  0
 20 23  1  0
 23 24  1  0
 23 25  1  0
 23 26  1  0
 26 27  1  6
 26 28  1  0
 28 29  2  0
 29 30  1  0
 29 31  1  0
 31 32  1  0
 31 33  2  0
 33 34  1  0
 34 35  1  0
 34 36  1  0
 34 37  1  0
 37 38  1  0
 37 39  1  0
 37 40  1  0
 40 41  2  0
 41 42  1  0
 41 43  1  0
 40 44  1  0
 44 45  1  1
 44 46  1  0
 46 47  1  0
 44 48  1  0
 48 49  1  0
 48 50  1  0
 28 51  1  0
 51 52  1  0
 51 53  1  0
 51 54  1  0
 54 55  1  0
 54 56  1  0
 54 57  1  0
 57 58  1  0
 57 59  1  0
 57 60  1  0
 60 61  1  6
 61 62  1  0
 61 63  1  0
 61 64  1  0
 10 65  1  0
 65 66  1  0
 65 67  2  0
 67 68  1  0
 67  5  1  0
 60 14  1  0
 60 26  1  0
 48 33  1  0
M  CHG  1   2  -1
M  END
>  <UniqueID>  (46) 
44

>  <SMILES>  (46) 
C=C1CC/C(=C\C=C2CCC[C@]3(C)[C@H]2CCCC3(O)Cc2ccc(C([NH-])=O)cc2)CC1O

>  <Energy>  (46) 
108.09752386251328

>  <Genealogy>  (46) 
C=C1CCC(=CC=C2CCCC3(C)C2CCCC3(O)Cc2ccc(C([NH-])=O)cc2)CC1O (protonated)
C=C1CCC(=CC=C2CCC[C@]3(C)[C@H]2CCCC3(O)Cc2ccc(C([NH-])=O)cc2)CC1O (chirality)
C=C1CC/C(=C\C=C2CCC[C@]3(C)[C@H]2CCCC3(O)Cc2ccc(C([NH-])=O)cc2)CC1O (cis-trans isomerization)
C=C1CC/C(=C\C=C2CCC[C@]3(C)[C@H]2CCCC3(O)Cc2ccc(C([NH-])=O)cc2)CC1O (3D coordinates assigned)
C=C1CC/C(=C\C=C2CCC[C@]3(C)[C@H]2CCCC3(O)Cc2ccc(C([NH-])=O)cc2)CC1O (nonaromatic ring conformer: 108.09752386251328 kcal/mol)

>  <smiles>  (46) 
C=C1CCC(=CC=C2CCCC3(C)C2CCCC3(O)Cc2ccc(C(N)=O)cc2)CC1O

>  <score_type>  (46) 
oracle

>  <origin>  (46) 
adg

>  <m_score__min__energy>  (46) 
-12.640000000000001

>  <m_primary>  (46) 
energy

$$$$
46:0
     RDKit          3D

 56 59  0  0  0  0  0  0  0  0999 V2000
   56.5730   24.8600   47.4930 C   0  0  0  0  0  0  0  0  0  0  0  0
   56.9810   26.1260   46.7940 C   0  0  0  0  0  0  0  0  0  0  0  0
   58.2790   26.6330   46.9500 C   0  0  0  0  0  0  0  0  0  0  0  0
   58.6780   27.8180   46.3040 C   0  0  0  0  0  0  0  0  0  0  0  0
   60.1050   28.2960   46.4810 C   0  0  0  0  0  0  0  0  0  0  0  0
   60.2890   28.9430   47.7810 N   0  0  0  0  0  0  0  0  0  0  0  0
   61.0470   28.4410   48.7520 N   0  0  0  0  0  0  0  0  0  0  0  0
   60.9870   29.2840   49.8090 C   0  0  0  0  0  0  0  0  0  0  0  0
   61.7140   29.0760   51.0960 C   0  0  0  0  0  0  0  0  0  0  0  0
   60.1800   30.3530   49.4810 C   0  0  0  0  0  0  0  0  0  0  0  0
   59.7870   31.4870   50.1880 C   0  0  0  0  0  0  0  0  0  0  0  0
   58.9390   32.3980   49.5340 C   0  0  0  0  0  0  0  0  0  0  0  0
   58.5290   32.1760   48.1940 C   0  0  0  0  0  0  0  0  0  0  0  0
   57.6460   33.0860   47.5300 N   0  0  0  0  0  0  0  0  0  0  0  0
   57.9220   33.8070   46.3220 C   0  0  0  0  0  0  0  0  0  0  0  0
   57.0050   33.9250   45.4680 O   0  0  0  0  0  0  0  0  0  0  0  0
   59.3210   34.2550   45.9680 C   0  0  0  0  0  0  0  0  0  0  0  0
   60.0380   34.9570   47.1320 C   0  0  0  0  0  0  0  0  0  0  0  0
   61.2270   34.1670   47.6150 C   0  0  0  0  0  0  0  0  0  0  0  0
   61.9230   33.3260   46.7300 C   0  0  0  0  0  0  0  0  0  0  0  0
   62.9970   32.5570   47.1890 C   0  0  0  0  0  0  0  0  0  0  0  0
   63.3800   32.6180   48.5320 C   0  0  0  0  0  0  0  0  0  0  0  0
   62.6900   33.4500   49.4180 C   0  0  0  0  0  0  0  0  0  0  0  0
   61.6150   34.2210   48.9640 C   0  0  0  0  0  0  0  0  0  0  0  0
   58.9300   31.0030   47.5240 C   0  0  0  0  0  0  0  0  0  0  0  0
   59.7620   30.1100   48.2030 C   0  0  0  0  0  0  0  0  0  0  0  0
   57.7320   28.5280   45.5200 C   0  0  0  0  0  0  0  0  0  0  0  0
   58.0860   29.8000   44.7950 C   0  0  0  0  0  0  0  0  0  0  0  0
   56.4370   28.0090   45.3660 C   0  0  0  0  0  0  0  0  0  0  0  0
   56.0600   26.8230   46.0000 C   0  0  0  0  0  0  0  0  0  0  0  0
   54.7650   26.3440   45.8350 O   0  0  0  0  0  0  0  0  0  0  0  0
   56.6214   25.0103   48.5816 H   0  0  0  0  0  0  0  0  0  0  0  0
   55.5446   24.5970   47.2046 H   0  0  0  0  0  0  0  0  0  0  0  0
   57.2543   24.0460   47.2046 H   0  0  0  0  0  0  0  0  0  0  0  0
   58.9968   26.0960   47.5874 H   0  0  0  0  0  0  0  0  0  0  0  0
   60.7838   27.4333   46.4103 H   0  0  0  0  0  0  0  0  0  0  0  0
   60.3270   29.0298   45.6921 H   0  0  0  0  0  0  0  0  0  0  0  0
   61.0329   29.2709   51.9375 H   0  0  0  0  0  0  0  0  0  0  0  0
   62.0754   28.0384   51.1495 H   0  0  0  0  0  0  0  0  0  0  0  0
   62.5695   29.7654   51.1495 H   0  0  0  0  0  0  0  0  0  0  0  0
   60.1273   31.6631   51.2191 H   0  0  0  0  0  0  0  0  0  0  0  0
   58.5891   33.2939   50.0678 H   0  0  0  0  0  0  0  0  0  0  0  0
   59.9085   33.3723   45.6754 H   0  0  0  0  0  0  0  0  0  0  0  0
   59.2364   34.9818   45.1467 H   0  0  0  0  0  0  0  0  0  0  0  0
   60.3811   35.9461   46.7943 H   0  0  0  0  0  0  0  0  0  0  0  0
   59.3268   35.0488   47.9661 H   0  0  0  0  0  0  0  0  0  0  0  0
   61.6221   33.2725   45.6733 H   0  0  0  0  0  0  0  0  0  0  0  0
   63.5414   31.9029   46.4920 H   0  0  0  0  0  0  0  0  0  0  0  0
   64.2243   32.0113   48.8914 H   0  0  0  0  0  0  0  0  0  0  0  0
   62.9930   33.4985   50.4743 H   0  0  0  0  0  0  0  0  0  0  0  0
   61.0718   34.8715   49.6653 H   0  0  0  0  0  0  0  0  0  0  0  0
   58.5974   30.7966   46.4960 H   0  0  0  0  0  0  0  0  0  0  0  0
   58.3060   30.5905   45.5276 H   0  0  0  0  0  0  0  0  0  0  0  0
   58.9705   29.6284   44.1640 H   0  0  0  0  0  0  0  0  0  0  0  0
   57.2400   30.1100   44.1640 H   0  0  0  0  0  0  0  0  0  0  0  0
   55.7093   28.5435   44.7376 H   0  0  0  0  0  0  0  0  0  0  0  0
  1  2  1  0
  2  3  2  0
  3  4  1  0
  4  5  1  0
  5  6  1  0
  6  7  1  0
  7  8  2  0
  8  9  1  0
  8 10  1  0
 10 11  2  0
 11 12  1  0
 12 13  2  0
 13 14  1  0
 14 15  1  0
 15 16  2  0
 15 17  1  0
 17 18  1  0
 18 19  1  0
 19 20  2  0
 20 21  1  0
 21 22  2  0
 22 23  1  0
 23 24  2  0
 13 25  1  0
 25 26  2  0
  4 27  2  0
 27 28  1  0
 27 29  1  0
 29 30  2  0
 30 31  1  0
 30  2  1  0
 26  6  1  0
 26 10  1  0
 24 19  1  0
  1 32  1  0
  1 33  1  0
  1 34  1  0
  3 35  1  0
  5 36  1  0
  5 37  1  0
  9 38  1  0
  9 39  1  0
  9 40  1  0
 11 41  1  0
 12 42  1  0
 17 43  1  0
 17 44  1  0
 18 45  1  0
 18 46  1  0
 20 47  1  0
 21 48  1  0
 22 49  1  0
 23 50  1  0
 24 51  1  0
 25 52  1  0
 28 53  1  0
 28 54  1  0
 28 55  1  0
 29 56  1  0
M  CHG  2  14  -1  31  -1
M  END
>  <UniqueID>  (47) 
45

>  <SMILES>  (47) 
Cc1cc(Cn2nc(C)c3ccc([N-]C(=O)CCc4ccccc4)cc32)c(C)cc1[O-]

>  <Energy>  (47) 
99.08823490558996

>  <Genealogy>  (47) 
Cc1cc(Cn2nc(C)c3ccc([N-]C(=O)CCc4ccccc4)cc32)c(C)cc1[O-] (protonated)
Cc1cc(Cn2nc(C)c3ccc([N-]C(=O)CCc4ccccc4)cc32)c(C)cc1[O-] (3D coordinates assigned)
Cc1cc(Cn2nc(C)c3ccc([N-]C(=O)CCc4ccccc4)cc32)c(C)cc1[O-] (optimized conformer: 99.08823490558996 kcal/mol)

>  <smiles>  (47) 
Cc1cc(Cn2nc(C)c3ccc(NC(=O)CCc4ccccc4)cc32)c(C)cc1O

>  <score_type>  (47) 
oracle

>  <origin>  (47) 
adg

>  <m_score__min__energy>  (47) 
-13.26

>  <m_primary>  (47) 
energy

$$$$
47:0
     RDKit          3D

 43 45  0  0  0  0  0  0  0  0999 V2000
   56.9160   29.4600   42.8500 C   0  0  0  0  0  0  0  0  0  0  0  0
   56.2510   29.7610   44.4740 S   0  0  0  0  0  0  0  0  0  0  0  0
   57.2720   30.5130   45.2800 O   0  0  0  0  0  0  0  0  0  0  0  0
   55.0000   30.5890   44.3850 O   0  0  0  0  0  0  0  0  0  0  0  0
   55.9130   28.2560   45.2680 N   0  0  0  0  0  0  0  0  0  0  0  0
   56.8900   27.3050   45.7140 C   0  0  0  0  0  0  0  0  0  0  0  0
   56.6860   25.9170   45.6200 C   0  0  0  0  0  0  0  0  0  0  0  0
   57.6700   25.0300   46.0640 C   0  0  0  0  0  0  0  0  0  0  0  0
   58.8620   25.5150   46.6060 C   0  0  0  0  0  0  0  0  0  0  0  0
   59.0770   26.8970   46.7150 C   0  0  0  0  0  0  0  0  0  0  0  0
   60.3700   27.4290   47.2680 C   0  0  0  0  0  0  0  0  0  0  0  0
   60.0980   28.4590   48.3220 C   0  0  0  0  0  0  0  0  0  0  0  0
   60.2580   28.2320   49.6450 N   0  0  0  0  0  0  0  0  0  0  0  0
   59.8470   29.3830   50.2200 C   0  0  0  0  0  0  0  0  0  0  0  0
   59.8630   29.5680   51.4660 O   0  0  0  0  0  0  0  0  0  0  0  0
   59.4220   30.3100   49.3350 N   0  0  0  0  0  0  0  0  0  0  0  0
   58.9740   31.6750   49.6090 C   0  0  0  0  0  0  0  0  0  0  0  0
   59.2070   32.5450   48.4040 C   0  0  0  0  0  0  0  0  0  0  0  0
   60.4590   33.1420   48.1940 C   0  0  0  0  0  0  0  0  0  0  0  0
   60.6630   33.9810   47.0940 C   0  0  0  0  0  0  0  0  0  0  0  0
   59.6180   34.2370   46.2020 C   0  0  0  0  0  0  0  0  0  0  0  0
   59.8260   35.0530   45.1380 F   0  0  0  0  0  0  0  0  0  0  0  0
   58.3610   33.6550   46.4120 C   0  0  0  0  0  0  0  0  0  0  0  0
   57.0380   33.9740   45.3030 Cl  0  0  0  0  0  0  0  0  0  0  0  0
   58.1560   32.8150   47.5130 C   0  0  0  0  0  0  0  0  0  0  0  0
   59.5840   29.7290   48.1350 C   0  0  0  0  0  0  0  0  0  0  0  0
   59.2750   30.3410   46.9220 O   0  0  0  0  0  0  0  0  0  0  0  0
   58.0880   27.7850   46.2590 C   0  0  0  0  0  0  0  0  0  0  0  0
   57.9147   29.0080   42.9407 H   0  0  0  0  0  0  0  0  0  0  0  0
   56.2517   28.7748   42.3030 H   0  0  0  0  0  0  0  0  0  0  0  0
   56.9924   30.4113   42.3030 H   0  0  0  0  0  0  0  0  0  0  0  0
   55.7486   25.5282   45.1955 H   0  0  0  0  0  0  0  0  0  0  0  0
   57.5050   23.9452   45.9863 H   0  0  0  0  0  0  0  0  0  0  0  0
   59.6349   24.8112   46.9486 H   0  0  0  0  0  0  0  0  0  0  0  0
   60.9445   26.6010   47.7089 H   0  0  0  0  0  0  0  0  0  0  0  0
   60.9447   27.8930   46.4529 H   0  0  0  0  0  0  0  0  0  0  0  0
   57.9005   31.6648   49.8488 H   0  0  0  0  0  0  0  0  0  0  0  0
   59.5427   32.0775   50.4602 H   0  0  0  0  0  0  0  0  0  0  0  0
   61.2829   32.9495   48.8969 H   0  0  0  0  0  0  0  0  0  0  0  0
   61.6488   34.4408   46.9303 H   0  0  0  0  0  0  0  0  0  0  0  0
   57.1667   32.3643   47.6809 H   0  0  0  0  0  0  0  0  0  0  0  0
   58.3830   30.1970   46.4660 H   0  0  0  0  0  0  0  0  0  0  0  0
   58.2564   28.8697   46.3308 H   0  0  0  0  0  0  0  0  0  0  0  0
  1  2  1  0
  2  3  2  0
  2  4  2  0
  2  5  1  0
  5  6  1  0
  6  7  2  0
  7  8  1  0
  8  9  2  0
  9 10  1  0
 10 11  1  0
 11 12  1  0
 12 13  1  0
 13 14  1  0
 14 15  2  0
 14 16  1  0
 16 17  1  0
 17 18  1  0
 18 19  2  0
 19 20  1  0
 20 21  2  0
 21 22  1  0
 21 23  1  0
 23 24  1  0
 23 25  2  0
 16 26  1  0
 26 27  1  0
 10 28  2  0
 28  6  1  0
 26 12  2  0
 25 18  1  0
  1 29  1  0
  1 30  1  0
  1 31  1  0
  7 32  1  0
  8 33  1  0
  9 34  1  0
 11 35  1  0
 11 36  1  0
 17 37  1  0
 17 38  1  0
 19 39  1  0
 20 40  1  0
 25 41  1  0
 27 42  1  0
 28 43  1  0
M  CHG  2   5  -1  13  -1
M  END
>  <UniqueID>  (48) 
46

>  <SMILES>  (48) 
CS(=O)(=O)[N-]c1cccc(Cc2[n-]c(=O)n(Cc3ccc(F)c(Cl)c3)c2O)c1

>  <Energy>  (48) 
72.80743903370909

>  <Genealogy>  (48) 
CS(=O)(=O)[N-]c1cccc(Cc2[n-]c(=O)n(Cc3ccc(F)c(Cl)c3)c2O)c1 (protonated)
CS(=O)(=O)[N-]c1cccc(Cc2[n-]c(=O)n(Cc3ccc(F)c(Cl)c3)c2O)c1 (3D coordinates assigned)
CS(=O)(=O)[N-]c1cccc(Cc2[n-]c(=O)n(Cc3ccc(F)c(Cl)c3)c2O)c1 (optimized conformer: 72.80743903370909 kcal/mol)

>  <smiles>  (48) 
CS(=O)(=O)Nc1cccc(Cc2[nH]c(=O)n(Cc3ccc(F)c(Cl)c3)c2O)c1

>  <score_type>  (48) 
oracle

>  <origin>  (48) 
adg

>  <m_score__min__energy>  (48) 
-12.08

>  <m_primary>  (48) 
energy

$$$$
48:0
     RDKit          3D

 26 27  0  0  0  0  0  0  0  0999 V2000
   58.1843   33.3110   42.8876 H   0  0  0  0  0  0  0  0  0  0  0  0
   57.9220   32.6280   43.7090 C   0  0  0  0  0  0  0  0  0  0  0  0
   57.2280   31.5180   43.4100 C   0  0  0  0  0  0  0  0  0  0  0  0
   56.4957   31.5595   42.5902 H   0  0  0  0  0  0  0  0  0  0  0  0
   57.4070   30.2390   44.1380 C   0  0  0  0  0  0  0  0  0  0  0  0
   58.7130   29.7900   44.3860 C   0  0  0  0  0  0  0  0  0  0  0  0
   59.5695   30.3885   44.0421 H   0  0  0  0  0  0  0  0  0  0  0  0
   58.9300   28.6210   45.0480 N   0  0  0  0  0  0  0  0  0  0  0  0
   59.9120   28.3130   45.2310 H   0  0  0  0  0  0  0  0  0  0  0  0
   57.9000   27.8450   45.4770 C   0  0  0  0  0  0  0  0  0  0  0  0
   58.1065   26.9104   46.0191 H   0  0  0  0  0  0  0  0  0  0  0  0
   56.5820   28.2300   45.2320 C   0  0  0  0  0  0  0  0  0  0  0  0
   55.5330   27.4220   45.6570 O   0  0  0  0  0  0  0  0  0  0  0  0
   56.3280   29.4260   44.5480 C   0  0  0  0  0  0  0  0  0  0  0  0
   55.1370   29.7460   44.2850 O   0  0  0  0  0  0  0  0  0  0  0  0
   58.3560   32.9880   45.0810 C   0  0  0  0  0  0  0  0  0  0  0  0
   59.3780   33.9430   45.2320 C   0  0  0  0  0  0  0  0  0  0  0  0
   59.8359   34.3965   44.3406 H   0  0  0  0  0  0  0  0  0  0  0  0
   59.8170   34.3210   46.5040 C   0  0  0  0  0  0  0  0  0  0  0  0
   60.6237   35.0614   46.6090 H   0  0  0  0  0  0  0  0  0  0  0  0
   59.2330   33.7600   47.6420 C   0  0  0  0  0  0  0  0  0  0  0  0
   59.7830   34.2390   49.2380 Cl  0  0  0  0  0  0  0  0  0  0  0  0
   58.2050   32.8240   47.5080 C   0  0  0  0  0  0  0  0  0  0  0  0
   57.7408   32.3875   48.4046 H   0  0  0  0  0  0  0  0  0  0  0  0
   57.7640   32.4400   46.2380 C   0  0  0  0  0  0  0  0  0  0  0  0
   56.9504   31.7061   46.1406 H   0  0  0  0  0  0  0  0  0  0  0  0
  1  2  1  0
  2  3  2  0
  3  4  1  0
  3  5  1  0
  5  6  2  0
  6  7  1  0
  6  8  1  0
  8  9  1  0
  8 10  1  0
 10 11  1  0
 10 12  2  0
 12 13  1  0
 12 14  1  0
 14 15  2  0
  2 16  1  0
 16 17  2  0
 17 18  1  0
 17 19  1  0
 19 20  1  0
 19 21  2  0
 21 22  1  0
 21 23  1  0
 23 24  1  0
 23 25  2  0
 25 26  1  0
 14  5  1  0
 25 16  1  0
M  CHG  1  13  -1
M  END
>  <UniqueID>  (49) 
47

>  <SMILES>  (49) 
O=c1c([O-])c[nH]cc1/C=C/c1ccc(Cl)cc1

>  <Energy>  (49) 
34.8486615634807

>  <Genealogy>  (49) 
O=c1c([O-])c[nH]cc1C=Cc1ccc(Cl)cc1 (protonated)
O=c1c([O-])c[nH]cc1/C=C/c1ccc(Cl)cc1 (cis-trans isomerization)
O=c1c([O-])c[nH]cc1/C=C/c1ccc(Cl)cc1 (3D coordinates assigned)
O=c1c([O-])c[nH]cc1/C=C/c1ccc(Cl)cc1 (optimized conformer: 34.8486615634807 kcal/mol)

>  <smiles>  (49) 
O=c1c(O)c[nH]cc1C=Cc1ccc(Cl)cc1

>  <score_type>  (49) 
oracle

>  <origin>  (49) 
adg

>  <m_score__min__energy>  (49) 
-10.57

>  <m_primary>  (49) 
energy

$$$$
49:0
     RDKit          3D

 36 38  0  0  0  0  0  0  0  0999 V2000
   53.8516   28.2918   55.7066 H   0  0  0  0  0  0  0  0  0  0  0  0
   53.4910   29.0890   55.0400 C   0  0  0  0  0  0  0  0  0  0  0  0
   52.5285   29.5816   55.2422 H   0  0  0  0  0  0  0  0  0  0  0  0
   54.2260   29.4610   53.9790 C   0  0  0  0  0  0  0  0  0  0  0  0
   53.9000   30.4560   53.0440 C   0  0  0  0  0  0  0  0  0  0  0  0
   52.7490   31.1210   52.8230 C   0  0  0  0  0  0  0  0  0  0  0  0
   52.2623   31.5837   53.6942 H   0  0  0  0  0  0  0  0  0  0  0  0
   52.0860   31.2830   51.5210 C   0  0  0  0  0  0  0  0  0  0  0  0
   52.2190   30.4110   50.5060 N   0  0  0  0  0  0  0  0  0  0  0  0
   51.3560   30.8770   49.5780 C   0  0  0  0  0  0  0  0  0  0  0  0
   51.2050   30.3260   48.4560 O   0  0  0  0  0  0  0  0  0  0  0  0
   50.6600   31.9720   49.9490 N   0  0  0  0  0  0  0  0  0  0  0  0
   51.1210   32.2080   51.1870 C   0  0  0  0  0  0  0  0  0  0  0  0
   50.6510   33.2280   52.0050 O   0  0  0  0  0  0  0  0  0  0  0  0
   55.0470   30.6820   52.3060 C   0  0  0  0  0  0  0  0  0  0  0  0
   55.1730   31.4270   51.5066 H   0  0  0  0  0  0  0  0  0  0  0  0
   56.0040   29.7980   52.7600 C   0  0  0  0  0  0  0  0  0  0  0  0
   57.3920   29.7620   52.2470 C   0  0  0  0  0  0  0  0  0  0  0  0
   58.3540   29.5270   53.0250 O   0  0  0  0  0  0  0  0  0  0  0  0
   57.6390   30.0850   50.8720 N   0  0  0  0  0  0  0  0  0  0  0  0
   58.6020   31.0250   50.3750 C   0  0  0  0  0  0  0  0  0  0  0  0
   58.6220   32.3160   50.9190 C   0  0  0  0  0  0  0  0  0  0  0  0
   57.9175   32.5813   51.7210 H   0  0  0  0  0  0  0  0  0  0  0  0
   59.5310   33.2700   50.4500 C   0  0  0  0  0  0  0  0  0  0  0  0
   59.5483   34.2772   50.8918 H   0  0  0  0  0  0  0  0  0  0  0  0
   60.4180   32.9430   49.4190 C   0  0  0  0  0  0  0  0  0  0  0  0
   61.5550   34.1400   48.8280 Cl  0  0  0  0  0  0  0  0  0  0  0  0
   60.3880   31.6650   48.8530 C   0  0  0  0  0  0  0  0  0  0  0  0
   61.0805   31.4100   48.0373 H   0  0  0  0  0  0  0  0  0  0  0  0
   59.4800   30.7100   49.3210 C   0  0  0  0  0  0  0  0  0  0  0  0
   59.4519   29.7098   48.8641 H   0  0  0  0  0  0  0  0  0  0  0  0
   55.4950   29.0240   53.7520 N   0  0  0  0  0  0  0  0  0  0  0  0
   56.2070   27.9650   54.4790 C   0  0  0  0  0  0  0  0  0  0  0  0
   56.0983   28.1266   55.5616 H   0  0  0  0  0  0  0  0  0  0  0  0
   55.7826   26.9865   54.2099 H   0  0  0  0  0  0  0  0  0  0  0  0
   57.2733   27.9887   54.2099 H   0  0  0  0  0  0  0  0  0  0  0  0
  1  2  1  0
  2  3  1  0
  2  4  2  0
  4  5  1  0
  5  6  2  0
  6  7  1  0
  6  8  1  0
  8  9  1  0
  9 10  1  0
 10 11  2  0
 10 12  1  0
 12 13  1  0
 13 14  1  0
  5 15  1  0
 15 16  1  0
 15 17  2  0
 17 18  1  0
 18 19  2  0
 18 20  1  0
 20 21  1  0
 21 22  2  0
 22 23  1  0
 22 24  1  0
 24 25  1  0
 24 26  2  0
 26 27  1  0
 26 28  1  0
 28 29  1  0
 28 30  2  0
 30 31  1  0
 17 32  1  0
 32 33  1  0
 33 34  1  0
 33 35  1  0
 33 36  1  0
 32  4  1  0
 13  8  2  0
 30 21  1  0
M  CHG  4   9  -1  12  -1  14  -1  20  -1
M  END
>  <UniqueID>  (50) 
48

>  <SMILES>  (50) 
C=c1/c(=C\c2[n-]c(=O)[n-]c2[O-])cc(C(=O)[N-]c2ccc(Cl)cc2)n1C

>  <Energy>  (50) 
114.62909863964501

>  <Genealogy>  (50) 
C=c1c(=Cc2[n-]c(=O)[n-]c2[O-])cc(C(=O)[N-]c2ccc(Cl)cc2)n1C (protonated)
C=c1/c(=C\c2[n-]c(=O)[n-]c2[O-])cc(C(=O)[N-]c2ccc(Cl)cc2)n1C (cis-trans isomerization)
C=c1/c(=C\c2[n-]c(=O)[n-]c2[O-])cc(C(=O)[N-]c2ccc(Cl)cc2)n1C (3D coordinates assigned)
C=c1/c(=C\c2[n-]c(=O)[n-]c2[O-])cc(C(=O)[N-]c2ccc(Cl)cc2)n1C (optimized conformer: 114.62909863964501 kcal/mol)

>  <smiles>  (50) 
C=c1c(=Cc2[nH]c(=O)[nH]c2O)cc(C(=O)Nc2ccc(Cl)cc2)n1C

>  <score_type>  (50) 
oracle

>  <origin>  (50) 
adg

>  <m_score__min__energy>  (50) 
-18.059999999999999

>  <m_primary>  (50) 
energy

$$$$
50:0
     RDKit          3D

 55 58  0  0  0  0  0  0  0  0999 V2000
   60.0519   27.5390   44.3761 H   0  0  0  0  0  0  0  0  0  0  0  0
   59.6720   28.2960   45.0780 C   0  0  0  0  0  0  0  0  0  0  0  0
   60.3350   28.4800   46.2310 C   0  0  0  0  0  0  0  0  0  0  0  0
   61.2493   27.8933   46.4035 H   0  0  0  0  0  0  0  0  0  0  0  0
   59.9030   29.4310   47.2860 C   0  0  0  0  0  0  0  0  0  0  0  0
   59.3030   29.0110   48.4900 C   0  0  0  0  0  0  0  0  0  0  0  0
   59.1308   27.9395   48.6694 H   0  0  0  0  0  0  0  0  0  0  0  0
   58.9250   29.9460   49.4580 C   0  0  0  0  0  0  0  0  0  0  0  0
   58.4418   29.6070   50.3862 H   0  0  0  0  0  0  0  0  0  0  0  0
   59.1580   31.3130   49.2530 C   0  0  0  0  0  0  0  0  0  0  0  0
   58.7180   32.3190   50.2780 C   0  0  0  0  0  0  0  0  0  0  0  0
   58.6584   33.3151   49.8152 H   0  0  0  0  0  0  0  0  0  0  0  0
   59.4426   32.3478   51.1052 H   0  0  0  0  0  0  0  0  0  0  0  0
   57.4030   31.9360   50.7870 N   0  0  0  0  0  0  0  0  0  0  0  0
   57.1180   31.0690   51.7210 C   0  0  0  0  0  0  0  0  0  0  0  0
   55.8920   30.4880   51.6910 N   0  0  0  0  0  0  0  0  0  0  0  0
   55.4850   29.5720   52.6070 C   0  0  0  0  0  0  0  0  0  0  0  0
   54.1110   28.9690   52.4500 C   0  0  0  0  0  0  0  0  0  0  0  0
   54.0931   28.3472   51.5428 H   0  0  0  0  0  0  0  0  0  0  0  0
   53.8927   28.3607   53.3401 H   0  0  0  0  0  0  0  0  0  0  0  0
   53.0590   30.0400   52.3330 C   0  0  0  0  0  0  0  0  0  0  0  0
   52.3120   30.4360   53.4560 C   0  0  0  0  0  0  0  0  0  0  0  0
   52.4945   29.9592   54.4304 H   0  0  0  0  0  0  0  0  0  0  0  0
   51.3380   31.4330   53.3410 C   0  0  0  0  0  0  0  0  0  0  0  0
   50.7542   31.7346   54.2232 H   0  0  0  0  0  0  0  0  0  0  0  0
   51.1050   32.0470   52.1070 C   0  0  0  0  0  0  0  0  0  0  0  0
   50.1360   33.0350   51.9940 O   0  0  0  0  0  0  0  0  0  0  0  0
   51.8480   31.6650   50.9850 C   0  0  0  0  0  0  0  0  0  0  0  0
   51.6651   32.1485   50.0140 H   0  0  0  0  0  0  0  0  0  0  0  0
   52.8230   30.6690   51.0970 C   0  0  0  0  0  0  0  0  0  0  0  0
   53.4089   30.3756   50.2135 H   0  0  0  0  0  0  0  0  0  0  0  0
   56.3780   29.1950   53.6340 C   0  0  0  0  0  0  0  0  0  0  0  0
   56.0060   28.1680   54.6700 C   0  0  0  0  0  0  0  0  0  0  0  0
   56.1585   28.5889   55.6748 H   0  0  0  0  0  0  0  0  0  0  0  0
   54.9494   27.8882   54.5461 H   0  0  0  0  0  0  0  0  0  0  0  0
   56.6383   27.2765   54.5461 H   0  0  0  0  0  0  0  0  0  0  0  0
   57.6130   29.7730   53.6760 N   0  0  0  0  0  0  0  0  0  0  0  0
   58.2840   29.5030   54.4310 H   0  0  0  0  0  0  0  0  0  0  0  0
   58.0080   30.6960   52.7560 C   0  0  0  0  0  0  0  0  0  0  0  0
   59.1620   31.1940   52.8500 O   0  0  0  0  0  0  0  0  0  0  0  0
   59.7550   31.7370   48.0570 C   0  0  0  0  0  0  0  0  0  0  0  0
   59.9266   32.8091   47.8803 H   0  0  0  0  0  0  0  0  0  0  0  0
   60.1330   30.8020   47.0880 C   0  0  0  0  0  0  0  0  0  0  0  0
   60.6157   31.1443   46.1607 H   0  0  0  0  0  0  0  0  0  0  0  0
   58.4560   29.0560   44.6970 C   0  0  0  0  0  0  0  0  0  0  0  0
   58.6120   30.3290   44.1210 C   0  0  0  0  0  0  0  0  0  0  0  0
   59.6218   30.7384   43.9701 H   0  0  0  0  0  0  0  0  0  0  0  0
   57.4960   31.0800   43.7380 C   0  0  0  0  0  0  0  0  0  0  0  0
   57.6309   32.0783   43.2961 H   0  0  0  0  0  0  0  0  0  0  0  0
   56.2110   30.5640   43.9160 C   0  0  0  0  0  0  0  0  0  0  0  0
   55.3337   31.1575   43.6192 H   0  0  0  0  0  0  0  0  0  0  0  0
   56.0400   29.2940   44.4710 C   0  0  0  0  0  0  0  0  0  0  0  0
   55.0273   28.8858   44.6044 H   0  0  0  0  0  0  0  0  0  0  0  0
   57.1530   28.5390   44.8580 C   0  0  0  0  0  0  0  0  0  0  0  0
   57.0113   27.5373   45.2899 H   0  0  0  0  0  0  0  0  0  0  0  0
  1  2  1  0
  2  3  2  3
  3  4  1  0
  3  5  1  0
  5  6  2  0
  6  7  1  0
  6  8  1  0
  8  9  1  0
  8 10  2  0
 10 11  1  0
 11 12  1  0
 11 13  1  0
 11 14  1  0
 14 15  2  0
 15 16  1  0
 16 17  1  0
 17 18  1  0
 18 19  1  0
 18 20  1  0
 18 21  1  0
 21 22  2  0
 22 23  1  0
 22 24  1  0
 24 25  1  0
 24 26  2  0
 26 27  1  0
 26 28  1  0
 28 29  1  0
 28 30  2  0
 30 31  1  0
 17 32  2  0
 32 33  1  0
 33 34  1  0
 33 35  1  0
 33 36  1  0
 32 37  1  0
 37 38  1  0
 37 39  1  0
 39 40  2  0
 10 41  1  0
 41 42  1  0
 41 43  2  0
 43 44  1  0
  2 45  1  0
 45 46  2  0
 46 47  1  0
 46 48  1  0
 48 49  1  0
 48 50  2  0
 50 51  1  0
 50 52  1  0
 52 53  1  0
 52 54  2  0
 54 55  1  0
 43  5  1  0
 54 45  1  0
 39 15  1  0
 30 21  1  0
M  CHG  2  16  -1  27  -1
M  END
>  <UniqueID>  (51) 
49

>  <SMILES>  (51) 
Cc1[nH]c(=O)/c(=N\Cc2ccc(C=Cc3ccccc3)cc2)[n-]c1Cc1ccc([O-])cc1

>  <Energy>  (51) 
69.63107952944021

>  <Genealogy>  (51) 
Cc1[nH]c(=O)c(=NCc2ccc(C=Cc3ccccc3)cc2)[n-]c1Cc1ccc([O-])cc1 (protonated)
Cc1[nH]c(=O)/c(=N\Cc2ccc(C=Cc3ccccc3)cc2)[n-]c1Cc1ccc([O-])cc1 (cis-trans isomerization)
Cc1[nH]c(=O)/c(=N\Cc2ccc(C=Cc3ccccc3)cc2)[n-]c1Cc1ccc([O-])cc1 (3D coordinates assigned)
Cc1[nH]c(=O)/c(=N\Cc2ccc(C=Cc3ccccc3)cc2)[n-]c1Cc1ccc([O-])cc1 (optimized conformer: 69.63107952944021 kcal/mol)

>  <smiles>  (51) 
Cc1[nH]c(=O)c(=NCc2ccc(C=Cc3ccccc3)cc2)[nH]c1Cc1ccc(O)cc1

>  <score_type>  (51) 
oracle

>  <origin>  (51) 
adg

>  <m_score__min__energy>  (51) 
-15.039999999999999

>  <m_primary>  (51) 
energy

$$$$
51:0
     RDKit          3D

 37 38  0  0  0  0  0  0  0  0999 V2000
   60.1070   34.5850   46.5240 C   0  0  0  0  0  0  0  0  0  0  0  0
   59.1000   34.5800   45.6460 C   0  0  0  0  0  0  0  0  0  0  0  0
   57.7650   33.9910   45.9890 C   0  0  0  0  0  0  0  0  0  0  0  0
   57.2930   33.1610   44.8840 N   0  0  0  0  0  0  0  0  0  0  0  0
   57.3890   31.8660   44.8520 C   0  0  0  0  0  0  0  0  0  0  0  0
   56.2800   31.0890   44.8000 N   0  0  0  0  0  0  0  0  0  0  0  0
   56.3810   29.7370   44.7850 C   0  0  0  0  0  0  0  0  0  0  0  0
   55.3270   29.0480   44.7220 O   0  0  0  0  0  0  0  0  0  0  0  0
   57.6120   29.1350   44.8430 N   0  0  0  0  0  0  0  0  0  0  0  0
   57.7160   27.6600   44.8940 C   0  0  0  0  0  0  0  0  0  0  0  0
   57.4010   27.1330   46.2740 C   0  0  0  0  0  0  0  0  0  0  0  0
   57.8650   27.7310   47.2780 O   0  0  0  0  0  0  0  0  0  0  0  0
   56.6330   25.9390   46.4720 N   0  0  0  0  0  0  0  0  0  0  0  0
   56.7100   24.7740   45.6430 C   0  0  0  0  0  0  0  0  0  0  0  0
   57.9690   24.2260   45.3480 C   0  0  0  0  0  0  0  0  0  0  0  0
   58.0770   23.0970   44.5370 C   0  0  0  0  0  0  0  0  0  0  0  0
   56.9320   22.5060   44.0070 C   0  0  0  0  0  0  0  0  0  0  0  0
   55.6740   23.0470   44.2820 C   0  0  0  0  0  0  0  0  0  0  0  0
   55.5400   24.1890   45.0950 C   0  0  0  0  0  0  0  0  0  0  0  0
   54.1800   24.7200   45.3820 C   0  0  0  0  0  0  0  0  0  0  0  0
   54.0160   25.9420   45.6410 O   0  0  0  0  0  0  0  0  0  0  0  0
   53.0640   23.8920   45.3670 O   0  0  0  0  0  0  0  0  0  0  0  0
   58.7320   29.9280   44.8470 C   0  0  0  0  0  0  0  0  0  0  0  0
   59.8860   29.4160   44.8380 O   0  0  0  0  0  0  0  0  0  0  0  0
   58.6140   31.2820   44.8640 N   0  0  0  0  0  0  0  0  0  0  0  0
   61.0767   35.0239   46.2463 H   0  0  0  0  0  0  0  0  0  0  0  0
   59.9664   34.1502   47.5246 H   0  0  0  0  0  0  0  0  0  0  0  0
   59.2541   35.0180   44.6488 H   0  0  0  0  0  0  0  0  0  0  0  0
   57.8597   33.3741   46.8948 H   0  0  0  0  0  0  0  0  0  0  0  0
   57.0445   34.8027   46.1676 H   0  0  0  0  0  0  0  0  0  0  0  0
   57.0061   27.2260   44.1745 H   0  0  0  0  0  0  0  0  0  0  0  0
   58.7487   27.3767   44.6425 H   0  0  0  0  0  0  0  0  0  0  0  0
   58.8768   24.6910   45.7599 H   0  0  0  0  0  0  0  0  0  0  0  0
   59.0673   22.6724   44.3154 H   0  0  0  0  0  0  0  0  0  0  0  0
   57.0188   21.6125   43.3714 H   0  0  0  0  0  0  0  0  0  0  0  0
   54.7757   22.5746   43.8578 H   0  0  0  0  0  0  0  0  0  0  0  0
   59.4740   31.8760   44.8870 H   0  0  0  0  0  0  0  0  0  0  0  0
  1  2  2  0
  2  3  1  0
  3  4  1  0
  4  5  2  3
  5  6  1  0
  6  7  1  0
  7  8  2  0
  7  9  1  0
  9 10  1  0
 10 11  1  0
 11 12  2  0
 11 13  1  0
 13 14  1  0
 14 15  2  0
 15 16  1  0
 16 17  2  0
 17 18  1  0
 18 19  2  0
 19 20  1  0
 20 21  2  0
 20 22  1  0
  9 23  1  0
 23 24  2  0
 23 25  1  0
 25  5  1  0
 19 14  1  0
  1 26  1  0
  1 27  1  0
  2 28  1  0
  3 29  1  0
  3 30  1  0
 10 31  1  0
 10 32  1  0
 15 33  1  0
 16 34  1  0
 17 35  1  0
 18 36  1  0
 25 37  1  0
M  CHG  3   6  -1  13  -1  22  -1
M  END
>  <UniqueID>  (52) 
50

>  <SMILES>  (52) 
C=CCN=c1[n-]c(=O)n(CC(=O)[N-]c2ccccc2C(=O)[O-])c(=O)[nH]1

>  <Energy>  (52) 
43.79703147809219

>  <Genealogy>  (52) 
C=CCN=c1[n-]c(=O)n(CC(=O)[N-]c2ccccc2C(=O)[O-])c(=O)[nH]1 (protonated)
C=CCN=c1[n-]c(=O)n(CC(=O)[N-]c2ccccc2C(=O)[O-])c(=O)[nH]1 (3D coordinates assigned)
C=CCN=c1[n-]c(=O)n(CC(=O)[N-]c2ccccc2C(=O)[O-])c(=O)[nH]1 (optimized conformer: 43.79703147809219 kcal/mol)

>  <smiles>  (52) 
C=CCN=c1[nH]c(=O)n(CC(=O)Nc2ccccc2C(=O)O)c(=O)[nH]1

>  <score_type>  (52) 
oracle

>  <origin>  (52) 
adg

>  <m_score__min__energy>  (52) 
-13.83

>  <m_primary>  (52) 
energy

$$$$
52:0
     RDKit          3D

 44 47  0  0  0  0  0  0  0  0999 V2000
   56.5570   32.3430   50.7540 H   0  0  0  0  0  0  0  0  0  0  0  0
   57.4080   32.0280   51.2700 N   0  0  0  0  0  0  0  0  0  0  0  0
   58.1640   30.9040   50.8230 C   0  0  0  0  0  0  0  0  0  0  0  0
   57.8340   29.7540   51.2200 O   0  0  0  0  0  0  0  0  0  0  0  0
   59.3370   31.0710   49.9210 C   0  0  0  0  0  0  0  0  0  0  0  0
   60.3170   32.0260   50.2530 C   0  0  0  0  0  0  0  0  0  0  0  0
   60.1989   32.6314   51.1638 H   0  0  0  0  0  0  0  0  0  0  0  0
   61.4360   32.2140   49.4410 C   0  0  0  0  0  0  0  0  0  0  0  0
   62.1818   32.9790   49.7030 H   0  0  0  0  0  0  0  0  0  0  0  0
   61.6110   31.4350   48.2990 C   0  0  0  0  0  0  0  0  0  0  0  0
   62.5024   31.5752   47.6699 H   0  0  0  0  0  0  0  0  0  0  0  0
   60.6570   30.4770   47.9520 C   0  0  0  0  0  0  0  0  0  0  0  0
   60.8700   29.6780   46.8340 O   0  0  0  0  0  0  0  0  0  0  0  0
   59.4930   30.3170   48.7290 C   0  0  0  0  0  0  0  0  0  0  0  0
   58.5400   29.3060   48.3740 N   0  0  0  0  0  0  0  0  0  0  0  0
   58.6950   28.2330   47.6410 C   0  0  0  0  0  0  0  0  0  0  0  0
   59.3260   27.1780   48.2260 N   0  0  0  0  0  0  0  0  0  0  0  0
   59.5970   26.0210   47.5710 C   0  0  0  0  0  0  0  0  0  0  0  0
   60.1091   25.2000   48.0942 H   0  0  0  0  0  0  0  0  0  0  0  0
   59.2280   25.8730   46.2400 C   0  0  0  0  0  0  0  0  0  0  0  0
   59.4658   24.9467   45.6965 H   0  0  0  0  0  0  0  0  0  0  0  0
   58.5540   26.9100   45.6020 C   0  0  0  0  0  0  0  0  0  0  0  0
   58.2488   26.7953   44.5514 H   0  0  0  0  0  0  0  0  0  0  0  0
   58.2590   28.1020   46.2850 C   0  0  0  0  0  0  0  0  0  0  0  0
   57.4040   29.0850   45.5840 C   0  0  0  0  0  0  0  0  0  0  0  0
   57.8960   30.3220   45.3040 N   0  0  0  0  0  0  0  0  0  0  0  0
   57.1400   31.2650   44.6770 C   0  0  0  0  0  0  0  0  0  0  0  0
   57.6320   32.4290   44.3660 N   0  0  0  0  0  0  0  0  0  0  0  0
   58.2820   33.3520   45.2560 C   0  0  0  0  0  0  0  0  0  0  0  0
   58.2320   33.1050   46.6350 C   0  0  0  0  0  0  0  0  0  0  0  0
   57.6898   32.2260   47.0136 H   0  0  0  0  0  0  0  0  0  0  0  0
   58.8670   33.9690   47.5320 C   0  0  0  0  0  0  0  0  0  0  0  0
   58.8095   33.7777   48.6137 H   0  0  0  0  0  0  0  0  0  0  0  0
   59.5750   35.0760   47.0550 C   0  0  0  0  0  0  0  0  0  0  0  0
   60.0665   35.7610   47.7615 H   0  0  0  0  0  0  0  0  0  0  0  0
   59.6580   35.3120   45.6800 C   0  0  0  0  0  0  0  0  0  0  0  0
   60.2243   36.1772   45.3047 H   0  0  0  0  0  0  0  0  0  0  0  0
   59.0230   34.4510   44.7810 C   0  0  0  0  0  0  0  0  0  0  0  0
   59.1023   34.6324   43.6990 H   0  0  0  0  0  0  0  0  0  0  0  0
   55.8630   30.9700   44.3190 N   0  0  0  0  0  0  0  0  0  0  0  0
   55.3190   29.7570   44.5910 C   0  0  0  0  0  0  0  0  0  0  0  0
   54.2795   29.5424   44.3021 H   0  0  0  0  0  0  0  0  0  0  0  0
   56.0790   28.7830   45.2370 C   0  0  0  0  0  0  0  0  0  0  0  0
   55.5270   27.5350   45.5090 O   0  0  0  0  0  0  0  0  0  0  0  0
  1  2  1  0
  2  3  1  0
  3  4  2  0
  3  5  1  0
  5  6  2  0
  6  7  1  0
  6  8  1  0
  8  9  1  0
  8 10  2  0
 10 11  1  0
 10 12  1  0
 12 13  1  0
 12 14  2  0
 14 15  1  0
 15 16  2  0
 16 17  1  0
 17 18  1  0
 18 19  1  0
 18 20  2  0
 20 21  1  0
 20 22  1  0
 22 23  1  0
 22 24  2  0
 24 25  1  0
 25 26  1  0
 26 27  1  0
 27 28  2  0
 28 29  1  0
 29 30  2  0
 30 31  1  0
 30 32  1  0
 32 33  1  0
 32 34  2  0
 34 35  1  0
 34 36  1  0
 36 37  1  0
 36 38  2  0
 38 39  1  0
 27 40  1  0
 40 41  2  0
 41 42  1  0
 41 43  1  0
 43 44  1  0
 14  5  1  0
 24 16  1  0
 43 25  2  0
 38 29  1  0
M  CHG  5   2  -1  13  -1  17  -1  26  -1  44  -1
M  END
>  <UniqueID>  (53) 
51

>  <SMILES>  (53) 
[NH-]C(=O)c1cccc([O-])c1/N=c1/[n-]cccc1-c1[n-]/c(=N\c2ccccc2)ncc1[O-]

>  <Energy>  (53) 
77.06431772476375

>  <Genealogy>  (53) 
[NH-]C(=O)c1cccc([O-])c1N=c1[n-]cccc1-c1[n-]c(=Nc2ccccc2)ncc1[O-] (protonated)
[NH-]C(=O)c1cccc([O-])c1/N=c1/[n-]cccc1-c1[n-]/c(=N\c2ccccc2)ncc1[O-] (cis-trans isomerization)
[NH-]C(=O)c1cccc([O-])c1/N=c1/[n-]cccc1-c1[n-]/c(=N\c2ccccc2)ncc1[O-] (3D coordinates assigned)
[NH-]C(=O)c1cccc([O-])c1/N=c1/[n-]cccc1-c1[n-]/c(=N\c2ccccc2)ncc1[O-] (optimized conformer: 77.06431772476375 kcal/mol)

>  <smiles>  (53) 
NC(=O)c1cccc(O)c1N=c1[nH]cccc1-c1[nH]c(=Nc2ccccc2)ncc1O

>  <score_type>  (53) 
oracle

>  <origin>  (53) 
adg

>  <m_score__min__energy>  (53) 
-16.75

>  <m_primary>  (53) 
energy

$$$$
53:0
     RDKit          3D

 58 62  0  0  0  0  0  0  0  0999 V2000
   55.0980   26.6330   45.9970 O   0  0  0  0  0  0  0  0  0  0  0  0
   56.3460   26.5980   45.8400 C   0  0  0  0  0  0  0  0  0  0  0  0
   56.8860   25.8430   44.8060 O   0  0  0  0  0  0  0  0  0  0  0  0
   57.2480   27.3330   46.7790 C   0  0  0  0  0  0  0  0  0  0  0  0
   57.4950   28.7300   46.2790 C   0  0  0  0  0  0  0  0  0  0  0  0
   56.6400   29.4380   45.4440 C   0  0  0  0  0  0  0  0  0  0  0  0
   55.4210   28.9590   44.9780 O   0  0  0  0  0  0  0  0  0  0  0  0
   57.1220   30.6600   45.1270 N   0  0  0  0  0  0  0  0  0  0  0  0
   58.3050   30.7220   45.7670 C   0  0  0  0  0  0  0  0  0  0  0  0
   59.1760   31.8090   45.7530 C   0  0  0  0  0  0  0  0  0  0  0  0
   60.3640   31.7160   46.4920 C   0  0  0  0  0  0  0  0  0  0  0  0
   60.6600   30.5510   47.2230 C   0  0  0  0  0  0  0  0  0  0  0  0
   59.7750   29.4530   47.2200 C   0  0  0  0  0  0  0  0  0  0  0  0
   60.1240   28.2620   47.9960 C   0  0  0  0  0  0  0  0  0  0  0  0
   59.6840   27.1380   47.6330 O   0  0  0  0  0  0  0  0  0  0  0  0
   60.9750   28.3870   49.1410 N   0  0  0  0  0  0  0  0  0  0  0  0
   60.6950   29.1380   50.3310 C   0  0  0  0  0  0  0  0  0  0  0  0
   59.4560   29.7820   50.4450 C   0  0  0  0  0  0  0  0  0  0  0  0
   59.1440   30.5180   51.5900 C   0  0  0  0  0  0  0  0  0  0  0  0
   60.0580   30.5980   52.6430 C   0  0  0  0  0  0  0  0  0  0  0  0
   61.2860   29.9210   52.5690 C   0  0  0  0  0  0  0  0  0  0  0  0
   62.2470   29.9970   53.6930 C   0  0  0  0  0  0  0  0  0  0  0  0
   62.2200   29.1080   54.5870 O   0  0  0  0  0  0  0  0  0  0  0  0
   63.2000   31.0710   53.8010 N   0  0  0  0  0  0  0  0  0  0  0  0
   63.3110   31.8670   55.0310 C   0  0  0  0  0  0  0  0  0  0  0  0
   63.6130   33.3420   54.7340 C   0  0  0  0  0  0  0  0  0  0  0  0
   62.6450   33.9150   53.6910 C   0  0  0  0  0  0  0  0  0  0  0  0
   63.1100   33.6760   52.2460 C   0  0  0  0  0  0  0  0  0  0  0  0
   64.0960   32.5420   51.9980 C   0  0  0  0  0  0  0  0  0  0  0  0
   65.0020   32.7050   50.9330 C   0  0  0  0  0  0  0  0  0  0  0  0
   65.8980   31.6900   50.5890 C   0  0  0  0  0  0  0  0  0  0  0  0
   65.8940   30.4880   51.2940 C   0  0  0  0  0  0  0  0  0  0  0  0
   64.9960   30.2990   52.3440 C   0  0  0  0  0  0  0  0  0  0  0  0
   64.0960   31.3130   52.7070 C   0  0  0  0  0  0  0  0  0  0  0  0
   61.6020   29.1970   51.4060 C   0  0  0  0  0  0  0  0  0  0  0  0
   58.5840   29.5720   46.4760 C   0  0  0  0  0  0  0  0  0  0  0  0
   56.7770   27.3809   47.7719 H   0  0  0  0  0  0  0  0  0  0  0  0
   58.2085   26.8007   46.8430 H   0  0  0  0  0  0  0  0  0  0  0  0
   55.1570   27.9920   45.1190 H   0  0  0  0  0  0  0  0  0  0  0  0
   58.9382   32.7159   45.1777 H   0  0  0  0  0  0  0  0  0  0  0  0
   61.0695   32.5599   46.5002 H   0  0  0  0  0  0  0  0  0  0  0  0
   61.5926   30.4959   47.8037 H   0  0  0  0  0  0  0  0  0  0  0  0
   58.7242   29.7074   49.6272 H   0  0  0  0  0  0  0  0  0  0  0  0
   58.1763   31.0359   51.6627 H   0  0  0  0  0  0  0  0  0  0  0  0
   59.8147   31.1943   53.5348 H   0  0  0  0  0  0  0  0  0  0  0  0
   62.3616   31.8027   55.5829 H   0  0  0  0  0  0  0  0  0  0  0  0
   64.1437   31.4619   55.6247 H   0  0  0  0  0  0  0  0  0  0  0  0
   63.5190   33.9206   55.6648 H   0  0  0  0  0  0  0  0  0  0  0  0
   64.6344   33.4110   54.3316 H   0  0  0  0  0  0  0  0  0  0  0  0
   61.6622   33.4397   53.8263 H   0  0  0  0  0  0  0  0  0  0  0  0
   62.5995   35.0030   53.8466 H   0  0  0  0  0  0  0  0  0  0  0  0
   62.2138   33.4700   51.6423 H   0  0  0  0  0  0  0  0  0  0  0  0
   63.6624   34.5885   51.9772 H   0  0  0  0  0  0  0  0  0  0  0  0
   65.0044   33.6458   50.3631 H   0  0  0  0  0  0  0  0  0  0  0  0
   66.6069   31.8396   49.7613 H   0  0  0  0  0  0  0  0  0  0  0  0
   66.5990   29.6885   51.0223 H   0  0  0  0  0  0  0  0  0  0  0  0
   64.9930   29.3459   52.8931 H   0  0  0  0  0  0  0  0  0  0  0  0
   62.5662   28.6722   51.3355 H   0  0  0  0  0  0  0  0  0  0  0  0
  1  2  2  0
  2  3  1  0
  2  4  1  0
  4  5  1  0
  5  6  2  0
  6  7  1  0
  6  8  1  0
  8  9  1  0
  9 10  2  0
 10 11  1  0
 11 12  2  0
 12 13  1  0
 13 14  1  0
 14 15  2  0
 14 16  1  0
 16 17  1  0
 17 18  2  0
 18 19  1  0
 19 20  2  0
 20 21  1  0
 21 22  1  0
 22 23  2  0
 22 24  1  0
 24 25  1  0
 25 26  1  0
 26 27  1  0
 27 28  1  0
 28 29  1  0
 29 30  2  0
 30 31  1  0
 31 32  2  0
 32 33  1  0
 33 34  2  0
 21 35  2  0
 13 36  2  0
 36  5  1  0
 36  9  1  0
 35 17  1  0
 34 24  1  0
 34 29  1  0
  4 37  1  0
  4 38  1  0
  7 39  1  0
 10 40  1  0
 11 41  1  0
 12 42  1  0
 18 43  1  0
 19 44  1  0
 20 45  1  0
 25 46  1  0
 25 47  1  0
 26 48  1  0
 26 49  1  0
 27 50  1  0
 27 51  1  0
 28 52  1  0
 28 53  1  0
 30 54  1  0
 31 55  1  0
 32 56  1  0
 33 57  1  0
 35 58  1  0
M  CHG  3   3  -1   8  -1  16  -1
M  END
>  <UniqueID>  (54) 
52

>  <SMILES>  (54) 
O=C([O-])Cc1c(O)[n-]c2cccc(C(=O)[N-]c3cccc(C(=O)N4CCCCc5ccccc54)c3)c12

>  <Energy>  (54) 
124.26988939033392

>  <Genealogy>  (54) 
O=C([O-])Cc1c(O)[n-]c2cccc(C(=O)[N-]c3cccc(C(=O)N4CCCCc5ccccc54)c3)c12 (protonated)
O=C([O-])Cc1c(O)[n-]c2cccc(C(=O)[N-]c3cccc(C(=O)N4CCCCc5ccccc54)c3)c12 (3D coordinates assigned)
O=C([O-])Cc1c(O)[n-]c2cccc(C(=O)[N-]c3cccc(C(=O)N4CCCCc5ccccc54)c3)c12 (nonaromatic ring conformer: 124.26988939033392 kcal/mol)

>  <smiles>  (54) 
O=C(O)Cc1c(O)[nH]c2cccc(C(=O)Nc3cccc(C(=O)N4CCCCc5ccccc54)c3)c12

>  <score_type>  (54) 
oracle

>  <origin>  (54) 
adg

>  <m_score__min__energy>  (54) 
-12.25

>  <m_primary>  (54) 
energy

$$$$
54:0
     RDKit          3D

 72 75  0  0  0  0  0  0  0  0999 V2000
   58.6880   31.4770   54.6430 C   0  0  0  0  0  0  0  0  0  0  0  0
   59.4610   32.6670   55.2080 C   0  0  0  0  0  0  0  0  0  0  0  0
   60.0200   33.4900   54.1110 N   0  0  0  0  0  0  0  0  0  0  0  0
   58.9890   34.3600   53.4760 C   0  0  0  0  0  0  0  0  0  0  0  0
   58.5080   33.8420   52.1140 C   0  0  0  0  0  0  0  0  0  0  0  0
   59.6530   33.6220   51.2280 N   0  0  0  0  0  0  0  0  0  0  0  0
   59.4600   33.5740   49.8080 C   0  0  0  0  0  0  0  0  0  0  0  0
   60.0190   34.5730   49.0010 C   0  0  0  0  0  0  0  0  0  0  0  0
   59.8430   34.5460   47.6160 C   0  0  0  0  0  0  0  0  0  0  0  0
   59.1150   33.5060   47.0140 C   0  0  0  0  0  0  0  0  0  0  0  0
   58.9130   33.4660   45.5490 C   0  0  0  0  0  0  0  0  0  0  0  0
   59.6210   34.2060   44.8100 O   0  0  0  0  0  0  0  0  0  0  0  0
   57.9150   32.6140   44.9630 N   0  0  0  0  0  0  0  0  0  0  0  0
   57.7640   32.4670   43.5160 C   0  0  0  0  0  0  0  0  0  0  0  0
   57.1460   31.1080   43.1720 C   0  0  0  0  0  0  0  0  0  0  0  0
   57.5930   30.0570   44.1540 C   0  0  0  0  0  0  0  0  0  0  0  0
   58.9530   29.9210   44.4820 C   0  0  0  0  0  0  0  0  0  0  0  0
   59.3660   28.9280   45.3770 C   0  0  0  0  0  0  0  0  0  0  0  0
   58.4270   28.0600   45.9410 C   0  0  0  0  0  0  0  0  0  0  0  0
   57.0750   28.1820   45.6100 C   0  0  0  0  0  0  0  0  0  0  0  0
   56.6570   29.1740   44.7160 C   0  0  0  0  0  0  0  0  0  0  0  0
   58.5520   32.5070   47.8250 C   0  0  0  0  0  0  0  0  0  0  0  0
   58.7010   32.5440   49.2250 C   0  0  0  0  0  0  0  0  0  0  0  0
   58.1320   31.5310   50.0700 N   0  0  0  0  0  0  0  0  0  0  0  0
   58.4970   30.1440   50.1080 C   0  0  0  0  0  0  0  0  0  0  0  0
   58.4520   29.4960   51.1870 O   0  0  0  0  0  0  0  0  0  0  0  0
   58.9380   29.4650   48.8460 C   0  0  0  0  0  0  0  0  0  0  0  0
   60.4480   29.5860   48.6180 C   0  0  0  0  0  0  0  0  0  0  0  0
   61.2740   30.2720   50.0980 S   0  0  0  0  0  0  0  0  0  0  0  0
   62.2310   31.4640   49.1580 C   0  0  0  0  0  0  0  0  0  0  0  0
   63.2960   32.1440   49.7630 C   0  0  0  0  0  0  0  0  0  0  0  0
   64.0370   33.0790   49.0300 C   0  0  0  0  0  0  0  0  0  0  0  0
   63.7240   33.3240   47.6890 C   0  0  0  0  0  0  0  0  0  0  0  0
   62.6640   32.6430   47.0800 C   0  0  0  0  0  0  0  0  0  0  0  0
   61.9180   31.7120   47.8140 C   0  0  0  0  0  0  0  0  0  0  0  0
   60.9680   33.3210   51.8000 C   0  0  0  0  0  0  0  0  0  0  0  0
   60.7920   32.6490   53.1640 C   0  0  0  0  0  0  0  0  0  0  0  0
   58.2934   30.8696   55.4709 H   0  0  0  0  0  0  0  0  0  0  0  0
   57.8537   31.8414   54.0256 H   0  0  0  0  0  0  0  0  0  0  0  0
   59.3601   30.8629   54.0256 H   0  0  0  0  0  0  0  0  0  0  0  0
   58.7822   33.2847   55.8143 H   0  0  0  0  0  0  0  0  0  0  0  0
   60.2882   32.2919   55.8285 H   0  0  0  0  0  0  0  0  0  0  0  0
   58.1225   34.4229   54.1507 H   0  0  0  0  0  0  0  0  0  0  0  0
   59.4545   35.3416   53.3036 H   0  0  0  0  0  0  0  0  0  0  0  0
   57.9691   32.8935   52.2549 H   0  0  0  0  0  0  0  0  0  0  0  0
   57.8389   34.5879   51.6602 H   0  0  0  0  0  0  0  0  0  0  0  0
   60.6010   35.3849   49.4616 H   0  0  0  0  0  0  0  0  0  0  0  0
   60.2763   35.3426   46.9934 H   0  0  0  0  0  0  0  0  0  0  0  0
   57.2700   32.0720   45.5790 H   0  0  0  0  0  0  0  0  0  0  0  0
   57.1106   33.2671   43.1379 H   0  0  0  0  0  0  0  0  0  0  0  0
   58.7573   32.5328   43.0480 H   0  0  0  0  0  0  0  0  0  0  0  0
   56.0496   31.1908   43.2056 H   0  0  0  0  0  0  0  0  0  0  0  0
   57.4754   30.8141   42.1645 H   0  0  0  0  0  0  0  0  0  0  0  0
   59.6953   30.5977   44.0335 H   0  0  0  0  0  0  0  0  0  0  0  0
   60.4304   28.8304   45.6369 H   0  0  0  0  0  0  0  0  0  0  0  0
   58.7524   27.2806   46.6457 H   0  0  0  0  0  0  0  0  0  0  0  0
   56.3375   27.4966   46.0532 H   0  0  0  0  0  0  0  0  0  0  0  0
   55.5926   29.2623   44.4529 H   0  0  0  0  0  0  0  0  0  0  0  0
   57.9874   31.6850   47.3607 H   0  0  0  0  0  0  0  0  0  0  0  0
   58.6737   28.3990   48.9069 H   0  0  0  0  0  0  0  0  0  0  0  0
   58.4299   29.9573   48.0037 H   0  0  0  0  0  0  0  0  0  0  0  0
   60.8615   28.5895   48.4033 H   0  0  0  0  0  0  0  0  0  0  0  0
   60.6237   30.2638   47.7696 H   0  0  0  0  0  0  0  0  0  0  0  0
   63.5502   31.9433   50.8142 H   0  0  0  0  0  0  0  0  0  0  0  0
   64.8657   33.6211   49.5090 H   0  0  0  0  0  0  0  0  0  0  0  0
   64.3120   34.0531   47.1122 H   0  0  0  0  0  0  0  0  0  0  0  0
   62.4169   32.8386   46.0261 H   0  0  0  0  0  0  0  0  0  0  0  0
   61.0858   31.1749   47.3355 H   0  0  0  0  0  0  0  0  0  0  0  0
   61.5143   32.6446   51.1262 H   0  0  0  0  0  0  0  0  0  0  0  0
   61.5358   34.2551   51.9231 H   0  0  0  0  0  0  0  0  0  0  0  0
   60.2605   31.6963   53.0229 H   0  0  0  0  0  0  0  0  0  0  0  0
   61.7926   32.4915   53.5929 H   0  0  0  0  0  0  0  0  0  0  0  0
  1  2  1  0
  2  3  1  0
  3  4  1  0
  4  5  1  0
  5  6  1  0
  6  7  1  0
  7  8  2  0
  8  9  1  0
  9 10  2  0
 10 11  1  0
 11 12  2  0
 11 13  1  0
 13 14  1  0
 14 15  1  0
 15 16  1  0
 16 17  2  0
 17 18  1  0
 18 19  2  0
 19 20  1  0
 20 21  2  0
 10 22  1  0
 22 23  2  0
 23 24  1  0
 24 25  1  0
 25 26  2  0
 25 27  1  0
 27 28  1  0
 28 29  1  0
 29 30  1  0
 30 31  2  0
 31 32  1  0
 32 33  2  0
 33 34  1  0
 34 35  2  0
  6 36  1  0
 36 37  1  0
 37  3  1  0
 23  7  1  0
 35 30  1  0
 21 16  1  0
  1 38  1  0
  1 39  1  0
  1 40  1  0
  2 41  1  0
  2 42  1  0
  4 43  1  0
  4 44  1  0
  5 45  1  0
  5 46  1  0
  8 47  1  0
  9 48  1  0
 13 49  1  0
 14 50  1  0
 14 51  1  0
 15 52  1  0
 15 53  1  0
 17 54  1  0
 18 55  1  0
 19 56  1  0
 20 57  1  0
 21 58  1  0
 22 59  1  0
 27 60  1  0
 27 61  1  0
 28 62  1  0
 28 63  1  0
 31 64  1  0
 32 65  1  0
 33 66  1  0
 34 67  1  0
 35 68  1  0
 36 69  1  0
 36 70  1  0
 37 71  1  0
 37 72  1  0
M  CHG  1  24  -1
M  END
>  <UniqueID>  (55) 
53

>  <SMILES>  (55) 
CCN1CCN(c2ccc(C(=O)NCCc3ccccc3)cc2[N-]C(=O)CCSc2ccccc2)CC1

>  <Energy>  (55) 
81.16709343213807

>  <Genealogy>  (55) 
CCN1CCN(c2ccc(C(=O)NCCc3ccccc3)cc2[N-]C(=O)CCSc2ccccc2)CC1 (protonated)
CCN1CCN(c2ccc(C(=O)NCCc3ccccc3)cc2[N-]C(=O)CCSc2ccccc2)CC1 (3D coordinates assigned)
CCN1CCN(c2ccc(C(=O)NCCc3ccccc3)cc2[N-]C(=O)CCSc2ccccc2)CC1 (nonaromatic ring conformer: 81.16709343213807 kcal/mol)

>  <smiles>  (55) 
CCN1CCN(c2ccc(C(=O)NCCc3ccccc3)cc2NC(=O)CCSc2ccccc2)CC1

>  <score_type>  (55) 
oracle

>  <origin>  (55) 
adg

>  <m_score__min__energy>  (55) 
-12.09

>  <m_primary>  (55) 
energy

$$$$
55:0
     RDKit          3D

 63 66  0  0  0  0  0  0  0  0999 V2000
   61.5185   29.9711   46.2120 H   0  0  0  0  0  0  0  0  0  0  0  0
   60.5550   30.0610   46.7350 C   0  0  0  0  0  0  0  0  0  0  0  0
   60.5230   29.7080   48.1680 C   0  0  0  0  0  0  0  0  0  0  0  0
   60.0490   28.5960   48.5140 O   0  0  0  0  0  0  0  0  0  0  0  0
   60.9520   30.6610   49.1500 N   0  0  0  0  0  0  0  0  0  0  0  0
   60.1670   31.5490   49.9570 C   0  0  0  0  0  0  0  0  0  0  0  0
   58.9120   31.1720   50.4770 C   0  0  0  0  0  0  0  0  0  0  0  0
   58.4858   30.1912   50.2194 H   0  0  0  0  0  0  0  0  0  0  0  0
   58.2050   32.0380   51.3190 C   0  0  0  0  0  0  0  0  0  0  0  0
   56.6380   31.5670   51.9560 Cl  0  0  0  0  0  0  0  0  0  0  0  0
   58.7490   33.2760   51.6630 C   0  0  0  0  0  0  0  0  0  0  0  0
   58.1914   33.9574   52.3223 H   0  0  0  0  0  0  0  0  0  0  0  0
   60.0000   33.6500   51.1710 C   0  0  0  0  0  0  0  0  0  0  0  0
   60.4267   34.6240   51.4527 H   0  0  0  0  0  0  0  0  0  0  0  0
   60.7200   32.7960   50.3200 C   0  0  0  0  0  0  0  0  0  0  0  0
   62.0150   33.2050   49.8310 N   0  0  0  0  0  0  0  0  0  0  0  0
   62.1370   34.2960   48.8640 C   0  0  0  0  0  0  0  0  0  0  0  0
   62.7320   35.1078   49.3079 H   0  0  0  0  0  0  0  0  0  0  0  0
   61.1302   34.6581   48.6088 H   0  0  0  0  0  0  0  0  0  0  0  0
   62.8300   33.8050   47.5770 C   0  0  0  0  0  0  0  0  0  0  0  0
   63.3550   34.6568   47.1201 H   0  0  0  0  0  0  0  0  0  0  0  0
   62.0424   33.3956   46.9274 H   0  0  0  0  0  0  0  0  0  0  0  0
   63.8190   32.7090   47.8010 N   0  0  0  0  0  0  0  0  0  0  0  0
   64.6330   32.8930   47.1700 H   0  0  0  0  0  0  0  0  0  0  0  0
   63.2690   31.3970   47.4050 C   0  0  0  0  0  0  0  0  0  0  0  0
   63.0249   30.8147   48.3058 H   0  0  0  0  0  0  0  0  0  0  0  0
   62.3579   31.5467   46.8071 H   0  0  0  0  0  0  0  0  0  0  0  0
   64.0145   30.8522   46.8071 H   0  0  0  0  0  0  0  0  0  0  0  0
   64.3450   32.6740   49.1830 C   0  0  0  0  0  0  0  0  0  0  0  0
   64.8634   33.6222   49.3885 H   0  0  0  0  0  0  0  0  0  0  0  0
   65.0301   31.8169   49.2611 H   0  0  0  0  0  0  0  0  0  0  0  0
   63.2310   32.4830   50.2260 C   0  0  0  0  0  0  0  0  0  0  0  0
   63.5775   32.8654   51.1974 H   0  0  0  0  0  0  0  0  0  0  0  0
   62.9960   31.4108   50.2973 H   0  0  0  0  0  0  0  0  0  0  0  0
   59.4980   30.4840   46.0190 C   0  0  0  0  0  0  0  0  0  0  0  0
   59.0009   29.7496   45.3682 H   0  0  0  0  0  0  0  0  0  0  0  0
   58.9500   31.8600   46.0370 C   0  0  0  0  0  0  0  0  0  0  0  0
   59.7080   32.9200   46.5730 C   0  0  0  0  0  0  0  0  0  0  0  0
   60.7015   32.7197   47.0005 H   0  0  0  0  0  0  0  0  0  0  0  0
   59.2070   34.2210   46.5650 C   0  0  0  0  0  0  0  0  0  0  0  0
   59.7829   35.0346   47.0302 H   0  0  0  0  0  0  0  0  0  0  0  0
   57.9750   34.4920   45.9670 C   0  0  0  0  0  0  0  0  0  0  0  0
   57.5923   35.5230   45.9424 H   0  0  0  0  0  0  0  0  0  0  0  0
   57.2270   33.4580   45.4000 C   0  0  0  0  0  0  0  0  0  0  0  0
   56.2648   33.6814   44.9159 H   0  0  0  0  0  0  0  0  0  0  0  0
   57.6970   32.1300   45.4440 C   0  0  0  0  0  0  0  0  0  0  0  0
   56.9630   31.0650   44.8940 O   0  0  0  0  0  0  0  0  0  0  0  0
   57.0380   30.6180   43.5650 C   0  0  0  0  0  0  0  0  0  0  0  0
   57.1780   31.4280   42.6080 O   0  0  0  0  0  0  0  0  0  0  0  0
   56.9350   29.1520   43.2810 C   0  0  0  0  0  0  0  0  0  0  0  0
   55.8736   28.8774   43.1920 H   0  0  0  0  0  0  0  0  0  0  0  0
   57.4701   28.9401   42.3435 H   0  0  0  0  0  0  0  0  0  0  0  0
   57.5630   28.3380   44.3840 C   0  0  0  0  0  0  0  0  0  0  0  0
   56.8380   28.0420   45.5530 C   0  0  0  0  0  0  0  0  0  0  0  0
   55.8064   28.4071   45.6649 H   0  0  0  0  0  0  0  0  0  0  0  0
   57.4240   27.2850   46.5740 C   0  0  0  0  0  0  0  0  0  0  0  0
   56.8490   27.0476   47.4812 H   0  0  0  0  0  0  0  0  0  0  0  0
   58.7400   26.8300   46.4420 C   0  0  0  0  0  0  0  0  0  0  0  0
   59.1981   26.2324   47.2439 H   0  0  0  0  0  0  0  0  0  0  0  0
   59.4750   27.1350   45.2890 C   0  0  0  0  0  0  0  0  0  0  0  0
   60.5127   26.7838   45.1895 H   0  0  0  0  0  0  0  0  0  0  0  0
   58.8890   27.8870   44.2630 C   0  0  0  0  0  0  0  0  0  0  0  0
   59.4685   28.1256   43.3590 H   0  0  0  0  0  0  0  0  0  0  0  0
  1  2  1  0
  2  3  1  0
  3  4  2  0
  3  5  1  0
  5  6  1  0
  6  7  2  0
  7  8  1  0
  7  9  1  0
  9 10  1  0
  9 11  2  0
 11 12  1  0
 11 13  1  0
 13 14  1  0
 13 15  2  0
 15 16  1  0
 16 17  1  0
 17 18  1  0
 17 19  1  0
 17 20  1  0
 20 21  1  0
 20 22  1  0
 20 23  1  0
 23 24  1  0
 23 25  1  0
 25 26  1  0
 25 27  1  0
 25 28  1  0
 23 29  1  0
 29 30  1  0
 29 31  1  0
 29 32  1  0
 32 33  1  0
 32 34  1  0
  2 35  2  0
 35 36  1  0
 35 37  1  0
 37 38  2  0
 38 39  1  0
 38 40  1  0
 40 41  1  0
 40 42  2  0
 42 43  1  0
 42 44  1  0
 44 45  1  0
 44 46  2  0
 46 47  1  0
 47 48  1  0
 48 49  2  0
 48 50  1  0
 50 51  1  0
 50 52  1  0
 50 53  1  0
 53 54  2  0
 54 55  1  0
 54 56  1  0
 56 57  1  0
 56 58  2  0
 58 59  1  0
 58 60  1  0
 60 61  1  0
 60 62  2  0
 62 63  1  0
 15  6  1  0
 32 16  1  0
 46 37  1  0
 62 53  1  0
M  CHG  2   5  -1  23   1
M  END
>  <UniqueID>  (56) 
54

>  <SMILES>  (56) 
C[NH+]1CCN(c2ccc(Cl)cc2[N-]C(=O)/C=C\c2ccccc2OC(=O)Cc2ccccc2)CC1

>  <Energy>  (56) 
88.21625723739662

>  <Genealogy>  (56) 
C[NH+]1CCN(c2ccc(Cl)cc2[N-]C(=O)C=Cc2ccccc2OC(=O)Cc2ccccc2)CC1 (protonated)
C[NH+]1CCN(c2ccc(Cl)cc2[N-]C(=O)/C=C\c2ccccc2OC(=O)Cc2ccccc2)CC1 (cis-trans isomerization)
C[NH+]1CCN(c2ccc(Cl)cc2[N-]C(=O)/C=C\c2ccccc2OC(=O)Cc2ccccc2)CC1 (3D coordinates assigned)
C[NH+]1CCN(c2ccc(Cl)cc2[N-]C(=O)/C=C\c2ccccc2OC(=O)Cc2ccccc2)CC1 (nonaromatic ring conformer: 88.21625723739662 kcal/mol)

>  <smiles>  (56) 
CN1CCN(c2ccc(Cl)cc2NC(=O)C=Cc2ccccc2OC(=O)Cc2ccccc2)CC1

>  <score_type>  (56) 
oracle

>  <origin>  (56) 
adg

>  <m_score__min__energy>  (56) 
-9.3200000000000003

>  <m_primary>  (56) 
energy

$$$$
56:0
     RDKit          3D

 53 56  0  0  0  0  0  0  0  0999 V2000
   54.2880   26.6950   46.7440 H   0  0  0  0  0  0  0  0  0  0  0  0
   54.3850   26.2120   45.8620 O   0  0  0  0  0  0  0  0  0  0  0  0
   53.8570   24.9380   45.6630 C   0  0  0  0  0  0  0  0  0  0  0  0
   52.7690   24.7020   44.9120 N   0  0  0  0  0  0  0  0  0  0  0  0
   52.5840   23.3730   45.0600 C   0  0  0  0  0  0  0  0  0  0  0  0
   51.6400   22.7540   44.5050 O   0  0  0  0  0  0  0  0  0  0  0  0
   53.4870   22.7600   45.8560 N   0  0  0  0  0  0  0  0  0  0  0  0
   54.3110   23.7590   46.2200 C   0  0  0  0  0  0  0  0  0  0  0  0
   55.4540   23.5670   47.1310 C   0  0  0  0  0  0  0  0  0  0  0  0
   55.2626   23.1333   48.1236 H   0  0  0  0  0  0  0  0  0  0  0  0
   56.7200   23.8950   46.8110 C   0  0  0  0  0  0  0  0  0  0  0  0
   57.3390   25.1110   47.0640 C   0  0  0  0  0  0  0  0  0  0  0  0
   56.9008   25.9735   47.5876 H   0  0  0  0  0  0  0  0  0  0  0  0
   58.6110   25.0300   46.5320 C   0  0  0  0  0  0  0  0  0  0  0  0
   59.5700   26.1540   46.5050 C   0  0  0  0  0  0  0  0  0  0  0  0
   60.5960   26.0970   47.2360 O   0  0  0  0  0  0  0  0  0  0  0  0
   59.3600   27.2960   45.6490 N   0  0  0  0  0  0  0  0  0  0  0  0
   57.9900   27.7660   45.3810 C   0  0  0  0  0  0  0  0  0  0  0  0
   57.4778   27.0254   44.7492 H   0  0  0  0  0  0  0  0  0  0  0  0
   57.4778   27.8877   46.3468 H   0  0  0  0  0  0  0  0  0  0  0  0
   57.9770   29.1240   44.6630 C   0  0  0  0  0  0  0  0  0  0  0  0
   58.2313   28.9742   43.6033 H   0  0  0  0  0  0  0  0  0  0  0  0
   56.9729   29.5632   44.7572 H   0  0  0  0  0  0  0  0  0  0  0  0
   58.9530   30.0440   45.2680 N   0  0  0  0  0  0  0  0  0  0  0  0
   58.6670   31.4590   45.3430 C   0  0  0  0  0  0  0  0  0  0  0  0
   57.6920   32.0350   44.5090 C   0  0  0  0  0  0  0  0  0  0  0  0
   57.1344   31.4022   43.8029 H   0  0  0  0  0  0  0  0  0  0  0  0
   57.4270   33.4040   44.5710 C   0  0  0  0  0  0  0  0  0  0  0  0
   56.6665   33.8455   43.9102 H   0  0  0  0  0  0  0  0  0  0  0  0
   58.1240   34.2150   45.4690 C   0  0  0  0  0  0  0  0  0  0  0  0
   57.9186   35.2951   45.5033 H   0  0  0  0  0  0  0  0  0  0  0  0
   59.0850   33.6600   46.3280 C   0  0  0  0  0  0  0  0  0  0  0  0
   59.8680   34.5480   47.2630 C   0  0  0  0  0  0  0  0  0  0  0  0
   59.3410   34.4920   48.5410 F   0  0  0  0  0  0  0  0  0  0  0  0
   61.1940   34.1520   47.3250 F   0  0  0  0  0  0  0  0  0  0  0  0
   59.8100   35.8510   46.8070 F   0  0  0  0  0  0  0  0  0  0  0  0
   59.3690   32.2840   46.2410 C   0  0  0  0  0  0  0  0  0  0  0  0
   60.1491   31.8485   46.8827 H   0  0  0  0  0  0  0  0  0  0  0  0
   60.2940   29.5580   45.6340 C   0  0  0  0  0  0  0  0  0  0  0  0
   61.0498   30.1889   45.1434 H   0  0  0  0  0  0  0  0  0  0  0  0
   60.3947   29.6090   46.7282 H   0  0  0  0  0  0  0  0  0  0  0  0
   60.4980   28.1060   45.1980 C   0  0  0  0  0  0  0  0  0  0  0  0
   60.5700   28.0590   44.1014 H   0  0  0  0  0  0  0  0  0  0  0  0
   61.4253   27.7160   45.6430 H   0  0  0  0  0  0  0  0  0  0  0  0
   58.8070   23.8170   45.9620 N   0  0  0  0  0  0  0  0  0  0  0  0
   60.0300   23.3620   45.2900 C   0  0  0  0  0  0  0  0  0  0  0  0
   60.7805   23.0828   46.0441 H   0  0  0  0  0  0  0  0  0  0  0  0
   59.7998   22.4893   44.6611 H   0  0  0  0  0  0  0  0  0  0  0  0
   60.4262   24.1729   44.6611 H   0  0  0  0  0  0  0  0  0  0  0  0
   57.6500   23.1210   46.1090 C   0  0  0  0  0  0  0  0  0  0  0  0
   57.4480   21.8820   45.6310 C   0  0  0  0  0  0  0  0  0  0  0  0
   58.2534   21.3628   45.0908 H   0  0  0  0  0  0  0  0  0  0  0  0
   56.4772   21.3866   45.7798 H   0  0  0  0  0  0  0  0  0  0  0  0
  1  2  1  0
  2  3  1  0
  3  4  1  0
  4  5  1  0
  5  6  2  0
  5  7  1  0
  7  8  1  0
  8  9  1  0
  9 10  1  0
  9 11  2  0
 11 12  1  0
 12 13  1  0
 12 14  2  0
 14 15  1  0
 15 16  2  0
 15 17  1  0
 17 18  1  0
 18 19  1  0
 18 20  1  0
 18 21  1  0
 21 22  1  0
 21 23  1  0
 21 24  1  0
 24 25  1  0
 25 26  2  0
 26 27  1  0
 26 28  1  0
 28 29  1  0
 28 30  2  0
 30 31  1  0
 30 32  1  0
 32 33  1  0
 33 34  1  0
 33 35  1  0
 33 36  1  0
 32 37  2  0
 37 38  1  0
 24 39  1  0
 39 40  1  0
 39 41  1  0
 39 42  1  0
 42 43  1  0
 42 44  1  0
 14 45  1  0
 45 46  1  0
 46 47  1  0
 46 48  1  0
 46 49  1  0
 45 50  1  0
 50 51  2  0
 51 52  1  0
 51 53  1  0
  8  3  2  0
 50 11  1  0
 42 17  1  0
 37 25  1  0
M  CHG  2   4  -1   7  -1
M  END
>  <UniqueID>  (57) 
55

>  <SMILES>  (57) 
C=c1/c(=C/c2[n-]c(=O)[n-]c2O)cc(C(=O)N2CCN(c3cccc(C(F)(F)F)c3)CC2)n1C

>  <Energy>  (57) 
131.06591555232723

>  <Genealogy>  (57) 
C=c1c(=Cc2[n-]c(=O)[n-]c2O)cc(C(=O)N2CCN(c3cccc(C(F)(F)F)c3)CC2)n1C (protonated)
C=c1/c(=C/c2[n-]c(=O)[n-]c2O)cc(C(=O)N2CCN(c3cccc(C(F)(F)F)c3)CC2)n1C (cis-trans isomerization)
C=c1/c(=C/c2[n-]c(=O)[n-]c2O)cc(C(=O)N2CCN(c3cccc(C(F)(F)F)c3)CC2)n1C (3D coordinates assigned)
C=c1/c(=C/c2[n-]c(=O)[n-]c2O)cc(C(=O)N2CCN(c3cccc(C(F)(F)F)c3)CC2)n1C (nonaromatic ring conformer: 131.06591555232723 kcal/mol)

>  <smiles>  (57) 
C=c1c(=Cc2[nH]c(=O)[nH]c2O)cc(C(=O)N2CCN(c3cccc(C(F)(F)F)c3)CC2)n1C

>  <score_type>  (57) 
oracle

>  <origin>  (57) 
adg

>  <m_score__min__energy>  (57) 
-13.390000000000001

>  <m_primary>  (57) 
energy

$$$$
57:0
     RDKit          3D

 64 67  0  0  0  0  0  0  0  0999 V2000
   58.2110   32.3810   49.9110 O   0  0  0  0  0  0  0  0  0  0  0  0
   58.9490   31.4050   50.2090 C   0  0  0  0  0  0  0  0  0  0  0  0
   58.6240   30.0010   49.8910 C   0  0  0  0  0  0  0  0  0  0  0  0
   59.8050   29.2180   50.4880 C   0  0  0  0  0  0  0  0  0  0  0  0
   60.8220   30.2480   51.0180 C   0  0  0  0  0  0  0  0  0  0  0  0
   60.1900   31.5460   50.8720 N   0  0  0  0  0  0  0  0  0  0  0  0
   60.8020   32.8150   51.2670 C   0  0  0  0  0  0  0  0  0  0  0  0
   62.3060   32.6270   51.5030 C   0  0  0  0  0  0  0  0  0  0  0  0
   63.1620   33.3030   50.4570 C   0  0  0  0  0  0  0  0  0  0  0  0
   64.0760   34.0950   50.8180 O   0  0  0  0  0  0  0  0  0  0  0  0
   62.9580   33.0380   49.0500 N   0  0  0  0  0  0  0  0  0  0  0  0
   63.7110   33.7840   48.0330 C   0  0  0  0  0  0  0  0  0  0  0  0
   62.8000   34.1760   46.8550 C   0  0  0  0  0  0  0  0  0  0  0  0
   61.7860   33.1520   46.4970 N   0  0  0  0  0  0  0  0  0  0  0  0
   60.1600   33.7160   46.8220 S   0  0  0  0  0  0  0  0  0  0  0  0
   59.8810   33.7010   48.3000 O   0  0  0  0  0  0  0  0  0  0  0  0
   59.9780   35.1190   46.3130 O   0  0  0  0  0  0  0  0  0  0  0  0
   59.0220   32.6390   46.0190 C   0  0  0  0  0  0  0  0  0  0  0  0
   58.6380   32.8720   44.6910 C   0  0  0  0  0  0  0  0  0  0  0  0
   57.7930   31.9710   44.0360 C   0  0  0  0  0  0  0  0  0  0  0  0
   57.3210   30.8290   44.7020 C   0  0  0  0  0  0  0  0  0  0  0  0
   56.5010   29.8000   43.9630 C   0  0  0  0  0  0  0  0  0  0  0  0
   57.2950   28.6010   43.6360 N   0  0  0  0  0  0  0  0  0  0  0  0
   57.7930   27.9510   44.8270 C   0  0  0  0  0  0  0  0  0  0  0  0
   59.1800   27.8020   45.0210 C   0  0  0  0  0  0  0  0  0  0  0  0
   59.6700   27.1360   46.1480 C   0  0  0  0  0  0  0  0  0  0  0  0
   58.7860   26.6140   47.0940 C   0  0  0  0  0  0  0  0  0  0  0  0
   57.4080   26.7530   46.9130 C   0  0  0  0  0  0  0  0  0  0  0  0
   56.9070   27.4140   45.7850 C   0  0  0  0  0  0  0  0  0  0  0  0
   55.5310   27.5320   45.6200 O   0  0  0  0  0  0  0  0  0  0  0  0
   57.6970   30.6070   46.0360 C   0  0  0  0  0  0  0  0  0  0  0  0
   58.5450   31.5050   46.6890 C   0  0  0  0  0  0  0  0  0  0  0  0
   62.0360   31.8260   47.0930 C   0  0  0  0  0  0  0  0  0  0  0  0
   62.1370   31.8970   48.6220 C   0  0  0  0  0  0  0  0  0  0  0  0
   57.6753   29.7006   50.3599 H   0  0  0  0  0  0  0  0  0  0  0  0
   58.4923   29.8241   48.8133 H   0  0  0  0  0  0  0  0  0  0  0  0
   59.4540   28.5786   51.3114 H   0  0  0  0  0  0  0  0  0  0  0  0
   60.2674   28.5731   49.7263 H   0  0  0  0  0  0  0  0  0  0  0  0
   61.0498   30.0507   52.0759 H   0  0  0  0  0  0  0  0  0  0  0  0
   61.7716   30.1978   50.4650 H   0  0  0  0  0  0  0  0  0  0  0  0
   60.6493   33.5561   50.4686 H   0  0  0  0  0  0  0  0  0  0  0  0
   60.3334   33.1648   52.1987 H   0  0  0  0  0  0  0  0  0  0  0  0
   62.5605   33.0466   52.4875 H   0  0  0  0  0  0  0  0  0  0  0  0
   62.5132   31.5481   51.4474 H   0  0  0  0  0  0  0  0  0  0  0  0
   64.1248   34.6961   48.4878 H   0  0  0  0  0  0  0  0  0  0  0  0
   64.5209   33.1434   47.6539 H   0  0  0  0  0  0  0  0  0  0  0  0
   62.2728   35.1038   47.1217 H   0  0  0  0  0  0  0  0  0  0  0  0
   63.4533   34.2913   45.9776 H   0  0  0  0  0  0  0  0  0  0  0  0
   59.0023   33.7657   44.1631 H   0  0  0  0  0  0  0  0  0  0  0  0
   57.4965   32.1580   42.9933 H   0  0  0  0  0  0  0  0  0  0  0  0
   55.6500   29.5028   44.5935 H   0  0  0  0  0  0  0  0  0  0  0  0
   56.1557   30.2497   43.0204 H   0  0  0  0  0  0  0  0  0  0  0  0
   58.1000   28.8860   43.0310 H   0  0  0  0  0  0  0  0  0  0  0  0
   56.7150   27.9360   43.0720 H   0  0  0  0  0  0  0  0  0  0  0  0
   59.8824   28.2125   44.2806 H   0  0  0  0  0  0  0  0  0  0  0  0
   60.7549   27.0229   46.2899 H   0  0  0  0  0  0  0  0  0  0  0  0
   59.1745   26.0934   47.9817 H   0  0  0  0  0  0  0  0  0  0  0  0
   56.7133   26.3413   47.6600 H   0  0  0  0  0  0  0  0  0  0  0  0
   57.3221   29.7214   46.5700 H   0  0  0  0  0  0  0  0  0  0  0  0
   58.8391   31.3209   47.7328 H   0  0  0  0  0  0  0  0  0  0  0  0
   61.2096   31.1525   46.8219 H   0  0  0  0  0  0  0  0  0  0  0  0
   62.9950   31.4525   46.7046 H   0  0  0  0  0  0  0  0  0  0  0  0
   61.1266   32.0044   49.0433 H   0  0  0  0  0  0  0  0  0  0  0  0
   62.6123   30.9726   48.9820 H   0  0  0  0  0  0  0  0  0  0  0  0
  1  2  2  0
  2  3  1  0
  3  4  1  0
  4  5  1  0
  5  6  1  0
  6  7  1  0
  7  8  1  0
  8  9  1  0
  9 10  2  0
  9 11  1  0
 11 12  1  0
 12 13  1  0
 13 14  1  0
 14 15  1  0
 15 16  2  0
 15 17  2  0
 15 18  1  0
 18 19  2  0
 19 20  1  0
 20 21  2  0
 21 22  1  0
 22 23  1  0
 23 24  1  0
 24 25  2  0
 25 26  1  0
 26 27  2  0
 27 28  1  0
 28 29  2  0
 29 30  1  0
 21 31  1  0
 31 32  2  0
 14 33  1  0
 33 34  1  0
  6  2  1  0
 34 11  1  0
 32 18  1  0
 29 24  1  0
  3 35  1  0
  3 36  1  0
  4 37  1  0
  4 38  1  0
  5 39  1  0
  5 40  1  0
  7 41  1  0
  7 42  1  0
  8 43  1  0
  8 44  1  0
 12 45  1  0
 12 46  1  0
 13 47  1  0
 13 48  1  0
 19 49  1  0
 20 50  1  0
 22 51  1  0
 22 52  1  0
 23 53  1  0
 23 54  1  0
 25 55  1  0
 26 56  1  0
 27 57  1  0
 28 58  1  0
 31 59  1  0
 32 60  1  0
 33 61  1  0
 33 62  1  0
 34 63  1  0
 34 64  1  0
M  CHG  2  23   1  30  -1
M  END
>  <UniqueID>  (58) 
56

>  <SMILES>  (58) 
O=C1CCCN1CCC(=O)N1CCN(S(=O)(=O)c2ccc(C[NH2+]c3ccccc3[O-])cc2)CC1

>  <Energy>  (58) 
76.18955988454611

>  <Genealogy>  (58) 
O=C1CCCN1CCC(=O)N1CCN(S(=O)(=O)c2ccc(C[NH2+]c3ccccc3[O-])cc2)CC1 (protonated)
O=C1CCCN1CCC(=O)N1CCN(S(=O)(=O)c2ccc(C[NH2+]c3ccccc3[O-])cc2)CC1 (3D coordinates assigned)
O=C1CCCN1CCC(=O)N1CCN(S(=O)(=O)c2ccc(C[NH2+]c3ccccc3[O-])cc2)CC1 (nonaromatic ring conformer: 76.18955988454611 kcal/mol)

>  <smiles>  (58) 
O=C1CCCN1CCC(=O)N1CCN(S(=O)(=O)c2ccc(CNc3ccccc3O)cc2)CC1

>  <score_type>  (58) 
oracle

>  <origin>  (58) 
adg

>  <m_score__min__energy>  (58) 
-12.609999999999999

>  <m_primary>  (58) 
energy

$$$$
58:0
     RDKit          3D

 36 38  0  0  0  0  0  0  0  0999 V2000
   58.5970   29.4790   47.1650 C   0  0  0  0  0  0  0  0  0  0  0  0
   57.9580   29.9030   45.8650 C   0  0  0  0  0  0  0  0  0  0  0  0
   57.2150   28.9690   45.1070 C   0  0  0  0  0  0  0  0  0  0  0  0
   57.0600   27.2850   45.6030 Cl  0  0  0  0  0  0  0  0  0  0  0  0
   56.5780   29.3690   43.9270 C   0  0  0  0  0  0  0  0  0  0  0  0
   56.6750   30.6870   43.4860 C   0  0  0  0  0  0  0  0  0  0  0  0
   57.4270   31.6120   44.2070 C   0  0  0  0  0  0  0  0  0  0  0  0
   58.0950   31.2280   45.3780 C   0  0  0  0  0  0  0  0  0  0  0  0
   58.8890   32.2060   46.0630 N   0  0  0  0  0  0  0  0  0  0  0  0
   58.3170   33.1320   47.0000 C   0  0  0  0  0  0  0  0  0  0  0  0
   57.0690   33.1690   47.1750 O   0  0  0  0  0  0  0  0  0  0  0  0
   59.2020   34.0890   47.7440 C   0  0  0  0  0  0  0  0  0  0  0  0
   60.6040   33.6700   47.6750 N   0  0  0  0  0  0  0  0  0  0  0  0
   61.3910   33.7180   46.4790 C   0  0  0  0  0  0  0  0  0  0  0  0
   60.9140   33.8440   45.3200 O   0  0  0  0  0  0  0  0  0  0  0  0
   62.8020   33.6370   46.7980 C   0  0  0  0  0  0  0  0  0  0  0  0
   63.7670   33.6490   45.9900 O   0  0  0  0  0  0  0  0  0  0  0  0
   62.8690   33.5540   48.2450 C   0  0  0  0  0  0  0  0  0  0  0  0
   63.9860   33.4780   49.0710 C   0  0  0  0  0  0  0  0  0  0  0  0
   63.7820   33.4170   50.4540 C   0  0  0  0  0  0  0  0  0  0  0  0
   62.4790   33.4280   50.9820 C   0  0  0  0  0  0  0  0  0  0  0  0
   61.3540   33.5040   50.1380 C   0  0  0  0  0  0  0  0  0  0  0  0
   59.6290   33.4520   50.9650 Br  0  0  0  0  0  0  0  0  0  0  0  0
   61.5710   33.5780   48.7440 C   0  0  0  0  0  0  0  0  0  0  0  0
   58.0079   29.8699   48.0077 H   0  0  0  0  0  0  0  0  0  0  0  0
   58.6278   28.3807   47.2173 H   0  0  0  0  0  0  0  0  0  0  0  0
   59.6210   29.8774   47.2173 H   0  0  0  0  0  0  0  0  0  0  0  0
   55.9974   28.6387   43.3443 H   0  0  0  0  0  0  0  0  0  0  0  0
   56.1569   30.9979   42.5668 H   0  0  0  0  0  0  0  0  0  0  0  0
   57.4971   32.6517   43.8546 H   0  0  0  0  0  0  0  0  0  0  0  0
   59.9270   32.0970   46.0380 H   0  0  0  0  0  0  0  0  0  0  0  0
   59.1035   35.0901   47.2990 H   0  0  0  0  0  0  0  0  0  0  0  0
   58.8924   34.1041   48.7994 H   0  0  0  0  0  0  0  0  0  0  0  0
   65.0016   33.4662   48.6485 H   0  0  0  0  0  0  0  0  0  0  0  0
   64.6462   33.3601   51.1321 H   0  0  0  0  0  0  0  0  0  0  0  0
   62.3359   33.3764   52.0714 H   0  0  0  0  0  0  0  0  0  0  0  0
  1  2  1  0
  2  3  2  0
  3  4  1  0
  3  5  1  0
  5  6  2  0
  6  7  1  0
  7  8  2  0
  8  9  1  0
  9 10  1  0
 10 11  2  0
 10 12  1  0
 12 13  1  0
 13 14  1  0
 14 15  2  0
 14 16  1  0
 16 17  2  0
 16 18  1  0
 18 19  2  0
 19 20  1  0
 20 21  2  0
 21 22  1  0
 22 23  1  0
 22 24  2  0
  8  2  1  0
 24 13  1  0
 24 18  1  0
  1 25  1  0
  1 26  1  0
  1 27  1  0
  5 28  1  0
  6 29  1  0
  7 30  1  0
  9 31  1  0
 12 32  1  0
 12 33  1  0
 19 34  1  0
 20 35  1  0
 21 36  1  0
M  END
>  <UniqueID>  (59) 
57

>  <SMILES>  (59) 
Cc1c(Cl)cccc1NC(=O)CN1C(=O)C(=O)c2cccc(Br)c21

>  <Energy>  (59) 
79.553306005222

>  <Genealogy>  (59) 
Cc1c(Cl)cccc1NC(=O)CN1C(=O)C(=O)c2cccc(Br)c21 (3D coordinates assigned)
Cc1c(Cl)cccc1NC(=O)CN1C(=O)C(=O)c2cccc(Br)c21 (nonaromatic ring conformer: 79.553306005222 kcal/mol)

>  <smiles>  (59) 
Cc1c(Cl)cccc1NC(=O)CN1C(=O)C(=O)c2cccc(Br)c21

>  <score_type>  (59) 
oracle

>  <origin>  (59) 
adg

>  <m_score__min__energy>  (59) 
-7.7599999999999998

>  <m_primary>  (59) 
energy

$$$$
59:0
     RDKit          3D

 73 77  0  0  1  0  0  0  0  0999 V2000
   60.6510   31.9330   47.0820 C   0  0  0  0  0  0  0  0  0  0  0  0
   59.8690   31.9180   48.3650 C   0  0  0  0  0  0  0  0  0  0  0  0
   59.0970   30.8390   48.8410 C   0  0  0  0  0  0  0  0  0  0  0  0
   59.0630   29.5880   48.1200 C   0  0  0  0  0  0  0  0  0  0  0  0
   59.6540   28.5040   48.7650 C   0  0  0  0  0  0  0  0  0  0  0  0
   59.7390   27.2910   48.2130 N   0  0  0  0  0  0  0  0  0  0  0  0
   59.2300   27.1210   46.9900 C   0  0  0  0  0  0  0  0  0  0  0  0
   58.6580   28.1210   46.3350 N   0  0  0  0  0  0  0  0  0  0  0  0
   58.5640   29.3620   46.8820 C   0  0  0  0  0  0  0  0  0  0  0  0
   58.0000   30.2510   46.2390 N   0  0  0  0  0  0  0  0  0  0  0  0
   57.3870   30.3320   45.0000 C   0  0  0  0  0  0  0  0  0  0  0  0
   56.1790   29.9220   44.9150 O   0  0  0  0  0  0  0  0  0  0  0  0
   57.9840   30.8400   43.7480 C   0  0  0  0  0  0  0  0  0  0  0  0
   57.7680   32.2990   43.4690 C   0  0  0  0  0  0  0  0  0  0  0  0
   58.1920   33.2240   44.5180 C   0  0  0  0  0  0  0  0  0  0  0  0
   57.4540   33.2620   45.7100 C   0  0  0  0  0  0  0  0  0  0  0  0
   57.7790   34.0690   46.7670 C   0  0  0  0  0  0  0  0  0  0  0  0
   58.8900   34.9020   46.6790 C   0  0  0  0  0  0  0  0  0  0  0  0
   59.6410   34.8880   45.5100 C   0  0  0  0  0  0  0  0  0  0  0  0
   59.2770   34.0630   44.4790 C   0  0  0  0  0  0  0  0  0  0  0  0
   58.5640   31.2530   50.0260 C   0  0  0  0  0  0  0  0  0  0  0  0
   57.6980   30.5270   50.9400 C   0  0  0  0  0  0  0  0  0  0  0  0
   58.0900   29.3880   51.2990 O   0  0  0  0  0  0  0  0  0  0  0  0
   56.4700   30.9940   51.4470 N   0  0  0  0  0  0  0  0  0  0  0  0
   55.5930   30.3520   52.3210 C   0  0  0  0  0  0  0  0  0  0  0  0
   55.9320   29.6090   53.4230 C   0  0  0  0  0  0  0  0  0  0  0  0
   54.9940   28.9890   54.2440 C   0  0  0  0  0  0  0  0  0  0  0  0
   53.6650   29.1170   53.9530 C   0  0  0  0  0  0  0  0  0  0  0  0
   53.2720   29.8500   52.8620 C   0  0  0  0  0  0  0  0  0  0  0  0
   54.2180   30.4500   52.0700 C   0  0  0  0  0  0  0  0  0  0  0  0
   53.7230   31.1960   50.9460 N   0  0  0  0  0  0  0  0  0  0  0  0
   59.0100   32.5270   50.2310 N   0  0  0  0  0  0  0  0  0  0  0  0
   59.7750   32.9170   49.2580 N   0  0  0  0  0  0  0  0  0  0  0  0
   60.4770   34.1930   49.0440 C   0  0  0  0  0  0  0  0  0  0  0  0
   61.7760   34.0810   49.7760 C   0  0  0  0  0  0  0  0  0  0  0  0
   62.9610   33.7430   48.9270 C   0  0  1  0  0  0  0  0  0  0  0  0
   63.3460   32.3150   48.8910 C   0  0  0  0  0  0  0  0  0  0  0  0
   63.7490   32.0580   47.4620 C   0  0  0  0  0  0  0  0  0  0  0  0
   63.6060   33.4180   46.8240 C   0  0  0  0  0  0  0  0  0  0  0  0
   62.8290   34.2120   47.6380 O   0  0  0  0  0  0  0  0  0  0  0  0
   61.7272   31.9536   47.3088 H   0  0  0  0  0  0  0  0  0  0  0  0
   60.4164   31.0302   46.4990 H   0  0  0  0  0  0  0  0  0  0  0  0
   60.3819   32.8261   46.4990 H   0  0  0  0  0  0  0  0  0  0  0  0
   60.0687   28.6537   49.7728 H   0  0  0  0  0  0  0  0  0  0  0  0
   60.2050   26.5210   48.7700 H   0  0  0  0  0  0  0  0  0  0  0  0
   59.2868   26.1298   46.5163 H   0  0  0  0  0  0  0  0  0  0  0  0
   59.0685   30.6617   43.7940 H   0  0  0  0  0  0  0  0  0  0  0  0
   57.4774   30.3009   42.9339 H   0  0  0  0  0  0  0  0  0  0  0  0
   58.3230   32.5518   42.5536 H   0  0  0  0  0  0  0  0  0  0  0  0
   56.6785   32.4257   43.3861 H   0  0  0  0  0  0  0  0  0  0  0  0
   56.5713   32.6119   45.8000 H   0  0  0  0  0  0  0  0  0  0  0  0
   57.1657   34.0589   47.6801 H   0  0  0  0  0  0  0  0  0  0  0  0
   59.1680   35.5578   47.5172 H   0  0  0  0  0  0  0  0  0  0  0  0
   60.5241   35.5367   45.4130 H   0  0  0  0  0  0  0  0  0  0  0  0
   59.8906   34.0737   43.5661 H   0  0  0  0  0  0  0  0  0  0  0  0
   56.1880   31.9640   51.1200 H   0  0  0  0  0  0  0  0  0  0  0  0
   56.9980   29.4975   53.6704 H   0  0  0  0  0  0  0  0  0  0  0  0
   55.3188   28.4031   55.1165 H   0  0  0  0  0  0  0  0  0  0  0  0
   52.9118   28.6333   54.5923 H   0  0  0  0  0  0  0  0  0  0  0  0
   52.2035   29.9562   52.6234 H   0  0  0  0  0  0  0  0  0  0  0  0
   53.6390   32.2460   50.9800 H   0  0  0  0  0  0  0  0  0  0  0  0
   53.4320   30.7250   50.0580 H   0  0  0  0  0  0  0  0  0  0  0  0
   60.6565   34.3544   47.9708 H   0  0  0  0  0  0  0  0  0  0  0  0
   59.8829   35.0439   49.4087 H   0  0  0  0  0  0  0  0  0  0  0  0
   61.9737   35.0452   50.2671 H   0  0  0  0  0  0  0  0  0  0  0  0
   61.6574   33.2442   50.4800 H   0  0  0  0  0  0  0  0  0  0  0  0
   63.7819   34.2651   49.4404 H   0  0  0  0  0  0  0  0  0  0  0  0
   64.1892   32.1242   49.5712 H   0  0  0  0  0  0  0  0  0  0  0  0
   62.5263   31.6568   49.2148 H   0  0  0  0  0  0  0  0  0  0  0  0
   64.7871   31.6993   47.4016 H   0  0  0  0  0  0  0  0  0  0  0  0
   63.1434   31.2814   46.9719 H   0  0  0  0  0  0  0  0  0  0  0  0
   64.5991   33.8748   46.7013 H   0  0  0  0  0  0  0  0  0  0  0  0
   63.1316   33.3189   45.8365 H   0  0  0  0  0  0  0  0  0  0  0  0
  1  2  1  0
  2  3  2  0
  3  4  1  0
  4  5  2  0
  5  6  1  0
  6  7  1  0
  7  8  2  0
  8  9  1  0
  9 10  2  0
 10 11  1  0
 11 12  2  0
 11 13  1  0
 13 14  1  0
 14 15  1  0
 15 16  2  0
 16 17  1  0
 17 18  2  0
 18 19  1  0
 19 20  2  0
  3 21  1  0
 21 22  1  0
 22 23  2  0
 22 24  1  0
 24 25  1  0
 25 26  2  0
 26 27  1  0
 27 28  2  0
 28 29  1  0
 29 30  2  0
 30 31  1  0
 21 32  2  0
 32 33  1  0
 33 34  1  0
 34 35  1  0
 35 36  1  0
 36 37  1  0
 37 38  1  0
 38 39  1  0
 39 40  1  0
 33  2  1  0
 40 36  1  0
  9  4  1  0
 20 15  1  0
 30 25  1  0
  1 41  1  0
  1 42  1  0
  1 43  1  0
  5 44  1  0
  6 45  1  0
  7 46  1  0
 13 47  1  0
 13 48  1  0
 14 49  1  0
 14 50  1  0
 16 51  1  0
 17 52  1  0
 18 53  1  0
 19 54  1  0
 20 55  1  0
 24 56  1  0
 26 57  1  0
 27 58  1  0
 28 59  1  0
 29 60  1  0
 31 61  1  0
 31 62  1  0
 34 63  1  0
 34 64  1  0
 35 65  1  0
 35 66  1  0
 36 67  1  1
 37 68  1  0
 37 69  1  0
 38 70  1  0
 38 71  1  0
 39 72  1  0
 39 73  1  0
M  END
>  <smiles>  (60) 
Cc1c(-c2c[nH]cnc2=NC(=O)CCc2ccccc2)c(C(=O)Nc2ccccc2N)nn1CCC1CCCO1

>  <score_type>  (60) 
oracle

>  <origin>  (60) 
adg

>  <m_score__min__energy>  (60) 
-11.4

>  <m_primary>  (60) 
energy

$$$$
60:0
     RDKit          3D

 53 56  0  0  0  0  0  0  0  0999 V2000
   59.7400   29.5200   48.0970 C   0  0  0  0  0  0  0  0  0  0  0  0
   58.9180   30.2120   47.2920 C   0  0  0  0  0  0  0  0  0  0  0  0
   58.3650   29.7920   46.0710 C   0  0  0  0  0  0  0  0  0  0  0  0
   58.3430   28.5810   45.4810 C   0  0  0  0  0  0  0  0  0  0  0  0
   57.4130   27.4890   45.8020 C   0  0  0  0  0  0  0  0  0  0  0  0
   56.1050   27.5100   45.4900 N   0  0  0  0  0  0  0  0  0  0  0  0
   55.6270   26.3910   46.0760 C   0  0  0  0  0  0  0  0  0  0  0  0
   54.4190   26.0460   45.9940 O   0  0  0  0  0  0  0  0  0  0  0  0
   56.5420   25.6760   46.7660 N   0  0  0  0  0  0  0  0  0  0  0  0
   57.6650   26.3920   46.5950 C   0  0  0  0  0  0  0  0  0  0  0  0
   58.8900   26.0670   47.1680 O   0  0  0  0  0  0  0  0  0  0  0  0
   57.7660   30.9100   45.5130 C   0  0  0  0  0  0  0  0  0  0  0  0
   57.9130   31.9400   46.4200 C   0  0  0  0  0  0  0  0  0  0  0  0
   57.3560   33.3200   46.2530 C   0  0  0  0  0  0  0  0  0  0  0  0
   58.6110   31.5170   47.4960 N   0  0  0  0  0  0  0  0  0  0  0  0
   58.9650   32.3220   48.6340 C   0  0  0  0  0  0  0  0  0  0  0  0
   58.5160   31.9360   49.9060 C   0  0  0  0  0  0  0  0  0  0  0  0
   58.8390   32.6980   51.0300 C   0  0  0  0  0  0  0  0  0  0  0  0
   59.6210   33.8450   50.8950 C   0  0  0  0  0  0  0  0  0  0  0  0
   60.0810   34.2360   49.6360 C   0  0  0  0  0  0  0  0  0  0  0  0
   59.7470   33.4910   48.4900 C   0  0  0  0  0  0  0  0  0  0  0  0
   60.2880   33.9020   47.1750 C   0  0  0  0  0  0  0  0  0  0  0  0
   59.7330   34.8410   46.5450 O   0  0  0  0  0  0  0  0  0  0  0  0
   61.3940   33.2250   46.5660 N   0  0  0  0  0  0  0  0  0  0  0  0
   62.7250   33.7990   46.3760 C   0  0  0  0  0  0  0  0  0  0  0  0
   63.7690   32.9560   47.1090 C   0  0  0  0  0  0  0  0  0  0  0  0
   63.3120   32.6220   48.5050 C   0  0  0  0  0  0  0  0  0  0  0  0
   62.6470   31.4110   48.7600 C   0  0  0  0  0  0  0  0  0  0  0  0
   62.2670   31.0760   50.0630 C   0  0  0  0  0  0  0  0  0  0  0  0
   62.5530   31.9440   51.1200 C   0  0  0  0  0  0  0  0  0  0  0  0
   63.2210   33.1460   50.8760 C   0  0  0  0  0  0  0  0  0  0  0  0
   63.6050   33.4840   49.5750 C   0  0  0  0  0  0  0  0  0  0  0  0
   60.1024   29.9715   49.0323 H   0  0  0  0  0  0  0  0  0  0  0  0
   60.0511   28.5016   47.8212 H   0  0  0  0  0  0  0  0  0  0  0  0
   59.0850   28.3933   44.6909 H   0  0  0  0  0  0  0  0  0  0  0  0
   59.6240   26.7590   47.2460 H   0  0  0  0  0  0  0  0  0  0  0  0
   57.2681   30.9660   44.5337 H   0  0  0  0  0  0  0  0  0  0  0  0
   57.1763   33.7651   47.2427 H   0  0  0  0  0  0  0  0  0  0  0  0
   58.0741   33.9404   45.6968 H   0  0  0  0  0  0  0  0  0  0  0  0
   56.4084   33.2681   45.6968 H   0  0  0  0  0  0  0  0  0  0  0  0
   57.9059   31.0276   50.0181 H   0  0  0  0  0  0  0  0  0  0  0  0
   58.4765   32.3937   52.0230 H   0  0  0  0  0  0  0  0  0  0  0  0
   59.8759   34.4429   51.7824 H   0  0  0  0  0  0  0  0  0  0  0  0
   60.7095   35.1336   49.5393 H   0  0  0  0  0  0  0  0  0  0  0  0
   62.9626   33.8198   45.3022 H   0  0  0  0  0  0  0  0  0  0  0  0
   62.7379   34.8215   46.7815 H   0  0  0  0  0  0  0  0  0  0  0  0
   63.9329   32.0221   46.5513 H   0  0  0  0  0  0  0  0  0  0  0  0
   64.7020   33.5348   47.1755 H   0  0  0  0  0  0  0  0  0  0  0  0
   62.4243   30.7234   47.9308 H   0  0  0  0  0  0  0  0  0  0  0  0
   61.7426   30.1286   50.2563 H   0  0  0  0  0  0  0  0  0  0  0  0
   62.2519   31.6805   52.1447 H   0  0  0  0  0  0  0  0  0  0  0  0
   63.4454   33.8282   51.7092 H   0  0  0  0  0  0  0  0  0  0  0  0
   64.1382   34.4279   49.3885 H   0  0  0  0  0  0  0  0  0  0  0  0
  1  2  2  0
  2  3  1  0
  3  4  2  3
  4  5  1  0
  5  6  1  0
  6  7  1  0
  7  8  2  0
  7  9  1  0
  9 10  1  0
 10 11  1  0
  3 12  1  0
 12 13  2  0
 13 14  1  0
 13 15  1  0
 15 16  1  0
 16 17  2  0
 17 18  1  0
 18 19  2  0
 19 20  1  0
 20 21  2  0
 21 22  1  0
 22 23  2  0
 22 24  1  0
 24 25  1  0
 25 26  1  0
 26 27  1  0
 27 28  2  0
 28 29  1  0
 29 30  2  0
 30 31  1  0
 31 32  2  0
 15  2  1  0
 21 16  1  0
 32 27  1  0
 10  5  2  0
  1 33  1  0
  1 34  1  0
  4 35  1  0
 11 36  1  0
 12 37  1  0
 14 38  1  0
 14 39  1  0
 14 40  1  0
 17 41  1  0
 18 42  1  0
 19 43  1  0
 20 44  1  0
 25 45  1  0
 25 46  1  0
 26 47  1  0
 26 48  1  0
 28 49  1  0
 29 50  1  0
 30 51  1  0
 31 52  1  0
 32 53  1  0
M  CHG  3   6  -1   9  -1  24  -1
M  END
>  <UniqueID>  (61) 
58

>  <SMILES>  (61) 
C=c1c(=Cc2[n-]c(=O)[n-]c2O)cc(C)n1-c1ccccc1C(=O)[N-]CCc1ccccc1

>  <Energy>  (61) 
133.68355428203455

>  <Genealogy>  (61) 
C=c1c(=Cc2[n-]c(=O)[n-]c2O)cc(C)n1-c1ccccc1C(=O)[N-]CCc1ccccc1 (protonated)
C=c1c(=Cc2[n-]c(=O)[n-]c2O)cc(C)n1-c1ccccc1C(=O)[N-]CCc1ccccc1 (3D coordinates assigned)
C=c1c(=Cc2[n-]c(=O)[n-]c2O)cc(C)n1-c1ccccc1C(=O)[N-]CCc1ccccc1 (optimized conformer: 133.68355428203455 kcal/mol)

>  <smiles>  (61) 
C=c1c(=Cc2[nH]c(=O)[nH]c2O)cc(C)n1-c1ccccc1C(=O)NCCc1ccccc1

>  <score_type>  (61) 
oracle

>  <origin>  (61) 
adg

>  <m_score__min__energy>  (61) 
-15.890000000000001

>  <m_primary>  (61) 
energy

$$$$
61:0
     RDKit          3D

 60 63  0  0  0  0  0  0  0  0999 V2000
   56.6280   30.1400   51.8620 N   0  0  0  0  0  0  0  0  0  0  0  0
   57.7380   30.2120   51.5420 C   0  0  0  0  0  0  0  0  0  0  0  0
   59.1180   30.2990   51.1440 C   0  0  0  0  0  0  0  0  0  0  0  0
   60.1210   30.4230   52.1120 C   0  0  0  0  0  0  0  0  0  0  0  0
   61.4610   30.5010   51.7240 C   0  0  0  0  0  0  0  0  0  0  0  0
   61.8040   30.4610   50.3700 C   0  0  0  0  0  0  0  0  0  0  0  0
   60.8050   30.3520   49.3880 C   0  0  0  0  0  0  0  0  0  0  0  0
   61.1760   30.3060   47.9200 C   0  0  0  0  0  0  0  0  0  0  0  0
   60.2810   29.4590   47.0980 N   0  0  0  0  0  0  0  0  0  0  0  0
   60.3150   28.0350   47.4600 C   0  0  0  0  0  0  0  0  0  0  0  0
   59.1100   27.3050   46.8310 C   0  0  0  0  0  0  0  0  0  0  0  0
   58.5910   27.9620   45.5990 N   0  0  0  0  0  0  0  0  0  0  0  0
   57.4930   28.9260   45.8760 C   0  0  0  0  0  0  0  0  0  0  0  0
   57.4750   30.0640   44.8790 C   0  0  0  0  0  0  0  0  0  0  0  0
   57.1530   29.8170   43.5360 C   0  0  0  0  0  0  0  0  0  0  0  0
   57.1200   30.8660   42.6150 C   0  0  0  0  0  0  0  0  0  0  0  0
   57.3990   32.1710   43.0290 C   0  0  0  0  0  0  0  0  0  0  0  0
   57.7050   32.4380   44.3710 C   0  0  0  0  0  0  0  0  0  0  0  0
   57.9950   33.8120   44.8190 C   0  0  0  0  0  0  0  0  0  0  0  0
   57.1580   34.7220   44.5790 O   0  0  0  0  0  0  0  0  0  0  0  0
   59.2060   34.1530   45.5030 N   0  0  0  0  0  0  0  0  0  0  0  0
   59.4460   34.0500   47.2200 S   0  0  0  0  0  0  0  0  0  0  0  0
   58.6180   32.9160   47.7540 O   0  0  0  0  0  0  0  0  0  0  0  0
   58.9820   35.3300   47.8560 O   0  0  0  0  0  0  0  0  0  0  0  0
   61.1480   33.7500   47.5950 C   0  0  0  0  0  0  0  0  0  0  0  0
   62.0560   33.5590   46.5400 C   0  0  0  0  0  0  0  0  0  0  0  0
   63.4080   33.3270   46.8030 C   0  0  0  0  0  0  0  0  0  0  0  0
   63.8660   33.2730   48.1200 C   0  0  0  0  0  0  0  0  0  0  0  0
   62.9700   33.4390   49.1780 C   0  0  0  0  0  0  0  0  0  0  0  0
   61.6120   33.6730   48.9270 C   0  0  0  0  0  0  0  0  0  0  0  0
   60.5310   33.8330   50.3060 Cl  0  0  0  0  0  0  0  0  0  0  0  0
   57.7640   31.3760   45.2890 C   0  0  0  0  0  0  0  0  0  0  0  0
   59.6840   28.5960   44.8270 C   0  0  0  0  0  0  0  0  0  0  0  0
   60.4520   29.6590   45.6460 C   0  0  0  0  0  0  0  0  0  0  0  0
   59.4600   30.2600   49.7860 C   0  0  0  0  0  0  0  0  0  0  0  0
   59.8544   30.4591   53.1786 H   0  0  0  0  0  0  0  0  0  0  0  0
   62.2482   30.5942   52.4866 H   0  0  0  0  0  0  0  0  0  0  0  0
   62.8613   30.5151   50.0714 H   0  0  0  0  0  0  0  0  0  0  0  0
   61.1429   31.3312   47.5227 H   0  0  0  0  0  0  0  0  0  0  0  0
   62.1798   29.8601   47.8595 H   0  0  0  0  0  0  0  0  0  0  0  0
   61.2480   27.5862   47.0884 H   0  0  0  0  0  0  0  0  0  0  0  0
   60.2664   27.9381   48.5546 H   0  0  0  0  0  0  0  0  0  0  0  0
   59.4189   26.2808   46.5750 H   0  0  0  0  0  0  0  0  0  0  0  0
   58.2982   27.3242   47.5730 H   0  0  0  0  0  0  0  0  0  0  0  0
   58.2040   27.2080   44.9820 H   0  0  0  0  0  0  0  0  0  0  0  0
   56.5316   28.3939   45.8254 H   0  0  0  0  0  0  0  0  0  0  0  0
   57.6586   29.3524   46.8764 H   0  0  0  0  0  0  0  0  0  0  0  0
   56.9255   28.7923   43.2071 H   0  0  0  0  0  0  0  0  0  0  0  0
   56.8740   30.6647   41.5619 H   0  0  0  0  0  0  0  0  0  0  0  0
   57.3785   32.9931   42.2984 H   0  0  0  0  0  0  0  0  0  0  0  0
   61.6997   33.5924   45.4998 H   0  0  0  0  0  0  0  0  0  0  0  0
   64.1130   33.1866   45.9704 H   0  0  0  0  0  0  0  0  0  0  0  0
   64.9328   33.0997   48.3247 H   0  0  0  0  0  0  0  0  0  0  0  0
   63.3329   33.3857   50.2150 H   0  0  0  0  0  0  0  0  0  0  0  0
   58.0384   31.5733   46.3358 H   0  0  0  0  0  0  0  0  0  0  0  0
   60.3917   27.8150   44.5121 H   0  0  0  0  0  0  0  0  0  0  0  0
   59.2302   29.1047   43.9637 H   0  0  0  0  0  0  0  0  0  0  0  0
   61.5223   29.5929   45.4008 H   0  0  0  0  0  0  0  0  0  0  0  0
   60.0481   30.6488   45.3867 H   0  0  0  0  0  0  0  0  0  0  0  0
   58.6711   30.1567   49.0264 H   0  0  0  0  0  0  0  0  0  0  0  0
  1  2  3  0
  2  3  1  0
  3  4  2  0
  4  5  1  0
  5  6  2  0
  6  7  1  0
  7  8  1  0
  8  9  1  0
  9 10  1  0
 10 11  1  0
 11 12  1  0
 12 13  1  0
 13 14  1  0
 14 15  2  0
 15 16  1  0
 16 17  2  0
 17 18  1  0
 18 19  1  0
 19 20  2  0
 19 21  1  0
 21 22  1  0
 22 23  2  0
 22 24  2  0
 22 25  1  0
 25 26  2  0
 26 27  1  0
 27 28  2  0
 28 29  1  0
 29 30  2  0
 30 31  1  0
 18 32  2  0
 12 33  1  0
 33 34  1  0
  7 35  2  0
 35  3  1  0
 34  9  1  0
 32 14  1  0
 30 25  1  0
  4 36  1  0
  5 37  1  0
  6 38  1  0
  8 39  1  0
  8 40  1  0
 10 41  1  0
 10 42  1  0
 11 43  1  0
 11 44  1  0
 12 45  1  0
 13 46  1  0
 13 47  1  0
 15 48  1  0
 16 49  1  0
 17 50  1  0
 26 51  1  0
 27 52  1  0
 28 53  1  0
 29 54  1  0
 32 55  1  0
 33 56  1  0
 33 57  1  0
 34 58  1  0
 34 59  1  0
 35 60  1  0
M  CHG  2  12   1  21  -1
M  END
>  <UniqueID>  (62) 
59

>  <SMILES>  (62) 
N#Cc1cccc(CN2CC[NH+](Cc3cccc(C(=O)[N-]S(=O)(=O)c4ccccc4Cl)c3)CC2)c1

>  <Energy>  (62) 
87.05845477195763

>  <Genealogy>  (62) 
N#Cc1cccc(CN2CC[NH+](Cc3cccc(C(=O)[N-]S(=O)(=O)c4ccccc4Cl)c3)CC2)c1 (protonated)
N#Cc1cccc(CN2CC[NH+](Cc3cccc(C(=O)[N-]S(=O)(=O)c4ccccc4Cl)c3)CC2)c1 (3D coordinates assigned)
N#Cc1cccc(CN2CC[NH+](Cc3cccc(C(=O)[N-]S(=O)(=O)c4ccccc4Cl)c3)CC2)c1 (nonaromatic ring conformer: 87.05845477195763 kcal/mol)

>  <smiles>  (62) 
N#Cc1cccc(CN2CCN(Cc3cccc(C(=O)NS(=O)(=O)c4ccccc4Cl)c3)CC2)c1

>  <score_type>  (62) 
oracle

>  <origin>  (62) 
adg

>  <m_score__min__energy>  (62) 
-10.48

>  <m_primary>  (62) 
energy

$$$$
62:0
     RDKit          3D

 37 39  0  0  0  0  0  0  0  0999 V2000
   54.9660   26.3410   46.0720 O   0  0  0  0  0  0  0  0  0  0  0  0
   56.2190   26.3420   45.9510 C   0  0  0  0  0  0  0  0  0  0  0  0
   56.9300   25.1080   46.1090 N   0  0  0  0  0  0  0  0  0  0  0  0
   56.7550   23.9250   45.3160 C   0  0  0  0  0  0  0  0  0  0  0  0
   56.4300   23.9970   43.9490 C   0  0  0  0  0  0  0  0  0  0  0  0
   56.2870   22.8260   43.1980 C   0  0  0  0  0  0  0  0  0  0  0  0
   56.4830   21.5750   43.8000 C   0  0  0  0  0  0  0  0  0  0  0  0
   56.3430   20.4010   43.0630 O   0  0  0  0  0  0  0  0  0  0  0  0
   56.8310   21.5040   45.1530 C   0  0  0  0  0  0  0  0  0  0  0  0
   56.9730   22.6730   45.9050 C   0  0  0  0  0  0  0  0  0  0  0  0
   56.9000   27.5980   45.5920 C   0  0  0  0  0  0  0  0  0  0  0  0
   58.2410   27.8940   45.7730 C   0  0  0  0  0  0  0  0  0  0  0  0
   58.4160   29.1660   45.2730 C   0  0  0  0  0  0  0  0  0  0  0  0
   57.1760   29.5590   44.8080 C   0  0  0  0  0  0  0  0  0  0  0  0
   56.8560   30.8790   44.1800 C   0  0  0  0  0  0  0  0  0  0  0  0
   56.6390   31.8710   45.1830 O   0  0  0  0  0  0  0  0  0  0  0  0
   57.5650   32.8590   45.5580 C   0  0  0  0  0  0  0  0  0  0  0  0
   58.1830   33.6060   44.5460 C   0  0  0  0  0  0  0  0  0  0  0  0
   59.1150   34.5980   44.8650 C   0  0  0  0  0  0  0  0  0  0  0  0
   59.4370   34.8520   46.1990 C   0  0  0  0  0  0  0  0  0  0  0  0
   58.8270   34.1160   47.2180 C   0  0  0  0  0  0  0  0  0  0  0  0
   57.8940   33.1230   46.9030 C   0  0  0  0  0  0  0  0  0  0  0  0
   56.2940   28.6100   45.0130 O   0  0  0  0  0  0  0  0  0  0  0  0
   56.2880   24.9769   43.4697 H   0  0  0  0  0  0  0  0  0  0  0  0
   56.0201   22.8865   42.1326 H   0  0  0  0  0  0  0  0  0  0  0  0
   56.9550   19.6070   43.2100 H   0  0  0  0  0  0  0  0  0  0  0  0
   56.9934   20.5245   45.6265 H   0  0  0  0  0  0  0  0  0  0  0  0
   57.2576   22.6097   46.9657 H   0  0  0  0  0  0  0  0  0  0  0  0
   59.0082   27.2469   46.2232 H   0  0  0  0  0  0  0  0  0  0  0  0
   59.3493   29.7477   45.2491 H   0  0  0  0  0  0  0  0  0  0  0  0
   57.6958   31.1886   43.5406 H   0  0  0  0  0  0  0  0  0  0  0  0
   55.9403   30.7743   43.5796 H   0  0  0  0  0  0  0  0  0  0  0  0
   57.9329   33.4103   43.4928 H   0  0  0  0  0  0  0  0  0  0  0  0
   59.5950   35.1790   44.0637 H   0  0  0  0  0  0  0  0  0  0  0  0
   60.1714   35.6320   46.4483 H   0  0  0  0  0  0  0  0  0  0  0  0
   59.0809   34.3178   48.2691 H   0  0  0  0  0  0  0  0  0  0  0  0
   57.4151   32.5459   47.7077 H   0  0  0  0  0  0  0  0  0  0  0  0
  1  2  2  0
  2  3  1  0
  3  4  1  0
  4  5  2  0
  5  6  1  0
  6  7  2  0
  7  8  1  0
  7  9  1  0
  9 10  2  0
  2 11  1  0
 11 12  2  0
 12 13  1  0
 13 14  2  0
 14 15  1  0
 15 16  1  0
 16 17  1  0
 17 18  2  0
 18 19  1  0
 19 20  2  0
 20 21  1  0
 21 22  2  0
 14 23  1  0
 10  4  1  0
 23 11  1  0
 22 17  1  0
  5 24  1  0
  6 25  1  0
  8 26  1  0
  9 27  1  0
 10 28  1  0
 12 29  1  0
 13 30  1  0
 15 31  1  0
 15 32  1  0
 18 33  1  0
 19 34  1  0
 20 35  1  0
 21 36  1  0
 22 37  1  0
M  CHG  1   3  -1
M  END
>  <UniqueID>  (63) 
60

>  <SMILES>  (63) 
O=C([N-]c1ccc(O)cc1)c1ccc(COc2ccccc2)o1

>  <Energy>  (63) 
69.30866459472546

>  <Genealogy>  (63) 
O=C([N-]c1ccc(O)cc1)c1ccc(COc2ccccc2)o1 (protonated)
O=C([N-]c1ccc(O)cc1)c1ccc(COc2ccccc2)o1 (3D coordinates assigned)
O=C([N-]c1ccc(O)cc1)c1ccc(COc2ccccc2)o1 (optimized conformer: 69.30866459472546 kcal/mol)

>  <smiles>  (63) 
O=C(Nc1ccc(O)cc1)c1ccc(COc2ccccc2)o1

>  <score_type>  (63) 
oracle

>  <origin>  (63) 
adg

>  <m_score__min__energy>  (63) 
-10.44

>  <m_primary>  (63) 
energy

$$$$
63:0
     RDKit          3D

 53 56  0  0  0  0  0  0  0  0999 V2000
   59.6510   34.5640   49.3360 C   0  0  0  0  0  0  0  0  0  0  0  0
   60.2340   33.9690   48.2860 C   0  0  0  0  0  0  0  0  0  0  0  0
   61.6920   33.6660   48.2910 C   0  0  0  0  0  0  0  0  0  0  0  0
   62.3910   33.5960   49.5110 C   0  0  0  0  0  0  0  0  0  0  0  0
   63.7610   33.3180   49.5300 C   0  0  0  0  0  0  0  0  0  0  0  0
   64.4500   33.1130   48.3330 C   0  0  0  0  0  0  0  0  0  0  0  0
   63.7710   33.1870   47.1140 C   0  0  0  0  0  0  0  0  0  0  0  0
   62.4000   33.4650   47.0900 C   0  0  0  0  0  0  0  0  0  0  0  0
   59.4090   33.5930   47.1100 C   0  0  0  0  0  0  0  0  0  0  0  0
   58.7250   34.6020   46.4110 C   0  0  0  0  0  0  0  0  0  0  0  0
   57.9680   34.2930   45.2780 C   0  0  0  0  0  0  0  0  0  0  0  0
   57.8830   32.9740   44.8330 C   0  0  0  0  0  0  0  0  0  0  0  0
   58.5460   31.9580   45.5230 C   0  0  0  0  0  0  0  0  0  0  0  0
   59.3080   32.2530   46.6670 C   0  0  0  0  0  0  0  0  0  0  0  0
   59.9130   31.1760   47.4040 N   0  0  0  0  0  0  0  0  0  0  0  0
   60.9160   30.3160   46.7710 C   0  0  0  0  0  0  0  0  0  0  0  0
   60.3750   28.8790   46.6100 C   0  0  0  0  0  0  0  0  0  0  0  0
   59.1920   28.6150   47.4660 N   0  0  0  0  0  0  0  0  0  0  0  0
   58.9580   27.1880   47.5690 C   0  0  0  0  0  0  0  0  0  0  0  0
   59.6940   26.4880   48.2530 O   0  0  0  0  0  0  0  0  0  0  0  0
   57.8140   26.5470   46.8300 C   0  0  0  0  0  0  0  0  0  0  0  0
   57.6510   27.1780   45.5240 N   0  0  0  0  0  0  0  0  0  0  0  0
   58.1400   26.7160   44.3570 C   0  0  0  0  0  0  0  0  0  0  0  0
   57.8760   27.6490   43.3760 C   0  0  0  0  0  0  0  0  0  0  0  0
   57.2220   28.6690   44.0390 C   0  0  0  0  0  0  0  0  0  0  0  0
   56.6180   30.3000   43.2600 Br  0  0  0  0  0  0  0  0  0  0  0  0
   57.0990   28.3680   45.3440 N   0  0  0  0  0  0  0  0  0  0  0  0
   59.3420   29.2220   48.8050 C   0  0  0  0  0  0  0  0  0  0  0  0
   59.3400   30.7570   48.6920 C   0  0  0  0  0  0  0  0  0  0  0  0
   58.5728   34.7809   49.3165 H   0  0  0  0  0  0  0  0  0  0  0  0
   60.2507   34.8354   50.2173 H   0  0  0  0  0  0  0  0  0  0  0  0
   61.8548   33.7614   50.4571 H   0  0  0  0  0  0  0  0  0  0  0  0
   64.2967   33.2607   50.4890 H   0  0  0  0  0  0  0  0  0  0  0  0
   65.5277   32.8932   48.3496 H   0  0  0  0  0  0  0  0  0  0  0  0
   64.3153   33.0264   46.1717 H   0  0  0  0  0  0  0  0  0  0  0  0
   61.8717   33.5270   46.1272 H   0  0  0  0  0  0  0  0  0  0  0  0
   58.7860   35.6438   46.7587 H   0  0  0  0  0  0  0  0  0  0  0  0
   57.4386   35.0908   44.7365 H   0  0  0  0  0  0  0  0  0  0  0  0
   57.2924   32.7340   43.9366 H   0  0  0  0  0  0  0  0  0  0  0  0
   58.4718   30.9191   45.1692 H   0  0  0  0  0  0  0  0  0  0  0  0
   61.1661   30.7214   45.7795 H   0  0  0  0  0  0  0  0  0  0  0  0
   61.8126   30.2884   47.4077 H   0  0  0  0  0  0  0  0  0  0  0  0
   60.0903   28.7255   45.5586 H   0  0  0  0  0  0  0  0  0  0  0  0
   61.1715   28.1866   46.9200 H   0  0  0  0  0  0  0  0  0  0  0  0
   58.3560   29.0520   47.0100 H   0  0  0  0  0  0  0  0  0  0  0  0
   58.0222   25.4755   46.6940 H   0  0  0  0  0  0  0  0  0  0  0  0
   56.8895   26.6750   47.4122 H   0  0  0  0  0  0  0  0  0  0  0  0
   58.6609   25.7582   44.2112 H   0  0  0  0  0  0  0  0  0  0  0  0
   58.1292   27.5933   42.3070 H   0  0  0  0  0  0  0  0  0  0  0  0
   58.5061   28.9030   49.4450 H   0  0  0  0  0  0  0  0  0  0  0  0
   60.2956   28.8942   49.2446 H   0  0  0  0  0  0  0  0  0  0  0  0
   58.3059   31.1247   48.7656 H   0  0  0  0  0  0  0  0  0  0  0  0
   59.9485   31.1760   49.5069 H   0  0  0  0  0  0  0  0  0  0  0  0
  1  2  2  0
  2  3  1  0
  3  4  2  0
  4  5  1  0
  5  6  2  0
  6  7  1  0
  7  8  2  0
  2  9  1  0
  9 10  2  0
 10 11  1  0
 11 12  2  0
 12 13  1  0
 13 14  2  0
 14 15  1  0
 15 16  1  0
 16 17  1  0
 17 18  1  0
 18 19  1  0
 19 20  2  0
 19 21  1  0
 21 22  1  0
 22 23  1  0
 23 24  2  0
 24 25  1  0
 25 26  1  0
 25 27  2  0
 18 28  1  0
 28 29  1  0
  8  3  1  0
 14  9  1  0
 29 15  1  0
 27 22  1  0
  1 30  1  0
  1 31  1  0
  4 32  1  0
  5 33  1  0
  6 34  1  0
  7 35  1  0
  8 36  1  0
 10 37  1  0
 11 38  1  0
 12 39  1  0
 13 40  1  0
 16 41  1  0
 16 42  1  0
 17 43  1  0
 17 44  1  0
 18 45  1  0
 21 46  1  0
 21 47  1  0
 23 48  1  0
 24 49  1  0
 28 50  1  0
 28 51  1  0
 29 52  1  0
 29 53  1  0
M  CHG  1  18   1
M  END
>  <UniqueID>  (64) 
61

>  <SMILES>  (64) 
C=C(c1ccccc1)c1ccccc1N1CC[NH+](C(=O)Cn2ccc(Br)n2)CC1

>  <Energy>  (64) 
102.700252986617

>  <Genealogy>  (64) 
C=C(c1ccccc1)c1ccccc1N1CC[NH+](C(=O)Cn2ccc(Br)n2)CC1 (protonated)
C=C(c1ccccc1)c1ccccc1N1CC[NH+](C(=O)Cn2ccc(Br)n2)CC1 (3D coordinates assigned)
C=C(c1ccccc1)c1ccccc1N1CC[NH+](C(=O)Cn2ccc(Br)n2)CC1 (nonaromatic ring conformer: 102.700252986617 kcal/mol)

>  <smiles>  (64) 
C=C(c1ccccc1)c1ccccc1N1CCN(C(=O)Cn2ccc(Br)n2)CC1

>  <score_type>  (64) 
oracle

>  <origin>  (64) 
adg

>  <m_score__min__energy>  (64) 
-7.6200000000000001

>  <m_primary>  (64) 
energy

$$$$
64:0
     RDKit          3D

 53 56  0  0  0  0  0  0  0  0999 V2000
   63.7500   32.7480   46.7970 C   0  0  0  0  0  0  0  0  0  0  0  0
   63.3990   34.0720   47.9950 S   0  0  0  0  0  0  0  0  0  0  0  0
   61.6130   33.9190   47.8150 C   0  0  0  0  0  0  0  0  0  0  0  0
   61.0890   34.1730   46.5880 N   0  0  0  0  0  0  0  0  0  0  0  0
   59.7630   34.0670   46.3420 C   0  0  0  0  0  0  0  0  0  0  0  0
   59.2640   34.3420   45.0640 C   0  0  0  0  0  0  0  0  0  0  0  0
   57.8960   34.2250   44.8080 C   0  0  0  0  0  0  0  0  0  0  0  0
   57.0230   33.8300   45.8250 C   0  0  0  0  0  0  0  0  0  0  0  0
   57.5150   33.5530   47.1050 C   0  0  0  0  0  0  0  0  0  0  0  0
   58.8930   33.6720   47.3730 C   0  0  0  0  0  0  0  0  0  0  0  0
   59.4400   33.4040   48.6390 C   0  0  0  0  0  0  0  0  0  0  0  0
   58.6820   33.0290   49.5780 O   0  0  0  0  0  0  0  0  0  0  0  0
   60.7920   33.5450   48.8560 N   0  0  0  0  0  0  0  0  0  0  0  0
   61.3450   33.2280   50.1900 C   0  0  0  0  0  0  0  0  0  0  0  0
   62.1100   31.9410   50.1500 C   0  0  0  0  0  0  0  0  0  0  0  0
   62.8540   31.6300   51.1180 O   0  0  0  0  0  0  0  0  0  0  0  0
   62.0630   31.1250   48.9720 N   0  0  0  0  0  0  0  0  0  0  0  0
   60.9840   30.2720   48.5660 C   0  0  0  0  0  0  0  0  0  0  0  0
   59.9000   29.9830   49.4150 C   0  0  0  0  0  0  0  0  0  0  0  0
   58.8580   29.1650   48.9700 C   0  0  0  0  0  0  0  0  0  0  0  0
   58.8790   28.6410   47.6750 C   0  0  0  0  0  0  0  0  0  0  0  0
   59.9400   28.9450   46.8120 C   0  0  0  0  0  0  0  0  0  0  0  0
   59.9860   28.2960   45.1740 S   0  0  0  0  0  0  0  0  0  0  0  0
   59.5820   26.8490   45.2210 O   0  0  0  0  0  0  0  0  0  0  0  0
   61.3800   28.3920   44.6180 O   0  0  0  0  0  0  0  0  0  0  0  0
   58.8800   29.1830   44.1520 N   0  0  0  0  0  0  0  0  0  0  0  0
   57.5870   28.4760   44.0780 C   0  0  0  0  0  0  0  0  0  0  0  0
   56.4720   29.4350   43.6300 C   0  0  0  0  0  0  0  0  0  0  0  0
   56.2770   30.5480   44.4950 O   0  0  0  0  0  0  0  0  0  0  0  0
   57.4010   30.8440   45.3110 C   0  0  0  0  0  0  0  0  0  0  0  0
   58.7450   30.5860   44.6060 C   0  0  0  0  0  0  0  0  0  0  0  0
   60.9860   29.7640   47.2600 C   0  0  0  0  0  0  0  0  0  0  0  0
   63.9957   31.8213   47.3362 H   0  0  0  0  0  0  0  0  0  0  0  0
   62.8651   32.5810   46.1653 H   0  0  0  0  0  0  0  0  0  0  0  0
   64.6014   33.0414   46.1653 H   0  0  0  0  0  0  0  0  0  0  0  0
   59.9493   34.6504   44.2607 H   0  0  0  0  0  0  0  0  0  0  0  0
   57.5050   34.4443   43.8035 H   0  0  0  0  0  0  0  0  0  0  0  0
   55.9466   33.7366   45.6187 H   0  0  0  0  0  0  0  0  0  0  0  0
   56.8250   33.2419   47.9032 H   0  0  0  0  0  0  0  0  0  0  0  0
   62.0180   34.0392   50.5047 H   0  0  0  0  0  0  0  0  0  0  0  0
   60.5142   33.1253   50.9036 H   0  0  0  0  0  0  0  0  0  0  0  0
   59.8726   30.4020   50.4317 H   0  0  0  0  0  0  0  0  0  0  0  0
   58.0183   28.9329   49.6416 H   0  0  0  0  0  0  0  0  0  0  0  0
   58.0617   27.9892   47.3327 H   0  0  0  0  0  0  0  0  0  0  0  0
   57.6667   27.6510   43.3548 H   0  0  0  0  0  0  0  0  0  0  0  0
   57.3389   28.0843   45.0755 H   0  0  0  0  0  0  0  0  0  0  0  0
   56.7259   29.8159   42.6298 H   0  0  0  0  0  0  0  0  0  0  0  0
   55.5355   28.8580   43.6415 H   0  0  0  0  0  0  0  0  0  0  0  0
   57.3548   31.9047   45.5988 H   0  0  0  0  0  0  0  0  0  0  0  0
   57.3561   30.1773   46.1848 H   0  0  0  0  0  0  0  0  0  0  0  0
   58.8193   31.2496   43.7318 H   0  0  0  0  0  0  0  0  0  0  0  0
   59.5489   30.7848   45.3300 H   0  0  0  0  0  0  0  0  0  0  0  0
   61.8153   30.0099   46.5805 H   0  0  0  0  0  0  0  0  0  0  0  0
  1  2  1  0
  2  3  1  0
  3  4  2  0
  4  5  1  0
  5  6  2  0
  6  7  1  0
  7  8  2  0
  8  9  1  0
  9 10  2  0
 10 11  1  0
 11 12  2  0
 11 13  1  0
 13 14  1  0
 14 15  1  0
 15 16  2  0
 15 17  1  0
 17 18  1  0
 18 19  2  0
 19 20  1  0
 20 21  2  0
 21 22  1  0
 22 23  1  0
 23 24  2  0
 23 25  2  0
 23 26  1  0
 26 27  1  0
 27 28  1  0
 28 29  1  0
 29 30  1  0
 30 31  1  0
 22 32  2  0
 13  3  1  0
 32 18  1  0
 10  5  1  0
 31 26  1  0
  1 33  1  0
  1 34  1  0
  1 35  1  0
  6 36  1  0
  7 37  1  0
  8 38  1  0
  9 39  1  0
 14 40  1  0
 14 41  1  0
 19 42  1  0
 20 43  1  0
 21 44  1  0
 27 45  1  0
 27 46  1  0
 28 47  1  0
 28 48  1  0
 30 49  1  0
 30 50  1  0
 31 51  1  0
 31 52  1  0
 32 53  1  0
M  CHG  1  17  -1
M  END
>  <UniqueID>  (65) 
62

>  <SMILES>  (65) 
CSc1nc2ccccc2c(=O)n1CC(=O)[N-]c1cccc(S(=O)(=O)N2CCOCC2)c1

>  <Energy>  (65) 
75.24571964005165

>  <Genealogy>  (65) 
CSc1nc2ccccc2c(=O)n1CC(=O)[N-]c1cccc(S(=O)(=O)N2CCOCC2)c1 (protonated)
CSc1nc2ccccc2c(=O)n1CC(=O)[N-]c1cccc(S(=O)(=O)N2CCOCC2)c1 (3D coordinates assigned)
CSc1nc2ccccc2c(=O)n1CC(=O)[N-]c1cccc(S(=O)(=O)N2CCOCC2)c1 (nonaromatic ring conformer: 75.24571964005165 kcal/mol)

>  <smiles>  (65) 
CSc1nc2ccccc2c(=O)n1CC(=O)Nc1cccc(S(=O)(=O)N2CCOCC2)c1

>  <score_type>  (65) 
oracle

>  <origin>  (65) 
adg

>  <m_score__min__energy>  (65) 
-12.25

>  <m_primary>  (65) 
energy

$$$$
65:0
     RDKit          3D

 36 38  0  0  0  0  0  0  0  0999 V2000
   53.8560   25.6470   46.3710 H   0  0  0  0  0  0  0  0  0  0  0  0
   54.4350   26.3420   45.9120 O   0  0  0  0  0  0  0  0  0  0  0  0
   55.8220   26.3350   46.0430 C   0  0  0  0  0  0  0  0  0  0  0  0
   56.5880   27.4090   45.5650 C   0  0  0  0  0  0  0  0  0  0  0  0
   56.0920   28.2573   45.0706 H   0  0  0  0  0  0  0  0  0  0  0  0
   57.9820   27.4070   45.7140 C   0  0  0  0  0  0  0  0  0  0  0  0
   58.7780   28.5210   45.1560 C   0  0  0  0  0  0  0  0  0  0  0  0
   59.6506   28.2520   44.5426 H   0  0  0  0  0  0  0  0  0  0  0  0
   58.5310   29.8530   45.3310 C   0  0  0  0  0  0  0  0  0  0  0  0
   57.4520   30.5100   44.6590 C   0  0  0  0  0  0  0  0  0  0  0  0
   56.6250   29.9180   43.7810 C   0  0  0  0  0  0  0  0  0  0  0  0
   56.7323   28.8455   43.5615 H   0  0  0  0  0  0  0  0  0  0  0  0
   55.8407   30.5059   43.2817 H   0  0  0  0  0  0  0  0  0  0  0  0
   57.2490   31.8350   44.8700 N   0  0  0  0  0  0  0  0  0  0  0  0
   58.0260   32.5740   45.6900 C   0  0  0  0  0  0  0  0  0  0  0  0
   57.7870   33.8060   45.8100 O   0  0  0  0  0  0  0  0  0  0  0  0
   59.0570   31.9920   46.3680 N   0  0  0  0  0  0  0  0  0  0  0  0
   59.8760   32.7880   47.2510 C   0  0  0  0  0  0  0  0  0  0  0  0
   59.2950   33.4580   48.3410 C   0  0  0  0  0  0  0  0  0  0  0  0
   58.2138   33.3720   48.5241 H   0  0  0  0  0  0  0  0  0  0  0  0
   60.0860   34.2330   49.1930 C   0  0  0  0  0  0  0  0  0  0  0  0
   59.6268   34.7542   50.0460 H   0  0  0  0  0  0  0  0  0  0  0  0
   61.4600   34.3470   48.9630 C   0  0  0  0  0  0  0  0  0  0  0  0
   62.0806   34.9574   49.6355 H   0  0  0  0  0  0  0  0  0  0  0  0
   62.0470   33.6860   47.8790 C   0  0  0  0  0  0  0  0  0  0  0  0
   63.7700   33.8330   47.5900 Cl  0  0  0  0  0  0  0  0  0  0  0  0
   61.2570   32.9080   47.0240 C   0  0  0  0  0  0  0  0  0  0  0  0
   61.7194   32.3889   46.1715 H   0  0  0  0  0  0  0  0  0  0  0  0
   59.3040   30.6500   46.2280 C   0  0  0  0  0  0  0  0  0  0  0  0
   60.1910   30.1190   46.9540 O   0  0  0  0  0  0  0  0  0  0  0  0
   58.6120   26.2970   46.3010 C   0  0  0  0  0  0  0  0  0  0  0  0
   59.7084   26.2700   46.3854 H   0  0  0  0  0  0  0  0  0  0  0  0
   57.8500   25.2270   46.7780 C   0  0  0  0  0  0  0  0  0  0  0  0
   58.3470   24.3684   47.2531 H   0  0  0  0  0  0  0  0  0  0  0  0
   56.4580   25.2450   46.6530 C   0  0  0  0  0  0  0  0  0  0  0  0
   55.7070   24.1780   47.1320 O   0  0  0  0  0  0  0  0  0  0  0  0
  1  2  1  0
  2  3  1  0
  3  4  2  0
  4  5  1  0
  4  6  1  0
  6  7  1  0
  7  8  1  0
  7  9  2  0
  9 10  1  0
 10 11  2  0
 11 12  1  0
 11 13  1  0
 10 14  1  0
 14 15  1  0
 15 16  2  0
 15 17  1  0
 17 18  1  0
 18 19  2  0
 19 20  1  0
 19 21  1  0
 21 22  1  0
 21 23  2  0
 23 24  1  0
 23 25  1  0
 25 26  1  0
 25 27  2  0
 27 28  1  0
 17 29  1  0
 29 30  2  0
  6 31  2  0
 31 32  1  0
 31 33  1  0
 33 34  1  0
 33 35  2  0
 35 36  1  0
 35  3  1  0
 29  9  1  0
 27 18  1  0
M  CHG  2  14  -1  36  -1
M  END
>  <UniqueID>  (66) 
63

>  <SMILES>  (66) 
C=c1[n-]c(=O)n(-c2cccc(Cl)c2)c(=O)/c1=C\c1ccc([O-])c(O)c1

>  <Energy>  (66) 
70.26027469381988

>  <Genealogy>  (66) 
C=c1[n-]c(=O)n(-c2cccc(Cl)c2)c(=O)c1=Cc1ccc([O-])c(O)c1 (protonated)
C=c1[n-]c(=O)n(-c2cccc(Cl)c2)c(=O)/c1=C\c1ccc([O-])c(O)c1 (cis-trans isomerization)
C=c1[n-]c(=O)n(-c2cccc(Cl)c2)c(=O)/c1=C\c1ccc([O-])c(O)c1 (3D coordinates assigned)
C=c1[n-]c(=O)n(-c2cccc(Cl)c2)c(=O)/c1=C\c1ccc([O-])c(O)c1 (optimized conformer: 70.26027469381988 kcal/mol)

>  <smiles>  (66) 
C=c1[nH]c(=O)n(-c2cccc(Cl)c2)c(=O)c1=Cc1ccc(O)c(O)c1

>  <score_type>  (66) 
oracle

>  <origin>  (66) 
adg

>  <m_score__min__energy>  (66) 
-13.06

>  <m_primary>  (66) 
energy

$$$$
66:0
     RDKit          3D

 43 45  0  0  0  0  0  0  0  0999 V2000
   53.0540   28.8010   52.3390 O   0  0  0  0  0  0  0  0  0  0  0  0
   53.7410   29.7910   52.7080 C   0  0  0  0  0  0  0  0  0  0  0  0
   53.2800   31.1750   52.3840 C   0  0  0  0  0  0  0  0  0  0  0  0
   52.4160   31.1570   51.1610 C   0  0  0  0  0  0  0  0  0  0  0  0
   52.4220   30.2050   50.1640 C   0  0  0  0  0  0  0  0  0  0  0  0
   51.4070   30.5740   49.3010 C   0  0  0  0  0  0  0  0  0  0  0  0
   51.0610   29.8880   48.1420 O   0  0  0  0  0  0  0  0  0  0  0  0
   50.7690   31.6890   49.7120 N   0  0  0  0  0  0  0  0  0  0  0  0
   51.3920   32.0310   50.8550 C   0  0  0  0  0  0  0  0  0  0  0  0
   51.0290   33.1320   51.6220 O   0  0  0  0  0  0  0  0  0  0  0  0
   54.9800   29.5990   53.4000 N   0  0  0  0  0  0  0  0  0  0  0  0
   55.9130   30.6820   53.6970 C   0  0  0  0  0  0  0  0  0  0  0  0
   56.8580   30.8880   52.5450 C   0  0  0  0  0  0  0  0  0  0  0  0
   57.6060   29.8120   52.0480 C   0  0  0  0  0  0  0  0  0  0  0  0
   58.4560   29.9890   50.9510 C   0  0  0  0  0  0  0  0  0  0  0  0
   58.5650   31.2380   50.3310 C   0  0  0  0  0  0  0  0  0  0  0  0
   59.4150   31.3560   49.2180 O   0  0  0  0  0  0  0  0  0  0  0  0
   60.2350   32.4870   48.9230 C   0  0  0  0  0  0  0  0  0  0  0  0
   59.7240   33.2190   47.7100 C   0  0  0  0  0  0  0  0  0  0  0  0
   60.0330   34.5760   47.5240 C   0  0  0  0  0  0  0  0  0  0  0  0
   59.5630   35.2590   46.3980 C   0  0  0  0  0  0  0  0  0  0  0  0
   58.7730   34.5960   45.4560 C   0  0  0  0  0  0  0  0  0  0  0  0
   58.4480   33.2470   45.6390 C   0  0  0  0  0  0  0  0  0  0  0  0
   57.4570   32.4140   44.4550 Cl  0  0  0  0  0  0  0  0  0  0  0  0
   58.9170   32.5610   46.7650 C   0  0  0  0  0  0  0  0  0  0  0  0
   57.8220   32.3230   50.8360 C   0  0  0  0  0  0  0  0  0  0  0  0
   56.9730   32.1460   51.9320 C   0  0  0  0  0  0  0  0  0  0  0  0
   52.7028   31.5738   53.2312 H   0  0  0  0  0  0  0  0  0  0  0  0
   54.1571   31.8116   52.1956 H   0  0  0  0  0  0  0  0  0  0  0  0
   53.0916   29.3369   50.0743 H   0  0  0  0  0  0  0  0  0  0  0  0
   50.1060   29.8820   47.8070 H   0  0  0  0  0  0  0  0  0  0  0  0
   55.3482   31.6093   53.8733 H   0  0  0  0  0  0  0  0  0  0  0  0
   56.4937   30.4181   54.5932 H   0  0  0  0  0  0  0  0  0  0  0  0
   57.5243   28.8232   52.5229 H   0  0  0  0  0  0  0  0  0  0  0  0
   59.0433   29.1391   50.5731 H   0  0  0  0  0  0  0  0  0  0  0  0
   60.2297   33.1704   49.7849 H   0  0  0  0  0  0  0  0  0  0  0  0
   61.2571   32.1362   48.7174 H   0  0  0  0  0  0  0  0  0  0  0  0
   60.6477   35.1043   48.2676 H   0  0  0  0  0  0  0  0  0  0  0  0
   59.8157   36.3198   46.2539 H   0  0  0  0  0  0  0  0  0  0  0  0
   58.4060   35.1344   44.5698 H   0  0  0  0  0  0  0  0  0  0  0  0
   58.6534   31.5031   46.9114 H   0  0  0  0  0  0  0  0  0  0  0  0
   57.9104   33.3135   50.3659 H   0  0  0  0  0  0  0  0  0  0  0  0
   56.3916   32.9970   52.3165 H   0  0  0  0  0  0  0  0  0  0  0  0
  1  2  2  0
  2  3  1  0
  3  4  1  0
  4  5  1  0
  5  6  2  0
  6  7  1  0
  6  8  1  0
  8  9  1  0
  9 10  1  0
  2 11  1  0
 11 12  1  0
 12 13  1  0
 13 14  2  0
 14 15  1  0
 15 16  2  0
 16 17  1  0
 17 18  1  0
 18 19  1  0
 19 20  2  0
 20 21  1  0
 21 22  2  0
 22 23  1  0
 23 24  1  0
 23 25  2  0
 16 26  1  0
 26 27  2  0
  9  4  2  0
 27 13  1  0
 25 19  1  0
  3 28  1  0
  3 29  1  0
  5 30  1  0
  7 31  1  0
 12 32  1  0
 12 33  1  0
 14 34  1  0
 15 35  1  0
 18 36  1  0
 18 37  1  0
 20 38  1  0
 21 39  1  0
 22 40  1  0
 25 41  1  0
 26 42  1  0
 27 43  1  0
M  CHG  3   8  -1  10  -1  11  -1
M  END
>  <UniqueID>  (67) 
64

>  <SMILES>  (67) 
O=C(Cc1cc(O)[n-]c1[O-])[N-]Cc1ccc(OCc2cccc(Cl)c2)cc1

>  <Energy>  (67) 
65.85032551393145

>  <Genealogy>  (67) 
O=C(Cc1cc(O)[n-]c1[O-])[N-]Cc1ccc(OCc2cccc(Cl)c2)cc1 (protonated)
O=C(Cc1cc(O)[n-]c1[O-])[N-]Cc1ccc(OCc2cccc(Cl)c2)cc1 (3D coordinates assigned)
O=C(Cc1cc(O)[n-]c1[O-])[N-]Cc1ccc(OCc2cccc(Cl)c2)cc1 (optimized conformer: 65.85032551393145 kcal/mol)

>  <smiles>  (67) 
O=C(Cc1cc(O)[nH]c1O)NCc1ccc(OCc2cccc(Cl)c2)cc1

>  <score_type>  (67) 
oracle

>  <origin>  (67) 
adg

>  <m_score__min__energy>  (67) 
-16.670000000000002

>  <m_primary>  (67) 
energy

$$$$
67:0
     RDKit          3D

 58 61  0  0  0  0  0  0  0  0999 V2000
   63.6360   34.1780   48.3870 O   0  0  0  0  0  0  0  0  0  0  0  0
   62.4610   33.8550   48.0660 C   0  0  0  0  0  0  0  0  0  0  0  0
   62.2350   32.7340   47.0750 C   0  0  0  0  0  0  0  0  0  0  0  0
   62.4460   31.3480   47.6990 C   0  0  0  0  0  0  0  0  0  0  0  0
   61.2320   30.4880   47.5050 C   0  0  0  0  0  0  0  0  0  0  0  0
   60.5830   30.1020   48.5160 O   0  0  0  0  0  0  0  0  0  0  0  0
   60.8610   30.0490   46.1880 N   0  0  0  0  0  0  0  0  0  0  0  0
   59.5910   29.4560   45.8630 C   0  0  0  0  0  0  0  0  0  0  0  0
   58.8010   29.9450   44.8080 C   0  0  0  0  0  0  0  0  0  0  0  0
   57.5780   29.3430   44.5060 C   0  0  0  0  0  0  0  0  0  0  0  0
   57.1390   28.2390   45.2380 C   0  0  0  0  0  0  0  0  0  0  0  0
   57.9330   27.7080   46.2650 C   0  0  0  0  0  0  0  0  0  0  0  0
   57.4710   26.5030   47.0490 C   0  0  0  0  0  0  0  0  0  0  0  0
   56.4290   25.7190   46.2850 C   0  0  0  0  0  0  0  0  0  0  0  0
   55.1480   26.1740   46.3130 N   0  0  0  0  0  0  0  0  0  0  0  0
   54.1610   25.5540   45.6700 N   0  0  0  0  0  0  0  0  0  0  0  0
   54.3820   24.4330   44.9410 C   0  0  0  0  0  0  0  0  0  0  0  0
   53.4130   23.8790   44.3540 O   0  0  0  0  0  0  0  0  0  0  0  0
   55.6790   23.9030   44.8490 C   0  0  0  0  0  0  0  0  0  0  0  0
   56.7250   24.5330   45.5690 C   0  0  0  0  0  0  0  0  0  0  0  0
   58.1490   24.0100   45.4820 C   0  0  0  0  0  0  0  0  0  0  0  0
   58.2250   22.5560   45.0110 C   0  0  0  0  0  0  0  0  0  0  0  0
   57.3780   22.3640   43.7570 C   0  0  0  0  0  0  0  0  0  0  0  0
   55.9040   22.6200   44.0710 C   0  0  0  0  0  0  0  0  0  0  0  0
   59.1570   28.3270   46.5760 C   0  0  0  0  0  0  0  0  0  0  0  0
   61.3710   34.5460   48.6950 N   0  0  0  0  0  0  0  0  0  0  0  0
   60.1240   34.1790   48.6760 C   0  0  0  0  0  0  0  0  0  0  0  0
   59.3880   34.0670   47.3960 C   0  0  0  0  0  0  0  0  0  0  0  0
   59.6420   34.9610   46.3370 C   0  0  0  0  0  0  0  0  0  0  0  0
   58.9530   34.8410   45.1280 C   0  0  0  0  0  0  0  0  0  0  0  0
   58.0040   33.8300   44.9580 C   0  0  0  0  0  0  0  0  0  0  0  0
   57.7380   32.9380   46.0000 C   0  0  0  0  0  0  0  0  0  0  0  0
   58.4230   33.0520   47.2170 C   0  0  0  0  0  0  0  0  0  0  0  0
   58.1370   32.1510   48.2370 O   0  0  0  0  0  0  0  0  0  0  0  0
   61.2034   32.7983   46.6986 H   0  0  0  0  0  0  0  0  0  0  0  0
   62.9689   32.8512   46.2640 H   0  0  0  0  0  0  0  0  0  0  0  0
   63.3108   30.8648   47.2209 H   0  0  0  0  0  0  0  0  0  0  0  0
   62.6243   31.4695   48.7776 H   0  0  0  0  0  0  0  0  0  0  0  0
   61.5850   30.1030   45.4360 H   0  0  0  0  0  0  0  0  0  0  0  0
   59.1480   30.8059   44.2177 H   0  0  0  0  0  0  0  0  0  0  0  0
   56.9585   29.7402   43.6884 H   0  0  0  0  0  0  0  0  0  0  0  0
   56.1648   27.7827   45.0083 H   0  0  0  0  0  0  0  0  0  0  0  0
   58.3350   25.8519   47.2481 H   0  0  0  0  0  0  0  0  0  0  0  0
   57.0224   26.8519   47.9908 H   0  0  0  0  0  0  0  0  0  0  0  0
   58.7101   24.6375   44.7739 H   0  0  0  0  0  0  0  0  0  0  0  0
   58.5764   24.0502   46.4948 H   0  0  0  0  0  0  0  0  0  0  0  0
   59.2711   22.3012   44.7855 H   0  0  0  0  0  0  0  0  0  0  0  0
   57.8421   21.9002   45.8068 H   0  0  0  0  0  0  0  0  0  0  0  0
   57.7120   23.0690   42.9815 H   0  0  0  0  0  0  0  0  0  0  0  0
   57.4945   21.3301   43.4001 H   0  0  0  0  0  0  0  0  0  0  0  0
   55.3492   22.6826   43.1232 H   0  0  0  0  0  0  0  0  0  0  0  0
   55.5513   21.7880   44.6983 H   0  0  0  0  0  0  0  0  0  0  0  0
   59.7810   27.9223   47.3865 H   0  0  0  0  0  0  0  0  0  0  0  0
   59.6101   33.9492   49.6210 H   0  0  0  0  0  0  0  0  0  0  0  0
   60.3883   35.7592   46.4633 H   0  0  0  0  0  0  0  0  0  0  0  0
   59.1581   35.5444   44.3075 H   0  0  0  0  0  0  0  0  0  0  0  0
   57.4659   33.7361   44.0032 H   0  0  0  0  0  0  0  0  0  0  0  0
   56.9888   32.1441   45.8646 H   0  0  0  0  0  0  0  0  0  0  0  0
  1  2  2  0
  2  3  1  0
  3  4  1  0
  4  5  1  0
  5  6  2  0
  5  7  1  0
  7  8  1  0
  8  9  2  0
  9 10  1  0
 10 11  2  0
 11 12  1  0
 12 13  1  0
 13 14  1  0
 14 15  2  0
 15 16  1  0
 16 17  1  0
 17 18  2  0
 17 19  1  0
 19 20  2  0
 20 21  1  0
 21 22  1  0
 22 23  1  0
 23 24  1  0
 12 25  2  0
  2 26  1  0
 26 27  2  3
 27 28  1  0
 28 29  2  0
 29 30  1  0
 30 31  2  0
 31 32  1  0
 32 33  2  0
 33 34  1  0
 25  8  1  0
 33 28  1  0
 20 14  1  0
 24 19  1  0
  3 35  1  0
  3 36  1  0
  4 37  1  0
  4 38  1  0
  7 39  1  0
  9 40  1  0
 10 41  1  0
 11 42  1  0
 13 43  1  0
 13 44  1  0
 21 45  1  0
 21 46  1  0
 22 47  1  0
 22 48  1  0
 23 49  1  0
 23 50  1  0
 24 51  1  0
 24 52  1  0
 25 53  1  0
 27 54  1  0
 29 55  1  0
 30 56  1  0
 31 57  1  0
 32 58  1  0
M  CHG  2  16  -1  34  -1
M  END
>  <UniqueID>  (68) 
65

>  <SMILES>  (68) 
O=C(CCC(=O)Nc1cccc(Cc2n[n-]c(=O)c3c2CCCC3)c1)N=Cc1ccccc1[O-]

>  <Energy>  (68) 
66.20299642091794

>  <Genealogy>  (68) 
O=C(CCC(=O)Nc1cccc(Cc2n[n-]c(=O)c3c2CCCC3)c1)N=Cc1ccccc1[O-] (protonated)
O=C(CCC(=O)Nc1cccc(Cc2n[n-]c(=O)c3c2CCCC3)c1)N=Cc1ccccc1[O-] (3D coordinates assigned)
O=C(CCC(=O)Nc1cccc(Cc2n[n-]c(=O)c3c2CCCC3)c1)N=Cc1ccccc1[O-] (nonaromatic ring conformer: 66.20299642091794 kcal/mol)

>  <smiles>  (68) 
O=C(CCC(=O)Nc1cccc(Cc2n[nH]c(=O)c3c2CCCC3)c1)N=Cc1ccccc1O

>  <score_type>  (68) 
oracle

>  <origin>  (68) 
adg

>  <m_score__min__energy>  (68) 
-14.390000000000001

>  <m_primary>  (68) 
energy

$$$$
68:0
     RDKit          3D

 29 30  0  0  0  0  0  0  0  0999 V2000
   59.2560   34.9350   47.2200 C   0  0  0  0  0  0  0  0  0  0  0  0
   59.7650   34.0390   46.3990 C   0  0  0  0  0  0  0  0  0  0  0  0
   59.1370   33.7840   45.0710 C   0  0  0  0  0  0  0  0  0  0  0  0
   57.4780   33.1370   45.2000 S   0  0  0  0  0  0  0  0  0  0  0  0
   57.3930   31.3870   44.8450 C   0  0  0  0  0  0  0  0  0  0  0  0
   56.3250   30.6350   44.5240 N   0  0  0  0  0  0  0  0  0  0  0  0
   56.7290   29.3770   44.3440 N   0  0  0  0  0  0  0  0  0  0  0  0
   58.0560   29.3410   44.5520 C   0  0  0  0  0  0  0  0  0  0  0  0
   58.9870   28.1740   44.4750 C   0  0  0  0  0  0  0  0  0  0  0  0
   58.4680   30.5850   44.8630 N   0  0  0  0  0  0  0  0  0  0  0  0
   60.9490   33.2690   46.7550 C   0  0  0  0  0  0  0  0  0  0  0  0
   60.8980   31.9500   47.1580 C   0  0  0  0  0  0  0  0  0  0  0  0
   62.0360   31.2310   47.4960 C   0  0  0  0  0  0  0  0  0  0  0  0
   63.2850   31.8230   47.4390 C   0  0  0  0  0  0  0  0  0  0  0  0
   63.3520   33.1320   47.0410 C   0  0  0  0  0  0  0  0  0  0  0  0
   62.2140   33.8410   46.7070 C   0  0  0  0  0  0  0  0  0  0  0  0
   59.7269   35.1156   48.1976 H   0  0  0  0  0  0  0  0  0  0  0  0
   58.3601   35.5025   46.9279 H   0  0  0  0  0  0  0  0  0  0  0  0
   59.1021   34.7305   44.5116 H   0  0  0  0  0  0  0  0  0  0  0  0
   59.7476   33.0271   44.5569 H   0  0  0  0  0  0  0  0  0  0  0  0
   56.1750   28.5360   44.0890 H   0  0  0  0  0  0  0  0  0  0  0  0
   59.2487   27.8460   45.4918 H   0  0  0  0  0  0  0  0  0  0  0  0
   58.4966   27.3485   43.9383 H   0  0  0  0  0  0  0  0  0  0  0  0
   59.9008   28.4687   43.9383 H   0  0  0  0  0  0  0  0  0  0  0  0
   59.9196   31.4503   47.2133 H   0  0  0  0  0  0  0  0  0  0  0  0
   61.9440   30.1814   47.8119 H   0  0  0  0  0  0  0  0  0  0  0  0
   64.1932   31.2618   47.7042 H   0  0  0  0  0  0  0  0  0  0  0  0
   64.3318   33.6289   46.9862 H   0  0  0  0  0  0  0  0  0  0  0  0
   62.3128   34.8907   46.3934 H   0  0  0  0  0  0  0  0  0  0  0  0
  1  2  2  0
  2  3  1  0
  3  4  1  0
  4  5  1  0
  5  6  2  0
  6  7  1  0
  7  8  1  0
  8  9  1  0
  8 10  2  0
  2 11  1  0
 11 12  2  0
 12 13  1  0
 13 14  2  0
 14 15  1  0
 15 16  2  0
 10  5  1  0
 16 11  1  0
  1 17  1  0
  1 18  1  0
  3 19  1  0
  3 20  1  0
  7 21  1  0
  9 22  1  0
  9 23  1  0
  9 24  1  0
 12 25  1  0
 13 26  1  0
 14 27  1  0
 15 28  1  0
 16 29  1  0
M  END
>  <smiles>  (69) 
C=C(CSc1n[nH]c(C)n1)c1ccccc1

>  <score_type>  (69) 
oracle

>  <origin>  (69) 
adg

>  <m_score__min__energy>  (69) 
-7.2699999999999996

>  <m_primary>  (69) 
energy

$$$$
69:0
     RDKit          3D

 47 50  0  0  0  0  0  0  0  0999 V2000
   55.1590   28.5960   45.7270 H   0  0  0  0  0  0  0  0  0  0  0  0
   55.5070   29.0190   44.8380 N   0  0  0  0  0  0  0  0  0  0  0  0
   56.4370   30.1010   44.8560 C   0  0  0  0  0  0  0  0  0  0  0  0
   56.2360   31.0970   44.1130 O   0  0  0  0  0  0  0  0  0  0  0  0
   57.6040   30.0600   45.7610 C   0  0  0  0  0  0  0  0  0  0  0  0
   58.0090   28.9460   46.5020 C   0  0  0  0  0  0  0  0  0  0  0  0
   57.3320   27.6910   46.6080 N   0  0  0  0  0  0  0  0  0  0  0  0
   56.3020   27.6890   46.4400 H   0  0  0  0  0  0  0  0  0  0  0  0
   58.0400   26.4490   46.7580 C   0  0  0  0  0  0  0  0  0  0  0  0
   59.2800   26.4550   46.9790 O   0  0  0  0  0  0  0  0  0  0  0  0
   57.3570   25.1880   46.7140 N   0  0  0  0  0  0  0  0  0  0  0  0
   56.1280   24.9970   46.3320 C   0  0  0  0  0  0  0  0  0  0  0  0
   55.2180   25.9700   46.1380 N   0  0  0  0  0  0  0  0  0  0  0  0
   54.1280   25.3790   45.7370 O   0  0  0  0  0  0  0  0  0  0  0  0
   54.2860   24.0750   45.6520 C   0  0  0  0  0  0  0  0  0  0  0  0
   53.5169   23.3499   45.3475 H   0  0  0  0  0  0  0  0  0  0  0  0
   55.5830   23.7760   46.0110 C   0  0  0  0  0  0  0  0  0  0  0  0
   56.2050   22.4220   46.1340 C   0  0  0  0  0  0  0  0  0  0  0  0
   56.3219   22.1675   47.1977 H   0  0  0  0  0  0  0  0  0  0  0  0
   55.5592   21.6762   45.6474 H   0  0  0  0  0  0  0  0  0  0  0  0
   57.1915   22.4261   45.6474 H   0  0  0  0  0  0  0  0  0  0  0  0
   59.4580   29.2870   47.2760 S   0  0  0  0  0  0  0  0  0  0  0  0
   59.5880   30.8730   46.7200 C   0  0  0  0  0  0  0  0  0  0  0  0
   60.7050   31.7820   47.0560 C   0  0  0  0  0  0  0  0  0  0  0  0
   61.5630   31.4270   48.0520 N   0  0  0  0  0  0  0  0  0  0  0  0
   62.6180   32.2010   48.4300 C   0  0  0  0  0  0  0  0  0  0  0  0
   63.4820   31.7550   49.4920 N   0  0  0  0  0  0  0  0  0  0  0  0
   64.8440   32.2160   49.7000 C   0  0  0  0  0  0  0  0  0  0  0  0
   65.4922   31.8797   48.8773 H   0  0  0  0  0  0  0  0  0  0  0  0
   64.9001   33.3142   49.7281 H   0  0  0  0  0  0  0  0  0  0  0  0
   65.2940   31.5980   51.0160 C   0  0  0  0  0  0  0  0  0  0  0  0
   66.3144   31.1981   50.9218 H   0  0  0  0  0  0  0  0  0  0  0  0
   65.3097   32.3413   51.8267 H   0  0  0  0  0  0  0  0  0  0  0  0
   64.3070   30.4710   51.3080 C   0  0  0  0  0  0  0  0  0  0  0  0
   64.7317   29.5025   51.0054 H   0  0  0  0  0  0  0  0  0  0  0  0
   64.0767   30.4039   52.3815 H   0  0  0  0  0  0  0  0  0  0  0  0
   63.0630   30.7830   50.4880 C   0  0  0  0  0  0  0  0  0  0  0  0
   62.6868   29.8717   50.0001 H   0  0  0  0  0  0  0  0  0  0  0  0
   62.2489   31.1718   51.1173 H   0  0  0  0  0  0  0  0  0  0  0  0
   62.8400   33.4210   47.7680 C   0  0  0  0  0  0  0  0  0  0  0  0
   63.6872   34.0613   48.0549 H   0  0  0  0  0  0  0  0  0  0  0  0
   61.9780   33.8130   46.7450 C   0  0  0  0  0  0  0  0  0  0  0  0
   62.1440   34.7668   46.2228 H   0  0  0  0  0  0  0  0  0  0  0  0
   60.9050   32.9980   46.3820 C   0  0  0  0  0  0  0  0  0  0  0  0
   60.2224   33.3049   45.5758 H   0  0  0  0  0  0  0  0  0  0  0  0
   58.4900   31.1440   45.9000 C   0  0  0  0  0  0  0  0  0  0  0  0
   58.3326   32.1153   45.4083 H   0  0  0  0  0  0  0  0  0  0  0  0
  1  2  1  0
  2  3  1  0
  3  4  2  0
  3  5  1  0
  5  6  2  0
  6  7  1  0
  7  8  1  0
  7  9  1  0
  9 10  2  0
  9 11  1  0
 11 12  2  0
 12 13  1  0
 13 14  1  0
 14 15  1  0
 15 16  1  0
 15 17  2  0
 17 18  1  0
 18 19  1  0
 18 20  1  0
 18 21  1  0
  6 22  1  0
 22 23  1  0
 23 24  1  0
 24 25  2  0
 25 26  1  0
 26 27  1  0
 27 28  1  0
 28 29  1  0
 28 30  1  0
 28 31  1  0
 31 32  1  0
 31 33  1  0
 31 34  1  0
 34 35  1  0
 34 36  1  0
 34 37  1  0
 37 38  1  0
 37 39  1  0
 26 40  2  0
 40 41  1  0
 40 42  1  0
 42 43  1  0
 42 44  2  0
 44 45  1  0
 23 46  2  0
 46 47  1  0
 46  5  1  0
 17 12  1  0
 44 24  1  0
 37 27  1  0
M  CHG  2   2  -1  13  -1
M  END
>  <UniqueID>  (70) 
66

>  <SMILES>  (70) 
Cc1co[n-]/c1=N\C(=O)Nc1sc(-c2cccc(N3CCCC3)n2)cc1C([NH-])=O

>  <Energy>  (70) 
119.27097404738647

>  <Genealogy>  (70) 
Cc1co[n-]c1=NC(=O)Nc1sc(-c2cccc(N3CCCC3)n2)cc1C([NH-])=O (protonated)
Cc1co[n-]/c1=N\C(=O)Nc1sc(-c2cccc(N3CCCC3)n2)cc1C([NH-])=O (cis-trans isomerization)
Cc1co[n-]/c1=N\C(=O)Nc1sc(-c2cccc(N3CCCC3)n2)cc1C([NH-])=O (3D coordinates assigned)
Cc1co[n-]/c1=N\C(=O)Nc1sc(-c2cccc(N3CCCC3)n2)cc1C([NH-])=O (nonaromatic ring conformer: 119.27097404738647 kcal/mol)

>  <smiles>  (70) 
Cc1co[nH]c1=NC(=O)Nc1sc(-c2cccc(N3CCCC3)n2)cc1C(N)=O

>  <score_type>  (70) 
oracle

>  <origin>  (70) 
adg

>  <m_score__min__energy>  (70) 
-13.609999999999999

>  <m_primary>  (70) 
energy

$$$$
70:0
     RDKit          3D

 60 63  0  0  0  0  0  0  0  0999 V2000
   64.1780   34.1640   45.6910 H   0  0  0  0  0  0  0  0  0  0  0  0
   63.4250   34.3940   46.3790 N   0  0  0  0  0  0  0  0  0  0  0  0
   63.0900   33.5690   47.3180 C   0  0  0  0  0  0  0  0  0  0  0  0
   62.5210   34.0340   48.4650 N   0  0  0  0  0  0  0  0  0  0  0  0
   62.1760   33.2020   49.4840 C   0  0  0  0  0  0  0  0  0  0  0  0
   61.7115   33.6123   50.3928 H   0  0  0  0  0  0  0  0  0  0  0  0
   62.4100   31.8230   49.3810 C   0  0  0  0  0  0  0  0  0  0  0  0
   62.0720   30.9030   50.5250 C   0  0  0  0  0  0  0  0  0  0  0  0
   62.9380   30.2582   50.7354 H   0  0  0  0  0  0  0  0  0  0  0  0
   61.8234   31.5154   51.4043 H   0  0  0  0  0  0  0  0  0  0  0  0
   60.8820   30.0370   50.1920 C   0  0  0  0  0  0  0  0  0  0  0  0
   61.0570   28.8420   49.9850 O   0  0  0  0  0  0  0  0  0  0  0  0
   59.5500   30.6050   50.1030 N   0  0  2  0  0  0  0  0  0  0  0  0
   59.5950   31.6100   50.3890 H   0  0  0  0  0  0  0  0  0  0  0  0
   58.6550   29.9170   51.0500 C   0  0  0  0  0  0  0  0  0  0  0  0
   58.9607   30.1520   52.0802 H   0  0  0  0  0  0  0  0  0  0  0  0
   57.6207   30.2548   50.8884 H   0  0  0  0  0  0  0  0  0  0  0  0
   58.7154   28.8306   50.8884 H   0  0  0  0  0  0  0  0  0  0  0  0
   59.0470   30.5040   48.7100 C   0  0  0  0  0  0  0  0  0  0  0  0
   59.5922   29.7000   48.1940 H   0  0  0  0  0  0  0  0  0  0  0  0
   57.9686   30.2917   48.7550 H   0  0  0  0  0  0  0  0  0  0  0  0
   59.2360   31.8000   47.9350 C   0  0  0  0  0  0  0  0  0  0  0  0
   58.7340   32.9860   48.4980 C   0  0  0  0  0  0  0  0  0  0  0  0
   58.2098   32.9497   49.4644 H   0  0  0  0  0  0  0  0  0  0  0  0
   58.8930   34.2090   47.8450 C   0  0  0  0  0  0  0  0  0  0  0  0
   58.4820   35.1268   48.2908 H   0  0  0  0  0  0  0  0  0  0  0  0
   59.5710   34.2700   46.6300 C   0  0  0  0  0  0  0  0  0  0  0  0
   59.7019   35.2370   46.1224 H   0  0  0  0  0  0  0  0  0  0  0  0
   60.0840   33.1080   46.0560 C   0  0  0  0  0  0  0  0  0  0  0  0
   60.6373   33.1687   45.1072 H   0  0  0  0  0  0  0  0  0  0  0  0
   59.9020   31.8570   46.6770 C   0  0  0  0  0  0  0  0  0  0  0  0
   60.4860   30.6300   46.0070 C   0  0  0  0  0  0  0  0  0  0  0  0
   61.1516   30.9515   45.1923 H   0  0  0  0  0  0  0  0  0  0  0  0
   61.0393   30.0561   46.7650 H   0  0  0  0  0  0  0  0  0  0  0  0
   59.4350   29.7610   45.4500 N   0  0  0  0  0  0  0  0  0  0  0  0
   58.3560   30.2100   44.7670 C   0  0  0  0  0  0  0  0  0  0  0  0
   58.0870   31.6470   44.4330 C   0  0  0  0  0  0  0  0  0  0  0  0
   57.9787   32.2254   45.3624 H   0  0  0  0  0  0  0  0  0  0  0  0
   58.9253   32.0501   43.8458 H   0  0  0  0  0  0  0  0  0  0  0  0
   57.1597   31.7196   43.8458 H   0  0  0  0  0  0  0  0  0  0  0  0
   57.5160   29.1660   44.4430 C   0  0  0  0  0  0  0  0  0  0  0  0
   56.5550   29.2378   43.9127 H   0  0  0  0  0  0  0  0  0  0  0  0
   58.1140   28.0110   44.9130 C   0  0  0  0  0  0  0  0  0  0  0  0
   57.5900   26.7880   44.6990 C   0  0  0  0  0  0  0  0  0  0  0  0
   57.5024   26.4541   43.6546 H   0  0  0  0  0  0  0  0  0  0  0  0
   57.1250   25.8610   45.7430 C   0  0  0  0  0  0  0  0  0  0  0  0
   57.8340   24.8160   46.2080 N   0  0  0  0  0  0  0  0  0  0  0  0
   56.9680   24.2030   47.0450 C   0  0  0  0  0  0  0  0  0  0  0  0
   57.2740   23.1720   47.7010 O   0  0  0  0  0  0  0  0  0  0  0  0
   55.7470   24.7760   47.1180 N   0  0  0  0  0  0  0  0  0  0  0  0
   55.8600   25.8150   46.2750 C   0  0  0  0  0  0  0  0  0  0  0  0
   54.8280   26.7010   45.9970 O   0  0  0  0  0  0  0  0  0  0  0  0
   59.2880   28.4120   45.5760 C   0  0  0  0  0  0  0  0  0  0  0  0
   60.0850   27.6340   46.3310 C   0  0  0  0  0  0  0  0  0  0  0  0
   60.9825   28.0603   46.8031 H   0  0  0  0  0  0  0  0  0  0  0  0
   59.8391   26.5717   46.4761 H   0  0  0  0  0  0  0  0  0  0  0  0
   62.9750   31.3230   48.1960 C   0  0  0  0  0  0  0  0  0  0  0  0
   63.1467   30.2425   48.0819 H   0  0  0  0  0  0  0  0  0  0  0  0
   63.3190   32.1980   47.1620 C   0  0  0  0  0  0  0  0  0  0  0  0
   63.7658   31.8120   46.2339 H   0  0  0  0  0  0  0  0  0  0  0  0
  1  2  1  0
  2  3  2  0
  3  4  1  0
  4  5  1  0
  5  6  1  0
  5  7  2  0
  7  8  1  0
  8  9  1  0
  8 10  1  0
  8 11  1  0
 11 12  2  0
 11 13  1  0
 13 14  1  1
 13 15  1  0
 15 16  1  0
 15 17  1  0
 15 18  1  0
 13 19  1  0
 19 20  1  0
 19 21  1  0
 19 22  1  0
 22 23  2  0
 23 24  1  0
 23 25  1  0
 25 26  1  0
 25 27  2  0
 27 28  1  0
 27 29  1  0
 29 30  1  0
 29 31  2  0
 31 32  1  0
 32 33  1  0
 32 34  1  0
 32 35  1  0
 35 36  1  0
 36 37  1  0
 37 38  1  0
 37 39  1  0
 37 40  1  0
 36 41  2  0
 41 42  1  0
 41 43  1  0
 43 44  2  3
 44 45  1  0
 44 46  1  0
 46 47  1  0
 47 48  1  0
 48 49  2  0
 48 50  1  0
 50 51  1  0
 51 52  1  0
 43 53  1  0
 53 54  2  0
 54 55  1  0
 54 56  1  0
  7 57  1  0
 57 58  1  0
 57 59  2  0
 59 60  1  0
 59  3  1  0
 31 22  1  0
 53 35  1  0
 51 46  2  0
M  CHG  5   4  -1  13   1  47  -1  50  -1  52  -1
M  END
>  <UniqueID>  (71) 
67

>  <SMILES>  (71) 
[H]/N=c1/ccc(CC(=O)[N@H+](C)Cc2ccccc2Cn2c(C)cc(=Cc3[n-]c(=O)[n-]c3[O-])c2=C)c[n-]1

>  <Energy>  (71) 
130.75327657325778

>  <Genealogy>  (71) 
C=c1c(=Cc2[n-]c(=O)[n-]c2[O-])cc(C)n1Cc1ccccc1C[NH+](C)C(=O)Cc1ccc(=N)[n-]c1 (protonated)
C=c1c(=Cc2[n-]c(=O)[n-]c2[O-])cc(C)n1Cc1ccccc1C[N@@H+](C)C(=O)Cc1ccc(=N)[n-]c1 (chirality)
[H]/N=c1/ccc(CC(=O)[N@H+](C)Cc2ccccc2Cn2c(C)cc(=Cc3[n-]c(=O)[n-]c3[O-])c2=C)c[n-]1 (cis-trans isomerization)
[H]/N=c1/ccc(CC(=O)[N@H+](C)Cc2ccccc2Cn2c(C)cc(=Cc3[n-]c(=O)[n-]c3[O-])c2=C)c[n-]1 (3D coordinates assigned)
[H]/N=c1/ccc(CC(=O)[N@H+](C)Cc2ccccc2Cn2c(C)cc(=Cc3[n-]c(=O)[n-]c3[O-])c2=C)c[n-]1 (optimized conformer: 130.75327657325778 kcal/mol)

>  <smiles>  (71) 
C=c1c(=Cc2[nH]c(=O)[nH]c2O)cc(C)n1Cc1ccccc1CN(C)C(=O)Cc1ccc(=N)[nH]c1

>  <score_type>  (71) 
oracle

>  <origin>  (71) 
adg

>  <m_score__min__energy>  (71) 
-18.73

>  <m_primary>  (71) 
energy

$$$$
71:0
     RDKit          3D

 51 54  0  0  0  0  0  0  0  0999 V2000
   63.8500   29.9370   51.6210 C   0  0  0  0  0  0  0  0  0  0  0  0
   62.8240   30.2980   50.5930 C   0  0  0  0  0  0  0  0  0  0  0  0
   61.9400   29.4520   50.2930 O   0  0  0  0  0  0  0  0  0  0  0  0
   62.7960   31.6500   49.9830 C   0  0  0  0  0  0  0  0  0  0  0  0
   64.0040   32.2150   49.5330 C   0  0  0  0  0  0  0  0  0  0  0  0
   64.0280   33.4920   48.9700 C   0  0  0  0  0  0  0  0  0  0  0  0
   62.8490   34.2240   48.8460 C   0  0  0  0  0  0  0  0  0  0  0  0
   61.6390   33.6790   49.2740 C   0  0  0  0  0  0  0  0  0  0  0  0
   61.5890   32.3900   49.8390 C   0  0  0  0  0  0  0  0  0  0  0  0
   60.2400   31.8180   50.2210 C   0  0  0  0  0  0  0  0  0  0  0  0
   59.3960   31.6230   49.0250 N   0  0  0  0  0  0  0  0  0  0  0  0
   60.1840   31.1760   47.8430 C   0  0  0  0  0  0  0  0  0  0  0  0
   60.4330   32.3000   46.8250 C   0  0  0  0  0  0  0  0  0  0  0  0
   59.1000   32.9060   46.3100 C   0  0  0  0  0  0  0  0  0  0  0  0
   57.9660   32.8090   47.3670 C   0  0  0  0  0  0  0  0  0  0  0  0
   58.5470   32.8150   48.7830 C   0  0  0  0  0  0  0  0  0  0  0  0
   59.3090   34.3240   45.8940 C   0  0  0  0  0  0  0  0  0  0  0  0
   59.6670   35.2510   46.6680 O   0  0  0  0  0  0  0  0  0  0  0  0
   59.0460   34.5400   44.5190 N   0  0  0  0  0  0  0  0  0  0  0  0
   58.6390   33.2710   43.9450 C   0  0  0  0  0  0  0  0  0  0  0  0
   58.6920   32.2980   45.0350 N   0  0  0  0  0  0  0  0  0  0  0  0
   58.2700   30.9390   44.8530 C   0  0  0  0  0  0  0  0  0  0  0  0
   59.2050   29.9400   44.5440 C   0  0  0  0  0  0  0  0  0  0  0  0
   58.7850   28.6200   44.3540 C   0  0  0  0  0  0  0  0  0  0  0  0
   57.4290   28.2940   44.4550 C   0  0  0  0  0  0  0  0  0  0  0  0
   56.4900   29.2910   44.7380 C   0  0  0  0  0  0  0  0  0  0  0  0
   55.1420   28.9700   44.8260 O   0  0  0  0  0  0  0  0  0  0  0  0
   56.9080   30.6120   44.9300 C   0  0  0  0  0  0  0  0  0  0  0  0
   63.4294   30.0850   52.6266 H   0  0  0  0  0  0  0  0  0  0  0  0
   64.1393   28.8831   51.4960 H   0  0  0  0  0  0  0  0  0  0  0  0
   64.7355   30.5776   51.4960 H   0  0  0  0  0  0  0  0  0  0  0  0
   64.9395   31.6439   49.6260 H   0  0  0  0  0  0  0  0  0  0  0  0
   64.9796   33.9213   48.6235 H   0  0  0  0  0  0  0  0  0  0  0  0
   62.8728   35.2335   48.4097 H   0  0  0  0  0  0  0  0  0  0  0  0
   60.7126   34.2628   49.1691 H   0  0  0  0  0  0  0  0  0  0  0  0
   60.3874   30.8490   50.7204 H   0  0  0  0  0  0  0  0  0  0  0  0
   59.7360   32.5242   50.8972 H   0  0  0  0  0  0  0  0  0  0  0  0
   61.1562   30.7986   48.1927 H   0  0  0  0  0  0  0  0  0  0  0  0
   59.5985   30.3961   47.3341 H   0  0  0  0  0  0  0  0  0  0  0  0
   61.0242   33.0933   47.3058 H   0  0  0  0  0  0  0  0  0  0  0  0
   60.9735   31.8748   45.9665 H   0  0  0  0  0  0  0  0  0  0  0  0
   57.2889   33.6680   47.2505 H   0  0  0  0  0  0  0  0  0  0  0  0
   57.4173   31.8681   47.2129 H   0  0  0  0  0  0  0  0  0  0  0  0
   59.1562   33.7212   48.9160 H   0  0  0  0  0  0  0  0  0  0  0  0
   57.7126   32.7968   49.4995 H   0  0  0  0  0  0  0  0  0  0  0  0
   57.6162   33.3426   43.5465 H   0  0  0  0  0  0  0  0  0  0  0  0
   59.2947   32.9777   43.1119 H   0  0  0  0  0  0  0  0  0  0  0  0
   60.2708   30.1956   44.4510 H   0  0  0  0  0  0  0  0  0  0  0  0
   59.5225   27.8367   44.1247 H   0  0  0  0  0  0  0  0  0  0  0  0
   57.1010   27.2538   44.3119 H   0  0  0  0  0  0  0  0  0  0  0  0
   56.1667   31.3966   45.1419 H   0  0  0  0  0  0  0  0  0  0  0  0
  1  2  1  0
  2  3  2  0
  2  4  1  0
  4  5  2  0
  5  6  1  0
  6  7  2  0
  7  8  1  0
  8  9  2  0
  9 10  1  0
 10 11  1  0
 11 12  1  0
 12 13  1  0
 13 14  1  0
 14 15  1  0
 15 16  1  0
 14 17  1  0
 17 18  2  0
 17 19  1  0
 19 20  1  0
 20 21  1  0
 21 22  1  0
 22 23  2  0
 23 24  1  0
 24 25  2  0
 25 26  1  0
 26 27  1  0
 26 28  2  0
  9  4  1  0
 16 11  1  0
 28 22  1  0
 21 14  1  0
  1 29  1  0
  1 30  1  0
  1 31  1  0
  5 32  1  0
  6 33  1  0
  7 34  1  0
  8 35  1  0
 10 36  1  0
 10 37  1  0
 12 38  1  0
 12 39  1  0
 13 40  1  0
 13 41  1  0
 15 42  1  0
 15 43  1  0
 16 44  1  0
 16 45  1  0
 20 46  1  0
 20 47  1  0
 23 48  1  0
 24 49  1  0
 25 50  1  0
 28 51  1  0
M  CHG  2  19  -1  27  -1
M  END
>  <UniqueID>  (72) 
68

>  <SMILES>  (72) 
CC(=O)c1ccccc1CN1CCC2(CC1)C(=O)[N-]CN2c1cccc([O-])c1

>  <Energy>  (72) 
83.69793713655345

>  <Genealogy>  (72) 
CC(=O)c1ccccc1CN1CCC2(CC1)C(=O)[N-]CN2c1cccc([O-])c1 (protonated)
CC(=O)c1ccccc1CN1CCC2(CC1)C(=O)[N-]CN2c1cccc([O-])c1 (3D coordinates assigned)
CC(=O)c1ccccc1CN1CCC2(CC1)C(=O)[N-]CN2c1cccc([O-])c1 (nonaromatic ring conformer: 83.69793713655345 kcal/mol)

>  <smiles>  (72) 
CC(=O)c1ccccc1CN1CCC2(CC1)C(=O)NCN2c1cccc(O)c1

>  <score_type>  (72) 
oracle

>  <origin>  (72) 
adg

>  <m_score__min__energy>  (72) 
-12.390000000000001

>  <m_primary>  (72) 
energy

$$$$
72:0
     RDKit          3D

 53 56  0  0  0  0  0  0  0  0999 V2000
   59.3840   33.8920   51.1680 C   0  0  0  0  0  0  0  0  0  0  0  0
   58.5320   32.6960   51.4980 C   0  0  0  0  0  0  0  0  0  0  0  0
   57.8380   32.6620   52.7190 C   0  0  0  0  0  0  0  0  0  0  0  0
   57.0990   31.5350   53.0810 C   0  0  0  0  0  0  0  0  0  0  0  0
   57.0820   30.4160   52.2490 C   0  0  0  0  0  0  0  0  0  0  0  0
   57.7780   30.4310   51.0380 C   0  0  0  0  0  0  0  0  0  0  0  0
   58.4680   31.5840   50.6290 C   0  0  0  0  0  0  0  0  0  0  0  0
   59.1890   31.6150   49.3870 N   0  0  0  0  0  0  0  0  0  0  0  0
   60.1450   30.6630   48.8950 C   0  0  0  0  0  0  0  0  0  0  0  0
   61.1120   31.0880   48.2100 O   0  0  0  0  0  0  0  0  0  0  0  0
   59.9760   29.1760   49.0490 C   0  0  0  0  0  0  0  0  0  0  0  0
   60.5100   28.3020   47.5350 S   0  0  0  0  0  0  0  0  0  0  0  0
   58.9890   28.6120   46.6410 C   0  0  0  0  0  0  0  0  0  0  0  0
   58.0840   27.5620   46.3810 C   0  0  0  0  0  0  0  0  0  0  0  0
   56.9270   27.8100   45.6240 C   0  0  0  0  0  0  0  0  0  0  0  0
   56.7420   29.1060   45.1630 C   0  0  0  0  0  0  0  0  0  0  0  0
   55.7340   29.5730   44.4040 N   0  0  0  0  0  0  0  0  0  0  0  0
   55.9810   30.8690   44.2210 N   0  0  0  0  0  0  0  0  0  0  0  0
   57.1390   31.1690   44.8580 C   0  0  0  0  0  0  0  0  0  0  0  0
   57.6750   32.5760   44.9560 C   0  0  0  0  0  0  0  0  0  0  0  0
   57.7750   33.1490   46.3760 C   0  0  0  0  0  0  0  0  0  0  0  0
   59.1020   32.9480   46.9570 N   0  0  0  0  0  0  0  0  0  0  0  0
   59.9890   34.0560   47.1800 C   0  0  0  0  0  0  0  0  0  0  0  0
   59.5630   35.2350   47.0360 O   0  0  0  0  0  0  0  0  0  0  0  0
   61.3880   33.8390   47.6090 C   0  0  0  0  0  0  0  0  0  0  0  0
   61.7450   34.0100   48.9600 C   0  0  0  0  0  0  0  0  0  0  0  0
   63.0600   33.7800   49.3780 C   0  0  0  0  0  0  0  0  0  0  0  0
   64.0320   33.3940   48.4530 C   0  0  0  0  0  0  0  0  0  0  0  0
   63.6930   33.2430   47.1060 C   0  0  0  0  0  0  0  0  0  0  0  0
   62.3800   33.4690   46.6840 C   0  0  0  0  0  0  0  0  0  0  0  0
   57.6170   30.0670   45.4630 N   0  0  0  0  0  0  0  0  0  0  0  0
   58.7200   29.8660   46.1810 N   0  0  0  0  0  0  0  0  0  0  0  0
   59.7235   34.3686   52.0995 H   0  0  0  0  0  0  0  0  0  0  0  0
   60.2571   33.5697   50.5817 H   0  0  0  0  0  0  0  0  0  0  0  0
   58.7941   34.6119   50.5817 H   0  0  0  0  0  0  0  0  0  0  0  0
   57.8774   33.5295   53.3942 H   0  0  0  0  0  0  0  0  0  0  0  0
   56.5300   31.5293   54.0224 H   0  0  0  0  0  0  0  0  0  0  0  0
   56.5191   29.5192   52.5471 H   0  0  0  0  0  0  0  0  0  0  0  0
   57.7858   29.5344   50.4008 H   0  0  0  0  0  0  0  0  0  0  0  0
   60.5834   28.8300   49.8984 H   0  0  0  0  0  0  0  0  0  0  0  0
   58.9122   28.9583   49.2252 H   0  0  0  0  0  0  0  0  0  0  0  0
   58.2835   26.5525   46.7696 H   0  0  0  0  0  0  0  0  0  0  0  0
   56.2005   27.0132   45.4064 H   0  0  0  0  0  0  0  0  0  0  0  0
   58.6827   32.5859   44.5151 H   0  0  0  0  0  0  0  0  0  0  0  0
   56.9514   33.2118   44.4248 H   0  0  0  0  0  0  0  0  0  0  0  0
   57.5634   34.2278   46.3391 H   0  0  0  0  0  0  0  0  0  0  0  0
   57.0449   32.6210   47.0070 H   0  0  0  0  0  0  0  0  0  0  0  0
   59.3950   31.9910   47.2550 H   0  0  0  0  0  0  0  0  0  0  0  0
   60.9860   34.3261   49.6907 H   0  0  0  0  0  0  0  0  0  0  0  0
   63.3288   33.9035   50.4375 H   0  0  0  0  0  0  0  0  0  0  0  0
   65.0643   33.2088   48.7846 H   0  0  0  0  0  0  0  0  0  0  0  0
   64.4608   32.9458   46.3765 H   0  0  0  0  0  0  0  0  0  0  0  0
   62.1209   33.3566   45.6209 H   0  0  0  0  0  0  0  0  0  0  0  0
  1  2  1  0
  2  3  2  0
  3  4  1  0
  4  5  2  0
  5  6  1  0
  6  7  2  0
  7  8  1  0
  8  9  1  0
  9 10  2  0
  9 11  1  0
 11 12  1  0
 12 13  1  0
 13 14  1  0
 14 15  2  0
 15 16  1  0
 16 17  2  0
 17 18  1  0
 18 19  2  0
 19 20  1  0
 20 21  1  0
 21 22  1  0
 22 23  1  0
 23 24  2  0
 23 25  1  0
 25 26  2  0
 26 27  1  0
 27 28  2  0
 28 29  1  0
 29 30  2  0
 19 31  1  0
 31 32  1  0
  7  2  1  0
 32 13  2  0
 31 16  1  0
 30 25  1  0
  1 33  1  0
  1 34  1  0
  1 35  1  0
  3 36  1  0
  4 37  1  0
  5 38  1  0
  6 39  1  0
 11 40  1  0
 11 41  1  0
 14 42  1  0
 15 43  1  0
 20 44  1  0
 20 45  1  0
 21 46  1  0
 21 47  1  0
 22 48  1  0
 26 49  1  0
 27 50  1  0
 28 51  1  0
 29 52  1  0
 30 53  1  0
M  CHG  1   8  -1
M  END
>  <UniqueID>  (73) 
69

>  <SMILES>  (73) 
Cc1ccccc1[N-]C(=O)CSc1ccc2nnc(CCNC(=O)c3ccccc3)n2n1

>  <Energy>  (73) 
93.64173742350951

>  <Genealogy>  (73) 
Cc1ccccc1[N-]C(=O)CSc1ccc2nnc(CCNC(=O)c3ccccc3)n2n1 (protonated)
Cc1ccccc1[N-]C(=O)CSc1ccc2nnc(CCNC(=O)c3ccccc3)n2n1 (3D coordinates assigned)
Cc1ccccc1[N-]C(=O)CSc1ccc2nnc(CCNC(=O)c3ccccc3)n2n1 (optimized conformer: 93.64173742350951 kcal/mol)

>  <smiles>  (73) 
Cc1ccccc1NC(=O)CSc1ccc2nnc(CCNC(=O)c3ccccc3)n2n1

>  <score_type>  (73) 
oracle

>  <origin>  (73) 
adg

>  <m_score__min__energy>  (73) 
-10.619999999999999

>  <m_primary>  (73) 
energy

$$$$
73:0
     RDKit          3D

 55 59  0  0  0  0  0  0  0  0999 V2000
   54.2650   28.9270   53.5690 O   0  0  0  0  0  0  0  0  0  0  0  0
   54.4280   29.7350   52.6140 C   0  0  0  0  0  0  0  0  0  0  0  0
   55.7050   29.7850   51.9650 N   0  0  0  0  0  0  0  0  0  0  0  0
   56.8780   30.5220   52.4310 C   0  0  2  0  0  0  0  0  0  0  0  0
   56.6720   32.0380   52.2150 C   0  0  0  0  0  0  0  0  0  0  0  0
   57.9450   32.7900   51.9150 C   0  0  0  0  0  0  0  0  0  0  0  0
   58.6720   33.6190   52.7700 C   0  0  0  0  0  0  0  0  0  0  0  0
   59.7020   34.1950   52.1070 N   0  0  0  0  0  0  0  0  0  0  0  0
   59.6220   33.7550   50.8370 C   0  0  0  0  0  0  0  0  0  0  0  0
   60.4530   34.0970   49.7680 C   0  0  0  0  0  0  0  0  0  0  0  0
   60.1680   33.5400   48.5060 C   0  0  0  0  0  0  0  0  0  0  0  0
   59.0690   32.6660   48.3430 C   0  0  0  0  0  0  0  0  0  0  0  0
   58.2470   32.3400   49.4400 C   0  0  0  0  0  0  0  0  0  0  0  0
   58.5580   32.9040   50.6790 C   0  0  0  0  0  0  0  0  0  0  0  0
   58.0810   30.0050   51.6960 C   0  0  0  0  0  0  0  0  0  0  0  0
   58.0310   29.3920   50.4940 N   0  0  0  0  0  0  0  0  0  0  0  0
   59.2580   28.9730   50.0810 C   0  0  0  0  0  0  0  0  0  0  0  0
   59.4440   28.3100   48.7840 C   0  0  0  0  0  0  0  0  0  0  0  0
   59.9650   27.1650   48.7210 O   0  0  0  0  0  0  0  0  0  0  0  0
   59.0420   28.9860   47.5900 N   0  0  0  0  0  0  0  0  0  0  0  0
   58.0380   28.4600   46.6740 C   0  0  0  0  0  0  0  0  0  0  0  0
   57.7140   29.5130   45.6510 C   0  0  0  0  0  0  0  0  0  0  0  0
   58.6310   30.5500   45.4100 C   0  0  0  0  0  0  0  0  0  0  0  0
   58.3210   31.5750   44.5100 C   0  0  0  0  0  0  0  0  0  0  0  0
   57.0900   31.5790   43.8500 C   0  0  0  0  0  0  0  0  0  0  0  0
   56.1670   30.5570   44.0870 C   0  0  0  0  0  0  0  0  0  0  0  0
   56.4690   29.5290   44.9900 C   0  0  0  0  0  0  0  0  0  0  0  0
   55.5240   28.5360   45.2270 O   0  0  0  0  0  0  0  0  0  0  0  0
   60.3000   29.2340   50.9700 C   0  0  0  0  0  0  0  0  0  0  0  0
   59.6480   30.0200   52.3070 S   0  0  0  0  0  0  0  0  0  0  0  0
   53.2990   30.5880   52.2010 C   0  0  0  0  0  0  0  0  0  0  0  0
   52.2220   30.9420   52.9900 C   0  0  0  0  0  0  0  0  0  0  0  0
   51.4020   31.7830   52.3270 N   0  0  0  0  0  0  0  0  0  0  0  0
   51.9830   31.9680   51.1240 C   0  0  0  0  0  0  0  0  0  0  0  0
   51.4490   32.7980   50.1460 O   0  0  0  0  0  0  0  0  0  0  0  0
   53.1580   31.2590   51.0020 C   0  0  0  0  0  0  0  0  0  0  0  0
   57.0313   30.3711   53.5098 H   0  0  0  0  0  0  0  0  0  0  0  0
   55.9803   32.1770   51.3711 H   0  0  0  0  0  0  0  0  0  0  0  0
   56.2749   32.4442   53.1570 H   0  0  0  0  0  0  0  0  0  0  0  0
   58.4407   33.7816   53.8331 H   0  0  0  0  0  0  0  0  0  0  0  0
   60.4050   34.8590   52.5010 H   0  0  0  0  0  0  0  0  0  0  0  0
   61.3038   34.7802   49.9072 H   0  0  0  0  0  0  0  0  0  0  0  0
   60.8039   33.7864   47.6429 H   0  0  0  0  0  0  0  0  0  0  0  0
   58.8540   32.2375   47.3530 H   0  0  0  0  0  0  0  0  0  0  0  0
   57.3879   31.6629   49.3241 H   0  0  0  0  0  0  0  0  0  0  0  0
   58.4305   27.5642   46.1705 H   0  0  0  0  0  0  0  0  0  0  0  0
   57.1293   28.1897   47.2318 H   0  0  0  0  0  0  0  0  0  0  0  0
   59.5990   30.5558   45.9325 H   0  0  0  0  0  0  0  0  0  0  0  0
   59.0477   32.3790   44.3218 H   0  0  0  0  0  0  0  0  0  0  0  0
   56.8472   32.3866   43.1437 H   0  0  0  0  0  0  0  0  0  0  0  0
   55.1999   30.5595   43.5628 H   0  0  0  0  0  0  0  0  0  0  0  0
   61.3585   28.9728   50.8235 H   0  0  0  0  0  0  0  0  0  0  0  0
   52.0559   30.5869   54.0178 H   0  0  0  0  0  0  0  0  0  0  0  0
   51.8780   32.8680   49.2290 H   0  0  0  0  0  0  0  0  0  0  0  0
   53.8369   31.2330   50.1369 H   0  0  0  0  0  0  0  0  0  0  0  0
  1  2  2  0
  2  3  1  0
  3  4  1  0
  4  5  1  0
  5  6  1  0
  6  7  2  0
  7  8  1  0
  8  9  1  0
  9 10  2  0
 10 11  1  0
 11 12  2  0
 12 13  1  0
 13 14  2  0
  4 15  1  0
 15 16  2  0
 16 17  1  0
 17 18  1  0
 18 19  2  0
 18 20  1  0
 20 21  1  0
 21 22  1  0
 22 23  2  0
 23 24  1  0
 24 25  2  0
 25 26  1  0
 26 27  2  0
 27 28  1  0
 17 29  2  0
 29 30  1  0
  2 31  1  0
 31 32  2  0
 32 33  1  0
 33 34  1  0
 34 35  1  0
 34 36  2  0
 14  6  1  0
 30 15  1  0
 36 31  1  0
 14  9  1  0
 27 22  1  0
  4 37  1  1
  5 38  1  0
  5 39  1  0
  7 40  1  0
  8 41  1  0
 10 42  1  0
 11 43  1  0
 12 44  1  0
 13 45  1  0
 21 46  1  0
 21 47  1  0
 23 48  1  0
 24 49  1  0
 25 50  1  0
 26 51  1  0
 29 52  1  0
 32 53  1  0
 35 54  1  0
 36 55  1  0
M  CHG  4   3  -1  20  -1  28  -1  33  -1
M  END
>  <UniqueID>  (74) 
70

>  <SMILES>  (74) 
O=C([N-][C@H](Cc1c[nH]c2ccccc12)c1nc(C(=O)[N-]Cc2ccccc2[O-])cs1)c1c[n-]c(O)c1

>  <Energy>  (74) 
145.47465902023413

>  <Genealogy>  (74) 
O=C([N-]C(Cc1c[nH]c2ccccc12)c1nc(C(=O)[N-]Cc2ccccc2[O-])cs1)c1c[n-]c(O)c1 (protonated)
O=C([N-][C@H](Cc1c[nH]c2ccccc12)c1nc(C(=O)[N-]Cc2ccccc2[O-])cs1)c1c[n-]c(O)c1 (chirality)
O=C([N-][C@H](Cc1c[nH]c2ccccc12)c1nc(C(=O)[N-]Cc2ccccc2[O-])cs1)c1c[n-]c(O)c1 (3D coordinates assigned)
O=C([N-][C@H](Cc1c[nH]c2ccccc12)c1nc(C(=O)[N-]Cc2ccccc2[O-])cs1)c1c[n-]c(O)c1 (optimized conformer: 145.47465902023413 kcal/mol)

>  <smiles>  (74) 
O=C(NC(Cc1c[nH]c2ccccc12)c1nc(C(=O)NCc2ccccc2O)cs1)c1c[nH]c(O)c1

>  <score_type>  (74) 
oracle

>  <origin>  (74) 
adg

>  <m_score__min__energy>  (74) 
-17.809999999999999

>  <m_primary>  (74) 
energy

$$$$
74:0
     RDKit          3D

 48 50  0  0  0  0  0  0  0  0999 V2000
   57.0280   31.0450   42.5010 C   0  0  0  0  0  0  0  0  0  0  0  0
   56.2740   29.7120   42.5140 C   0  0  1  0  0  0  0  0  0  0  0  0
   57.1800   28.6640   42.7410 O   0  0  0  0  0  0  0  0  0  0  0  0
   55.1960   29.7160   43.6100 C   0  0  0  0  0  0  0  0  0  0  0  0
   55.7640   29.3320   44.9030 N   0  0  0  0  0  0  0  0  0  0  0  0
   56.9540   29.6440   45.3210 C   0  0  0  0  0  0  0  0  0  0  0  0
   57.3270   30.9460   45.4710 N   0  0  0  0  0  0  0  0  0  0  0  0
   58.5640   31.2820   45.9240 C   0  0  0  0  0  0  0  0  0  0  0  0
   58.9280   32.7120   46.0500 C   0  0  0  0  0  0  0  0  0  0  0  0
   58.8670   33.5200   44.9040 C   0  0  0  0  0  0  0  0  0  0  0  0
   59.2810   34.8510   44.9570 C   0  0  0  0  0  0  0  0  0  0  0  0
   59.7500   35.3710   46.1600 C   0  0  0  0  0  0  0  0  0  0  0  0
   59.7770   34.5940   47.2730 N   0  0  0  0  0  0  0  0  0  0  0  0
   59.3710   33.2940   47.2670 C   0  0  0  0  0  0  0  0  0  0  0  0
   59.3670   32.5620   48.5540 C   0  0  0  0  0  0  0  0  0  0  0  0
   60.5530   31.9890   49.0350 C   0  0  0  0  0  0  0  0  0  0  0  0
   60.5650   31.3150   50.2560 C   0  0  0  0  0  0  0  0  0  0  0  0
   59.3960   31.2110   51.0120 C   0  0  0  0  0  0  0  0  0  0  0  0
   58.1990   31.7870   50.5590 C   0  0  0  0  0  0  0  0  0  0  0  0
   57.0150   31.6680   51.3700 N   0  0  0  0  0  0  0  0  0  0  0  0
   56.7170   30.3810   52.4960 S   0  0  0  0  0  0  0  0  0  0  0  0
   54.9690   30.2100   52.7870 C   0  0  0  0  0  0  0  0  0  0  0  0
   57.2880   29.0930   51.9710 O   0  0  0  0  0  0  0  0  0  0  0  0
   57.3920   30.7070   53.7970 O   0  0  0  0  0  0  0  0  0  0  0  0
   58.1970   32.4770   49.3320 C   0  0  0  0  0  0  0  0  0  0  0  0
   59.4820   30.2680   46.2240 C   0  0  0  0  0  0  0  0  0  0  0  0
   59.0850   28.9410   46.0710 C   0  0  0  0  0  0  0  0  0  0  0  0
   57.8340   28.6540   45.6260 N   0  0  0  0  0  0  0  0  0  0  0  0
   57.2128   31.3718   43.5349 H   0  0  0  0  0  0  0  0  0  0  0  0
   57.9881   30.9181   41.9794 H   0  0  0  0  0  0  0  0  0  0  0  0
   56.4246   31.8025   41.9794 H   0  0  0  0  0  0  0  0  0  0  0  0
   55.7831   29.5698   41.5399 H   0  0  0  0  0  0  0  0  0  0  0  0
   56.9480   28.2690   43.6220 H   0  0  0  0  0  0  0  0  0  0  0  0
   54.7680   30.7261   43.6904 H   0  0  0  0  0  0  0  0  0  0  0  0
   54.4165   28.9888   43.3388 H   0  0  0  0  0  0  0  0  0  0  0  0
   58.4907   33.1014   43.9589 H   0  0  0  0  0  0  0  0  0  0  0  0
   59.2373   35.4829   44.0577 H   0  0  0  0  0  0  0  0  0  0  0  0
   60.0992   36.4129   46.2090 H   0  0  0  0  0  0  0  0  0  0  0  0
   61.4786   32.0715   48.4464 H   0  0  0  0  0  0  0  0  0  0  0  0
   61.4983   30.8641   50.6244 H   0  0  0  0  0  0  0  0  0  0  0  0
   59.4132   30.6728   51.9712 H   0  0  0  0  0  0  0  0  0  0  0  0
   56.3020   32.4300   51.3330 H   0  0  0  0  0  0  0  0  0  0  0  0
   54.7777   30.1913   53.8701 H   0  0  0  0  0  0  0  0  0  0  0  0
   54.4372   31.0604   52.3354 H   0  0  0  0  0  0  0  0  0  0  0  0
   54.6121   29.2726   52.3354 H   0  0  0  0  0  0  0  0  0  0  0  0
   57.2717   32.9546   48.9776 H   0  0  0  0  0  0  0  0  0  0  0  0
   60.4957   30.5139   46.5733 H   0  0  0  0  0  0  0  0  0  0  0  0
   59.7843   28.1263   46.3104 H   0  0  0  0  0  0  0  0  0  0  0  0
  1  2  1  0
  2  3  1  0
  2  4  1  0
  4  5  1  0
  5  6  2  3
  6  7  1  0
  7  8  2  0
  8  9  1  0
  9 10  2  0
 10 11  1  0
 11 12  2  0
 12 13  1  0
 13 14  2  0
 14 15  1  0
 15 16  2  0
 16 17  1  0
 17 18  2  0
 18 19  1  0
 19 20  1  0
 20 21  1  0
 21 22  1  0
 21 23  2  0
 21 24  2  0
 19 25  2  0
  8 26  1  0
 26 27  2  0
 27 28  1  0
 28  6  1  0
 14  9  1  0
 25 15  1  0
  1 29  1  0
  1 30  1  0
  1 31  1  0
  2 32  1  6
  3 33  1  0
  4 34  1  0
  4 35  1  0
 10 36  1  0
 11 37  1  0
 12 38  1  0
 16 39  1  0
 17 40  1  0
 18 41  1  0
 20 42  1  0
 22 43  1  0
 22 44  1  0
 22 45  1  0
 25 46  1  0
 26 47  1  0
 27 48  1  0
M  CHG  1  28  -1
M  END
>  <UniqueID>  (75) 
71

>  <SMILES>  (75) 
C[C@@H](O)CN=c1nc(-c2cccnc2-c2cccc(NS(C)(=O)=O)c2)cc[n-]1

>  <Energy>  (75) 
56.491612432995325

>  <Genealogy>  (75) 
CC(O)CN=c1nc(-c2cccnc2-c2cccc(NS(C)(=O)=O)c2)cc[n-]1 (protonated)
C[C@@H](O)CN=c1nc(-c2cccnc2-c2cccc(NS(C)(=O)=O)c2)cc[n-]1 (chirality)
C[C@@H](O)CN=c1nc(-c2cccnc2-c2cccc(NS(C)(=O)=O)c2)cc[n-]1 (3D coordinates assigned)
C[C@@H](O)CN=c1nc(-c2cccnc2-c2cccc(NS(C)(=O)=O)c2)cc[n-]1 (optimized conformer: 56.491612432995325 kcal/mol)

>  <smiles>  (75) 
CC(O)CN=c1nc(-c2cccnc2-c2cccc(NS(C)(=O)=O)c2)cc[nH]1

>  <score_type>  (75) 
oracle

>  <origin>  (75) 
adg

>  <m_score__min__energy>  (75) 
-10.369999999999999

>  <m_primary>  (75) 
energy

$$$$
75:0
     RDKit          3D

 52 55  0  0  0  0  0  0  0  0999 V2000
   58.7620   21.6220   45.6420 N   0  0  0  0  0  0  0  0  0  0  0  0
   57.7370   22.1730   44.8040 C   0  0  0  0  0  0  0  0  0  0  0  0
   57.5360   21.6330   43.5240 C   0  0  0  0  0  0  0  0  0  0  0  0
   56.5590   22.1610   42.6770 C   0  0  0  0  0  0  0  0  0  0  0  0
   55.7760   23.2370   43.0980 C   0  0  0  0  0  0  0  0  0  0  0  0
   55.9620   23.7820   44.3710 C   0  0  0  0  0  0  0  0  0  0  0  0
   56.9310   23.2510   45.2340 C   0  0  0  0  0  0  0  0  0  0  0  0
   57.0910   23.9590   46.8810 S   0  0  0  0  0  0  0  0  0  0  0  0
   58.0190   25.3710   46.2800 C   0  0  0  0  0  0  0  0  0  0  0  0
   59.3930   25.4630   46.5320 C   0  0  0  0  0  0  0  0  0  0  0  0
   60.1260   26.5420   46.0320 C   0  0  0  0  0  0  0  0  0  0  0  0
   59.4900   27.5290   45.2730 C   0  0  0  0  0  0  0  0  0  0  0  0
   58.1120   27.4390   45.0090 C   0  0  0  0  0  0  0  0  0  0  0  0
   57.4340   28.4290   44.2230 N   0  0  0  0  0  0  0  0  0  0  0  0
   56.7160   29.5530   44.7500 C   0  0  0  0  0  0  0  0  0  0  0  0
   55.4680   29.4630   44.8900 O   0  0  0  0  0  0  0  0  0  0  0  0
   57.3980   30.8220   45.0890 C   0  0  0  0  0  0  0  0  0  0  0  0
   57.1390   31.9850   44.3450 C   0  0  0  0  0  0  0  0  0  0  0  0
   57.7550   33.1930   44.6830 C   0  0  0  0  0  0  0  0  0  0  0  0
   58.6550   33.2540   45.7580 C   0  0  0  0  0  0  0  0  0  0  0  0
   59.2630   34.5680   46.1660 C   0  0  0  0  0  0  0  0  0  0  0  0
   60.2100   34.3650   47.2610 N   0  0  0  0  0  0  0  0  0  0  0  0
   59.8340   34.3100   48.6630 C   0  0  0  0  0  0  0  0  0  0  0  0
   61.1240   33.9710   49.4350 C   0  0  0  0  0  0  0  0  0  0  0  0
   62.1810   33.5660   48.3960 C   0  0  0  0  0  0  0  0  0  0  0  0
   61.5410   33.9080   47.1110 C   0  0  0  0  0  0  0  0  0  0  0  0
   62.1090   33.7940   45.9930 O   0  0  0  0  0  0  0  0  0  0  0  0
   58.9310   32.0900   46.4910 C   0  0  0  0  0  0  0  0  0  0  0  0
   58.3130   30.8830   46.1550 C   0  0  0  0  0  0  0  0  0  0  0  0
   57.3770   26.3710   45.5390 C   0  0  0  0  0  0  0  0  0  0  0  0
   59.0320   20.6160   45.5970 H   0  0  0  0  0  0  0  0  0  0  0  0
   59.2430   22.2190   46.3510 H   0  0  0  0  0  0  0  0  0  0  0  0
   58.1527   20.7874   43.1854 H   0  0  0  0  0  0  0  0  0  0  0  0
   56.4065   21.7284   41.6772 H   0  0  0  0  0  0  0  0  0  0  0  0
   55.0118   23.6563   42.4270 H   0  0  0  0  0  0  0  0  0  0  0  0
   55.3450   24.6320   44.6978 H   0  0  0  0  0  0  0  0  0  0  0  0
   59.8961   24.6846   47.1245 H   0  0  0  0  0  0  0  0  0  0  0  0
   61.2045   26.6151   46.2356 H   0  0  0  0  0  0  0  0  0  0  0  0
   60.0693   28.3782   44.8814 H   0  0  0  0  0  0  0  0  0  0  0  0
   56.4469   31.9446   43.4909 H   0  0  0  0  0  0  0  0  0  0  0  0
   57.5332   34.1011   44.1032 H   0  0  0  0  0  0  0  0  0  0  0  0
   59.7898   35.0077   45.3062 H   0  0  0  0  0  0  0  0  0  0  0  0
   58.4641   35.2455   46.5019 H   0  0  0  0  0  0  0  0  0  0  0  0
   59.4366   35.2819   48.9907 H   0  0  0  0  0  0  0  0  0  0  0  0
   59.0489   33.5603   48.8408 H   0  0  0  0  0  0  0  0  0  0  0  0
   61.4677   34.8503   49.9995 H   0  0  0  0  0  0  0  0  0  0  0  0
   60.9477   33.1553   50.1516 H   0  0  0  0  0  0  0  0  0  0  0  0
   63.1112   34.1360   48.5371 H   0  0  0  0  0  0  0  0  0  0  0  0
   62.4695   32.5068   48.4652 H   0  0  0  0  0  0  0  0  0  0  0  0
   59.6369   32.1279   47.3338 H   0  0  0  0  0  0  0  0  0  0  0  0
   58.5439   29.9733   46.7287 H   0  0  0  0  0  0  0  0  0  0  0  0
   56.2910   26.3175   45.3725 H   0  0  0  0  0  0  0  0  0  0  0  0
  1  2  1  0
  2  3  2  0
  3  4  1  0
  4  5  2  0
  5  6  1  0
  6  7  2  0
  7  8  1  0
  8  9  1  0
  9 10  2  0
 10 11  1  0
 11 12  2  0
 12 13  1  0
 13 14  1  0
 14 15  1  0
 15 16  2  0
 15 17  1  0
 17 18  2  0
 18 19  1  0
 19 20  2  0
 20 21  1  0
 21 22  1  0
 22 23  1  0
 23 24  1  0
 24 25  1  0
 25 26  1  0
 26 27  2  0
 20 28  1  0
 28 29  2  0
 13 30  2  0
  7  2  1  0
 30  9  1  0
 29 17  1  0
 26 22  1  0
  1 31  1  0
  1 32  1  0
  3 33  1  0
  4 34  1  0
  5 35  1  0
  6 36  1  0
 10 37  1  0
 11 38  1  0
 12 39  1  0
 18 40  1  0
 19 41  1  0
 21 42  1  0
 21 43  1  0
 23 44  1  0
 23 45  1  0
 24 46  1  0
 24 47  1  0
 25 48  1  0
 25 49  1  0
 28 50  1  0
 29 51  1  0
 30 52  1  0
M  CHG  1  14  -1
M  END
>  <UniqueID>  (76) 
72

>  <SMILES>  (76) 
Nc1ccccc1Sc1cccc([N-]C(=O)c2ccc(CN3CCCC3=O)cc2)c1

>  <Energy>  (76) 
61.26921487984581

>  <Genealogy>  (76) 
Nc1ccccc1Sc1cccc([N-]C(=O)c2ccc(CN3CCCC3=O)cc2)c1 (protonated)
Nc1ccccc1Sc1cccc([N-]C(=O)c2ccc(CN3CCCC3=O)cc2)c1 (3D coordinates assigned)
Nc1ccccc1Sc1cccc([N-]C(=O)c2ccc(CN3CCCC3=O)cc2)c1 (nonaromatic ring conformer: 61.26921487984581 kcal/mol)

>  <smiles>  (76) 
Nc1ccccc1Sc1cccc(NC(=O)c2ccc(CN3CCCC3=O)cc2)c1

>  <score_type>  (76) 
oracle

>  <origin>  (76) 
adg

>  <m_score__min__energy>  (76) 
-11.49

>  <m_primary>  (76) 
energy

$$$$
76:0
     RDKit          3D

 44 46  0  0  0  0  0  0  0  0999 V2000
   57.7681   34.7563   45.2141 H   0  0  0  0  0  0  0  0  0  0  0  0
   57.9540   33.7040   45.4750 C   0  0  0  0  0  0  0  0  0  0  0  0
   59.0100   33.3760   46.3570 C   0  0  0  0  0  0  0  0  0  0  0  0
   60.0430   34.6330   47.0290 S   0  0  0  0  0  0  0  0  0  0  0  0
   61.4740   34.1740   47.0000 O   0  0  0  0  0  0  0  0  0  0  0  0
   59.6570   34.9200   48.4530 O   0  0  0  0  0  0  0  0  0  0  0  0
   59.8790   36.0800   46.0960 N   0  0  0  0  0  0  0  0  0  0  0  0
   59.5820   36.8360   46.7530 H   0  0  0  0  0  0  0  0  0  0  0  0
   59.0870   35.9290   45.4320 H   0  0  0  0  0  0  0  0  0  0  0  0
   59.2530   32.0310   46.6920 C   0  0  0  0  0  0  0  0  0  0  0  0
   60.0702   31.7586   47.3761 H   0  0  0  0  0  0  0  0  0  0  0  0
   58.4320   31.0540   46.1350 C   0  0  0  0  0  0  0  0  0  0  0  0
   58.4990   29.3900   46.3390 S   0  0  0  0  0  0  0  0  0  0  0  0
   57.1750   29.1430   45.2990 C   0  0  0  0  0  0  0  0  0  0  0  0
   56.6480   27.9960   44.9850 N   0  0  0  0  0  0  0  0  0  0  0  0
   56.3430   26.9000   45.8610 C   0  0  0  0  0  0  0  0  0  0  0  0
   55.1570   26.5220   46.0540 O   0  0  0  0  0  0  0  0  0  0  0  0
   57.4630   26.1760   46.5410 C   0  0  0  0  0  0  0  0  0  0  0  0
   58.4108   26.4231   46.0404 H   0  0  0  0  0  0  0  0  0  0  0  0
   57.4997   26.4866   47.5956 H   0  0  0  0  0  0  0  0  0  0  0  0
   57.2380   24.6590   46.4770 C   0  0  0  0  0  0  0  0  0  0  0  0
   57.1688   24.2661   47.5021 H   0  0  0  0  0  0  0  0  0  0  0  0
   56.3082   24.4753   45.9186 H   0  0  0  0  0  0  0  0  0  0  0  0
   58.3840   23.9400   45.7450 C   0  0  0  0  0  0  0  0  0  0  0  0
   59.2458   24.6207   45.6818 H   0  0  0  0  0  0  0  0  0  0  0  0
   58.6310   23.0322   46.3150 H   0  0  0  0  0  0  0  0  0  0  0  0
   58.0020   23.5260   44.3750 N   0  0  0  0  0  0  0  0  0  0  0  0
   58.2670   22.0830   44.1500 C   0  0  0  0  0  0  0  0  0  0  0  0
   58.7049   21.9536   43.1493 H   0  0  0  0  0  0  0  0  0  0  0  0
   58.9579   21.7371   44.9329 H   0  0  0  0  0  0  0  0  0  0  0  0
   56.9810   21.2420   44.2430 C   0  0  0  0  0  0  0  0  0  0  0  0
   57.2418   20.1871   44.0721 H   0  0  0  0  0  0  0  0  0  0  0  0
   56.5563   21.4100   45.2437 H   0  0  0  0  0  0  0  0  0  0  0  0
   55.9890   21.6180   43.3000 O   0  0  0  0  0  0  0  0  0  0  0  0
   56.0230   22.9960   42.9540 C   0  0  0  0  0  0  0  0  0  0  0  0
   56.6401   23.1117   42.0508 H   0  0  0  0  0  0  0  0  0  0  0  0
   54.9815   23.3124   42.7955 H   0  0  0  0  0  0  0  0  0  0  0  0
   56.6030   23.8990   44.0570 C   0  0  0  0  0  0  0  0  0  0  0  0
   56.5794   24.9440   43.7144 H   0  0  0  0  0  0  0  0  0  0  0  0
   55.9945   23.7744   44.9648 H   0  0  0  0  0  0  0  0  0  0  0  0
   56.6880   30.3070   44.8050 N   0  0  0  0  0  0  0  0  0  0  0  0
   57.3930   31.3680   45.2720 C   0  0  0  0  0  0  0  0  0  0  0  0
   57.1400   32.6960   44.9290 C   0  0  0  0  0  0  0  0  0  0  0  0
   56.3182   32.9502   44.2435 H   0  0  0  0  0  0  0  0  0  0  0  0
  1  2  1  0
  2  3  2  0
  3  4  1  0
  4  5  2  0
  4  6  2  0
  4  7  1  0
  7  8  1  0
  7  9  1  0
  3 10  1  0
 10 11  1  0
 10 12  2  0
 12 13  1  0
 13 14  1  0
 14 15  2  0
 15 16  1  0
 16 17  2  0
 16 18  1  0
 18 19  1  0
 18 20  1  0
 18 21  1  0
 21 22  1  0
 21 23  1  0
 21 24  1  0
 24 25  1  0
 24 26  1  0
 24 27  1  0
 27 28  1  0
 28 29  1  0
 28 30  1  0
 28 31  1  0
 31 32  1  0
 31 33  1  0
 31 34  1  0
 34 35  1  0
 35 36  1  0
 35 37  1  0
 35 38  1  0
 38 39  1  0
 38 40  1  0
 14 41  1  0
 41 42  1  0
 42 43  2  0
 43 44  1  0
 43  2  1  0
 42 12  1  0
 38 27  1  0
M  CHG  1  41  -1
M  END
>  <UniqueID>  (77) 
73

>  <SMILES>  (77) 
NS(=O)(=O)c1ccc2[n-]/c(=N/C(=O)CCCN3CCOCC3)sc2c1

>  <Energy>  (77) 
91.58709411658621

>  <Genealogy>  (77) 
NS(=O)(=O)c1ccc2[n-]c(=NC(=O)CCCN3CCOCC3)sc2c1 (protonated)
NS(=O)(=O)c1ccc2[n-]/c(=N/C(=O)CCCN3CCOCC3)sc2c1 (cis-trans isomerization)
NS(=O)(=O)c1ccc2[n-]/c(=N/C(=O)CCCN3CCOCC3)sc2c1 (3D coordinates assigned)
NS(=O)(=O)c1ccc2[n-]/c(=N/C(=O)CCCN3CCOCC3)sc2c1 (nonaromatic ring conformer: 91.58709411658621 kcal/mol)

>  <smiles>  (77) 
NS(=O)(=O)c1ccc2[nH]c(=NC(=O)CCCN3CCOCC3)sc2c1

>  <score_type>  (77) 
oracle

>  <origin>  (77) 
adg

>  <m_score__min__energy>  (77) 
-10.869999999999999

>  <m_primary>  (77) 
energy

$$$$
77:0
     RDKit          3D

 49 51  0  0  0  0  0  0  0  0999 V2000
   56.1300   22.6020   48.2020 C   0  0  0  0  0  0  0  0  0  0  0  0
   54.8770   21.9580   47.6100 C   0  0  0  0  0  0  0  0  0  0  0  0
   53.8890   23.0010   47.0690 C   0  0  0  0  0  0  0  0  0  0  0  0
   53.3430   22.6060   45.7300 C   0  0  0  0  0  0  0  0  0  0  0  0
   52.1250   22.3000   45.6350 O   0  0  0  0  0  0  0  0  0  0  0  0
   54.2000   22.6860   44.5760 N   0  0  0  0  0  0  0  0  0  0  0  0
   55.4980   22.6010   44.4660 C   0  0  0  0  0  0  0  0  0  0  0  0
   56.3910   23.5870   44.9430 C   0  0  0  0  0  0  0  0  0  0  0  0
   57.7770   23.4130   44.7770 C   0  0  0  0  0  0  0  0  0  0  0  0
   58.7060   24.3520   45.2540 O   0  0  0  0  0  0  0  0  0  0  0  0
   58.5180   25.7410   45.2730 C   0  0  0  0  0  0  0  0  0  0  0  0
   58.6480   26.4900   46.4540 C   0  0  0  0  0  0  0  0  0  0  0  0
   58.4570   27.8750   46.4360 C   0  0  0  0  0  0  0  0  0  0  0  0
   58.1440   28.5350   45.2340 C   0  0  0  0  0  0  0  0  0  0  0  0
   57.9400   29.9590   45.1800 N   0  0  0  0  0  0  0  0  0  0  0  0
   56.6970   30.5930   44.8400 C   0  0  0  0  0  0  0  0  0  0  0  0
   55.6560   29.9080   44.6480 O   0  0  0  0  0  0  0  0  0  0  0  0
   56.6610   32.0200   44.7040 N   0  0  0  0  0  0  0  0  0  0  0  0
   57.5650   32.9660   45.2960 C   0  0  0  0  0  0  0  0  0  0  0  0
   57.6120   33.0600   46.6940 C   0  0  0  0  0  0  0  0  0  0  0  0
   58.4640   33.9800   47.3140 C   0  0  0  0  0  0  0  0  0  0  0  0
   59.2670   34.8220   46.5400 C   0  0  0  0  0  0  0  0  0  0  0  0
   60.0900   35.7160   47.1410 F   0  0  0  0  0  0  0  0  0  0  0  0
   59.2090   34.7530   45.1450 C   0  0  0  0  0  0  0  0  0  0  0  0
   58.3550   33.8370   44.5210 C   0  0  0  0  0  0  0  0  0  0  0  0
   57.9610   27.7750   44.0710 C   0  0  0  0  0  0  0  0  0  0  0  0
   58.1470   26.3880   44.0910 C   0  0  0  0  0  0  0  0  0  0  0  0
   58.2510   22.2560   44.1600 C   0  0  0  0  0  0  0  0  0  0  0  0
   57.3460   21.3070   43.6880 C   0  0  0  0  0  0  0  0  0  0  0  0
   56.0100   21.5030   43.8470 N   0  0  0  0  0  0  0  0  0  0  0  0
   56.0733   22.5729   49.3002 H   0  0  0  0  0  0  0  0  0  0  0  0
   57.0199   22.0495   47.8660 H   0  0  0  0  0  0  0  0  0  0  0  0
   56.1988   23.6472   47.8660 H   0  0  0  0  0  0  0  0  0  0  0  0
   55.1760   21.2928   46.7865 H   0  0  0  0  0  0  0  0  0  0  0  0
   54.3728   21.3999   48.4127 H   0  0  0  0  0  0  0  0  0  0  0  0
   53.0544   23.1029   47.7783 H   0  0  0  0  0  0  0  0  0  0  0  0
   54.4262   23.9538   46.9525 H   0  0  0  0  0  0  0  0  0  0  0  0
   56.0036   24.4874   45.4423 H   0  0  0  0  0  0  0  0  0  0  0  0
   58.9013   25.9846   47.3976 H   0  0  0  0  0  0  0  0  0  0  0  0
   58.5521   28.4520   47.3677 H   0  0  0  0  0  0  0  0  0  0  0  0
   58.7160   30.5790   45.5020 H   0  0  0  0  0  0  0  0  0  0  0  0
   56.9747   32.4060   47.3074 H   0  0  0  0  0  0  0  0  0  0  0  0
   58.5019   34.0407   48.4117 H   0  0  0  0  0  0  0  0  0  0  0  0
   59.8364   35.4206   44.5362 H   0  0  0  0  0  0  0  0  0  0  0  0
   58.3006   33.7971   43.4231 H   0  0  0  0  0  0  0  0  0  0  0  0
   57.6687   28.2727   43.1346 H   0  0  0  0  0  0  0  0  0  0  0  0
   58.0003   25.8035   43.1708 H   0  0  0  0  0  0  0  0  0  0  0  0
   59.3329   22.0932   44.0464 H   0  0  0  0  0  0  0  0  0  0  0  0
   57.7127   20.3991   43.1867 H   0  0  0  0  0  0  0  0  0  0  0  0
  1  2  1  0
  2  3  1  0
  3  4  1  0
  4  5  2  0
  4  6  1  0
  6  7  2  3
  7  8  1  0
  8  9  2  0
  9 10  1  0
 10 11  1  0
 11 12  2  0
 12 13  1  0
 13 14  2  0
 14 15  1  0
 15 16  1  0
 16 17  2  0
 16 18  1  0
 18 19  1  0
 19 20  2  0
 20 21  1  0
 21 22  2  0
 22 23  1  0
 22 24  1  0
 24 25  2  0
 14 26  1  0
 26 27  2  0
  9 28  1  0
 28 29  2  0
 29 30  1  0
 30  7  1  0
 27 11  1  0
 25 19  1  0
  1 31  1  0
  1 32  1  0
  1 33  1  0
  2 34  1  0
  2 35  1  0
  3 36  1  0
  3 37  1  0
  8 38  1  0
 12 39  1  0
 13 40  1  0
 15 41  1  0
 20 42  1  0
 21 43  1  0
 24 44  1  0
 25 45  1  0
 26 46  1  0
 27 47  1  0
 28 48  1  0
 29 49  1  0
M  CHG  2  18  -1  30  -1
M  END
>  <UniqueID>  (78) 
74

>  <SMILES>  (78) 
CCCC(=O)N=c1cc(Oc2ccc(NC(=O)[N-]c3ccc(F)cc3)cc2)cc[n-]1

>  <Energy>  (78) 
67.47823720413027

>  <Genealogy>  (78) 
CCCC(=O)N=c1cc(Oc2ccc(NC(=O)[N-]c3ccc(F)cc3)cc2)cc[n-]1 (protonated)
CCCC(=O)N=c1cc(Oc2ccc(NC(=O)[N-]c3ccc(F)cc3)cc2)cc[n-]1 (3D coordinates assigned)
CCCC(=O)N=c1cc(Oc2ccc(NC(=O)[N-]c3ccc(F)cc3)cc2)cc[n-]1 (optimized conformer: 67.47823720413027 kcal/mol)

>  <smiles>  (78) 
CCCC(=O)N=c1cc(Oc2ccc(NC(=O)Nc3ccc(F)cc3)cc2)cc[nH]1

>  <score_type>  (78) 
oracle

>  <origin>  (78) 
adg

>  <m_score__min__energy>  (78) 
-11.17

>  <m_primary>  (78) 
energy

$$$$
78:0
     RDKit          3D

 27 28  0  0  0  0  0  0  0  0999 V2000
   60.3616   29.5232   44.2105 H   0  0  0  0  0  0  0  0  0  0  0  0
   60.0210   29.3030   45.2330 C   0  0  0  0  0  0  0  0  0  0  0  0
   60.7480   29.6740   46.2440 N   0  0  0  0  0  0  0  0  0  0  0  0
   60.7920   31.0130   46.7530 C   0  0  0  0  0  0  0  0  0  0  0  0
   61.8810   31.5050   47.1580 O   0  0  0  0  0  0  0  0  0  0  0  0
   59.5640   31.8290   46.8110 C   0  0  0  0  0  0  0  0  0  0  0  0
   58.7250   32.0590   47.8930 C   0  0  0  0  0  0  0  0  0  0  0  0
   58.8710   31.5240   49.2810 C   0  0  0  0  0  0  0  0  0  0  0  0
   58.6533   32.3219   50.0063 H   0  0  0  0  0  0  0  0  0  0  0  0
   58.1671   30.6918   49.4291 H   0  0  0  0  0  0  0  0  0  0  0  0
   59.9000   31.1647   49.4291 H   0  0  0  0  0  0  0  0  0  0  0  0
   57.7390   32.8440   47.5250 O   0  0  0  0  0  0  0  0  0  0  0  0
   57.8840   33.1430   46.2550 C   0  0  0  0  0  0  0  0  0  0  0  0
   57.2046   33.7852   45.6753 H   0  0  0  0  0  0  0  0  0  0  0  0
   59.0150   32.5320   45.7560 C   0  0  0  0  0  0  0  0  0  0  0  0
   59.4013   32.5921   44.7278 H   0  0  0  0  0  0  0  0  0  0  0  0
   58.7440   28.5900   45.4370 C   0  0  0  0  0  0  0  0  0  0  0  0
   58.7030   27.3000   46.0000 C   0  0  0  0  0  0  0  0  0  0  0  0
   59.6379   26.8024   46.2971 H   0  0  0  0  0  0  0  0  0  0  0  0
   57.4800   26.6490   46.1830 C   0  0  0  0  0  0  0  0  0  0  0  0
   57.4556   25.6420   46.6249 H   0  0  0  0  0  0  0  0  0  0  0  0
   56.2870   27.2740   45.8060 C   0  0  0  0  0  0  0  0  0  0  0  0
   55.0740   26.6200   45.9910 O   0  0  0  0  0  0  0  0  0  0  0  0
   56.3180   28.5560   45.2460 C   0  0  0  0  0  0  0  0  0  0  0  0
   55.1350   29.1820   44.8710 O   0  0  0  0  0  0  0  0  0  0  0  0
   57.5410   29.2110   45.0630 C   0  0  0  0  0  0  0  0  0  0  0  0
   57.5603   30.2191   44.6232 H   0  0  0  0  0  0  0  0  0  0  0  0
  1  2  1  0
  2  3  2  0
  3  4  1  0
  4  5  2  0
  4  6  1  0
  6  7  2  0
  7  8  1  0
  8  9  1  0
  8 10  1  0
  8 11  1  0
  7 12  1  0
 12 13  1  0
 13 14  1  0
 13 15  2  0
 15 16  1  0
  2 17  1  0
 17 18  2  0
 18 19  1  0
 18 20  1  0
 20 21  1  0
 20 22  2  0
 22 23  1  0
 22 24  1  0
 24 25  1  0
 24 26  2  0
 26 27  1  0
 15  6  1  0
 26 17  1  0
M  CHG  2  23  -1  25  -1
M  END
>  <UniqueID>  (79) 
75

>  <SMILES>  (79) 
Cc1occc1C(=O)/N=C/c1ccc([O-])c([O-])c1

>  <Energy>  (79) 
52.57466980525655

>  <Genealogy>  (79) 
Cc1occc1C(=O)N=Cc1ccc([O-])c([O-])c1 (protonated)
Cc1occc1C(=O)/N=C/c1ccc([O-])c([O-])c1 (cis-trans isomerization)
Cc1occc1C(=O)/N=C/c1ccc([O-])c([O-])c1 (3D coordinates assigned)
Cc1occc1C(=O)/N=C/c1ccc([O-])c([O-])c1 (optimized conformer: 52.57466980525655 kcal/mol)

>  <smiles>  (79) 
Cc1occc1C(=O)N=Cc1ccc(O)c(O)c1

>  <score_type>  (79) 
oracle

>  <origin>  (79) 
adg

>  <m_score__min__energy>  (79) 
-14.390000000000001

>  <m_primary>  (79) 
energy

$$$$
79:0
     RDKit          3D

 51 53  0  0  0  0  0  0  0  0999 V2000
   57.6520   32.0010   43.5350 C   0  0  0  0  0  0  0  0  0  0  0  0
   58.2160   31.6210   44.8340 N   0  0  0  0  0  0  0  0  0  0  0  0
   58.5470   30.2390   45.0990 C   0  0  0  0  0  0  0  0  0  0  0  0
   59.5870   29.7360   44.5890 O   0  0  0  0  0  0  0  0  0  0  0  0
   57.7150   29.3780   46.0140 C   0  0  0  0  0  0  0  0  0  0  0  0
   57.0870   28.1920   45.2690 C   0  0  0  0  0  0  0  0  0  0  0  0
   57.2120   26.9390   46.0430 N   0  0  0  0  0  0  0  0  0  0  0  0
   56.0750   26.2430   46.3730 C   0  0  0  0  0  0  0  0  0  0  0  0
   54.8190   26.7140   46.0030 O   0  0  0  0  0  0  0  0  0  0  0  0
   56.1560   25.0480   47.0840 C   0  0  0  0  0  0  0  0  0  0  0  0
   57.4080   24.5710   47.4500 C   0  0  0  0  0  0  0  0  0  0  0  0
   57.5150   23.4960   48.0920 O   0  0  0  0  0  0  0  0  0  0  0  0
   58.5160   25.2710   47.1120 N   0  0  0  0  0  0  0  0  0  0  0  0
   58.4390   26.4380   46.4210 C   0  0  0  0  0  0  0  0  0  0  0  0
   59.9890   27.2600   46.0220 S   0  0  0  0  0  0  0  0  0  0  0  0
   60.3590   27.6890   47.7550 C   0  0  0  0  0  0  0  0  0  0  0  0
   60.2550   29.1760   47.9390 C   0  0  0  0  0  0  0  0  0  0  0  0
   59.2850   29.6470   48.5890 O   0  0  0  0  0  0  0  0  0  0  0  0
   61.1800   30.0820   47.3240 N   0  0  0  0  0  0  0  0  0  0  0  0
   61.6730   31.2890   47.9180 C   0  0  0  0  0  0  0  0  0  0  0  0
   62.3850   32.2010   47.1280 C   0  0  0  0  0  0  0  0  0  0  0  0
   62.8740   33.3850   47.6890 C   0  0  0  0  0  0  0  0  0  0  0  0
   62.6290   33.6760   49.0330 C   0  0  0  0  0  0  0  0  0  0  0  0
   61.8900   32.7860   49.8180 C   0  0  0  0  0  0  0  0  0  0  0  0
   61.4070   31.5980   49.2620 C   0  0  0  0  0  0  0  0  0  0  0  0
   58.6090   32.6660   45.7340 C   0  0  0  0  0  0  0  0  0  0  0  0
   59.1570   33.8570   45.2350 C   0  0  0  0  0  0  0  0  0  0  0  0
   59.5430   34.8740   46.1140 C   0  0  0  0  0  0  0  0  0  0  0  0
   59.3830   34.7060   47.4930 C   0  0  0  0  0  0  0  0  0  0  0  0
   58.8460   33.5170   47.9950 C   0  0  0  0  0  0  0  0  0  0  0  0
   58.4670   32.4960   47.1200 C   0  0  0  0  0  0  0  0  0  0  0  0
   56.7490   32.6094   43.6912 H   0  0  0  0  0  0  0  0  0  0  0  0
   58.3938   32.5842   42.9696 H   0  0  0  0  0  0  0  0  0  0  0  0
   57.3901   31.0945   42.9696 H   0  0  0  0  0  0  0  0  0  0  0  0
   58.3564   28.9923   46.8201 H   0  0  0  0  0  0  0  0  0  0  0  0
   56.9003   29.9972   46.4176 H   0  0  0  0  0  0  0  0  0  0  0  0
   56.0208   28.4015   45.0977 H   0  0  0  0  0  0  0  0  0  0  0  0
   57.6188   28.0629   44.3148 H   0  0  0  0  0  0  0  0  0  0  0  0
   55.2450   24.4922   47.3508 H   0  0  0  0  0  0  0  0  0  0  0  0
   59.6393   27.1868   48.4182 H   0  0  0  0  0  0  0  0  0  0  0  0
   61.3792   27.3606   48.0029 H   0  0  0  0  0  0  0  0  0  0  0  0
   62.5599   31.9852   46.0636 H   0  0  0  0  0  0  0  0  0  0  0  0
   63.4522   34.0879   47.0712 H   0  0  0  0  0  0  0  0  0  0  0  0
   63.0177   34.6058   49.4739 H   0  0  0  0  0  0  0  0  0  0  0  0
   61.6886   33.0207   50.8736 H   0  0  0  0  0  0  0  0  0  0  0  0
   60.8173   30.9036   49.8784 H   0  0  0  0  0  0  0  0  0  0  0  0
   59.2833   33.9912   44.1506 H   0  0  0  0  0  0  0  0  0  0  0  0
   59.9728   35.8069   45.7203 H   0  0  0  0  0  0  0  0  0  0  0  0
   59.6798   35.5097   48.1829 H   0  0  0  0  0  0  0  0  0  0  0  0
   58.7217   33.3852   49.0800 H   0  0  0  0  0  0  0  0  0  0  0  0
   58.0563   31.5565   47.5183 H   0  0  0  0  0  0  0  0  0  0  0  0
  1  2  1  0
  2  3  1  0
  3  4  2  0
  3  5  1  0
  5  6  1  0
  6  7  1  0
  7  8  1  0
  8  9  1  0
  8 10  2  0
 10 11  1  0
 11 12  2  0
 11 13  1  0
 13 14  2  0
 14 15  1  0
 15 16  1  0
 16 17  1  0
 17 18  2  0
 17 19  1  0
 19 20  1  0
 20 21  2  0
 21 22  1  0
 22 23  2  0
 23 24  1  0
 24 25  2  0
  2 26  1  0
 26 27  2  0
 27 28  1  0
 28 29  2  0
 29 30  1  0
 30 31  2  0
 14  7  1  0
 25 20  1  0
 31 26  1  0
  1 32  1  0
  1 33  1  0
  1 34  1  0
  5 35  1  0
  5 36  1  0
  6 37  1  0
  6 38  1  0
 10 39  1  0
 16 40  1  0
 16 41  1  0
 21 42  1  0
 22 43  1  0
 23 44  1  0
 24 45  1  0
 25 46  1  0
 27 47  1  0
 28 48  1  0
 29 49  1  0
 30 50  1  0
 31 51  1  0
M  CHG  2   9  -1  19  -1
M  END
>  <UniqueID>  (80) 
76

>  <SMILES>  (80) 
CN(C(=O)CCn1c([O-])cc(=O)nc1SCC(=O)[N-]c1ccccc1)c1ccccc1

>  <Energy>  (80) 
59.699444402775356

>  <Genealogy>  (80) 
CN(C(=O)CCn1c([O-])cc(=O)nc1SCC(=O)[N-]c1ccccc1)c1ccccc1 (protonated)
CN(C(=O)CCn1c([O-])cc(=O)nc1SCC(=O)[N-]c1ccccc1)c1ccccc1 (3D coordinates assigned)
CN(C(=O)CCn1c([O-])cc(=O)nc1SCC(=O)[N-]c1ccccc1)c1ccccc1 (optimized conformer: 59.699444402775356 kcal/mol)

>  <smiles>  (80) 
CN(C(=O)CCn1c(O)cc(=O)nc1SCC(=O)Nc1ccccc1)c1ccccc1

>  <score_type>  (80) 
oracle

>  <origin>  (80) 
adg

>  <m_score__min__energy>  (80) 
-13.789999999999999

>  <m_primary>  (80) 
energy

$$$$
80:0
     RDKit          3D

 58 61  0  0  0  0  0  0  0  0999 V2000
   60.6180   26.8940   47.3490 C   0  0  0  0  0  0  0  0  0  0  0  0
   59.4990   27.6250   46.6560 C   0  0  0  0  0  0  0  0  0  0  0  0
   58.5570   26.8990   45.9100 C   0  0  0  0  0  0  0  0  0  0  0  0
   57.4940   27.5510   45.2790 C   0  0  0  0  0  0  0  0  0  0  0  0
   57.3590   28.9440   45.3720 C   0  0  0  0  0  0  0  0  0  0  0  0
   56.2050   29.6370   44.7620 C   0  0  0  0  0  0  0  0  0  0  0  0
   55.1670   28.9740   44.4970 O   0  0  0  0  0  0  0  0  0  0  0  0
   56.2150   31.0390   44.4720 N   0  0  0  0  0  0  0  0  0  0  0  0
   57.2840   31.7470   43.7770 C   0  0  0  0  0  0  0  0  0  0  0  0
   57.9210   32.7230   44.7230 C   0  0  0  0  0  0  0  0  0  0  0  0
   57.5120   32.7850   46.0640 C   0  0  0  0  0  0  0  0  0  0  0  0
   58.0820   33.7210   46.9350 C   0  0  0  0  0  0  0  0  0  0  0  0
   59.0530   34.6090   46.4680 C   0  0  0  0  0  0  0  0  0  0  0  0
   59.6030   35.5170   47.3120 F   0  0  0  0  0  0  0  0  0  0  0  0
   59.4500   34.5660   45.1310 C   0  0  0  0  0  0  0  0  0  0  0  0
   58.8850   33.6300   44.2590 C   0  0  0  0  0  0  0  0  0  0  0  0
   58.2850   29.6730   46.1350 C   0  0  0  0  0  0  0  0  0  0  0  0
   59.3510   29.0250   46.7800 C   0  0  0  0  0  0  0  0  0  0  0  0
   60.2800   29.8270   47.5980 C   0  0  0  0  0  0  0  0  0  0  0  0
   61.0700   30.8200   47.0010 C   0  0  0  0  0  0  0  0  0  0  0  0
   61.9400   31.5880   47.7810 C   0  0  0  0  0  0  0  0  0  0  0  0
   62.0340   31.3710   49.1660 C   0  0  0  0  0  0  0  0  0  0  0  0
   62.9100   32.2750   50.0050 C   0  0  0  0  0  0  0  0  0  0  0  0
   62.1330   33.3630   50.6290 N   0  0  0  0  0  0  0  0  0  0  0  0
   61.3600   34.1490   49.6310 C   0  0  0  0  0  0  0  0  0  0  0  0
   59.8530   33.8350   49.6620 C   0  0  0  0  0  0  0  0  0  0  0  0
   59.2650   34.0780   50.9960 N   0  0  0  0  0  0  0  0  0  0  0  0
   60.1990   33.8370   52.1140 C   0  0  0  0  0  0  0  0  0  0  0  0
   61.3040   32.8400   51.7380 C   0  0  0  0  0  0  0  0  0  0  0  0
   61.2120   30.3980   49.7630 C   0  0  0  0  0  0  0  0  0  0  0  0
   60.3540   29.6200   48.9810 C   0  0  0  0  0  0  0  0  0  0  0  0
   60.4909   26.9770   48.4385 H   0  0  0  0  0  0  0  0  0  0  0  0
   60.5991   25.8335   47.0574 H   0  0  0  0  0  0  0  0  0  0  0  0
   61.5815   27.3374   47.0574 H   0  0  0  0  0  0  0  0  0  0  0  0
   58.6565   25.8071   45.8213 H   0  0  0  0  0  0  0  0  0  0  0  0
   56.7583   26.9679   44.7056 H   0  0  0  0  0  0  0  0  0  0  0  0
   58.0380   31.0258   43.4285 H   0  0  0  0  0  0  0  0  0  0  0  0
   56.8710   32.2851   42.9111 H   0  0  0  0  0  0  0  0  0  0  0  0
   56.7393   32.0943   46.4327 H   0  0  0  0  0  0  0  0  0  0  0  0
   57.7648   33.7569   47.9877 H   0  0  0  0  0  0  0  0  0  0  0  0
   60.2098   35.2706   44.7617 H   0  0  0  0  0  0  0  0  0  0  0  0
   59.1979   33.6050   43.2047 H   0  0  0  0  0  0  0  0  0  0  0  0
   58.1744   30.7634   46.2286 H   0  0  0  0  0  0  0  0  0  0  0  0
   61.0051   30.9951   45.9170 H   0  0  0  0  0  0  0  0  0  0  0  0
   62.5549   32.3673   47.3071 H   0  0  0  0  0  0  0  0  0  0  0  0
   63.3846   31.6767   50.7967 H   0  0  0  0  0  0  0  0  0  0  0  0
   63.6655   32.7278   49.3461 H   0  0  0  0  0  0  0  0  0  0  0  0
   61.5004   35.2195   49.8417 H   0  0  0  0  0  0  0  0  0  0  0  0
   61.7345   33.8770   48.6331 H   0  0  0  0  0  0  0  0  0  0  0  0
   59.3418   34.4737   48.9267 H   0  0  0  0  0  0  0  0  0  0  0  0
   59.7225   32.7695   49.4217 H   0  0  0  0  0  0  0  0  0  0  0  0
   58.9490   35.0760   51.0430 H   0  0  0  0  0  0  0  0  0  0  0  0
   60.6647   34.7918   52.3993 H   0  0  0  0  0  0  0  0  0  0  0  0
   59.6251   33.4080   52.9486 H   0  0  0  0  0  0  0  0  0  0  0  0
   61.9447   32.6650   52.6149 H   0  0  0  0  0  0  0  0  0  0  0  0
   60.8335   31.9007   51.4120 H   0  0  0  0  0  0  0  0  0  0  0  0
   61.2448   30.2486   50.8523 H   0  0  0  0  0  0  0  0  0  0  0  0
   59.7350   28.8428   49.4531 H   0  0  0  0  0  0  0  0  0  0  0  0
  1  2  1  0
  2  3  2  0
  3  4  1  0
  4  5  2  0
  5  6  1  0
  6  7  2  0
  6  8  1  0
  8  9  1  0
  9 10  1  0
 10 11  2  0
 11 12  1  0
 12 13  2  0
 13 14  1  0
 13 15  1  0
 15 16  2  0
  5 17  1  0
 17 18  2  0
 18 19  1  0
 19 20  2  0
 20 21  1  0
 21 22  2  0
 22 23  1  0
 23 24  1  0
 24 25  1  0
 25 26  1  0
 26 27  1  0
 27 28  1  0
 28 29  1  0
 22 30  1  0
 30 31  2  0
 18  2  1  0
 31 19  1  0
 16 10  1  0
 29 24  1  0
  1 32  1  0
  1 33  1  0
  1 34  1  0
  3 35  1  0
  4 36  1  0
  9 37  1  0
  9 38  1  0
 11 39  1  0
 12 40  1  0
 15 41  1  0
 16 42  1  0
 17 43  1  0
 20 44  1  0
 21 45  1  0
 23 46  1  0
 23 47  1  0
 25 48  1  0
 25 49  1  0
 26 50  1  0
 26 51  1  0
 27 52  1  0
 28 53  1  0
 28 54  1  0
 29 55  1  0
 29 56  1  0
 30 57  1  0
 31 58  1  0
M  CHG  1   8  -1
M  END
>  <UniqueID>  (81) 
77

>  <SMILES>  (81) 
Cc1ccc(C(=O)[N-]Cc2ccc(F)cc2)cc1-c1ccc(CN2CCNCC2)cc1

>  <Energy>  (81) 
83.53341146282965

>  <Genealogy>  (81) 
Cc1ccc(C(=O)[N-]Cc2ccc(F)cc2)cc1-c1ccc(CN2CCNCC2)cc1 (protonated)
Cc1ccc(C(=O)[N-]Cc2ccc(F)cc2)cc1-c1ccc(CN2CCNCC2)cc1 (3D coordinates assigned)
Cc1ccc(C(=O)[N-]Cc2ccc(F)cc2)cc1-c1ccc(CN2CCNCC2)cc1 (nonaromatic ring conformer: 83.53341146282965 kcal/mol)

>  <smiles>  (81) 
Cc1ccc(C(=O)NCc2ccc(F)cc2)cc1-c1ccc(CN2CCNCC2)cc1

>  <score_type>  (81) 
oracle

>  <origin>  (81) 
adg

>  <m_score__min__energy>  (81) 
-10.67

>  <m_primary>  (81) 
energy

$$$$
81:0
     RDKit          3D

 57 59  0  0  0  0  0  0  0  0999 V2000
   66.8430   31.0970   50.9640 C   0  0  0  0  0  0  0  0  0  0  0  0
   65.5810   31.5170   50.4990 O   0  0  0  0  0  0  0  0  0  0  0  0
   65.6740   32.8490   50.0380 C   0  0  0  0  0  0  0  0  0  0  0  0
   64.4580   33.1780   49.1730 C   0  0  0  0  0  0  0  0  0  0  0  0
   63.5680   32.0220   49.0500 N   0  0  0  0  0  0  0  0  0  0  0  0
   62.6750   31.8820   47.9350 C   0  0  0  0  0  0  0  0  0  0  0  0
   62.8220   32.6190   46.9210 O   0  0  0  0  0  0  0  0  0  0  0  0
   61.5920   30.8700   47.9490 C   0  0  0  0  0  0  0  0  0  0  0  0
   61.2320   30.2130   49.1400 C   0  0  0  0  0  0  0  0  0  0  0  0
   60.1850   29.2870   49.1480 C   0  0  0  0  0  0  0  0  0  0  0  0
   59.4760   29.0120   47.9710 C   0  0  0  0  0  0  0  0  0  0  0  0
   58.3920   28.0750   47.9590 N   0  0  0  0  0  0  0  0  0  0  0  0
   58.3650   26.8390   47.2320 C   0  0  0  0  0  0  0  0  0  0  0  0
   57.6570   25.8950   47.6700 O   0  0  0  0  0  0  0  0  0  0  0  0
   59.2020   26.6110   46.0000 C   0  0  0  0  0  0  0  0  0  0  0  0
   58.1730   26.4380   44.5000 S   0  0  0  0  0  0  0  0  0  0  0  0
   57.3790   28.0320   44.6760 C   0  0  0  0  0  0  0  0  0  0  0  0
   56.1540   28.2000   45.2200 N   0  0  0  0  0  0  0  0  0  0  0  0
   55.7650   29.4720   45.2430 N   0  0  0  0  0  0  0  0  0  0  0  0
   56.6810   30.3150   44.7170 C   0  0  0  0  0  0  0  0  0  0  0  0
   56.5270   31.6010   44.6000 N   0  0  0  0  0  0  0  0  0  0  0  0
   57.4870   32.5800   44.1650 C   0  0  0  0  0  0  0  0  0  0  0  0
   58.2470   32.2820   43.2040 O   0  0  0  0  0  0  0  0  0  0  0  0
   57.7000   33.9040   44.8590 C   0  0  0  0  0  0  0  0  0  0  0  0
   59.1370   34.0650   45.3720 C   0  0  0  0  0  0  0  0  0  0  0  0
   59.2340   33.7970   46.8520 C   0  0  0  0  0  0  0  0  0  0  0  0
   60.1860   34.4720   47.6310 C   0  0  0  0  0  0  0  0  0  0  0  0
   60.3040   34.1920   48.9970 C   0  0  0  0  0  0  0  0  0  0  0  0
   59.4800   33.2310   49.5920 C   0  0  0  0  0  0  0  0  0  0  0  0
   58.5370   32.5480   48.8210 C   0  0  0  0  0  0  0  0  0  0  0  0
   58.4140   32.8270   47.4550 C   0  0  0  0  0  0  0  0  0  0  0  0
   58.0460   29.4950   44.1760 S   0  0  0  0  0  0  0  0  0  0  0  0
   59.8530   29.6350   46.7770 C   0  0  0  0  0  0  0  0  0  0  0  0
   60.8900   30.5730   46.7680 C   0  0  0  0  0  0  0  0  0  0  0  0
   66.8467   31.0958   52.0640 H   0  0  0  0  0  0  0  0  0  0  0  0
   67.0502   30.0815   50.5955 H   0  0  0  0  0  0  0  0  0  0  0  0
   67.6174   31.7859   50.5955 H   0  0  0  0  0  0  0  0  0  0  0  0
   65.7067   33.5329   50.8989 H   0  0  0  0  0  0  0  0  0  0  0  0
   66.5900   32.9656   49.4402 H   0  0  0  0  0  0  0  0  0  0  0  0
   63.9045   34.0097   49.6334 H   0  0  0  0  0  0  0  0  0  0  0  0
   64.8097   33.4555   48.1684 H   0  0  0  0  0  0  0  0  0  0  0  0
   63.6050   31.2630   49.7670 H   0  0  0  0  0  0  0  0  0  0  0  0
   61.7777   30.4294   50.0703 H   0  0  0  0  0  0  0  0  0  0  0  0
   59.9165   28.7720   50.0821 H   0  0  0  0  0  0  0  0  0  0  0  0
   59.8816   27.4659   45.8685 H   0  0  0  0  0  0  0  0  0  0  0  0
   59.7639   25.6755   46.1378 H   0  0  0  0  0  0  0  0  0  0  0  0
   57.4847   34.7153   44.1480 H   0  0  0  0  0  0  0  0  0  0  0  0
   57.0253   33.9427   45.7269 H   0  0  0  0  0  0  0  0  0  0  0  0
   59.7876   33.3567   44.8381 H   0  0  0  0  0  0  0  0  0  0  0  0
   59.4516   35.1033   45.1902 H   0  0  0  0  0  0  0  0  0  0  0  0
   60.8415   35.2235   47.1666 H   0  0  0  0  0  0  0  0  0  0  0  0
   61.0470   34.7293   49.6047 H   0  0  0  0  0  0  0  0  0  0  0  0
   59.5747   33.0135   50.6661 H   0  0  0  0  0  0  0  0  0  0  0  0
   57.8904   31.7902   49.2876 H   0  0  0  0  0  0  0  0  0  0  0  0
   57.6722   32.2848   46.8502 H   0  0  0  0  0  0  0  0  0  0  0  0
   59.3315   29.3861   45.8410 H   0  0  0  0  0  0  0  0  0  0  0  0
   61.1582   31.0819   45.8304 H   0  0  0  0  0  0  0  0  0  0  0  0
  1  2  1  0
  2  3  1  0
  3  4  1  0
  4  5  1  0
  5  6  1  0
  6  7  2  0
  6  8  1  0
  8  9  2  0
  9 10  1  0
 10 11  2  0
 11 12  1  0
 12 13  1  0
 13 14  2  0
 13 15  1  0
 15 16  1  0
 16 17  1  0
 17 18  2  0
 18 19  1  0
 19 20  1  0
 20 21  2  3
 21 22  1  0
 22 23  2  0
 22 24  1  0
 24 25  1  0
 25 26  1  0
 26 27  2  0
 27 28  1  0
 28 29  2  0
 29 30  1  0
 30 31  2  0
 20 32  1  0
 11 33  1  0
 33 34  2  0
 34  8  1  0
 32 17  1  0
 31 26  1  0
  1 35  1  0
  1 36  1  0
  1 37  1  0
  3 38  1  0
  3 39  1  0
  4 40  1  0
  4 41  1  0
  5 42  1  0
  9 43  1  0
 10 44  1  0
 15 45  1  0
 15 46  1  0
 24 47  1  0
 24 48  1  0
 25 49  1  0
 25 50  1  0
 27 51  1  0
 28 52  1  0
 29 53  1  0
 30 54  1  0
 31 55  1  0
 33 56  1  0
 34 57  1  0
M  CHG  2  12  -1  19  -1
M  END
>  <UniqueID>  (82) 
78

>  <SMILES>  (82) 
COCCNC(=O)c1ccc([N-]C(=O)CSc2n[n-]c(=NC(=O)CCc3ccccc3)s2)cc1

>  <Energy>  (82) 
94.73456819796921

>  <Genealogy>  (82) 
COCCNC(=O)c1ccc([N-]C(=O)CSc2n[n-]c(=NC(=O)CCc3ccccc3)s2)cc1 (protonated)
COCCNC(=O)c1ccc([N-]C(=O)CSc2n[n-]c(=NC(=O)CCc3ccccc3)s2)cc1 (3D coordinates assigned)
COCCNC(=O)c1ccc([N-]C(=O)CSc2n[n-]c(=NC(=O)CCc3ccccc3)s2)cc1 (optimized conformer: 94.73456819796921 kcal/mol)

>  <smiles>  (82) 
COCCNC(=O)c1ccc(NC(=O)CSc2n[nH]c(=NC(=O)CCc3ccccc3)s2)cc1

>  <score_type>  (82) 
oracle

>  <origin>  (82) 
adg

>  <m_score__min__energy>  (82) 
-11.289999999999999

>  <m_primary>  (82) 
energy

$$$$
82:0
     RDKit          3D

 65 70  0  0  1  0  0  0  0  0999 V2000
   60.2100   29.7280   46.4760 O   0  0  0  0  0  0  0  0  0  0  0  0
   60.2880   29.5120   47.7130 C   0  0  0  0  0  0  0  0  0  0  0  0
   59.4800   28.4890   48.2490 N   0  0  0  0  0  0  0  0  0  0  0  0
   58.6180   27.7510   47.3810 C   0  0  0  0  0  0  0  0  0  0  0  0
   58.5630   26.3730   47.3770 C   0  0  0  0  0  0  0  0  0  0  0  0
   57.6900   25.7280   46.4940 C   0  0  0  0  0  0  0  0  0  0  0  0
   56.8820   26.4340   45.6270 C   0  0  0  0  0  0  0  0  0  0  0  0
   56.9470   27.8110   45.6430 C   0  0  0  0  0  0  0  0  0  0  0  0
   56.1600   28.6390   44.7920 N   0  0  0  0  0  0  0  0  0  0  0  0
   56.6040   29.7330   44.2670 C   0  0  0  0  0  0  0  0  0  0  0  0
   57.1730   30.6610   45.0540 N   0  0  0  0  0  0  0  0  0  0  0  0
   57.6390   31.8060   44.5150 C   0  0  0  0  0  0  0  0  0  0  0  0
   58.2600   32.8270   45.3500 C   0  0  0  0  0  0  0  0  0  0  0  0
   58.7620   34.0090   44.8780 C   0  0  0  0  0  0  0  0  0  0  0  0
   59.3500   34.9620   45.7130 C   0  0  0  0  0  0  0  0  0  0  0  0
   59.4210   34.6890   47.0620 C   0  0  0  0  0  0  0  0  0  0  0  0
   58.9110   33.4920   47.5330 C   0  0  0  0  0  0  0  0  0  0  0  0
   58.3530   32.6060   46.6790 N   0  0  0  0  0  0  0  0  0  0  0  0
   57.4970   31.9520   43.1520 C   0  0  0  0  0  0  0  0  0  0  0  0
   56.9090   30.9870   42.3470 C   0  0  0  0  0  0  0  0  0  0  0  0
   56.4610   29.8650   42.9380 N   0  0  0  0  0  0  0  0  0  0  0  0
   57.8050   28.4530   46.5100 C   0  0  0  0  0  0  0  0  0  0  0  0
   61.2010   30.3250   48.5080 C   0  0  0  0  0  0  0  0  0  0  0  0
   61.2330   30.1170   49.8720 C   0  0  0  0  0  0  0  0  0  0  0  0
   62.0730   30.8510   50.6830 C   0  0  0  0  0  0  0  0  0  0  0  0
   62.9260   31.8320   50.1720 C   0  0  0  0  0  0  0  0  0  0  0  0
   62.8600   32.0060   48.7970 C   0  0  0  0  0  0  0  0  0  0  0  0
   62.0230   31.2740   47.9860 C   0  0  0  0  0  0  0  0  0  0  0  0
   63.8220   33.0830   48.3870 C   0  0  0  0  0  0  0  0  0  0  0  0
   64.1310   33.7720   49.6800 C   0  0  0  0  0  0  0  0  0  0  0  0
   63.9170   32.7610   50.7660 C   0  0  2  0  0  0  0  0  0  0  0  0
   65.1160   32.1490   51.2270 N   0  0  0  0  0  0  0  0  0  0  0  0
   66.0590   31.7650   50.2260 C   0  0  0  0  0  0  0  0  0  0  0  0
   67.1830   31.0050   50.9100 C   0  0  0  0  0  0  0  0  0  0  0  0
   66.7590   29.7520   51.3480 O   0  0  0  0  0  0  0  0  0  0  0  0
   65.3870   29.7260   51.5900 C   0  0  0  0  0  0  0  0  0  0  0  0
   64.9080   31.0720   52.1360 C   0  0  0  0  0  0  0  0  0  0  0  0
   59.5150   28.2790   49.2700 H   0  0  0  0  0  0  0  0  0  0  0  0
   59.1974   25.7883   48.0594 H   0  0  0  0  0  0  0  0  0  0  0  0
   57.6468   24.6289   46.4911 H   0  0  0  0  0  0  0  0  0  0  0  0
   56.2018   25.9105   44.9390 H   0  0  0  0  0  0  0  0  0  0  0  0
   58.7002   34.2168   43.7996 H   0  0  0  0  0  0  0  0  0  0  0  0
   59.7453   35.9040   45.3052 H   0  0  0  0  0  0  0  0  0  0  0  0
   59.8766   35.4123   47.7544 H   0  0  0  0  0  0  0  0  0  0  0  0
   58.9601   33.2608   48.6073 H   0  0  0  0  0  0  0  0  0  0  0  0
   57.8664   32.8750   42.6812 H   0  0  0  0  0  0  0  0  0  0  0  0
   56.8124   31.1347   41.2612 H   0  0  0  0  0  0  0  0  0  0  0  0
   56.0020   29.0920   42.3730 H   0  0  0  0  0  0  0  0  0  0  0  0
   57.8440   29.5523   46.5090 H   0  0  0  0  0  0  0  0  0  0  0  0
   60.5786   29.3542   50.3191 H   0  0  0  0  0  0  0  0  0  0  0  0
   62.0712   30.6579   51.7659 H   0  0  0  0  0  0  0  0  0  0  0  0
   62.0190   31.4590   46.9017 H   0  0  0  0  0  0  0  0  0  0  0  0
   64.7310   32.6521   47.9420 H   0  0  0  0  0  0  0  0  0  0  0  0
   63.4130   33.7604   47.6229 H   0  0  0  0  0  0  0  0  0  0  0  0
   65.1747   34.1192   49.6850 H   0  0  0  0  0  0  0  0  0  0  0  0
   63.4867   34.6518   49.8245 H   0  0  0  0  0  0  0  0  0  0  0  0
   63.5471   33.2072   51.7009 H   0  0  0  0  0  0  0  0  0  0  0  0
   65.5710   31.1197   49.4807 H   0  0  0  0  0  0  0  0  0  0  0  0
   66.4547   32.6532   49.7116 H   0  0  0  0  0  0  0  0  0  0  0  0
   68.0108   30.8735   50.1977 H   0  0  0  0  0  0  0  0  0  0  0  0
   67.5089   31.5850   51.7860 H   0  0  0  0  0  0  0  0  0  0  0  0
   64.8587   29.5092   50.6498 H   0  0  0  0  0  0  0  0  0  0  0  0
   65.1745   28.9462   52.3362 H   0  0  0  0  0  0  0  0  0  0  0  0
   63.8320   30.9992   52.3524 H   0  0  0  0  0  0  0  0  0  0  0  0
   65.4960   31.2875   53.0404 H   0  0  0  0  0  0  0  0  0  0  0  0
  1  2  2  0
  2  3  1  0
  3  4  1  0
  4  5  2  0
  5  6  1  0
  6  7  2  0
  7  8  1  0
  8  9  1  0
  9 10  2  0
 10 11  1  0
 11 12  2  0
 12 13  1  0
 13 14  2  0
 14 15  1  0
 15 16  2  0
 16 17  1  0
 17 18  2  0
 12 19  1  0
 19 20  2  0
 20 21  1  0
  8 22  2  0
  2 23  1  0
 23 24  2  0
 24 25  1  0
 25 26  2  0
 26 27  1  0
 27 28  2  0
 27 29  1  0
 29 30  1  0
 30 31  1  0
 31 32  1  0
 32 33  1  0
 33 34  1  0
 34 35  1  0
 35 36  1  0
 36 37  1  0
 22  4  1  0
 28 23  1  0
 37 32  1  0
 21 10  1  0
 31 26  1  0
 18 13  1  0
  3 38  1  0
  5 39  1  0
  6 40  1  0
  7 41  1  0
 14 42  1  0
 15 43  1  0
 16 44  1  0
 17 45  1  0
 19 46  1  0
 20 47  1  0
 21 48  1  0
 22 49  1  0
 24 50  1  0
 25 51  1  0
 28 52  1  0
 29 53  1  0
 29 54  1  0
 30 55  1  0
 30 56  1  0
 31 57  1  1
 33 58  1  0
 33 59  1  0
 34 60  1  0
 34 61  1  0
 36 62  1  0
 36 63  1  0
 37 64  1  0
 37 65  1  0
M  END
>  <smiles>  (83) 
O=C(Nc1cccc(N=c2nc(-c3ccccn3)cc[nH]2)c1)c1ccc2c(c1)CCC2N1CCOCC1

>  <score_type>  (83) 
oracle

>  <origin>  (83) 
adg

>  <m_score__min__energy>  (83) 
-11.1

>  <m_primary>  (83) 
energy

$$$$
83:0
     RDKit          3D

 46 49  0  0  0  0  0  0  0  0999 V2000
   61.5350   33.9950   46.8760 C   0  0  0  0  0  0  0  0  0  0  0  0
   60.4700   33.7680   46.0000 C   0  0  0  0  0  0  0  0  0  0  0  0
   59.1550   33.7920   46.4900 C   0  0  0  0  0  0  0  0  0  0  0  0
   57.9950   33.5130   45.5730 C   0  0  0  0  0  0  0  0  0  0  0  0
   57.8590   32.0320   45.3450 C   0  0  0  0  0  0  0  0  0  0  0  0
   58.4990   31.1230   46.1980 C   0  0  0  0  0  0  0  0  0  0  0  0
   58.4030   29.7470   45.9650 C   0  0  0  0  0  0  0  0  0  0  0  0
   57.6700   29.2580   44.8700 C   0  0  0  0  0  0  0  0  0  0  0  0
   57.5670   27.7960   44.6220 C   0  0  0  0  0  0  0  0  0  0  0  0
   57.0620   26.9260   45.5980 C   0  0  0  0  0  0  0  0  0  0  0  0
   56.9790   25.5940   45.3490 N   0  0  0  0  0  0  0  0  0  0  0  0
   57.3760   25.0690   44.1580 C   0  0  0  0  0  0  0  0  0  0  0  0
   57.2720   23.6490   43.9200 N   0  0  0  0  0  0  0  0  0  0  0  0
   57.9630   22.6850   44.7880 C   0  0  0  0  0  0  0  0  0  0  0  0
   57.1190   21.4090   45.0080 C   0  0  0  0  0  0  0  0  0  0  0  0
   56.1910   21.0900   43.9050 N   0  0  0  0  0  0  0  0  0  0  0  0
   56.6250   21.6460   42.6200 C   0  0  0  0  0  0  0  0  0  0  0  0
   56.6340   23.1760   42.6840 C   0  0  0  0  0  0  0  0  0  0  0  0
   57.8660   25.8980   43.1960 N   0  0  0  0  0  0  0  0  0  0  0  0
   57.9700   27.2360   43.4010 C   0  0  0  0  0  0  0  0  0  0  0  0
   57.0370   30.1740   44.0110 C   0  0  0  0  0  0  0  0  0  0  0  0
   57.1350   31.5490   44.2440 C   0  0  0  0  0  0  0  0  0  0  0  0
   58.9400   34.0230   47.8570 C   0  0  0  0  0  0  0  0  0  0  0  0
   60.0330   34.2450   48.6980 C   0  0  0  0  0  0  0  0  0  0  0  0
   61.2960   34.2270   48.1940 N   0  0  0  0  0  0  0  0  0  0  0  0
   62.5681   33.9859   46.4985 H   0  0  0  0  0  0  0  0  0  0  0  0
   60.6609   33.5720   44.9346 H   0  0  0  0  0  0  0  0  0  0  0  0
   57.0706   33.8971   46.0289 H   0  0  0  0  0  0  0  0  0  0  0  0
   58.1719   34.0105   44.6080 H   0  0  0  0  0  0  0  0  0  0  0  0
   59.0800   31.4934   47.0554 H   0  0  0  0  0  0  0  0  0  0  0  0
   58.9051   29.0422   46.6441 H   0  0  0  0  0  0  0  0  0  0  0  0
   56.7318   27.3238   46.5690 H   0  0  0  0  0  0  0  0  0  0  0  0
   58.9183   22.4046   44.3202 H   0  0  0  0  0  0  0  0  0  0  0  0
   58.1284   23.1604   45.7661 H   0  0  0  0  0  0  0  0  0  0  0  0
   57.8068   20.5599   45.1345 H   0  0  0  0  0  0  0  0  0  0  0  0
   56.4968   21.5952   45.8958 H   0  0  0  0  0  0  0  0  0  0  0  0
   55.2450   21.4810   44.1340 H   0  0  0  0  0  0  0  0  0  0  0  0
   57.6389   21.2856   42.3916 H   0  0  0  0  0  0  0  0  0  0  0  0
   55.9266   21.3229   41.8339 H   0  0  0  0  0  0  0  0  0  0  0  0
   57.1897   23.5686   41.8197 H   0  0  0  0  0  0  0  0  0  0  0  0
   55.5936   23.5329   42.6687 H   0  0  0  0  0  0  0  0  0  0  0  0
   58.3716   27.8828   42.6070 H   0  0  0  0  0  0  0  0  0  0  0  0
   56.4605   29.8059   43.1495 H   0  0  0  0  0  0  0  0  0  0  0  0
   56.6420   32.2561   43.5607 H   0  0  0  0  0  0  0  0  0  0  0  0
   57.9179   34.0293   48.2637 H   0  0  0  0  0  0  0  0  0  0  0  0
   59.8719   34.4347   49.7695 H   0  0  0  0  0  0  0  0  0  0  0  0
  1  2  2  0
  2  3  1  0
  3  4  1  0
  4  5  1  0
  5  6  2  0
  6  7  1  0
  7  8  2  0
  8  9  1  0
  9 10  2  0
 10 11  1  0
 11 12  2  0
 12 13  1  0
 13 14  1  0
 14 15  1  0
 15 16  1  0
 16 17  1  0
 17 18  1  0
 12 19  1  0
 19 20  2  0
  8 21  1  0
 21 22  2  0
  3 23  2  0
 23 24  1  0
 24 25  2  0
 25  1  1  0
 22  5  1  0
 20  9  1  0
 18 13  1  0
  1 26  1  0
  2 27  1  0
  4 28  1  0
  4 29  1  0
  6 30  1  0
  7 31  1  0
 10 32  1  0
 14 33  1  0
 14 34  1  0
 15 35  1  0
 15 36  1  0
 16 37  1  0
 17 38  1  0
 17 39  1  0
 18 40  1  0
 18 41  1  0
 20 42  1  0
 21 43  1  0
 22 44  1  0
 23 45  1  0
 24 46  1  0
M  END
>  <UniqueID>  (84) 
79

>  <SMILES>  (84) 
c1cc(Cc2ccc(-c3cnc(N4CCNCC4)nc3)cc2)ccn1

>  <Energy>  (84) 
59.65837032811195

>  <Genealogy>  (84) 
c1cc(Cc2ccc(-c3cnc(N4CCNCC4)nc3)cc2)ccn1 (3D coordinates assigned)
c1cc(Cc2ccc(-c3cnc(N4CCNCC4)nc3)cc2)ccn1 (nonaromatic ring conformer: 59.65837032811195 kcal/mol)

>  <smiles>  (84) 
c1cc(Cc2ccc(-c3cnc(N4CCNCC4)nc3)cc2)ccn1

>  <score_type>  (84) 
oracle

>  <origin>  (84) 
adg

>  <m_score__min__energy>  (84) 
-7.7699999999999996

>  <m_primary>  (84) 
energy

$$$$
84:0
     RDKit          3D

 61 64  0  0  0  0  0  0  0  0999 V2000
   58.3560   30.0300   45.2520 C   0  0  0  0  0  0  0  0  0  0  0  0
   58.3270   28.7410   45.9560 N   0  0  0  0  0  0  0  0  0  0  0  0
   59.4390   28.3460   46.6430 C   0  0  0  0  0  0  0  0  0  0  0  0
   59.4710   27.1310   47.3340 C   0  0  0  0  0  0  0  0  0  0  0  0
   60.7370   26.7130   48.0450 C   0  0  0  0  0  0  0  0  0  0  0  0
   60.7380   27.2250   49.4600 C   0  0  0  0  0  0  0  0  0  0  0  0
   61.0850   26.3720   50.5190 C   0  0  0  0  0  0  0  0  0  0  0  0
   61.0420   26.8330   51.8370 C   0  0  0  0  0  0  0  0  0  0  0  0
   60.6520   28.1470   52.1090 C   0  0  0  0  0  0  0  0  0  0  0  0
   60.3080   29.0160   51.0620 C   0  0  0  0  0  0  0  0  0  0  0  0
   59.8690   30.4000   51.3440 C   0  0  0  0  0  0  0  0  0  0  0  0
   58.9350   30.5890   52.1690 O   0  0  0  0  0  0  0  0  0  0  0  0
   60.4750   31.5300   50.6860 N   0  0  0  0  0  0  0  0  0  0  0  0
   60.8490   31.4500   49.2650 C   0  0  0  0  0  0  0  0  0  0  0  0
   60.8420   32.8400   48.6200 C   0  0  0  0  0  0  0  0  0  0  0  0
   59.7160   33.6140   49.1680 N   0  0  0  0  0  0  0  0  0  0  0  0
   59.3370   34.7810   48.3410 C   0  0  0  0  0  0  0  0  0  0  0  0
   58.8110   34.4180   46.9660 C   0  0  0  0  0  0  0  0  0  0  0  0
   59.5460   34.7500   45.8140 C   0  0  0  0  0  0  0  0  0  0  0  0
   59.0610   34.4160   44.5460 C   0  0  0  0  0  0  0  0  0  0  0  0
   57.8340   33.7590   44.4160 C   0  0  0  0  0  0  0  0  0  0  0  0
   57.0880   33.4410   45.5540 C   0  0  0  0  0  0  0  0  0  0  0  0
   57.5700   33.7730   46.8230 C   0  0  0  0  0  0  0  0  0  0  0  0
   59.8930   33.9410   50.6010 C   0  0  0  0  0  0  0  0  0  0  0  0
   60.6010   32.8160   51.3830 C   0  0  0  0  0  0  0  0  0  0  0  0
   60.3370   28.5420   49.7380 C   0  0  0  0  0  0  0  0  0  0  0  0
   58.3420   26.3000   47.2960 C   0  0  0  0  0  0  0  0  0  0  0  0
   58.3730   25.1810   47.8810 O   0  0  0  0  0  0  0  0  0  0  0  0
   57.1890   26.7040   46.5940 C   0  0  0  0  0  0  0  0  0  0  0  0
   55.9780   25.8370   46.5530 C   0  0  0  0  0  0  0  0  0  0  0  0
   54.7610   26.3120   45.9790 N   0  0  0  0  0  0  0  0  0  0  0  0
   56.0130   24.6680   47.0240 O   0  0  0  0  0  0  0  0  0  0  0  0
   57.2030   27.9500   45.9260 C   0  0  0  0  0  0  0  0  0  0  0  0
   56.0470   28.3650   45.2530 O   0  0  0  0  0  0  0  0  0  0  0  0
   58.3744   30.8486   45.9865 H   0  0  0  0  0  0  0  0  0  0  0  0
   59.2556   30.0831   44.6212 H   0  0  0  0  0  0  0  0  0  0  0  0
   57.4597   30.1235   44.6212 H   0  0  0  0  0  0  0  0  0  0  0  0
   60.3264   28.9960   46.6530 H   0  0  0  0  0  0  0  0  0  0  0  0
   60.8002   25.6149   48.0569 H   0  0  0  0  0  0  0  0  0  0  0  0
   61.6015   27.1358   47.5122 H   0  0  0  0  0  0  0  0  0  0  0  0
   61.3920   25.3365   50.3105 H   0  0  0  0  0  0  0  0  0  0  0  0
   61.3158   26.1599   52.6628 H   0  0  0  0  0  0  0  0  0  0  0  0
   60.6144   28.5022   53.1494 H   0  0  0  0  0  0  0  0  0  0  0  0
   61.8576   31.0190   49.1815 H   0  0  0  0  0  0  0  0  0  0  0  0
   60.1167   30.8162   48.7434 H   0  0  0  0  0  0  0  0  0  0  0  0
   61.7878   33.3555   48.8432 H   0  0  0  0  0  0  0  0  0  0  0  0
   60.7331   32.7445   47.5296 H   0  0  0  0  0  0  0  0  0  0  0  0
   58.5552   35.3427   48.8732 H   0  0  0  0  0  0  0  0  0  0  0  0
   60.2519   35.3716   48.1859 H   0  0  0  0  0  0  0  0  0  0  0  0
   60.5076   35.2753   45.9111 H   0  0  0  0  0  0  0  0  0  0  0  0
   59.6456   34.6705   43.6496 H   0  0  0  0  0  0  0  0  0  0  0  0
   57.4558   33.4924   43.4181 H   0  0  0  0  0  0  0  0  0  0  0  0
   56.1201   32.9287   45.4508 H   0  0  0  0  0  0  0  0  0  0  0  0
   56.9750   33.5282   47.7152 H   0  0  0  0  0  0  0  0  0  0  0  0
   60.4946   34.8584   50.6813 H   0  0  0  0  0  0  0  0  0  0  0  0
   58.8925   34.0723   51.0388 H   0  0  0  0  0  0  0  0  0  0  0  0
   61.6672   33.0660   51.4865 H   0  0  0  0  0  0  0  0  0  0  0  0
   60.1282   32.7260   52.3721 H   0  0  0  0  0  0  0  0  0  0  0  0
   60.0432   29.2083   48.9135 H   0  0  0  0  0  0  0  0  0  0  0  0
   54.7500   26.7580   45.0350 H   0  0  0  0  0  0  0  0  0  0  0  0
   55.1470   27.9130   45.3430 H   0  0  0  0  0  0  0  0  0  0  0  0
  1  2  1  0
  2  3  1  0
  3  4  2  0
  4  5  1  0
  5  6  1  0
  6  7  2  0
  7  8  1  0
  8  9  2  0
  9 10  1  0
 10 11  1  0
 11 12  2  0
 11 13  1  0
 13 14  1  0
 14 15  1  0
 15 16  1  0
 16 17  1  0
 17 18  1  0
 18 19  2  0
 19 20  1  0
 20 21  2  0
 21 22  1  0
 22 23  2  0
 16 24  1  0
 24 25  1  0
 10 26  2  0
  4 27  1  0
 27 28  2  0
 27 29  1  0
 29 30  1  0
 30 31  1  0
 30 32  2  0
 29 33  2  0
 33 34  1  0
 33  2  1  0
 26  6  1  0
 25 13  1  0
 23 18  1  0
  1 35  1  0
  1 36  1  0
  1 37  1  0
  3 38  1  0
  5 39  1  0
  5 40  1  0
  7 41  1  0
  8 42  1  0
  9 43  1  0
 14 44  1  0
 14 45  1  0
 15 46  1  0
 15 47  1  0
 17 48  1  0
 17 49  1  0
 19 50  1  0
 20 51  1  0
 21 52  1  0
 22 53  1  0
 23 54  1  0
 24 55  1  0
 24 56  1  0
 25 57  1  0
 25 58  1  0
 26 59  1  0
 31 60  1  0
 34 61  1  0
M  CHG  1  31  -1
M  END
>  <UniqueID>  (85) 
80

>  <SMILES>  (85) 
Cn1cc(Cc2cccc(C(=O)N3CCN(Cc4ccccc4)CC3)c2)c(=O)c(C([NH-])=O)c1O

>  <Energy>  (85) 
85.15466527117954

>  <Genealogy>  (85) 
Cn1cc(Cc2cccc(C(=O)N3CCN(Cc4ccccc4)CC3)c2)c(=O)c(C([NH-])=O)c1O (protonated)
Cn1cc(Cc2cccc(C(=O)N3CCN(Cc4ccccc4)CC3)c2)c(=O)c(C([NH-])=O)c1O (3D coordinates assigned)
Cn1cc(Cc2cccc(C(=O)N3CCN(Cc4ccccc4)CC3)c2)c(=O)c(C([NH-])=O)c1O (nonaromatic ring conformer: 85.15466527117954 kcal/mol)

>  <smiles>  (85) 
Cn1cc(Cc2cccc(C(=O)N3CCN(Cc4ccccc4)CC3)c2)c(=O)c(C(N)=O)c1O

>  <score_type>  (85) 
oracle

>  <origin>  (85) 
adg

>  <m_score__min__energy>  (85) 
-12.789999999999999

>  <m_primary>  (85) 
energy

$$$$
85:0
     RDKit          3D

 67 71  0  0  0  0  0  0  0  0999 V2000
   63.5440   32.5900   46.7420 O   0  0  0  0  0  0  0  0  0  0  0  0
   62.3490   32.6460   47.1380 C   0  0  0  0  0  0  0  0  0  0  0  0
   61.7910   33.9650   47.4970 C   0  0  0  0  0  0  0  0  0  0  0  0
   60.8380   34.5610   46.7700 C   0  0  0  0  0  0  0  0  0  0  0  0
   59.6370   33.8760   46.2200 C   0  0  0  0  0  0  0  0  0  0  0  0
   58.8920   33.0510   47.0830 C   0  0  0  0  0  0  0  0  0  0  0  0
   57.7710   32.3560   46.6160 C   0  0  0  0  0  0  0  0  0  0  0  0
   57.3850   32.4590   45.2750 C   0  0  0  0  0  0  0  0  0  0  0  0
   56.2840   31.7280   44.8270 O   0  0  0  0  0  0  0  0  0  0  0  0
   56.4070   30.0920   44.3390 S   0  0  0  0  0  0  0  0  0  0  0  0
   55.1810   29.3530   44.7990 O   0  0  0  0  0  0  0  0  0  0  0  0
   56.4640   30.0300   42.8390 O   0  0  0  0  0  0  0  0  0  0  0  0
   57.8480   29.3250   45.0010 C   0  0  0  0  0  0  0  0  0  0  0  0
   57.7260   28.3670   46.0190 C   0  0  0  0  0  0  0  0  0  0  0  0
   58.8680   27.7360   46.5290 C   0  0  0  0  0  0  0  0  0  0  0  0
   60.1330   28.0550   46.0220 C   0  0  0  0  0  0  0  0  0  0  0  0
   60.2590   29.0070   45.0050 C   0  0  0  0  0  0  0  0  0  0  0  0
   59.1210   29.6440   44.4970 C   0  0  0  0  0  0  0  0  0  0  0  0
   58.0970   33.3070   44.4150 C   0  0  0  0  0  0  0  0  0  0  0  0
   59.2190   34.0030   44.8770 C   0  0  0  0  0  0  0  0  0  0  0  0
   61.5730   31.4380   47.1520 N   0  0  0  0  0  0  0  0  0  0  0  0
   61.5000   30.4860   48.2550 C   0  0  0  0  0  0  0  0  0  0  0  0
   60.4220   30.9150   49.2080 C   0  0  0  0  0  0  0  0  0  0  0  0
   59.3010   30.0970   49.4260 C   0  0  0  0  0  0  0  0  0  0  0  0
   58.3060   30.4910   50.3270 C   0  0  0  0  0  0  0  0  0  0  0  0
   58.4300   31.6960   51.0420 C   0  0  0  0  0  0  0  0  0  0  0  0
   57.3730   32.1150   51.9910 C   0  0  0  0  0  0  0  0  0  0  0  0
   57.2400   33.3330   52.2820 O   0  0  0  0  0  0  0  0  0  0  0  0
   56.4890   31.1470   52.5810 N   0  0  0  0  0  0  0  0  0  0  0  0
   56.9650   30.3150   53.6850 C   0  0  0  0  0  0  0  0  0  0  0  0
   56.4290   28.8950   53.5210 C   0  0  0  0  0  0  0  0  0  0  0  0
   54.9480   28.8830   53.2410 C   0  0  0  0  0  0  0  0  0  0  0  0
   54.2140   27.7120   53.4910 C   0  0  0  0  0  0  0  0  0  0  0  0
   52.8520   27.6520   53.1840 C   0  0  0  0  0  0  0  0  0  0  0  0
   52.2150   28.7540   52.6100 C   0  0  0  0  0  0  0  0  0  0  0  0
   52.9370   29.9200   52.3410 C   0  0  0  0  0  0  0  0  0  0  0  0
   54.3070   29.9940   52.6450 C   0  0  0  0  0  0  0  0  0  0  0  0
   55.0440   31.2830   52.3730 C   0  0  0  0  0  0  0  0  0  0  0  0
   59.5590   32.5050   50.8310 C   0  0  0  0  0  0  0  0  0  0  0  0
   60.5490   32.1160   49.9250 C   0  0  0  0  0  0  0  0  0  0  0  0
   62.1719   34.4760   48.3936 H   0  0  0  0  0  0  0  0  0  0  0  0
   60.9510   35.6356   46.5642 H   0  0  0  0  0  0  0  0  0  0  0  0
   59.1942   32.9515   48.1360 H   0  0  0  0  0  0  0  0  0  0  0  0
   57.1906   31.7259   47.3061 H   0  0  0  0  0  0  0  0  0  0  0  0
   56.7329   28.1113   46.4169 H   0  0  0  0  0  0  0  0  0  0  0  0
   58.7703   26.9881   47.3297 H   0  0  0  0  0  0  0  0  0  0  0  0
   61.0280   27.5571   46.4233 H   0  0  0  0  0  0  0  0  0  0  0  0
   61.2529   29.2551   44.6043 H   0  0  0  0  0  0  0  0  0  0  0  0
   59.2230   30.3964   43.7011 H   0  0  0  0  0  0  0  0  0  0  0  0
   57.7715   33.4257   43.3710 H   0  0  0  0  0  0  0  0  0  0  0  0
   59.7795   34.6536   44.1896 H   0  0  0  0  0  0  0  0  0  0  0  0
   61.2668   29.4853   47.8623 H   0  0  0  0  0  0  0  0  0  0  0  0
   62.4660   30.4546   48.7802 H   0  0  0  0  0  0  0  0  0  0  0  0
   59.2052   29.1433   48.8863 H   0  0  0  0  0  0  0  0  0  0  0  0
   57.4214   29.8547   50.4772 H   0  0  0  0  0  0  0  0  0  0  0  0
   58.0648   30.2944   53.6807 H   0  0  0  0  0  0  0  0  0  0  0  0
   56.6094   30.7329   54.6384 H   0  0  0  0  0  0  0  0  0  0  0  0
   56.9533   28.4113   52.6837 H   0  0  0  0  0  0  0  0  0  0  0  0
   56.6027   28.3538   54.4628 H   0  0  0  0  0  0  0  0  0  0  0  0
   54.7142   26.8368   53.9311 H   0  0  0  0  0  0  0  0  0  0  0  0
   52.2811   26.7357   53.3948 H   0  0  0  0  0  0  0  0  0  0  0  0
   51.1429   28.7043   52.3691 H   0  0  0  0  0  0  0  0  0  0  0  0
   52.4299   30.7850   51.8886 H   0  0  0  0  0  0  0  0  0  0  0  0
   54.8624   31.5820   51.3301 H   0  0  0  0  0  0  0  0  0  0  0  0
   54.6705   32.0415   53.0767 H   0  0  0  0  0  0  0  0  0  0  0  0
   59.6643   33.4508   51.3826 H   0  0  0  0  0  0  0  0  0  0  0  0
   61.4323   32.7536   49.7725 H   0  0  0  0  0  0  0  0  0  0  0  0
  1  2  2  0
  2  3  1  0
  3  4  2  3
  4  5  1  0
  5  6  2  0
  6  7  1  0
  7  8  2  0
  8  9  1  0
  9 10  1  0
 10 11  2  0
 10 12  2  0
 10 13  1  0
 13 14  2  0
 14 15  1  0
 15 16  2  0
 16 17  1  0
 17 18  2  0
  8 19  1  0
 19 20  2  0
  2 21  1  0
 21 22  1  0
 22 23  1  0
 23 24  2  0
 24 25  1  0
 25 26  2  0
 26 27  1  0
 27 28  2  0
 27 29  1  0
 29 30  1  0
 30 31  1  0
 31 32  1  0
 32 33  2  0
 33 34  1  0
 34 35  2  0
 35 36  1  0
 36 37  2  0
 37 38  1  0
 26 39  1  0
 39 40  2  0
 20  5  1  0
 40 23  1  0
 18 13  1  0
 38 29  1  0
 37 32  1  0
  3 41  1  0
  4 42  1  0
  6 43  1  0
  7 44  1  0
 14 45  1  0
 15 46  1  0
 16 47  1  0
 17 48  1  0
 18 49  1  0
 19 50  1  0
 20 51  1  0
 22 52  1  0
 22 53  1  0
 24 54  1  0
 25 55  1  0
 30 56  1  0
 30 57  1  0
 31 58  1  0
 31 59  1  0
 33 60  1  0
 34 61  1  0
 35 62  1  0
 36 63  1  0
 38 64  1  0
 38 65  1  0
 39 66  1  0
 40 67  1  0
M  CHG  1  21  -1
M  END
>  <UniqueID>  (86) 
81

>  <SMILES>  (86) 
O=C(C=Cc1ccc(OS(=O)(=O)c2ccccc2)cc1)[N-]Cc1ccc(C(=O)N2CCc3ccccc3C2)cc1

>  <Energy>  (86) 
89.33397951257636

>  <Genealogy>  (86) 
O=C(C=Cc1ccc(OS(=O)(=O)c2ccccc2)cc1)[N-]Cc1ccc(C(=O)N2CCc3ccccc3C2)cc1 (protonated)
O=C(C=Cc1ccc(OS(=O)(=O)c2ccccc2)cc1)[N-]Cc1ccc(C(=O)N2CCc3ccccc3C2)cc1 (3D coordinates assigned)
O=C(C=Cc1ccc(OS(=O)(=O)c2ccccc2)cc1)[N-]Cc1ccc(C(=O)N2CCc3ccccc3C2)cc1 (nonaromatic ring conformer: 89.33397951257636 kcal/mol)

>  <smiles>  (86) 
O=C(C=Cc1ccc(OS(=O)(=O)c2ccccc2)cc1)NCc1ccc(C(=O)N2CCc3ccccc3C2)cc1

>  <score_type>  (86) 
oracle

>  <origin>  (86) 
adg

>  <m_score__min__energy>  (86) 
-12.43

>  <m_primary>  (86) 
energy

$$$$
86:0
     RDKit          3D

 66 70  0  0  0  0  0  0  0  0999 V2000
   62.6760   33.7220   47.9800 C   0  0  0  0  0  0  0  0  0  0  0  0
   61.4460   32.9300   48.1540 N   0  0  0  0  0  0  0  0  0  0  0  0
   60.5770   33.5450   49.1870 C   0  0  0  0  0  0  0  0  0  0  0  0
   59.6120   32.5140   49.7810 C   0  0  0  0  0  0  0  0  0  0  0  0
   60.3480   31.4540   50.5020 N   0  0  0  0  0  0  0  0  0  0  0  0
   59.3720   30.0090   50.6160 S   0  0  0  0  0  0  0  0  0  0  0  0
   57.9460   30.3890   50.9050 O   0  0  0  0  0  0  0  0  0  0  0  0
   59.8710   29.1380   51.7360 O   0  0  0  0  0  0  0  0  0  0  0  0
   59.4240   29.1090   49.1010 C   0  0  0  0  0  0  0  0  0  0  0  0
   60.3560   28.0810   48.9300 C   0  0  0  0  0  0  0  0  0  0  0  0
   60.3960   27.3610   47.7350 C   0  0  0  0  0  0  0  0  0  0  0  0
   59.5030   27.6600   46.6900 C   0  0  0  0  0  0  0  0  0  0  0  0
   59.5410   26.9580   45.4750 O   0  0  0  0  0  0  0  0  0  0  0  0
   58.6170   25.9930   45.0520 C   0  0  0  0  0  0  0  0  0  0  0  0
   57.9950   26.0570   43.7940 C   0  0  0  0  0  0  0  0  0  0  0  0
   57.0640   25.0850   43.4170 C   0  0  0  0  0  0  0  0  0  0  0  0
   56.7440   24.0390   44.2950 C   0  0  0  0  0  0  0  0  0  0  0  0
   55.5810   22.7990   43.8330 S   0  0  0  0  0  0  0  0  0  0  0  0
   54.1950   22.8940   44.8600 N   0  0  0  0  0  0  0  0  0  0  0  0
   55.1500   22.9950   42.4060 O   0  0  0  0  0  0  0  0  0  0  0  0
   56.2190   21.4440   43.9630 O   0  0  0  0  0  0  0  0  0  0  0  0
   57.3470   23.9870   45.5580 C   0  0  0  0  0  0  0  0  0  0  0  0
   58.2740   24.9640   45.9360 C   0  0  0  0  0  0  0  0  0  0  0  0
   58.5290   28.6620   46.8800 C   0  0  0  0  0  0  0  0  0  0  0  0
   57.5460   28.9790   45.8230 C   0  0  0  0  0  0  0  0  0  0  0  0
   56.5510   28.2220   45.6600 O   0  0  0  0  0  0  0  0  0  0  0  0
   57.7370   30.1060   44.9510 N   0  0  0  0  0  0  0  0  0  0  0  0
   57.4310   30.0820   43.5170 C   0  0  0  0  0  0  0  0  0  0  0  0
   57.4200   31.5580   43.0520 C   0  0  0  0  0  0  0  0  0  0  0  0
   57.6950   32.3160   44.3020 C   0  0  0  0  0  0  0  0  0  0  0  0
   57.7990   33.7000   44.4630 C   0  0  0  0  0  0  0  0  0  0  0  0
   58.0900   34.2060   45.7400 C   0  0  0  0  0  0  0  0  0  0  0  0
   58.2840   33.3270   46.8220 C   0  0  0  0  0  0  0  0  0  0  0  0
   58.1810   31.9390   46.6350 C   0  0  0  0  0  0  0  0  0  0  0  0
   57.8680   31.4600   45.3560 C   0  0  0  0  0  0  0  0  0  0  0  0
   58.5140   29.3960   48.0770 C   0  0  0  0  0  0  0  0  0  0  0  0
   61.6780   31.1530   49.9230 C   0  0  0  0  0  0  0  0  0  0  0  0
   61.7650   31.5010   48.4250 C   0  0  0  0  0  0  0  0  0  0  0  0
   63.0851   33.9854   48.9665 H   0  0  0  0  0  0  0  0  0  0  0  0
   63.4169   33.1308   47.4218 H   0  0  0  0  0  0  0  0  0  0  0  0
   62.4444   34.6411   47.4218 H   0  0  0  0  0  0  0  0  0  0  0  0
   60.9290   32.9690   47.2430 H   0  0  0  0  0  0  0  0  0  0  0  0
   61.2077   33.9519   49.9912 H   0  0  0  0  0  0  0  0  0  0  0  0
   59.9870   34.3451   48.7161 H   0  0  0  0  0  0  0  0  0  0  0  0
   58.9316   33.0199   50.4817 H   0  0  0  0  0  0  0  0  0  0  0  0
   59.0449   32.0509   48.9601 H   0  0  0  0  0  0  0  0  0  0  0  0
   61.0600   27.8389   49.7398 H   0  0  0  0  0  0  0  0  0  0  0  0
   61.1319   26.5531   47.6093 H   0  0  0  0  0  0  0  0  0  0  0  0
   58.2418   26.8760   43.1024 H   0  0  0  0  0  0  0  0  0  0  0  0
   56.5814   25.1405   42.4301 H   0  0  0  0  0  0  0  0  0  0  0  0
   53.9790   21.9220   45.1740 H   0  0  0  0  0  0  0  0  0  0  0  0
   57.0909   23.1754   46.2549 H   0  0  0  0  0  0  0  0  0  0  0  0
   58.7358   24.9231   46.9335 H   0  0  0  0  0  0  0  0  0  0  0  0
   58.2014   29.5165   42.9723 H   0  0  0  0  0  0  0  0  0  0  0  0
   56.4649   29.5935   43.3218 H   0  0  0  0  0  0  0  0  0  0  0  0
   58.2031   31.7399   42.3012 H   0  0  0  0  0  0  0  0  0  0  0  0
   56.4740   31.8498   42.5724 H   0  0  0  0  0  0  0  0  0  0  0  0
   57.6561   34.3779   43.6086 H   0  0  0  0  0  0  0  0  0  0  0  0
   58.1666   35.2923   45.8952 H   0  0  0  0  0  0  0  0  0  0  0  0
   58.5174   33.7292   47.8189 H   0  0  0  0  0  0  0  0  0  0  0  0
   58.3422   31.2444   47.4726 H   0  0  0  0  0  0  0  0  0  0  0  0
   57.7801   30.2043   48.2112 H   0  0  0  0  0  0  0  0  0  0  0  0
   62.4379   31.7354   50.4646 H   0  0  0  0  0  0  0  0  0  0  0  0
   61.8479   30.0709   50.0238 H   0  0  0  0  0  0  0  0  0  0  0  0
   62.7866   31.2944   48.0732 H   0  0  0  0  0  0  0  0  0  0  0  0
   61.0234   30.8857   47.8945 H   0  0  0  0  0  0  0  0  0  0  0  0
  1  2  1  0
  2  3  1  0
  3  4  1  0
  4  5  1  0
  5  6  1  0
  6  7  2  0
  6  8  2  0
  6  9  1  0
  9 10  2  0
 10 11  1  0
 11 12  2  0
 12 13  1  0
 13 14  1  0
 14 15  2  0
 15 16  1  0
 16 17  2  0
 17 18  1  0
 18 19  1  0
 18 20  2  0
 18 21  2  0
 17 22  1  0
 22 23  2  0
 12 24  1  0
 24 25  1  0
 25 26  2  0
 25 27  1  0
 27 28  1  0
 28 29  1  0
 29 30  1  0
 30 31  2  0
 31 32  1  0
 32 33  2  0
 33 34  1  0
 34 35  2  0
 24 36  2  0
  5 37  1  0
 37 38  1  0
 38  2  1  0
 36  9  1  0
 23 14  1  0
 35 27  1  0
 35 30  1  0
  1 39  1  0
  1 40  1  0
  1 41  1  0
  2 42  1  0
  3 43  1  0
  3 44  1  0
  4 45  1  0
  4 46  1  0
 10 47  1  0
 11 48  1  0
 15 49  1  0
 16 50  1  0
 19 51  1  0
 22 52  1  0
 23 53  1  0
 28 54  1  0
 28 55  1  0
 29 56  1  0
 29 57  1  0
 31 58  1  0
 32 59  1  0
 33 60  1  0
 34 61  1  0
 36 62  1  0
 37 63  1  0
 37 64  1  0
 38 65  1  0
 38 66  1  0
M  CHG  2   2   1  19  -1
M  END
>  <UniqueID>  (87) 
82

>  <SMILES>  (87) 
C[NH+]1CCN(S(=O)(=O)c2ccc(Oc3ccc(S([NH-])(=O)=O)cc3)c(C(=O)N3CCc4ccccc43)c2)CC1

>  <Energy>  (87) 
108.05690119546651

>  <Genealogy>  (87) 
C[NH+]1CCN(S(=O)(=O)c2ccc(Oc3ccc(S([NH-])(=O)=O)cc3)c(C(=O)N3CCc4ccccc43)c2)CC1 (protonated)
C[NH+]1CCN(S(=O)(=O)c2ccc(Oc3ccc(S([NH-])(=O)=O)cc3)c(C(=O)N3CCc4ccccc43)c2)CC1 (3D coordinates assigned)
C[NH+]1CCN(S(=O)(=O)c2ccc(Oc3ccc(S([NH-])(=O)=O)cc3)c(C(=O)N3CCc4ccccc43)c2)CC1 (nonaromatic ring conformer: 108.05690119546651 kcal/mol)

>  <smiles>  (87) 
CN1CCN(S(=O)(=O)c2ccc(Oc3ccc(S(N)(=O)=O)cc3)c(C(=O)N3CCc4ccccc43)c2)CC1

>  <score_type>  (87) 
oracle

>  <origin>  (87) 
adg

>  <m_score__min__energy>  (87) 
-11.23

>  <m_primary>  (87) 
energy

$$$$
87:0
     RDKit          3D

 42 43  0  0  0  0  0  0  0  0999 V2000
   57.9707   32.0642   40.0571 H   0  0  0  0  0  0  0  0  0  0  0  0
   57.4900   32.3270   41.0110 C   0  0  0  0  0  0  0  0  0  0  0  0
   56.4829   32.7694   41.0159 H   0  0  0  0  0  0  0  0  0  0  0  0
   58.1290   32.1090   42.1630 C   0  0  0  0  0  0  0  0  0  0  0  0
   59.1357   31.6661   42.1446 H   0  0  0  0  0  0  0  0  0  0  0  0
   57.5020   32.4560   43.4850 C   0  0  0  0  0  0  0  0  0  0  0  0
   58.0041   33.3414   43.9022 H   0  0  0  0  0  0  0  0  0  0  0  0
   56.4334   32.6641   43.3275 H   0  0  0  0  0  0  0  0  0  0  0  0
   57.8950   25.5100   45.3680 N   0  0  0  0  0  0  0  0  0  0  0  0
   58.2290   26.8290   45.3230 C   0  0  0  0  0  0  0  0  0  0  0  0
   56.1990   29.8180   43.2840 C   0  0  0  0  0  0  0  0  0  0  0  0
   55.7939   28.8028   43.1608 H   0  0  0  0  0  0  0  0  0  0  0  0
   55.8649   30.6280   42.6189 H   0  0  0  0  0  0  0  0  0  0  0  0
   57.4270   29.1460   45.2800 C   0  0  0  0  0  0  0  0  0  0  0  0
   57.2120   27.8090   45.3720 C   0  0  0  0  0  0  0  0  0  0  0  0
   55.9460   27.3830   45.6230 N   0  0  0  0  0  0  0  0  0  0  0  0
   55.6060   26.0730   45.7110 C   0  0  0  0  0  0  0  0  0  0  0  0
   54.4040   25.7850   45.9440 O   0  0  0  0  0  0  0  0  0  0  0  0
   58.2750   31.4450   45.6250 C   0  0  0  0  0  0  0  0  0  0  0  0
   56.3770   23.7430   45.5690 C   0  0  0  0  0  0  0  0  0  0  0  0
   55.9759   23.3341   46.5081 H   0  0  0  0  0  0  0  0  0  0  0  0
   56.6120   22.7480   44.4480 C   0  0  0  0  0  0  0  0  0  0  0  0
   55.9501   21.8840   44.6071 H   0  0  0  0  0  0  0  0  0  0  0  0
   58.0710   22.2750   44.4570 C   0  0  0  0  0  0  0  0  0  0  0  0
   58.4140   22.1638   45.4962 H   0  0  0  0  0  0  0  0  0  0  0  0
   58.1457   21.3066   43.9406 H   0  0  0  0  0  0  0  0  0  0  0  0
   58.6997   23.0154   43.9406 H   0  0  0  0  0  0  0  0  0  0  0  0
   56.2850   23.3840   43.0890 C   0  0  0  0  0  0  0  0  0  0  0  0
   55.7873   24.3521   43.2475 H   0  0  0  0  0  0  0  0  0  0  0  0
   57.2155   23.5384   42.5230 H   0  0  0  0  0  0  0  0  0  0  0  0
   55.6180   22.7171   42.5230 H   0  0  0  0  0  0  0  0  0  0  0  0
   57.6340   31.3310   44.4330 N   0  0  0  0  0  0  0  0  0  0  0  0
   58.6740   24.8130   45.3010 H   0  0  0  0  0  0  0  0  0  0  0  0
   57.1030   30.0690   44.2480 C   0  0  0  0  0  0  0  0  0  0  0  0
   59.4500   27.1460   45.3400 O   0  0  0  0  0  0  0  0  0  0  0  0
   58.2390   30.0050   46.4840 S   0  0  0  0  0  0  0  0  0  0  0  0
   56.6060   25.0820   45.5440 C   0  0  0  0  0  0  0  0  0  0  0  0
   58.8370   32.5450   46.0360 N   0  0  0  0  0  0  0  0  0  0  0  0
   58.1080   33.6970   46.5550 C   0  0  0  0  0  0  0  0  0  0  0  0
   58.1221   33.6748   47.6547 H   0  0  0  0  0  0  0  0  0  0  0  0
   58.5851   34.6227   46.2008 H   0  0  0  0  0  0  0  0  0  0  0  0
   57.0672   33.6622   46.2008 H   0  0  0  0  0  0  0  0  0  0  0  0
  1  2  1  0
  2  3  1  0
  2  4  2  0
  4  5  1  0
  4  6  1  0
  6  7  1  0
  6  8  1  0
  6  9  1  0
  9 10  1  0
 10 11  2  0
 11 12  1  0
 11 13  1  0
 10 14  1  0
 14 15  2  3
 15 16  1  0
 16 17  1  0
 17 18  2  0
 17 19  1  0
 19 20  2  0
 20 21  1  0
 20 22  1  0
 22 23  1  0
 22 24  1  0
 24 25  1  0
 24 26  1  0
 24 27  1  0
 22 28  1  0
 28 29  1  0
 28 30  1  0
 28 31  1  0
 19 32  1  0
 32 33  1  0
 32 34  1  0
 34 35  2  0
 14 36  1  0
 36 37  1  0
 37 38  2  0
 38 39  1  0
 39 40  1  0
 39 41  1  0
 39 42  1  0
 37  9  1  0
 34 15  1  0
M  CHG  1  16  -1
M  END
>  <UniqueID>  (88) 
83

>  <SMILES>  (88) 
C=CCn1c(=C)c(=c2[n-]c(=O)/c(=C\C(C)C)[nH]c2=O)s/c1=N\C

>  <Energy>  (88) 
98.48420984656411

>  <Genealogy>  (88) 
C=CCn1c(=NC)sc(=c2[n-]c(=O)c(=CC(C)C)[nH]c2=O)c1=C (protonated)
C=CCn1c(=C)c(=c2[n-]c(=O)/c(=C\C(C)C)[nH]c2=O)s/c1=N\C (cis-trans isomerization)
C=CCn1c(=C)c(=c2[n-]c(=O)/c(=C\C(C)C)[nH]c2=O)s/c1=N\C (3D coordinates assigned)
C=CCn1c(=C)c(=c2[n-]c(=O)/c(=C\C(C)C)[nH]c2=O)s/c1=N\C (optimized conformer: 98.48420984656411 kcal/mol)

>  <smiles>  (88) 
C=CCn1c(=NC)sc(=c2[nH]c(=O)c(=CC(C)C)[nH]c2=O)c1=C

>  <score_type>  (88) 
oracle

>  <origin>  (88) 
adg

>  <m_score__min__energy>  (88) 
-9.25

>  <m_primary>  (88) 
energy

$$$$
88:0
     RDKit          3D

 71 74  0  0  0  0  0  0  0  0999 V2000
   58.5570   33.8560   53.6170 C   0  0  0  0  0  0  0  0  0  0  0  0
   59.6160   33.7240   52.5540 C   0  0  0  0  0  0  0  0  0  0  0  0
   59.2480   33.8230   51.2030 C   0  0  0  0  0  0  0  0  0  0  0  0
   60.1990   33.6910   50.1790 C   0  0  0  0  0  0  0  0  0  0  0  0
   59.7360   33.8110   48.7490 C   0  0  0  0  0  0  0  0  0  0  0  0
   61.5470   33.4120   50.5100 C   0  0  0  0  0  0  0  0  0  0  0  0
   62.7870   33.2020   49.2490 S   0  0  0  0  0  0  0  0  0  0  0  0
   62.6130   34.2670   48.2020 O   0  0  0  0  0  0  0  0  0  0  0  0
   64.1380   33.3560   49.8890 O   0  0  0  0  0  0  0  0  0  0  0  0
   62.7030   31.6380   48.4640 N   0  0  0  0  0  0  0  0  0  0  0  0
   61.9580   31.7730   47.1890 C   0  0  0  0  0  0  0  0  0  0  0  0
   61.4580   30.4220   46.6730 C   0  0  0  0  0  0  0  0  0  0  0  0
   60.5810   29.7930   47.6710 N   0  0  0  0  0  0  0  0  0  0  0  0
   59.5610   28.8540   47.2570 C   0  0  0  0  0  0  0  0  0  0  0  0
   59.4620   27.5880   47.8560 C   0  0  0  0  0  0  0  0  0  0  0  0
   58.4660   26.6930   47.4650 C   0  0  0  0  0  0  0  0  0  0  0  0
   57.5330   27.0450   46.4760 C   0  0  0  0  0  0  0  0  0  0  0  0
   56.4760   26.1270   46.1500 N   0  0  0  0  0  0  0  0  0  0  0  0
   56.6750   24.8960   46.2010 O   0  0  0  0  0  0  0  0  0  0  0  0
   55.1880   26.5850   45.9850 O   0  0  0  0  0  0  0  0  0  0  0  0
   57.6260   28.3100   45.8520 C   0  0  0  0  0  0  0  0  0  0  0  0
   56.7340   28.6620   44.7760 N   0  0  0  0  0  0  0  0  0  0  0  0
   57.0410   29.6730   43.7640 C   0  0  0  0  0  0  0  0  0  0  0  0
   56.6990   31.0780   44.3020 C   0  0  0  0  0  0  0  0  0  0  0  0
   57.8640   31.8500   44.7910 N   0  0  0  0  0  0  0  0  0  0  0  0
   57.7620   32.2380   46.2060 C   0  0  0  0  0  0  0  0  0  0  0  0
   57.6610   33.7580   46.2820 C   0  0  0  0  0  0  0  0  0  0  0  0
   57.6590   34.2510   44.8480 C   0  0  0  0  0  0  0  0  0  0  0  0
   58.1350   33.0710   44.0210 C   0  0  0  0  0  0  0  0  0  0  0  0
   58.6460   29.1960   46.2480 C   0  0  0  0  0  0  0  0  0  0  0  0
   60.7040   30.2040   49.0750 C   0  0  0  0  0  0  0  0  0  0  0  0
   62.1530   30.6060   49.3890 C   0  0  0  0  0  0  0  0  0  0  0  0
   61.9120   33.3280   51.8640 C   0  0  0  0  0  0  0  0  0  0  0  0
   60.9620   33.4640   52.8860 C   0  0  0  0  0  0  0  0  0  0  0  0
   61.4030   33.3480   54.3230 C   0  0  0  0  0  0  0  0  0  0  0  0
   59.0255   33.7976   54.6105 H   0  0  0  0  0  0  0  0  0  0  0  0
   58.0472   34.8246   53.5084 H   0  0  0  0  0  0  0  0  0  0  0  0
   57.8250   33.0421   53.5084 H   0  0  0  0  0  0  0  0  0  0  0  0
   58.1954   34.0073   50.9421 H   0  0  0  0  0  0  0  0  0  0  0  0
   58.6713   34.0869   48.7302 H   0  0  0  0  0  0  0  0  0  0  0  0
   60.3248   34.5862   48.2368 H   0  0  0  0  0  0  0  0  0  0  0  0
   59.8741   32.8474   48.2368 H   0  0  0  0  0  0  0  0  0  0  0  0
   63.6820   31.3680   48.2120 H   0  0  0  0  0  0  0  0  0  0  0  0
   61.0935   32.4337   47.3508 H   0  0  0  0  0  0  0  0  0  0  0  0
   62.6430   32.1921   46.4373 H   0  0  0  0  0  0  0  0  0  0  0  0
   60.8963   30.5744   45.7396 H   0  0  0  0  0  0  0  0  0  0  0  0
   62.3211   29.7657   46.4877 H   0  0  0  0  0  0  0  0  0  0  0  0
   60.1765   27.2992   48.6409 H   0  0  0  0  0  0  0  0  0  0  0  0
   58.4107   25.7007   47.9364 H   0  0  0  0  0  0  0  0  0  0  0  0
   55.8280   28.1500   44.6780 H   0  0  0  0  0  0  0  0  0  0  0  0
   58.1120   29.6281   43.5172 H   0  0  0  0  0  0  0  0  0  0  0  0
   56.4422   29.4755   42.8627 H   0  0  0  0  0  0  0  0  0  0  0  0
   56.2240   31.6499   43.4912 H   0  0  0  0  0  0  0  0  0  0  0  0
   56.0378   30.9282   45.1682 H   0  0  0  0  0  0  0  0  0  0  0  0
   56.8653   31.7833   46.6523 H   0  0  0  0  0  0  0  0  0  0  0  0
   58.6473   31.8898   46.7583 H   0  0  0  0  0  0  0  0  0  0  0  0
   56.7307   34.0540   46.7889 H   0  0  0  0  0  0  0  0  0  0  0  0
   58.4962   34.1884   46.8540 H   0  0  0  0  0  0  0  0  0  0  0  0
   56.6451   34.5507   44.5446 H   0  0  0  0  0  0  0  0  0  0  0  0
   58.3034   35.1326   44.7154 H   0  0  0  0  0  0  0  0  0  0  0  0
   57.5918   33.0397   43.0650 H   0  0  0  0  0  0  0  0  0  0  0  0
   59.2097   33.1601   43.8042 H   0  0  0  0  0  0  0  0  0  0  0  0
   58.7280   30.1768   45.7567 H   0  0  0  0  0  0  0  0  0  0  0  0
   60.0412   31.0619   49.2612 H   0  0  0  0  0  0  0  0  0  0  0  0
   60.4194   29.3601   49.7206 H   0  0  0  0  0  0  0  0  0  0  0  0
   62.1886   31.0040   50.4139 H   0  0  0  0  0  0  0  0  0  0  0  0
   62.7703   29.7037   49.2673 H   0  0  0  0  0  0  0  0  0  0  0  0
   62.9653   33.1518   52.1278 H   0  0  0  0  0  0  0  0  0  0  0  0
   60.5543   33.5713   54.9862 H   0  0  0  0  0  0  0  0  0  0  0  0
   61.7598   32.3255   54.5157 H   0  0  0  0  0  0  0  0  0  0  0  0
   62.2167   34.0627   54.5157 H   0  0  0  0  0  0  0  0  0  0  0  0
  1  2  1  0
  2  3  2  0
  3  4  1  0
  4  5  1  0
  4  6  2  0
  6  7  1  0
  7  8  2  0
  7  9  2  0
  7 10  1  0
 10 11  1  0
 11 12  1  0
 12 13  1  0
 13 14  1  0
 14 15  2  0
 15 16  1  0
 16 17  2  0
 17 18  1  0
 18 19  2  0
 18 20  1  0
 17 21  1  0
 21 22  1  0
 22 23  1  0
 23 24  1  0
 24 25  1  0
 25 26  1  0
 26 27  1  0
 27 28  1  0
 28 29  1  0
 21 30  2  0
 13 31  1  0
 31 32  1  0
  6 33  1  0
 33 34  2  0
 34 35  1  0
 34  2  1  0
 32 10  1  0
 30 14  1  0
 29 25  1  0
  1 36  1  0
  1 37  1  0
  1 38  1  0
  3 39  1  0
  5 40  1  0
  5 41  1  0
  5 42  1  0
 10 43  1  0
 11 44  1  0
 11 45  1  0
 12 46  1  0
 12 47  1  0
 15 48  1  0
 16 49  1  0
 22 50  1  0
 23 51  1  0
 23 52  1  0
 24 53  1  0
 24 54  1  0
 26 55  1  0
 26 56  1  0
 27 57  1  0
 27 58  1  0
 28 59  1  0
 28 60  1  0
 29 61  1  0
 29 62  1  0
 30 63  1  0
 31 64  1  0
 31 65  1  0
 32 66  1  0
 32 67  1  0
 33 68  1  0
 35 69  1  0
 35 70  1  0
 35 71  1  0
M  CHG  3  10   1  18   1  20  -1
M  END
>  <UniqueID>  (89) 
84

>  <SMILES>  (89) 
Cc1cc(C)c(S(=O)(=O)[NH+]2CCN(c3ccc([N+](=O)[O-])c(NCCN4CCCC4)c3)CC2)cc1C

>  <Energy>  (89) 
93.59169628441497

>  <Genealogy>  (89) 
Cc1cc(C)c(S(=O)(=O)[NH+]2CCN(c3ccc([N+](=O)[O-])c(NCCN4CCCC4)c3)CC2)cc1C (protonated)
Cc1cc(C)c(S(=O)(=O)[NH+]2CCN(c3ccc([N+](=O)[O-])c(NCCN4CCCC4)c3)CC2)cc1C (3D coordinates assigned)
Cc1cc(C)c(S(=O)(=O)[NH+]2CCN(c3ccc([N+](=O)[O-])c(NCCN4CCCC4)c3)CC2)cc1C (nonaromatic ring conformer: 93.59169628441497 kcal/mol)

>  <smiles>  (89) 
Cc1cc(C)c(S(=O)(=O)N2CCN(c3ccc([N+](=O)[O-])c(NCCN4CCCC4)c3)CC2)cc1C

>  <score_type>  (89) 
oracle

>  <origin>  (89) 
adg

>  <m_score__min__energy>  (89) 
-8.8800000000000008

>  <m_primary>  (89) 
energy

$$$$
