0:0
     RDKit          3D

 45 47  0  0  0  0  0  0  0  0999 V2000
   58.8770   28.8980   48.3170 C   0  0  0  0  0  0  0  0  0  0  0  0
   58.6290   30.1400   47.6690 O   0  0  0  0  0  0  0  0  0  0  0  0
   59.6040   30.8160   46.9170 C   0  0  0  0  0  0  0  0  0  0  0  0
   60.7220   30.2810   46.6940 O   0  0  0  0  0  0  0  0  0  0  0  0
   59.3160   32.1540   46.3510 C   0  0  0  0  0  0  0  0  0  0  0  0
   60.0640   33.2450   46.8290 C   0  0  0  0  0  0  0  0  0  0  0  0
   59.8870   34.5220   46.2850 C   0  0  0  0  0  0  0  0  0  0  0  0
   58.9530   34.7320   45.2730 C   0  0  0  0  0  0  0  0  0  0  0  0
   58.1910   33.6650   44.7930 C   0  0  0  0  0  0  0  0  0  0  0  0
   58.3470   32.3660   45.3190 C   0  0  0  0  0  0  0  0  0  0  0  0
   57.4690   31.2840   44.8090 C   0  0  0  0  0  0  0  0  0  0  0  0
   56.2140   31.3960   44.8640 O   0  0  0  0  0  0  0  0  0  0  0  0
   58.0460   30.1220   44.2000 N   0  0  0  0  0  0  0  0  0  0  0  0
   57.9970   28.8080   44.7760 C   0  0  0  0  0  0  0  0  0  0  0  0
   56.7610   28.2470   45.1470 C   0  0  0  0  0  0  0  0  0  0  0  0
   55.5400   28.9760   44.9940 N   0  0  0  0  0  0  0  0  0  0  0  0
   56.7200   26.9970   45.6840 N   0  0  0  0  0  0  0  0  0  0  0  0
   57.8390   26.2380   45.8690 C   0  0  0  0  0  0  0  0  0  0  0  0
   57.7180   24.9180   46.4440 N   0  0  0  0  0  0  0  0  0  0  0  0
   58.2320   23.7300   45.7470 C   0  0  0  0  0  0  0  0  0  0  0  0
   57.4060   22.5000   46.1390 C   0  0  0  0  0  0  0  0  0  0  0  0
   57.3360   22.3680   47.5490 O   0  0  0  0  0  0  0  0  0  0  0  0
   56.6250   23.4630   48.0930 C   0  0  0  0  0  0  0  0  0  0  0  0
   57.3900   24.7710   47.8680 C   0  0  0  0  0  0  0  0  0  0  0  0
   59.0930   26.7630   45.4980 C   0  0  0  0  0  0  0  0  0  0  0  0
   59.1660   28.0410   44.9410 C   0  0  0  0  0  0  0  0  0  0  0  0
   60.2820   28.4860   44.5670 O   0  0  0  0  0  0  0  0  0  0  0  0
   58.8484   29.0411   49.4073 H   0  0  0  0  0  0  0  0  0  0  0  0
   58.1064   28.1704   48.0224 H   0  0  0  0  0  0  0  0  0  0  0  0
   59.8679   28.5221   48.0224 H   0  0  0  0  0  0  0  0  0  0  0  0
   60.7944   33.0931   47.6374 H   0  0  0  0  0  0  0  0  0  0  0  0
   60.4883   35.3641   46.6583 H   0  0  0  0  0  0  0  0  0  0  0  0
   58.8157   35.7389   44.8519 H   0  0  0  0  0  0  0  0  0  0  0  0
   57.4576   33.8404   43.9921 H   0  0  0  0  0  0  0  0  0  0  0  0
   54.7140   28.5700   44.4990 H   0  0  0  0  0  0  0  0  0  0  0  0
   55.4400   29.9210   45.4280 H   0  0  0  0  0  0  0  0  0  0  0  0
   58.1622   23.8855   44.6603 H   0  0  0  0  0  0  0  0  0  0  0  0
   59.2821   23.5680   46.0316 H   0  0  0  0  0  0  0  0  0  0  0  0
   56.3880   22.6060   45.7359 H   0  0  0  0  0  0  0  0  0  0  0  0
   57.8908   21.6036   45.7250 H   0  0  0  0  0  0  0  0  0  0  0  0
   55.6408   23.5320   47.6065 H   0  0  0  0  0  0  0  0  0  0  0  0
   56.5057   23.3048   49.1750 H   0  0  0  0  0  0  0  0  0  0  0  0
   56.7661   25.6185   48.1882 H   0  0  0  0  0  0  0  0  0  0  0  0
   58.3204   24.7526   48.4545 H   0  0  0  0  0  0  0  0  0  0  0  0
   60.0076   26.1702   45.6462 H   0  0  0  0  0  0  0  0  0  0  0  0
  1  2  1  0
  2  3  1  0
  3  4  2  0
  3  5  1  0
  5  6  2  0
  6  7  1  0
  7  8  2  0
  8  9  1  0
  9 10  2  0
 10 11  1  0
 11 12  2  0
 11 13  1  0
 13 14  1  0
 14 15  2  0
 15 16  1  0
 15 17  1  0
 17 18  1  0
 18 19  1  0
 19 20  1  0
 20 21  1  0
 21 22  1  0
 22 23  1  0
 23 24  1  0
 18 25  2  0
 25 26  1  0
 26 27  2  0
 10  5  1  0
 26 14  1  0
 24 19  1  0
  1 28  1  0
  1 29  1  0
  1 30  1  0
  6 31  1  0
  7 32  1  0
  8 33  1  0
  9 34  1  0
 16 35  1  0
 16 36  1  0
 20 37  1  0
 20 38  1  0
 21 39  1  0
 21 40  1  0
 23 41  1  0
 23 42  1  0
 24 43  1  0
 24 44  1  0
 25 45  1  0
M  CHG  2  13  -1  17  -1
M  END
>  <UniqueID>  (1) 
1

>  <SMILES>  (1) 
COC(=O)c1ccccc1C(=O)[N-]c1c(N)[n-]c(N2CCOCC2)cc1=O

>  <Energy>  (1) 
64.08825824232267

>  <Genealogy>  (1) 
COC(=O)c1ccccc1C(=O)[N-]c1c(N)[n-]c(N2CCOCC2)cc1=O (protonated)
COC(=O)c1ccccc1C(=O)[N-]c1c(N)[n-]c(N2CCOCC2)cc1=O (3D coordinates assigned)
COC(=O)c1ccccc1C(=O)[N-]c1c(N)[n-]c(N2CCOCC2)cc1=O (nonaromatic ring conformer: 64.08825824232267 kcal/mol)

>  <smiles>  (1) 
COC(=O)c1ccccc1C(=O)Nc1c(N)[nH]c(N2CCOCC2)cc1=O

>  <score_type>  (1) 
oracle

>  <origin>  (1) 
adg

>  <m_score__min__energy>  (1) 
-12.039999999999999

>  <m_primary>  (1) 
energy

$$$$
1:0
     RDKit          3D

 73 78  0  0  0  0  0  0  0  0999 V2000
   57.5544   24.4964   46.5828 H   0  0  0  0  0  0  0  0  0  0  0  0
   57.7970   25.5680   46.5300 C   0  0  0  0  0  0  0  0  0  0  0  0
   58.7650   26.0880   47.3310 N   0  0  0  0  0  0  0  0  0  0  0  0
   59.0800   27.4110   47.2880 C   0  0  0  0  0  0  0  0  0  0  0  0
   60.0250   27.8650   48.0590 N   0  0  0  0  0  0  0  0  0  0  0  0
   59.9100   28.9330   49.0150 C   0  0  0  0  0  0  0  0  0  0  0  0
   61.0640   29.3780   49.6690 C   0  0  0  0  0  0  0  0  0  0  0  0
   62.0270   28.8826   49.4760 H   0  0  0  0  0  0  0  0  0  0  0  0
   61.0010   30.4480   50.5660 C   0  0  0  0  0  0  0  0  0  0  0  0
   61.9158   30.7886   51.0732 H   0  0  0  0  0  0  0  0  0  0  0  0
   59.7790   31.0930   50.8260 C   0  0  0  0  0  0  0  0  0  0  0  0
   59.7340   32.2550   51.6840 N   0  0  0  0  0  0  0  0  0  0  0  0
   59.0100   33.4570   51.2600 C   0  0  0  0  0  0  0  0  0  0  0  0
   59.6584   34.0613   50.6086 H   0  0  0  0  0  0  0  0  0  0  0  0
   58.1042   33.1570   50.7127 H   0  0  0  0  0  0  0  0  0  0  0  0
   58.6050   34.2870   52.4820 C   0  0  0  0  0  0  0  0  0  0  0  0
   58.1755   35.2414   52.1433 H   0  0  0  0  0  0  0  0  0  0  0  0
   57.8647   33.7187   53.0642 H   0  0  0  0  0  0  0  0  0  0  0  0
   59.7250   34.5490   53.3060 O   0  0  0  0  0  0  0  0  0  0  0  0
   60.2250   33.3360   53.8360 C   0  0  0  0  0  0  0  0  0  0  0  0
   61.0406   33.5598   54.5393 H   0  0  0  0  0  0  0  0  0  0  0  0
   59.4049   32.8139   54.3507 H   0  0  0  0  0  0  0  0  0  0  0  0
   60.7590   32.4280   52.7210 C   0  0  0  0  0  0  0  0  0  0  0  0
   61.6549   32.8854   52.2757 H   0  0  0  0  0  0  0  0  0  0  0  0
   61.0148   31.4458   53.1450 H   0  0  0  0  0  0  0  0  0  0  0  0
   58.6090   30.5920   50.2250 C   0  0  0  0  0  0  0  0  0  0  0  0
   57.6384   31.0591   50.4480 H   0  0  0  0  0  0  0  0  0  0  0  0
   58.6700   29.5070   49.3480 C   0  0  0  0  0  0  0  0  0  0  0  0
   57.7442   29.0995   48.9158 H   0  0  0  0  0  0  0  0  0  0  0  0
   58.4270   28.2270   46.4130 N   0  0  0  0  0  0  0  0  0  0  0  0
   57.4650   27.7500   45.5810 C   0  0  0  0  0  0  0  0  0  0  0  0
   56.7480   28.6730   44.7470 N   0  0  0  0  0  0  0  0  0  0  0  0
   57.0720   29.9000   44.4550 C   0  0  0  0  0  0  0  0  0  0  0  0
   57.0530   30.2770   43.1500 N   0  0  0  0  0  0  0  0  0  0  0  0
   57.3700   31.5350   42.7560 C   0  0  0  0  0  0  0  0  0  0  0  0
   57.3471   31.7975   41.6880 H   0  0  0  0  0  0  0  0  0  0  0  0
   57.7250   32.4970   43.7010 C   0  0  0  0  0  0  0  0  0  0  0  0
   57.9941   33.5132   43.3771 H   0  0  0  0  0  0  0  0  0  0  0  0
   57.7390   32.1680   45.0680 C   0  0  0  0  0  0  0  0  0  0  0  0
   58.0730   33.1890   46.1520 C   0  0  1  0  0  0  0  0  0  0  0  0
   57.1002   33.5910   46.4715 H   0  0  0  0  0  0  0  0  0  0  0  0
   58.6820   32.5660   47.4300 C   0  0  0  0  0  0  0  0  0  0  0  0
   58.4014   33.1956   48.2873 H   0  0  0  0  0  0  0  0  0  0  0  0
   58.2840   31.5430   47.5016 H   0  0  0  0  0  0  0  0  0  0  0  0
   60.2120   32.4410   47.4060 C   0  0  0  0  0  0  0  0  0  0  0  0
   60.5604   32.1469   48.4071 H   0  0  0  0  0  0  0  0  0  0  0  0
   60.4802   31.6841   46.6542 H   0  0  0  0  0  0  0  0  0  0  0  0
   60.8910   33.7660   47.0120 C   0  0  1  0  0  0  0  0  0  0  0  0
   60.6300   34.5460   47.7424 H   0  0  0  0  0  0  0  0  0  0  0  0
   62.3620   33.6020   47.0260 N   0  0  0  0  0  0  0  0  0  0  0  0
   62.6280   32.7700   46.4460 H   0  0  0  0  0  0  0  0  0  0  0  0
   62.8170   34.4390   46.5910 H   0  0  0  0  0  0  0  0  0  0  0  0
   62.8620   33.3900   48.3660 C   0  0  0  0  0  0  0  0  0  0  0  0
   62.4720   34.2430   49.4170 C   0  0  0  0  0  0  0  0  0  0  0  0
   61.7656   35.0633   49.2219 H   0  0  0  0  0  0  0  0  0  0  0  0
   62.9780   34.0530   50.7080 C   0  0  0  0  0  0  0  0  0  0  0  0
   62.6804   34.7324   51.5203 H   0  0  0  0  0  0  0  0  0  0  0  0
   63.8610   33.0010   50.9660 C   0  0  0  0  0  0  0  0  0  0  0  0
   64.2525   32.8491   51.9827 H   0  0  0  0  0  0  0  0  0  0  0  0
   64.2470   32.1420   49.9340 C   0  0  0  0  0  0  0  0  0  0  0  0
   64.9387   31.3120   50.1406 H   0  0  0  0  0  0  0  0  0  0  0  0
   63.7560   32.3350   48.6390 C   0  0  0  0  0  0  0  0  0  0  0  0
   64.0691   31.6599   47.8290 H   0  0  0  0  0  0  0  0  0  0  0  0
   60.3860   34.2230   45.6260 C   0  0  0  0  0  0  0  0  0  0  0  0
   60.8630   35.1800   45.3678 H   0  0  0  0  0  0  0  0  0  0  0  0
   60.6450   33.4494   44.8881 H   0  0  0  0  0  0  0  0  0  0  0  0
   58.8650   34.4060   45.6240 C   0  0  0  0  0  0  0  0  0  0  0  0
   58.6225   35.2738   46.2549 H   0  0  0  0  0  0  0  0  0  0  0  0
   58.5674   34.5414   44.5737 H   0  0  0  0  0  0  0  0  0  0  0  0
   57.3990   30.8550   45.4390 C   0  0  0  0  0  0  0  0  0  0  0  0
   57.3881   30.5718   46.5019 H   0  0  0  0  0  0  0  0  0  0  0  0
   57.1130   26.3960   45.6420 C   0  0  0  0  0  0  0  0  0  0  0  0
   56.3133   25.9944   45.0023 H   0  0  0  0  0  0  0  0  0  0  0  0
  1  2  1  0
  2  3  1  0
  3  4  1  0
  4  5  2  0
  5  6  1  0
  6  7  2  0
  7  8  1  0
  7  9  1  0
  9 10  1  0
  9 11  2  0
 11 12  1  0
 12 13  1  0
 13 14  1  0
 13 15  1  0
 13 16  1  0
 16 17  1  0
 16 18  1  0
 16 19  1  0
 19 20  1  0
 20 21  1  0
 20 22  1  0
 20 23  1  0
 23 24  1  0
 23 25  1  0
 11 26  1  0
 26 27  1  0
 26 28  2  0
 28 29  1  0
  4 30  1  0
 30 31  2  0
 31 32  1  0
 32 33  2  0
 33 34  1  0
 34 35  1  0
 35 36  1  0
 35 37  2  0
 37 38  1  0
 37 39  1  0
 39 40  1  0
 40 41  1  1
 40 42  1  0
 42 43  1  0
 42 44  1  0
 42 45  1  0
 45 46  1  0
 45 47  1  0
 45 48  1  0
 48 49  1  1
 48 50  1  0
 50 51  1  0
 50 52  1  0
 50 53  1  0
 53 54  2  0
 54 55  1  0
 54 56  1  0
 56 57  1  0
 56 58  2  0
 58 59  1  0
 58 60  1  0
 60 61  1  0
 60 62  2  0
 62 63  1  0
 48 64  1  0
 64 65  1  0
 64 66  1  0
 64 67  1  0
 67 68  1  0
 67 69  1  0
 39 70  2  0
 70 71  1  0
 31 72  1  0
 72 73  1  0
 72  2  2  0
 28  6  1  0
 70 33  1  0
 23 12  1  0
 67 40  1  0
 62 53  1  0
M  CHG  3   3  -1  34  -1  50   1
M  END
>  <UniqueID>  (2) 
2

>  <SMILES>  (2) 
c1ccc([NH2+]C2CCC(c3cc[n-]/c(=N/c4cc[n-]/c(=N/c5ccc(N6CCOCC6)cc5)n4)c3)CC2)cc1

>  <Energy>  (2) 
106.2114377287271

>  <Genealogy>  (2) 
c1ccc([NH2+]C2CCC(c3cc[n-]c(=Nc4cc[n-]c(=Nc5ccc(N6CCOCC6)cc5)n4)c3)CC2)cc1 (protonated)
c1ccc([NH2+]C2CCC(c3cc[n-]/c(=N/c4cc[n-]/c(=N/c5ccc(N6CCOCC6)cc5)n4)c3)CC2)cc1 (cis-trans isomerization)
c1ccc([NH2+]C2CCC(c3cc[n-]/c(=N/c4cc[n-]/c(=N/c5ccc(N6CCOCC6)cc5)n4)c3)CC2)cc1 (3D coordinates assigned)
c1ccc([NH2+]C2CCC(c3cc[n-]/c(=N/c4cc[n-]/c(=N/c5ccc(N6CCOCC6)cc5)n4)c3)CC2)cc1 (nonaromatic ring conformer: 106.2114377287271 kcal/mol)

>  <smiles>  (2) 
c1ccc(NC2CCC(c3cc[nH]c(=Nc4cc[nH]c(=Nc5ccc(N6CCOCC6)cc5)n4)c3)CC2)cc1

>  <score_type>  (2) 
oracle

>  <origin>  (2) 
adg

>  <m_score__min__energy>  (2) 
-12.619999999999999

>  <m_primary>  (2) 
energy

$$$$
2:0
     RDKit          3D

 42 44  0  0  0  0  0  0  0  0999 V2000
   60.3120   30.3240   46.2190 O   0  0  0  0  0  0  0  0  0  0  0  0
   59.0690   30.1090   46.2500 C   0  0  0  0  0  0  0  0  0  0  0  0
   58.1480   31.2160   46.2470 N   0  0  0  0  0  0  0  0  0  0  0  0
   58.5650   32.5910   46.1760 C   0  0  0  0  0  0  0  0  0  0  0  0
   59.0460   33.2530   47.3200 C   0  0  0  0  0  0  0  0  0  0  0  0
   59.4790   34.5800   47.2390 C   0  0  0  0  0  0  0  0  0  0  0  0
   59.4480   35.2540   46.0160 C   0  0  0  0  0  0  0  0  0  0  0  0
   59.8700   36.5400   45.9400 F   0  0  0  0  0  0  0  0  0  0  0  0
   58.9900   34.6000   44.8700 C   0  0  0  0  0  0  0  0  0  0  0  0
   58.5560   33.2710   44.9420 C   0  0  0  0  0  0  0  0  0  0  0  0
   57.9690   32.4930   43.4780 Cl  0  0  0  0  0  0  0  0  0  0  0  0
   58.5840   28.7090   46.2970 C   0  0  0  0  0  0  0  0  0  0  0  0
   59.3310   27.6960   46.9240 C   0  0  0  0  0  0  0  0  0  0  0  0
   58.8570   26.3820   46.9570 C   0  0  0  0  0  0  0  0  0  0  0  0
   57.6320   26.0560   46.3620 C   0  0  0  0  0  0  0  0  0  0  0  0
   57.0260   24.4020   46.4260 S   0  0  0  0  0  0  0  0  0  0  0  0
   55.5290   24.4300   46.2820 O   0  0  0  0  0  0  0  0  0  0  0  0
   57.3450   23.8110   47.7720 O   0  0  0  0  0  0  0  0  0  0  0  0
   57.7050   23.3850   45.1710 N   0  0  0  0  0  0  0  0  0  0  0  0
   57.4190   21.9490   45.3810 C   0  0  0  0  0  0  0  0  0  0  0  0
   56.2860   21.4260   44.4820 C   0  0  0  0  0  0  0  0  0  0  0  0
   55.3670   22.4560   44.1990 O   0  0  0  0  0  0  0  0  0  0  0  0
   55.9670   23.4090   43.3440 C   0  0  0  0  0  0  0  0  0  0  0  0
   57.3700   23.8580   43.8150 C   0  0  0  0  0  0  0  0  0  0  0  0
   56.8940   27.0560   45.7140 C   0  0  0  0  0  0  0  0  0  0  0  0
   57.3670   28.3700   45.6790 C   0  0  0  0  0  0  0  0  0  0  0  0
   57.1250   31.0290   46.3210 H   0  0  0  0  0  0  0  0  0  0  0  0
   59.0817   32.7238   48.2837 H   0  0  0  0  0  0  0  0  0  0  0  0
   59.8447   35.0941   48.1401 H   0  0  0  0  0  0  0  0  0  0  0  0
   58.9702   35.1313   43.9070 H   0  0  0  0  0  0  0  0  0  0  0  0
   60.2961   27.9399   47.3922 H   0  0  0  0  0  0  0  0  0  0  0  0
   59.4495   25.5992   47.4532 H   0  0  0  0  0  0  0  0  0  0  0  0
   58.3318   21.3742   45.1653 H   0  0  0  0  0  0  0  0  0  0  0  0
   57.0949   21.8265   46.4250 H   0  0  0  0  0  0  0  0  0  0  0  0
   56.7140   21.0534   43.5397 H   0  0  0  0  0  0  0  0  0  0  0  0
   55.7609   20.6141   45.0064 H   0  0  0  0  0  0  0  0  0  0  0  0
   56.0605   22.9677   42.3408 H   0  0  0  0  0  0  0  0  0  0  0  0
   55.3223   24.3002   43.3472 H   0  0  0  0  0  0  0  0  0  0  0  0
   58.1181   23.4630   43.1119 H   0  0  0  0  0  0  0  0  0  0  0  0
   57.3699   24.9577   43.8424 H   0  0  0  0  0  0  0  0  0  0  0  0
   55.9382   26.8050   45.2309 H   0  0  0  0  0  0  0  0  0  0  0  0
   56.7825   29.1463   45.1636 H   0  0  0  0  0  0  0  0  0  0  0  0
  1  2  2  0
  2  3  1  0
  3  4  1  0
  4  5  2  0
  5  6  1  0
  6  7  2  0
  7  8  1  0
  7  9  1  0
  9 10  2  0
 10 11  1  0
  2 12  1  0
 12 13  2  0
 13 14  1  0
 14 15  2  0
 15 16  1  0
 16 17  2  0
 16 18  2  0
 16 19  1  0
 19 20  1  0
 20 21  1  0
 21 22  1  0
 22 23  1  0
 23 24  1  0
 15 25  1  0
 25 26  2  0
 10  4  1  0
 26 12  1  0
 24 19  1  0
  3 27  1  0
  5 28  1  0
  6 29  1  0
  9 30  1  0
 13 31  1  0
 14 32  1  0
 20 33  1  0
 20 34  1  0
 21 35  1  0
 21 36  1  0
 23 37  1  0
 23 38  1  0
 24 39  1  0
 24 40  1  0
 25 41  1  0
 26 42  1  0
M  END
>  <UniqueID>  (3) 
3

>  <SMILES>  (3) 
O=C(Nc1ccc(F)cc1Cl)c1ccc(S(=O)(=O)N2CCOCC2)cc1

>  <Energy>  (3) 
62.00376824997019

>  <Genealogy>  (3) 
O=C(Nc1ccc(F)cc1Cl)c1ccc(S(=O)(=O)N2CCOCC2)cc1 (3D coordinates assigned)
O=C(Nc1ccc(F)cc1Cl)c1ccc(S(=O)(=O)N2CCOCC2)cc1 (nonaromatic ring conformer: 62.00376824997019 kcal/mol)

>  <smiles>  (3) 
O=C(Nc1ccc(F)cc1Cl)c1ccc(S(=O)(=O)N2CCOCC2)cc1

>  <score_type>  (3) 
oracle

>  <origin>  (3) 
adg

>  <m_score__min__energy>  (3) 
-8.2100000000000009

>  <m_primary>  (3) 
energy

$$$$
3:0
     RDKit          3D

 49 51  0  0  0  0  0  0  0  0999 V2000
   57.7582   28.7330   42.6877 H   0  0  0  0  0  0  0  0  0  0  0  0
   57.7600   28.6120   43.7810 C   0  0  0  0  0  0  0  0  0  0  0  0
   56.6430   29.1720   44.5570 C   0  0  0  0  0  0  0  0  0  0  0  0
   55.8950   28.4170   45.2380 O   0  0  0  0  0  0  0  0  0  0  0  0
   56.3790   30.5770   44.4730 N   0  0  0  0  0  0  0  0  0  0  0  0
   57.2390   31.6350   44.9220 C   0  0  0  0  0  0  0  0  0  0  0  0
   57.7890   31.5530   46.2070 C   0  0  0  0  0  0  0  0  0  0  0  0
   57.5554   30.6892   46.8468 H   0  0  0  0  0  0  0  0  0  0  0  0
   58.6330   32.5610   46.6830 C   0  0  0  0  0  0  0  0  0  0  0  0
   59.0711   32.4801   47.6887 H   0  0  0  0  0  0  0  0  0  0  0  0
   58.9220   33.6730   45.8830 C   0  0  0  0  0  0  0  0  0  0  0  0
   60.0220   34.9120   46.4790 S   0  0  0  0  0  0  0  0  0  0  0  0
   59.6060   35.3020   47.8690 O   0  0  0  0  0  0  0  0  0  0  0  0
   59.9860   36.1310   45.6000 O   0  0  0  0  0  0  0  0  0  0  0  0
   61.6370   34.2850   46.5210 N   0  0  0  0  0  0  0  0  0  0  0  0
   62.1710   33.4490   47.5570 C   0  0  0  0  0  0  0  0  0  0  0  0
   63.5380   33.1750   47.5630 C   0  0  0  0  0  0  0  0  0  0  0  0
   64.1850   33.5931   46.7778 H   0  0  0  0  0  0  0  0  0  0  0  0
   64.0860   32.3730   48.5610 C   0  0  0  0  0  0  0  0  0  0  0  0
   65.1638   32.1533   48.5644 H   0  0  0  0  0  0  0  0  0  0  0  0
   63.2590   31.8490   49.5580 C   0  0  0  0  0  0  0  0  0  0  0  0
   63.7680   31.1180   50.4520 O   0  0  0  0  0  0  0  0  0  0  0  0
   61.9140   32.1260   49.5590 N   0  0  0  0  0  0  0  0  0  0  0  0
   61.0290   31.5620   50.5910 C   0  0  0  0  0  0  0  0  0  0  0  0
   61.2545   32.0338   51.5588 H   0  0  0  0  0  0  0  0  0  0  0  0
   61.1976   30.4766   50.6504 H   0  0  0  0  0  0  0  0  0  0  0  0
   59.5680   31.8160   50.2370 C   0  0  0  0  0  0  0  0  0  0  0  0
   58.9794   31.9183   51.1606 H   0  0  0  0  0  0  0  0  0  0  0  0
   59.4891   32.7413   49.6475 H   0  0  0  0  0  0  0  0  0  0  0  0
   59.1814   30.9716   49.6475 H   0  0  0  0  0  0  0  0  0  0  0  0
   61.3660   32.8960   48.5680 C   0  0  0  0  0  0  0  0  0  0  0  0
   60.2822   33.0841   48.5630 H   0  0  0  0  0  0  0  0  0  0  0  0
   58.3450   33.7780   44.6100 C   0  0  0  0  0  0  0  0  0  0  0  0
   58.5539   34.6585   43.9847 H   0  0  0  0  0  0  0  0  0  0  0  0
   57.5050   32.7680   44.1320 C   0  0  0  0  0  0  0  0  0  0  0  0
   57.0504   32.8596   43.1345 H   0  0  0  0  0  0  0  0  0  0  0  0
   58.7780   27.9610   44.3550 C   0  0  0  0  0  0  0  0  0  0  0  0
   59.1619   27.0487   43.8751 H   0  0  0  0  0  0  0  0  0  0  0  0
   59.4060   28.4240   45.6120 C   0  0  0  0  0  0  0  0  0  0  0  0
   60.2620   29.5370   45.5530 C   0  0  0  0  0  0  0  0  0  0  0  0
   60.4470   30.0326   44.5886 H   0  0  0  0  0  0  0  0  0  0  0  0
   60.8800   30.0190   46.7100 C   0  0  0  0  0  0  0  0  0  0  0  0
   61.5604   30.8813   46.6501 H   0  0  0  0  0  0  0  0  0  0  0  0
   60.6360   29.4090   47.9410 C   0  0  0  0  0  0  0  0  0  0  0  0
   61.1292   29.7860   48.8491 H   0  0  0  0  0  0  0  0  0  0  0  0
   59.7650   28.3190   48.0200 C   0  0  0  0  0  0  0  0  0  0  0  0
   59.5685   27.8462   48.9936 H   0  0  0  0  0  0  0  0  0  0  0  0
   59.1400   27.8240   46.8670 C   0  0  0  0  0  0  0  0  0  0  0  0
   57.9650   26.5270   47.0620 Cl  0  0  0  0  0  0  0  0  0  0  0  0
  1  2  1  0
  2  3  1  0
  3  4  2  0
  3  5  1  0
  5  6  1  0
  6  7  2  0
  7  8  1  0
  7  9  1  0
  9 10  1  0
  9 11  2  0
 11 12  1  0
 12 13  2  0
 12 14  2  0
 12 15  1  0
 15 16  1  0
 16 17  1  0
 17 18  1  0
 17 19  2  0
 19 20  1  0
 19 21  1  0
 21 22  2  0
 21 23  1  0
 23 24  1  0
 24 25  1  0
 24 26  1  0
 24 27  1  0
 27 28  1  0
 27 29  1  0
 27 30  1  0
 23 31  1  0
 31 32  1  0
 11 33  1  0
 33 34  1  0
 33 35  2  0
 35 36  1  0
  2 37  2  0
 37 38  1  0
 37 39  1  0
 39 40  2  0
 40 41  1  0
 40 42  1  0
 42 43  1  0
 42 44  2  0
 44 45  1  0
 44 46  1  0
 46 47  1  0
 46 48  2  0
 48 49  1  0
 35  6  1  0
 48 39  1  0
 31 16  2  0
M  CHG  2   5  -1  15  -1
M  END
>  <UniqueID>  (4) 
4

>  <SMILES>  (4) 
CCn1cc([N-]S(=O)(=O)c2ccc([N-]C(=O)/C=C/c3ccccc3Cl)cc2)ccc1=O

>  <Energy>  (4) 
62.29084398144105

>  <Genealogy>  (4) 
CCn1cc([N-]S(=O)(=O)c2ccc([N-]C(=O)C=Cc3ccccc3Cl)cc2)ccc1=O (protonated)
CCn1cc([N-]S(=O)(=O)c2ccc([N-]C(=O)/C=C/c3ccccc3Cl)cc2)ccc1=O (cis-trans isomerization)
CCn1cc([N-]S(=O)(=O)c2ccc([N-]C(=O)/C=C/c3ccccc3Cl)cc2)ccc1=O (3D coordinates assigned)
CCn1cc([N-]S(=O)(=O)c2ccc([N-]C(=O)/C=C/c3ccccc3Cl)cc2)ccc1=O (optimized conformer: 62.29084398144105 kcal/mol)

>  <smiles>  (4) 
CCn1cc(NS(=O)(=O)c2ccc(NC(=O)C=Cc3ccccc3Cl)cc2)ccc1=O

>  <score_type>  (4) 
oracle

>  <origin>  (4) 
adg

>  <m_score__min__energy>  (4) 
-11.609999999999999

>  <m_primary>  (4) 
energy

$$$$
4:0
     RDKit          3D

 38 39  0  0  0  0  0  0  0  0999 V2000
   60.7840   26.7550   48.3470 C   0  0  0  0  0  0  0  0  0  0  0  0
   60.7270   26.9330   46.9360 O   0  0  0  0  0  0  0  0  0  0  0  0
   59.7380   27.6710   46.2700 C   0  0  0  0  0  0  0  0  0  0  0  0
   60.0410   28.5960   45.2530 C   0  0  0  0  0  0  0  0  0  0  0  0
   59.0160   29.3090   44.6200 C   0  0  0  0  0  0  0  0  0  0  0  0
   57.6820   29.1070   44.9930 C   0  0  0  0  0  0  0  0  0  0  0  0
   56.4050   30.0180   44.1940 S   0  0  0  0  0  0  0  0  0  0  0  0
   55.0760   29.3330   44.3550 O   0  0  0  0  0  0  0  0  0  0  0  0
   56.7240   30.1210   42.7300 O   0  0  0  0  0  0  0  0  0  0  0  0
   56.3080   31.6120   44.8700 N   0  0  0  0  0  0  0  0  0  0  0  0
   57.4290   32.4070   45.2820 C   0  0  0  0  0  0  0  0  0  0  0  0
   57.7520   33.5430   44.5340 C   0  0  0  0  0  0  0  0  0  0  0  0
   58.8330   34.3460   44.9010 C   0  0  0  0  0  0  0  0  0  0  0  0
   59.6020   34.0210   46.0210 C   0  0  0  0  0  0  0  0  0  0  0  0
   59.2940   32.8840   46.7890 C   0  0  0  0  0  0  0  0  0  0  0  0
   60.0600   32.5140   47.9510 N   0  0  0  0  0  0  0  0  0  0  0  0
   60.6720   30.9200   48.2650 S   0  0  0  0  0  0  0  0  0  0  0  0
   61.6780   30.9260   49.7340 C   0  0  0  0  0  0  0  0  0  0  0  0
   59.5340   29.9490   48.4100 O   0  0  0  0  0  0  0  0  0  0  0  0
   61.5240   30.4900   47.1050 O   0  0  0  0  0  0  0  0  0  0  0  0
   58.2070   32.0800   46.4070 C   0  0  0  0  0  0  0  0  0  0  0  0
   57.3770   28.1850   46.0040 C   0  0  0  0  0  0  0  0  0  0  0  0
   58.4010   27.4740   46.6400 C   0  0  0  0  0  0  0  0  0  0  0  0
   60.4851   27.6883   48.8467 H   0  0  0  0  0  0  0  0  0  0  0  0
   60.1001   25.9457   48.6424 H   0  0  0  0  0  0  0  0  0  0  0  0
   61.8108   26.4935   48.6424 H   0  0  0  0  0  0  0  0  0  0  0  0
   61.0871   28.7591   44.9546 H   0  0  0  0  0  0  0  0  0  0  0  0
   59.2598   30.0307   43.8265 H   0  0  0  0  0  0  0  0  0  0  0  0
   57.1507   33.8055   43.6511 H   0  0  0  0  0  0  0  0  0  0  0  0
   59.0802   35.2378   44.3063 H   0  0  0  0  0  0  0  0  0  0  0  0
   60.4531   34.6579   46.3037 H   0  0  0  0  0  0  0  0  0  0  0  0
   60.3160   33.2550   48.6430 H   0  0  0  0  0  0  0  0  0  0  0  0
   61.0295   30.9221   50.6225 H   0  0  0  0  0  0  0  0  0  0  0  0
   62.3184   30.0317   49.7435 H   0  0  0  0  0  0  0  0  0  0  0  0
   62.3076   31.8279   49.7435 H   0  0  0  0  0  0  0  0  0  0  0  0
   57.9614   31.1835   46.9952 H   0  0  0  0  0  0  0  0  0  0  0  0
   56.3300   28.0199   46.2982 H   0  0  0  0  0  0  0  0  0  0  0  0
   58.1546   26.7556   47.4358 H   0  0  0  0  0  0  0  0  0  0  0  0
  1  2  1  0
  2  3  1  0
  3  4  2  0
  4  5  1  0
  5  6  2  0
  6  7  1  0
  7  8  2  0
  7  9  2  0
  7 10  1  0
 10 11  1  0
 11 12  2  0
 12 13  1  0
 13 14  2  0
 14 15  1  0
 15 16  1  0
 16 17  1  0
 17 18  1  0
 17 19  2  0
 17 20  2  0
 15 21  2  0
  6 22  1  0
 22 23  2  0
 23  3  1  0
 21 11  1  0
  1 24  1  0
  1 25  1  0
  1 26  1  0
  4 27  1  0
  5 28  1  0
 12 29  1  0
 13 30  1  0
 14 31  1  0
 16 32  1  0
 18 33  1  0
 18 34  1  0
 18 35  1  0
 21 36  1  0
 22 37  1  0
 23 38  1  0
M  CHG  1  10  -1
M  END
>  <UniqueID>  (5) 
5

>  <SMILES>  (5) 
COc1ccc(S(=O)(=O)[N-]c2cccc(NS(C)(=O)=O)c2)cc1

>  <Energy>  (5) 
39.357699461842216

>  <Genealogy>  (5) 
COc1ccc(S(=O)(=O)[N-]c2cccc(NS(C)(=O)=O)c2)cc1 (protonated)
COc1ccc(S(=O)(=O)[N-]c2cccc(NS(C)(=O)=O)c2)cc1 (3D coordinates assigned)
COc1ccc(S(=O)(=O)[N-]c2cccc(NS(C)(=O)=O)c2)cc1 (optimized conformer: 39.357699461842216 kcal/mol)

>  <smiles>  (5) 
COc1ccc(S(=O)(=O)Nc2cccc(NS(C)(=O)=O)c2)cc1

>  <score_type>  (5) 
oracle

>  <origin>  (5) 
adg

>  <m_score__min__energy>  (5) 
-9.1699999999999999

>  <m_primary>  (5) 
energy

$$$$
5:0
     RDKit          3D

 37 38  0  0  0  0  0  0  0  0999 V2000
   61.1900   33.9170   49.6270 C   0  0  0  0  0  0  0  0  0  0  0  0
   60.4980   34.8260   48.7760 O   0  0  0  0  0  0  0  0  0  0  0  0
   59.7410   34.4450   47.6590 C   0  0  0  0  0  0  0  0  0  0  0  0
   58.6990   33.5290   47.8430 C   0  0  0  0  0  0  0  0  0  0  0  0
   57.9130   33.1180   46.7620 C   0  0  0  0  0  0  0  0  0  0  0  0
   58.1620   33.6240   45.4720 C   0  0  0  0  0  0  0  0  0  0  0  0
   57.4040   33.2450   44.3550 O   0  0  0  0  0  0  0  0  0  0  0  0
   57.5020   31.9810   43.7050 C   0  0  0  0  0  0  0  0  0  0  0  0
   56.9970   30.9170   44.6210 C   0  0  0  0  0  0  0  0  0  0  0  0
   55.8310   30.4640   44.4710 O   0  0  0  0  0  0  0  0  0  0  0  0
   57.8640   30.3980   45.6370 N   0  0  0  0  0  0  0  0  0  0  0  0
   58.2580   29.0280   45.8080 C   0  0  0  0  0  0  0  0  0  0  0  0
   59.6090   28.6380   45.8530 C   0  0  0  0  0  0  0  0  0  0  0  0
   59.9470   27.2900   46.0010 C   0  0  0  0  0  0  0  0  0  0  0  0
   58.9450   26.3210   46.0920 C   0  0  0  0  0  0  0  0  0  0  0  0
   57.5970   26.6940   46.0190 C   0  0  0  0  0  0  0  0  0  0  0  0
   56.3380   25.4680   46.1290 S   0  0  0  0  0  0  0  0  0  0  0  0
   54.7850   26.2120   45.9710 N   0  0  0  0  0  0  0  0  0  0  0  0
   56.4090   24.7790   47.4640 O   0  0  0  0  0  0  0  0  0  0  0  0
   56.5270   24.4570   45.0350 O   0  0  0  0  0  0  0  0  0  0  0  0
   57.2600   28.0470   45.8750 C   0  0  0  0  0  0  0  0  0  0  0  0
   59.2050   34.5390   45.2880 C   0  0  0  0  0  0  0  0  0  0  0  0
   59.9900   34.9500   46.3690 C   0  0  0  0  0  0  0  0  0  0  0  0
   60.9928   34.1760   50.6777 H   0  0  0  0  0  0  0  0  0  0  0  0
   60.8411   32.8925   49.4302 H   0  0  0  0  0  0  0  0  0  0  0  0
   62.2704   33.9806   49.4302 H   0  0  0  0  0  0  0  0  0  0  0  0
   58.4964   33.1286   48.8473 H   0  0  0  0  0  0  0  0  0  0  0  0
   57.0974   32.3970   46.9200 H   0  0  0  0  0  0  0  0  0  0  0  0
   56.8977   31.9923   42.7859 H   0  0  0  0  0  0  0  0  0  0  0  0
   58.5521   31.7787   43.4475 H   0  0  0  0  0  0  0  0  0  0  0  0
   60.4017   29.3963   45.7715 H   0  0  0  0  0  0  0  0  0  0  0  0
   61.0047   26.9913   46.0459 H   0  0  0  0  0  0  0  0  0  0  0  0
   59.2153   25.2626   46.2213 H   0  0  0  0  0  0  0  0  0  0  0  0
   54.7960   27.0720   46.5630 H   0  0  0  0  0  0  0  0  0  0  0  0
   56.2019   28.3413   45.8140 H   0  0  0  0  0  0  0  0  0  0  0  0
   59.4088   34.9383   44.2835 H   0  0  0  0  0  0  0  0  0  0  0  0
   60.8056   35.6710   46.2109 H   0  0  0  0  0  0  0  0  0  0  0  0
  1  2  1  0
  2  3  1  0
  3  4  2  0
  4  5  1  0
  5  6  2  0
  6  7  1  0
  7  8  1  0
  8  9  1  0
  9 10  2  0
  9 11  1  0
 11 12  1  0
 12 13  2  0
 13 14  1  0
 14 15  2  0
 15 16  1  0
 16 17  1  0
 17 18  1  0
 17 19  2  0
 17 20  2  0
 16 21  2  0
  6 22  1  0
 22 23  2  0
 23  3  1  0
 21 12  1  0
  1 24  1  0
  1 25  1  0
  1 26  1  0
  4 27  1  0
  5 28  1  0
  8 29  1  0
  8 30  1  0
 13 31  1  0
 14 32  1  0
 15 33  1  0
 18 34  1  0
 21 35  1  0
 22 36  1  0
 23 37  1  0
M  CHG  2  11  -1  18  -1
M  END
>  <UniqueID>  (6) 
6

>  <SMILES>  (6) 
COc1ccc(OCC(=O)[N-]c2cccc(S([NH-])(=O)=O)c2)cc1

>  <Energy>  (6) 
38.45756005983098

>  <Genealogy>  (6) 
COc1ccc(OCC(=O)[N-]c2cccc(S([NH-])(=O)=O)c2)cc1 (protonated)
COc1ccc(OCC(=O)[N-]c2cccc(S([NH-])(=O)=O)c2)cc1 (3D coordinates assigned)
COc1ccc(OCC(=O)[N-]c2cccc(S([NH-])(=O)=O)c2)cc1 (optimized conformer: 38.45756005983098 kcal/mol)

>  <smiles>  (6) 
COc1ccc(OCC(=O)Nc2cccc(S(N)(=O)=O)c2)cc1

>  <score_type>  (6) 
oracle

>  <origin>  (6) 
adg

>  <m_score__min__energy>  (6) 
-11.92

>  <m_primary>  (6) 
energy

$$$$
6:0
     RDKit          3D

 48 50  0  0  0  0  0  0  0  0999 V2000
   60.5960   27.4770   48.6640 C   0  0  0  0  0  0  0  0  0  0  0  0
   60.0980   26.7510   47.5440 O   0  0  0  0  0  0  0  0  0  0  0  0
   59.0190   27.1660   46.7470 C   0  0  0  0  0  0  0  0  0  0  0  0
   59.1210   28.2330   45.8360 C   0  0  0  0  0  0  0  0  0  0  0  0
   58.0190   28.6190   45.0580 C   0  0  0  0  0  0  0  0  0  0  0  0
   58.1580   29.7260   44.1480 N   0  0  0  0  0  0  0  0  0  0  0  0
   57.2680   31.2100   44.2850 S   0  0  0  0  0  0  0  0  0  0  0  0
   55.8130   30.8900   44.4900 O   0  0  0  0  0  0  0  0  0  0  0  0
   57.4260   32.0030   43.0190 O   0  0  0  0  0  0  0  0  0  0  0  0
   57.9030   32.1550   45.6300 C   0  0  0  0  0  0  0  0  0  0  0  0
   58.5680   31.6330   46.7180 C   0  0  0  0  0  0  0  0  0  0  0  0
   58.8260   32.7340   47.5130 C   0  0  0  0  0  0  0  0  0  0  0  0
   59.5080   32.7170   48.8130 C   0  0  0  0  0  0  0  0  0  0  0  0
   59.3720   33.6900   49.6030 O   0  0  0  0  0  0  0  0  0  0  0  0
   60.3180   31.5940   49.1780 N   0  0  0  0  0  0  0  0  0  0  0  0
   61.3900   31.0690   48.3410 C   0  0  0  0  0  0  0  0  0  0  0  0
   62.1760   32.1910   47.7420 C   0  0  0  0  0  0  0  0  0  0  0  0
   63.4320   32.6000   48.1430 C   0  0  0  0  0  0  0  0  0  0  0  0
   63.7670   33.6400   47.3040 C   0  0  0  0  0  0  0  0  0  0  0  0
   62.6990   33.7970   46.4420 C   0  0  0  0  0  0  0  0  0  0  0  0
   61.7670   32.9160   46.7250 O   0  0  0  0  0  0  0  0  0  0  0  0
   58.3450   33.8510   46.9300 N   0  0  0  0  0  0  0  0  0  0  0  0
   57.7940   33.4920   45.7810 N   0  0  0  0  0  0  0  0  0  0  0  0
   57.1320   34.4290   44.8810 C   0  0  0  0  0  0  0  0  0  0  0  0
   56.8070   27.9160   45.1930 C   0  0  0  0  0  0  0  0  0  0  0  0
   56.6930   26.8550   46.1080 C   0  0  0  0  0  0  0  0  0  0  0  0
   55.4970   26.1420   46.2870 O   0  0  0  0  0  0  0  0  0  0  0  0
   55.2290   24.8630   45.7210 C   0  0  0  0  0  0  0  0  0  0  0  0
   57.8040   26.4880   46.8730 C   0  0  0  0  0  0  0  0  0  0  0  0
   60.2630   26.9915   49.5932 H   0  0  0  0  0  0  0  0  0  0  0  0
   61.6954   27.4920   48.6318 H   0  0  0  0  0  0  0  0  0  0  0  0
   60.2141   28.5081   48.6318 H   0  0  0  0  0  0  0  0  0  0  0  0
   60.0751   28.7706   45.7324 H   0  0  0  0  0  0  0  0  0  0  0  0
   58.8770   29.6750   43.3910 H   0  0  0  0  0  0  0  0  0  0  0  0
   58.8325   30.5826   46.9097 H   0  0  0  0  0  0  0  0  0  0  0  0
   62.0570   30.4452   48.9542 H   0  0  0  0  0  0  0  0  0  0  0  0
   60.9507   30.4673   47.5317 H   0  0  0  0  0  0  0  0  0  0  0  0
   64.0381   32.1830   48.9608 H   0  0  0  0  0  0  0  0  0  0  0  0
   64.6972   34.2270   47.3177 H   0  0  0  0  0  0  0  0  0  0  0  0
   62.6383   34.5469   45.6395 H   0  0  0  0  0  0  0  0  0  0  0  0
   56.5962   35.1874   45.4707 H   0  0  0  0  0  0  0  0  0  0  0  0
   57.8838   34.9215   44.2467 H   0  0  0  0  0  0  0  0  0  0  0  0
   56.4167   33.8850   44.2467 H   0  0  0  0  0  0  0  0  0  0  0  0
   55.9411   28.1995   44.5768 H   0  0  0  0  0  0  0  0  0  0  0  0
   55.0755   24.1303   46.5269 H   0  0  0  0  0  0  0  0  0  0  0  0
   54.3232   24.9196   45.0994 H   0  0  0  0  0  0  0  0  0  0  0  0
   56.0813   24.5512   45.0994 H   0  0  0  0  0  0  0  0  0  0  0  0
   57.7204   25.6533   47.5845 H   0  0  0  0  0  0  0  0  0  0  0  0
  1  2  1  0
  2  3  1  0
  3  4  2  0
  4  5  1  0
  5  6  1  0
  6  7  1  0
  7  8  2  0
  7  9  2  0
  7 10  1  0
 10 11  2  0
 11 12  1  0
 12 13  1  0
 13 14  2  0
 13 15  1  0
 15 16  1  0
 16 17  1  0
 17 18  2  0
 18 19  1  0
 19 20  2  0
 20 21  1  0
 12 22  2  0
 22 23  1  0
 23 24  1  0
  5 25  2  0
 25 26  1  0
 26 27  1  0
 27 28  1  0
 26 29  2  0
 29  3  1  0
 23 10  1  0
 21 17  1  0
  1 30  1  0
  1 31  1  0
  1 32  1  0
  4 33  1  0
  6 34  1  0
 11 35  1  0
 16 36  1  0
 16 37  1  0
 18 38  1  0
 19 39  1  0
 20 40  1  0
 24 41  1  0
 24 42  1  0
 24 43  1  0
 25 44  1  0
 28 45  1  0
 28 46  1  0
 28 47  1  0
 29 48  1  0
M  CHG  1  15  -1
M  END
>  <UniqueID>  (7) 
7

>  <SMILES>  (7) 
COc1cc(NS(=O)(=O)c2cc(C(=O)[N-]Cc3ccco3)nn2C)cc(OC)c1

>  <Energy>  (7) 
101.66713270894546

>  <Genealogy>  (7) 
COc1cc(NS(=O)(=O)c2cc(C(=O)[N-]Cc3ccco3)nn2C)cc(OC)c1 (protonated)
COc1cc(NS(=O)(=O)c2cc(C(=O)[N-]Cc3ccco3)nn2C)cc(OC)c1 (3D coordinates assigned)
COc1cc(NS(=O)(=O)c2cc(C(=O)[N-]Cc3ccco3)nn2C)cc(OC)c1 (optimized conformer: 101.66713270894546 kcal/mol)

>  <smiles>  (7) 
COc1cc(NS(=O)(=O)c2cc(C(=O)NCc3ccco3)nn2C)cc(OC)c1

>  <score_type>  (7) 
oracle

>  <origin>  (7) 
adg

>  <m_score__min__energy>  (7) 
-9.8300000000000001

>  <m_primary>  (7) 
energy

$$$$
7:0
     RDKit          3D

 47 49  0  0  0  0  0  0  0  0999 V2000
   58.9620   29.7430   49.7620 C   0  0  0  0  0  0  0  0  0  0  0  0
   59.8930   30.2100   48.7170 N   0  0  0  0  0  0  0  0  0  0  0  0
   59.8180   29.7050   47.4360 C   0  0  0  0  0  0  0  0  0  0  0  0
   58.8690   28.6290   47.0650 C   0  0  0  0  0  0  0  0  0  0  0  0
   57.8940   28.8560   46.0810 C   0  0  0  0  0  0  0  0  0  0  0  0
   57.0050   27.8380   45.7230 C   0  0  0  0  0  0  0  0  0  0  0  0
   57.0900   26.5800   46.3340 C   0  0  0  0  0  0  0  0  0  0  0  0
   55.9560   25.3060   45.8950 S   0  0  0  0  0  0  0  0  0  0  0  0
   56.5420   24.4710   44.4390 C   0  0  0  0  0  0  0  0  0  0  0  0
   55.8350   24.3210   47.0250 O   0  0  0  0  0  0  0  0  0  0  0  0
   54.6020   25.8980   45.6260 O   0  0  0  0  0  0  0  0  0  0  0  0
   58.0650   26.3500   47.3140 C   0  0  0  0  0  0  0  0  0  0  0  0
   58.9550   27.3660   47.6720 C   0  0  0  0  0  0  0  0  0  0  0  0
   60.6650   30.1990   46.4390 C   0  0  0  0  0  0  0  0  0  0  0  0
   61.6110   31.1640   46.7470 C   0  0  0  0  0  0  0  0  0  0  0  0
   61.7370   31.6450   48.0570 C   0  0  0  0  0  0  0  0  0  0  0  0
   62.7810   32.6660   48.3590 C   0  0  0  0  0  0  0  0  0  0  0  0
   63.9730   32.3030   48.5600 O   0  0  0  0  0  0  0  0  0  0  0  0
   62.4520   34.0590   48.4290 N   0  0  0  0  0  0  0  0  0  0  0  0
   61.1420   34.5640   48.8270 C   0  0  0  0  0  0  0  0  0  0  0  0
   60.1220   34.2630   47.7640 C   0  0  0  0  0  0  0  0  0  0  0  0
   58.9260   33.6090   48.1030 C   0  0  0  0  0  0  0  0  0  0  0  0
   57.9840   33.3070   47.1160 C   0  0  0  0  0  0  0  0  0  0  0  0
   58.2300   33.6510   45.7840 C   0  0  0  0  0  0  0  0  0  0  0  0
   57.3150   33.3560   44.8260 F   0  0  0  0  0  0  0  0  0  0  0  0
   59.4200   34.2970   45.4380 C   0  0  0  0  0  0  0  0  0  0  0  0
   60.3650   34.6020   46.4220 C   0  0  0  0  0  0  0  0  0  0  0  0
   60.8560   31.1400   49.0430 C   0  0  0  0  0  0  0  0  0  0  0  0
   60.9540   31.5480   50.2340 O   0  0  0  0  0  0  0  0  0  0  0  0
   59.3872   29.9563   50.7538 H   0  0  0  0  0  0  0  0  0  0  0  0
   57.9996   30.2651   49.6556 H   0  0  0  0  0  0  0  0  0  0  0  0
   58.8050   28.6595   49.6556 H   0  0  0  0  0  0  0  0  0  0  0  0
   57.8292   29.8381   45.5899 H   0  0  0  0  0  0  0  0  0  0  0  0
   56.2361   28.0254   44.9590 H   0  0  0  0  0  0  0  0  0  0  0  0
   57.1508   23.6035   44.7338 H   0  0  0  0  0  0  0  0  0  0  0  0
   55.6837   24.1305   43.8412 H   0  0  0  0  0  0  0  0  0  0  0  0
   57.1541   25.1623   43.8412 H   0  0  0  0  0  0  0  0  0  0  0  0
   58.1299   25.3667   47.8029 H   0  0  0  0  0  0  0  0  0  0  0  0
   59.7264   27.1754   48.4327 H   0  0  0  0  0  0  0  0  0  0  0  0
   60.5804   29.8214   45.4093 H   0  0  0  0  0  0  0  0  0  0  0  0
   62.2683   31.5555   45.9566 H   0  0  0  0  0  0  0  0  0  0  0  0
   60.8381   34.0826   49.7683 H   0  0  0  0  0  0  0  0  0  0  0  0
   61.2050   35.6536   48.9643 H   0  0  0  0  0  0  0  0  0  0  0  0
   58.7301   33.3334   49.1498 H   0  0  0  0  0  0  0  0  0  0  0  0
   57.0476   32.7978   47.3878 H   0  0  0  0  0  0  0  0  0  0  0  0
   59.6135   34.5661   44.3891 H   0  0  0  0  0  0  0  0  0  0  0  0
   61.3013   35.1087   46.1451 H   0  0  0  0  0  0  0  0  0  0  0  0
  1  2  1  0
  2  3  1  0
  3  4  1  0
  4  5  2  0
  5  6  1  0
  6  7  2  0
  7  8  1  0
  8  9  1  0
  8 10  2  0
  8 11  2  0
  7 12  1  0
 12 13  2  0
  3 14  2  0
 14 15  1  0
 15 16  2  0
 16 17  1  0
 17 18  2  0
 17 19  1  0
 19 20  1  0
 20 21  1  0
 21 22  2  0
 22 23  1  0
 23 24  2  0
 24 25  1  0
 24 26  1  0
 26 27  2  0
 16 28  1  0
 28 29  2  0
 28  2  1  0
 13  4  1  0
 27 21  1  0
  1 30  1  0
  1 31  1  0
  1 32  1  0
  5 33  1  0
  6 34  1  0
  9 35  1  0
  9 36  1  0
  9 37  1  0
 12 38  1  0
 13 39  1  0
 14 40  1  0
 15 41  1  0
 20 42  1  0
 20 43  1  0
 22 44  1  0
 23 45  1  0
 26 46  1  0
 27 47  1  0
M  CHG  1  19  -1
M  END
>  <UniqueID>  (8) 
8

>  <SMILES>  (8) 
Cn1c(-c2ccc(S(C)(=O)=O)cc2)ccc(C(=O)[N-]Cc2ccc(F)cc2)c1=O

>  <Energy>  (8) 
59.30608299089283

>  <Genealogy>  (8) 
Cn1c(-c2ccc(S(C)(=O)=O)cc2)ccc(C(=O)[N-]Cc2ccc(F)cc2)c1=O (protonated)
Cn1c(-c2ccc(S(C)(=O)=O)cc2)ccc(C(=O)[N-]Cc2ccc(F)cc2)c1=O (3D coordinates assigned)
Cn1c(-c2ccc(S(C)(=O)=O)cc2)ccc(C(=O)[N-]Cc2ccc(F)cc2)c1=O (optimized conformer: 59.30608299089283 kcal/mol)

>  <smiles>  (8) 
Cn1c(-c2ccc(S(C)(=O)=O)cc2)ccc(C(=O)NCc2ccc(F)cc2)c1=O

>  <score_type>  (8) 
oracle

>  <origin>  (8) 
adg

>  <m_score__min__energy>  (8) 
-9.4700000000000006

>  <m_primary>  (8) 
energy

$$$$
8:0
     RDKit          3D

 42 44  0  0  0  0  0  0  0  0999 V2000
   65.9400   32.7170   49.9490 C   0  0  0  0  0  0  0  0  0  0  0  0
   64.5890   33.0970   49.4350 C   0  0  0  0  0  0  0  0  0  0  0  0
   63.8610   33.8640   50.1220 O   0  0  0  0  0  0  0  0  0  0  0  0
   64.1260   32.5750   48.1780 N   0  0  0  0  0  0  0  0  0  0  0  0
   62.8030   32.7760   47.6480 C   0  0  0  0  0  0  0  0  0  0  0  0
   61.7690   31.9140   48.0440 C   0  0  0  0  0  0  0  0  0  0  0  0
   60.4700   32.0950   47.5600 C   0  0  0  0  0  0  0  0  0  0  0  0
   60.1870   33.1500   46.6810 C   0  0  0  0  0  0  0  0  0  0  0  0
   58.5600   33.3730   46.0450 S   0  0  0  0  0  0  0  0  0  0  0  0
   57.5340   33.2280   47.1330 O   0  0  0  0  0  0  0  0  0  0  0  0
   58.4550   34.7490   45.4510 O   0  0  0  0  0  0  0  0  0  0  0  0
   58.2480   32.1980   44.8090 N   0  0  0  0  0  0  0  0  0  0  0  0
   57.8150   30.8510   45.0410 C   0  0  0  0  0  0  0  0  0  0  0  0
   58.5540   30.0530   45.9180 C   0  0  0  0  0  0  0  0  0  0  0  0
   58.1550   28.7410   46.1930 C   0  0  0  0  0  0  0  0  0  0  0  0
   57.0050   28.2020   45.5870 C   0  0  0  0  0  0  0  0  0  0  0  0
   56.5600   26.8180   45.8750 C   0  0  0  0  0  0  0  0  0  0  0  0
   57.3630   25.7080   46.0690 C   0  0  0  0  0  0  0  0  0  0  0  0
   56.4680   24.6890   46.3160 C   0  0  0  0  0  0  0  0  0  0  0  0
   56.8050   23.2870   46.5960 C   0  0  0  0  0  0  0  0  0  0  0  0
   57.3660   22.9210   47.8550 N   0  0  0  0  0  0  0  0  0  0  0  0
   56.5980   22.4020   45.7220 O   0  0  0  0  0  0  0  0  0  0  0  0
   55.2090   25.1640   46.2700 N   0  0  0  0  0  0  0  0  0  0  0  0
   55.2650   26.4590   46.0030 N   0  0  0  0  0  0  0  0  0  0  0  0
   56.2740   29.0040   44.6930 C   0  0  0  0  0  0  0  0  0  0  0  0
   56.6720   30.3150   44.4220 C   0  0  0  0  0  0  0  0  0  0  0  0
   61.2080   34.0300   46.3070 C   0  0  0  0  0  0  0  0  0  0  0  0
   62.5070   33.8520   46.7920 C   0  0  0  0  0  0  0  0  0  0  0  0
   65.9281   32.7203   51.0489 H   0  0  0  0  0  0  0  0  0  0  0  0
   66.1999   31.7109   49.5882 H   0  0  0  0  0  0  0  0  0  0  0  0
   66.6863   33.4401   49.5882 H   0  0  0  0  0  0  0  0  0  0  0  0
   64.8190   32.0700   47.5790 H   0  0  0  0  0  0  0  0  0  0  0  0
   61.9821   31.0897   48.7405 H   0  0  0  0  0  0  0  0  0  0  0  0
   59.6683   31.4083   47.8694 H   0  0  0  0  0  0  0  0  0  0  0  0
   59.4572   30.4600   46.3962 H   0  0  0  0  0  0  0  0  0  0  0  0
   58.7447   28.1257   46.8884 H   0  0  0  0  0  0  0  0  0  0  0  0
   58.4610   25.6517   46.0342 H   0  0  0  0  0  0  0  0  0  0  0  0
   58.1180   23.4990   48.2930 H   0  0  0  0  0  0  0  0  0  0  0  0
   55.3790   28.5945   44.2017 H   0  0  0  0  0  0  0  0  0  0  0  0
   56.0889   30.9307   43.7214 H   0  0  0  0  0  0  0  0  0  0  0  0
   60.9876   34.8666   45.6276 H   0  0  0  0  0  0  0  0  0  0  0  0
   63.3009   34.5564   46.5030 H   0  0  0  0  0  0  0  0  0  0  0  0
  1  2  1  0
  2  3  2  0
  2  4  1  0
  4  5  1  0
  5  6  2  0
  6  7  1  0
  7  8  2  0
  8  9  1  0
  9 10  2  0
  9 11  2  0
  9 12  1  0
 12 13  1  0
 13 14  2  0
 14 15  1  0
 15 16  2  0
 16 17  1  0
 17 18  1  0
 18 19  2  0
 19 20  1  0
 20 21  1  0
 20 22  2  0
 19 23  1  0
 23 24  1  0
 16 25  1  0
 25 26  2  0
  8 27  1  0
 27 28  2  0
 28  5  1  0
 26 13  1  0
 24 17  2  0
  1 29  1  0
  1 30  1  0
  1 31  1  0
  4 32  1  0
  6 33  1  0
  7 34  1  0
 14 35  1  0
 15 36  1  0
 18 37  1  0
 21 38  1  0
 25 39  1  0
 26 40  1  0
 27 41  1  0
 28 42  1  0
M  CHG  3  12  -1  21  -1  23  -1
M  END
>  <UniqueID>  (9) 
9

>  <SMILES>  (9) 
CC(=O)Nc1ccc(S(=O)(=O)[N-]c2ccc(-c3cc(C([NH-])=O)[n-]n3)cc2)cc1

>  <Energy>  (9) 
78.55277467757726

>  <Genealogy>  (9) 
CC(=O)Nc1ccc(S(=O)(=O)[N-]c2ccc(-c3cc(C([NH-])=O)[n-]n3)cc2)cc1 (protonated)
CC(=O)Nc1ccc(S(=O)(=O)[N-]c2ccc(-c3cc(C([NH-])=O)[n-]n3)cc2)cc1 (3D coordinates assigned)
CC(=O)Nc1ccc(S(=O)(=O)[N-]c2ccc(-c3cc(C([NH-])=O)[n-]n3)cc2)cc1 (optimized conformer: 78.55277467757726 kcal/mol)

>  <smiles>  (9) 
CC(=O)Nc1ccc(S(=O)(=O)Nc2ccc(-c3cc(C(N)=O)[nH]n3)cc2)cc1

>  <score_type>  (9) 
oracle

>  <origin>  (9) 
adg

>  <m_score__min__energy>  (9) 
-14.039999999999999

>  <m_primary>  (9) 
energy

$$$$
9:0
     RDKit          3D

 47 50  0  0  0  0  0  0  0  0999 V2000
   59.6880   35.0520   46.3050 C   0  0  0  0  0  0  0  0  0  0  0  0
   59.3560   34.7430   44.9730 O   0  0  0  0  0  0  0  0  0  0  0  0
   58.6630   33.5660   44.7180 C   0  0  0  0  0  0  0  0  0  0  0  0
   58.4890   33.0970   43.4170 C   0  0  0  0  0  0  0  0  0  0  0  0
   57.8000   31.9230   43.1520 C   0  0  0  0  0  0  0  0  0  0  0  0
   57.2780   31.2110   44.2050 C   0  0  0  0  0  0  0  0  0  0  0  0
   56.3810   29.7040   43.9720 S   0  0  0  0  0  0  0  0  0  0  0  0
   55.9100   29.7110   42.5560 O   0  0  0  0  0  0  0  0  0  0  0  0
   55.1580   29.6990   44.8750 O   0  0  0  0  0  0  0  0  0  0  0  0
   57.4110   28.3950   44.3540 N   0  0  0  0  0  0  0  0  0  0  0  0
   58.2340   28.2750   45.4860 C   0  0  0  0  0  0  0  0  0  0  0  0
   59.0600   29.2580   45.9790 C   0  0  0  0  0  0  0  0  0  0  0  0
   59.8630   29.0590   47.1100 C   0  0  0  0  0  0  0  0  0  0  0  0
   60.7240   30.1560   47.5800 C   0  0  0  0  0  0  0  0  0  0  0  0
   61.0840   30.1910   48.9200 C   0  0  0  0  0  0  0  0  0  0  0  0
   61.8900   31.1860   49.4450 C   0  0  0  0  0  0  0  0  0  0  0  0
   62.3450   32.1710   48.5950 C   0  0  0  0  0  0  0  0  0  0  0  0
   63.1530   33.2720   48.8420 C   0  0  0  0  0  0  0  0  0  0  0  0
   63.2760   33.8950   47.6520 N   0  0  0  0  0  0  0  0  0  0  0  0
   62.5900   33.2270   46.7230 N   0  0  0  0  0  0  0  0  0  0  0  0
   61.9930   32.1460   47.2600 C   0  0  0  0  0  0  0  0  0  0  0  0
   61.1850   31.1480   46.7430 C   0  0  0  0  0  0  0  0  0  0  0  0
   59.8230   27.8390   47.7490 C   0  0  0  0  0  0  0  0  0  0  0  0
   59.0270   26.8830   47.2770 N   0  0  0  0  0  0  0  0  0  0  0  0
   58.2540   27.0650   46.1950 C   0  0  0  0  0  0  0  0  0  0  0  0
   57.4340   26.0410   45.7320 O   0  0  0  0  0  0  0  0  0  0  0  0
   56.6630   25.2980   46.6580 C   0  0  0  0  0  0  0  0  0  0  0  0
   57.4280   31.6410   45.5220 C   0  0  0  0  0  0  0  0  0  0  0  0
   58.1200   32.8140   45.7390 C   0  0  0  0  0  0  0  0  0  0  0  0
   59.0559   34.4637   46.9864 H   0  0  0  0  0  0  0  0  0  0  0  0
   60.7457   34.8095   46.4850 H   0  0  0  0  0  0  0  0  0  0  0  0
   59.5219   36.1244   46.4850 H   0  0  0  0  0  0  0  0  0  0  0  0
   58.9089   33.6728   42.5791 H   0  0  0  0  0  0  0  0  0  0  0  0
   57.6737   31.5684   42.1184 H   0  0  0  0  0  0  0  0  0  0  0  0
   57.4310   27.5980   43.6650 H   0  0  0  0  0  0  0  0  0  0  0  0
   59.0913   30.2321   45.4689 H   0  0  0  0  0  0  0  0  0  0  0  0
   60.7154   29.3993   49.5888 H   0  0  0  0  0  0  0  0  0  0  0  0
   62.1601   31.1906   50.5113 H   0  0  0  0  0  0  0  0  0  0  0  0
   63.5977   33.5722   49.8023 H   0  0  0  0  0  0  0  0  0  0  0  0
   63.8320   34.7770   47.4800 H   0  0  0  0  0  0  0  0  0  0  0  0
   60.9144   31.1472   45.6768 H   0  0  0  0  0  0  0  0  0  0  0  0
   60.4424   27.6573   48.6397 H   0  0  0  0  0  0  0  0  0  0  0  0
   56.9518   25.5763   47.6823 H   0  0  0  0  0  0  0  0  0  0  0  0
   55.5958   25.5169   46.5056 H   0  0  0  0  0  0  0  0  0  0  0  0
   56.8423   24.2235   46.5056 H   0  0  0  0  0  0  0  0  0  0  0  0
   57.0088   31.0645   46.3598 H   0  0  0  0  0  0  0  0  0  0  0  0
   58.2447   33.1661   46.7737 H   0  0  0  0  0  0  0  0  0  0  0  0
  1  2  1  0
  2  3  1  0
  3  4  2  0
  4  5  1  0
  5  6  2  0
  6  7  1  0
  7  8  2  0
  7  9  2  0
  7 10  1  0
 10 11  1  0
 11 12  2  0
 12 13  1  0
 13 14  1  0
 14 15  1  0
 15 16  2  0
 16 17  1  0
 17 18  2  0
 18 19  1  0
 19 20  1  0
 20 21  2  0
 21 22  1  0
 13 23  2  0
 23 24  1  0
 24 25  2  0
 25 26  1  0
 26 27  1  0
  6 28  1  0
 28 29  2  0
 29  3  1  0
 25 11  1  0
 22 14  2  0
 21 17  1  0
  1 30  1  0
  1 31  1  0
  1 32  1  0
  4 33  1  0
  5 34  1  0
 10 35  1  0
 12 36  1  0
 15 37  1  0
 16 38  1  0
 18 39  1  0
 19 40  1  0
 22 41  1  0
 23 42  1  0
 27 43  1  0
 27 44  1  0
 27 45  1  0
 28 46  1  0
 29 47  1  0
M  END
>  <smiles>  (10) 
COc1ccc(S(=O)(=O)Nc2cc(-c3ccc4c[nH]nc4c3)cnc2OC)cc1

>  <score_type>  (10) 
oracle

>  <origin>  (10) 
adg

>  <m_score__min__energy>  (10) 
-8.8000000000000007

>  <m_primary>  (10) 
energy

$$$$
10:0
     RDKit          3D

 36 37  0  0  0  0  0  0  0  0999 V2000
   59.3100   34.4260   47.3760 C   0  0  0  0  0  0  0  0  0  0  0  0
   59.6250   34.9150   45.9640 C   0  0  0  0  0  0  0  0  0  0  0  0
   58.6900   34.2940   44.9010 C   0  0  0  0  0  0  0  0  0  0  0  0
   58.1490   32.9100   45.3020 C   0  0  0  0  0  0  0  0  0  0  0  0
   57.7530   32.0270   44.1040 C   0  0  0  0  0  0  0  0  0  0  0  0
   57.9680   30.5530   44.3870 C   0  0  0  0  0  0  0  0  0  0  0  0
   58.8990   30.1780   45.3660 C   0  0  0  0  0  0  0  0  0  0  0  0
   59.1030   28.8310   45.6730 C   0  0  0  0  0  0  0  0  0  0  0  0
   60.0300   28.4460   46.6540 C   0  0  0  0  0  0  0  0  0  0  0  0
   60.2190   27.0920   46.9430 C   0  0  0  0  0  0  0  0  0  0  0  0
   59.4880   26.1180   46.2580 C   0  0  0  0  0  0  0  0  0  0  0  0
   58.5630   26.4930   45.2790 C   0  0  0  0  0  0  0  0  0  0  0  0
   58.3630   27.8510   44.9790 C   0  0  0  0  0  0  0  0  0  0  0  0
   57.4630   28.2260   44.0260 N   0  0  0  0  0  0  0  0  0  0  0  0
   57.2380   29.5380   43.7160 C   0  0  0  0  0  0  0  0  0  0  0  0
   56.2550   29.8700   42.6230 C   0  0  0  0  0  0  0  0  0  0  0  0
   59.7537   35.1147   48.1100 H   0  0  0  0  0  0  0  0  0  0  0  0
   58.2197   34.3919   47.5175 H   0  0  0  0  0  0  0  0  0  0  0  0
   59.7298   33.4191   47.5175 H   0  0  0  0  0  0  0  0  0  0  0  0
   59.5134   36.0090   45.9363 H   0  0  0  0  0  0  0  0  0  0  0  0
   60.6538   34.6076   45.7252 H   0  0  0  0  0  0  0  0  0  0  0  0
   57.8371   34.9714   44.7473 H   0  0  0  0  0  0  0  0  0  0  0  0
   59.2823   34.1597   43.9838 H   0  0  0  0  0  0  0  0  0  0  0  0
   58.9273   32.3864   45.8766 H   0  0  0  0  0  0  0  0  0  0  0  0
   57.2353   33.0810   45.8901 H   0  0  0  0  0  0  0  0  0  0  0  0
   56.6896   32.1933   43.8768 H   0  0  0  0  0  0  0  0  0  0  0  0
   58.3910   32.3053   43.2522 H   0  0  0  0  0  0  0  0  0  0  0  0
   59.4736   30.9514   45.8968 H   0  0  0  0  0  0  0  0  0  0  0  0
   60.6076   29.2099   47.1952 H   0  0  0  0  0  0  0  0  0  0  0  0
   60.9457   26.7919   47.7123 H   0  0  0  0  0  0  0  0  0  0  0  0
   59.6407   25.0535   46.4895 H   0  0  0  0  0  0  0  0  0  0  0  0
   57.9901   25.7226   44.7420 H   0  0  0  0  0  0  0  0  0  0  0  0
   56.9310   27.4840   43.5160 H   0  0  0  0  0  0  0  0  0  0  0  0
   55.3032   30.1915   43.0711 H   0  0  0  0  0  0  0  0  0  0  0  0
   56.6595   30.6814   42.0001 H   0  0  0  0  0  0  0  0  0  0  0  0
   56.0847   28.9795   42.0001 H   0  0  0  0  0  0  0  0  0  0  0  0
  1  2  1  0
  2  3  1  0
  3  4  1  0
  4  5  1  0
  5  6  1  0
  6  7  2  0
  7  8  1  0
  8  9  2  0
  9 10  1  0
 10 11  2  0
 11 12  1  0
 12 13  2  0
 13 14  1  0
 14 15  2  0
 15 16  1  0
 15  6  1  0
 13  8  1  0
  1 17  1  0
  1 18  1  0
  1 19  1  0
  2 20  1  0
  2 21  1  0
  3 22  1  0
  3 23  1  0
  4 24  1  0
  4 25  1  0
  5 26  1  0
  5 27  1  0
  7 28  1  0
  9 29  1  0
 10 30  1  0
 11 31  1  0
 12 32  1  0
 14 33  1  0
 16 34  1  0
 16 35  1  0
 16 36  1  0
M  CHG  1  14   1
M  END
>  <UniqueID>  (11) 
10

>  <SMILES>  (11) 
CCCCCc1cc2ccccc2[nH+]c1C

>  <Energy>  (11) 
35.65265385596704

>  <Genealogy>  (11) 
CCCCCc1cc2ccccc2[nH+]c1C (protonated)
CCCCCc1cc2ccccc2[nH+]c1C (3D coordinates assigned)
CCCCCc1cc2ccccc2[nH+]c1C (optimized conformer: 35.65265385596704 kcal/mol)

>  <smiles>  (11) 
CCCCCc1cc2ccccc2nc1C

>  <score_type>  (11) 
oracle

>  <origin>  (11) 
adg

>  <m_score__min__energy>  (11) 
-5.3499999999999996

>  <m_primary>  (11) 
energy

$$$$
11:0
     RDKit          3D

 42 44  0  0  0  0  0  0  0  0999 V2000
   55.5600   26.8820   45.8780 O   0  0  0  0  0  0  0  0  0  0  0  0
   56.2730   27.8640   45.5410 C   0  0  0  0  0  0  0  0  0  0  0  0
   57.6980   27.8130   45.6910 N   0  0  0  0  0  0  0  0  0  0  0  0
   58.4600   28.3110   46.8010 C   0  0  0  0  0  0  0  0  0  0  0  0
   58.5070   29.6780   47.1210 C   0  0  0  0  0  0  0  0  0  0  0  0
   59.2820   30.1260   48.1960 C   0  0  0  0  0  0  0  0  0  0  0  0
   60.0340   29.2170   48.9620 C   0  0  0  0  0  0  0  0  0  0  0  0
   60.8560   29.6900   50.1000 C   0  0  0  0  0  0  0  0  0  0  0  0
   60.3800   29.6780   51.2690 O   0  0  0  0  0  0  0  0  0  0  0  0
   62.1720   30.2100   49.8700 N   0  0  0  0  0  0  0  0  0  0  0  0
   62.4840   31.4210   49.1670 C   0  0  0  0  0  0  0  0  0  0  0  0
   62.8420   32.5550   49.9080 C   0  0  0  0  0  0  0  0  0  0  0  0
   63.1380   33.7580   49.2630 C   0  0  0  0  0  0  0  0  0  0  0  0
   63.0610   33.8430   47.8700 C   0  0  0  0  0  0  0  0  0  0  0  0
   62.6740   32.7270   47.1240 C   0  0  0  0  0  0  0  0  0  0  0  0
   62.3760   31.5190   47.7640 C   0  0  0  0  0  0  0  0  0  0  0  0
   61.9290   30.4760   47.0210 F   0  0  0  0  0  0  0  0  0  0  0  0
   60.0020   27.8530   48.6210 C   0  0  0  0  0  0  0  0  0  0  0  0
   59.2280   27.4090   47.5460 C   0  0  0  0  0  0  0  0  0  0  0  0
   55.6510   28.9840   44.9050 N   0  0  0  0  0  0  0  0  0  0  0  0
   56.3220   30.0250   44.1790 C   0  0  0  0  0  0  0  0  0  0  0  0
   56.3320   30.0620   42.7750 C   0  0  0  0  0  0  0  0  0  0  0  0
   57.0040   31.0870   42.1040 C   0  0  0  0  0  0  0  0  0  0  0  0
   57.6890   32.0680   42.8250 C   0  0  0  0  0  0  0  0  0  0  0  0
   57.7360   32.0150   44.2290 C   0  0  0  0  0  0  0  0  0  0  0  0
   58.4450   33.0920   45.0110 C   0  0  0  0  0  0  0  0  0  0  0  0
   57.5390   33.8580   45.7240 F   0  0  0  0  0  0  0  0  0  0  0  0
   59.1470   33.9290   44.1620 F   0  0  0  0  0  0  0  0  0  0  0  0
   59.3300   32.5030   45.8950 F   0  0  0  0  0  0  0  0  0  0  0  0
   57.0340   30.9950   44.8970 C   0  0  0  0  0  0  0  0  0  0  0  0
   57.9314   30.4000   46.5231 H   0  0  0  0  0  0  0  0  0  0  0  0
   59.3035   31.1974   48.4442 H   0  0  0  0  0  0  0  0  0  0  0  0
   62.8903   32.4974   51.0054 H   0  0  0  0  0  0  0  0  0  0  0  0
   63.4320   34.6394   49.8519 H   0  0  0  0  0  0  0  0  0  0  0  0
   63.3048   34.7875   47.3617 H   0  0  0  0  0  0  0  0  0  0  0  0
   62.6033   32.7983   46.0286 H   0  0  0  0  0  0  0  0  0  0  0  0
   60.5908   27.1303   49.2050 H   0  0  0  0  0  0  0  0  0  0  0  0
   59.2222   26.3410   47.2829 H   0  0  0  0  0  0  0  0  0  0  0  0
   55.8094   29.2819   42.2020 H   0  0  0  0  0  0  0  0  0  0  0  0
   56.9936   31.1215   41.0046 H   0  0  0  0  0  0  0  0  0  0  0  0
   58.1943   32.8864   42.2913 H   0  0  0  0  0  0  0  0  0  0  0  0
   57.0442   30.9586   45.9963 H   0  0  0  0  0  0  0  0  0  0  0  0
  1  2  2  0
  2  3  1  0
  3  4  1  0
  4  5  2  0
  5  6  1  0
  6  7  2  0
  7  8  1  0
  8  9  2  0
  8 10  1  0
 10 11  1  0
 11 12  2  0
 12 13  1  0
 13 14  2  0
 14 15  1  0
 15 16  2  0
 16 17  1  0
  7 18  1  0
 18 19  2  0
  2 20  1  0
 20 21  1  0
 21 22  2  0
 22 23  1  0
 23 24  2  0
 24 25  1  0
 25 26  1  0
 26 27  1  0
 26 28  1  0
 26 29  1  0
 25 30  2  0
 19  4  1  0
 30 21  1  0
 16 11  1  0
  5 31  1  0
  6 32  1  0
 12 33  1  0
 13 34  1  0
 14 35  1  0
 15 36  1  0
 18 37  1  0
 19 38  1  0
 22 39  1  0
 23 40  1  0
 24 41  1  0
 30 42  1  0
M  CHG  3   3  -1  10  -1  20  -1
M  END
>  <UniqueID>  (12) 
11

>  <SMILES>  (12) 
O=C([N-]c1ccc(C(=O)[N-]c2ccccc2F)cc1)[N-]c1cccc(C(F)(F)F)c1

>  <Energy>  (12) 
58.126702976772506

>  <Genealogy>  (12) 
O=C([N-]c1ccc(C(=O)[N-]c2ccccc2F)cc1)[N-]c1cccc(C(F)(F)F)c1 (protonated)
O=C([N-]c1ccc(C(=O)[N-]c2ccccc2F)cc1)[N-]c1cccc(C(F)(F)F)c1 (3D coordinates assigned)
O=C([N-]c1ccc(C(=O)[N-]c2ccccc2F)cc1)[N-]c1cccc(C(F)(F)F)c1 (optimized conformer: 58.126702976772506 kcal/mol)

>  <smiles>  (12) 
O=C(Nc1ccc(C(=O)Nc2ccccc2F)cc1)Nc1cccc(C(F)(F)F)c1

>  <score_type>  (12) 
oracle

>  <origin>  (12) 
adg

>  <m_score__min__energy>  (12) 
-12.17

>  <m_primary>  (12) 
energy

$$$$
12:0
     RDKit          3D

 29 30  0  0  0  0  0  0  0  0999 V2000
   55.5180   29.1580   45.0040 O   0  0  0  0  0  0  0  0  0  0  0  0
   56.2230   29.9190   44.2880 C   0  0  0  0  0  0  0  0  0  0  0  0
   57.0010   29.3470   43.1480 C   0  0  0  0  0  0  0  0  0  0  0  0
   57.7760   27.7610   43.6180 S   0  0  0  0  0  0  0  0  0  0  0  0
   58.6390   28.4170   45.0510 C   0  0  0  0  0  0  0  0  0  0  0  0
   58.1790   28.1330   46.3430 C   0  0  0  0  0  0  0  0  0  0  0  0
   58.8700   28.6240   47.4550 C   0  0  0  0  0  0  0  0  0  0  0  0
   60.0170   29.4050   47.2800 C   0  0  0  0  0  0  0  0  0  0  0  0
   60.4690   29.7030   45.9900 C   0  0  0  0  0  0  0  0  0  0  0  0
   59.7760   29.2160   44.8770 C   0  0  0  0  0  0  0  0  0  0  0  0
   56.2580   31.3360   44.5180 N   0  0  0  0  0  0  0  0  0  0  0  0
   57.2680   32.0830   44.8730 C   0  0  0  0  0  0  0  0  0  0  0  0
   57.7700   31.9400   46.1720 C   0  0  0  0  0  0  0  0  0  0  0  0
   58.8340   32.7380   46.6010 C   0  0  0  0  0  0  0  0  0  0  0  0
   59.3780   33.6600   45.7630 N   0  0  0  0  0  0  0  0  0  0  0  0
   58.9030   33.8370   44.5020 C   0  0  0  0  0  0  0  0  0  0  0  0
   57.8420   33.0580   44.0310 C   0  0  0  0  0  0  0  0  0  0  0  0
   56.3233   29.1787   42.2980 H   0  0  0  0  0  0  0  0  0  0  0  0
   57.7942   30.0576   42.8723 H   0  0  0  0  0  0  0  0  0  0  0  0
   57.2740   27.5236   46.4830 H   0  0  0  0  0  0  0  0  0  0  0  0
   58.5108   28.3956   48.4693 H   0  0  0  0  0  0  0  0  0  0  0  0
   60.5633   29.7847   48.1560 H   0  0  0  0  0  0  0  0  0  0  0  0
   61.3690   30.3200   45.8511 H   0  0  0  0  0  0  0  0  0  0  0  0
   60.1247   29.4610   43.8629 H   0  0  0  0  0  0  0  0  0  0  0  0
   57.3271   31.1999   46.8547 H   0  0  0  0  0  0  0  0  0  0  0  0
   59.2324   32.6198   47.6195 H   0  0  0  0  0  0  0  0  0  0  0  0
   60.1700   34.2520   46.1000 H   0  0  0  0  0  0  0  0  0  0  0  0
   59.3558   34.5972   43.8485 H   0  0  0  0  0  0  0  0  0  0  0  0
   57.4576   33.2045   43.0108 H   0  0  0  0  0  0  0  0  0  0  0  0
  1  2  2  0
  2  3  1  0
  3  4  1  0
  4  5  1  0
  5  6  2  0
  6  7  1  0
  7  8  2  0
  8  9  1  0
  9 10  2  0
  2 11  1  0
 11 12  2  3
 12 13  1  0
 13 14  2  0
 14 15  1  0
 15 16  1  0
 16 17  2  0
 10  5  1  0
 17 12  1  0
  3 18  1  0
  3 19  1  0
  6 20  1  0
  7 21  1  0
  8 22  1  0
  9 23  1  0
 10 24  1  0
 13 25  1  0
 14 26  1  0
 15 27  1  0
 16 28  1  0
 17 29  1  0
M  END
>  <UniqueID>  (13) 
12

>  <SMILES>  (13) 
O=C(CSc1ccccc1)N=c1cc[nH]cc1

>  <Energy>  (13) 
30.103653384154097

>  <Genealogy>  (13) 
O=C(CSc1ccccc1)N=c1cc[nH]cc1 (3D coordinates assigned)
O=C(CSc1ccccc1)N=c1cc[nH]cc1 (optimized conformer: 30.103653384154097 kcal/mol)

>  <smiles>  (13) 
O=C(CSc1ccccc1)N=c1cc[nH]cc1

>  <score_type>  (13) 
oracle

>  <origin>  (13) 
adg

>  <m_score__min__energy>  (13) 
-6.5999999999999996

>  <m_primary>  (13) 
energy

$$$$
13:0
     RDKit          3D

 49 52  0  0  1  0  0  0  0  0999 V2000
   63.2980   33.8400   46.0100 C   0  0  0  0  0  0  0  0  0  0  0  0
   62.7590   33.4640   47.3440 C   0  0  0  0  0  0  0  0  0  0  0  0
   63.6010   33.0820   48.3890 C   0  0  0  0  0  0  0  0  0  0  0  0
   63.1040   32.7320   49.6200 C   0  0  0  0  0  0  0  0  0  0  0  0
   61.7560   32.7450   49.8770 C   0  0  0  0  0  0  0  0  0  0  0  0
   60.9110   33.1150   48.8700 C   0  0  0  0  0  0  0  0  0  0  0  0
   59.5530   33.1440   49.0630 C   0  0  0  0  0  0  0  0  0  0  0  0
   58.9290   32.8140   50.3150 N   0  0  0  0  0  0  0  0  0  0  0  0
   58.9220   33.7510   51.4350 C   0  0  0  0  0  0  0  0  0  0  0  0
   59.0770   32.9620   52.7010 C   0  0  1  0  0  0  0  0  0  0  0  0
   59.2460   33.8180   53.9180 C   0  0  0  0  0  0  0  0  0  0  0  0
   57.8120   32.0990   52.7930 C   0  0  0  0  0  0  0  0  0  0  0  0
   58.0440   31.0040   51.7610 C   0  0  1  0  0  0  0  0  0  0  0  0
   57.0030   30.0070   51.7500 N   0  0  0  0  0  0  0  0  0  0  0  0
   58.3150   31.5070   50.3890 C   0  0  0  0  0  0  0  0  0  0  0  0
   58.7390   33.5080   48.0550 N   0  0  0  0  0  0  0  0  0  0  0  0
   59.2520   33.8470   46.8540 C   0  0  0  0  0  0  0  0  0  0  0  0
   58.1970   34.3400   45.4790 S   0  0  0  0  0  0  0  0  0  0  0  0
   57.7300   32.8600   44.5620 C   0  0  0  0  0  0  0  0  0  0  0  0
   57.0160   31.9190   45.1870 N   0  0  0  0  0  0  0  0  0  0  0  0
   56.6620   30.7990   44.4930 C   0  0  0  0  0  0  0  0  0  0  0  0
   55.9880   29.8860   45.0410 O   0  0  0  0  0  0  0  0  0  0  0  0
   57.0180   30.6150   43.1780 C   0  0  0  0  0  0  0  0  0  0  0  0
   57.7600   31.6110   42.5590 C   0  0  0  0  0  0  0  0  0  0  0  0
   58.0870   32.6940   43.2760 N   0  0  0  0  0  0  0  0  0  0  0  0
   60.5820   33.8290   46.6310 N   0  0  0  0  0  0  0  0  0  0  0  0
   61.4070   33.4660   47.6310 C   0  0  0  0  0  0  0  0  0  0  0  0
   64.1939   34.4650   46.1394 H   0  0  0  0  0  0  0  0  0  0  0  0
   63.5633   32.9300   45.4519 H   0  0  0  0  0  0  0  0  0  0  0  0
   62.5355   34.4032   45.4519 H   0  0  0  0  0  0  0  0  0  0  0  0
   64.6881   33.0608   48.2227 H   0  0  0  0  0  0  0  0  0  0  0  0
   63.8011   32.4348   50.4173 H   0  0  0  0  0  0  0  0  0  0  0  0
   61.3668   32.4651   50.8670 H   0  0  0  0  0  0  0  0  0  0  0  0
   59.7562   34.4607   51.3331 H   0  0  0  0  0  0  0  0  0  0  0  0
   57.9801   34.3190   51.4519 H   0  0  0  0  0  0  0  0  0  0  0  0
   59.9961   32.3585   52.6688 H   0  0  0  0  0  0  0  0  0  0  0  0
   59.1241   33.2007   54.8203 H   0  0  0  0  0  0  0  0  0  0  0  0
   60.2501   34.2671   53.9139 H   0  0  0  0  0  0  0  0  0  0  0  0
   58.4879   34.6150   53.9139 H   0  0  0  0  0  0  0  0  0  0  0  0
   57.7018   31.6712   53.8004 H   0  0  0  0  0  0  0  0  0  0  0  0
   56.8916   32.6717   52.6062 H   0  0  0  0  0  0  0  0  0  0  0  0
   58.9694   30.5147   52.0991 H   0  0  0  0  0  0  0  0  0  0  0  0
   56.4290   30.1000   50.8690 H   0  0  0  0  0  0  0  0  0  0  0  0
   57.4010   29.0460   51.7350 H   0  0  0  0  0  0  0  0  0  0  0  0
   58.9839   30.7897   49.8911 H   0  0  0  0  0  0  0  0  0  0  0  0
   57.3325   31.6071   49.9046 H   0  0  0  0  0  0  0  0  0  0  0  0
   56.7237   29.7059   42.6330 H   0  0  0  0  0  0  0  0  0  0  0  0
   58.0710   31.5137   41.5084 H   0  0  0  0  0  0  0  0  0  0  0  0
   58.6440   33.4660   42.8450 H   0  0  0  0  0  0  0  0  0  0  0  0
  1  2  1  0
  2  3  2  0
  3  4  1  0
  4  5  2  0
  5  6  1  0
  6  7  2  0
  7  8  1  0
  8  9  1  0
  9 10  1  0
 10 11  1  0
 10 12  1  0
 12 13  1  0
 13 14  1  0
 13 15  1  0
  7 16  1  0
 16 17  2  0
 17 18  1  0
 18 19  1  0
 19 20  2  0
 20 21  1  0
 21 22  2  0
 21 23  1  0
 23 24  2  0
 24 25  1  0
 17 26  1  0
 26 27  2  0
 27  2  1  0
 27  6  1  0
 15  8  1  0
 25 19  1  0
  1 28  1  0
  1 29  1  0
  1 30  1  0
  3 31  1  0
  4 32  1  0
  5 33  1  0
  9 34  1  0
  9 35  1  0
 10 36  1  6
 11 37  1  0
 11 38  1  0
 11 39  1  0
 12 40  1  0
 12 41  1  0
 13 42  1  1
 14 43  1  0
 14 44  1  0
 15 45  1  0
 15 46  1  0
 23 47  1  0
 24 48  1  0
 25 49  1  0
M  END
>  <smiles>  (14) 
Cc1cccc2c(N3CC(C)CC(N)C3)nc(Sc3nc(=O)cc[nH]3)nc12

>  <score_type>  (14) 
oracle

>  <origin>  (14) 
adg

>  <m_score__min__energy>  (14) 
-9.5600000000000005

>  <m_primary>  (14) 
energy

$$$$
14:0
     RDKit          3D

 54 55  0  0  0  0  0  0  0  0999 V2000
   62.6860   33.7990   46.4200 C   0  0  0  0  0  0  0  0  0  0  0  0
   62.4010   32.4790   47.1490 C   0  0  0  0  0  0  0  0  0  0  0  0
   63.6800   31.9130   47.7780 C   0  0  0  0  0  0  0  0  0  0  0  0
   61.3010   32.6540   48.1910 C   0  0  0  0  0  0  0  0  0  0  0  0
   60.9370   33.9540   48.5890 C   0  0  0  0  0  0  0  0  0  0  0  0
   59.8800   34.1620   49.4670 C   0  0  0  0  0  0  0  0  0  0  0  0
   59.1520   33.0820   49.9570 C   0  0  0  0  0  0  0  0  0  0  0  0
   59.4830   31.7640   49.5940 C   0  0  0  0  0  0  0  0  0  0  0  0
   58.6310   30.6300   50.1580 C   0  0  0  0  0  0  0  0  0  0  0  0
   59.4860   29.5100   50.7660 C   0  0  0  0  0  0  0  0  0  0  0  0
   57.5700   31.1340   51.1450 C   0  0  0  0  0  0  0  0  0  0  0  0
   60.5920   31.5460   48.7330 C   0  0  0  0  0  0  0  0  0  0  0  0
   60.9710   30.2060   48.3940 N   0  0  0  0  0  0  0  0  0  0  0  0
   60.5100   29.5340   47.2180 C   0  0  0  0  0  0  0  0  0  0  0  0
   60.5440   28.2740   47.1500 O   0  0  0  0  0  0  0  0  0  0  0  0
   60.0100   30.2910   46.1580 O   0  0  0  0  0  0  0  0  0  0  0  0
   59.5530   29.7070   44.9420 C   0  0  0  0  0  0  0  0  0  0  0  0
   58.4300   28.7140   45.2270 C   0  0  0  0  0  0  0  0  0  0  0  0
   57.2660   29.3910   45.7020 O   0  0  0  0  0  0  0  0  0  0  0  0
   56.2340   29.8370   44.8700 C   0  0  0  0  0  0  0  0  0  0  0  0
   55.2240   29.1110   44.6570 O   0  0  0  0  0  0  0  0  0  0  0  0
   56.3220   31.1490   44.3020 N   0  0  0  0  0  0  0  0  0  0  0  0
   57.1630   32.2210   44.7550 C   0  0  0  0  0  0  0  0  0  0  0  0
   58.0860   32.7740   43.8580 C   0  0  0  0  0  0  0  0  0  0  0  0
   58.9100   33.8310   44.2520 C   0  0  0  0  0  0  0  0  0  0  0  0
   58.8080   34.3560   45.5440 C   0  0  0  0  0  0  0  0  0  0  0  0
   59.8410   35.6850   46.0370 Cl  0  0  0  0  0  0  0  0  0  0  0  0
   57.8730   33.8270   46.4380 C   0  0  0  0  0  0  0  0  0  0  0  0
   57.0470   32.7680   46.0470 C   0  0  0  0  0  0  0  0  0  0  0  0
   62.8581   34.5959   47.1584 H   0  0  0  0  0  0  0  0  0  0  0  0
   63.5800   33.6841   45.7895 H   0  0  0  0  0  0  0  0  0  0  0  0
   61.8242   34.0632   45.7895 H   0  0  0  0  0  0  0  0  0  0  0  0
   62.0424   31.7512   46.4062 H   0  0  0  0  0  0  0  0  0  0  0  0
   63.5968   31.9498   48.8742 H   0  0  0  0  0  0  0  0  0  0  0  0
   63.8168   30.8703   47.4555 H   0  0  0  0  0  0  0  0  0  0  0  0
   64.5438   32.5129   47.4555 H   0  0  0  0  0  0  0  0  0  0  0  0
   61.4968   34.8172   48.1998 H   0  0  0  0  0  0  0  0  0  0  0  0
   59.6177   35.1846   49.7759 H   0  0  0  0  0  0  0  0  0  0  0  0
   58.3064   33.2614   50.6373 H   0  0  0  0  0  0  0  0  0  0  0  0
   58.0910   30.1947   49.3042 H   0  0  0  0  0  0  0  0  0  0  0  0
   59.4410   29.5690   51.8635 H   0  0  0  0  0  0  0  0  0  0  0  0
   59.1010   28.5341   50.4352 H   0  0  0  0  0  0  0  0  0  0  0  0
   60.5288   29.6241   50.4352 H   0  0  0  0  0  0  0  0  0  0  0  0
   57.9191   30.9682   52.1749 H   0  0  0  0  0  0  0  0  0  0  0  0
   57.4005   32.2089   50.9839 H   0  0  0  0  0  0  0  0  0  0  0  0
   56.6297   30.5863   50.9839 H   0  0  0  0  0  0  0  0  0  0  0  0
   59.1785   30.4986   44.2764 H   0  0  0  0  0  0  0  0  0  0  0  0
   60.3884   29.1775   44.4606 H   0  0  0  0  0  0  0  0  0  0  0  0
   58.1814   28.1746   44.3011 H   0  0  0  0  0  0  0  0  0  0  0  0
   58.7692   28.0089   46.0002 H   0  0  0  0  0  0  0  0  0  0  0  0
   58.1625   32.3732   42.8365 H   0  0  0  0  0  0  0  0  0  0  0  0
   59.6403   34.2510   43.5447 H   0  0  0  0  0  0  0  0  0  0  0  0
   57.7864   34.2446   47.4520 H   0  0  0  0  0  0  0  0  0  0  0  0
   56.3053   32.3618   46.7505 H   0  0  0  0  0  0  0  0  0  0  0  0
  1  2  1  0
  2  3  1  0
  2  4  1  0
  4  5  2  0
  5  6  1  0
  6  7  2  0
  7  8  1  0
  8  9  1  0
  9 10  1  0
  9 11  1  0
  8 12  2  0
 12 13  1  0
 13 14  1  0
 14 15  2  0
 14 16  1  0
 16 17  1  0
 17 18  1  0
 18 19  1  0
 19 20  1  0
 20 21  2  0
 20 22  1  0
 22 23  1  0
 23 24  2  0
 24 25  1  0
 25 26  2  0
 26 27  1  0
 26 28  1  0
 28 29  2  0
 12  4  1  0
 29 23  1  0
  1 30  1  0
  1 31  1  0
  1 32  1  0
  2 33  1  0
  3 34  1  0
  3 35  1  0
  3 36  1  0
  5 37  1  0
  6 38  1  0
  7 39  1  0
  9 40  1  0
 10 41  1  0
 10 42  1  0
 10 43  1  0
 11 44  1  0
 11 45  1  0
 11 46  1  0
 17 47  1  0
 17 48  1  0
 18 49  1  0
 18 50  1  0
 24 51  1  0
 25 52  1  0
 28 53  1  0
 29 54  1  0
M  CHG  2  13  -1  22  -1
M  END
>  <UniqueID>  (15) 
13

>  <SMILES>  (15) 
CC(C)c1cccc(C(C)C)c1[N-]C(=O)OCCOC(=O)[N-]c1ccc(Cl)cc1

>  <Energy>  (15) 
55.739643097299904

>  <Genealogy>  (15) 
CC(C)c1cccc(C(C)C)c1[N-]C(=O)OCCOC(=O)[N-]c1ccc(Cl)cc1 (protonated)
CC(C)c1cccc(C(C)C)c1[N-]C(=O)OCCOC(=O)[N-]c1ccc(Cl)cc1 (3D coordinates assigned)
CC(C)c1cccc(C(C)C)c1[N-]C(=O)OCCOC(=O)[N-]c1ccc(Cl)cc1 (optimized conformer: 55.739643097299904 kcal/mol)

>  <smiles>  (15) 
CC(C)c1cccc(C(C)C)c1NC(=O)OCCOC(=O)Nc1ccc(Cl)cc1

>  <score_type>  (15) 
oracle

>  <origin>  (15) 
adg

>  <m_score__min__energy>  (15) 
-10.210000000000001

>  <m_primary>  (15) 
energy

$$$$
15:0
     RDKit          3D

 54 57  0  0  0  0  0  0  0  0999 V2000
   55.7830   26.9040   45.9800 O   0  0  0  0  0  0  0  0  0  0  0  0
   57.0140   27.1660   45.9260 C   0  0  0  0  0  0  0  0  0  0  0  0
   57.4190   28.5830   45.9920 C   0  0  0  0  0  0  0  0  0  0  0  0
   58.6060   29.0580   46.4150 C   0  0  0  0  0  0  0  0  0  0  0  0
   58.5980   30.2240   47.2540 N   0  0  0  0  0  0  0  0  0  0  0  0
   58.2760   31.5410   46.6990 C   0  0  0  0  0  0  0  0  0  0  0  0
   59.5580   32.3620   46.4970 C   0  0  0  0  0  0  0  0  0  0  0  0
   60.7740   31.5390   46.6280 N   0  0  0  0  0  0  0  0  0  0  0  0
   61.8840   32.2990   47.1660 C   0  0  0  0  0  0  0  0  0  0  0  0
   62.3700   33.4010   46.4340 C   0  0  0  0  0  0  0  0  0  0  0  0
   63.4480   34.1510   46.8960 C   0  0  0  0  0  0  0  0  0  0  0  0
   64.0700   33.8240   48.0980 C   0  0  0  0  0  0  0  0  0  0  0  0
   63.6160   32.7360   48.8540 C   0  0  0  0  0  0  0  0  0  0  0  0
   64.2530   32.4140   50.0630 C   0  0  0  0  0  0  0  0  0  0  0  0
   63.8110   31.3340   50.8260 C   0  0  0  0  0  0  0  0  0  0  0  0
   62.7320   30.5650   50.3920 C   0  0  0  0  0  0  0  0  0  0  0  0
   62.0860   30.8700   49.1910 C   0  0  0  0  0  0  0  0  0  0  0  0
   62.5150   31.9590   48.3980 C   0  0  0  0  0  0  0  0  0  0  0  0
   58.9330   30.0910   48.6400 C   0  0  0  0  0  0  0  0  0  0  0  0
   59.5170   28.9060   49.1090 C   0  0  0  0  0  0  0  0  0  0  0  0
   59.8430   28.7720   50.4620 C   0  0  0  0  0  0  0  0  0  0  0  0
   59.5880   29.8210   51.3500 C   0  0  0  0  0  0  0  0  0  0  0  0
   59.0090   31.0070   50.8860 C   0  0  0  0  0  0  0  0  0  0  0  0
   58.6800   31.1410   49.5340 C   0  0  0  0  0  0  0  0  0  0  0  0
   59.9310   28.4940   46.0400 C   0  0  0  0  0  0  0  0  0  0  0  0
   60.8120   29.2790   45.5970 O   0  0  0  0  0  0  0  0  0  0  0  0
   60.2910   27.0400   46.1620 C   0  0  0  0  0  0  0  0  0  0  0  0
   59.1950   26.2460   46.8770 C   0  0  0  0  0  0  0  0  0  0  0  0
   57.9850   26.0170   45.9720 C   0  0  0  0  0  0  0  0  0  0  0  0
   56.6774   29.3257   45.6628 H   0  0  0  0  0  0  0  0  0  0  0  0
   57.7707   31.4129   45.7304 H   0  0  0  0  0  0  0  0  0  0  0  0
   57.6168   32.0735   47.4004 H   0  0  0  0  0  0  0  0  0  0  0  0
   59.5385   32.8073   45.4913 H   0  0  0  0  0  0  0  0  0  0  0  0
   59.5891   33.1363   47.2777 H   0  0  0  0  0  0  0  0  0  0  0  0
   61.0340   31.1420   45.6960 H   0  0  0  0  0  0  0  0  0  0  0  0
   60.5660   30.7100   47.2330 H   0  0  0  0  0  0  0  0  0  0  0  0
   61.8898   33.6728   45.4824 H   0  0  0  0  0  0  0  0  0  0  0  0
   63.8105   35.0070   46.3080 H   0  0  0  0  0  0  0  0  0  0  0  0
   64.9211   34.4224   48.4551 H   0  0  0  0  0  0  0  0  0  0  0  0
   65.1051   33.0169   50.4100 H   0  0  0  0  0  0  0  0  0  0  0  0
   64.3147   31.0881   51.7725 H   0  0  0  0  0  0  0  0  0  0  0  0
   62.3875   29.7140   50.9980 H   0  0  0  0  0  0  0  0  0  0  0  0
   61.2352   30.2567   48.8593 H   0  0  0  0  0  0  0  0  0  0  0  0
   59.7191   28.0800   48.4112 H   0  0  0  0  0  0  0  0  0  0  0  0
   60.3003   27.8408   50.8278 H   0  0  0  0  0  0  0  0  0  0  0  0
   59.8429   29.7138   52.4147 H   0  0  0  0  0  0  0  0  0  0  0  0
   58.8127   31.8336   51.5847 H   0  0  0  0  0  0  0  0  0  0  0  0
   58.2215   32.0725   49.1706 H   0  0  0  0  0  0  0  0  0  0  0  0
   60.4350   26.6222   45.1547 H   0  0  0  0  0  0  0  0  0  0  0  0
   61.2142   26.9628   46.7551 H   0  0  0  0  0  0  0  0  0  0  0  0
   59.6021   25.2708   47.1823 H   0  0  0  0  0  0  0  0  0  0  0  0
   58.8655   26.8254   47.7520 H   0  0  0  0  0  0  0  0  0  0  0  0
   58.3497   25.8342   44.9504 H   0  0  0  0  0  0  0  0  0  0  0  0
   57.4371   25.1609   46.3926 H   0  0  0  0  0  0  0  0  0  0  0  0
  1  2  2  0
  2  3  1  0
  3  4  2  0
  4  5  1  0
  5  6  1  0
  6  7  1  0
  7  8  1  0
  8  9  1  0
  9 10  2  0
 10 11  1  0
 11 12  2  0
 12 13  1  0
 13 14  2  0
 14 15  1  0
 15 16  2  0
 16 17  1  0
 17 18  2  0
  5 19  1  0
 19 20  2  0
 20 21  1  0
 21 22  2  0
 22 23  1  0
 23 24  2  0
  4 25  1  0
 25 26  2  0
 25 27  1  0
 27 28  1  0
 28 29  1  0
 29  2  1  0
 18  9  1  0
 24 19  1  0
 18 13  1  0
  3 30  1  0
  6 31  1  0
  6 32  1  0
  7 33  1  0
  7 34  1  0
  8 35  1  0
  8 36  1  0
 10 37  1  0
 11 38  1  0
 12 39  1  0
 14 40  1  0
 15 41  1  0
 16 42  1  0
 17 43  1  0
 20 44  1  0
 21 45  1  0
 22 46  1  0
 23 47  1  0
 24 48  1  0
 27 49  1  0
 27 50  1  0
 28 51  1  0
 28 52  1  0
 29 53  1  0
 29 54  1  0
M  CHG  1   8   1
M  END
>  <UniqueID>  (16) 
14

>  <SMILES>  (16) 
O=C1C=C(N(CC[NH2+]c2cccc3ccccc23)c2ccccc2)C(=O)CCC1

>  <Energy>  (16) 
83.66407191445445

>  <Genealogy>  (16) 
O=C1C=C(N(CC[NH2+]c2cccc3ccccc23)c2ccccc2)C(=O)CCC1 (protonated)
O=C1C=C(N(CC[NH2+]c2cccc3ccccc23)c2ccccc2)C(=O)CCC1 (3D coordinates assigned)
O=C1C=C(N(CC[NH2+]c2cccc3ccccc23)c2ccccc2)C(=O)CCC1 (nonaromatic ring conformer: 83.66407191445445 kcal/mol)

>  <smiles>  (16) 
O=C1C=C(N(CCNc2cccc3ccccc23)c2ccccc2)C(=O)CCC1

>  <score_type>  (16) 
oracle

>  <origin>  (16) 
adg

>  <m_score__min__energy>  (16) 
-6.0099999999999998

>  <m_primary>  (16) 
energy

$$$$
16:0
     RDKit          3D

 41 44  0  0  0  0  0  0  0  0999 V2000
   58.6660   29.6830   46.5780 C   0  0  0  0  0  0  0  0  0  0  0  0
   58.1400   30.1950   45.2550 C   0  0  0  0  0  0  0  0  0  0  0  0
   58.2830   31.5670   44.9250 C   0  0  0  0  0  0  0  0  0  0  0  0
   59.0490   32.4510   45.7630 N   0  0  0  0  0  0  0  0  0  0  0  0
   58.5590   33.7090   46.2440 C   0  0  0  0  0  0  0  0  0  0  0  0
   57.3420   34.0110   46.1050 O   0  0  0  0  0  0  0  0  0  0  0  0
   59.4470   34.5790   46.9540 N   0  0  0  0  0  0  0  0  0  0  0  0
   60.7260   34.2280   47.5040 C   0  0  0  0  0  0  0  0  0  0  0  0
   61.8050   33.8300   46.6930 C   0  0  0  0  0  0  0  0  0  0  0  0
   63.0270   33.4740   47.2710 C   0  0  0  0  0  0  0  0  0  0  0  0
   63.1800   33.5010   48.6610 C   0  0  0  0  0  0  0  0  0  0  0  0
   64.7130   33.0520   49.3850 Cl  0  0  0  0  0  0  0  0  0  0  0  0
   62.1050   33.8730   49.4740 C   0  0  0  0  0  0  0  0  0  0  0  0
   60.8810   34.2280   48.8970 C   0  0  0  0  0  0  0  0  0  0  0  0
   57.7230   32.0570   43.7340 C   0  0  0  0  0  0  0  0  0  0  0  0
   57.0280   31.2100   42.8770 C   0  0  0  0  0  0  0  0  0  0  0  0
   56.9110   29.8550   43.1750 C   0  0  0  0  0  0  0  0  0  0  0  0
   57.4800   29.3240   44.3450 C   0  0  0  0  0  0  0  0  0  0  0  0
   57.3890   27.8610   44.5680 C   0  0  0  0  0  0  0  0  0  0  0  0
   56.7770   27.3040   45.6480 N   0  0  0  0  0  0  0  0  0  0  0  0
   56.8700   25.9520   45.6190 C   0  0  0  0  0  0  0  0  0  0  0  0
   56.3410   25.0910   46.5780 C   0  0  0  0  0  0  0  0  0  0  0  0
   56.5280   23.7100   46.4060 C   0  0  0  0  0  0  0  0  0  0  0  0
   57.2360   23.2330   45.2840 C   0  0  0  0  0  0  0  0  0  0  0  0
   57.7420   24.1040   44.3640 N   0  0  0  0  0  0  0  0  0  0  0  0
   57.5550   25.4360   44.5390 C   0  0  0  0  0  0  0  0  0  0  0  0
   58.0830   26.6820   43.5530 S   0  0  0  0  0  0  0  0  0  0  0  0
   58.1436   30.1915   47.4018 H   0  0  0  0  0  0  0  0  0  0  0  0
   58.4919   28.5991   46.6470 H   0  0  0  0  0  0  0  0  0  0  0  0
   59.7449   29.8862   46.6470 H   0  0  0  0  0  0  0  0  0  0  0  0
   60.0050   32.1540   46.0640 H   0  0  0  0  0  0  0  0  0  0  0  0
   61.6863   33.7989   45.5999 H   0  0  0  0  0  0  0  0  0  0  0  0
   63.8696   33.1721   46.6316 H   0  0  0  0  0  0  0  0  0  0  0  0
   62.2217   33.8865   50.5677 H   0  0  0  0  0  0  0  0  0  0  0  0
   60.0346   34.5090   49.5409 H   0  0  0  0  0  0  0  0  0  0  0  0
   57.8350   33.1205   43.4764 H   0  0  0  0  0  0  0  0  0  0  0  0
   56.5696   31.6118   41.9614 H   0  0  0  0  0  0  0  0  0  0  0  0
   56.3666   29.1922   42.4863 H   0  0  0  0  0  0  0  0  0  0  0  0
   55.7915   25.4826   47.4467 H   0  0  0  0  0  0  0  0  0  0  0  0
   56.1233   23.0024   47.1445 H   0  0  0  0  0  0  0  0  0  0  0  0
   57.3814   22.1510   45.1495 H   0  0  0  0  0  0  0  0  0  0  0  0
  1  2  1  0
  2  3  2  0
  3  4  1  0
  4  5  1  0
  5  6  2  0
  5  7  1  0
  7  8  1  0
  8  9  2  0
  9 10  1  0
 10 11  2  0
 11 12  1  0
 11 13  1  0
 13 14  2  0
  3 15  1  0
 15 16  2  0
 16 17  1  0
 17 18  2  0
 18 19  1  0
 19 20  2  0
 20 21  1  0
 21 22  2  0
 22 23  1  0
 23 24  2  0
 24 25  1  0
 25 26  2  0
 26 27  1  0
 18  2  1  0
 27 19  1  0
 14  8  1  0
 26 21  1  0
  1 28  1  0
  1 29  1  0
  1 30  1  0
  4 31  1  0
  9 32  1  0
 10 33  1  0
 13 34  1  0
 14 35  1  0
 15 36  1  0
 16 37  1  0
 17 38  1  0
 22 39  1  0
 23 40  1  0
 24 41  1  0
M  CHG  1   7  -1
M  END
>  <UniqueID>  (17) 
15

>  <SMILES>  (17) 
Cc1c(NC(=O)[N-]c2ccc(Cl)cc2)cccc1-c1nc2cccnc2s1

>  <Energy>  (17) 
96.07886111546888

>  <Genealogy>  (17) 
Cc1c(NC(=O)[N-]c2ccc(Cl)cc2)cccc1-c1nc2cccnc2s1 (protonated)
Cc1c(NC(=O)[N-]c2ccc(Cl)cc2)cccc1-c1nc2cccnc2s1 (3D coordinates assigned)
Cc1c(NC(=O)[N-]c2ccc(Cl)cc2)cccc1-c1nc2cccnc2s1 (optimized conformer: 96.07886111546888 kcal/mol)

>  <smiles>  (17) 
Cc1c(NC(=O)Nc2ccc(Cl)cc2)cccc1-c1nc2cccnc2s1

>  <score_type>  (17) 
oracle

>  <origin>  (17) 
adg

>  <m_score__min__energy>  (17) 
-10.33

>  <m_primary>  (17) 
energy

$$$$
17:0
     RDKit          3D

 42 44  0  0  0  0  0  0  0  0999 V2000
   55.1570   29.3290   44.8640 N   0  0  0  0  0  0  0  0  0  0  0  0
   56.7310   30.0110   44.6580 S   0  0  0  0  0  0  0  0  0  0  0  0
   57.3730   29.4390   43.4250 O   0  0  0  0  0  0  0  0  0  0  0  0
   56.6030   31.4990   44.4920 O   0  0  0  0  0  0  0  0  0  0  0  0
   57.7230   29.6380   46.0640 C   0  0  0  0  0  0  0  0  0  0  0  0
   57.8720   28.3180   46.5060 C   0  0  0  0  0  0  0  0  0  0  0  0
   58.6590   28.0360   47.6270 C   0  0  0  0  0  0  0  0  0  0  0  0
   59.2940   29.0680   48.3270 C   0  0  0  0  0  0  0  0  0  0  0  0
   60.1040   28.7290   49.4610 N   0  0  0  0  0  0  0  0  0  0  0  0
   59.7840   28.9440   50.8420 C   0  0  0  0  0  0  0  0  0  0  0  0
   59.9380   28.0260   51.6930 O   0  0  0  0  0  0  0  0  0  0  0  0
   59.3140   30.2930   51.2850 C   0  0  0  0  0  0  0  0  0  0  0  0
   57.8640   30.2350   51.6800 C   0  0  0  0  0  0  0  0  0  0  0  0
   57.3670   29.1370   52.4000 C   0  0  0  0  0  0  0  0  0  0  0  0
   56.0270   29.1020   52.7980 C   0  0  0  0  0  0  0  0  0  0  0  0
   55.1740   30.1730   52.5090 C   0  0  0  0  0  0  0  0  0  0  0  0
   53.7880   30.0790   52.8730 N   0  0  0  0  0  0  0  0  0  0  0  0
   52.7940   30.7960   52.4270 C   0  0  0  0  0  0  0  0  0  0  0  0
   51.8690   31.3010   53.3500 C   0  0  0  0  0  0  0  0  0  0  0  0
   50.7930   32.0740   52.9050 C   0  0  0  0  0  0  0  0  0  0  0  0
   50.6530   32.3490   51.5840 N   0  0  0  0  0  0  0  0  0  0  0  0
   51.5420   31.8930   50.6640 C   0  0  0  0  0  0  0  0  0  0  0  0
   52.6320   31.1160   51.0640 C   0  0  0  0  0  0  0  0  0  0  0  0
   55.6630   31.2620   51.7660 C   0  0  0  0  0  0  0  0  0  0  0  0
   57.0030   31.3010   51.3720 C   0  0  0  0  0  0  0  0  0  0  0  0
   59.1660   30.3910   47.8650 C   0  0  0  0  0  0  0  0  0  0  0  0
   58.3790   30.6720   46.7440 C   0  0  0  0  0  0  0  0  0  0  0  0
   55.2190   28.6520   45.6580 H   0  0  0  0  0  0  0  0  0  0  0  0
   57.3684   27.5001   45.9698 H   0  0  0  0  0  0  0  0  0  0  0  0
   58.7798   26.9950   47.9611 H   0  0  0  0  0  0  0  0  0  0  0  0
   59.9126   30.6209   52.1477 H   0  0  0  0  0  0  0  0  0  0  0  0
   59.4310   31.0042   50.4540 H   0  0  0  0  0  0  0  0  0  0  0  0
   58.0349   28.3002   52.6523 H   0  0  0  0  0  0  0  0  0  0  0  0
   55.6410   28.2271   53.3417 H   0  0  0  0  0  0  0  0  0  0  0  0
   51.9893   31.0896   54.4228 H   0  0  0  0  0  0  0  0  0  0  0  0
   50.0585   32.4600   53.6271 H   0  0  0  0  0  0  0  0  0  0  0  0
   51.4033   32.1363   49.6003 H   0  0  0  0  0  0  0  0  0  0  0  0
   53.3586   30.7565   50.3205 H   0  0  0  0  0  0  0  0  0  0  0  0
   54.9878   32.0867   51.4938 H   0  0  0  0  0  0  0  0  0  0  0  0
   57.3854   32.1709   50.8179 H   0  0  0  0  0  0  0  0  0  0  0  0
   59.6869   31.2069   48.3875 H   0  0  0  0  0  0  0  0  0  0  0  0
   58.2746   31.7098   46.3945 H   0  0  0  0  0  0  0  0  0  0  0  0
  1  2  1  0
  2  3  2  0
  2  4  2  0
  2  5  1  0
  5  6  2  0
  6  7  1  0
  7  8  2  0
  8  9  1  0
  9 10  1  0
 10 11  2  0
 10 12  1  0
 12 13  1  0
 13 14  2  0
 14 15  1  0
 15 16  2  0
 16 17  1  0
 17 18  2  3
 18 19  1  0
 19 20  2  0
 20 21  1  0
 21 22  1  0
 22 23  2  0
 16 24  1  0
 24 25  2  0
  8 26  1  0
 26 27  2  0
 27  5  1  0
 25 13  1  0
 23 18  1  0
  1 28  1  0
  6 29  1  0
  7 30  1  0
 12 31  1  0
 12 32  1  0
 14 33  1  0
 15 34  1  0
 19 35  1  0
 20 36  1  0
 22 37  1  0
 23 38  1  0
 24 39  1  0
 25 40  1  0
 26 41  1  0
 27 42  1  0
M  CHG  3   1  -1   9  -1  21  -1
M  END
>  <UniqueID>  (18) 
16

>  <SMILES>  (18) 
[NH-]S(=O)(=O)c1ccc([N-]C(=O)Cc2ccc(N=c3cc[n-]cc3)cc2)cc1

>  <Energy>  (18) 
56.49776474608072

>  <Genealogy>  (18) 
[NH-]S(=O)(=O)c1ccc([N-]C(=O)Cc2ccc(N=c3cc[n-]cc3)cc2)cc1 (protonated)
[NH-]S(=O)(=O)c1ccc([N-]C(=O)Cc2ccc(N=c3cc[n-]cc3)cc2)cc1 (3D coordinates assigned)
[NH-]S(=O)(=O)c1ccc([N-]C(=O)Cc2ccc(N=c3cc[n-]cc3)cc2)cc1 (optimized conformer: 56.49776474608072 kcal/mol)

>  <smiles>  (18) 
NS(=O)(=O)c1ccc(NC(=O)Cc2ccc(N=c3cc[nH]cc3)cc2)cc1

>  <score_type>  (18) 
oracle

>  <origin>  (18) 
adg

>  <m_score__min__energy>  (18) 
-14.199999999999999

>  <m_primary>  (18) 
energy

$$$$
18:0
     RDKit          3D

 45 47  0  0  0  0  0  0  0  0999 V2000
   58.1680   32.3450   41.1180 C   0  0  0  0  0  0  0  0  0  0  0  0
   57.3950   32.6430   42.2760 O   0  0  0  0  0  0  0  0  0  0  0  0
   57.7090   32.2140   43.5760 C   0  0  0  0  0  0  0  0  0  0  0  0
   58.5030   32.9870   44.4440 C   0  0  0  0  0  0  0  0  0  0  0  0
   58.7950   32.5270   45.7330 C   0  0  0  0  0  0  0  0  0  0  0  0
   59.8190   33.4800   46.8090 S   0  0  0  0  0  0  0  0  0  0  0  0
   59.9120   34.8940   46.3050 O   0  0  0  0  0  0  0  0  0  0  0  0
   59.1950   33.4990   48.1760 O   0  0  0  0  0  0  0  0  0  0  0  0
   61.4130   32.7680   46.8970 N   0  0  0  0  0  0  0  0  0  0  0  0
   61.4840   31.7630   47.9940 C   0  0  0  0  0  0  0  0  0  0  0  0
   62.1350   32.3210   49.2680 C   0  0  0  0  0  0  0  0  0  0  0  0
   63.5860   32.7950   49.0030 C   0  0  0  0  0  0  0  0  0  0  0  0
   63.7580   33.3080   47.5520 C   0  0  0  0  0  0  0  0  0  0  0  0
   62.4360   33.8400   46.9880 C   0  0  0  0  0  0  0  0  0  0  0  0
   63.8800   33.8490   49.8980 O   0  0  0  0  0  0  0  0  0  0  0  0
   65.0550   33.4860   50.5480 C   0  0  0  0  0  0  0  0  0  0  0  0
   65.2170   32.0150   50.3270 C   0  0  0  0  0  0  0  0  0  0  0  0
   64.4640   31.7040   49.1990 O   0  0  0  0  0  0  0  0  0  0  0  0
   58.3070   31.2880   46.1590 C   0  0  0  0  0  0  0  0  0  0  0  0
   57.5110   30.5030   45.3040 C   0  0  0  0  0  0  0  0  0  0  0  0
   57.0010   29.2560   45.7000 O   0  0  0  0  0  0  0  0  0  0  0  0
   57.6900   28.0190   45.5540 C   0  0  0  0  0  0  0  0  0  0  0  0
   57.2140   30.9760   44.0160 C   0  0  0  0  0  0  0  0  0  0  0  0
   56.2200   30.0020   42.9380 Cl  0  0  0  0  0  0  0  0  0  0  0  0
   59.1541   31.9649   41.4232 H   0  0  0  0  0  0  0  0  0  0  0  0
   57.6505   31.5819   40.5181 H   0  0  0  0  0  0  0  0  0  0  0  0
   58.2966   33.2580   40.5181 H   0  0  0  0  0  0  0  0  0  0  0  0
   58.8960   33.9577   44.1074 H   0  0  0  0  0  0  0  0  0  0  0  0
   61.5600   32.2620   45.9920 H   0  0  0  0  0  0  0  0  0  0  0  0
   60.4628   31.4335   48.2360 H   0  0  0  0  0  0  0  0  0  0  0  0
   62.1077   30.9287   47.6403 H   0  0  0  0  0  0  0  0  0  0  0  0
   61.5408   33.1733   49.6292 H   0  0  0  0  0  0  0  0  0  0  0  0
   62.1658   31.5186   50.0199 H   0  0  0  0  0  0  0  0  0  0  0  0
   64.5024   34.1179   47.5443 H   0  0  0  0  0  0  0  0  0  0  0  0
   64.0897   32.4679   46.9242 H   0  0  0  0  0  0  0  0  0  0  0  0
   62.0611   34.6369   47.6471 H   0  0  0  0  0  0  0  0  0  0  0  0
   62.6231   34.2256   45.9749 H   0  0  0  0  0  0  0  0  0  0  0  0
   65.9102   34.0319   50.1230 H   0  0  0  0  0  0  0  0  0  0  0  0
   65.0111   33.7278   51.6202 H   0  0  0  0  0  0  0  0  0  0  0  0
   66.2758   31.7697   50.1576 H   0  0  0  0  0  0  0  0  0  0  0  0
   64.8814   31.4399   51.2026 H   0  0  0  0  0  0  0  0  0  0  0  0
   58.5468   30.9243   47.1691 H   0  0  0  0  0  0  0  0  0  0  0  0
   57.9192   27.6074   46.5480 H   0  0  0  0  0  0  0  0  0  0  0  0
   57.0570   27.3098   45.0006 H   0  0  0  0  0  0  0  0  0  0  0  0
   58.6262   28.1839   45.0006 H   0  0  0  0  0  0  0  0  0  0  0  0
  1  2  1  0
  2  3  1  0
  3  4  2  0
  4  5  1  0
  5  6  1  0
  6  7  2  0
  6  8  2  0
  6  9  1  0
  9 10  1  0
 10 11  1  0
 11 12  1  0
 12 13  1  0
 13 14  1  0
 12 15  1  0
 15 16  1  0
 16 17  1  0
 17 18  1  0
  5 19  2  0
 19 20  1  0
 20 21  1  0
 21 22  1  0
 20 23  2  0
 23 24  1  0
 23  3  1  0
 14  9  1  0
 18 12  1  0
  1 25  1  0
  1 26  1  0
  1 27  1  0
  4 28  1  0
  9 29  1  0
 10 30  1  0
 10 31  1  0
 11 32  1  0
 11 33  1  0
 13 34  1  0
 13 35  1  0
 14 36  1  0
 14 37  1  0
 16 38  1  0
 16 39  1  0
 17 40  1  0
 17 41  1  0
 19 42  1  0
 22 43  1  0
 22 44  1  0
 22 45  1  0
M  CHG  1   9   1
M  END
>  <UniqueID>  (19) 
17

>  <SMILES>  (19) 
COc1cc(S(=O)(=O)[NH+]2CCC3(CC2)OCCO3)cc(OC)c1Cl

>  <Energy>  (19) 
47.09664456192206

>  <Genealogy>  (19) 
COc1cc(S(=O)(=O)[NH+]2CCC3(CC2)OCCO3)cc(OC)c1Cl (protonated)
COc1cc(S(=O)(=O)[NH+]2CCC3(CC2)OCCO3)cc(OC)c1Cl (3D coordinates assigned)
COc1cc(S(=O)(=O)[NH+]2CCC3(CC2)OCCO3)cc(OC)c1Cl (nonaromatic ring conformer: 47.09664456192206 kcal/mol)

>  <smiles>  (19) 
COc1cc(S(=O)(=O)N2CCC3(CC2)OCCO3)cc(OC)c1Cl

>  <score_type>  (19) 
oracle

>  <origin>  (19) 
adg

>  <m_score__min__energy>  (19) 
-5.9199999999999999

>  <m_primary>  (19) 
energy

$$$$
19:0
     RDKit          3D

 41 43  0  0  0  0  0  0  0  0999 V2000
   51.0920   32.5240   48.4330 H   0  0  0  0  0  0  0  0  0  0  0  0
   50.7040   32.3820   49.3580 O   0  0  0  0  0  0  0  0  0  0  0  0
   51.3610   31.6320   50.3330 C   0  0  0  0  0  0  0  0  0  0  0  0
   52.0380   30.4710   49.9480 C   0  0  0  0  0  0  0  0  0  0  0  0
   52.0436   30.1664   48.8910 H   0  0  0  0  0  0  0  0  0  0  0  0
   52.7070   29.6960   50.8970 C   0  0  0  0  0  0  0  0  0  0  0  0
   53.2205   28.7737   50.5877 H   0  0  0  0  0  0  0  0  0  0  0  0
   52.7270   30.0890   52.2440 C   0  0  0  0  0  0  0  0  0  0  0  0
   53.3910   29.2590   53.2690 C   0  0  0  0  0  0  0  0  0  0  0  0
   52.8042   28.4432   53.7165 H   0  0  0  0  0  0  0  0  0  0  0  0
   54.6520   29.4190   53.6990 C   0  0  0  0  0  0  0  0  0  0  0  0
   54.8582   29.1918   54.7554 H   0  0  0  0  0  0  0  0  0  0  0  0
   55.7850   29.8750   52.8700 C   0  0  0  0  0  0  0  0  0  0  0  0
   56.7460   29.0810   52.3590 N   0  0  0  0  0  0  0  0  0  0  0  0
   57.5510   29.8240   51.6160 N   0  0  0  0  0  0  0  0  0  0  0  0
   57.1010   31.0920   51.6380 C   0  0  0  0  0  0  0  0  0  0  0  0
   57.7670   32.1880   50.9070 C   0  0  0  0  0  0  0  0  0  0  0  0
   57.2523   33.1571   50.8299 H   0  0  0  0  0  0  0  0  0  0  0  0
   58.9710   32.0550   50.3330 C   0  0  0  0  0  0  0  0  0  0  0  0
   59.7458   31.4927   50.8748 H   0  0  0  0  0  0  0  0  0  0  0  0
   59.3160   32.6240   49.0080 C   0  0  0  0  0  0  0  0  0  0  0  0
   60.6690   32.8340   48.6980 C   0  0  0  0  0  0  0  0  0  0  0  0
   61.4422   32.5816   49.4386 H   0  0  0  0  0  0  0  0  0  0  0  0
   61.0450   33.3610   47.4570 C   0  0  0  0  0  0  0  0  0  0  0  0
   62.8990   33.6450   47.0800 Br  0  0  0  0  0  0  0  0  0  0  0  0
   60.0670   33.6730   46.5040 C   0  0  0  0  0  0  0  0  0  0  0  0
   60.4390   34.1970   45.2700 O   0  0  0  0  0  0  0  0  0  0  0  0
   58.7150   33.4520   46.7940 C   0  0  0  0  0  0  0  0  0  0  0  0
   57.3630   33.8520   45.5000 Br  0  0  0  0  0  0  0  0  0  0  0  0
   58.3410   32.9270   48.0360 C   0  0  0  0  0  0  0  0  0  0  0  0
   57.2779   32.7493   48.2556 H   0  0  0  0  0  0  0  0  0  0  0  0
   55.9640   31.1660   52.4230 C   0  0  0  0  0  0  0  0  0  0  0  0
   55.3465   32.0501   52.6398 H   0  0  0  0  0  0  0  0  0  0  0  0
   52.0240   31.2360   52.6370 C   0  0  0  0  0  0  0  0  0  0  0  0
   52.0025   31.5250   53.6981 H   0  0  0  0  0  0  0  0  0  0  0  0
   51.3440   32.0230   51.6850 C   0  0  0  0  0  0  0  0  0  0  0  0
   50.6470   33.1880   52.0450 O   0  0  0  0  0  0  0  0  0  0  0  0
   50.2580   33.5190   53.3740 C   0  0  0  0  0  0  0  0  0  0  0  0
   50.8951   32.9769   54.0883 H   0  0  0  0  0  0  0  0  0  0  0  0
   50.3712   34.6019   53.5302 H   0  0  0  0  0  0  0  0  0  0  0  0
   49.2071   33.2339   53.5302 H   0  0  0  0  0  0  0  0  0  0  0  0
  1  2  1  0
  2  3  1  0
  3  4  2  0
  4  5  1  0
  4  6  1  0
  6  7  1  0
  6  8  2  0
  8  9  1  0
  9 10  1  0
  9 11  2  0
 11 12  1  0
 11 13  1  0
 13 14  2  0
 14 15  1  0
 15 16  1  0
 16 17  1  0
 17 18  1  0
 17 19  2  0
 19 20  1  0
 19 21  1  0
 21 22  2  0
 22 23  1  0
 22 24  1  0
 24 25  1  0
 24 26  2  0
 26 27  1  0
 26 28  1  0
 28 29  1  0
 28 30  2  0
 30 31  1  0
 16 32  2  0
 32 33  1  0
  8 34  1  0
 34 35  1  0
 34 36  2  0
 36 37  1  0
 37 38  1  0
 38 39  1  0
 38 40  1  0
 38 41  1  0
 36  3  1  0
 32 13  1  0
 30 21  1  0
M  CHG  2  15  -1  27  -1
M  END
>  <UniqueID>  (20) 
18

>  <SMILES>  (20) 
COc1cc(/C=C\c2cc(/C=C/c3cc(Br)c([O-])c(Br)c3)[n-]n2)ccc1O

>  <Energy>  (20) 
82.70430371602058

>  <Genealogy>  (20) 
COc1cc(C=Cc2cc(C=Cc3cc(Br)c([O-])c(Br)c3)[n-]n2)ccc1O (protonated)
COc1cc(/C=C\c2cc(/C=C/c3cc(Br)c([O-])c(Br)c3)[n-]n2)ccc1O (cis-trans isomerization)
COc1cc(/C=C\c2cc(/C=C/c3cc(Br)c([O-])c(Br)c3)[n-]n2)ccc1O (3D coordinates assigned)
COc1cc(/C=C\c2cc(/C=C/c3cc(Br)c([O-])c(Br)c3)[n-]n2)ccc1O (optimized conformer: 82.70430371602058 kcal/mol)

>  <smiles>  (20) 
COc1cc(C=Cc2cc(C=Cc3cc(Br)c(O)c(Br)c3)[nH]n2)ccc1O

>  <score_type>  (20) 
oracle

>  <origin>  (20) 
adg

>  <m_score__min__energy>  (20) 
-12.16

>  <m_primary>  (20) 
energy

$$$$
20:0
     RDKit          3D

 40 43  0  0  0  0  0  0  0  0999 V2000
   57.2500   31.3720   44.1490 H   0  0  0  0  0  0  0  0  0  0  0  0
   56.5270   30.7100   44.5070 N   0  0  0  0  0  0  0  0  0  0  0  0
   56.8480   29.5570   44.9960 C   0  0  0  0  0  0  0  0  0  0  0  0
   58.1590   29.2760   45.2920 N   0  0  0  0  0  0  0  0  0  0  0  0
   58.5270   28.0650   45.8120 C   0  0  0  0  0  0  0  0  0  0  0  0
   59.8590   27.7650   46.1040 O   0  0  0  0  0  0  0  0  0  0  0  0
   60.3920   27.8390   47.4220 C   0  0  0  0  0  0  0  0  0  0  0  0
   59.8243   27.1694   48.0849 H   0  0  0  0  0  0  0  0  0  0  0  0
   61.4484   27.5326   47.4073 H   0  0  0  0  0  0  0  0  0  0  0  0
   60.2880   29.2480   47.9270 C   0  0  0  0  0  0  0  0  0  0  0  0
   61.0550   30.2750   47.3560 C   0  0  0  0  0  0  0  0  0  0  0  0
   61.7337   30.0517   46.5196 H   0  0  0  0  0  0  0  0  0  0  0  0
   60.9600   31.5810   47.8460 C   0  0  0  0  0  0  0  0  0  0  0  0
   61.5698   32.3782   47.3958 H   0  0  0  0  0  0  0  0  0  0  0  0
   60.0910   31.8840   48.9100 C   0  0  0  0  0  0  0  0  0  0  0  0
   59.9940   33.2690   49.4330 C   0  0  0  0  0  0  0  0  0  0  0  0
   60.2800   33.5080   50.6370 O   0  0  0  0  0  0  0  0  0  0  0  0
   59.6160   34.3430   48.5590 N   0  0  0  0  0  0  0  0  0  0  0  0
   58.9790   34.2060   47.2810 C   0  0  0  0  0  0  0  0  0  0  0  0
   57.7750   33.4940   47.1250 C   0  0  0  0  0  0  0  0  0  0  0  0
   57.2934   33.0323   47.9996 H   0  0  0  0  0  0  0  0  0  0  0  0
   57.1890   33.3720   45.8600 C   0  0  0  0  0  0  0  0  0  0  0  0
   56.2416   32.8252   45.7439 H   0  0  0  0  0  0  0  0  0  0  0  0
   57.8060   33.9440   44.7440 C   0  0  0  0  0  0  0  0  0  0  0  0
   57.3404   33.8537   43.7515 H   0  0  0  0  0  0  0  0  0  0  0  0
   59.0150   34.6310   44.8890 C   0  0  0  0  0  0  0  0  0  0  0  0
   59.5040   35.0750   44.0093 H   0  0  0  0  0  0  0  0  0  0  0  0
   59.6030   34.7540   46.1520 C   0  0  0  0  0  0  0  0  0  0  0  0
   60.5609   35.2840   46.2599 H   0  0  0  0  0  0  0  0  0  0  0  0
   59.3260   30.8500   49.4790 C   0  0  0  0  0  0  0  0  0  0  0  0
   58.6427   31.0711   50.3122 H   0  0  0  0  0  0  0  0  0  0  0  0
   59.4280   29.5430   48.9930 C   0  0  0  0  0  0  0  0  0  0  0  0
   58.8294   28.7414   49.4504 H   0  0  0  0  0  0  0  0  0  0  0  0
   57.5260   27.1300   46.0280 C   0  0  0  0  0  0  0  0  0  0  0  0
   57.6170   25.8830   46.5090 N   0  0  0  0  0  0  0  0  0  0  0  0
   56.3220   25.4630   46.4730 C   0  0  0  0  0  0  0  0  0  0  0  0
   56.0130   24.4607   46.8045 H   0  0  0  0  0  0  0  0  0  0  0  0
   55.4410   26.3830   45.9940 N   0  0  0  0  0  0  0  0  0  0  0  0
   56.2440   27.4200   45.7220 C   0  0  0  0  0  0  0  0  0  0  0  0
   55.8750   28.6200   45.2110 N   0  0  0  0  0  0  0  0  0  0  0  0
  1  2  1  0
  2  3  2  0
  3  4  1  0
  4  5  2  0
  5  6  1  0
  6  7  1  0
  7  8  1  0
  7  9  1  0
  7 10  1  0
 10 11  2  0
 11 12  1  0
 11 13  1  0
 13 14  1  0
 13 15  2  0
 15 16  1  0
 16 17  2  0
 16 18  1  0
 18 19  1  0
 19 20  2  0
 20 21  1  0
 20 22  1  0
 22 23  1  0
 22 24  2  0
 24 25  1  0
 24 26  1  0
 26 27  1  0
 26 28  2  0
 28 29  1  0
 15 30  1  0
 30 31  1  0
 30 32  2  0
 32 33  1  0
  5 34  1  0
 34 35  1  0
 35 36  2  0
 36 37  1  0
 36 38  1  0
 38 39  1  0
 39 40  1  0
 40  3  1  0
 32 10  1  0
 39 34  2  0
 28 19  1  0
M  CHG  3  18  -1  38  -1  40  -1
M  END
>  <UniqueID>  (21) 
19

>  <SMILES>  (21) 
[H]/N=c1\nc(OCc2ccc(C(=O)[N-]c3ccccc3)cc2)c2nc[n-]c2[n-]1

>  <Energy>  (21) 
85.09008520225544

>  <Genealogy>  (21) 
N=c1nc(OCc2ccc(C(=O)[N-]c3ccccc3)cc2)c2nc[n-]c2[n-]1 (protonated)
[H]/N=c1\nc(OCc2ccc(C(=O)[N-]c3ccccc3)cc2)c2nc[n-]c2[n-]1 (cis-trans isomerization)
[H]/N=c1\nc(OCc2ccc(C(=O)[N-]c3ccccc3)cc2)c2nc[n-]c2[n-]1 (3D coordinates assigned)
[H]/N=c1\nc(OCc2ccc(C(=O)[N-]c3ccccc3)cc2)c2nc[n-]c2[n-]1 (optimized conformer: 85.09008520225544 kcal/mol)

>  <smiles>  (21) 
N=c1nc(OCc2ccc(C(=O)Nc3ccccc3)cc2)c2nc[nH]c2[nH]1

>  <score_type>  (21) 
oracle

>  <origin>  (21) 
adg

>  <m_score__min__energy>  (21) 
-13.18

>  <m_primary>  (21) 
energy

$$$$
21:0
     RDKit          3D

 41 42  0  0  0  0  0  0  0  0999 V2000
   61.2450   31.1860   47.5770 N   0  0  0  0  0  0  0  0  0  0  0  0
   60.5360   31.9120   47.0210 C   0  0  0  0  0  0  0  0  0  0  0  0
   59.6510   32.8160   46.3250 C   0  0  0  0  0  0  0  0  0  0  0  0
   60.0960   34.1160   46.0470 C   0  0  0  0  0  0  0  0  0  0  0  0
   59.2860   35.0000   45.3280 C   0  0  0  0  0  0  0  0  0  0  0  0
   58.0320   34.5870   44.8750 C   0  0  0  0  0  0  0  0  0  0  0  0
   57.5790   33.2940   45.1450 C   0  0  0  0  0  0  0  0  0  0  0  0
   58.3720   32.4050   45.8870 C   0  0  0  0  0  0  0  0  0  0  0  0
   57.8550   31.0500   46.1640 C   0  0  0  0  0  0  0  0  0  0  0  0
   58.1780   30.4790   47.2380 O   0  0  0  0  0  0  0  0  0  0  0  0
   57.0110   30.3560   45.2360 N   0  0  0  0  0  0  0  0  0  0  0  0
   57.4470   29.7880   43.9600 C   0  0  0  0  0  0  0  0  0  0  0  0
   58.3610   28.5630   44.1730 C   0  0  1  0  0  0  0  0  0  0  0  0
   59.7180   28.9880   44.7950 C   0  0  0  0  0  0  0  0  0  0  0  0
   60.4050   27.8180   45.5110 C   0  0  0  0  0  0  0  0  0  0  0  0
   59.5400   27.2550   46.6720 C   0  0  1  0  0  0  0  0  0  0  0  0
   60.0470   27.6740   48.0760 C   0  0  0  0  0  0  0  0  0  0  0  0
   59.9330   29.1120   48.3440 N   0  0  0  0  0  0  0  0  0  0  0  0
   58.0250   27.5260   46.4870 C   0  0  0  0  0  0  0  0  0  0  0  0
   57.6360   27.4700   45.0060 C   0  0  0  0  0  0  0  0  0  0  0  0
   61.0869   34.4420   46.3961 H   0  0  0  0  0  0  0  0  0  0  0  0
   59.6370   36.0214   45.1192 H   0  0  0  0  0  0  0  0  0  0  0  0
   57.3989   35.2819   44.3038 H   0  0  0  0  0  0  0  0  0  0  0  0
   56.5952   32.9705   44.7741 H   0  0  0  0  0  0  0  0  0  0  0  0
   56.5619   29.4787   43.3847 H   0  0  0  0  0  0  0  0  0  0  0  0
   58.0171   30.5553   43.4158 H   0  0  0  0  0  0  0  0  0  0  0  0
   58.5873   28.1165   43.1935 H   0  0  0  0  0  0  0  0  0  0  0  0
   59.5403   29.7953   45.5208 H   0  0  0  0  0  0  0  0  0  0  0  0
   60.3768   29.3270   43.9819 H   0  0  0  0  0  0  0  0  0  0  0  0
   61.3646   28.1668   45.9204 H   0  0  0  0  0  0  0  0  0  0  0  0
   60.5537   27.0119   44.7774 H   0  0  0  0  0  0  0  0  0  0  0  0
   59.6664   26.1635   46.6195 H   0  0  0  0  0  0  0  0  0  0  0  0
   59.4593   27.1330   48.8322 H   0  0  0  0  0  0  0  0  0  0  0  0
   61.1178   27.4254   48.1164 H   0  0  0  0  0  0  0  0  0  0  0  0
   60.7700   29.4700   48.8520 H   0  0  0  0  0  0  0  0  0  0  0  0
   59.0660   29.3220   48.8880 H   0  0  0  0  0  0  0  0  0  0  0  0
   59.8690   29.6170   47.4310 H   0  0  0  0  0  0  0  0  0  0  0  0
   57.7865   28.5236   46.8845 H   0  0  0  0  0  0  0  0  0  0  0  0
   57.4610   26.7518   47.0279 H   0  0  0  0  0  0  0  0  0  0  0  0
   56.5496   27.6186   44.9181 H   0  0  0  0  0  0  0  0  0  0  0  0
   57.9359   26.4876   44.6124 H   0  0  0  0  0  0  0  0  0  0  0  0
  1  2  3  0
  2  3  1  0
  3  4  2  0
  4  5  1  0
  5  6  2  0
  6  7  1  0
  7  8  2  0
  8  9  1  0
  9 10  2  0
  9 11  1  0
 11 12  1  0
 12 13  1  0
 13 14  1  0
 14 15  1  0
 15 16  1  0
 16 17  1  0
 17 18  1  0
 16 19  1  0
 19 20  1  0
  8  3  1  0
 20 13  1  0
  4 21  1  0
  5 22  1  0
  6 23  1  0
  7 24  1  0
 12 25  1  0
 12 26  1  0
 13 27  1  6
 14 28  1  0
 14 29  1  0
 15 30  1  0
 15 31  1  0
 16 32  1  1
 17 33  1  0
 17 34  1  0
 18 35  1  0
 18 36  1  0
 18 37  1  0
 19 38  1  0
 19 39  1  0
 20 40  1  0
 20 41  1  0
M  CHG  2  11  -1  18   1
M  END
>  <UniqueID>  (22) 
20

>  <SMILES>  (22) 
N#Cc1ccccc1C(=O)[N-]CC1CCC(C[NH3+])CC1

>  <Energy>  (22) 
46.645697444117886

>  <Genealogy>  (22) 
N#Cc1ccccc1C(=O)[N-]CC1CCC(C[NH3+])CC1 (protonated)
N#Cc1ccccc1C(=O)[N-]CC1CCC(C[NH3+])CC1 (3D coordinates assigned)
N#Cc1ccccc1C(=O)[N-]CC1CCC(C[NH3+])CC1 (nonaromatic ring conformer: 46.645697444117886 kcal/mol)

>  <smiles>  (22) 
N#Cc1ccccc1C(=O)NCC1CCC(CN)CC1

>  <score_type>  (22) 
oracle

>  <origin>  (22) 
adg

>  <m_score__min__energy>  (22) 
-5.9100000000000001

>  <m_primary>  (22) 
energy

$$$$
22:0
     RDKit          3D

 58 61  0  0  0  0  0  0  0  0999 V2000
   50.7740   23.3530   44.5440 C   0  0  0  0  0  0  0  0  0  0  0  0
   51.6850   22.3580   44.9990 O   0  0  0  0  0  0  0  0  0  0  0  0
   52.6410   22.5610   46.0050 C   0  0  0  0  0  0  0  0  0  0  0  0
   52.4980   21.8640   47.2110 C   0  0  0  0  0  0  0  0  0  0  0  0
   53.4270   22.0340   48.2400 C   0  0  0  0  0  0  0  0  0  0  0  0
   54.5200   22.8880   48.0640 C   0  0  0  0  0  0  0  0  0  0  0  0
   54.6950   23.5690   46.8550 C   0  0  0  0  0  0  0  0  0  0  0  0
   55.8610   24.3890   46.6760 N   0  0  0  0  0  0  0  0  0  0  0  0
   55.8720   25.7300   46.1590 C   0  0  0  0  0  0  0  0  0  0  0  0
   54.7740   26.3270   46.0040 O   0  0  0  0  0  0  0  0  0  0  0  0
   57.1360   26.4390   45.8420 C   0  0  0  0  0  0  0  0  0  0  0  0
   58.3670   25.9100   46.2510 C   0  0  0  0  0  0  0  0  0  0  0  0
   59.5470   26.6220   46.0310 C   0  0  0  0  0  0  0  0  0  0  0  0
   59.5170   27.8790   45.4130 C   0  0  0  0  0  0  0  0  0  0  0  0
   61.0710   28.7660   45.2080 S   0  0  0  0  0  0  0  0  0  0  0  0
   60.8440   29.7510   46.6930 C   0  0  0  0  0  0  0  0  0  0  0  0
   61.6490   30.8780   46.9120 C   0  0  0  0  0  0  0  0  0  0  0  0
   61.4620   31.6630   48.0540 C   0  0  0  0  0  0  0  0  0  0  0  0
   60.4650   31.3310   48.9760 C   0  0  0  0  0  0  0  0  0  0  0  0
   59.6540   30.2120   48.7560 C   0  0  0  0  0  0  0  0  0  0  0  0
   59.8420   29.4240   47.6160 C   0  0  0  0  0  0  0  0  0  0  0  0
   58.2930   28.4030   44.9440 C   0  0  0  0  0  0  0  0  0  0  0  0
   58.2320   29.7000   44.3170 N   0  0  0  0  0  0  0  0  0  0  0  0
   57.3630   30.7440   44.7720 C   0  0  0  0  0  0  0  0  0  0  0  0
   56.1260   30.5190   44.8630 O   0  0  0  0  0  0  0  0  0  0  0  0
   57.9070   32.0720   45.1460 C   0  0  0  0  0  0  0  0  0  0  0  0
   58.1490   33.0440   44.1580 C   0  0  0  0  0  0  0  0  0  0  0  0
   58.6280   34.3070   44.5100 C   0  0  0  0  0  0  0  0  0  0  0  0
   58.8670   34.6180   45.8490 C   0  0  0  0  0  0  0  0  0  0  0  0
   58.6320   33.6700   46.8500 C   0  0  0  0  0  0  0  0  0  0  0  0
   58.8920   34.0330   48.1800 O   0  0  0  0  0  0  0  0  0  0  0  0
   60.1220   34.5900   48.6380 C   0  0  0  0  0  0  0  0  0  0  0  0
   58.1460   32.3960   46.4960 C   0  0  0  0  0  0  0  0  0  0  0  0
   57.1140   27.6610   45.1500 C   0  0  0  0  0  0  0  0  0  0  0  0
   53.7340   23.4310   45.8380 C   0  0  0  0  0  0  0  0  0  0  0  0
   50.3156   23.8537   45.4095 H   0  0  0  0  0  0  0  0  0  0  0  0
   51.3137   24.0935   43.9355 H   0  0  0  0  0  0  0  0  0  0  0  0
   49.9889   22.8805   43.9355 H   0  0  0  0  0  0  0  0  0  0  0  0
   51.6489   21.1784   47.3488 H   0  0  0  0  0  0  0  0  0  0  0  0
   53.2986   21.4952   49.1904 H   0  0  0  0  0  0  0  0  0  0  0  0
   55.2452   23.0248   48.8797 H   0  0  0  0  0  0  0  0  0  0  0  0
   58.4037   24.9292   46.7477 H   0  0  0  0  0  0  0  0  0  0  0  0
   60.5095   26.1923   46.3457 H   0  0  0  0  0  0  0  0  0  0  0  0
   62.4292   31.1451   46.1840 H   0  0  0  0  0  0  0  0  0  0  0  0
   62.0998   32.5423   48.2270 H   0  0  0  0  0  0  0  0  0  0  0  0
   60.3181   31.9491   49.8740 H   0  0  0  0  0  0  0  0  0  0  0  0
   58.8680   29.9520   49.4803 H   0  0  0  0  0  0  0  0  0  0  0  0
   59.2021   28.5460   47.4437 H   0  0  0  0  0  0  0  0  0  0  0  0
   58.8920   29.9380   43.5460 H   0  0  0  0  0  0  0  0  0  0  0  0
   57.9594   32.8070   43.1007 H   0  0  0  0  0  0  0  0  0  0  0  0
   58.8175   35.0589   43.7298 H   0  0  0  0  0  0  0  0  0  0  0  0
   59.2429   35.6158   46.1192 H   0  0  0  0  0  0  0  0  0  0  0  0
   60.1348   34.5958   49.7379 H   0  0  0  0  0  0  0  0  0  0  0  0
   60.9606   33.9838   48.2647 H   0  0  0  0  0  0  0  0  0  0  0  0
   60.2196   35.6201   48.2647 H   0  0  0  0  0  0  0  0  0  0  0  0
   57.9517   31.6487   47.2795 H   0  0  0  0  0  0  0  0  0  0  0  0
   56.1590   28.0452   44.7621 H   0  0  0  0  0  0  0  0  0  0  0  0
   53.8373   24.0066   44.9063 H   0  0  0  0  0  0  0  0  0  0  0  0
  1  2  1  0
  2  3  1  0
  3  4  2  0
  4  5  1  0
  5  6  2  0
  6  7  1  0
  7  8  1  0
  8  9  1  0
  9 10  2  0
  9 11  1  0
 11 12  2  0
 12 13  1  0
 13 14  2  0
 14 15  1  0
 15 16  1  0
 16 17  2  0
 17 18  1  0
 18 19  2  0
 19 20  1  0
 20 21  2  0
 14 22  1  0
 22 23  1  0
 23 24  1  0
 24 25  2  0
 24 26  1  0
 26 27  2  0
 27 28  1  0
 28 29  2  0
 29 30  1  0
 30 31  1  0
 31 32  1  0
 30 33  2  0
 22 34  2  0
  7 35  2  0
 35  3  1  0
 34 11  1  0
 21 16  1  0
 33 26  1  0
  1 36  1  0
  1 37  1  0
  1 38  1  0
  4 39  1  0
  5 40  1  0
  6 41  1  0
 12 42  1  0
 13 43  1  0
 17 44  1  0
 18 45  1  0
 19 46  1  0
 20 47  1  0
 21 48  1  0
 23 49  1  0
 27 50  1  0
 28 51  1  0
 29 52  1  0
 32 53  1  0
 32 54  1  0
 32 55  1  0
 33 56  1  0
 34 57  1  0
 35 58  1  0
M  CHG  1   8  -1
M  END
>  <UniqueID>  (23) 
21

>  <SMILES>  (23) 
COc1cccc([N-]C(=O)c2ccc(Sc3ccccc3)c(NC(=O)c3cccc(OC)c3)c2)c1

>  <Energy>  (23) 
64.93480734344061

>  <Genealogy>  (23) 
COc1cccc([N-]C(=O)c2ccc(Sc3ccccc3)c(NC(=O)c3cccc(OC)c3)c2)c1 (protonated)
COc1cccc([N-]C(=O)c2ccc(Sc3ccccc3)c(NC(=O)c3cccc(OC)c3)c2)c1 (3D coordinates assigned)
COc1cccc([N-]C(=O)c2ccc(Sc3ccccc3)c(NC(=O)c3cccc(OC)c3)c2)c1 (optimized conformer: 64.93480734344061 kcal/mol)

>  <smiles>  (23) 
COc1cccc(NC(=O)c2ccc(Sc3ccccc3)c(NC(=O)c3cccc(OC)c3)c2)c1

>  <score_type>  (23) 
oracle

>  <origin>  (23) 
adg

>  <m_score__min__energy>  (23) 
-12.1

>  <m_primary>  (23) 
energy

$$$$
23:0
     RDKit          3D

 60 63  0  0  0  0  0  0  0  0999 V2000
   61.0924   27.1674   45.0233 H   0  0  0  0  0  0  0  0  0  0  0  0
   60.3550   27.9620   45.2100 C   0  0  0  0  0  0  0  0  0  0  0  0
   59.4810   28.2560   44.2360 C   0  0  0  0  0  0  0  0  0  0  0  0
   59.7406   29.0563   43.5274 H   0  0  0  0  0  0  0  0  0  0  0  0
   58.1620   27.5480   44.0610 C   0  0  0  0  0  0  0  0  0  0  0  0
   58.0102   27.3274   42.9941 H   0  0  0  0  0  0  0  0  0  0  0  0
   58.1820   26.6168   44.6462 H   0  0  0  0  0  0  0  0  0  0  0  0
   57.0450   28.3880   44.5460 N   0  0  0  0  0  0  0  0  0  0  0  0
   57.3880   29.0720   45.8220 C   0  0  0  0  0  0  0  0  0  0  0  0
   56.4803   29.1490   46.4385 H   0  0  0  0  0  0  0  0  0  0  0  0
   58.1638   28.4781   46.3273 H   0  0  0  0  0  0  0  0  0  0  0  0
   57.9480   30.4800   45.5880 C   0  0  0  0  0  0  0  0  0  0  0  0
   58.2111   30.9277   46.5577 H   0  0  0  0  0  0  0  0  0  0  0  0
   58.8370   30.4000   44.9451 H   0  0  0  0  0  0  0  0  0  0  0  0
   56.9530   31.3440   44.9100 N   0  0  0  0  0  0  0  0  0  0  0  0
   57.5340   32.5700   44.3120 C   0  0  0  0  0  0  0  0  0  0  0  0
   58.1786   32.2735   43.4714 H   0  0  0  0  0  0  0  0  0  0  0  0
   56.6909   33.2014   43.9950 H   0  0  0  0  0  0  0  0  0  0  0  0
   58.3610   33.3930   45.2810 C   0  0  0  0  0  0  0  0  0  0  0  0
   58.9500   34.5970   44.8610 C   0  0  0  0  0  0  0  0  0  0  0  0
   58.8680   34.9082   43.8091 H   0  0  0  0  0  0  0  0  0  0  0  0
   59.6390   35.4010   45.7710 C   0  0  0  0  0  0  0  0  0  0  0  0
   60.0962   36.3431   45.4344 H   0  0  0  0  0  0  0  0  0  0  0  0
   59.7490   35.0120   47.1070 C   0  0  0  0  0  0  0  0  0  0  0  0
   60.2774   35.6572   47.8243 H   0  0  0  0  0  0  0  0  0  0  0  0
   59.1860   33.7970   47.5390 C   0  0  0  0  0  0  0  0  0  0  0  0
   59.2360   33.3780   48.8770 O   0  0  0  0  0  0  0  0  0  0  0  0
   60.1560   33.8780   49.8500 C   0  0  0  0  0  0  0  0  0  0  0  0
   60.1671   34.9771   49.8076 H   0  0  0  0  0  0  0  0  0  0  0  0
   59.8383   33.5423   50.8482 H   0  0  0  0  0  0  0  0  0  0  0  0
   61.5430   33.3560   49.5760 C   0  0  0  0  0  0  0  0  0  0  0  0
   62.1520   32.4330   50.4500 C   0  0  0  0  0  0  0  0  0  0  0  0
   61.6182   32.0960   51.3508 H   0  0  0  0  0  0  0  0  0  0  0  0
   63.4320   31.9450   50.1750 C   0  0  0  0  0  0  0  0  0  0  0  0
   63.9033   31.2231   50.8582 H   0  0  0  0  0  0  0  0  0  0  0  0
   64.1140   32.3730   49.0330 C   0  0  0  0  0  0  0  0  0  0  0  0
   65.1230   31.9900   48.8205 H   0  0  0  0  0  0  0  0  0  0  0  0
   63.5160   33.2880   48.1590 C   0  0  0  0  0  0  0  0  0  0  0  0
   64.0539   33.6208   47.2591 H   0  0  0  0  0  0  0  0  0  0  0  0
   62.2360   33.7790   48.4290 C   0  0  0  0  0  0  0  0  0  0  0  0
   61.7691   34.4993   47.7412 H   0  0  0  0  0  0  0  0  0  0  0  0
   58.5320   32.9770   46.6110 C   0  0  0  0  0  0  0  0  0  0  0  0
   58.1480   31.9960   46.9277 H   0  0  0  0  0  0  0  0  0  0  0  0
   56.0020   30.6170   44.0350 C   0  0  0  0  0  0  0  0  0  0  0  0
   55.1046   30.3641   44.6187 H   0  0  0  0  0  0  0  0  0  0  0  0
   55.7535   31.2710   43.1862 H   0  0  0  0  0  0  0  0  0  0  0  0
   56.6100   29.3220   43.4740 C   0  0  0  0  0  0  0  0  0  0  0  0
   55.8556   28.8184   42.8517 H   0  0  0  0  0  0  0  0  0  0  0  0
   57.4993   29.5962   42.8875 H   0  0  0  0  0  0  0  0  0  0  0  0
   60.3830   28.6440   46.5170 C   0  0  0  0  0  0  0  0  0  0  0  0
   59.9800   27.9710   47.6860 C   0  0  0  0  0  0  0  0  0  0  0  0
   59.6297   26.9299   47.6268 H   0  0  0  0  0  0  0  0  0  0  0  0
   60.0240   28.6230   48.9220 C   0  0  0  0  0  0  0  0  0  0  0  0
   59.6950   28.0987   49.8313 H   0  0  0  0  0  0  0  0  0  0  0  0
   60.4840   29.9360   49.0040 C   0  0  0  0  0  0  0  0  0  0  0  0
   60.5111   30.4495   49.9764 H   0  0  0  0  0  0  0  0  0  0  0  0
   60.9120   30.6020   47.8480 C   0  0  0  0  0  0  0  0  0  0  0  0
   61.2800   31.6365   47.9145 H   0  0  0  0  0  0  0  0  0  0  0  0
   60.8720   29.9530   46.6090 C   0  0  0  0  0  0  0  0  0  0  0  0
   61.2253   30.4719   45.7057 H   0  0  0  0  0  0  0  0  0  0  0  0
  1  2  1  0
  2  3  2  0
  3  4  1  0
  3  5  1  0
  5  6  1  0
  5  7  1  0
  5  8  1  0
  8  9  1  0
  9 10  1  0
  9 11  1  0
  9 12  1  0
 12 13  1  0
 12 14  1  0
 12 15  1  0
 15 16  1  0
 16 17  1  0
 16 18  1  0
 16 19  1  0
 19 20  2  0
 20 21  1  0
 20 22  1  0
 22 23  1  0
 22 24  2  0
 24 25  1  0
 24 26  1  0
 26 27  1  0
 27 28  1  0
 28 29  1  0
 28 30  1  0
 28 31  1  0
 31 32  2  0
 32 33  1  0
 32 34  1  0
 34 35  1  0
 34 36  2  0
 36 37  1  0
 36 38  1  0
 38 39  1  0
 38 40  2  0
 40 41  1  0
 26 42  2  0
 42 43  1  0
 15 44  1  0
 44 45  1  0
 44 46  1  0
 44 47  1  0
 47 48  1  0
 47 49  1  0
  2 50  1  0
 50 51  2  0
 51 52  1  0
 51 53  1  0
 53 54  1  0
 53 55  2  0
 55 56  1  0
 55 57  1  0
 57 58  1  0
 57 59  2  0
 59 60  1  0
 47  8  1  0
 59 50  1  0
 42 19  1  0
 40 31  1  0
M  END
>  <UniqueID>  (24) 
22

>  <SMILES>  (24) 
C(=C\c1ccccc1)\CN1CCN(Cc2cccc(OCc3ccccc3)c2)CC1

>  <Energy>  (24) 
80.27963372758336

>  <Genealogy>  (24) 
C(=C\c1ccccc1)\CN1CCN(Cc2cccc(OCc3ccccc3)c2)CC1 (cis-trans isomerization)
C(=C\c1ccccc1)\CN1CCN(Cc2cccc(OCc3ccccc3)c2)CC1 (3D coordinates assigned)
C(=C\c1ccccc1)\CN1CCN(Cc2cccc(OCc3ccccc3)c2)CC1 (nonaromatic ring conformer: 80.27963372758336 kcal/mol)

>  <smiles>  (24) 
C(=Cc1ccccc1)CN1CCN(Cc2cccc(OCc3ccccc3)c2)CC1

>  <score_type>  (24) 
oracle

>  <origin>  (24) 
adg

>  <m_score__min__energy>  (24) 
-8.9900000000000002

>  <m_primary>  (24) 
energy

$$$$
24:0
     RDKit          3D

 42 44  0  0  0  0  0  0  0  0999 V2000
   60.1460   29.5860   48.2760 O   0  0  0  0  0  0  0  0  0  0  0  0
   59.0290   30.0200   47.8820 C   0  0  0  0  0  0  0  0  0  0  0  0
   58.5280   31.3420   48.3830 C   0  0  0  0  0  0  0  0  0  0  0  0
   59.1840   32.4770   47.6410 C   0  0  0  0  0  0  0  0  0  0  0  0
   58.5610   33.7370   47.5780 C   0  0  0  0  0  0  0  0  0  0  0  0
   59.1920   34.8020   46.9270 C   0  0  0  0  0  0  0  0  0  0  0  0
   60.4460   34.6180   46.3340 C   0  0  0  0  0  0  0  0  0  0  0  0
   61.0740   33.3690   46.3970 C   0  0  0  0  0  0  0  0  0  0  0  0
   60.4490   32.3030   47.0510 C   0  0  0  0  0  0  0  0  0  0  0  0
   58.2700   29.2760   46.9170 N   0  0  0  0  0  0  0  0  0  0  0  0
   58.6270   27.9410   46.5300 C   0  0  0  0  0  0  0  0  0  0  0  0
   59.9640   27.5390   46.6600 C   0  0  0  0  0  0  0  0  0  0  0  0
   60.3370   26.2210   46.3820 C   0  0  0  0  0  0  0  0  0  0  0  0
   59.3800   25.2960   45.9690 C   0  0  0  0  0  0  0  0  0  0  0  0
   58.0490   25.6900   45.8050 C   0  0  0  0  0  0  0  0  0  0  0  0
   57.6590   27.0180   46.0590 C   0  0  0  0  0  0  0  0  0  0  0  0
   56.2700   27.4300   45.7580 C   0  0  0  0  0  0  0  0  0  0  0  0
   55.3150   26.6450   46.0000 O   0  0  0  0  0  0  0  0  0  0  0  0
   56.0060   28.7300   45.2200 N   0  0  0  0  0  0  0  0  0  0  0  0
   56.6210   29.2090   43.9860 C   0  0  0  0  0  0  0  0  0  0  0  0
   57.0000   30.6430   44.1470 C   0  0  0  0  0  0  0  0  0  0  0  0
   57.7420   31.3900   43.2550 C   0  0  0  0  0  0  0  0  0  0  0  0
   57.8440   32.6420   43.8190 C   0  0  0  0  0  0  0  0  0  0  0  0
   57.1620   32.5800   45.0170 C   0  0  0  0  0  0  0  0  0  0  0  0
   56.6700   31.3750   45.1850 O   0  0  0  0  0  0  0  0  0  0  0  0
   57.4394   31.3952   48.2346 H   0  0  0  0  0  0  0  0  0  0  0  0
   58.7727   31.4305   49.4518 H   0  0  0  0  0  0  0  0  0  0  0  0
   57.5747   33.8849   48.0421 H   0  0  0  0  0  0  0  0  0  0  0  0
   58.7018   35.7857   46.8811 H   0  0  0  0  0  0  0  0  0  0  0  0
   60.9384   35.4555   45.8181 H   0  0  0  0  0  0  0  0  0  0  0  0
   62.0603   33.2258   45.9315 H   0  0  0  0  0  0  0  0  0  0  0  0
   60.9485   31.3244   47.1044 H   0  0  0  0  0  0  0  0  0  0  0  0
   57.5440   29.7790   46.3560 H   0  0  0  0  0  0  0  0  0  0  0  0
   60.7242   28.2656   46.9828 H   0  0  0  0  0  0  0  0  0  0  0  0
   61.3876   25.9134   46.4894 H   0  0  0  0  0  0  0  0  0  0  0  0
   59.6725   24.2541   45.7718 H   0  0  0  0  0  0  0  0  0  0  0  0
   57.2998   24.9555   45.4745 H   0  0  0  0  0  0  0  0  0  0  0  0
   57.5201   28.6137   43.7686 H   0  0  0  0  0  0  0  0  0  0  0  0
   55.9067   29.1081   43.1556 H   0  0  0  0  0  0  0  0  0  0  0  0
   58.1633   31.0557   42.2954 H   0  0  0  0  0  0  0  0  0  0  0  0
   58.3643   33.5155   43.3992 H   0  0  0  0  0  0  0  0  0  0  0  0
   57.0479   33.4146   45.7244 H   0  0  0  0  0  0  0  0  0  0  0  0
  1  2  2  0
  2  3  1  0
  3  4  1  0
  4  5  2  0
  5  6  1  0
  6  7  2  0
  7  8  1  0
  8  9  2  0
  2 10  1  0
 10 11  1  0
 11 12  2  0
 12 13  1  0
 13 14  2  0
 14 15  1  0
 15 16  2  0
 16 17  1  0
 17 18  2  0
 17 19  1  0
 19 20  1  0
 20 21  1  0
 21 22  2  0
 22 23  1  0
 23 24  2  0
 24 25  1  0
  9  4  1  0
 16 11  1  0
 25 21  1  0
  3 26  1  0
  3 27  1  0
  5 28  1  0
  6 29  1  0
  7 30  1  0
  8 31  1  0
  9 32  1  0
 10 33  1  0
 12 34  1  0
 13 35  1  0
 14 36  1  0
 15 37  1  0
 20 38  1  0
 20 39  1  0
 22 40  1  0
 23 41  1  0
 24 42  1  0
M  CHG  1  19  -1
M  END
>  <UniqueID>  (25) 
23

>  <SMILES>  (25) 
O=C(Cc1ccccc1)Nc1ccccc1C(=O)[N-]Cc1ccco1

>  <Energy>  (25) 
73.46043651482466

>  <Genealogy>  (25) 
O=C(Cc1ccccc1)Nc1ccccc1C(=O)[N-]Cc1ccco1 (protonated)
O=C(Cc1ccccc1)Nc1ccccc1C(=O)[N-]Cc1ccco1 (3D coordinates assigned)
O=C(Cc1ccccc1)Nc1ccccc1C(=O)[N-]Cc1ccco1 (optimized conformer: 73.46043651482466 kcal/mol)

>  <smiles>  (25) 
O=C(Cc1ccccc1)Nc1ccccc1C(=O)NCc1ccco1

>  <score_type>  (25) 
oracle

>  <origin>  (25) 
adg

>  <m_score__min__energy>  (25) 
-9.8000000000000007

>  <m_primary>  (25) 
energy

$$$$
25:0
     RDKit          3D

 42 45  0  0  0  0  0  0  0  0999 V2000
   58.9950   23.8300   45.6730 C   0  0  0  0  0  0  0  0  0  0  0  0
   59.1120   25.1160   46.2730 O   0  0  0  0  0  0  0  0  0  0  0  0
   58.5500   26.2900   45.7460 C   0  0  0  0  0  0  0  0  0  0  0  0
   59.2550   27.1400   44.8710 C   0  0  0  0  0  0  0  0  0  0  0  0
   58.6520   28.3000   44.3770 C   0  0  0  0  0  0  0  0  0  0  0  0
   57.3430   28.6300   44.7530 C   0  0  0  0  0  0  0  0  0  0  0  0
   56.5830   30.1010   44.1550 S   0  0  0  0  0  0  0  0  0  0  0  0
   55.0990   29.8810   44.0670 O   0  0  0  0  0  0  0  0  0  0  0  0
   57.1070   30.4560   42.7900 O   0  0  0  0  0  0  0  0  0  0  0  0
   56.9020   31.4120   45.2430 N   0  0  0  0  0  0  0  0  0  0  0  0
   58.1730   31.7020   45.8380 C   0  0  0  0  0  0  0  0  0  0  0  0
   58.8170   30.6980   46.5690 C   0  0  0  0  0  0  0  0  0  0  0  0
   60.0600   30.9340   47.1640 C   0  0  0  0  0  0  0  0  0  0  0  0
   60.6840   32.1900   47.0380 C   0  0  0  0  0  0  0  0  0  0  0  0
   61.9970   32.4720   47.6760 C   0  0  0  0  0  0  0  0  0  0  0  0
   62.9000   33.4400   47.1390 C   0  0  0  0  0  0  0  0  0  0  0  0
   64.0990   33.6780   47.7530 N   0  0  0  0  0  0  0  0  0  0  0  0
   64.3980   32.9800   48.8740 C   0  0  0  0  0  0  0  0  0  0  0  0
   65.5120   33.0780   49.6130 N   0  0  0  0  0  0  0  0  0  0  0  0
   65.3400   32.2000   50.6320 C   0  0  0  0  0  0  0  0  0  0  0  0
   64.1100   31.5460   50.5310 C   0  0  0  0  0  0  0  0  0  0  0  0
   63.5380   32.0710   49.3970 C   0  0  0  0  0  0  0  0  0  0  0  0
   62.3430   31.8040   48.8230 N   0  0  0  0  0  0  0  0  0  0  0  0
   60.0280   33.2020   46.3140 C   0  0  0  0  0  0  0  0  0  0  0  0
   58.7870   32.9600   45.7170 C   0  0  0  0  0  0  0  0  0  0  0  0
   56.6380   27.7830   45.6180 C   0  0  0  0  0  0  0  0  0  0  0  0
   57.2390   26.6220   46.1110 C   0  0  0  0  0  0  0  0  0  0  0  0
   58.9253   23.0636   46.4590 H   0  0  0  0  0  0  0  0  0  0  0  0
   58.0902   23.7978   45.0482 H   0  0  0  0  0  0  0  0  0  0  0  0
   59.8791   23.6351   45.0482 H   0  0  0  0  0  0  0  0  0  0  0  0
   60.2845   26.8895   44.5754 H   0  0  0  0  0  0  0  0  0  0  0  0
   59.2069   28.9564   43.6905 H   0  0  0  0  0  0  0  0  0  0  0  0
   58.3404   29.7125   46.6768 H   0  0  0  0  0  0  0  0  0  0  0  0
   60.5537   30.1333   47.7343 H   0  0  0  0  0  0  0  0  0  0  0  0
   62.6303   33.9958   46.2288 H   0  0  0  0  0  0  0  0  0  0  0  0
   66.3340   33.7000   49.4440 H   0  0  0  0  0  0  0  0  0  0  0  0
   66.0732   32.0257   51.4333 H   0  0  0  0  0  0  0  0  0  0  0  0
   63.6936   30.7837   51.2059 H   0  0  0  0  0  0  0  0  0  0  0  0
   60.4956   34.1929   46.2166 H   0  0  0  0  0  0  0  0  0  0  0  0
   58.2884   33.7593   45.1492 H   0  0  0  0  0  0  0  0  0  0  0  0
   55.6074   28.0329   45.9102 H   0  0  0  0  0  0  0  0  0  0  0  0
   56.6784   25.9637   46.7909 H   0  0  0  0  0  0  0  0  0  0  0  0
  1  2  1  0
  2  3  1  0
  3  4  2  0
  4  5  1  0
  5  6  2  0
  6  7  1  0
  7  8  2  0
  7  9  2  0
  7 10  1  0
 10 11  1  0
 11 12  2  0
 12 13  1  0
 13 14  2  0
 14 15  1  0
 15 16  2  0
 16 17  1  0
 17 18  2  0
 18 19  1  0
 19 20  1  0
 20 21  2  0
 21 22  1  0
 22 23  2  0
 14 24  1  0
 24 25  2  0
  6 26  1  0
 26 27  2  0
 27  3  1  0
 25 11  1  0
 23 15  1  0
 22 18  1  0
  1 28  1  0
  1 29  1  0
  1 30  1  0
  4 31  1  0
  5 32  1  0
 12 33  1  0
 13 34  1  0
 16 35  1  0
 19 36  1  0
 20 37  1  0
 21 38  1  0
 24 39  1  0
 25 40  1  0
 26 41  1  0
 27 42  1  0
M  CHG  1  10  -1
M  END
>  <UniqueID>  (26) 
24

>  <SMILES>  (26) 
COc1ccc(S(=O)(=O)[N-]c2ccc(-c3cnc4[nH]ccc4n3)cc2)cc1

>  <Energy>  (26) 
90.60566639196942

>  <Genealogy>  (26) 
COc1ccc(S(=O)(=O)[N-]c2ccc(-c3cnc4[nH]ccc4n3)cc2)cc1 (protonated)
COc1ccc(S(=O)(=O)[N-]c2ccc(-c3cnc4[nH]ccc4n3)cc2)cc1 (3D coordinates assigned)
COc1ccc(S(=O)(=O)[N-]c2ccc(-c3cnc4[nH]ccc4n3)cc2)cc1 (optimized conformer: 90.60566639196942 kcal/mol)

>  <smiles>  (26) 
COc1ccc(S(=O)(=O)Nc2ccc(-c3cnc4[nH]ccc4n3)cc2)cc1

>  <score_type>  (26) 
oracle

>  <origin>  (26) 
adg

>  <m_score__min__energy>  (26) 
-9.25

>  <m_primary>  (26) 
energy

$$$$
26:0
     RDKit          3D

 42 44  0  0  0  0  0  0  0  0999 V2000
   55.7670   27.0840   45.6240 F   0  0  0  0  0  0  0  0  0  0  0  0
   56.8980   27.8200   45.7530 C   0  0  0  0  0  0  0  0  0  0  0  0
   57.8710   27.4460   46.6780 C   0  0  0  0  0  0  0  0  0  0  0  0
   59.0380   28.1990   46.8100 C   0  0  0  0  0  0  0  0  0  0  0  0
   59.2410   29.3420   46.0190 C   0  0  0  0  0  0  0  0  0  0  0  0
   60.5310   30.1190   46.1500 C   0  0  0  0  0  0  0  0  0  0  0  0
   60.7650   30.6000   47.5900 C   0  0  0  0  0  0  0  0  0  0  0  0
   61.7800   31.7120   47.6500 C   0  0  0  0  0  0  0  0  0  0  0  0
   61.7170   32.7820   46.7420 C   0  0  0  0  0  0  0  0  0  0  0  0
   62.6880   33.7880   46.7690 C   0  0  0  0  0  0  0  0  0  0  0  0
   63.7300   33.7300   47.6990 C   0  0  0  0  0  0  0  0  0  0  0  0
   63.8050   32.6640   48.6010 C   0  0  0  0  0  0  0  0  0  0  0  0
   62.8370   31.6550   48.5750 C   0  0  0  0  0  0  0  0  0  0  0  0
   58.2620   29.7220   45.0760 C   0  0  0  0  0  0  0  0  0  0  0  0
   58.4940   30.8590   44.2810 O   0  0  0  0  0  0  0  0  0  0  0  0
   57.6970   32.0440   44.2770 C   0  0  0  0  0  0  0  0  0  0  0  0
   58.2530   33.0650   45.2330 C   0  0  0  0  0  0  0  0  0  0  0  0
   58.0780   32.9010   46.6180 C   0  0  0  0  0  0  0  0  0  0  0  0
   58.6010   33.8420   47.5100 C   0  0  0  0  0  0  0  0  0  0  0  0
   59.3110   34.9460   47.0280 C   0  0  0  0  0  0  0  0  0  0  0  0
   59.5000   35.1090   45.6540 C   0  0  0  0  0  0  0  0  0  0  0  0
   58.9780   34.1710   44.7570 C   0  0  0  0  0  0  0  0  0  0  0  0
   57.0900   28.9490   44.9530 C   0  0  0  0  0  0  0  0  0  0  0  0
   57.7185   26.5553   47.3053 H   0  0  0  0  0  0  0  0  0  0  0  0
   59.8044   27.8956   47.5384 H   0  0  0  0  0  0  0  0  0  0  0  0
   61.3683   29.4715   45.8506 H   0  0  0  0  0  0  0  0  0  0  0  0
   60.4635   31.0046   45.5010 H   0  0  0  0  0  0  0  0  0  0  0  0
   59.8128   30.9643   48.0030 H   0  0  0  0  0  0  0  0  0  0  0  0
   61.1510   29.7525   48.1753 H   0  0  0  0  0  0  0  0  0  0  0  0
   60.9003   32.8288   46.0066 H   0  0  0  0  0  0  0  0  0  0  0  0
   62.6318   34.6254   46.0580 H   0  0  0  0  0  0  0  0  0  0  0  0
   64.4915   34.5235   47.7213 H   0  0  0  0  0  0  0  0  0  0  0  0
   64.6261   32.6191   49.3316 H   0  0  0  0  0  0  0  0  0  0  0  0
   62.9029   30.8139   49.2808 H   0  0  0  0  0  0  0  0  0  0  0  0
   57.6866   32.4682   43.2621 H   0  0  0  0  0  0  0  0  0  0  0  0
   56.6762   31.7836   44.5935 H   0  0  0  0  0  0  0  0  0  0  0  0
   57.5276   32.0292   47.0014 H   0  0  0  0  0  0  0  0  0  0  0  0
   58.4537   33.7137   48.5925 H   0  0  0  0  0  0  0  0  0  0  0  0
   59.7207   35.6861   47.7311 H   0  0  0  0  0  0  0  0  0  0  0  0
   60.0605   35.9768   45.2762 H   0  0  0  0  0  0  0  0  0  0  0  0
   59.1354   34.2994   43.6759 H   0  0  0  0  0  0  0  0  0  0  0  0
   56.3206   29.2369   44.2215 H   0  0  0  0  0  0  0  0  0  0  0  0
  1  2  1  0
  2  3  2  0
  3  4  1  0
  4  5  2  0
  5  6  1  0
  6  7  1  0
  7  8  1  0
  8  9  2  0
  9 10  1  0
 10 11  2  0
 11 12  1  0
 12 13  2  0
  5 14  1  0
 14 15  1  0
 15 16  1  0
 16 17  1  0
 17 18  2  0
 18 19  1  0
 19 20  2  0
 20 21  1  0
 21 22  2  0
 14 23  2  0
 23  2  1  0
 13  8  1  0
 22 17  1  0
  3 24  1  0
  4 25  1  0
  6 26  1  0
  6 27  1  0
  7 28  1  0
  7 29  1  0
  9 30  1  0
 10 31  1  0
 11 32  1  0
 12 33  1  0
 13 34  1  0
 16 35  1  0
 16 36  1  0
 18 37  1  0
 19 38  1  0
 20 39  1  0
 21 40  1  0
 22 41  1  0
 23 42  1  0
M  END
>  <UniqueID>  (27) 
25

>  <SMILES>  (27) 
Fc1ccc(CCc2ccccc2)c(OCc2ccccc2)c1

>  <Energy>  (27) 
40.66610139060443

>  <Genealogy>  (27) 
Fc1ccc(CCc2ccccc2)c(OCc2ccccc2)c1 (3D coordinates assigned)
Fc1ccc(CCc2ccccc2)c(OCc2ccccc2)c1 (optimized conformer: 40.66610139060443 kcal/mol)

>  <smiles>  (27) 
Fc1ccc(CCc2ccccc2)c(OCc2ccccc2)c1

>  <score_type>  (27) 
oracle

>  <origin>  (27) 
adg

>  <m_score__min__energy>  (27) 
-7.6600000000000001

>  <m_primary>  (27) 
energy

$$$$
27:0
     RDKit          3D

 51 52  0  0  0  0  0  0  0  0999 V2000
   54.9390   30.4590   44.9190 H   0  0  0  0  0  0  0  0  0  0  0  0
   55.1510   29.4380   44.8420 N   0  0  0  0  0  0  0  0  0  0  0  0
   56.3390   28.9730   45.0670 C   0  0  0  0  0  0  0  0  0  0  0  0
   56.4880   27.7480   45.6410 N   0  0  0  0  0  0  0  0  0  0  0  0
   57.7160   27.2260   45.9000 C   0  0  0  0  0  0  0  0  0  0  0  0
   57.8101   26.2352   46.3684 H   0  0  0  0  0  0  0  0  0  0  0  0
   58.8580   27.9590   45.5660 C   0  0  0  0  0  0  0  0  0  0  0  0
   60.2230   27.4320   45.8730 C   0  0  0  0  0  0  0  0  0  0  0  0
   60.3591   27.3795   46.9633 H   0  0  0  0  0  0  0  0  0  0  0  0
   60.3336   26.4265   45.4408 H   0  0  0  0  0  0  0  0  0  0  0  0
   60.9806   28.1023   45.4408 H   0  0  0  0  0  0  0  0  0  0  0  0
   58.7130   29.1890   45.0040 N   0  0  0  0  0  0  0  0  0  0  0  0
   57.4890   29.7190   44.7330 C   0  0  0  0  0  0  0  0  0  0  0  0
   57.4180   31.0860   44.1010 C   0  0  0  0  0  0  0  0  0  0  0  0
   58.4337   31.4962   44.0009 H   0  0  0  0  0  0  0  0  0  0  0  0
   56.9537   31.0051   43.1071 H   0  0  0  0  0  0  0  0  0  0  0  0
   56.6180   31.9710   44.9380 N   0  0  0  0  0  0  0  0  0  0  0  0
   57.0570   33.2700   45.3430 C   0  0  0  0  0  0  0  0  0  0  0  0
   56.5300   34.3040   44.8530 O   0  0  0  0  0  0  0  0  0  0  0  0
   58.1600   33.3940   46.3020 C   0  0  0  0  0  0  0  0  0  0  0  0
   58.0950   33.1730   47.6650 C   0  0  0  0  0  0  0  0  0  0  0  0
   57.1778   33.0108   48.2502 H   0  0  0  0  0  0  0  0  0  0  0  0
   59.3500   33.1910   48.1510 N   0  0  0  0  0  0  0  0  0  0  0  0
   59.7420   32.7900   49.5000 C   0  0  0  0  0  0  0  0  0  0  0  0
   59.6692   33.6579   50.1720 H   0  0  0  0  0  0  0  0  0  0  0  0
   59.0710   31.9892   49.8441 H   0  0  0  0  0  0  0  0  0  0  0  0
   61.1830   32.2680   49.5030 C   0  0  0  0  0  0  0  0  0  0  0  0
   61.4628   31.9824   50.5277 H   0  0  0  0  0  0  0  0  0  0  0  0
   61.2477   31.3955   48.8363 H   0  0  0  0  0  0  0  0  0  0  0  0
   62.1160   33.3180   49.0150 N   0  0  0  0  0  0  0  0  0  0  0  0
   62.5140   34.2080   50.1290 C   0  0  0  0  0  0  0  0  0  0  0  0
   62.2940   33.7160   51.0879 H   0  0  0  0  0  0  0  0  0  0  0  0
   63.5918   34.4180   50.0634 H   0  0  0  0  0  0  0  0  0  0  0  0
   61.9520   35.1513   50.0634 H   0  0  0  0  0  0  0  0  0  0  0  0
   63.2550   32.8240   48.1670 C   0  0  0  0  0  0  0  0  0  0  0  0
   63.5810   33.8720   47.0750 C   0  0  0  0  0  0  0  0  0  0  0  0
   63.8755   34.8187   47.5516 H   0  0  0  0  0  0  0  0  0  0  0  0
   64.4072   33.5042   46.4488 H   0  0  0  0  0  0  0  0  0  0  0  0
   62.6920   34.0377   46.4488 H   0  0  0  0  0  0  0  0  0  0  0  0
   64.5460   32.6640   49.0100 C   0  0  0  0  0  0  0  0  0  0  0  0
   64.2917   32.6955   50.0797 H   0  0  0  0  0  0  0  0  0  0  0  0
   65.0208   31.7001   48.7742 H   0  0  0  0  0  0  0  0  0  0  0  0
   65.2417   33.4828   48.7742 H   0  0  0  0  0  0  0  0  0  0  0  0
   62.9440   31.4640   47.4900 C   0  0  0  0  0  0  0  0  0  0  0  0
   62.7695   30.7010   48.2630 H   0  0  0  0  0  0  0  0  0  0  0  0
   62.0454   31.5633   46.8634 H   0  0  0  0  0  0  0  0  0  0  0  0
   63.7965   31.1629   46.8634 H   0  0  0  0  0  0  0  0  0  0  0  0
   60.2000   33.4150   47.1610 N   0  0  0  0  0  0  0  0  0  0  0  0
   61.2410   33.4150   47.2530 H   0  0  0  0  0  0  0  0  0  0  0  0
   59.5060   33.5490   46.0160 C   0  0  0  0  0  0  0  0  0  0  0  0
   59.9346   33.7477   45.0226 H   0  0  0  0  0  0  0  0  0  0  0  0
  1  2  1  0
  2  3  2  0
  3  4  1  0
  4  5  1  0
  5  6  1  0
  5  7  2  0
  7  8  1  0
  8  9  1  0
  8 10  1  0
  8 11  1  0
  7 12  1  0
 12 13  2  0
 13 14  1  0
 14 15  1  0
 14 16  1  0
 14 17  1  0
 17 18  1  0
 18 19  2  0
 18 20  1  0
 20 21  2  0
 21 22  1  0
 21 23  1  0
 23 24  1  0
 24 25  1  0
 24 26  1  0
 24 27  1  0
 27 28  1  0
 27 29  1  0
 27 30  1  0
 30 31  1  0
 31 32  1  0
 31 33  1  0
 31 34  1  0
 30 35  1  0
 35 36  1  0
 36 37  1  0
 36 38  1  0
 36 39  1  0
 35 40  1  0
 40 41  1  0
 40 42  1  0
 40 43  1  0
 35 44  1  0
 44 45  1  0
 44 46  1  0
 44 47  1  0
 23 48  1  0
 48 49  1  0
 48 50  2  0
 50 51  1  0
 13  3  1  0
 50 20  1  0
M  CHG  3   4  -1  17  -1  48   1
M  END
>  <UniqueID>  (28) 
26

>  <SMILES>  (28) 
[H]/N=c1\[n-]cc(C)nc1C[N-]C(=O)c1c[nH+]n(CCN(C)C(C)(C)C)c1

>  <Energy>  (28) 
81.18069235512976

>  <Genealogy>  (28) 
Cc1c[n-]c(=N)c(C[N-]C(=O)c2c[nH+]n(CCN(C)C(C)(C)C)c2)n1 (protonated)
[H]/N=c1\[n-]cc(C)nc1C[N-]C(=O)c1c[nH+]n(CCN(C)C(C)(C)C)c1 (cis-trans isomerization)
[H]/N=c1\[n-]cc(C)nc1C[N-]C(=O)c1c[nH+]n(CCN(C)C(C)(C)C)c1 (3D coordinates assigned)
[H]/N=c1\[n-]cc(C)nc1C[N-]C(=O)c1c[nH+]n(CCN(C)C(C)(C)C)c1 (optimized conformer: 81.18069235512976 kcal/mol)

>  <smiles>  (28) 
Cc1c[nH]c(=N)c(CNC(=O)c2cnn(CCN(C)C(C)(C)C)c2)n1

>  <score_type>  (28) 
oracle

>  <origin>  (28) 
adg

>  <m_score__min__energy>  (28) 
-10.130000000000001

>  <m_primary>  (28) 
energy

$$$$
28:0
     RDKit          3D

 41 43  0  0  0  0  0  0  0  0999 V2000
   63.7240   33.5170   49.8990 C   0  0  0  0  0  0  0  0  0  0  0  0
   62.9570   33.8920   48.7620 O   0  0  0  0  0  0  0  0  0  0  0  0
   62.6240   32.9900   47.7470 C   0  0  0  0  0  0  0  0  0  0  0  0
   63.2970   31.9360   47.5800 O   0  0  0  0  0  0  0  0  0  0  0  0
   61.4690   33.3000   46.8360 C   0  0  2  0  0  0  0  0  0  0  0  0
   60.7290   34.5770   47.2970 C   0  0  0  0  0  0  0  0  0  0  0  0
   59.6220   34.9690   46.3030 C   0  0  0  0  0  0  0  0  0  0  0  0
   58.8100   33.7730   45.9130 C   0  0  0  0  0  0  0  0  0  0  0  0
   57.3270   33.7860   45.1170 S   0  0  0  0  0  0  0  0  0  0  0  0
   57.2750   32.0970   44.9990 C   0  0  0  0  0  0  0  0  0  0  0  0
   56.3020   31.3870   44.5070 N   0  0  0  0  0  0  0  0  0  0  0  0
   56.2510   29.9580   44.3920 C   0  0  0  0  0  0  0  0  0  0  0  0
   55.2800   29.3450   44.9130 O   0  0  0  0  0  0  0  0  0  0  0  0
   57.3360   29.1740   43.7020 C   0  0  0  0  0  0  0  0  0  0  0  0
   58.2430   28.5050   44.7010 C   0  0  0  0  0  0  0  0  0  0  0  0
   59.6350   28.6910   44.6320 C   0  0  0  0  0  0  0  0  0  0  0  0
   60.4750   28.0440   45.5430 C   0  0  0  0  0  0  0  0  0  0  0  0
   59.9370   27.2030   46.5210 C   0  0  0  0  0  0  0  0  0  0  0  0
   58.5540   27.0050   46.5890 C   0  0  0  0  0  0  0  0  0  0  0  0
   57.7090   27.6490   45.6790 C   0  0  0  0  0  0  0  0  0  0  0  0
   58.3680   31.5300   45.5570 N   0  0  0  0  0  0  0  0  0  0  0  0
   59.2380   32.4560   46.0410 C   0  0  0  0  0  0  0  0  0  0  0  0
   60.5050   32.0940   46.7630 C   0  0  0  0  0  0  0  0  0  0  0  0
   63.1768   33.7846   50.8149 H   0  0  0  0  0  0  0  0  0  0  0  0
   63.8998   32.4313   49.8808 H   0  0  0  0  0  0  0  0  0  0  0  0
   64.6888   34.0450   49.8808 H   0  0  0  0  0  0  0  0  0  0  0  0
   61.8625   33.4892   45.8264 H   0  0  0  0  0  0  0  0  0  0  0  0
   60.2772   34.3935   48.2830 H   0  0  0  0  0  0  0  0  0  0  0  0
   61.4563   35.4005   47.3504 H   0  0  0  0  0  0  0  0  0  0  0  0
   58.9634   35.7147   46.7723 H   0  0  0  0  0  0  0  0  0  0  0  0
   60.0908   35.3868   45.3998 H   0  0  0  0  0  0  0  0  0  0  0  0
   56.8738   28.4050   43.0656 H   0  0  0  0  0  0  0  0  0  0  0  0
   57.9366   29.8686   43.0964 H   0  0  0  0  0  0  0  0  0  0  0  0
   60.0637   29.3467   43.8599 H   0  0  0  0  0  0  0  0  0  0  0  0
   61.5630   28.1973   45.4899 H   0  0  0  0  0  0  0  0  0  0  0  0
   60.6010   26.6969   47.2372 H   0  0  0  0  0  0  0  0  0  0  0  0
   58.1307   26.3426   47.3584 H   0  0  0  0  0  0  0  0  0  0  0  0
   56.6225   27.4847   45.7292 H   0  0  0  0  0  0  0  0  0  0  0  0
   58.5260   30.4980   45.6140 H   0  0  0  0  0  0  0  0  0  0  0  0
   60.2563   31.7707   47.7846 H   0  0  0  0  0  0  0  0  0  0  0  0
   61.0020   31.2830   46.2105 H   0  0  0  0  0  0  0  0  0  0  0  0
  1  2  1  0
  2  3  1  0
  3  4  2  0
  3  5  1  0
  5  6  1  0
  6  7  1  0
  7  8  1  0
  8  9  1  0
  9 10  1  0
 10 11  2  3
 11 12  1  0
 12 13  2  0
 12 14  1  0
 14 15  1  0
 15 16  2  0
 16 17  1  0
 17 18  2  0
 18 19  1  0
 19 20  2  0
 10 21  1  0
 21 22  1  0
 22 23  1  0
 23  5  1  0
 22  8  2  0
 20 15  1  0
  1 24  1  0
  1 25  1  0
  1 26  1  0
  5 27  1  6
  6 28  1  0
  6 29  1  0
  7 30  1  0
  7 31  1  0
 14 32  1  0
 14 33  1  0
 16 34  1  0
 17 35  1  0
 18 36  1  0
 19 37  1  0
 20 38  1  0
 21 39  1  0
 23 40  1  0
 23 41  1  0
M  END
>  <UniqueID>  (29) 
27

>  <SMILES>  (29) 
COC(=O)[C@@H]1CCc2sc(=NC(=O)Cc3ccccc3)[nH]c2C1

>  <Energy>  (29) 
74.34964247335994

>  <Genealogy>  (29) 
COC(=O)[C@@H]1CCc2sc(=NC(=O)Cc3ccccc3)[nH]c2C1 (chirality)
COC(=O)[C@@H]1CCc2sc(=NC(=O)Cc3ccccc3)[nH]c2C1 (3D coordinates assigned)
COC(=O)[C@@H]1CCc2sc(=NC(=O)Cc3ccccc3)[nH]c2C1 (nonaromatic ring conformer: 74.34964247335994 kcal/mol)

>  <smiles>  (29) 
COC(=O)C1CCc2sc(=NC(=O)Cc3ccccc3)[nH]c2C1

>  <score_type>  (29) 
oracle

>  <origin>  (29) 
adg

>  <m_score__min__energy>  (29) 
-8.3200000000000003

>  <m_primary>  (29) 
energy

$$$$
29:0
     RDKit          3D

 42 44  0  0  0  0  0  0  0  0999 V2000
   61.0450   26.4990   46.5460 C   0  0  0  0  0  0  0  0  0  0  0  0
   59.9270   27.3550   46.0250 C   0  0  0  0  0  0  0  0  0  0  0  0
   60.1730   28.3180   45.0340 C   0  0  0  0  0  0  0  0  0  0  0  0
   59.1210   29.0860   44.5230 C   0  0  0  0  0  0  0  0  0  0  0  0
   57.8130   28.8870   44.9870 C   0  0  0  0  0  0  0  0  0  0  0  0
   56.4750   29.8220   44.3270 S   0  0  0  0  0  0  0  0  0  0  0  0
   55.1600   29.3360   44.8670 O   0  0  0  0  0  0  0  0  0  0  0  0
   56.4700   29.6740   42.8320 O   0  0  0  0  0  0  0  0  0  0  0  0
   56.6710   31.4970   44.7310 N   0  0  0  0  0  0  0  0  0  0  0  0
   57.6930   32.0280   45.5850 C   0  0  0  0  0  0  0  0  0  0  0  0
   58.1420   31.2500   46.6560 C   0  0  0  0  0  0  0  0  0  0  0  0
   59.1380   31.7270   47.5100 C   0  0  0  0  0  0  0  0  0  0  0  0
   59.7080   32.9920   47.3070 C   0  0  0  0  0  0  0  0  0  0  0  0
   60.7650   33.4530   48.2300 C   0  0  0  0  0  0  0  0  0  0  0  0
   60.5510   34.4700   48.9440 O   0  0  0  0  0  0  0  0  0  0  0  0
   62.0140   32.7430   48.3270 N   0  0  0  0  0  0  0  0  0  0  0  0
   63.0830   33.1230   49.2080 C   0  0  0  0  0  0  0  0  0  0  0  0
   62.8450   33.8350   50.3950 C   0  0  0  0  0  0  0  0  0  0  0  0
   63.9090   34.1650   51.2370 C   0  0  0  0  0  0  0  0  0  0  0  0
   65.2020   33.7690   50.8920 C   0  0  0  0  0  0  0  0  0  0  0  0
   65.4150   33.0610   49.7510 N   0  0  0  0  0  0  0  0  0  0  0  0
   64.3950   32.7250   48.9170 C   0  0  0  0  0  0  0  0  0  0  0  0
   59.2400   33.7940   46.2440 C   0  0  0  0  0  0  0  0  0  0  0  0
   59.7930   35.4500   46.0070 Cl  0  0  0  0  0  0  0  0  0  0  0  0
   58.2470   33.3040   45.3850 C   0  0  0  0  0  0  0  0  0  0  0  0
   57.5650   27.9180   45.9670 C   0  0  0  0  0  0  0  0  0  0  0  0
   58.6150   27.1510   46.4810 C   0  0  0  0  0  0  0  0  0  0  0  0
   61.0323   26.5087   47.6459 H   0  0  0  0  0  0  0  0  0  0  0  0
   60.9149   25.4674   46.1869 H   0  0  0  0  0  0  0  0  0  0  0  0
   62.0069   26.8937   46.1869 H   0  0  0  0  0  0  0  0  0  0  0  0
   61.1956   28.4693   44.6581 H   0  0  0  0  0  0  0  0  0  0  0  0
   59.3207   29.8480   43.7552 H   0  0  0  0  0  0  0  0  0  0  0  0
   57.7072   30.2542   46.8272 H   0  0  0  0  0  0  0  0  0  0  0  0
   59.4790   31.1045   48.3503 H   0  0  0  0  0  0  0  0  0  0  0  0
   62.1920   31.9550   47.6650 H   0  0  0  0  0  0  0  0  0  0  0  0
   61.8202   34.1328   50.6615 H   0  0  0  0  0  0  0  0  0  0  0  0
   63.7298   34.7313   52.1628 H   0  0  0  0  0  0  0  0  0  0  0  0
   66.0491   34.0298   51.5434 H   0  0  0  0  0  0  0  0  0  0  0  0
   64.6005   32.1381   48.0097 H   0  0  0  0  0  0  0  0  0  0  0  0
   57.8979   33.9241   44.5462 H   0  0  0  0  0  0  0  0  0  0  0  0
   56.5402   27.7596   46.3339 H   0  0  0  0  0  0  0  0  0  0  0  0
   58.4125   26.3857   47.2447 H   0  0  0  0  0  0  0  0  0  0  0  0
  1  2  1  0
  2  3  2  0
  3  4  1  0
  4  5  2  0
  5  6  1  0
  6  7  2  0
  6  8  2  0
  6  9  1  0
  9 10  1  0
 10 11  2  0
 11 12  1  0
 12 13  2  0
 13 14  1  0
 14 15  2  0
 14 16  1  0
 16 17  1  0
 17 18  2  0
 18 19  1  0
 19 20  2  0
 20 21  1  0
 21 22  2  0
 13 23  1  0
 23 24  1  0
 23 25  2  0
  5 26  1  0
 26 27  2  0
 27  2  1  0
 25 10  1  0
 22 17  1  0
  1 28  1  0
  1 29  1  0
  1 30  1  0
  3 31  1  0
  4 32  1  0
 11 33  1  0
 12 34  1  0
 16 35  1  0
 18 36  1  0
 19 37  1  0
 20 38  1  0
 22 39  1  0
 25 40  1  0
 26 41  1  0
 27 42  1  0
M  CHG  1   9  -1
M  END
>  <UniqueID>  (30) 
28

>  <SMILES>  (30) 
Cc1ccc(S(=O)(=O)[N-]c2ccc(C(=O)Nc3cccnc3)c(Cl)c2)cc1

>  <Energy>  (30) 
57.7429810024945

>  <Genealogy>  (30) 
Cc1ccc(S(=O)(=O)[N-]c2ccc(C(=O)Nc3cccnc3)c(Cl)c2)cc1 (protonated)
Cc1ccc(S(=O)(=O)[N-]c2ccc(C(=O)Nc3cccnc3)c(Cl)c2)cc1 (3D coordinates assigned)
Cc1ccc(S(=O)(=O)[N-]c2ccc(C(=O)Nc3cccnc3)c(Cl)c2)cc1 (optimized conformer: 57.7429810024945 kcal/mol)

>  <smiles>  (30) 
Cc1ccc(S(=O)(=O)Nc2ccc(C(=O)Nc3cccnc3)c(Cl)c2)cc1

>  <score_type>  (30) 
oracle

>  <origin>  (30) 
adg

>  <m_score__min__energy>  (30) 
-10.26

>  <m_primary>  (30) 
energy

$$$$
30:0
     RDKit          3D

 48 50  0  0  0  0  0  0  0  0999 V2000
   60.4620   26.4230   48.9510 O   0  0  0  0  0  0  0  0  0  0  0  0
   60.3820   27.6790   48.8560 C   0  0  0  0  0  0  0  0  0  0  0  0
   60.7610   28.5010   49.9670 N   0  0  0  0  0  0  0  0  0  0  0  0
   60.7010   29.9580   49.9550 C   0  0  0  0  0  0  0  0  0  0  0  0
   62.1000   30.5520   50.1340 C   0  0  0  0  0  0  0  0  0  0  0  0
   62.3970   31.5440   49.0410 C   0  0  0  0  0  0  0  0  0  0  0  0
   61.5960   31.5870   47.8880 C   0  0  0  0  0  0  0  0  0  0  0  0
   61.8490   32.5330   46.8910 C   0  0  0  0  0  0  0  0  0  0  0  0
   62.8960   33.4480   47.0400 C   0  0  0  0  0  0  0  0  0  0  0  0
   63.6890   33.4190   48.1920 C   0  0  0  0  0  0  0  0  0  0  0  0
   63.4390   32.4740   49.1930 C   0  0  0  0  0  0  0  0  0  0  0  0
   59.8900   28.3000   47.6030 C   0  0  0  0  0  0  0  0  0  0  0  0
   58.5830   28.8060   47.5200 C   0  0  0  0  0  0  0  0  0  0  0  0
   58.1230   29.3950   46.3380 C   0  0  0  0  0  0  0  0  0  0  0  0
   58.9580   29.4940   45.2160 C   0  0  0  0  0  0  0  0  0  0  0  0
   58.4540   30.1140   44.0200 N   0  0  0  0  0  0  0  0  0  0  0  0
   57.4740   31.5470   44.0080 S   0  0  0  0  0  0  0  0  0  0  0  0
   57.3640   32.0520   42.5950 O   0  0  0  0  0  0  0  0  0  0  0  0
   56.1020   31.2120   44.5170 O   0  0  0  0  0  0  0  0  0  0  0  0
   58.1820   32.7770   45.0520 C   0  0  0  0  0  0  0  0  0  0  0  0
   58.6670   33.9690   44.5000 C   0  0  0  0  0  0  0  0  0  0  0  0
   59.2150   34.9510   45.3260 C   0  0  0  0  0  0  0  0  0  0  0  0
   59.2900   34.7470   46.7060 C   0  0  0  0  0  0  0  0  0  0  0  0
   58.8170   33.5510   47.2770 C   0  0  0  0  0  0  0  0  0  0  0  0
   58.8990   33.3320   48.6980 N   0  0  0  0  0  0  0  0  0  0  0  0
   58.2960   32.3780   49.2300 O   0  0  0  0  0  0  0  0  0  0  0  0
   59.6400   34.1750   49.4940 O   0  0  0  0  0  0  0  0  0  0  0  0
   58.2640   32.5680   46.4360 C   0  0  0  0  0  0  0  0  0  0  0  0
   60.2660   28.9780   45.2950 C   0  0  0  0  0  0  0  0  0  0  0  0
   60.7260   28.3920   46.4770 C   0  0  0  0  0  0  0  0  0  0  0  0
   60.2843   30.2955   48.9946 H   0  0  0  0  0  0  0  0  0  0  0  0
   60.0618   30.2952   50.7843 H   0  0  0  0  0  0  0  0  0  0  0  0
   62.1555   31.0598   51.1082 H   0  0  0  0  0  0  0  0  0  0  0  0
   62.8397   29.7392   50.0866 H   0  0  0  0  0  0  0  0  0  0  0  0
   60.7670   30.8738   47.7694 H   0  0  0  0  0  0  0  0  0  0  0  0
   61.2230   32.5580   45.9868 H   0  0  0  0  0  0  0  0  0  0  0  0
   63.0957   34.1895   46.2524 H   0  0  0  0  0  0  0  0  0  0  0  0
   64.5107   34.1405   48.3111 H   0  0  0  0  0  0  0  0  0  0  0  0
   64.0597   32.4592   50.1010 H   0  0  0  0  0  0  0  0  0  0  0  0
   57.9155   28.7386   48.3917 H   0  0  0  0  0  0  0  0  0  0  0  0
   57.0955   29.7846   46.2880 H   0  0  0  0  0  0  0  0  0  0  0  0
   58.6110   29.6430   43.1010 H   0  0  0  0  0  0  0  0  0  0  0  0
   58.6159   34.1315   43.4133 H   0  0  0  0  0  0  0  0  0  0  0  0
   59.5891   35.8887   44.8892 H   0  0  0  0  0  0  0  0  0  0  0  0
   59.7218   35.5267   47.3507 H   0  0  0  0  0  0  0  0  0  0  0  0
   57.8926   31.6271   46.8681 H   0  0  0  0  0  0  0  0  0  0  0  0
   60.9301   29.0367   44.4200 H   0  0  0  0  0  0  0  0  0  0  0  0
   61.7522   27.9989   46.5268 H   0  0  0  0  0  0  0  0  0  0  0  0
  1  2  2  0
  2  3  1  0
  3  4  1  0
  4  5  1  0
  5  6  1  0
  6  7  2  0
  7  8  1  0
  8  9  2  0
  9 10  1  0
 10 11  2  0
  2 12  1  0
 12 13  2  0
 13 14  1  0
 14 15  2  0
 15 16  1  0
 16 17  1  0
 17 18  2  0
 17 19  2  0
 17 20  1  0
 20 21  2  0
 21 22  1  0
 22 23  2  0
 23 24  1  0
 24 25  1  0
 25 26  2  0
 25 27  1  0
 24 28  2  0
 15 29  1  0
 29 30  2  0
 11  6  1  0
 30 12  1  0
 28 20  1  0
  4 31  1  0
  4 32  1  0
  5 33  1  0
  5 34  1  0
  7 35  1  0
  8 36  1  0
  9 37  1  0
 10 38  1  0
 11 39  1  0
 13 40  1  0
 14 41  1  0
 16 42  1  0
 21 43  1  0
 22 44  1  0
 23 45  1  0
 28 46  1  0
 29 47  1  0
 30 48  1  0
M  CHG  3   3  -1  25   1  27  -1
M  END
>  <UniqueID>  (31) 
29

>  <SMILES>  (31) 
O=C([N-]CCc1ccccc1)c1ccc(NS(=O)(=O)c2cccc([N+](=O)[O-])c2)cc1

>  <Energy>  (31) 
50.87837097992757

>  <Genealogy>  (31) 
O=C([N-]CCc1ccccc1)c1ccc(NS(=O)(=O)c2cccc([N+](=O)[O-])c2)cc1 (protonated)
O=C([N-]CCc1ccccc1)c1ccc(NS(=O)(=O)c2cccc([N+](=O)[O-])c2)cc1 (3D coordinates assigned)
O=C([N-]CCc1ccccc1)c1ccc(NS(=O)(=O)c2cccc([N+](=O)[O-])c2)cc1 (optimized conformer: 50.87837097992757 kcal/mol)

>  <smiles>  (31) 
O=C(NCCc1ccccc1)c1ccc(NS(=O)(=O)c2cccc([N+](=O)[O-])c2)cc1

>  <score_type>  (31) 
oracle

>  <origin>  (31) 
adg

>  <m_score__min__energy>  (31) 
-11.300000000000001

>  <m_primary>  (31) 
energy

$$$$
31:0
     RDKit          3D

 38 40  0  0  0  0  0  0  0  0999 V2000
   52.3426   28.5155   52.4701 H   0  0  0  0  0  0  0  0  0  0  0  0
   53.1450   29.2630   52.3840 C   0  0  0  0  0  0  0  0  0  0  0  0
   54.4820   28.8570   52.4220 C   0  0  0  0  0  0  0  0  0  0  0  0
   54.7256   27.7934   52.5615 H   0  0  0  0  0  0  0  0  0  0  0  0
   55.5130   29.7930   52.2840 C   0  0  0  0  0  0  0  0  0  0  0  0
   56.8420   29.3460   52.3450 O   0  0  0  0  0  0  0  0  0  0  0  0
   57.9220   29.9160   51.6550 C   0  0  0  0  0  0  0  0  0  0  0  0
   59.1960   29.3100   51.7760 C   0  0  0  0  0  0  0  0  0  0  0  0
   59.3170   28.4205   52.4117 H   0  0  0  0  0  0  0  0  0  0  0  0
   60.3090   29.8330   51.0920 C   0  0  0  0  0  0  0  0  0  0  0  0
   61.3041   29.3745   51.1899 H   0  0  0  0  0  0  0  0  0  0  0  0
   60.1070   30.9510   50.2870 C   0  0  0  0  0  0  0  0  0  0  0  0
   61.0130   31.6030   49.5470 N   0  0  0  0  0  0  0  0  0  0  0  0
   60.2680   32.5850   48.9720 C   0  0  0  0  0  0  0  0  0  0  0  0
   60.7480   33.4770   48.1530 N   0  0  0  0  0  0  0  0  0  0  0  0
   62.1190   33.8700   47.9630 C   0  0  0  0  0  0  0  0  0  0  0  0
   62.6890   34.5150   48.8830 O   0  0  0  0  0  0  0  0  0  0  0  0
   62.9000   33.5480   46.7230 C   0  0  0  0  0  0  0  0  0  0  0  0
   63.8832   33.1426   47.0039 H   0  0  0  0  0  0  0  0  0  0  0  0
   62.3523   32.8023   46.1280 H   0  0  0  0  0  0  0  0  0  0  0  0
   63.0370   34.4630   46.1280 H   0  0  0  0  0  0  0  0  0  0  0  0
   58.9550   32.5750   49.3160 N   0  0  0  0  0  0  0  0  0  0  0  0
   58.8830   31.5290   50.1520 C   0  0  0  0  0  0  0  0  0  0  0  0
   57.7590   31.0420   50.8120 C   0  0  0  0  0  0  0  0  0  0  0  0
   56.7751   31.5166   50.6830 H   0  0  0  0  0  0  0  0  0  0  0  0
   55.1910   31.1530   52.1340 C   0  0  0  0  0  0  0  0  0  0  0  0
   55.9936   31.9001   52.0470 H   0  0  0  0  0  0  0  0  0  0  0  0
   53.8540   31.5590   52.0950 C   0  0  0  0  0  0  0  0  0  0  0  0
   53.6109   32.6223   51.9523 H   0  0  0  0  0  0  0  0  0  0  0  0
   52.8220   30.6240   52.2360 C   0  0  0  0  0  0  0  0  0  0  0  0
   51.4630   31.0830   52.1700 N   0  0  0  0  0  0  0  0  0  0  0  0
   51.0070   32.3280   51.6300 C   0  0  0  0  0  0  0  0  0  0  0  0
   51.3880   32.7160   50.4940 O   0  0  0  0  0  0  0  0  0  0  0  0
   50.0670   33.1040   52.3750 N   0  0  0  0  0  0  0  0  0  0  0  0
   50.2940   33.5030   53.7560 C   0  0  0  0  0  0  0  0  0  0  0  0
   49.8645   32.7481   54.4311 H   0  0  0  0  0  0  0  0  0  0  0  0
   51.3752   33.5871   53.9404 H   0  0  0  0  0  0  0  0  0  0  0  0
   49.8139   34.4754   53.9404 H   0  0  0  0  0  0  0  0  0  0  0  0
  1  2  1  0
  2  3  2  0
  3  4  1  0
  3  5  1  0
  5  6  1  0
  6  7  1  0
  7  8  2  0
  8  9  1  0
  8 10  1  0
 10 11  1  0
 10 12  2  0
 12 13  1  0
 13 14  1  0
 14 15  2  0
 15 16  1  0
 16 17  2  0
 16 18  1  0
 18 19  1  0
 18 20  1  0
 18 21  1  0
 14 22  1  0
 22 23  1  0
 23 24  2  0
 24 25  1  0
  5 26  2  0
 26 27  1  0
 26 28  1  0
 28 29  1  0
 28 30  2  0
 30 31  1  0
 31 32  1  0
 32 33  2  0
 32 34  1  0
 34 35  1  0
 35 36  1  0
 35 37  1  0
 35 38  1  0
 30  2  1  0
 24  7  1  0
 23 12  1  0
M  CHG  4  13  -1  22  -1  31  -1  34  -1
M  END
>  <UniqueID>  (32) 
30

>  <SMILES>  (32) 
C[N-]C(=O)[N-]c1ccc(Oc2ccc3[n-]/c(=N\C(C)=O)[n-]c3c2)cc1

>  <Energy>  (32) 
84.49133828753543

>  <Genealogy>  (32) 
C[N-]C(=O)[N-]c1ccc(Oc2ccc3[n-]c(=NC(C)=O)[n-]c3c2)cc1 (protonated)
C[N-]C(=O)[N-]c1ccc(Oc2ccc3[n-]/c(=N\C(C)=O)[n-]c3c2)cc1 (cis-trans isomerization)
C[N-]C(=O)[N-]c1ccc(Oc2ccc3[n-]/c(=N\C(C)=O)[n-]c3c2)cc1 (3D coordinates assigned)
C[N-]C(=O)[N-]c1ccc(Oc2ccc3[n-]/c(=N\C(C)=O)[n-]c3c2)cc1 (optimized conformer: 84.49133828753543 kcal/mol)

>  <smiles>  (32) 
CNC(=O)Nc1ccc(Oc2ccc3[nH]c(=NC(C)=O)[nH]c3c2)cc1

>  <score_type>  (32) 
oracle

>  <origin>  (32) 
adg

>  <m_score__min__energy>  (32) 
-12.529999999999999

>  <m_primary>  (32) 
energy

$$$$
32:0
     RDKit          3D

 49 52  0  0  0  0  0  0  0  0999 V2000
   59.2180   32.8570   48.9300 C   0  0  0  0  0  0  0  0  0  0  0  0
   60.1600   32.4620   47.7660 C   0  0  1  0  0  0  0  0  0  0  0  0
   61.0380   33.6730   47.4540 C   0  0  0  0  0  0  0  0  0  0  0  0
   62.2330   33.8850   48.0100 C   0  0  0  0  0  0  0  0  0  0  0  0
   62.8420   32.9000   48.9030 C   0  0  0  0  0  0  0  0  0  0  0  0
   63.9110   33.1770   49.5110 O   0  0  0  0  0  0  0  0  0  0  0  0
   62.2070   31.5930   49.0750 C   0  0  0  0  0  0  0  0  0  0  0  0
   62.6830   30.7630   49.8950 O   0  0  0  0  0  0  0  0  0  0  0  0
   61.0160   31.2180   48.2300 C   0  0  2  0  0  0  0  0  0  0  0  0
   61.4610   30.3700   47.0270 C   0  0  0  0  0  0  0  0  0  0  0  0
   60.2410   29.7330   46.3280 C   0  0  0  0  0  0  0  0  0  0  0  0
   58.9480   30.5970   46.4100 C   0  0  2  0  0  0  0  0  0  0  0  0
   57.9330   30.2650   45.2900 C   0  0  0  0  0  0  0  0  0  0  0  0
   57.3230   31.2550   44.5700 C   0  0  0  0  0  0  0  0  0  0  0  0
   56.3060   30.8950   43.5030 C   0  0  0  0  0  0  0  0  0  0  0  0
   56.7530   29.6660   42.7030 C   0  0  0  0  0  0  0  0  0  0  0  0
   57.2130   28.5680   43.6250 C   0  0  0  0  0  0  0  0  0  0  0  0
   57.4100   27.4470   43.1770 O   0  0  0  0  0  0  0  0  0  0  0  0
   57.3830   28.8440   45.1010 C   0  0  1  0  0  0  0  0  0  0  0  0
   58.2350   27.8620   45.6570 O   0  0  0  0  0  0  0  0  0  0  0  0
   57.3410   26.5010   46.1380 S   0  0  0  0  0  0  0  0  0  0  0  0
   55.6580   26.8680   46.0060 N   0  0  0  0  0  0  0  0  0  0  0  0
   57.6610   26.1570   47.5660 O   0  0  0  0  0  0  0  0  0  0  0  0
   57.6580   25.3300   45.2500 O   0  0  0  0  0  0  0  0  0  0  0  0
   57.6300   32.7190   44.7710 C   0  0  0  0  0  0  0  0  0  0  0  0
   58.1350   32.9950   46.1810 C   0  0  0  0  0  0  0  0  0  0  0  0
   59.3530   32.0980   46.4550 C   0  0  1  0  0  0  0  0  0  0  0  0
   59.7138   32.6491   49.8896 H   0  0  0  0  0  0  0  0  0  0  0  0
   58.9828   33.9295   48.8636 H   0  0  0  0  0  0  0  0  0  0  0  0
   58.2882   32.2730   48.8636 H   0  0  0  0  0  0  0  0  0  0  0  0
   60.6642   34.4121   46.7301 H   0  0  0  0  0  0  0  0  0  0  0  0
   62.7705   34.8196   47.7920 H   0  0  0  0  0  0  0  0  0  0  0  0
   60.3507   30.6180   48.8683 H   0  0  0  0  0  0  0  0  0  0  0  0
   61.9937   31.0119   46.3099 H   0  0  0  0  0  0  0  0  0  0  0  0
   62.1226   29.5675   47.3851 H   0  0  0  0  0  0  0  0  0  0  0  0
   60.4895   29.5804   45.2674 H   0  0  0  0  0  0  0  0  0  0  0  0
   60.0291   28.7886   46.8507 H   0  0  0  0  0  0  0  0  0  0  0  0
   58.4085   30.3542   47.3374 H   0  0  0  0  0  0  0  0  0  0  0  0
   55.3415   30.6778   43.9853 H   0  0  0  0  0  0  0  0  0  0  0  0
   56.2111   31.7451   42.8114 H   0  0  0  0  0  0  0  0  0  0  0  0
   55.9083   29.3009   42.1003 H   0  0  0  0  0  0  0  0  0  0  0  0
   57.5910   29.9543   42.0514 H   0  0  0  0  0  0  0  0  0  0  0  0
   56.4174   28.7890   45.6251 H   0  0  0  0  0  0  0  0  0  0  0  0
   55.5550   27.5490   45.2210 H   0  0  0  0  0  0  0  0  0  0  0  0
   58.4013   33.0249   44.0488 H   0  0  0  0  0  0  0  0  0  0  0  0
   56.7024   33.2902   44.6187 H   0  0  0  0  0  0  0  0  0  0  0  0
   58.4269   34.0519   46.2690 H   0  0  0  0  0  0  0  0  0  0  0  0
   57.3408   32.7805   46.9113 H   0  0  0  0  0  0  0  0  0  0  0  0
   60.0645   32.2966   45.6399 H   0  0  0  0  0  0  0  0  0  0  0  0
  2  1  1  1
  2  3  1  0
  3  4  2  0
  4  5  1  0
  5  6  2  0
  5  7  1  0
  7  8  2  0
  7  9  1  0
  9 10  1  0
 10 11  1  0
 11 12  1  0
 12 13  1  0
 13 14  2  0
 14 15  1  0
 15 16  1  0
 16 17  1  0
 17 18  2  0
 17 19  1  0
 19 20  1  0
 20 21  1  0
 21 22  1  0
 21 23  2  0
 21 24  2  0
 14 25  1  0
 25 26  1  0
 26 27  1  0
  9  2  1  0
 27 12  1  0
 27  2  1  0
 19 13  1  0
  1 28  1  0
  1 29  1  0
  1 30  1  0
  3 31  1  0
  4 32  1  0
  9 33  1  1
 10 34  1  0
 10 35  1  0
 11 36  1  0
 11 37  1  0
 12 38  1  1
 15 39  1  0
 15 40  1  0
 16 41  1  0
 16 42  1  0
 19 43  1  1
 22 44  1  0
 25 45  1  0
 25 46  1  0
 26 47  1  0
 26 48  1  0
 27 49  1  6
M  CHG  1  22  -1
M  END
>  <UniqueID>  (33) 
31

>  <SMILES>  (33) 
C[C@@]12C=CC(=O)C(=O)[C@@H]1CCC1C3=C(CCC(=O)C3OS([NH-])(=O)=O)CCC12

>  <Energy>  (33) 
67.80934341403541

>  <Genealogy>  (33) 
CC12C=CC(=O)C(=O)C1CCC1C3=C(CCC(=O)C3OS([NH-])(=O)=O)CCC12 (protonated)
C[C@@]12C=CC(=O)C(=O)[C@@H]1CCC1C3=C(CCC(=O)C3OS([NH-])(=O)=O)CCC12 (chirality)
C[C@@]12C=CC(=O)C(=O)[C@@H]1CCC1C3=C(CCC(=O)C3OS([NH-])(=O)=O)CCC12 (3D coordinates assigned)
C[C@@]12C=CC(=O)C(=O)[C@@H]1CCC1C3=C(CCC(=O)C3OS([NH-])(=O)=O)CCC12 (nonaromatic ring conformer: 67.80934341403541 kcal/mol)

>  <smiles>  (33) 
CC12C=CC(=O)C(=O)C1CCC1C3=C(CCC(=O)C3OS(N)(=O)=O)CCC12

>  <score_type>  (33) 
oracle

>  <origin>  (33) 
adg

>  <m_score__min__energy>  (33) 
-12.01

>  <m_primary>  (33) 
energy

$$$$
33:0
     RDKit          3D

 79 84  0  0  0  0  0  0  0  0999 V2000
   59.8770   35.4330   46.0190 C   0  0  0  0  0  0  0  0  0  0  0  0
   58.6440   34.7790   46.2820 O   0  0  0  0  0  0  0  0  0  0  0  0
   58.4960   33.3910   46.2260 C   0  0  0  0  0  0  0  0  0  0  0  0
   57.5150   32.6830   45.5260 C   0  0  0  0  0  0  0  0  0  0  0  0
   57.8380   31.3690   45.7970 C   0  0  0  0  0  0  0  0  0  0  0  0
   57.2220   30.2490   45.3490 N   0  0  0  0  0  0  0  0  0  0  0  0
   57.7180   29.0280   45.7140 C   0  0  0  0  0  0  0  0  0  0  0  0
   57.0240   27.7770   45.2500 C   0  0  0  0  0  0  0  0  0  0  0  0
   56.9460   26.7150   46.3550 C   0  0  0  0  0  0  0  0  0  0  0  0
   57.0840   25.3150   45.8060 C   0  0  0  0  0  0  0  0  0  0  0  0
   58.3650   24.7630   45.6330 C   0  0  0  0  0  0  0  0  0  0  0  0
   58.5150   23.4630   45.1490 C   0  0  0  0  0  0  0  0  0  0  0  0
   57.3900   22.7000   44.8340 C   0  0  0  0  0  0  0  0  0  0  0  0
   56.1100   23.2310   45.0110 C   0  0  0  0  0  0  0  0  0  0  0  0
   55.9430   24.5400   45.5060 C   0  0  0  0  0  0  0  0  0  0  0  0
   54.6680   25.0950   45.7120 O   0  0  0  0  0  0  0  0  0  0  0  0
   53.4420   24.4400   45.4070 C   0  0  0  0  0  0  0  0  0  0  0  0
   58.8560   28.9480   46.5490 C   0  0  0  0  0  0  0  0  0  0  0  0
   59.4490   30.1330   47.0040 C   0  0  0  0  0  0  0  0  0  0  0  0
   60.8510   30.0810   48.1250 S   0  0  0  0  0  0  0  0  0  0  0  0
   59.9730   29.1770   49.4560 C   0  0  0  0  0  0  0  0  0  0  0  0
   60.8300   29.0300   50.6770 C   0  0  0  0  0  0  0  0  0  0  0  0
   61.1360   27.8740   51.0660 O   0  0  0  0  0  0  0  0  0  0  0  0
   61.4740   30.1770   51.2400 N   0  0  0  0  0  0  0  0  0  0  0  0
   62.5900   30.7810   50.9380 C   0  0  0  0  0  0  0  0  0  0  0  0
   63.7590   30.1230   51.0710 N   0  0  0  0  0  0  0  0  0  0  0  0
   64.7000   31.0280   50.7660 C   0  0  0  0  0  0  0  0  0  0  0  0
   64.0980   32.2180   50.4340 C   0  0  0  0  0  0  0  0  0  0  0  0
   64.8610   33.4510   50.0130 C   0  0  0  0  0  0  0  0  0  0  0  0
   66.0890   33.6790   50.8610 C   0  0  0  0  0  0  0  0  0  0  0  0
   67.3180   33.1060   50.4940 C   0  0  0  0  0  0  0  0  0  0  0  0
   68.4550   33.3050   51.2820 C   0  0  0  0  0  0  0  0  0  0  0  0
   68.3730   34.0640   52.4500 C   0  0  0  0  0  0  0  0  0  0  0  0
   67.1530   34.6200   52.8380 C   0  0  0  0  0  0  0  0  0  0  0  0
   66.0110   34.4290   52.0520 C   0  0  0  0  0  0  0  0  0  0  0  0
   64.8340   34.9720   52.4530 F   0  0  0  0  0  0  0  0  0  0  0  0
   62.7510   32.0730   50.5140 N   0  0  0  0  0  0  0  0  0  0  0  0
   61.5870   33.1960   49.8380 S   0  0  0  0  0  0  0  0  0  0  0  0
   61.4760   33.0240   48.3530 O   0  0  0  0  0  0  0  0  0  0  0  0
   62.0570   34.5990   50.0860 O   0  0  0  0  0  0  0  0  0  0  0  0
   60.0070   32.9950   50.5900 C   0  0  0  0  0  0  0  0  0  0  0  0
   59.0380   32.1540   50.0180 C   0  0  0  0  0  0  0  0  0  0  0  0
   57.8040   31.9750   50.6500 C   0  0  0  0  0  0  0  0  0  0  0  0
   57.5370   32.6180   51.8600 C   0  0  0  0  0  0  0  0  0  0  0  0
   58.4980   33.4530   52.4370 C   0  0  0  0  0  0  0  0  0  0  0  0
   59.7280   33.6430   51.8010 C   0  0  0  0  0  0  0  0  0  0  0  0
   58.9120   31.3110   46.5930 N   0  0  0  0  0  0  0  0  0  0  0  0
   59.3270   32.5360   46.8610 N   0  0  0  0  0  0  0  0  0  0  0  0
   60.3650   35.6918   46.9703 H   0  0  0  0  0  0  0  0  0  0  0  0
   60.5313   34.7634   45.4415 H   0  0  0  0  0  0  0  0  0  0  0  0
   59.6896   36.3503   45.4415 H   0  0  0  0  0  0  0  0  0  0  0  0
   56.6909   33.0754   44.9121 H   0  0  0  0  0  0  0  0  0  0  0  0
   56.0026   28.0349   44.9335 H   0  0  0  0  0  0  0  0  0  0  0  0
   57.6064   27.3563   44.4170 H   0  0  0  0  0  0  0  0  0  0  0  0
   57.7558   26.8944   47.0775 H   0  0  0  0  0  0  0  0  0  0  0  0
   55.9593   26.7958   46.8344 H   0  0  0  0  0  0  0  0  0  0  0  0
   59.2551   25.3598   45.8808 H   0  0  0  0  0  0  0  0  0  0  0  0
   59.5212   23.0391   45.0156 H   0  0  0  0  0  0  0  0  0  0  0  0
   57.5113   21.6781   44.4454 H   0  0  0  0  0  0  0  0  0  0  0  0
   55.2271   22.6238   44.7625 H   0  0  0  0  0  0  0  0  0  0  0  0
   52.9301   24.1665   46.3414 H   0  0  0  0  0  0  0  0  0  0  0  0
   52.8009   25.1158   44.8219 H   0  0  0  0  0  0  0  0  0  0  0  0
   53.6474   23.5314   44.8219 H   0  0  0  0  0  0  0  0  0  0  0  0
   59.2696   27.9703   46.8371 H   0  0  0  0  0  0  0  0  0  0  0  0
   59.0614   29.7314   49.7236 H   0  0  0  0  0  0  0  0  0  0  0  0
   59.7248   28.1716   49.0851 H   0  0  0  0  0  0  0  0  0  0  0  0
   65.7848   30.8463   50.7794 H   0  0  0  0  0  0  0  0  0  0  0  0
   65.1714   33.3346   48.9642 H   0  0  0  0  0  0  0  0  0  0  0  0
   64.1970   34.3188   50.1401 H   0  0  0  0  0  0  0  0  0  0  0  0
   67.3859   32.4968   49.5806 H   0  0  0  0  0  0  0  0  0  0  0  0
   69.4161   32.8626   50.9810 H   0  0  0  0  0  0  0  0  0  0  0  0
   69.2705   34.2243   53.0654 H   0  0  0  0  0  0  0  0  0  0  0  0
   67.0890   35.2100   53.7642 H   0  0  0  0  0  0  0  0  0  0  0  0
   59.2505   31.6356   49.0714 H   0  0  0  0  0  0  0  0  0  0  0  0
   57.0421   31.3264   50.1931 H   0  0  0  0  0  0  0  0  0  0  0  0
   56.5689   32.4673   52.3601 H   0  0  0  0  0  0  0  0  0  0  0  0
   58.2866   33.9598   53.3901 H   0  0  0  0  0  0  0  0  0  0  0  0
   60.4812   34.3048   52.2534 H   0  0  0  0  0  0  0  0  0  0  0  0
   60.1610   32.7870   47.4390 H   0  0  0  0  0  0  0  0  0  0  0  0
  1  2  1  0
  2  3  1  0
  3  4  1  0
  4  5  2  0
  5  6  1  0
  6  7  2  0
  7  8  1  0
  8  9  1  0
  9 10  1  0
 10 11  2  0
 11 12  1  0
 12 13  2  0
 13 14  1  0
 14 15  2  0
 15 16  1  0
 16 17  1  0
  7 18  1  0
 18 19  2  0
 19 20  1  0
 20 21  1  0
 21 22  1  0
 22 23  2  0
 22 24  1  0
 24 25  2  3
 25 26  1  0
 26 27  1  0
 27 28  2  0
 28 29  1  0
 29 30  1  0
 30 31  2  0
 31 32  1  0
 32 33  2  0
 33 34  1  0
 34 35  2  0
 35 36  1  0
 28 37  1  0
 37 38  1  0
 38 39  2  0
 38 40  2  0
 38 41  1  0
 41 42  2  0
 42 43  1  0
 43 44  2  0
 44 45  1  0
 45 46  2  0
 19 47  1  0
 47 48  1  0
 48  3  2  0
 47  5  1  0
 15 10  1  0
 37 25  1  0
 46 41  1  0
 35 30  1  0
  1 49  1  0
  1 50  1  0
  1 51  1  0
  4 52  1  0
  8 53  1  0
  8 54  1  0
  9 55  1  0
  9 56  1  0
 11 57  1  0
 12 58  1  0
 13 59  1  0
 14 60  1  0
 17 61  1  0
 17 62  1  0
 17 63  1  0
 18 64  1  0
 21 65  1  0
 21 66  1  0
 27 67  1  0
 29 68  1  0
 29 69  1  0
 31 70  1  0
 32 71  1  0
 33 72  1  0
 34 73  1  0
 42 74  1  0
 43 75  1  0
 44 76  1  0
 45 77  1  0
 46 78  1  0
 48 79  1  0
M  CHG  2  26  -1  48   1
M  END
>  <UniqueID>  (34) 
32

>  <SMILES>  (34) 
COc1cc2nc(CCc3ccccc3OC)cc(SCC(=O)N=c3[n-]cc(Cc4ccccc4F)n3S(=O)(=O)c3ccccc3)n2[nH+]1

>  <Energy>  (34) 
160.18402554621613

>  <Genealogy>  (34) 
COc1cc2nc(CCc3ccccc3OC)cc(SCC(=O)N=c3[n-]cc(Cc4ccccc4F)n3S(=O)(=O)c3ccccc3)n2[nH+]1 (protonated)
COc1cc2nc(CCc3ccccc3OC)cc(SCC(=O)N=c3[n-]cc(Cc4ccccc4F)n3S(=O)(=O)c3ccccc3)n2[nH+]1 (3D coordinates assigned)
COc1cc2nc(CCc3ccccc3OC)cc(SCC(=O)N=c3[n-]cc(Cc4ccccc4F)n3S(=O)(=O)c3ccccc3)n2[nH+]1 (optimized conformer: 160.18402554621613 kcal/mol)

>  <smiles>  (34) 
COc1cc2nc(CCc3ccccc3OC)cc(SCC(=O)N=c3[nH]cc(Cc4ccccc4F)n3S(=O)(=O)c3ccccc3)n2n1

>  <score_type>  (34) 
oracle

>  <origin>  (34) 
adg

>  <m_score__min__energy>  (34) 
-9.7100000000000009

>  <m_primary>  (34) 
energy

$$$$
34:0
     RDKit          3D

 52 56  0  0  0  0  0  0  0  0999 V2000
   61.5770   33.3730   51.3160 O   0  0  0  0  0  0  0  0  0  0  0  0
   61.3820   32.5950   50.3460 C   0  0  0  0  0  0  0  0  0  0  0  0
   60.9200   31.2630   50.6060 N   0  0  0  0  0  0  0  0  0  0  0  0
   61.3960   30.0500   49.9350 C   0  0  1  0  0  0  0  0  0  0  0  0
   60.4670   28.8670   50.2350 C   0  0  0  0  0  0  0  0  0  0  0  0
   59.0540   29.0840   49.6700 C   0  0  0  0  0  0  0  0  0  0  0  0
   59.0250   30.0640   48.4800 C   0  0  0  0  0  0  0  0  0  0  0  0
   60.2500   29.9930   47.6500 N   0  0  0  0  0  0  0  0  0  0  0  0
   60.3470   28.7420   46.8630 C   0  0  0  0  0  0  0  0  0  0  0  0
   58.9790   28.1960   46.5470 C   0  0  0  0  0  0  0  0  0  0  0  0
   58.5400   26.9890   47.1160 C   0  0  0  0  0  0  0  0  0  0  0  0
   57.2620   26.4990   46.8310 C   0  0  0  0  0  0  0  0  0  0  0  0
   56.4130   27.2110   45.9790 C   0  0  0  0  0  0  0  0  0  0  0  0
   55.1430   26.7220   45.6970 O   0  0  0  0  0  0  0  0  0  0  0  0
   56.8410   28.4150   45.4110 C   0  0  0  0  0  0  0  0  0  0  0  0
   58.1190   28.9080   45.6940 C   0  0  0  0  0  0  0  0  0  0  0  0
   61.4920   30.2980   48.4100 C   0  0  0  0  0  0  0  0  0  0  0  0
   61.6490   33.0750   48.9780 C   0  0  0  0  0  0  0  0  0  0  0  0
   62.9630   33.3750   48.5660 C   0  0  0  0  0  0  0  0  0  0  0  0
   63.2170   33.8350   47.2610 C   0  0  0  0  0  0  0  0  0  0  0  0
   62.1530   34.0130   46.3690 C   0  0  0  0  0  0  0  0  0  0  0  0
   60.8980   33.7360   46.8080 N   0  0  0  0  0  0  0  0  0  0  0  0
   60.6190   33.2910   48.0530 C   0  0  0  0  0  0  0  0  0  0  0  0
   59.2910   33.1160   48.2860 N   0  0  0  0  0  0  0  0  0  0  0  0
   58.7420   33.4650   47.1010 C   0  0  0  0  0  0  0  0  0  0  0  0
   57.3900   33.4750   46.7630 C   0  0  0  0  0  0  0  0  0  0  0  0
   57.0420   33.8850   45.4620 C   0  0  0  0  0  0  0  0  0  0  0  0
   58.0420   34.2740   44.5390 C   0  0  0  0  0  0  0  0  0  0  0  0
   59.4000   34.2560   44.9080 C   0  0  0  0  0  0  0  0  0  0  0  0
   59.7070   33.8410   46.2030 C   0  0  0  0  0  0  0  0  0  0  0  0
   62.3968   29.8005   50.3173 H   0  0  0  0  0  0  0  0  0  0  0  0
   60.8933   27.9582   49.7851 H   0  0  0  0  0  0  0  0  0  0  0  0
   60.3839   28.7700   51.3276 H   0  0  0  0  0  0  0  0  0  0  0  0
   58.6576   28.1141   49.3351 H   0  0  0  0  0  0  0  0  0  0  0  0
   58.4425   29.5225   50.4724 H   0  0  0  0  0  0  0  0  0  0  0  0
   58.1574   29.8241   47.8478 H   0  0  0  0  0  0  0  0  0  0  0  0
   58.9606   31.0826   48.8903 H   0  0  0  0  0  0  0  0  0  0  0  0
   60.8779   28.9491   45.9221 H   0  0  0  0  0  0  0  0  0  0  0  0
   60.8938   27.9953   47.4575 H   0  0  0  0  0  0  0  0  0  0  0  0
   59.2046   26.4270   47.7887 H   0  0  0  0  0  0  0  0  0  0  0  0
   56.9243   25.5522   47.2777 H   0  0  0  0  0  0  0  0  0  0  0  0
   56.1720   28.9749   44.7410 H   0  0  0  0  0  0  0  0  0  0  0  0
   58.4519   29.8564   45.2472 H   0  0  0  0  0  0  0  0  0  0  0  0
   62.3009   29.6684   48.0110 H   0  0  0  0  0  0  0  0  0  0  0  0
   61.6774   31.3747   48.2819 H   0  0  0  0  0  0  0  0  0  0  0  0
   63.7976   33.2483   49.2713 H   0  0  0  0  0  0  0  0  0  0  0  0
   64.2471   34.0538   46.9430 H   0  0  0  0  0  0  0  0  0  0  0  0
   62.3283   34.3669   45.3423 H   0  0  0  0  0  0  0  0  0  0  0  0
   56.6205   33.1726   47.4886 H   0  0  0  0  0  0  0  0  0  0  0  0
   55.9843   33.9032   45.1603 H   0  0  0  0  0  0  0  0  0  0  0  0
   57.7557   34.5927   43.5259 H   0  0  0  0  0  0  0  0  0  0  0  0
   60.1882   34.5575   44.2024 H   0  0  0  0  0  0  0  0  0  0  0  0
  1  2  2  0
  2  3  1  0
  3  4  1  0
  4  5  1  0
  5  6  1  0
  6  7  1  0
  7  8  1  0
  8  9  1  0
  9 10  1  0
 10 11  2  0
 11 12  1  0
 12 13  2  0
 13 14  1  0
 13 15  1  0
 15 16  2  0
  8 17  1  0
  2 18  1  0
 18 19  2  0
 19 20  1  0
 20 21  2  0
 21 22  1  0
 22 23  1  0
 23 24  2  0
 24 25  1  0
 25 26  2  0
 26 27  1  0
 27 28  2  0
 28 29  1  0
 29 30  2  0
 17  4  1  0
 23 18  1  0
 30 25  1  0
 16 10  1  0
 30 22  1  0
  4 31  1  1
  5 32  1  0
  5 33  1  0
  6 34  1  0
  6 35  1  0
  7 36  1  0
  7 37  1  0
  9 38  1  0
  9 39  1  0
 11 40  1  0
 12 41  1  0
 15 42  1  0
 16 43  1  0
 17 44  1  0
 17 45  1  0
 19 46  1  0
 20 47  1  0
 21 48  1  0
 26 49  1  0
 27 50  1  0
 28 51  1  0
 29 52  1  0
M  CHG  2   3  -1  14  -1
M  END
>  <UniqueID>  (35) 
33

>  <SMILES>  (35) 
O=C([N-][C@H]1CCCN(Cc2ccc([O-])cc2)C1)c1cccn2c1nc1ccccc12

>  <Energy>  (35) 
114.98415352049756

>  <Genealogy>  (35) 
O=C([N-]C1CCCN(Cc2ccc([O-])cc2)C1)c1cccn2c1nc1ccccc12 (protonated)
O=C([N-][C@H]1CCCN(Cc2ccc([O-])cc2)C1)c1cccn2c1nc1ccccc12 (chirality)
O=C([N-][C@H]1CCCN(Cc2ccc([O-])cc2)C1)c1cccn2c1nc1ccccc12 (3D coordinates assigned)
O=C([N-][C@H]1CCCN(Cc2ccc([O-])cc2)C1)c1cccn2c1nc1ccccc12 (nonaromatic ring conformer: 114.98415352049756 kcal/mol)

>  <smiles>  (35) 
O=C(NC1CCCN(Cc2ccc(O)cc2)C1)c1cccn2c1nc1ccccc12

>  <score_type>  (35) 
oracle

>  <origin>  (35) 
adg

>  <m_score__min__energy>  (35) 
-13.609999999999999

>  <m_primary>  (35) 
energy

$$$$
35:0
     RDKit          3D

 43 46  0  0  0  0  0  0  0  0999 V2000
   56.4819   23.9508   46.3445 H   0  0  0  0  0  0  0  0  0  0  0  0
   56.4710   25.0170   46.0740 C   0  0  0  0  0  0  0  0  0  0  0  0
   55.4860   25.8580   46.3100 O   0  0  0  0  0  0  0  0  0  0  0  0
   55.7770   27.0460   45.8700 N   0  0  0  0  0  0  0  0  0  0  0  0
   55.1480   27.8750   45.9470 H   0  0  0  0  0  0  0  0  0  0  0  0
   57.0050   26.9780   45.3220 C   0  0  0  0  0  0  0  0  0  0  0  0
   57.6380   27.9660   44.7680 N   0  0  0  0  0  0  0  0  0  0  0  0
   56.9140   29.4910   44.3720 S   0  0  0  0  0  0  0  0  0  0  0  0
   55.4830   29.4890   44.8310 O   0  0  0  0  0  0  0  0  0  0  0  0
   56.9500   29.6780   42.8810 O   0  0  0  0  0  0  0  0  0  0  0  0
   57.7720   30.7990   45.1820 C   0  0  0  0  0  0  0  0  0  0  0  0
   58.3410   30.5950   46.4420 C   0  0  0  0  0  0  0  0  0  0  0  0
   58.2565   29.6109   46.9262 H   0  0  0  0  0  0  0  0  0  0  0  0
   59.0160   31.6310   47.0910 C   0  0  0  0  0  0  0  0  0  0  0  0
   59.4516   31.4587   48.0863 H   0  0  0  0  0  0  0  0  0  0  0  0
   59.1440   32.8970   46.4810 C   0  0  0  0  0  0  0  0  0  0  0  0
   59.8260   33.9700   47.1100 C   0  0  0  0  0  0  0  0  0  0  0  0
   60.5030   33.8200   48.4190 C   0  0  0  0  0  0  0  0  0  0  0  0
   59.7300   33.7190   49.5860 C   0  0  0  0  0  0  0  0  0  0  0  0
   58.6323   33.7471   49.5203 H   0  0  0  0  0  0  0  0  0  0  0  0
   60.3490   33.5830   50.8300 C   0  0  0  0  0  0  0  0  0  0  0  0
   59.7381   33.4986   51.7409 H   0  0  0  0  0  0  0  0  0  0  0  0
   61.7410   33.5540   50.9200 C   0  0  0  0  0  0  0  0  0  0  0  0
   62.2252   33.4427   51.9014 H   0  0  0  0  0  0  0  0  0  0  0  0
   62.5210   33.6660   49.7670 C   0  0  0  0  0  0  0  0  0  0  0  0
   63.6180   33.6456   49.8450 H   0  0  0  0  0  0  0  0  0  0  0  0
   61.9110   33.8050   48.5040 C   0  0  0  0  0  0  0  0  0  0  0  0
   62.6630   33.9370   47.3250 O   0  0  0  0  0  0  0  0  0  0  0  0
   63.7020   33.0490   46.9270 C   0  0  0  0  0  0  0  0  0  0  0  0
   64.1900   32.6319   47.8202 H   0  0  0  0  0  0  0  0  0  0  0  0
   63.2759   32.2317   46.3266 H   0  0  0  0  0  0  0  0  0  0  0  0
   64.4429   33.5972   46.3266 H   0  0  0  0  0  0  0  0  0  0  0  0
   59.8800   35.2210   46.4760 C   0  0  0  0  0  0  0  0  0  0  0  0
   60.3931   36.0596   46.9695 H   0  0  0  0  0  0  0  0  0  0  0  0
   59.2900   35.4120   45.2270 C   0  0  0  0  0  0  0  0  0  0  0  0
   59.3406   36.3983   44.7427 H   0  0  0  0  0  0  0  0  0  0  0  0
   58.6360   34.3580   44.5890 C   0  0  0  0  0  0  0  0  0  0  0  0
   58.1835   34.5135   43.5985 H   0  0  0  0  0  0  0  0  0  0  0  0
   58.5530   33.1010   45.2050 C   0  0  0  0  0  0  0  0  0  0  0  0
   57.8810   32.0500   44.5650 C   0  0  0  0  0  0  0  0  0  0  0  0
   57.4367   32.2100   43.5715 H   0  0  0  0  0  0  0  0  0  0  0  0
   57.4910   25.6960   45.4290 C   0  0  0  0  0  0  0  0  0  0  0  0
   58.4591   25.3035   45.0844 H   0  0  0  0  0  0  0  0  0  0  0  0
  1  2  1  0
  2  3  1  0
  3  4  1  0
  4  5  1  0
  4  6  1  0
  6  7  2  0
  7  8  1  0
  8  9  2  0
  8 10  2  0
  8 11  1  0
 11 12  2  0
 12 13  1  0
 12 14  1  0
 14 15  1  0
 14 16  2  0
 16 17  1  0
 17 18  1  0
 18 19  2  0
 19 20  1  0
 19 21  1  0
 21 22  1  0
 21 23  2  0
 23 24  1  0
 23 25  1  0
 25 26  1  0
 25 27  2  0
 27 28  1  0
 28 29  1  0
 29 30  1  0
 29 31  1  0
 29 32  1  0
 17 33  2  0
 33 34  1  0
 33 35  1  0
 35 36  1  0
 35 37  2  0
 37 38  1  0
 37 39  1  0
 39 40  2  0
 40 41  1  0
  6 42  1  0
 42 43  1  0
 42  2  2  0
 40 11  1  0
 39 16  1  0
 27 18  1  0
M  END
>  <UniqueID>  (36) 
34

>  <SMILES>  (36) 
COc1ccccc1-c1cccc2cc(S(=O)(=O)/N=c3/cco[nH]3)ccc12

>  <Energy>  (36) 
93.74650899366728

>  <Genealogy>  (36) 
COc1ccccc1-c1cccc2cc(S(=O)(=O)/N=c3/cco[nH]3)ccc12 (cis-trans isomerization)
COc1ccccc1-c1cccc2cc(S(=O)(=O)/N=c3/cco[nH]3)ccc12 (3D coordinates assigned)
COc1ccccc1-c1cccc2cc(S(=O)(=O)/N=c3/cco[nH]3)ccc12 (optimized conformer: 93.74650899366728 kcal/mol)

>  <smiles>  (36) 
COc1ccccc1-c1cccc2cc(S(=O)(=O)N=c3cco[nH]3)ccc12

>  <score_type>  (36) 
oracle

>  <origin>  (36) 
adg

>  <m_score__min__energy>  (36) 
-10.59

>  <m_primary>  (36) 
energy

$$$$
36:0
     RDKit          3D

 49 51  0  0  0  0  0  0  0  0999 V2000
   60.4300   34.1660   48.4860 C   0  0  0  0  0  0  0  0  0  0  0  0
   59.0780   34.1170   48.0430 O   0  0  0  0  0  0  0  0  0  0  0  0
   58.6450   33.4360   46.8960 C   0  0  0  0  0  0  0  0  0  0  0  0
   57.7900   34.0240   45.9490 C   0  0  0  0  0  0  0  0  0  0  0  0
   57.3970   33.3090   44.8180 C   0  0  0  0  0  0  0  0  0  0  0  0
   57.8420   31.9980   44.6100 C   0  0  0  0  0  0  0  0  0  0  0  0
   57.3530   31.2120   43.1130 Cl  0  0  0  0  0  0  0  0  0  0  0  0
   58.6960   31.3860   45.5610 C   0  0  0  0  0  0  0  0  0  0  0  0
   59.1810   29.9910   45.4190 C   0  0  0  0  0  0  0  0  0  0  0  0
   60.3660   29.7040   45.7440 O   0  0  0  0  0  0  0  0  0  0  0  0
   58.2950   28.9550   44.9810 N   0  0  0  0  0  0  0  0  0  0  0  0
   58.6230   27.5300   44.9600 C   0  0  2  0  0  0  0  0  0  0  0  0
   58.1060   26.9260   43.6430 C   0  0  0  0  0  0  0  0  0  0  0  0
   58.0140   26.8040   46.2160 C   0  0  2  0  0  0  0  0  0  0  0  0
   57.0380   27.6360   46.8060 O   0  0  0  0  0  0  0  0  0  0  0  0
   59.0910   26.4610   47.2970 C   0  0  0  0  0  0  0  0  0  0  0  0
   59.5100   27.6090   48.1010 N   0  0  0  0  0  0  0  0  0  0  0  0
   60.6370   27.7260   48.8280 C   0  0  0  0  0  0  0  0  0  0  0  0
   60.7010   28.9420   49.3920 N   0  0  0  0  0  0  0  0  0  0  0  0
   59.5810   29.5570   48.9660 C   0  0  0  0  0  0  0  0  0  0  0  0
   58.8490   28.7540   48.1690 N   0  0  0  0  0  0  0  0  0  0  0  0
   57.3510   25.4680   45.7910 C   0  0  0  0  0  0  0  0  0  0  0  0
   58.1170   24.2980   45.5170 C   0  0  0  0  0  0  0  0  0  0  0  0
   59.4690   24.2760   45.6280 F   0  0  0  0  0  0  0  0  0  0  0  0
   57.4950   23.1130   45.1100 C   0  0  0  0  0  0  0  0  0  0  0  0
   56.1120   23.0530   44.9710 C   0  0  0  0  0  0  0  0  0  0  0  0
   55.5200   21.9000   44.5760 F   0  0  0  0  0  0  0  0  0  0  0  0
   55.3380   24.1770   45.2380 C   0  0  0  0  0  0  0  0  0  0  0  0
   55.9390   25.3720   45.6440 C   0  0  0  0  0  0  0  0  0  0  0  0
   55.1240   26.4300   45.8730 F   0  0  0  0  0  0  0  0  0  0  0  0
   59.0890   32.1250   46.6950 C   0  0  0  0  0  0  0  0  0  0  0  0
   60.4557   34.1669   49.5857 H   0  0  0  0  0  0  0  0  0  0  0  0
   60.9720   33.2869   48.1073 H   0  0  0  0  0  0  0  0  0  0  0  0
   60.9070   35.0820   48.1073 H   0  0  0  0  0  0  0  0  0  0  0  0
   57.4292   35.0521   46.1001 H   0  0  0  0  0  0  0  0  0  0  0  0
   56.7300   33.7803   44.0812 H   0  0  0  0  0  0  0  0  0  0  0  0
   59.7131   27.3915   45.0100 H   0  0  0  0  0  0  0  0  0  0  0  0
   57.4054   26.1075   43.8651 H   0  0  0  0  0  0  0  0  0  0  0  0
   57.5891   27.7033   43.0611 H   0  0  0  0  0  0  0  0  0  0  0  0
   58.9538   26.5352   43.0611 H   0  0  0  0  0  0  0  0  0  0  0  0
   57.2910   28.5870   46.6850 H   0  0  0  0  0  0  0  0  0  0  0  0
   58.6739   25.6991   47.9720 H   0  0  0  0  0  0  0  0  0  0  0  0
   59.9821   26.1058   46.7587 H   0  0  0  0  0  0  0  0  0  0  0  0
   61.3961   26.9383   48.9431 H   0  0  0  0  0  0  0  0  0  0  0  0
   61.4490   29.3260   50.0120 H   0  0  0  0  0  0  0  0  0  0  0  0
   59.2992   30.5857   49.2349 H   0  0  0  0  0  0  0  0  0  0  0  0
   58.1040   22.2218   44.8982 H   0  0  0  0  0  0  0  0  0  0  0  0
   54.2446   24.1254   45.1289 H   0  0  0  0  0  0  0  0  0  0  0  0
   59.7574   31.6620   47.4358 H   0  0  0  0  0  0  0  0  0  0  0  0
  1  2  1  0
  2  3  1  0
  3  4  2  0
  4  5  1  0
  5  6  2  0
  6  7  1  0
  6  8  1  0
  8  9  1  0
  9 10  2  0
  9 11  1  0
 11 12  1  0
 12 13  1  0
 12 14  1  0
 14 15  1  1
 14 16  1  0
 16 17  1  0
 17 18  1  0
 18 19  2  0
 19 20  1  0
 20 21  2  0
 14 22  1  0
 22 23  2  0
 23 24  1  0
 23 25  1  0
 25 26  2  0
 26 27  1  0
 26 28  1  0
 28 29  2  0
 29 30  1  0
  8 31  2  0
 31  3  1  0
 21 17  1  0
 29 22  1  0
  1 32  1  0
  1 33  1  0
  1 34  1  0
  4 35  1  0
  5 36  1  0
 12 37  1  6
 13 38  1  0
 13 39  1  0
 13 40  1  0
 15 41  1  0
 16 42  1  0
 16 43  1  0
 18 44  1  0
 19 45  1  0
 20 46  1  0
 25 47  1  0
 28 48  1  0
 31 49  1  0
M  CHG  2  11  -1  19   1
M  END
>  <UniqueID>  (37) 
35

>  <SMILES>  (37) 
COc1ccc(Cl)c(C(=O)[N-][C@H](C)[C@](O)(Cn2c[nH+]cn2)c2c(F)cc(F)cc2F)c1

>  <Energy>  (37) 
95.23514996171303

>  <Genealogy>  (37) 
COc1ccc(Cl)c(C(=O)[N-]C(C)C(O)(Cn2c[nH+]cn2)c2c(F)cc(F)cc2F)c1 (protonated)
COc1ccc(Cl)c(C(=O)[N-][C@H](C)[C@](O)(Cn2c[nH+]cn2)c2c(F)cc(F)cc2F)c1 (chirality)
COc1ccc(Cl)c(C(=O)[N-][C@H](C)[C@](O)(Cn2c[nH+]cn2)c2c(F)cc(F)cc2F)c1 (3D coordinates assigned)
COc1ccc(Cl)c(C(=O)[N-][C@H](C)[C@](O)(Cn2c[nH+]cn2)c2c(F)cc(F)cc2F)c1 (optimized conformer: 95.23514996171303 kcal/mol)

>  <smiles>  (37) 
COc1ccc(Cl)c(C(=O)NC(C)C(O)(Cn2cncn2)c2c(F)cc(F)cc2F)c1

>  <score_type>  (37) 
oracle

>  <origin>  (37) 
adg

>  <m_score__min__energy>  (37) 
-7.3200000000000003

>  <m_primary>  (37) 
energy

$$$$
37:0
     RDKit          3D

 36 37  0  0  0  0  0  0  0  0999 V2000
   57.9600   26.0330   45.4180 C   0  0  0  0  0  0  0  0  0  0  0  0
   56.6280   26.3120   46.0300 C   0  0  0  0  0  0  0  0  0  0  0  0
   56.2100   25.5810   46.9670 O   0  0  0  0  0  0  0  0  0  0  0  0
   55.8930   27.4700   45.6150 N   0  0  0  0  0  0  0  0  0  0  0  0
   56.4430   28.7500   45.2680 C   0  0  0  0  0  0  0  0  0  0  0  0
   57.5710   29.2050   45.9590 C   0  0  0  0  0  0  0  0  0  0  0  0
   58.1450   30.4410   45.6440 C   0  0  0  0  0  0  0  0  0  0  0  0
   57.6070   31.2330   44.6240 C   0  0  0  0  0  0  0  0  0  0  0  0
   58.2160   32.5020   44.3460 N   0  0  0  0  0  0  0  0  0  0  0  0
   57.9950   33.9410   45.2880 S   0  0  0  0  0  0  0  0  0  0  0  0
   57.1440   34.9120   44.5190 O   0  0  0  0  0  0  0  0  0  0  0  0
   57.3010   33.5940   46.5760 O   0  0  0  0  0  0  0  0  0  0  0  0
   59.5490   34.6830   45.6260 C   0  0  0  0  0  0  0  0  0  0  0  0
   60.0700   34.6390   46.8530 C   0  0  0  0  0  0  0  0  0  0  0  0
   61.1050   33.6600   47.2400 C   0  0  0  0  0  0  0  0  0  0  0  0
   62.4080   33.8460   46.7510 C   0  0  0  0  0  0  0  0  0  0  0  0
   63.4280   32.9540   47.0890 C   0  0  0  0  0  0  0  0  0  0  0  0
   63.1550   31.8560   47.9060 C   0  0  0  0  0  0  0  0  0  0  0  0
   61.8580   31.6400   48.3750 C   0  0  0  0  0  0  0  0  0  0  0  0
   60.8260   32.5280   48.0440 C   0  0  0  0  0  0  0  0  0  0  0  0
   59.1960   32.1290   48.5770 Cl  0  0  0  0  0  0  0  0  0  0  0  0
   56.4940   30.7620   43.9030 C   0  0  0  0  0  0  0  0  0  0  0  0
   55.9190   29.5280   44.2210 C   0  0  0  0  0  0  0  0  0  0  0  0
   58.7036   25.8772   46.2135 H   0  0  0  0  0  0  0  0  0  0  0  0
   57.8950   25.1290   44.7947 H   0  0  0  0  0  0  0  0  0  0  0  0
   58.2633   26.8871   44.7947 H   0  0  0  0  0  0  0  0  0  0  0  0
   58.0097   28.5863   46.7558 H   0  0  0  0  0  0  0  0  0  0  0  0
   59.0253   30.7926   46.2020 H   0  0  0  0  0  0  0  0  0  0  0  0
   60.0984   35.1890   44.8185 H   0  0  0  0  0  0  0  0  0  0  0  0
   59.7152   35.3593   47.6049 H   0  0  0  0  0  0  0  0  0  0  0  0
   62.6273   34.7020   46.0958 H   0  0  0  0  0  0  0  0  0  0  0  0
   64.4480   33.1171   46.7108 H   0  0  0  0  0  0  0  0  0  0  0  0
   63.9619   31.1606   48.1805 H   0  0  0  0  0  0  0  0  0  0  0  0
   61.6448   30.7666   49.0088 H   0  0  0  0  0  0  0  0  0  0  0  0
   56.0747   31.3673   43.0858 H   0  0  0  0  0  0  0  0  0  0  0  0
   55.0525   29.1642   43.6493 H   0  0  0  0  0  0  0  0  0  0  0  0
  1  2  1  0
  2  3  2  0
  2  4  1  0
  4  5  1  0
  5  6  2  0
  6  7  1  0
  7  8  2  0
  8  9  1  0
  9 10  1  0
 10 11  2  0
 10 12  2  0
 10 13  1  0
 13 14  2  3
 14 15  1  0
 15 16  2  0
 16 17  1  0
 17 18  2  0
 18 19  1  0
 19 20  2  0
 20 21  1  0
  8 22  1  0
 22 23  2  0
 23  5  1  0
 20 15  1  0
  1 24  1  0
  1 25  1  0
  1 26  1  0
  6 27  1  0
  7 28  1  0
 13 29  1  0
 14 30  1  0
 16 31  1  0
 17 32  1  0
 18 33  1  0
 19 34  1  0
 22 35  1  0
 23 36  1  0
M  CHG  2   4  -1   9  -1
M  END
>  <UniqueID>  (38) 
36

>  <SMILES>  (38) 
CC(=O)[N-]c1ccc([N-]S(=O)(=O)C=Cc2ccccc2Cl)cc1

>  <Energy>  (38) 
45.54333363369747

>  <Genealogy>  (38) 
CC(=O)[N-]c1ccc([N-]S(=O)(=O)C=Cc2ccccc2Cl)cc1 (protonated)
CC(=O)[N-]c1ccc([N-]S(=O)(=O)C=Cc2ccccc2Cl)cc1 (3D coordinates assigned)
CC(=O)[N-]c1ccc([N-]S(=O)(=O)C=Cc2ccccc2Cl)cc1 (optimized conformer: 45.54333363369747 kcal/mol)

>  <smiles>  (38) 
CC(=O)Nc1ccc(NS(=O)(=O)C=Cc2ccccc2Cl)cc1

>  <score_type>  (38) 
oracle

>  <origin>  (38) 
adg

>  <m_score__min__energy>  (38) 
-11.380000000000001

>  <m_primary>  (38) 
energy

$$$$
38:0
     RDKit          3D

 39 42  0  0  0  0  0  0  0  0999 V2000
   55.5240   28.9690   44.9220 N   0  0  0  0  0  0  0  0  0  0  0  0
   56.8250   29.3460   45.3760 C   0  0  0  0  0  0  0  0  0  0  0  0
   57.1930   30.5420   45.2540 O   0  0  0  0  0  0  0  0  0  0  0  0
   57.7130   28.3550   46.0190 C   0  0  0  0  0  0  0  0  0  0  0  0
   58.9830   28.6790   46.5760 C   0  0  0  0  0  0  0  0  0  0  0  0
   59.3900   30.0220   46.8810 N   0  0  0  0  0  0  0  0  0  0  0  0
   59.8280   31.0000   45.8740 C   0  0  0  0  0  0  0  0  0  0  0  0
   59.6840   32.3190   46.5770 C   0  0  0  0  0  0  0  0  0  0  0  0
   59.9760   33.5930   46.0870 C   0  0  0  0  0  0  0  0  0  0  0  0
   59.7560   34.7000   46.9250 C   0  0  0  0  0  0  0  0  0  0  0  0
   59.2510   34.5180   48.2300 C   0  0  0  0  0  0  0  0  0  0  0  0
   58.9630   33.2280   48.7050 C   0  0  0  0  0  0  0  0  0  0  0  0
   59.1930   32.1500   47.8510 C   0  0  0  0  0  0  0  0  0  0  0  0
   58.9910   30.7380   48.0490 C   0  0  0  0  0  0  0  0  0  0  0  0
   58.5310   30.2020   49.0920 O   0  0  0  0  0  0  0  0  0  0  0  0
   59.7980   27.6270   46.8580 N   0  0  0  0  0  0  0  0  0  0  0  0
   58.9350   26.2750   46.4370 S   0  0  0  0  0  0  0  0  0  0  0  0
   57.5090   26.9750   45.9480 C   0  0  0  0  0  0  0  0  0  0  0  0
   56.4500   26.2810   45.2800 N   0  0  0  0  0  0  0  0  0  0  0  0
   55.4980   25.4360   45.9390 C   0  0  0  0  0  0  0  0  0  0  0  0
   54.2920   25.7950   45.9780 O   0  0  0  0  0  0  0  0  0  0  0  0
   55.8920   24.1570   46.5710 C   0  0  0  0  0  0  0  0  0  0  0  0
   55.2170   23.7210   47.7220 C   0  0  0  0  0  0  0  0  0  0  0  0
   55.5890   22.5310   48.3470 C   0  0  0  0  0  0  0  0  0  0  0  0
   56.6180   21.7660   47.7990 C   0  0  0  0  0  0  0  0  0  0  0  0
   57.2320   22.1700   46.6570 N   0  0  0  0  0  0  0  0  0  0  0  0
   56.8980   23.3300   46.0290 C   0  0  0  0  0  0  0  0  0  0  0  0
   57.6690   23.6860   44.4900 Cl  0  0  0  0  0  0  0  0  0  0  0  0
   54.9100   29.6680   44.4480 H   0  0  0  0  0  0  0  0  0  0  0  0
   55.1520   28.0080   45.0900 H   0  0  0  0  0  0  0  0  0  0  0  0
   60.8737   30.8223   45.5827 H   0  0  0  0  0  0  0  0  0  0  0  0
   59.2443   30.9457   44.9432 H   0  0  0  0  0  0  0  0  0  0  0  0
   60.3692   33.7276   45.0685 H   0  0  0  0  0  0  0  0  0  0  0  0
   59.9788   35.7140   46.5613 H   0  0  0  0  0  0  0  0  0  0  0  0
   59.0821   35.3905   48.8783 H   0  0  0  0  0  0  0  0  0  0  0  0
   58.5680   33.0728   49.7198 H   0  0  0  0  0  0  0  0  0  0  0  0
   54.3912   24.3204   48.1327 H   0  0  0  0  0  0  0  0  0  0  0  0
   55.0764   22.1996   49.2621 H   0  0  0  0  0  0  0  0  0  0  0  0
   56.9327   20.8345   48.2921 H   0  0  0  0  0  0  0  0  0  0  0  0
  1  2  1  0
  2  3  2  0
  2  4  1  0
  4  5  1  0
  5  6  1  0
  6  7  1  0
  7  8  1  0
  8  9  2  0
  9 10  1  0
 10 11  2  0
 11 12  1  0
 12 13  2  0
 13 14  1  0
 14 15  2  0
  5 16  2  0
 16 17  1  0
 17 18  1  0
 18 19  1  0
 19 20  1  0
 20 21  2  0
 20 22  1  0
 22 23  2  0
 23 24  1  0
 24 25  2  0
 25 26  1  0
 26 27  2  0
 27 28  1  0
 18  4  2  0
 27 22  1  0
 14  6  1  0
 13  8  1  0
  1 29  1  0
  1 30  1  0
  7 31  1  0
  7 32  1  0
  9 33  1  0
 10 34  1  0
 11 35  1  0
 12 36  1  0
 23 37  1  0
 24 38  1  0
 25 39  1  0
M  CHG  1  19  -1
M  END
>  <UniqueID>  (39) 
37

>  <SMILES>  (39) 
NC(=O)c1c(N2Cc3ccccc3C2=O)nsc1[N-]C(=O)c1cccnc1Cl

>  <Energy>  (39) 
120.04786619970706

>  <Genealogy>  (39) 
NC(=O)c1c(N2Cc3ccccc3C2=O)nsc1[N-]C(=O)c1cccnc1Cl (protonated)
NC(=O)c1c(N2Cc3ccccc3C2=O)nsc1[N-]C(=O)c1cccnc1Cl (3D coordinates assigned)
NC(=O)c1c(N2Cc3ccccc3C2=O)nsc1[N-]C(=O)c1cccnc1Cl (nonaromatic ring conformer: 120.04786619970706 kcal/mol)

>  <smiles>  (39) 
NC(=O)c1c(N2Cc3ccccc3C2=O)nsc1NC(=O)c1cccnc1Cl

>  <score_type>  (39) 
oracle

>  <origin>  (39) 
adg

>  <m_score__min__energy>  (39) 
-10.970000000000001

>  <m_primary>  (39) 
energy

$$$$
39:0
     RDKit          3D

 44 46  0  0  0  0  0  0  0  0999 V2000
   54.6550   22.1770   47.6550 C   0  0  0  0  0  0  0  0  0  0  0  0
   55.2150   22.0270   46.2640 C   0  0  0  0  0  0  0  0  0  0  0  0
   55.4430   20.7360   45.7660 C   0  0  0  0  0  0  0  0  0  0  0  0
   55.9840   20.5680   44.4950 C   0  0  0  0  0  0  0  0  0  0  0  0
   56.2780   21.6490   43.7320 N   0  0  0  0  0  0  0  0  0  0  0  0
   56.0590   22.9230   44.1590 C   0  0  0  0  0  0  0  0  0  0  0  0
   56.3980   24.0480   43.2240 C   0  0  0  0  0  0  0  0  0  0  0  0
   55.5130   23.1490   45.4480 C   0  0  0  0  0  0  0  0  0  0  0  0
   55.2590   24.5260   45.9340 C   0  0  0  0  0  0  0  0  0  0  0  0
   54.1900   25.1150   45.6220 O   0  0  0  0  0  0  0  0  0  0  0  0
   56.2080   25.1590   46.8020 N   0  0  0  0  0  0  0  0  0  0  0  0
   57.1210   26.2050   46.4430 C   0  0  0  0  0  0  0  0  0  0  0  0
   58.4950   25.9560   46.5260 C   0  0  0  0  0  0  0  0  0  0  0  0
   59.4140   26.9380   46.1550 C   0  0  0  0  0  0  0  0  0  0  0  0
   58.9680   28.1770   45.6880 C   0  0  0  0  0  0  0  0  0  0  0  0
   57.5920   28.4460   45.5840 C   0  0  0  0  0  0  0  0  0  0  0  0
   57.1310   29.7560   45.0650 C   0  0  0  0  0  0  0  0  0  0  0  0
   55.9220   29.9010   44.7360 O   0  0  0  0  0  0  0  0  0  0  0  0
   58.0430   30.8560   44.9160 N   0  0  0  0  0  0  0  0  0  0  0  0
   57.5650   32.1950   44.5720 C   0  0  0  0  0  0  0  0  0  0  0  0
   58.4960   33.2380   45.1040 C   0  0  0  0  0  0  0  0  0  0  0  0
   58.3280   34.6040   44.9880 C   0  0  0  0  0  0  0  0  0  0  0  0
   59.4010   35.1640   45.6480 C   0  0  0  0  0  0  0  0  0  0  0  0
   60.1520   34.1090   46.1260 C   0  0  0  0  0  0  0  0  0  0  0  0
   59.5850   32.9730   45.7880 O   0  0  0  0  0  0  0  0  0  0  0  0
   56.6720   27.4440   45.9480 C   0  0  0  0  0  0  0  0  0  0  0  0
   55.4434   21.9658   48.3924 H   0  0  0  0  0  0  0  0  0  0  0  0
   54.2888   23.2049   47.7940 H   0  0  0  0  0  0  0  0  0  0  0  0
   53.8240   21.4698   47.7940 H   0  0  0  0  0  0  0  0  0  0  0  0
   55.1945   19.8573   46.3793 H   0  0  0  0  0  0  0  0  0  0  0  0
   56.1735   19.5557   44.1086 H   0  0  0  0  0  0  0  0  0  0  0  0
   56.6671   24.9410   43.8072 H   0  0  0  0  0  0  0  0  0  0  0  0
   57.2476   23.7544   42.5899 H   0  0  0  0  0  0  0  0  0  0  0  0
   55.5277   24.2727   42.5899 H   0  0  0  0  0  0  0  0  0  0  0  0
   58.8530   24.9802   46.8859 H   0  0  0  0  0  0  0  0  0  0  0  0
   60.4927   26.7362   46.2304 H   0  0  0  0  0  0  0  0  0  0  0  0
   59.6985   28.9473   45.3997 H   0  0  0  0  0  0  0  0  0  0  0  0
   59.0700   30.6860   45.0050 H   0  0  0  0  0  0  0  0  0  0  0  0
   57.5054   32.2877   43.4775 H   0  0  0  0  0  0  0  0  0  0  0  0
   56.5717   32.3436   45.0206 H   0  0  0  0  0  0  0  0  0  0  0  0
   57.5105   35.1334   44.4768 H   0  0  0  0  0  0  0  0  0  0  0  0
   59.6156   36.2360   45.7693 H   0  0  0  0  0  0  0  0  0  0  0  0
   61.0839   34.2049   46.7025 H   0  0  0  0  0  0  0  0  0  0  0  0
   55.5930   27.6311   45.8446 H   0  0  0  0  0  0  0  0  0  0  0  0
  1  2  1  0
  2  3  2  0
  3  4  1  0
  4  5  2  0
  5  6  1  0
  6  7  1  0
  6  8  2  0
  8  9  1  0
  9 10  2  0
  9 11  1  0
 11 12  1  0
 12 13  2  0
 13 14  1  0
 14 15  2  0
 15 16  1  0
 16 17  1  0
 17 18  2  0
 17 19  1  0
 19 20  1  0
 20 21  1  0
 21 22  2  0
 22 23  1  0
 23 24  2  0
 24 25  1  0
 16 26  2  0
  8  2  1  0
 26 12  1  0
 25 21  1  0
  1 27  1  0
  1 28  1  0
  1 29  1  0
  3 30  1  0
  4 31  1  0
  7 32  1  0
  7 33  1  0
  7 34  1  0
 13 35  1  0
 14 36  1  0
 15 37  1  0
 19 38  1  0
 20 39  1  0
 20 40  1  0
 22 41  1  0
 23 42  1  0
 24 43  1  0
 26 44  1  0
M  CHG  1  11  -1
M  END
>  <UniqueID>  (40) 
38

>  <SMILES>  (40) 
Cc1ccnc(C)c1C(=O)[N-]c1cccc(C(=O)NCc2ccco2)c1

>  <Energy>  (40) 
82.0638318928432

>  <Genealogy>  (40) 
Cc1ccnc(C)c1C(=O)[N-]c1cccc(C(=O)NCc2ccco2)c1 (protonated)
Cc1ccnc(C)c1C(=O)[N-]c1cccc(C(=O)NCc2ccco2)c1 (3D coordinates assigned)
Cc1ccnc(C)c1C(=O)[N-]c1cccc(C(=O)NCc2ccco2)c1 (optimized conformer: 82.0638318928432 kcal/mol)

>  <smiles>  (40) 
Cc1ccnc(C)c1C(=O)Nc1cccc(C(=O)NCc2ccco2)c1

>  <score_type>  (40) 
oracle

>  <origin>  (40) 
adg

>  <m_score__min__energy>  (40) 
-10.550000000000001

>  <m_primary>  (40) 
energy

$$$$
40:0
     RDKit          3D

 44 46  0  0  0  0  0  0  0  0999 V2000
   56.6713   25.7142   46.7871 H   0  0  0  0  0  0  0  0  0  0  0  0
   57.0090   26.7270   46.5220 C   0  0  0  0  0  0  0  0  0  0  0  0
   56.3020   27.4640   45.6250 N   0  0  0  0  0  0  0  0  0  0  0  0
   56.6730   28.7210   45.2660 C   0  0  0  0  0  0  0  0  0  0  0  0
   55.9320   29.3600   44.4040 N   0  0  0  0  0  0  0  0  0  0  0  0
   55.8890   30.8030   44.1550 C   0  0  0  0  0  0  0  0  0  0  0  0
   55.1290   31.0107   43.3874 H   0  0  0  0  0  0  0  0  0  0  0  0
   55.6402   31.3088   45.0996 H   0  0  0  0  0  0  0  0  0  0  0  0
   57.2460   31.3310   43.6690 C   0  0  0  0  0  0  0  0  0  0  0  0
   57.9667   30.5002   43.6491 H   0  0  0  0  0  0  0  0  0  0  0  0
   57.1114   31.7561   42.6634 H   0  0  0  0  0  0  0  0  0  0  0  0
   57.7720   32.4140   44.5740 C   0  0  0  0  0  0  0  0  0  0  0  0
   57.4300   32.4290   45.9370 C   0  0  0  0  0  0  0  0  0  0  0  0
   56.7953   31.6320   46.3517 H   0  0  0  0  0  0  0  0  0  0  0  0
   57.8940   33.4540   46.7680 C   0  0  0  0  0  0  0  0  0  0  0  0
   57.6293   33.4577   47.8357 H   0  0  0  0  0  0  0  0  0  0  0  0
   58.6930   34.4730   46.2440 C   0  0  0  0  0  0  0  0  0  0  0  0
   59.0578   35.2775   46.8995 H   0  0  0  0  0  0  0  0  0  0  0  0
   59.0290   34.4710   44.8880 C   0  0  0  0  0  0  0  0  0  0  0  0
   59.6574   35.2746   44.4764 H   0  0  0  0  0  0  0  0  0  0  0  0
   58.5670   33.4480   44.0530 C   0  0  0  0  0  0  0  0  0  0  0  0
   58.8274   33.4535   42.9843 H   0  0  0  0  0  0  0  0  0  0  0  0
   57.8370   29.2810   45.8330 C   0  0  0  0  0  0  0  0  0  0  0  0
   58.1535   30.2960   45.5510 H   0  0  0  0  0  0  0  0  0  0  0  0
   58.5920   28.5400   46.7590 C   0  0  0  0  0  0  0  0  0  0  0  0
   59.8090   29.1280   47.3700 C   0  0  0  0  0  0  0  0  0  0  0  0
   60.7520   28.3700   47.7290 O   0  0  0  0  0  0  0  0  0  0  0  0
   59.9210   30.5460   47.5780 N   0  0  0  0  0  0  0  0  0  0  0  0
   59.0430   31.1050   47.6690 H   0  0  0  0  0  0  0  0  0  0  0  0
   61.1470   31.1630   47.9960 C   0  0  0  0  0  0  0  0  0  0  0  0
   61.7830   32.0630   47.1270 C   0  0  0  0  0  0  0  0  0  0  0  0
   61.3527   32.2591   46.1338 H   0  0  0  0  0  0  0  0  0  0  0  0
   62.9570   32.7110   47.5130 C   0  0  0  0  0  0  0  0  0  0  0  0
   63.4435   33.4206   46.8276 H   0  0  0  0  0  0  0  0  0  0  0  0
   63.5150   32.4600   48.7680 C   0  0  0  0  0  0  0  0  0  0  0  0
   64.4331   32.9818   49.0759 H   0  0  0  0  0  0  0  0  0  0  0  0
   62.9080   31.5470   49.6320 C   0  0  0  0  0  0  0  0  0  0  0  0
   63.3547   31.3491   50.6175 H   0  0  0  0  0  0  0  0  0  0  0  0
   61.7320   30.8790   49.2540 C   0  0  0  0  0  0  0  0  0  0  0  0
   61.1800   29.8860   50.1270 N   0  0  0  0  0  0  0  0  0  0  0  0
   61.1960   30.0230   51.1620 H   0  0  0  0  0  0  0  0  0  0  0  0
   60.8250   28.9740   49.7670 H   0  0  0  0  0  0  0  0  0  0  0  0
   58.1610   27.2510   47.1070 C   0  0  0  0  0  0  0  0  0  0  0  0
   58.7292   26.6567   47.8378 H   0  0  0  0  0  0  0  0  0  0  0  0
  1  2  1  0
  2  3  1  0
  3  4  1  0
  4  5  2  0
  5  6  1  0
  6  7  1  0
  6  8  1  0
  6  9  1  0
  9 10  1  0
  9 11  1  0
  9 12  1  0
 12 13  2  0
 13 14  1  0
 13 15  1  0
 15 16  1  0
 15 17  2  0
 17 18  1  0
 17 19  1  0
 19 20  1  0
 19 21  2  0
 21 22  1  0
  4 23  1  0
 23 24  1  0
 23 25  2  0
 25 26  1  0
 26 27  2  0
 26 28  1  0
 28 29  1  0
 28 30  1  0
 30 31  2  0
 31 32  1  0
 31 33  1  0
 33 34  1  0
 33 35  2  0
 35 36  1  0
 35 37  1  0
 37 38  1  0
 37 39  2  0
 39 40  1  0
 40 41  1  0
 40 42  1  0
 25 43  1  0
 43 44  1  0
 43  2  2  0
 21 12  1  0
 39 30  1  0
M  CHG  1   3  -1
M  END
>  <UniqueID>  (41) 
39

>  <SMILES>  (41) 
Nc1ccccc1NC(=O)c1cc[n-]/c(=N/CCc2ccccc2)c1

>  <Energy>  (41) 
54.51263601954237

>  <Genealogy>  (41) 
Nc1ccccc1NC(=O)c1cc[n-]c(=NCCc2ccccc2)c1 (protonated)
Nc1ccccc1NC(=O)c1cc[n-]/c(=N/CCc2ccccc2)c1 (cis-trans isomerization)
Nc1ccccc1NC(=O)c1cc[n-]/c(=N/CCc2ccccc2)c1 (3D coordinates assigned)
Nc1ccccc1NC(=O)c1cc[n-]/c(=N/CCc2ccccc2)c1 (optimized conformer: 54.51263601954237 kcal/mol)

>  <smiles>  (41) 
Nc1ccccc1NC(=O)c1cc[nH]c(=NCCc2ccccc2)c1

>  <score_type>  (41) 
oracle

>  <origin>  (41) 
adg

>  <m_score__min__energy>  (41) 
-9.0899999999999999

>  <m_primary>  (41) 
energy

$$$$
41:0
     RDKit          3D

 49 51  0  0  1  0  0  0  0  0999 V2000
   59.8310   33.4860   51.5700 C   0  0  0  0  0  0  0  0  0  0  0  0
   60.6060   33.8240   50.4340 O   0  0  0  0  0  0  0  0  0  0  0  0
   59.9300   33.7560   49.2100 C   0  0  0  0  0  0  0  0  0  0  0  0
   60.3110   34.5720   48.1500 C   0  0  0  0  0  0  0  0  0  0  0  0
   59.6560   34.5210   46.9310 C   0  0  0  0  0  0  0  0  0  0  0  0
   58.5900   33.6320   46.7690 C   0  0  0  0  0  0  0  0  0  0  0  0
   57.8140   33.6140   45.2060 S   0  0  0  0  0  0  0  0  0  0  0  0
   56.6650   34.6010   45.2000 O   0  0  0  0  0  0  0  0  0  0  0  0
   58.7900   34.1000   44.1700 O   0  0  0  0  0  0  0  0  0  0  0  0
   57.2240   32.0530   44.8620 N   0  0  0  0  0  0  0  0  0  0  0  0
   57.8520   30.8380   45.2350 C   0  0  0  0  0  0  0  0  0  0  0  0
   59.1710   30.7420   45.6240 C   0  0  0  0  0  0  0  0  0  0  0  0
   59.7760   29.5550   45.9770 C   0  0  0  0  0  0  0  0  0  0  0  0
   61.1570   29.5740   46.3670 N   0  0  0  0  0  0  0  0  0  0  0  0
   61.4300   30.2750   47.4400 C   0  0  0  0  0  0  0  0  0  0  0  0
   62.3020   31.3620   47.3480 C   0  0  0  0  0  0  0  0  0  0  0  0
   62.6210   32.1340   48.4530 C   0  0  0  0  0  0  0  0  0  0  0  0
   62.0510   31.7860   49.6260 N   0  0  0  0  0  0  0  0  0  0  0  0
   61.2090   30.7370   49.7160 C   0  0  0  0  0  0  0  0  0  0  0  0
   60.6720   30.4550   50.9580 O   0  0  0  0  0  0  0  0  0  0  0  0
   61.2270   29.3950   51.7170 C   0  0  0  0  0  0  0  0  0  0  0  0
   60.8950   29.9820   48.6380 N   0  0  0  0  0  0  0  0  0  0  0  0
   59.0630   28.3740   45.9530 C   0  0  0  0  0  0  0  0  0  0  0  0
   57.7400   28.4350   45.5670 C   0  0  0  0  0  0  0  0  0  0  0  0
   57.1460   29.6270   45.2180 C   0  0  0  0  0  0  0  0  0  0  0  0
   55.8130   29.6880   44.8290 O   0  0  0  0  0  0  0  0  0  0  0  0
   55.5050   29.7470   43.4400 C   0  0  0  0  0  0  0  0  0  0  0  0
   58.2190   32.8300   47.8200 C   0  0  0  0  0  0  0  0  0  0  0  0
   58.8650   32.8630   49.0560 C   0  0  0  0  0  0  0  0  0  0  0  0
   60.3929   33.7311   52.4833 H   0  0  0  0  0  0  0  0  0  0  0  0
   58.8900   34.0554   51.5545 H   0  0  0  0  0  0  0  0  0  0  0  0
   59.6081   32.4089   51.5545 H   0  0  0  0  0  0  0  0  0  0  0  0
   61.1493   35.2718   48.2827 H   0  0  0  0  0  0  0  0  0  0  0  0
   59.9705   35.1714   46.1015 H   0  0  0  0  0  0  0  0  0  0  0  0
   56.3100   31.9480   44.3260 H   0  0  0  0  0  0  0  0  0  0  0  0
   59.7730   31.6622   45.6543 H   0  0  0  0  0  0  0  0  0  0  0  0
   62.7468   31.6114   46.3733 H   0  0  0  0  0  0  0  0  0  0  0  0
   63.3069   32.9907   48.3781 H   0  0  0  0  0  0  0  0  0  0  0  0
   62.2750   32.3540   50.4860 H   0  0  0  0  0  0  0  0  0  0  0  0
   61.1129   29.6129   52.7892 H   0  0  0  0  0  0  0  0  0  0  0  0
   60.7038   28.4580   51.4755 H   0  0  0  0  0  0  0  0  0  0  0  0
   62.2951   29.2912   51.4755 H   0  0  0  0  0  0  0  0  0  0  0  0
   59.5323   27.4189   46.2314 H   0  0  0  0  0  0  0  0  0  0  0  0
   57.1458   27.5098   45.5374 H   0  0  0  0  0  0  0  0  0  0  0  0
   54.4321   29.9525   43.3107 H   0  0  0  0  0  0  0  0  0  0  0  0
   56.0914   30.5491   42.9681 H   0  0  0  0  0  0  0  0  0  0  0  0
   55.7535   28.7849   42.9681 H   0  0  0  0  0  0  0  0  0  0  0  0
   57.3788   32.1336   47.6818 H   0  0  0  0  0  0  0  0  0  0  0  0
   58.5474   32.2088   49.8814 H   0  0  0  0  0  0  0  0  0  0  0  0
  1  2  1  0
  2  3  1  0
  3  4  2  0
  4  5  1  0
  5  6  2  0
  6  7  1  0
  7  8  2  0
  7  9  2  0
  7 10  1  0
 10 11  1  0
 11 12  2  0
 12 13  1  0
 13 14  1  0
 14 15  2  0
 15 16  1  0
 16 17  2  0
 17 18  1  0
 18 19  1  0
 19 20  1  0
 20 21  1  0
 19 22  2  0
 13 23  2  0
 23 24  1  0
 24 25  2  0
 25 26  1  0
 26 27  1  0
  6 28  1  0
 28 29  2  0
 29  3  1  0
 25 11  1  0
 22 15  1  0
  1 30  1  0
  1 31  1  0
  1 32  1  0
  4 33  1  0
  5 34  1  0
 10 35  1  0
 12 36  1  0
 16 37  1  0
 17 38  1  0
 18 39  1  0
 21 40  1  0
 21 41  1  0
 21 42  1  0
 23 43  1  0
 24 44  1  0
 27 45  1  0
 27 46  1  0
 27 47  1  0
 28 48  1  0
 29 49  1  0
M  END
>  <smiles>  (42) 
COc1ccc(S(=O)(=O)Nc2cc(N=c3cc[nH]c(OC)n3)ccc2OC)cc1

>  <score_type>  (42) 
oracle

>  <origin>  (42) 
adg

>  <m_score__min__energy>  (42) 
-9.3300000000000001

>  <m_primary>  (42) 
energy

$$$$
42:0
     RDKit          3D

 42 45  0  0  0  0  0  0  0  0999 V2000
   58.4110   34.4490   47.4850 O   0  0  0  0  0  0  0  0  0  0  0  0
   59.1350   33.8860   46.6220 C   0  0  0  0  0  0  0  0  0  0  0  0
   60.5210   34.2520   46.5470 N   0  0  0  0  0  0  0  0  0  0  0  0
   61.6220   33.5170   47.1020 C   0  0  0  0  0  0  0  0  0  0  0  0
   62.9570   33.8360   46.7910 C   0  0  0  0  0  0  0  0  0  0  0  0
   64.0050   33.0990   47.3510 C   0  0  0  0  0  0  0  0  0  0  0  0
   63.7300   32.0290   48.2070 C   0  0  0  0  0  0  0  0  0  0  0  0
   62.4050   31.6900   48.4990 C   0  0  0  0  0  0  0  0  0  0  0  0
   62.1380   30.6470   49.3230 F   0  0  0  0  0  0  0  0  0  0  0  0
   61.3550   32.4270   47.9420 C   0  0  0  0  0  0  0  0  0  0  0  0
   58.5260   32.9100   45.6870 C   0  0  0  0  0  0  0  0  0  0  0  0
   58.0200   33.3410   44.4510 C   0  0  0  0  0  0  0  0  0  0  0  0
   57.4340   32.4280   43.5700 C   0  0  0  0  0  0  0  0  0  0  0  0
   57.3410   31.0760   43.9120 C   0  0  0  0  0  0  0  0  0  0  0  0
   56.5820   29.8600   42.6390 Br  0  0  0  0  0  0  0  0  0  0  0  0
   57.8500   30.6290   45.1460 C   0  0  0  0  0  0  0  0  0  0  0  0
   57.7530   29.2510   45.5330 N   0  0  0  0  0  0  0  0  0  0  0  0
   56.6370   28.4930   45.5440 C   0  0  0  0  0  0  0  0  0  0  0  0
   55.3650   28.9670   45.2420 O   0  0  0  0  0  0  0  0  0  0  0  0
   56.9430   27.1930   45.8930 C   0  0  0  0  0  0  0  0  0  0  0  0
   58.3020   27.1470   46.0840 C   0  0  0  0  0  0  0  0  0  0  0  0
   58.7770   28.4250   45.8430 C   0  0  0  0  0  0  0  0  0  0  0  0
   60.1130   28.8180   45.8750 O   0  0  0  0  0  0  0  0  0  0  0  0
   59.0580   25.9030   46.4210 C   0  0  0  0  0  0  0  0  0  0  0  0
   58.1300   24.7250   46.6390 C   0  0  0  0  0  0  0  0  0  0  0  0
   56.7920   24.7710   46.4530 C   0  0  0  0  0  0  0  0  0  0  0  0
   56.0400   26.0080   46.0030 C   0  0  0  0  0  0  0  0  0  0  0  0
   58.4590   31.5460   46.0150 C   0  0  0  0  0  0  0  0  0  0  0  0
   63.1766   34.6676   46.1053 H   0  0  0  0  0  0  0  0  0  0  0  0
   65.0473   33.3617   47.1175 H   0  0  0  0  0  0  0  0  0  0  0  0
   64.5557   31.4535   48.6510 H   0  0  0  0  0  0  0  0  0  0  0  0
   60.3140   32.1498   48.1643 H   0  0  0  0  0  0  0  0  0  0  0  0
   58.0850   34.4036   44.1740 H   0  0  0  0  0  0  0  0  0  0  0  0
   57.0438   32.7754   42.6020 H   0  0  0  0  0  0  0  0  0  0  0  0
   60.7340   28.6210   45.0990 H   0  0  0  0  0  0  0  0  0  0  0  0
   59.7443   25.6679   45.5942 H   0  0  0  0  0  0  0  0  0  0  0  0
   59.6119   26.0806   47.3546 H   0  0  0  0  0  0  0  0  0  0  0  0
   58.5727   23.7736   46.9690 H   0  0  0  0  0  0  0  0  0  0  0  0
   56.2131   23.8544   46.6396 H   0  0  0  0  0  0  0  0  0  0  0  0
   55.5872   25.8122   45.0198 H   0  0  0  0  0  0  0  0  0  0  0  0
   55.2684   26.2329   46.7541 H   0  0  0  0  0  0  0  0  0  0  0  0
   58.8889   31.1930   46.9640 H   0  0  0  0  0  0  0  0  0  0  0  0
  1  2  2  0
  2  3  1  0
  3  4  1  0
  4  5  2  0
  5  6  1  0
  6  7  2  0
  7  8  1  0
  8  9  1  0
  8 10  2  0
  2 11  1  0
 11 12  2  0
 12 13  1  0
 13 14  2  0
 14 15  1  0
 14 16  1  0
 16 17  1  0
 17 18  1  0
 18 19  1  0
 18 20  2  0
 20 21  1  0
 21 22  2  0
 22 23  1  0
 21 24  1  0
 24 25  1  0
 25 26  2  0
 26 27  1  0
 16 28  2  0
 10  4  1  0
 28 11  1  0
 22 17  1  0
 27 20  1  0
  5 29  1  0
  6 30  1  0
  7 31  1  0
 10 32  1  0
 12 33  1  0
 13 34  1  0
 23 35  1  0
 24 36  1  0
 24 37  1  0
 25 38  1  0
 26 39  1  0
 27 40  1  0
 27 41  1  0
 28 42  1  0
M  CHG  2   3  -1  19  -1
M  END
>  <UniqueID>  (43) 
40

>  <SMILES>  (43) 
O=C([N-]c1cccc(F)c1)c1ccc(Br)c(-n2c([O-])c3c(c2O)CC=CC3)c1

>  <Energy>  (43) 
91.58463094559079

>  <Genealogy>  (43) 
O=C([N-]c1cccc(F)c1)c1ccc(Br)c(-n2c([O-])c3c(c2O)CC=CC3)c1 (protonated)
O=C([N-]c1cccc(F)c1)c1ccc(Br)c(-n2c([O-])c3c(c2O)CC=CC3)c1 (3D coordinates assigned)
O=C([N-]c1cccc(F)c1)c1ccc(Br)c(-n2c([O-])c3c(c2O)CC=CC3)c1 (nonaromatic ring conformer: 91.58463094559079 kcal/mol)

>  <smiles>  (43) 
O=C(Nc1cccc(F)c1)c1ccc(Br)c(-n2c(O)c3c(c2O)CC=CC3)c1

>  <score_type>  (43) 
oracle

>  <origin>  (43) 
adg

>  <m_score__min__energy>  (43) 
-13.23

>  <m_primary>  (43) 
energy

$$$$
43:0
     RDKit          3D

 42 45  0  0  0  0  0  0  0  0999 V2000
   56.1430   25.5130   46.6850 O   0  0  0  0  0  0  0  0  0  0  0  0
   56.6130   26.6390   46.3760 C   0  0  0  0  0  0  0  0  0  0  0  0
   57.8850   27.0180   46.8170 C   0  0  0  0  0  0  0  0  0  0  0  0
   58.3800   28.2390   46.4750 N   0  0  0  0  0  0  0  0  0  0  0  0
   57.6520   29.1000   45.7070 C   0  0  0  0  0  0  0  0  0  0  0  0
   58.1600   30.3580   45.3510 C   0  0  0  0  0  0  0  0  0  0  0  0
   57.3980   31.2230   44.5510 C   0  0  0  0  0  0  0  0  0  0  0  0
   58.0290   32.7950   44.0700 S   0  0  0  0  0  0  0  0  0  0  0  0
   58.3650   32.7550   42.6060 O   0  0  0  0  0  0  0  0  0  0  0  0
   57.0150   33.8790   44.3040 O   0  0  0  0  0  0  0  0  0  0  0  0
   59.4660   33.1490   44.9730 N   0  0  0  0  0  0  0  0  0  0  0  0
   59.5320   33.3050   46.3970 C   0  0  0  0  0  0  0  0  0  0  0  0
   59.2180   34.5210   47.0320 C   0  0  0  0  0  0  0  0  0  0  0  0
   59.3000   34.6300   48.4240 C   0  0  0  0  0  0  0  0  0  0  0  0
   59.6860   33.5240   49.2010 C   0  0  0  0  0  0  0  0  0  0  0  0
   59.7920   33.6000   50.5980 O   0  0  0  0  0  0  0  0  0  0  0  0
   58.9600   32.9400   51.5120 C   0  0  0  0  0  0  0  0  0  0  0  0
   59.1710   33.1410   52.8820 C   0  0  0  0  0  0  0  0  0  0  0  0
   58.3710   32.4860   53.8260 C   0  0  0  0  0  0  0  0  0  0  0  0
   57.3630   31.6150   53.4030 C   0  0  0  0  0  0  0  0  0  0  0  0
   57.1570   31.3940   52.0390 C   0  0  0  0  0  0  0  0  0  0  0  0
   57.9540   32.0480   51.0940 C   0  0  0  0  0  0  0  0  0  0  0  0
   60.0190   32.3240   48.5650 C   0  0  0  0  0  0  0  0  0  0  0  0
   59.9370   32.2140   47.1730 C   0  0  0  0  0  0  0  0  0  0  0  0
   56.1270   30.8270   44.1110 C   0  0  0  0  0  0  0  0  0  0  0  0
   55.6130   29.5760   44.4670 C   0  0  0  0  0  0  0  0  0  0  0  0
   56.3700   28.7120   45.2620 C   0  0  0  0  0  0  0  0  0  0  0  0
   55.8850   27.4910   45.6100 N   0  0  0  0  0  0  0  0  0  0  0  0
   58.4822   26.3331   47.4369 H   0  0  0  0  0  0  0  0  0  0  0  0
   59.3320   28.5070   46.8120 H   0  0  0  0  0  0  0  0  0  0  0  0
   59.1567   30.6668   45.6993 H   0  0  0  0  0  0  0  0  0  0  0  0
   58.9070   35.3886   46.4316 H   0  0  0  0  0  0  0  0  0  0  0  0
   59.0613   35.5859   48.9131 H   0  0  0  0  0  0  0  0  0  0  0  0
   59.9703   33.8177   53.2184 H   0  0  0  0  0  0  0  0  0  0  0  0
   58.5357   32.6568   54.9001 H   0  0  0  0  0  0  0  0  0  0  0  0
   56.7317   31.1033   54.1444 H   0  0  0  0  0  0  0  0  0  0  0  0
   56.3666   30.7044   51.7077 H   0  0  0  0  0  0  0  0  0  0  0  0
   57.7945   31.8650   50.0211 H   0  0  0  0  0  0  0  0  0  0  0  0
   60.3475   31.4612   49.1631 H   0  0  0  0  0  0  0  0  0  0  0  0
   60.1930   31.2621   46.6848 H   0  0  0  0  0  0  0  0  0  0  0  0
   55.5306   31.5043   43.4821 H   0  0  0  0  0  0  0  0  0  0  0  0
   54.6137   29.2727   44.1214 H   0  0  0  0  0  0  0  0  0  0  0  0
  1  2  2  0
  2  3  1  0
  3  4  2  0
  4  5  1  0
  5  6  2  0
  6  7  1  0
  7  8  1  0
  8  9  2  0
  8 10  2  0
  8 11  1  0
 11 12  1  0
 12 13  2  0
 13 14  1  0
 14 15  2  0
 15 16  1  0
 16 17  1  0
 17 18  2  0
 18 19  1  0
 19 20  2  0
 20 21  1  0
 21 22  2  0
 15 23  1  0
 23 24  2  0
  7 25  2  0
 25 26  1  0
 26 27  2  0
 27 28  1  0
 28  2  1  0
 27  5  1  0
 24 12  1  0
 22 17  1  0
  3 29  1  0
  4 30  1  0
  6 31  1  0
 13 32  1  0
 14 33  1  0
 18 34  1  0
 19 35  1  0
 20 36  1  0
 21 37  1  0
 22 38  1  0
 23 39  1  0
 24 40  1  0
 25 41  1  0
 26 42  1  0
M  CHG  3   4   1  11  -1  28  -1
M  END
>  <UniqueID>  (44) 
41

>  <SMILES>  (44) 
O=c1c[nH+]c2cc(S(=O)(=O)[N-]c3ccc(Oc4ccccc4)cc3)ccc2[n-]1

>  <Energy>  (44) 
60.2625260363661

>  <Genealogy>  (44) 
O=c1c[nH+]c2cc(S(=O)(=O)[N-]c3ccc(Oc4ccccc4)cc3)ccc2[n-]1 (protonated)
O=c1c[nH+]c2cc(S(=O)(=O)[N-]c3ccc(Oc4ccccc4)cc3)ccc2[n-]1 (3D coordinates assigned)
O=c1c[nH+]c2cc(S(=O)(=O)[N-]c3ccc(Oc4ccccc4)cc3)ccc2[n-]1 (optimized conformer: 60.2625260363661 kcal/mol)

>  <smiles>  (44) 
O=c1cnc2cc(S(=O)(=O)Nc3ccc(Oc4ccccc4)cc3)ccc2[nH]1

>  <score_type>  (44) 
oracle

>  <origin>  (44) 
adg

>  <m_score__min__energy>  (44) 
-9.5899999999999999

>  <m_primary>  (44) 
energy

$$$$
44:0
     RDKit          3D

 30 31  0  0  0  0  0  0  0  0999 V2000
   59.9200   33.8430   50.3880 C   0  0  0  0  0  0  0  0  0  0  0  0
   60.4560   33.8130   48.9840 C   0  0  0  0  0  0  0  0  0  0  0  0
   61.8180   33.6050   48.7480 C   0  0  0  0  0  0  0  0  0  0  0  0
   62.2740   33.5840   47.4500 C   0  0  0  0  0  0  0  0  0  0  0  0
   63.7380   33.3580   47.2530 C   0  0  0  0  0  0  0  0  0  0  0  0
   61.4080   33.7630   46.3780 C   0  0  0  0  0  0  0  0  0  0  0  0
   60.0610   33.9690   46.5980 C   0  0  0  0  0  0  0  0  0  0  0  0
   59.1240   34.1600   45.5400 N   0  0  0  0  0  0  0  0  0  0  0  0
   57.5210   33.6010   45.6040 S   0  0  0  0  0  0  0  0  0  0  0  0
   56.6410   34.5900   44.8740 O   0  0  0  0  0  0  0  0  0  0  0  0
   56.9770   33.4810   46.9840 O   0  0  0  0  0  0  0  0  0  0  0  0
   57.3950   32.1050   44.7050 C   0  0  0  0  0  0  0  0  0  0  0  0
   58.2510   31.5740   43.7650 C   0  0  0  0  0  0  0  0  0  0  0  0
   57.7030   30.4020   43.3710 N   0  0  0  0  0  0  0  0  0  0  0  0
   56.5510   30.2050   44.0340 C   0  0  0  0  0  0  0  0  0  0  0  0
   56.3540   31.2540   44.8610 N   0  0  0  0  0  0  0  0  0  0  0  0
   59.6020   33.9900   47.9120 C   0  0  0  0  0  0  0  0  0  0  0  0
   60.7564   33.7962   51.1009 H   0  0  0  0  0  0  0  0  0  0  0  0
   59.3558   34.7741   50.5453 H   0  0  0  0  0  0  0  0  0  0  0  0
   59.2555   32.9806   50.5453 H   0  0  0  0  0  0  0  0  0  0  0  0
   62.5145   33.4603   49.5870 H   0  0  0  0  0  0  0  0  0  0  0  0
   64.2323   33.2817   48.2327 H   0  0  0  0  0  0  0  0  0  0  0  0
   63.8926   32.4253   46.6906 H   0  0  0  0  0  0  0  0  0  0  0  0
   64.1667   34.2006   46.6906 H   0  0  0  0  0  0  0  0  0  0  0  0
   61.7977   33.7404   45.3496 H   0  0  0  0  0  0  0  0  0  0  0  0
   59.5090   34.6840   44.6990 H   0  0  0  0  0  0  0  0  0  0  0  0
   59.1926   32.0154   43.4064 H   0  0  0  0  0  0  0  0  0  0  0  0
   58.1040   29.7460   42.6630 H   0  0  0  0  0  0  0  0  0  0  0  0
   55.8832   29.3381   43.9222 H   0  0  0  0  0  0  0  0  0  0  0  0
   58.5307   34.1518   48.1022 H   0  0  0  0  0  0  0  0  0  0  0  0
  1  2  1  0
  2  3  2  0
  3  4  1  0
  4  5  1  0
  4  6  2  0
  6  7  1  0
  7  8  1  0
  8  9  1  0
  9 10  2  0
  9 11  2  0
  9 12  1  0
 12 13  2  0
 13 14  1  0
 14 15  1  0
 15 16  2  0
  7 17  2  0
 17  2  1  0
 16 12  1  0
  1 18  1  0
  1 19  1  0
  1 20  1  0
  3 21  1  0
  5 22  1  0
  5 23  1  0
  5 24  1  0
  6 25  1  0
  8 26  1  0
 13 27  1  0
 14 28  1  0
 15 29  1  0
 17 30  1  0
M  END
>  <smiles>  (45) 
Cc1cc(C)cc(NS(=O)(=O)c2c[nH]cn2)c1

>  <score_type>  (45) 
oracle

>  <origin>  (45) 
adg

>  <m_score__min__energy>  (45) 
-6.9800000000000004

>  <m_primary>  (45) 
energy

$$$$
45:0
     RDKit          3D

 44 48  0  0  0  0  0  0  0  0999 V2000
   56.3320   27.1890   45.6340 O   0  0  0  0  0  0  0  0  0  0  0  0
   57.0980   28.1870   45.6190 C   0  0  0  0  0  0  0  0  0  0  0  0
   58.1210   28.2970   46.5170 N   0  0  0  0  0  0  0  0  0  0  0  0
   58.9730   29.3740   46.5050 C   0  0  0  0  0  0  0  0  0  0  0  0
   60.0600   29.4790   47.5250 C   0  0  0  0  0  0  0  0  0  0  0  0
   60.1810   30.8950   47.9970 C   0  0  0  0  0  0  0  0  0  0  0  0
   59.2710   31.5840   48.7940 C   0  0  0  0  0  0  0  0  0  0  0  0
   59.7460   32.8150   49.0960 N   0  0  0  0  0  0  0  0  0  0  0  0
   60.9520   32.9020   48.5080 C   0  0  0  0  0  0  0  0  0  0  0  0
   61.8390   33.9770   48.5560 C   0  0  0  0  0  0  0  0  0  0  0  0
   63.0690   33.8440   47.8840 C   0  0  0  0  0  0  0  0  0  0  0  0
   63.3820   32.6530   47.1930 C   0  0  0  0  0  0  0  0  0  0  0  0
   62.4690   31.5840   47.1640 C   0  0  0  0  0  0  0  0  0  0  0  0
   61.2560   31.7470   47.8330 C   0  0  0  0  0  0  0  0  0  0  0  0
   58.8010   30.3800   45.5910 N   0  0  0  0  0  0  0  0  0  0  0  0
   57.7800   30.2700   44.7070 C   0  0  0  0  0  0  0  0  0  0  0  0
   56.9390   29.2100   44.6950 C   0  0  0  0  0  0  0  0  0  0  0  0
   56.0520   29.3490   43.6940 N   0  0  0  0  0  0  0  0  0  0  0  0
   56.3960   30.5260   43.1100 C   0  0  0  0  0  0  0  0  0  0  0  0
   57.4520   31.1210   43.7220 N   0  0  0  0  0  0  0  0  0  0  0  0
   58.1440   32.3430   43.3200 C   0  0  0  0  0  0  0  0  0  0  0  0
   58.3640   33.2240   44.5190 C   0  0  0  0  0  0  0  0  0  0  0  0
   57.5400   33.1050   45.6500 C   0  0  0  0  0  0  0  0  0  0  0  0
   57.7750   33.8970   46.7780 C   0  0  0  0  0  0  0  0  0  0  0  0
   58.8390   34.8030   46.7880 C   0  0  0  0  0  0  0  0  0  0  0  0
   59.6720   34.9170   45.6720 C   0  0  0  0  0  0  0  0  0  0  0  0
   59.4400   34.1270   44.5410 C   0  0  0  0  0  0  0  0  0  0  0  0
   59.8222   28.8287   48.3797 H   0  0  0  0  0  0  0  0  0  0  0  0
   61.0125   29.1654   47.0728 H   0  0  0  0  0  0  0  0  0  0  0  0
   58.3030   31.1846   49.1307 H   0  0  0  0  0  0  0  0  0  0  0  0
   59.2750   33.5390   49.6820 H   0  0  0  0  0  0  0  0  0  0  0  0
   61.5860   34.8985   49.1009 H   0  0  0  0  0  0  0  0  0  0  0  0
   63.7912   34.6736   47.8973 H   0  0  0  0  0  0  0  0  0  0  0  0
   64.3472   32.5608   46.6735 H   0  0  0  0  0  0  0  0  0  0  0  0
   62.7035   30.6505   46.6316 H   0  0  0  0  0  0  0  0  0  0  0  0
   55.2880   28.6940   43.4150 H   0  0  0  0  0  0  0  0  0  0  0  0
   55.8767   30.9502   42.2380 H   0  0  0  0  0  0  0  0  0  0  0  0
   59.1158   32.0825   42.8754 H   0  0  0  0  0  0  0  0  0  0  0  0
   57.5303   32.8811   42.5825 H   0  0  0  0  0  0  0  0  0  0  0  0
   56.7071   32.3865   45.6484 H   0  0  0  0  0  0  0  0  0  0  0  0
   57.1218   33.8069   47.6584 H   0  0  0  0  0  0  0  0  0  0  0  0
   59.0209   35.4271   47.6754 H   0  0  0  0  0  0  0  0  0  0  0  0
   60.5109   35.6285   45.6827 H   0  0  0  0  0  0  0  0  0  0  0  0
   60.1018   34.2131   43.6666 H   0  0  0  0  0  0  0  0  0  0  0  0
  1  2  2  0
  2  3  1  0
  3  4  1  0
  4  5  1  0
  5  6  1  0
  6  7  2  0
  7  8  1  0
  8  9  1  0
  9 10  2  0
 10 11  1  0
 11 12  2  0
 12 13  1  0
 13 14  2  0
  4 15  2  0
 15 16  1  0
 16 17  2  0
 17 18  1  0
 18 19  2  0
 19 20  1  0
 20 21  1  0
 21 22  1  0
 22 23  2  0
 23 24  1  0
 24 25  2  0
 25 26  1  0
 26 27  2  0
 17  2  1  0
 27 22  1  0
 14  6  1  0
 20 16  1  0
 14  9  1  0
  5 28  1  0
  5 29  1  0
  7 30  1  0
  8 31  1  0
 10 32  1  0
 11 33  1  0
 12 34  1  0
 13 35  1  0
 18 36  1  0
 19 37  1  0
 21 38  1  0
 21 39  1  0
 23 40  1  0
 24 41  1  0
 25 42  1  0
 26 43  1  0
 27 44  1  0
M  CHG  2   3  -1  18   1
M  END
>  <UniqueID>  (46) 
42

>  <SMILES>  (46) 
O=c1[n-]c(Cc2c[nH]c3ccccc23)nc2c1[nH+]cn2Cc1ccccc1

>  <Energy>  (46) 
121.38002176704707

>  <Genealogy>  (46) 
O=c1[n-]c(Cc2c[nH]c3ccccc23)nc2c1[nH+]cn2Cc1ccccc1 (protonated)
O=c1[n-]c(Cc2c[nH]c3ccccc23)nc2c1[nH+]cn2Cc1ccccc1 (3D coordinates assigned)
O=c1[n-]c(Cc2c[nH]c3ccccc23)nc2c1[nH+]cn2Cc1ccccc1 (optimized conformer: 121.38002176704707 kcal/mol)

>  <smiles>  (46) 
O=c1[nH]c(Cc2c[nH]c3ccccc23)nc2c1ncn2Cc1ccccc1

>  <score_type>  (46) 
oracle

>  <origin>  (46) 
adg

>  <m_score__min__energy>  (46) 
-8.7599999999999998

>  <m_primary>  (46) 
energy

$$$$
46:0
     RDKit          3D

 54 57  0  0  0  0  0  0  0  0999 V2000
   60.3590   31.6370   46.4410 C   0  0  0  0  0  0  0  0  0  0  0  0
   59.7870   30.2590   46.3370 C   0  0  0  0  0  0  0  0  0  0  0  0
   60.4180   29.0920   46.7180 C   0  0  0  0  0  0  0  0  0  0  0  0
   59.6450   28.0350   46.4050 N   0  0  0  0  0  0  0  0  0  0  0  0
   60.0210   26.6340   46.5810 C   0  0  0  0  0  0  0  0  0  0  0  0
   58.5240   28.5090   45.8160 C   0  0  0  0  0  0  0  0  0  0  0  0
   57.4840   27.6470   45.2210 C   0  0  0  0  0  0  0  0  0  0  0  0
   57.3960   27.5730   43.9680 O   0  0  0  0  0  0  0  0  0  0  0  0
   56.5480   26.9220   46.0270 N   0  0  0  0  0  0  0  0  0  0  0  0
   56.2930   25.5120   45.9660 C   0  0  0  0  0  0  0  0  0  0  0  0
   57.3390   24.5730   46.0170 C   0  0  0  0  0  0  0  0  0  0  0  0
   57.0670   23.2080   45.8800 C   0  0  0  0  0  0  0  0  0  0  0  0
   55.7560   22.7730   45.6810 C   0  0  0  0  0  0  0  0  0  0  0  0
   54.7130   23.6990   45.6230 C   0  0  0  0  0  0  0  0  0  0  0  0
   54.9810   25.0650   45.7550 C   0  0  0  0  0  0  0  0  0  0  0  0
   53.9610   25.9570   45.6790 F   0  0  0  0  0  0  0  0  0  0  0  0
   58.5760   29.8970   45.7650 C   0  0  0  0  0  0  0  0  0  0  0  0
   57.5000   30.9890   44.8870 S   0  0  0  0  0  0  0  0  0  0  0  0
   56.2330   30.2980   44.4720 O   0  0  0  0  0  0  0  0  0  0  0  0
   58.2050   31.4710   43.6500 O   0  0  0  0  0  0  0  0  0  0  0  0
   57.0890   32.3560   45.8650 N   0  0  0  0  0  0  0  0  0  0  0  0
   57.9700   33.4700   46.0140 C   0  0  0  0  0  0  0  0  0  0  0  0
   58.3730   34.1770   44.8740 C   0  0  0  0  0  0  0  0  0  0  0  0
   59.2600   35.2510   44.9890 C   0  0  0  0  0  0  0  0  0  0  0  0
   59.7590   35.6130   46.2420 C   0  0  0  0  0  0  0  0  0  0  0  0
   59.3770   34.8990   47.3800 C   0  0  0  0  0  0  0  0  0  0  0  0
   58.4850   33.8160   47.2750 C   0  0  0  0  0  0  0  0  0  0  0  0
   58.0750   33.0970   48.4060 O   0  0  0  0  0  0  0  0  0  0  0  0
   58.9240   32.3920   49.2710 C   0  0  0  0  0  0  0  0  0  0  0  0
   58.8620   30.9910   49.3980 C   0  0  0  0  0  0  0  0  0  0  0  0
   59.7130   30.3280   50.2870 C   0  0  0  0  0  0  0  0  0  0  0  0
   60.6240   31.0540   51.0600 C   0  0  0  0  0  0  0  0  0  0  0  0
   60.6760   32.4460   50.9520 C   0  0  0  0  0  0  0  0  0  0  0  0
   59.8240   33.1120   50.0670 C   0  0  0  0  0  0  0  0  0  0  0  0
   60.4716   31.9082   47.5011 H   0  0  0  0  0  0  0  0  0  0  0  0
   61.3426   31.6638   45.9492 H   0  0  0  0  0  0  0  0  0  0  0  0
   59.6835   32.3525   45.9492 H   0  0  0  0  0  0  0  0  0  0  0  0
   61.4032   29.0343   47.2038 H   0  0  0  0  0  0  0  0  0  0  0  0
   60.0830   26.4031   47.6547 H   0  0  0  0  0  0  0  0  0  0  0  0
   59.2641   25.9893   46.1104 H   0  0  0  0  0  0  0  0  0  0  0  0
   60.9990   26.4549   46.1104 H   0  0  0  0  0  0  0  0  0  0  0  0
   58.3745   24.9134   46.1651 H   0  0  0  0  0  0  0  0  0  0  0  0
   57.8872   22.4766   45.9292 H   0  0  0  0  0  0  0  0  0  0  0  0
   55.5443   21.6993   45.5697 H   0  0  0  0  0  0  0  0  0  0  0  0
   53.6794   23.3538   45.4733 H   0  0  0  0  0  0  0  0  0  0  0  0
   57.9901   33.8859   43.8847 H   0  0  0  0  0  0  0  0  0  0  0  0
   59.5650   35.8110   44.0927 H   0  0  0  0  0  0  0  0  0  0  0  0
   60.4535   36.4612   46.3328 H   0  0  0  0  0  0  0  0  0  0  0  0
   59.7760   35.1851   48.3644 H   0  0  0  0  0  0  0  0  0  0  0  0
   58.1421   30.4169   48.7962 H   0  0  0  0  0  0  0  0  0  0  0  0
   59.6658   29.2328   50.3785 H   0  0  0  0  0  0  0  0  0  0  0  0
   61.2991   30.5299   51.7525 H   0  0  0  0  0  0  0  0  0  0  0  0
   61.3884   33.0183   51.5643 H   0  0  0  0  0  0  0  0  0  0  0  0
   59.8603   34.2090   49.9950 H   0  0  0  0  0  0  0  0  0  0  0  0
  1  2  1  0
  2  3  2  0
  3  4  1  0
  4  5  1  0
  4  6  1  0
  6  7  1  0
  7  8  2  0
  7  9  1  0
  9 10  1  0
 10 11  2  0
 11 12  1  0
 12 13  2  0
 13 14  1  0
 14 15  2  0
 15 16  1  0
  6 17  2  0
 17 18  1  0
 18 19  2  0
 18 20  2  0
 18 21  1  0
 21 22  1  0
 22 23  2  0
 23 24  1  0
 24 25  2  0
 25 26  1  0
 26 27  2  0
 27 28  1  0
 28 29  1  0
 29 30  2  0
 30 31  1  0
 31 32  2  0
 32 33  1  0
 33 34  2  0
 17  2  1  0
 27 22  1  0
 34 29  1  0
 15 10  1  0
  1 35  1  0
  1 36  1  0
  1 37  1  0
  3 38  1  0
  5 39  1  0
  5 40  1  0
  5 41  1  0
 11 42  1  0
 12 43  1  0
 13 44  1  0
 14 45  1  0
 23 46  1  0
 24 47  1  0
 25 48  1  0
 26 49  1  0
 30 50  1  0
 31 51  1  0
 32 52  1  0
 33 53  1  0
 34 54  1  0
M  CHG  2   9  -1  21  -1
M  END
>  <UniqueID>  (47) 
43

>  <SMILES>  (47) 
Cc1cn(C)c(C(=O)[N-]c2ccccc2F)c1S(=O)(=O)[N-]c1ccccc1Oc1ccccc1

>  <Energy>  (47) 
101.60898887046959

>  <Genealogy>  (47) 
Cc1cn(C)c(C(=O)[N-]c2ccccc2F)c1S(=O)(=O)[N-]c1ccccc1Oc1ccccc1 (protonated)
Cc1cn(C)c(C(=O)[N-]c2ccccc2F)c1S(=O)(=O)[N-]c1ccccc1Oc1ccccc1 (3D coordinates assigned)
Cc1cn(C)c(C(=O)[N-]c2ccccc2F)c1S(=O)(=O)[N-]c1ccccc1Oc1ccccc1 (optimized conformer: 101.60898887046959 kcal/mol)

>  <smiles>  (47) 
Cc1cn(C)c(C(=O)Nc2ccccc2F)c1S(=O)(=O)Nc1ccccc1Oc1ccccc1

>  <score_type>  (47) 
oracle

>  <origin>  (47) 
adg

>  <m_score__min__energy>  (47) 
-12.01

>  <m_primary>  (47) 
energy

$$$$
47:0
     RDKit          3D

 51 53  0  0  0  0  0  0  0  0999 V2000
   66.2100   30.8620   51.1940 C   0  0  0  0  0  0  0  0  0  0  0  0
   64.7000   31.0050   51.3640 C   0  0  0  0  0  0  0  0  0  0  0  0
   64.2780   32.4820   51.3500 C   0  0  0  0  0  0  0  0  0  0  0  0
   64.4740   33.1260   49.9980 C   0  0  0  0  0  0  0  0  0  0  0  0
   65.6390   33.4470   49.6320 O   0  0  0  0  0  0  0  0  0  0  0  0
   63.3480   33.4400   49.1500 N   0  0  0  0  0  0  0  0  0  0  0  0
   61.9930   33.5240   49.7240 C   0  0  0  0  0  0  0  0  0  0  0  0
   61.0010   34.1400   48.7360 C   0  0  0  0  0  0  0  0  0  0  0  0
   61.1370   33.4810   47.4320 N   0  0  0  0  0  0  0  0  0  0  0  0
   59.9920   32.9130   46.7710 C   0  0  0  0  0  0  0  0  0  0  0  0
   59.5030   33.4800   45.5830 C   0  0  0  0  0  0  0  0  0  0  0  0
   58.3790   32.9390   44.9510 C   0  0  0  0  0  0  0  0  0  0  0  0
   57.7160   31.8380   45.5050 C   0  0  0  0  0  0  0  0  0  0  0  0
   56.5700   31.3050   44.8260 N   0  0  0  0  0  0  0  0  0  0  0  0
   56.3900   29.9450   44.4070 C   0  0  0  0  0  0  0  0  0  0  0  0
   55.3630   29.6520   43.7400 O   0  0  0  0  0  0  0  0  0  0  0  0
   57.3390   28.8720   44.7960 C   0  0  0  0  0  0  0  0  0  0  0  0
   58.7180   29.0430   44.5820 C   0  0  0  0  0  0  0  0  0  0  0  0
   59.6220   28.0410   44.9470 C   0  0  0  0  0  0  0  0  0  0  0  0
   59.1610   26.8590   45.5380 C   0  0  0  0  0  0  0  0  0  0  0  0
   60.0530   25.8540   45.9050 O   0  0  0  0  0  0  0  0  0  0  0  0
   57.7940   26.6850   45.7660 C   0  0  0  0  0  0  0  0  0  0  0  0
   56.8820   27.6820   45.4000 C   0  0  0  0  0  0  0  0  0  0  0  0
   55.5260   27.4720   45.6250 O   0  0  0  0  0  0  0  0  0  0  0  0
   58.2160   31.2550   46.6820 C   0  0  0  0  0  0  0  0  0  0  0  0
   59.3380   31.7960   47.3160 C   0  0  0  0  0  0  0  0  0  0  0  0
   62.4720   33.3180   46.8360 C   0  0  0  0  0  0  0  0  0  0  0  0
   63.5790   33.8550   47.7550 C   0  0  0  0  0  0  0  0  0  0  0  0
   66.6878   30.8168   52.1838 H   0  0  0  0  0  0  0  0  0  0  0  0
   66.4306   29.9389   50.6378 H   0  0  0  0  0  0  0  0  0  0  0  0
   66.5999   31.7272   50.6378 H   0  0  0  0  0  0  0  0  0  0  0  0
   64.1946   30.4794   50.5404 H   0  0  0  0  0  0  0  0  0  0  0  0
   64.4154   30.5701   52.3334 H   0  0  0  0  0  0  0  0  0  0  0  0
   63.2140   32.5476   51.6212 H   0  0  0  0  0  0  0  0  0  0  0  0
   64.9126   33.0181   52.0711 H   0  0  0  0  0  0  0  0  0  0  0  0
   61.6531   32.5114   49.9868 H   0  0  0  0  0  0  0  0  0  0  0  0
   62.0358   34.1673   50.6153 H   0  0  0  0  0  0  0  0  0  0  0  0
   59.9762   34.0024   49.1114 H   0  0  0  0  0  0  0  0  0  0  0  0
   61.2104   35.2144   48.6277 H   0  0  0  0  0  0  0  0  0  0  0  0
   60.0072   34.3550   45.1469 H   0  0  0  0  0  0  0  0  0  0  0  0
   58.0137   33.3816   44.0126 H   0  0  0  0  0  0  0  0  0  0  0  0
   59.0883   29.9720   44.1240 H   0  0  0  0  0  0  0  0  0  0  0  0
   60.6984   28.1819   44.7693 H   0  0  0  0  0  0  0  0  0  0  0  0
   61.0270   26.0560   46.1020 H   0  0  0  0  0  0  0  0  0  0  0  0
   57.4318   25.7588   46.2361 H   0  0  0  0  0  0  0  0  0  0  0  0
   57.7219   30.3686   47.1063 H   0  0  0  0  0  0  0  0  0  0  0  0
   59.7109   31.3443   48.2471 H   0  0  0  0  0  0  0  0  0  0  0  0
   62.6508   32.2485   46.6513 H   0  0  0  0  0  0  0  0  0  0  0  0
   62.4991   33.8923   45.8982 H   0  0  0  0  0  0  0  0  0  0  0  0
   64.5497   33.4623   47.4179 H   0  0  0  0  0  0  0  0  0  0  0  0
   63.5736   34.9540   47.7085 H   0  0  0  0  0  0  0  0  0  0  0  0
  1  2  1  0
  2  3  1  0
  3  4  1  0
  4  5  2  0
  4  6  1  0
  6  7  1  0
  7  8  1  0
  8  9  1  0
  9 10  1  0
 10 11  2  0
 11 12  1  0
 12 13  2  0
 13 14  1  0
 14 15  1  0
 15 16  2  0
 15 17  1  0
 17 18  2  0
 18 19  1  0
 19 20  2  0
 20 21  1  0
 20 22  1  0
 22 23  2  0
 23 24  1  0
 13 25  1  0
 25 26  2  0
  9 27  1  0
 27 28  1  0
 28  6  1  0
 26 10  1  0
 23 17  1  0
  1 29  1  0
  1 30  1  0
  1 31  1  0
  2 32  1  0
  2 33  1  0
  3 34  1  0
  3 35  1  0
  7 36  1  0
  7 37  1  0
  8 38  1  0
  8 39  1  0
 11 40  1  0
 12 41  1  0
 18 42  1  0
 19 43  1  0
 21 44  1  0
 22 45  1  0
 25 46  1  0
 26 47  1  0
 27 48  1  0
 27 49  1  0
 28 50  1  0
 28 51  1  0
M  CHG  2  14  -1  24  -1
M  END
>  <UniqueID>  (48) 
44

>  <SMILES>  (48) 
CCCC(=O)N1CCN(c2ccc([N-]C(=O)c3ccc(O)cc3[O-])cc2)CC1

>  <Energy>  (48) 
60.46462938193376

>  <Genealogy>  (48) 
CCCC(=O)N1CCN(c2ccc([N-]C(=O)c3ccc(O)cc3[O-])cc2)CC1 (protonated)
CCCC(=O)N1CCN(c2ccc([N-]C(=O)c3ccc(O)cc3[O-])cc2)CC1 (3D coordinates assigned)
CCCC(=O)N1CCN(c2ccc([N-]C(=O)c3ccc(O)cc3[O-])cc2)CC1 (nonaromatic ring conformer: 60.46462938193376 kcal/mol)

>  <smiles>  (48) 
CCCC(=O)N1CCN(c2ccc(NC(=O)c3ccc(O)cc3O)cc2)CC1

>  <score_type>  (48) 
oracle

>  <origin>  (48) 
adg

>  <m_score__min__energy>  (48) 
-13.01

>  <m_primary>  (48) 
energy

$$$$
48:0
     RDKit          3D

 33 34  0  0  1  0  0  0  0  0999 V2000
   55.8370   23.6040   43.8280 C   0  0  0  0  0  0  0  0  0  0  0  0
   55.1360   23.7610   44.9400 C   0  0  0  0  0  0  0  0  0  0  0  0
   55.0700   25.0330   45.6620 C   0  0  0  0  0  0  0  0  0  0  0  0
   54.0160   25.7540   45.6500 O   0  0  0  0  0  0  0  0  0  0  0  0
   56.2370   25.4340   46.3830 N   0  0  0  0  0  0  0  0  0  0  0  0
   56.8600   26.5290   46.1720 C   0  0  0  0  0  0  0  0  0  0  0  0
   58.1540   26.6310   46.4880 N   0  0  0  0  0  0  0  0  0  0  0  0
   58.8130   27.7850   46.2660 C   0  0  0  0  0  0  0  0  0  0  0  0
   58.1220   28.8390   45.7110 C   0  0  0  0  0  0  0  0  0  0  0  0
   56.7880   28.7300   45.3850 C   0  0  0  0  0  0  0  0  0  0  0  0
   56.1750   29.7390   44.8660 N   0  0  0  0  0  0  0  0  0  0  0  0
   56.8120   30.7330   44.0750 C   0  0  0  0  0  0  0  0  0  0  0  0
   56.7980   30.6970   42.6840 C   0  0  0  0  0  0  0  0  0  0  0  0
   57.4220   31.6700   41.9170 C   0  0  0  0  0  0  0  0  0  0  0  0
   58.0770   32.7050   42.5530 C   0  0  0  0  0  0  0  0  0  0  0  0
   58.1060   32.7660   43.9280 C   0  0  0  0  0  0  0  0  0  0  0  0
   58.8340   33.9160   44.5330 C   0  0  0  0  0  0  0  0  0  0  0  0
   57.4830   31.7940   44.6930 C   0  0  0  0  0  0  0  0  0  0  0  0
   56.1660   27.5450   45.6270 N   0  0  0  0  0  0  0  0  0  0  0  0
   55.8547   22.6273   43.3223 H   0  0  0  0  0  0  0  0  0  0  0  0
   56.4017   24.4502   43.4098 H   0  0  0  0  0  0  0  0  0  0  0  0
   54.5798   22.8996   45.3382 H   0  0  0  0  0  0  0  0  0  0  0  0
   58.6490   25.7930   46.9150 H   0  0  0  0  0  0  0  0  0  0  0  0
   59.8783   27.8830   46.5221 H   0  0  0  0  0  0  0  0  0  0  0  0
   58.6462   29.7878   45.5241 H   0  0  0  0  0  0  0  0  0  0  0  0
   56.2762   29.8719   42.1772 H   0  0  0  0  0  0  0  0  0  0  0  0
   57.3952   31.6174   40.8186 H   0  0  0  0  0  0  0  0  0  0  0  0
   58.5776   33.4839   41.9592 H   0  0  0  0  0  0  0  0  0  0  0  0
   58.7879   33.8432   45.6296 H   0  0  0  0  0  0  0  0  0  0  0  0
   59.8847   33.8967   44.2081 H   0  0  0  0  0  0  0  0  0  0  0  0
   58.3670   34.8575   44.2081 H   0  0  0  0  0  0  0  0  0  0  0  0
   57.5158   31.8563   45.7907 H   0  0  0  0  0  0  0  0  0  0  0  0
   55.1430   27.4700   45.3750 H   0  0  0  0  0  0  0  0  0  0  0  0
  1  2  2  0
  2  3  1  0
  3  4  2  0
  3  5  1  0
  5  6  2  0
  6  7  1  0
  7  8  1  0
  8  9  2  0
  9 10  1  0
 10 11  2  0
 11 12  1  0
 12 13  2  0
 13 14  1  0
 14 15  2  0
 15 16  1  0
 16 17  1  0
 16 18  2  0
 10 19  1  0
 19  6  1  0
 18 12  1  0
  1 20  1  0
  1 21  1  0
  2 22  1  0
  7 23  1  0
  8 24  1  0
  9 25  1  0
 13 26  1  0
 14 27  1  0
 15 28  1  0
 17 29  1  0
 17 30  1  0
 17 31  1  0
 18 32  1  0
 19 33  1  0
M  END
>  <smiles>  (49) 
C=CC(=O)N=c1[nH]ccc(=Nc2cccc(C)c2)[nH]1

>  <score_type>  (49) 
oracle

>  <origin>  (49) 
adg

>  <m_score__min__energy>  (49) 
-7.6799999999999997

>  <m_primary>  (49) 
energy

$$$$
49:0
     RDKit          3D

 34 36  0  0  0  0  0  0  0  0999 V2000
   56.9280   25.5900   46.8310 O   0  0  0  0  0  0  0  0  0  0  0  0
   56.4860   26.6250   46.2920 N   0  0  0  0  0  0  0  0  0  0  0  0
   55.1480   26.7100   45.9860 O   0  0  0  0  0  0  0  0  0  0  0  0
   57.3580   27.7180   45.9960 C   0  0  0  0  0  0  0  0  0  0  0  0
   57.0830   28.7590   45.1390 C   0  0  0  0  0  0  0  0  0  0  0  0
   58.1560   29.5710   45.1300 N   0  0  0  0  0  0  0  0  0  0  0  0
   58.2780   30.8130   44.3640 C   0  0  0  0  0  0  0  0  0  0  0  0
   56.9320   31.9750   44.7910 S   0  0  0  0  0  0  0  0  0  0  0  0
   58.0350   33.2710   45.3900 C   0  0  0  0  0  0  0  0  0  0  0  0
   58.4100   34.2800   44.4930 C   0  0  0  0  0  0  0  0  0  0  0  0
   59.2700   35.3020   44.8920 C   0  0  0  0  0  0  0  0  0  0  0  0
   59.7620   35.3370   46.1960 C   0  0  0  0  0  0  0  0  0  0  0  0
   59.3930   34.3460   47.1170 C   0  0  0  0  0  0  0  0  0  0  0  0
   59.8900   34.3850   48.4290 C   0  0  0  0  0  0  0  0  0  0  0  0
   59.5270   33.3980   49.3470 C   0  0  0  0  0  0  0  0  0  0  0  0
   58.6680   32.3670   48.9660 C   0  0  0  0  0  0  0  0  0  0  0  0
   58.1640   32.3140   47.6640 C   0  0  0  0  0  0  0  0  0  0  0  0
   58.5180   33.3000   46.7200 C   0  0  0  0  0  0  0  0  0  0  0  0
   59.0420   29.0110   45.9910 C   0  0  0  0  0  0  0  0  0  0  0  0
   60.3830   29.5910   46.3400 C   0  0  0  0  0  0  0  0  0  0  0  0
   61.3160   29.2100   45.3950 F   0  0  0  0  0  0  0  0  0  0  0  0
   60.7800   29.1440   47.5860 F   0  0  0  0  0  0  0  0  0  0  0  0
   60.3130   30.9720   46.3660 F   0  0  0  0  0  0  0  0  0  0  0  0
   58.5810   27.8640   46.5400 N   0  0  0  0  0  0  0  0  0  0  0  0
   56.1551   28.9014   44.5657 H   0  0  0  0  0  0  0  0  0  0  0  0
   59.2460   31.2833   44.5915 H   0  0  0  0  0  0  0  0  0  0  0  0
   58.2105   30.5741   43.2924 H   0  0  0  0  0  0  0  0  0  0  0  0
   58.0220   34.2655   43.4638 H   0  0  0  0  0  0  0  0  0  0  0  0
   59.5615   36.0838   44.1752 H   0  0  0  0  0  0  0  0  0  0  0  0
   60.4422   36.1450   46.5035 H   0  0  0  0  0  0  0  0  0  0  0  0
   60.5676   35.1958   48.7348 H   0  0  0  0  0  0  0  0  0  0  0  0
   59.9195   33.4333   50.3740 H   0  0  0  0  0  0  0  0  0  0  0  0
   58.3861   31.5921   49.6941 H   0  0  0  0  0  0  0  0  0  0  0  0
   57.4865   31.4976   47.3733 H   0  0  0  0  0  0  0  0  0  0  0  0
  1  2  2  0
  2  3  1  0
  2  4  1  0
  4  5  2  0
  5  6  1  0
  6  7  1  0
  7  8  1  0
  8  9  1  0
  9 10  2  0
 10 11  1  0
 11 12  2  0
 12 13  1  0
 13 14  2  0
 14 15  1  0
 15 16  2  0
 16 17  1  0
 17 18  2  0
  6 19  1  0
 19 20  1  0
 20 21  1  0
 20 22  1  0
 20 23  1  0
 19 24  2  0
 24  4  1  0
 18  9  1  0
 18 13  1  0
  5 25  1  0
  7 26  1  0
  7 27  1  0
 10 28  1  0
 11 29  1  0
 12 30  1  0
 14 31  1  0
 15 32  1  0
 16 33  1  0
 17 34  1  0
M  CHG  2   2   1   3  -1
M  END
>  <UniqueID>  (50) 
45

>  <SMILES>  (50) 
O=[N+]([O-])c1cn(CSc2cccc3ccccc23)c(C(F)(F)F)n1

>  <Energy>  (50) 
64.41511086211068

>  <Genealogy>  (50) 
O=[N+]([O-])c1cn(CSc2cccc3ccccc23)c(C(F)(F)F)n1 (3D coordinates assigned)
O=[N+]([O-])c1cn(CSc2cccc3ccccc23)c(C(F)(F)F)n1 (optimized conformer: 64.41511086211068 kcal/mol)

>  <smiles>  (50) 
O=[N+]([O-])c1cn(CSc2cccc3ccccc23)c(C(F)(F)F)n1

>  <score_type>  (50) 
oracle

>  <origin>  (50) 
adg

>  <m_score__min__energy>  (50) 
-8.0899999999999999

>  <m_primary>  (50) 
energy

$$$$
50:0
     RDKit          3D

 47 49  0  0  0  0  0  0  0  0999 V2000
   64.1290   33.1690   48.3560 C   0  0  0  0  0  0  0  0  0  0  0  0
   62.6330   33.5810   49.2260 S   0  0  0  0  0  0  0  0  0  0  0  0
   62.7690   34.9460   49.8430 O   0  0  0  0  0  0  0  0  0  0  0  0
   62.3970   32.5770   50.3200 O   0  0  0  0  0  0  0  0  0  0  0  0
   61.2800   33.5700   48.1010 C   0  0  0  0  0  0  0  0  0  0  0  0
   60.3820   34.6450   48.0640 C   0  0  0  0  0  0  0  0  0  0  0  0
   59.3000   34.6270   47.1800 C   0  0  0  0  0  0  0  0  0  0  0  0
   59.1060   33.5410   46.3180 C   0  0  0  0  0  0  0  0  0  0  0  0
   57.9980   33.5550   45.4560 O   0  0  0  0  0  0  0  0  0  0  0  0
   57.6830   32.5570   44.5220 C   0  0  0  0  0  0  0  0  0  0  0  0
   57.7680   32.7810   43.1370 C   0  0  0  0  0  0  0  0  0  0  0  0
   57.4100   31.7740   42.2390 C   0  0  0  0  0  0  0  0  0  0  0  0
   56.9640   30.5380   42.7120 C   0  0  0  0  0  0  0  0  0  0  0  0
   56.8810   30.2950   44.0910 C   0  0  0  0  0  0  0  0  0  0  0  0
   56.3890   29.0250   44.5510 N   0  0  0  0  0  0  0  0  0  0  0  0
   57.0080   28.2510   45.5950 C   0  0  0  0  0  0  0  0  0  0  0  0
   58.0030   28.7020   46.2230 O   0  0  0  0  0  0  0  0  0  0  0  0
   56.4880   26.9680   45.9650 N   0  0  0  0  0  0  0  0  0  0  0  0
   57.0920   25.7020   45.6710 C   0  0  0  0  0  0  0  0  0  0  0  0
   58.3120   25.3180   46.2510 C   0  0  0  0  0  0  0  0  0  0  0  0
   58.8510   24.0580   45.9840 C   0  0  0  0  0  0  0  0  0  0  0  0
   58.1770   23.1690   45.1440 C   0  0  0  0  0  0  0  0  0  0  0  0
   56.9550   23.5360   44.5540 C   0  0  0  0  0  0  0  0  0  0  0  0
   56.1910   22.5570   43.6990 C   0  0  0  0  0  0  0  0  0  0  0  0
   55.7330   21.5220   44.4920 F   0  0  0  0  0  0  0  0  0  0  0  0
   57.0010   22.0380   42.7040 F   0  0  0  0  0  0  0  0  0  0  0  0
   55.1100   23.1770   43.0970 F   0  0  0  0  0  0  0  0  0  0  0  0
   56.4050   24.7970   44.8510 C   0  0  0  0  0  0  0  0  0  0  0  0
   57.2180   31.3220   44.9910 C   0  0  0  0  0  0  0  0  0  0  0  0
   59.9910   32.4500   46.3770 C   0  0  0  0  0  0  0  0  0  0  0  0
   61.0730   32.4670   47.2620 C   0  0  0  0  0  0  0  0  0  0  0  0
   64.9263   32.9494   49.0813 H   0  0  0  0  0  0  0  0  0  0  0  0
   63.9544   32.2855   47.7244 H   0  0  0  0  0  0  0  0  0  0  0  0
   64.4313   34.0173   47.7244 H   0  0  0  0  0  0  0  0  0  0  0  0
   60.5293   35.5057   48.7329 H   0  0  0  0  0  0  0  0  0  0  0  0
   58.5958   35.4719   47.1612 H   0  0  0  0  0  0  0  0  0  0  0  0
   58.1178   33.7531   42.7594 H   0  0  0  0  0  0  0  0  0  0  0  0
   57.4794   31.9545   41.1561 H   0  0  0  0  0  0  0  0  0  0  0  0
   56.6763   29.7509   41.9994 H   0  0  0  0  0  0  0  0  0  0  0  0
   55.5800   28.6110   44.0370 H   0  0  0  0  0  0  0  0  0  0  0  0
   58.8446   26.0121   46.9177 H   0  0  0  0  0  0  0  0  0  0  0  0
   59.8096   23.7646   46.4368 H   0  0  0  0  0  0  0  0  0  0  0  0
   58.6048   22.1758   44.9429 H   0  0  0  0  0  0  0  0  0  0  0  0
   55.4254   25.0751   44.4350 H   0  0  0  0  0  0  0  0  0  0  0  0
   57.1154   31.1536   46.0732 H   0  0  0  0  0  0  0  0  0  0  0  0
   59.8313   31.5794   45.7240 H   0  0  0  0  0  0  0  0  0  0  0  0
   61.7640   31.6119   47.2998 H   0  0  0  0  0  0  0  0  0  0  0  0
  1  2  1  0
  2  3  2  0
  2  4  2  0
  2  5  1  0
  5  6  2  0
  6  7  1  0
  7  8  2  0
  8  9  1  0
  9 10  1  0
 10 11  2  0
 11 12  1  0
 12 13  2  0
 13 14  1  0
 14 15  1  0
 15 16  1  0
 16 17  2  0
 16 18  1  0
 18 19  1  0
 19 20  2  0
 20 21  1  0
 21 22  2  0
 22 23  1  0
 23 24  1  0
 24 25  1  0
 24 26  1  0
 24 27  1  0
 23 28  2  0
 14 29  2  0
  8 30  1  0
 30 31  2  0
 31  5  1  0
 29 10  1  0
 28 19  1  0
  1 32  1  0
  1 33  1  0
  1 34  1  0
  6 35  1  0
  7 36  1  0
 11 37  1  0
 12 38  1  0
 13 39  1  0
 15 40  1  0
 20 41  1  0
 21 42  1  0
 22 43  1  0
 28 44  1  0
 29 45  1  0
 30 46  1  0
 31 47  1  0
M  CHG  1  18  -1
M  END
>  <UniqueID>  (51) 
46

>  <SMILES>  (51) 
CS(=O)(=O)c1ccc(Oc2cccc(NC(=O)[N-]c3cccc(C(F)(F)F)c3)c2)cc1

>  <Energy>  (51) 
62.17190119065069

>  <Genealogy>  (51) 
CS(=O)(=O)c1ccc(Oc2cccc(NC(=O)[N-]c3cccc(C(F)(F)F)c3)c2)cc1 (protonated)
CS(=O)(=O)c1ccc(Oc2cccc(NC(=O)[N-]c3cccc(C(F)(F)F)c3)c2)cc1 (3D coordinates assigned)
CS(=O)(=O)c1ccc(Oc2cccc(NC(=O)[N-]c3cccc(C(F)(F)F)c3)c2)cc1 (optimized conformer: 62.17190119065069 kcal/mol)

>  <smiles>  (51) 
CS(=O)(=O)c1ccc(Oc2cccc(NC(=O)Nc3cccc(C(F)(F)F)c3)c2)cc1

>  <score_type>  (51) 
oracle

>  <origin>  (51) 
adg

>  <m_score__min__energy>  (51) 
-10.07

>  <m_primary>  (51) 
energy

$$$$
51:0
     RDKit          3D

 62 65  0  0  0  0  0  0  0  0999 V2000
   57.3930   32.0070   42.1290 C   0  0  0  0  0  0  0  0  0  0  0  0
   57.3640   31.3970   43.4590 N   0  0  0  0  0  0  0  0  0  0  0  0
   58.0570   32.0180   44.5600 C   0  0  0  0  0  0  0  0  0  0  0  0
   57.8160   33.3640   44.8910 C   0  0  0  0  0  0  0  0  0  0  0  0
   58.4950   33.9670   45.9520 C   0  0  0  0  0  0  0  0  0  0  0  0
   59.4320   33.2410   46.7070 C   0  0  0  0  0  0  0  0  0  0  0  0
   60.1650   33.8670   47.8320 C   0  0  0  0  0  0  0  0  0  0  0  0
   59.5480   34.6350   48.6210 O   0  0  0  0  0  0  0  0  0  0  0  0
   61.5570   33.5930   48.0560 N   0  0  0  0  0  0  0  0  0  0  0  0
   62.3040   34.2690   49.1170 C   0  0  0  0  0  0  0  0  0  0  0  0
   63.2430   33.3070   49.8080 C   0  0  0  0  0  0  0  0  0  0  0  0
   64.6280   33.4540   49.6080 C   0  0  0  0  0  0  0  0  0  0  0  0
   65.5300   32.5770   50.2110 C   0  0  0  0  0  0  0  0  0  0  0  0
   65.0650   31.5370   51.0140 C   0  0  0  0  0  0  0  0  0  0  0  0
   63.6940   31.3640   51.2110 C   0  0  0  0  0  0  0  0  0  0  0  0
   62.7670   32.2310   50.6020 C   0  0  0  0  0  0  0  0  0  0  0  0
   61.2920   32.0100   50.8510 C   0  0  0  0  0  0  0  0  0  0  0  0
   60.8670   30.7090   50.3030 N   0  0  0  0  0  0  0  0  0  0  0  0
   59.4250   30.6720   50.0570 C   0  0  0  0  0  0  0  0  0  0  0  0
   59.1970   29.6170   48.9900 C   0  0  0  0  0  0  0  0  0  0  0  0
   60.5220   29.5020   48.2530 C   0  0  0  0  0  0  0  0  0  0  0  0
   61.4880   30.4060   49.0080 C   0  0  0  0  0  0  0  0  0  0  0  0
   59.6560   31.8890   46.3910 C   0  0  0  0  0  0  0  0  0  0  0  0
   58.9780   31.2880   45.3270 C   0  0  0  0  0  0  0  0  0  0  0  0
   56.4800   29.9150   43.6980 S   0  0  0  0  0  0  0  0  0  0  0  0
   55.2320   30.1860   44.4920 O   0  0  0  0  0  0  0  0  0  0  0  0
   56.0690   29.3620   42.3620 O   0  0  0  0  0  0  0  0  0  0  0  0
   57.4780   28.7490   44.5620 C   0  0  0  0  0  0  0  0  0  0  0  0
   58.7980   28.4960   44.1570 C   0  0  0  0  0  0  0  0  0  0  0  0
   59.5800   27.5660   44.8490 C   0  0  0  0  0  0  0  0  0  0  0  0
   59.0490   26.8840   45.9480 C   0  0  0  0  0  0  0  0  0  0  0  0
   59.8080   25.9810   46.6170 F   0  0  0  0  0  0  0  0  0  0  0  0
   57.7350   27.1310   46.3550 C   0  0  0  0  0  0  0  0  0  0  0  0
   56.9510   28.0610   45.6650 C   0  0  0  0  0  0  0  0  0  0  0  0
   57.4450   33.1013   42.2285 H   0  0  0  0  0  0  0  0  0  0  0  0
   58.2750   31.6465   41.5794 H   0  0  0  0  0  0  0  0  0  0  0  0
   56.4808   31.7318   41.5794 H   0  0  0  0  0  0  0  0  0  0  0  0
   57.0865   33.9464   44.3091 H   0  0  0  0  0  0  0  0  0  0  0  0
   58.2945   35.0200   46.1990 H   0  0  0  0  0  0  0  0  0  0  0  0
   62.0310   32.8490   47.4960 H   0  0  0  0  0  0  0  0  0  0  0  0
   62.8884   35.0916   48.6790 H   0  0  0  0  0  0  0  0  0  0  0  0
   61.5903   34.6589   49.8577 H   0  0  0  0  0  0  0  0  0  0  0  0
   65.0031   34.2680   48.9703 H   0  0  0  0  0  0  0  0  0  0  0  0
   66.6107   32.7066   50.0523 H   0  0  0  0  0  0  0  0  0  0  0  0
   65.7795   30.8515   51.4932 H   0  0  0  0  0  0  0  0  0  0  0  0
   63.3345   30.5425   51.8481 H   0  0  0  0  0  0  0  0  0  0  0  0
   61.1009   32.0268   51.9341 H   0  0  0  0  0  0  0  0  0  0  0  0
   60.7228   32.8094   50.3540 H   0  0  0  0  0  0  0  0  0  0  0  0
   58.8890   30.4022   50.9789 H   0  0  0  0  0  0  0  0  0  0  0  0
   59.0516   31.6542   49.7316 H   0  0  0  0  0  0  0  0  0  0  0  0
   58.9269   28.6551   49.4502 H   0  0  0  0  0  0  0  0  0  0  0  0
   58.3727   29.8878   48.3138 H   0  0  0  0  0  0  0  0  0  0  0  0
   60.8797   28.4618   48.2654 H   0  0  0  0  0  0  0  0  0  0  0  0
   60.4284   29.7964   47.1973 H   0  0  0  0  0  0  0  0  0  0  0  0
   62.4476   29.8903   49.1604 H   0  0  0  0  0  0  0  0  0  0  0  0
   61.6872   31.3281   48.4422 H   0  0  0  0  0  0  0  0  0  0  0  0
   60.3700   31.3003   46.9857 H   0  0  0  0  0  0  0  0  0  0  0  0
   59.1683   30.2313   45.0881 H   0  0  0  0  0  0  0  0  0  0  0  0
   59.2185   29.0309   43.2927 H   0  0  0  0  0  0  0  0  0  0  0  0
   60.6140   27.3708   44.5284 H   0  0  0  0  0  0  0  0  0  0  0  0
   57.3171   26.5934   47.2189 H   0  0  0  0  0  0  0  0  0  0  0  0
   55.9174   28.2537   45.9883 H   0  0  0  0  0  0  0  0  0  0  0  0
  1  2  1  0
  2  3  1  0
  3  4  2  0
  4  5  1  0
  5  6  2  0
  6  7  1  0
  7  8  2  0
  7  9  1  0
  9 10  1  0
 10 11  1  0
 11 12  2  0
 12 13  1  0
 13 14  2  0
 14 15  1  0
 15 16  2  0
 16 17  1  0
 17 18  1  0
 18 19  1  0
 19 20  1  0
 20 21  1  0
 21 22  1  0
  6 23  1  0
 23 24  2  0
  2 25  1  0
 25 26  2  0
 25 27  2  0
 25 28  1  0
 28 29  2  0
 29 30  1  0
 30 31  2  0
 31 32  1  0
 31 33  1  0
 33 34  2  0
 24  3  1  0
 34 28  1  0
 16 11  1  0
 22 18  1  0
  1 35  1  0
  1 36  1  0
  1 37  1  0
  4 38  1  0
  5 39  1  0
  9 40  1  0
 10 41  1  0
 10 42  1  0
 12 43  1  0
 13 44  1  0
 14 45  1  0
 15 46  1  0
 17 47  1  0
 17 48  1  0
 19 49  1  0
 19 50  1  0
 20 51  1  0
 20 52  1  0
 21 53  1  0
 21 54  1  0
 22 55  1  0
 22 56  1  0
 23 57  1  0
 24 58  1  0
 29 59  1  0
 30 60  1  0
 33 61  1  0
 34 62  1  0
M  END
>  <UniqueID>  (52) 
47

>  <SMILES>  (52) 
CN(c1ccc(C(=O)NCc2ccccc2CN2CCCC2)cc1)S(=O)(=O)c1ccc(F)cc1

>  <Energy>  (52) 
72.58704888259291

>  <Genealogy>  (52) 
CN(c1ccc(C(=O)NCc2ccccc2CN2CCCC2)cc1)S(=O)(=O)c1ccc(F)cc1 (3D coordinates assigned)
CN(c1ccc(C(=O)NCc2ccccc2CN2CCCC2)cc1)S(=O)(=O)c1ccc(F)cc1 (nonaromatic ring conformer: 72.58704888259291 kcal/mol)

>  <smiles>  (52) 
CN(c1ccc(C(=O)NCc2ccccc2CN2CCCC2)cc1)S(=O)(=O)c1ccc(F)cc1

>  <score_type>  (52) 
oracle

>  <origin>  (52) 
adg

>  <m_score__min__energy>  (52) 
-9.6099999999999994

>  <m_primary>  (52) 
energy

$$$$
52:0
     RDKit          3D

 50 52  0  0  0  0  0  0  0  0999 V2000
   57.9110   32.2360   42.6290 C   0  0  0  0  0  0  0  0  0  0  0  0
   57.0320   31.3080   42.2440 C   0  0  0  0  0  0  0  0  0  0  0  0
   56.4230   30.3610   43.2400 C   0  0  0  0  0  0  0  0  0  0  0  0
   56.6300   30.8330   44.6040 N   0  0  0  0  0  0  0  0  0  0  0  0
   57.4900   30.4910   45.5260 C   0  0  0  0  0  0  0  0  0  0  0  0
   57.9330   29.2120   45.5800 N   0  0  0  0  0  0  0  0  0  0  0  0
   58.7550   29.2110   46.6400 C   0  0  0  0  0  0  0  0  0  0  0  0
   58.8040   30.4380   47.2110 C   0  0  0  0  0  0  0  0  0  0  0  0
   59.5620   30.6290   48.3700 C   0  0  0  0  0  0  0  0  0  0  0  0
   59.5880   31.7480   48.9500 O   0  0  0  0  0  0  0  0  0  0  0  0
   60.2680   29.5610   48.8770 N   0  0  0  0  0  0  0  0  0  0  0  0
   61.0530   29.7240   50.1130 C   0  0  0  0  0  0  0  0  0  0  0  0
   60.1780   28.3170   48.2790 C   0  0  0  0  0  0  0  0  0  0  0  0
   60.7740   27.3280   48.7930 O   0  0  0  0  0  0  0  0  0  0  0  0
   59.4350   28.1400   47.1340 N   0  0  0  0  0  0  0  0  0  0  0  0
   59.3070   26.8170   46.5080 C   0  0  0  0  0  0  0  0  0  0  0  0
   58.0150   31.2940   46.5150 N   0  0  0  0  0  0  0  0  0  0  0  0
   57.7990   32.7120   46.8460 C   0  0  0  0  0  0  0  0  0  0  0  0
   58.3100   33.6250   45.7220 C   0  0  0  0  0  0  0  0  0  0  0  0
   59.2350   34.5860   46.2350 O   0  0  0  0  0  0  0  0  0  0  0  0
   60.3640   34.3010   47.0200 C   0  0  0  0  0  0  0  0  0  0  0  0
   60.3970   34.5080   48.4110 C   0  0  0  0  0  0  0  0  0  0  0  0
   61.5520   34.2190   49.1420 C   0  0  0  0  0  0  0  0  0  0  0  0
   62.6930   33.7090   48.4950 C   0  0  0  0  0  0  0  0  0  0  0  0
   63.8780   33.4060   49.1840 O   0  0  0  0  0  0  0  0  0  0  0  0
   64.2320   32.1040   49.6380 C   0  0  0  0  0  0  0  0  0  0  0  0
   62.6530   33.4920   47.1130 C   0  0  0  0  0  0  0  0  0  0  0  0
   61.4970   33.7820   46.3830 C   0  0  0  0  0  0  0  0  0  0  0  0
   58.3475   32.9214   41.8875 H   0  0  0  0  0  0  0  0  0  0  0  0
   58.1988   32.3153   43.6877 H   0  0  0  0  0  0  0  0  0  0  0  0
   56.7495   31.2353   41.1834 H   0  0  0  0  0  0  0  0  0  0  0  0
   55.3430   30.2814   43.0469 H   0  0  0  0  0  0  0  0  0  0  0  0
   56.9072   29.3793   43.1316 H   0  0  0  0  0  0  0  0  0  0  0  0
   60.3965   29.5877   50.9850 H   0  0  0  0  0  0  0  0  0  0  0  0
   61.8569   28.9736   50.1384 H   0  0  0  0  0  0  0  0  0  0  0  0
   61.4917   30.7324   50.1384 H   0  0  0  0  0  0  0  0  0  0  0  0
   59.2325   26.0470   47.2900 H   0  0  0  0  0  0  0  0  0  0  0  0
   58.4024   26.7932   45.8826 H   0  0  0  0  0  0  0  0  0  0  0  0
   60.1903   26.6202   45.8826 H   0  0  0  0  0  0  0  0  0  0  0  0
   56.7227   32.8875   46.9903 H   0  0  0  0  0  0  0  0  0  0  0  0
   58.3550   32.9451   47.7661 H   0  0  0  0  0  0  0  0  0  0  0  0
   58.8117   33.0122   44.9586 H   0  0  0  0  0  0  0  0  0  0  0  0
   57.4542   34.1572   45.2812 H   0  0  0  0  0  0  0  0  0  0  0  0
   59.5078   34.8999   48.9264 H   0  0  0  0  0  0  0  0  0  0  0  0
   61.5696   34.3909   50.2283 H   0  0  0  0  0  0  0  0  0  0  0  0
   64.2364   32.0878   50.7379 H   0  0  0  0  0  0  0  0  0  0  0  0
   63.4999   31.3734   49.2635 H   0  0  0  0  0  0  0  0  0  0  0  0
   65.2333   31.8447   49.2635 H   0  0  0  0  0  0  0  0  0  0  0  0
   63.5378   33.0903   46.5976 H   0  0  0  0  0  0  0  0  0  0  0  0
   61.4775   33.6007   45.2982 H   0  0  0  0  0  0  0  0  0  0  0  0
  1  2  2  0
  2  3  1  0
  3  4  1  0
  4  5  2  3
  5  6  1  0
  6  7  1  0
  7  8  2  0
  8  9  1  0
  9 10  2  0
  9 11  1  0
 11 12  1  0
 11 13  1  0
 13 14  2  0
 13 15  1  0
 15 16  1  0
  8 17  1  0
 17 18  1  0
 18 19  1  0
 19 20  1  0
 20 21  1  0
 21 22  2  0
 22 23  1  0
 23 24  2  0
 24 25  1  0
 25 26  1  0
 24 27  1  0
 27 28  2  0
 17  5  1  0
 28 21  1  0
 15  7  1  0
  1 29  1  0
  1 30  1  0
  2 31  1  0
  3 32  1  0
  3 33  1  0
 12 34  1  0
 12 35  1  0
 12 36  1  0
 16 37  1  0
 16 38  1  0
 16 39  1  0
 18 40  1  0
 18 41  1  0
 19 42  1  0
 19 43  1  0
 22 44  1  0
 23 45  1  0
 26 46  1  0
 26 47  1  0
 26 48  1  0
 27 49  1  0
 28 50  1  0
M  CHG  1   6  -1
M  END
>  <UniqueID>  (53) 
48

>  <SMILES>  (53) 
C=CCN=c1[n-]c2c(c(=O)n(C)c(=O)n2C)n1CCOc1ccc(OC)cc1

>  <Energy>  (53) 
101.93609941107644

>  <Genealogy>  (53) 
C=CCN=c1[n-]c2c(c(=O)n(C)c(=O)n2C)n1CCOc1ccc(OC)cc1 (protonated)
C=CCN=c1[n-]c2c(c(=O)n(C)c(=O)n2C)n1CCOc1ccc(OC)cc1 (3D coordinates assigned)
C=CCN=c1[n-]c2c(c(=O)n(C)c(=O)n2C)n1CCOc1ccc(OC)cc1 (optimized conformer: 101.93609941107644 kcal/mol)

>  <smiles>  (53) 
C=CCN=c1[nH]c2c(c(=O)n(C)c(=O)n2C)n1CCOc1ccc(OC)cc1

>  <score_type>  (53) 
oracle

>  <origin>  (53) 
adg

>  <m_score__min__energy>  (53) 
-8.7200000000000006

>  <m_primary>  (53) 
energy

$$$$
53:0
     RDKit          3D

 99102  0  0  0  0  0  0  0  0999 V2000
   58.8720   30.3800   48.2020 C   0  0  0  0  0  0  0  0  0  0  0  0
   58.7760   30.8610   49.6140 C   0  0  0  0  0  0  0  0  0  0  0  0
   58.5390   30.0500   50.6680 N   0  0  0  0  0  0  0  0  0  0  0  0
   58.5400   30.7990   51.7610 N   0  0  0  0  0  0  0  0  0  0  0  0
   58.3070   30.2720   53.1060 C   0  0  0  0  0  0  0  0  0  0  0  0
   56.7990   30.1320   53.3960 C   0  0  0  0  0  0  0  0  0  0  0  0
   56.3540   28.6780   53.1990 C   0  0  0  0  0  0  0  0  0  0  0  0
   55.9630   31.0690   52.5110 C   0  0  0  0  0  0  0  0  0  0  0  0
   58.7640   32.0850   51.4210 C   0  0  0  0  0  0  0  0  0  0  0  0
   58.9140   33.1620   52.3520 N   0  0  0  0  0  0  0  0  0  0  0  0
   57.9550   34.2630   52.3670 C   0  0  0  0  0  0  0  0  0  0  0  0
   60.0750   33.1810   53.2380 C   0  0  0  0  0  0  0  0  0  0  0  0
   58.9200   32.1690   50.0500 C   0  0  0  0  0  0  0  0  0  0  0  0
   59.2850   33.3820   49.2410 C   0  0  0  0  0  0  0  0  0  0  0  0
   60.5510   33.1640   48.5250 N   0  0  0  0  0  0  0  0  0  0  0  0
   60.6500   33.9640   47.2910 C   0  0  0  0  0  0  0  0  0  0  0  0
   59.5770   33.5990   46.2910 C   0  0  0  0  0  0  0  0  0  0  0  0
   58.6600   34.5640   45.8450 C   0  0  0  0  0  0  0  0  0  0  0  0
   57.6660   34.2190   44.9250 C   0  0  0  0  0  0  0  0  0  0  0  0
   56.7720   35.1520   44.5120 F   0  0  0  0  0  0  0  0  0  0  0  0
   57.5790   32.9080   44.4460 C   0  0  0  0  0  0  0  0  0  0  0  0
   58.4960   31.9340   44.8770 C   0  0  0  0  0  0  0  0  0  0  0  0
   58.3960   30.5670   44.4580 N   0  0  0  0  0  0  0  0  0  0  0  0
   57.8410   29.4910   45.2210 C   0  0  0  0  0  0  0  0  0  0  0  0
   56.6440   29.5420   45.6170 O   0  0  0  0  0  0  0  0  0  0  0  0
   58.6830   28.2710   45.4600 C   0  0  0  0  0  0  0  0  0  0  0  0
   57.9000   27.1250   46.0500 C   0  0  0  0  0  0  0  0  0  0  0  0
   58.4140   26.3960   47.1350 C   0  0  0  0  0  0  0  0  0  0  0  0
   57.6780   25.3420   47.6870 C   0  0  0  0  0  0  0  0  0  0  0  0
   56.4220   25.0060   47.1680 C   0  0  0  0  0  0  0  0  0  0  0  0
   55.7070   23.9060   47.7420 N   0  0  0  0  0  0  0  0  0  0  0  0
   56.0810   22.5220   47.7070 C   0  0  0  0  0  0  0  0  0  0  0  0
   57.1800   22.1950   48.2270 O   0  0  0  0  0  0  0  0  0  0  0  0
   55.1420   21.4480   47.1720 C   0  0  2  0  0  0  0  0  0  0  0  0
   55.7260   20.0320   47.4480 C   0  0  0  0  0  0  0  0  0  0  0  0
   55.4800   19.0500   46.2950 C   0  0  0  0  0  0  0  0  0  0  0  0
   56.1030   19.5930   45.0020 C   0  0  0  0  0  0  0  0  0  0  0  0
   55.7990   21.0200   44.8150 N   0  0  0  0  0  0  0  0  0  0  0  0
   56.5070   21.7730   43.8120 C   0  0  0  0  0  0  0  0  0  0  0  0
   56.2370   21.5930   42.5930 O   0  0  0  0  0  0  0  0  0  0  0  0
   57.5060   22.6810   44.1970 O   0  0  0  0  0  0  0  0  0  0  0  0
   58.7290   22.3640   44.8770 C   0  0  0  0  0  0  0  0  0  0  0  0
   59.3120   23.6190   45.5570 C   0  0  0  0  0  0  0  0  0  0  0  0
   59.7260   21.8680   43.8160 C   0  0  0  0  0  0  0  0  0  0  0  0
   58.5020   21.2420   45.9080 C   0  0  0  0  0  0  0  0  0  0  0  0
   54.7940   21.6600   45.6760 C   0  0  0  0  0  0  0  0  0  0  0  0
   55.9320   25.6980   46.0490 C   0  0  0  0  0  0  0  0  0  0  0  0
   56.6560   26.7640   45.5080 C   0  0  0  0  0  0  0  0  0  0  0  0
   59.4860   32.2840   45.8040 C   0  0  0  0  0  0  0  0  0  0  0  0
   59.0873   29.3013   48.1959 H   0  0  0  0  0  0  0  0  0  0  0  0
   57.9189   30.5666   47.6855 H   0  0  0  0  0  0  0  0  0  0  0  0
   59.6805   30.9182   47.6855 H   0  0  0  0  0  0  0  0  0  0  0  0
   58.7822   29.2836   53.1915 H   0  0  0  0  0  0  0  0  0  0  0  0
   58.7384   30.9738   53.8349 H   0  0  0  0  0  0  0  0  0  0  0  0
   56.6306   30.4225   54.4435 H   0  0  0  0  0  0  0  0  0  0  0  0
   56.2086   28.2029   54.1804 H   0  0  0  0  0  0  0  0  0  0  0  0
   55.4083   28.6568   52.6376 H   0  0  0  0  0  0  0  0  0  0  0  0
   57.1259   28.1312   52.6376 H   0  0  0  0  0  0  0  0  0  0  0  0
   55.3657   31.7384   53.1475 H   0  0  0  0  0  0  0  0  0  0  0  0
   56.6325   31.6677   51.8759 H   0  0  0  0  0  0  0  0  0  0  0  0
   55.2922   30.4718   51.8759 H   0  0  0  0  0  0  0  0  0  0  0  0
   57.7212   34.5314   53.4078 H   0  0  0  0  0  0  0  0  0  0  0  0
   58.3879   35.1334   51.8522 H   0  0  0  0  0  0  0  0  0  0  0  0
   57.0334   33.9536   51.8522 H   0  0  0  0  0  0  0  0  0  0  0  0
   59.7374   33.1755   54.2849 H   0  0  0  0  0  0  0  0  0  0  0  0
   60.6957   32.2929   53.0482 H   0  0  0  0  0  0  0  0  0  0  0  0
   60.6663   34.0889   53.0482 H   0  0  0  0  0  0  0  0  0  0  0  0
   58.4869   33.5836   48.5113 H   0  0  0  0  0  0  0  0  0  0  0  0
   59.4044   34.2389   49.9203 H   0  0  0  0  0  0  0  0  0  0  0  0
   60.6480   32.1430   48.3030 H   0  0  0  0  0  0  0  0  0  0  0  0
   60.5476   35.0284   47.5489 H   0  0  0  0  0  0  0  0  0  0  0  0
   61.6275   33.7579   46.8304 H   0  0  0  0  0  0  0  0  0  0  0  0
   58.7241   35.5957   46.2211 H   0  0  0  0  0  0  0  0  0  0  0  0
   56.7897   32.6380   43.7290 H   0  0  0  0  0  0  0  0  0  0  0  0
   59.1113   27.9464   44.5002 H   0  0  0  0  0  0  0  0  0  0  0  0
   59.4641   28.5452   46.1844 H   0  0  0  0  0  0  0  0  0  0  0  0
   59.3985   26.6546   47.5521 H   0  0  0  0  0  0  0  0  0  0  0  0
   58.0889   24.7736   48.5344 H   0  0  0  0  0  0  0  0  0  0  0  0
   54.1887   21.5327   47.7143 H   0  0  0  0  0  0  0  0  0  0  0  0
   56.8108   20.1242   47.6052 H   0  0  0  0  0  0  0  0  0  0  0  0
   55.2163   19.6320   48.3369 H   0  0  0  0  0  0  0  0  0  0  0  0
   55.9360   18.0793   46.5395 H   0  0  0  0  0  0  0  0  0  0  0  0
   54.3965   18.9269   46.1501 H   0  0  0  0  0  0  0  0  0  0  0  0
   57.1943   19.4632   45.0491 H   0  0  0  0  0  0  0  0  0  0  0  0
   55.6786   19.0357   44.1539 H   0  0  0  0  0  0  0  0  0  0  0  0
   59.2579   23.5026   46.6495 H   0  0  0  0  0  0  0  0  0  0  0  0
   60.3615   23.7465   45.2533 H   0  0  0  0  0  0  0  0  0  0  0  0
   58.7324   24.5032   45.2533 H   0  0  0  0  0  0  0  0  0  0  0  0
   60.6042   21.4311   44.3139 H   0  0  0  0  0  0  0  0  0  0  0  0
   59.2434   21.1050   43.1876 H   0  0  0  0  0  0  0  0  0  0  0  0
   60.0435   22.7132   43.1876 H   0  0  0  0  0  0  0  0  0  0  0  0
   58.5856   21.6552   46.9240 H   0  0  0  0  0  0  0  0  0  0  0  0
   57.4988   20.8129   45.7681 H   0  0  0  0  0  0  0  0  0  0  0  0
   59.2595   20.4567   45.7681 H   0  0  0  0  0  0  0  0  0  0  0  0
   54.7673   22.7383   45.4604 H   0  0  0  0  0  0  0  0  0  0  0  0
   53.8126   21.2067   45.4726 H   0  0  0  0  0  0  0  0  0  0  0  0
   54.9747   25.4001   45.5964 H   0  0  0  0  0  0  0  0  0  0  0  0
   56.2490   27.3234   44.6528 H   0  0  0  0  0  0  0  0  0  0  0  0
   60.1987   31.5226   46.1539 H   0  0  0  0  0  0  0  0  0  0  0  0
  1  2  1  0
  2  3  2  0
  3  4  1  0
  4  5  1  0
  5  6  1  0
  6  7  1  0
  6  8  1  0
  4  9  1  0
  9 10  1  0
 10 11  1  0
 10 12  1  0
  9 13  2  0
 13 14  1  0
 14 15  1  0
 15 16  1  0
 16 17  1  0
 17 18  2  0
 18 19  1  0
 19 20  1  0
 19 21  2  0
 21 22  1  0
 22 23  1  0
 23 24  1  0
 24 25  2  0
 24 26  1  0
 26 27  1  0
 27 28  2  0
 28 29  1  0
 29 30  2  0
 30 31  1  0
 31 32  1  0
 32 33  2  0
 32 34  1  0
 34 35  1  0
 35 36  1  0
 36 37  1  0
 37 38  1  0
 38 39  1  0
 39 40  2  0
 39 41  1  0
 41 42  1  0
 42 43  1  0
 42 44  1  0
 42 45  1  0
 38 46  1  0
 30 47  1  0
 47 48  2  0
 22 49  2  0
 13  2  1  0
 49 17  1  0
 48 27  1  0
 46 34  1  0
  1 50  1  0
  1 51  1  0
  1 52  1  0
  5 53  1  0
  5 54  1  0
  6 55  1  0
  7 56  1  0
  7 57  1  0
  7 58  1  0
  8 59  1  0
  8 60  1  0
  8 61  1  0
 11 62  1  0
 11 63  1  0
 11 64  1  0
 12 65  1  0
 12 66  1  0
 12 67  1  0
 14 68  1  0
 14 69  1  0
 15 70  1  0
 16 71  1  0
 16 72  1  0
 18 73  1  0
 21 74  1  0
 26 75  1  0
 26 76  1  0
 28 77  1  0
 29 78  1  0
 34 79  1  1
 35 80  1  0
 35 81  1  0
 36 82  1  0
 36 83  1  0
 37 84  1  0
 37 85  1  0
 43 86  1  0
 43 87  1  0
 43 88  1  0
 44 89  1  0
 44 90  1  0
 44 91  1  0
 45 92  1  0
 45 93  1  0
 45 94  1  0
 46 95  1  0
 46 96  1  0
 47 97  1  0
 48 98  1  0
 49 99  1  0
M  CHG  2  23  -1  31  -1
M  END
>  <UniqueID>  (54) 
49

>  <SMILES>  (54) 
Cc1nn(CC(C)C)c(N(C)C)c1CNCc1cc(F)cc([N-]C(=O)Cc2ccc([N-]C(=O)[C@@H]3CCCN(C(=O)OC(C)(C)C)C3)cc2)c1

>  <Energy>  (54) 
132.94873348492033

>  <Genealogy>  (54) 
Cc1nn(CC(C)C)c(N(C)C)c1CNCc1cc(F)cc([N-]C(=O)Cc2ccc([N-]C(=O)C3CCCN(C(=O)OC(C)(C)C)C3)cc2)c1 (protonated)
Cc1nn(CC(C)C)c(N(C)C)c1CNCc1cc(F)cc([N-]C(=O)Cc2ccc([N-]C(=O)[C@@H]3CCCN(C(=O)OC(C)(C)C)C3)cc2)c1 (chirality)
Cc1nn(CC(C)C)c(N(C)C)c1CNCc1cc(F)cc([N-]C(=O)Cc2ccc([N-]C(=O)[C@@H]3CCCN(C(=O)OC(C)(C)C)C3)cc2)c1 (3D coordinates assigned)
Cc1nn(CC(C)C)c(N(C)C)c1CNCc1cc(F)cc([N-]C(=O)Cc2ccc([N-]C(=O)[C@@H]3CCCN(C(=O)OC(C)(C)C)C3)cc2)c1 (nonaromatic ring conformer: 132.94873348492033 kcal/mol)

>  <smiles>  (54) 
Cc1nn(CC(C)C)c(N(C)C)c1CNCc1cc(F)cc(NC(=O)Cc2ccc(NC(=O)C3CCCN(C(=O)OC(C)(C)C)C3)cc2)c1

>  <score_type>  (54) 
oracle

>  <origin>  (54) 
adg

>  <m_score__min__energy>  (54) 
-13.1

>  <m_primary>  (54) 
energy

$$$$
54:0
     RDKit          3D

 64 67  0  0  0  0  0  0  0  0999 V2000
   56.7700   28.6210   45.2560 C   0  0  0  0  0  0  0  0  0  0  0  0
   55.4860   29.0860   44.9090 O   0  0  0  0  0  0  0  0  0  0  0  0
   55.5530   29.7690   43.6740 C   0  0  0  0  0  0  0  0  0  0  0  0
   57.0130   29.8900   43.2260 C   0  0  0  0  0  0  0  0  0  0  0  0
   57.3410   31.2620   42.6200 C   0  0  0  0  0  0  0  0  0  0  0  0
   58.0550   32.1000   43.5840 N   0  0  0  0  0  0  0  0  0  0  0  0
   57.5650   32.3360   44.9160 C   0  0  0  0  0  0  0  0  0  0  0  0
   56.3510   32.1170   45.1830 O   0  0  0  0  0  0  0  0  0  0  0  0
   58.4620   32.8430   45.9820 C   0  0  0  0  0  0  0  0  0  0  0  0
   59.5980   32.1200   46.3810 C   0  0  0  0  0  0  0  0  0  0  0  0
   60.4310   32.6060   47.3930 C   0  0  0  0  0  0  0  0  0  0  0  0
   60.1350   33.8200   48.0410 C   0  0  0  0  0  0  0  0  0  0  0  0
   61.0250   34.4040   49.1170 C   0  0  0  0  0  0  0  0  0  0  0  0
   61.8310   33.3740   49.8140 N   0  0  0  0  0  0  0  0  0  0  0  0
   61.2510   32.4570   50.6670 C   0  0  0  0  0  0  0  0  0  0  0  0
   59.8060   32.4630   50.9860 C   0  0  0  0  0  0  0  0  0  0  0  0
   59.1600   33.3040   51.8880 C   0  0  0  0  0  0  0  0  0  0  0  0
   57.7930   33.0300   52.0160 C   0  0  0  0  0  0  0  0  0  0  0  0
   57.3600   31.9680   51.2340 C   0  0  0  0  0  0  0  0  0  0  0  0
   58.6800   31.3680   50.3830 S   0  0  0  0  0  0  0  0  0  0  0  0
   62.0310   31.4530   51.2530 C   0  0  0  0  0  0  0  0  0  0  0  0
   63.4040   31.3840   51.0080 C   0  0  0  0  0  0  0  0  0  0  0  0
   64.1950   30.3050   51.6500 C   0  0  0  0  0  0  0  0  0  0  0  0
   63.7410   28.9780   51.6130 C   0  0  0  0  0  0  0  0  0  0  0  0
   64.4890   27.9560   52.2050 C   0  0  0  0  0  0  0  0  0  0  0  0
   65.7120   28.2480   52.8380 C   0  0  0  0  0  0  0  0  0  0  0  0
   66.4980   27.2590   53.4480 O   0  0  0  0  0  0  0  0  0  0  0  0
   67.3400   26.3530   52.7450 C   0  0  0  0  0  0  0  0  0  0  0  0
   66.1690   29.5710   52.8640 C   0  0  0  0  0  0  0  0  0  0  0  0
   65.4210   30.5930   52.2720 C   0  0  0  0  0  0  0  0  0  0  0  0
   63.9930   32.3450   50.1680 C   0  0  0  0  0  0  0  0  0  0  0  0
   65.4230   32.3570   49.9380 C   0  0  0  0  0  0  0  0  0  0  0  0
   66.5660   32.3660   49.7540 N   0  0  0  0  0  0  0  0  0  0  0  0
   63.1870   33.3310   49.5740 C   0  0  0  0  0  0  0  0  0  0  0  0
   63.7220   34.1880   48.8140 O   0  0  0  0  0  0  0  0  0  0  0  0
   58.9990   34.5400   47.6420 C   0  0  0  0  0  0  0  0  0  0  0  0
   58.1660   34.0540   46.6310 C   0  0  0  0  0  0  0  0  0  0  0  0
   56.8640   28.5870   46.3514 H   0  0  0  0  0  0  0  0  0  0  0  0
   56.9184   27.6120   44.8437 H   0  0  0  0  0  0  0  0  0  0  0  0
   57.5300   29.3010   44.8437 H   0  0  0  0  0  0  0  0  0  0  0  0
   54.9837   29.2103   42.9165 H   0  0  0  0  0  0  0  0  0  0  0  0
   55.1249   30.7754   43.7920 H   0  0  0  0  0  0  0  0  0  0  0  0
   57.6624   29.7277   44.0989 H   0  0  0  0  0  0  0  0  0  0  0  0
   57.1816   29.1352   42.4438 H   0  0  0  0  0  0  0  0  0  0  0  0
   57.9705   31.1212   41.7290 H   0  0  0  0  0  0  0  0  0  0  0  0
   56.3991   31.7614   42.3491 H   0  0  0  0  0  0  0  0  0  0  0  0
   58.9900   32.4680   43.3030 H   0  0  0  0  0  0  0  0  0  0  0  0
   59.8343   31.1630   45.8929 H   0  0  0  0  0  0  0  0  0  0  0  0
   61.3248   32.0352   47.6852 H   0  0  0  0  0  0  0  0  0  0  0  0
   61.7080   35.1306   48.6527 H   0  0  0  0  0  0  0  0  0  0  0  0
   60.3736   34.8787   49.8655 H   0  0  0  0  0  0  0  0  0  0  0  0
   59.6720   34.1032   52.4440 H   0  0  0  0  0  0  0  0  0  0  0  0
   57.1242   33.6031   52.6750 H   0  0  0  0  0  0  0  0  0  0  0  0
   56.3303   31.5849   51.1803 H   0  0  0  0  0  0  0  0  0  0  0  0
   61.5576   30.7111   51.9130 H   0  0  0  0  0  0  0  0  0  0  0  0
   62.7897   28.7400   51.1146 H   0  0  0  0  0  0  0  0  0  0  0  0
   64.1206   26.9199   52.1761 H   0  0  0  0  0  0  0  0  0  0  0  0
   67.9059   25.7441   53.4654 H   0  0  0  0  0  0  0  0  0  0  0  0
   66.7247   25.6958   52.1130 H   0  0  0  0  0  0  0  0  0  0  0  0
   68.0405   26.9186   52.1130 H   0  0  0  0  0  0  0  0  0  0  0  0
   67.1246   29.8084   53.3543 H   0  0  0  0  0  0  0  0  0  0  0  0
   65.7943   31.6275   52.2934 H   0  0  0  0  0  0  0  0  0  0  0  0
   58.7617   35.4968   48.1300 H   0  0  0  0  0  0  0  0  0  0  0  0
   57.2711   34.6239   46.3406 H   0  0  0  0  0  0  0  0  0  0  0  0
  1  2  1  0
  2  3  1  0
  3  4  1  0
  4  5  1  0
  5  6  1  0
  6  7  1  0
  7  8  2  0
  7  9  1  0
  9 10  2  0
 10 11  1  0
 11 12  2  0
 12 13  1  0
 13 14  1  0
 14 15  1  0
 15 16  1  0
 16 17  2  0
 17 18  1  0
 18 19  2  0
 19 20  1  0
 15 21  2  0
 21 22  1  0
 22 23  1  0
 23 24  2  0
 24 25  1  0
 25 26  2  0
 26 27  1  0
 27 28  1  0
 26 29  1  0
 29 30  2  0
 22 31  2  0
 31 32  1  0
 32 33  3  0
 31 34  1  0
 34 35  2  0
 12 36  1  0
 36 37  2  0
 37  9  1  0
 34 14  1  0
 20 16  1  0
 30 23  1  0
  1 38  1  0
  1 39  1  0
  1 40  1  0
  3 41  1  0
  3 42  1  0
  4 43  1  0
  4 44  1  0
  5 45  1  0
  5 46  1  0
  6 47  1  0
 10 48  1  0
 11 49  1  0
 13 50  1  0
 13 51  1  0
 17 52  1  0
 18 53  1  0
 19 54  1  0
 21 55  1  0
 24 56  1  0
 25 57  1  0
 28 58  1  0
 28 59  1  0
 28 60  1  0
 29 61  1  0
 30 62  1  0
 36 63  1  0
 37 64  1  0
M  END
>  <UniqueID>  (55) 
50

>  <SMILES>  (55) 
COCCCNC(=O)c1ccc(Cn2c(-c3cccs3)cc(-c3ccc(OC)cc3)c(C#N)c2=O)cc1

>  <Energy>  (55) 
110.78209549904986

>  <Genealogy>  (55) 
COCCCNC(=O)c1ccc(Cn2c(-c3cccs3)cc(-c3ccc(OC)cc3)c(C#N)c2=O)cc1 (3D coordinates assigned)
COCCCNC(=O)c1ccc(Cn2c(-c3cccs3)cc(-c3ccc(OC)cc3)c(C#N)c2=O)cc1 (optimized conformer: 110.78209549904986 kcal/mol)

>  <smiles>  (55) 
COCCCNC(=O)c1ccc(Cn2c(-c3cccs3)cc(-c3ccc(OC)cc3)c(C#N)c2=O)cc1

>  <score_type>  (55) 
oracle

>  <origin>  (55) 
adg

>  <m_score__min__energy>  (55) 
-8.0299999999999994

>  <m_primary>  (55) 
energy

$$$$
55:0
     RDKit          3D

 44 46  0  0  0  0  0  0  0  0999 V2000
   56.2740   20.1470   44.9340 C   0  0  0  0  0  0  0  0  0  0  0  0
   55.5440   21.3610   44.8110 O   0  0  0  0  0  0  0  0  0  0  0  0
   56.0550   22.4860   44.1550 C   0  0  0  0  0  0  0  0  0  0  0  0
   55.8900   22.6260   42.9110 O   0  0  0  0  0  0  0  0  0  0  0  0
   56.7940   23.5100   44.9260 C   0  0  0  0  0  0  0  0  0  0  0  0
   58.1980   23.4210   45.0660 C   0  0  0  0  0  0  0  0  0  0  0  0
   59.1280   22.0990   44.3630 Cl  0  0  0  0  0  0  0  0  0  0  0  0
   58.9050   24.4290   45.7260 C   0  0  0  0  0  0  0  0  0  0  0  0
   58.2440   25.5490   46.2490 C   0  0  0  0  0  0  0  0  0  0  0  0
   59.0050   26.6210   46.9390 C   0  0  0  0  0  0  0  0  0  0  0  0
   59.6440   26.3670   48.1660 C   0  0  0  0  0  0  0  0  0  0  0  0
   60.3660   27.3740   48.8090 C   0  0  0  0  0  0  0  0  0  0  0  0
   60.4550   28.6460   48.2410 C   0  0  0  0  0  0  0  0  0  0  0  0
   59.8100   28.9280   47.0260 C   0  0  0  0  0  0  0  0  0  0  0  0
   59.9090   30.2230   46.4070 N   0  0  0  0  0  0  0  0  0  0  0  0
   58.7760   31.0650   46.1320 C   0  0  0  0  0  0  0  0  0  0  0  0
   57.6260   30.5530   46.0400 O   0  0  0  0  0  0  0  0  0  0  0  0
   58.9480   32.5210   45.9040 C   0  0  0  0  0  0  0  0  0  0  0  0
   59.9910   33.2320   46.5270 C   0  0  0  0  0  0  0  0  0  0  0  0
   60.1380   34.6060   46.3090 C   0  0  0  0  0  0  0  0  0  0  0  0
   59.2480   35.2850   45.4740 C   0  0  0  0  0  0  0  0  0  0  0  0
   58.2030   34.5910   44.8600 C   0  0  0  0  0  0  0  0  0  0  0  0
   58.0500   33.2180   45.0740 C   0  0  0  0  0  0  0  0  0  0  0  0
   59.1020   27.9060   46.3730 C   0  0  0  0  0  0  0  0  0  0  0  0
   56.8500   25.6380   46.1160 C   0  0  0  0  0  0  0  0  0  0  0  0
   56.1140   24.6280   45.4770 C   0  0  0  0  0  0  0  0  0  0  0  0
   54.6800   24.7360   45.4390 N   0  0  0  0  0  0  0  0  0  0  0  0
   54.1250   25.8410   45.6090 O   0  0  0  0  0  0  0  0  0  0  0  0
   53.9210   23.6710   45.0100 O   0  0  0  0  0  0  0  0  0  0  0  0
   56.4160   19.9108   45.9989 H   0  0  0  0  0  0  0  0  0  0  0  0
   55.7157   19.3327   44.4491 H   0  0  0  0  0  0  0  0  0  0  0  0
   57.2551   20.2583   44.4491 H   0  0  0  0  0  0  0  0  0  0  0  0
   59.9960   24.3426   45.8369 H   0  0  0  0  0  0  0  0  0  0  0  0
   59.5744   25.3683   48.6219 H   0  0  0  0  0  0  0  0  0  0  0  0
   60.8662   27.1645   49.7660 H   0  0  0  0  0  0  0  0  0  0  0  0
   61.0338   29.4320   48.7481 H   0  0  0  0  0  0  0  0  0  0  0  0
   60.8400   30.5170   46.0360 H   0  0  0  0  0  0  0  0  0  0  0  0
   60.6940   32.7046   47.1886 H   0  0  0  0  0  0  0  0  0  0  0  0
   60.9577   35.1536   46.7971 H   0  0  0  0  0  0  0  0  0  0  0  0
   59.3698   36.3643   45.3002 H   0  0  0  0  0  0  0  0  0  0  0  0
   57.4985   35.1262   44.2063 H   0  0  0  0  0  0  0  0  0  0  0  0
   57.2222   32.6787   44.5904 H   0  0  0  0  0  0  0  0  0  0  0  0
   58.6173   28.1123   45.4073 H   0  0  0  0  0  0  0  0  0  0  0  0
   56.3242   26.5156   46.5200 H   0  0  0  0  0  0  0  0  0  0  0  0
  1  2  1  0
  2  3  1  0
  3  4  2  0
  3  5  1  0
  5  6  2  0
  6  7  1  0
  6  8  1  0
  8  9  2  0
  9 10  1  0
 10 11  2  0
 11 12  1  0
 12 13  2  0
 13 14  1  0
 14 15  1  0
 15 16  1  0
 16 17  2  0
 16 18  1  0
 18 19  2  0
 19 20  1  0
 20 21  2  0
 21 22  1  0
 22 23  2  0
 14 24  2  0
  9 25  1  0
 25 26  2  0
 26 27  1  0
 27 28  2  0
 27 29  1  0
 26  5  1  0
 24 10  1  0
 23 18  1  0
  1 30  1  0
  1 31  1  0
  1 32  1  0
  8 33  1  0
 11 34  1  0
 12 35  1  0
 13 36  1  0
 15 37  1  0
 19 38  1  0
 20 39  1  0
 21 40  1  0
 22 41  1  0
 23 42  1  0
 24 43  1  0
 25 44  1  0
M  CHG  2  27   1  29  -1
M  END
>  <UniqueID>  (56) 
51

>  <SMILES>  (56) 
COC(=O)c1c(Cl)cc(-c2cccc(NC(=O)c3ccccc3)c2)cc1[N+](=O)[O-]

>  <Energy>  (56) 
66.76414264710908

>  <Genealogy>  (56) 
COC(=O)c1c(Cl)cc(-c2cccc(NC(=O)c3ccccc3)c2)cc1[N+](=O)[O-] (3D coordinates assigned)
COC(=O)c1c(Cl)cc(-c2cccc(NC(=O)c3ccccc3)c2)cc1[N+](=O)[O-] (optimized conformer: 66.76414264710908 kcal/mol)

>  <smiles>  (56) 
COC(=O)c1c(Cl)cc(-c2cccc(NC(=O)c3ccccc3)c2)cc1[N+](=O)[O-]

>  <score_type>  (56) 
oracle

>  <origin>  (56) 
adg

>  <m_score__min__energy>  (56) 
-9.3000000000000007

>  <m_primary>  (56) 
energy

$$$$
56:0
     RDKit          3D

 38 39  0  0  0  0  0  0  0  0999 V2000
   62.1060   33.6620   46.7010 C   0  0  0  0  0  0  0  0  0  0  0  0
   60.6660   33.4610   47.0490 C   0  0  0  0  0  0  0  0  0  0  0  0
   60.3050   32.9390   48.2950 C   0  0  0  0  0  0  0  0  0  0  0  0
   58.9470   32.7570   48.5760 C   0  0  0  0  0  0  0  0  0  0  0  0
   58.5140   32.1960   49.8930 C   0  0  0  0  0  0  0  0  0  0  0  0
   58.0170   33.0810   47.6380 N   0  0  0  0  0  0  0  0  0  0  0  0
   58.3850   33.5840   46.4310 C   0  0  0  0  0  0  0  0  0  0  0  0
   57.1380   34.0020   45.2190 S   0  0  0  0  0  0  0  0  0  0  0  0
   57.6470   32.6840   44.0700 C   0  0  0  0  0  0  0  0  0  0  0  0
   57.5470   31.3620   44.7590 C   0  0  0  0  0  0  0  0  0  0  0  0
   56.4340   30.7720   44.8030 O   0  0  0  0  0  0  0  0  0  0  0  0
   58.7130   30.7760   45.3580 N   0  0  0  0  0  0  0  0  0  0  0  0
   58.6840   29.6340   46.2310 C   0  0  0  0  0  0  0  0  0  0  0  0
   59.5270   29.5480   47.3550 C   0  0  0  0  0  0  0  0  0  0  0  0
   59.4930   28.4170   48.1750 C   0  0  0  0  0  0  0  0  0  0  0  0
   58.6340   27.3580   47.8770 C   0  0  0  0  0  0  0  0  0  0  0  0
   57.8120   27.4180   46.7440 C   0  0  0  0  0  0  0  0  0  0  0  0
   56.7270   26.0830   46.3650 S   0  0  0  0  0  0  0  0  0  0  0  0
   55.1590   26.7070   45.9950 N   0  0  0  0  0  0  0  0  0  0  0  0
   56.6330   25.1520   47.5420 O   0  0  0  0  0  0  0  0  0  0  0  0
   57.2560   25.3180   45.1850 O   0  0  0  0  0  0  0  0  0  0  0  0
   57.8410   28.5550   45.9240 C   0  0  0  0  0  0  0  0  0  0  0  0
   59.7000   33.7680   46.1430 N   0  0  0  0  0  0  0  0  0  0  0  0
   62.6983   33.7447   47.6243 H   0  0  0  0  0  0  0  0  0  0  0  0
   62.4638   32.8051   46.1113 H   0  0  0  0  0  0  0  0  0  0  0  0
   62.2155   34.5841   46.1113 H   0  0  0  0  0  0  0  0  0  0  0  0
   61.0725   32.6771   49.0382 H   0  0  0  0  0  0  0  0  0  0  0  0
   58.9659   32.7814   50.7073 H   0  0  0  0  0  0  0  0  0  0  0  0
   57.4178   32.2457   49.9702 H   0  0  0  0  0  0  0  0  0  0  0  0
   58.8398   31.1482   49.9702 H   0  0  0  0  0  0  0  0  0  0  0  0
   56.9883   32.6899   43.1891 H   0  0  0  0  0  0  0  0  0  0  0  0
   58.6855   32.8550   43.7501 H   0  0  0  0  0  0  0  0  0  0  0  0
   59.6460   31.1560   45.0790 H   0  0  0  0  0  0  0  0  0  0  0  0
   60.2149   30.3739   47.5887 H   0  0  0  0  0  0  0  0  0  0  0  0
   60.1457   28.3611   49.0587 H   0  0  0  0  0  0  0  0  0  0  0  0
   58.6024   26.4752   48.5325 H   0  0  0  0  0  0  0  0  0  0  0  0
   54.7620   27.0790   46.8870 H   0  0  0  0  0  0  0  0  0  0  0  0
   57.1978   28.6015   45.0329 H   0  0  0  0  0  0  0  0  0  0  0  0
  1  2  1  0
  2  3  2  0
  3  4  1  0
  4  5  1  0
  4  6  2  0
  6  7  1  0
  7  8  1  0
  8  9  1  0
  9 10  1  0
 10 11  2  0
 10 12  1  0
 12 13  1  0
 13 14  2  0
 14 15  1  0
 15 16  2  0
 16 17  1  0
 17 18  1  0
 18 19  1  0
 18 20  2  0
 18 21  2  0
 17 22  2  0
  7 23  2  0
 23  2  1  0
 22 13  1  0
  1 24  1  0
  1 25  1  0
  1 26  1  0
  3 27  1  0
  5 28  1  0
  5 29  1  0
  5 30  1  0
  9 31  1  0
  9 32  1  0
 12 33  1  0
 14 34  1  0
 15 35  1  0
 16 36  1  0
 19 37  1  0
 22 38  1  0
M  CHG  1  19  -1
M  END
>  <UniqueID>  (57) 
52

>  <SMILES>  (57) 
Cc1cc(C)nc(SCC(=O)Nc2cccc(S([NH-])(=O)=O)c2)n1

>  <Energy>  (57) 
34.318383090193386

>  <Genealogy>  (57) 
Cc1cc(C)nc(SCC(=O)Nc2cccc(S([NH-])(=O)=O)c2)n1 (protonated)
Cc1cc(C)nc(SCC(=O)Nc2cccc(S([NH-])(=O)=O)c2)n1 (3D coordinates assigned)
Cc1cc(C)nc(SCC(=O)Nc2cccc(S([NH-])(=O)=O)c2)n1 (optimized conformer: 34.318383090193386 kcal/mol)

>  <smiles>  (57) 
Cc1cc(C)nc(SCC(=O)Nc2cccc(S(N)(=O)=O)c2)n1

>  <score_type>  (57) 
oracle

>  <origin>  (57) 
adg

>  <m_score__min__energy>  (57) 
-10.960000000000001

>  <m_primary>  (57) 
energy

$$$$
57:0
     RDKit          3D

 61 65  0  0  0  0  0  0  0  0999 V2000
   57.6760   26.6980   44.2450 N   0  0  0  0  0  0  0  0  0  0  0  0
   64.2980   32.9560   49.3110 C   0  0  0  0  0  0  0  0  0  0  0  0
   63.4780   33.1650   50.4170 C   0  0  0  0  0  0  0  0  0  0  0  0
   58.2070   30.2570   44.3010 C   0  0  0  0  0  0  0  0  0  0  0  0
   58.2420   31.3400   43.3700 N   0  0  0  0  0  0  0  0  0  0  0  0
   57.7930   32.6680   43.6490 C   0  0  0  0  0  0  0  0  0  0  0  0
   58.7950   33.5960   44.2130 C   0  0  0  0  0  0  0  0  0  0  0  0
   59.0870   33.5480   45.5880 N   0  0  0  0  0  0  0  0  0  0  0  0
   60.2880   34.1310   46.0160 C   0  0  0  0  0  0  0  0  0  0  0  0
   60.5040   34.1420   47.5130 C   0  0  0  0  0  0  0  0  0  0  0  0
   59.3160   34.1610   48.3040 N   0  0  0  0  0  0  0  0  0  0  0  0
   58.3230   33.1920   47.8180 C   0  0  0  0  0  0  0  0  0  0  0  0
   57.9360   33.7060   46.4470 C   0  0  0  0  0  0  0  0  0  0  0  0
   58.3650   30.4050   45.6170 N   0  0  0  0  0  0  0  0  0  0  0  0
   58.3000   29.3660   46.4830 C   0  0  0  0  0  0  0  0  0  0  0  0
   58.5420   29.7330   48.2160 S   0  0  0  0  0  0  0  0  0  0  0  0
   60.1430   30.5400   48.3480 C   0  0  0  0  0  0  0  0  0  0  0  0
   60.9950   30.3530   47.2540 C   0  0  0  0  0  0  0  0  0  0  0  0
   62.2560   30.9100   47.2130 C   0  0  0  0  0  0  0  0  0  0  0  0
   62.6440   31.6630   48.3000 C   0  0  0  0  0  0  0  0  0  0  0  0
   63.8780   32.2160   48.2780 N   0  0  0  0  0  0  0  0  0  0  0  0
   57.8970   27.8830   44.6950 C   0  0  0  0  0  0  0  0  0  0  0  0
   65.4710   33.4670   49.2590 O   0  0  0  0  0  0  0  0  0  0  0  0
   57.9670   28.9540   43.8550 C   0  0  0  0  0  0  0  0  0  0  0  0
   62.1940   32.6100   50.4770 C   0  0  0  0  0  0  0  0  0  0  0  0
   61.3330   32.8180   51.6360 C   0  0  0  0  0  0  0  0  0  0  0  0
   60.2020   33.6210   51.4320 C   0  0  0  0  0  0  0  0  0  0  0  0
   59.3200   33.8730   52.4840 C   0  0  0  0  0  0  0  0  0  0  0  0
   59.5740   33.3280   53.7120 C   0  0  0  0  0  0  0  0  0  0  0  0
   60.6960   32.5340   53.9100 C   0  0  0  0  0  0  0  0  0  0  0  0
   61.5890   32.2690   52.8750 C   0  0  0  0  0  0  0  0  0  0  0  0
   62.6930   31.4930   53.0510 F   0  0  0  0  0  0  0  0  0  0  0  0
   61.7980   31.8550   49.3940 C   0  0  0  0  0  0  0  0  0  0  0  0
   60.5250   31.2840   49.4200 C   0  0  0  0  0  0  0  0  0  0  0  0
   58.0700   28.1320   46.0210 N   0  0  0  0  0  0  0  0  0  0  0  0
   57.0430   26.5780   43.4480 H   0  0  0  0  0  0  0  0  0  0  0  0
   63.8444   33.7751   51.2558 H   0  0  0  0  0  0  0  0  0  0  0  0
   58.6180   31.1420   42.4150 H   0  0  0  0  0  0  0  0  0  0  0  0
   57.4276   33.1025   42.7068 H   0  0  0  0  0  0  0  0  0  0  0  0
   57.0248   32.5587   44.4287 H   0  0  0  0  0  0  0  0  0  0  0  0
   59.7387   33.4111   43.6789 H   0  0  0  0  0  0  0  0  0  0  0  0
   58.3333   34.5857   44.0814 H   0  0  0  0  0  0  0  0  0  0  0  0
   61.1184   33.5745   45.5570 H   0  0  0  0  0  0  0  0  0  0  0  0
   60.2407   35.1859   45.7079 H   0  0  0  0  0  0  0  0  0  0  0  0
   61.0748   33.2403   47.7799 H   0  0  0  0  0  0  0  0  0  0  0  0
   61.0308   35.0816   47.7358 H   0  0  0  0  0  0  0  0  0  0  0  0
   58.8400   35.0890   48.3440 H   0  0  0  0  0  0  0  0  0  0  0  0
   58.7628   32.1862   47.7469 H   0  0  0  0  0  0  0  0  0  0  0  0
   57.4584   33.1032   48.4923 H   0  0  0  0  0  0  0  0  0  0  0  0
   57.0893   33.1251   46.0524 H   0  0  0  0  0  0  0  0  0  0  0  0
   57.6308   34.7615   46.4988 H   0  0  0  0  0  0  0  0  0  0  0  0
   58.5350   31.3520   46.0080 H   0  0  0  0  0  0  0  0  0  0  0  0
   60.6500   29.7457   46.4042 H   0  0  0  0  0  0  0  0  0  0  0  0
   62.9225   30.7599   46.3509 H   0  0  0  0  0  0  0  0  0  0  0  0
   64.4880   32.0540   47.4440 H   0  0  0  0  0  0  0  0  0  0  0  0
   57.8283   28.7854   42.7769 H   0  0  0  0  0  0  0  0  0  0  0  0
   60.0090   34.0539   50.4394 H   0  0  0  0  0  0  0  0  0  0  0  0
   58.4315   34.5023   52.3271 H   0  0  0  0  0  0  0  0  0  0  0  0
   58.8854   33.5196   54.5482 H   0  0  0  0  0  0  0  0  0  0  0  0
   60.8833   32.1053   54.9056 H   0  0  0  0  0  0  0  0  0  0  0  0
   59.8533   31.4308   50.2787 H   0  0  0  0  0  0  0  0  0  0  0  0
  1  2  2  3
  2  3  1  0
  3  4  2  0
  4  5  1  0
  5  6  1  0
  6  7  1  0
  7  8  1  0
  8  9  1  0
  9 10  1  0
 10 11  1  0
 11 12  1  0
 12 13  1  0
  4 14  1  0
 14 15  1  0
 15 16  1  0
 16 17  1  0
 17 18  2  0
 18 19  1  0
 19 20  2  0
 20 21  1  0
 21 22  1  0
 22 23  2  0
 22 24  1  0
 24 25  2  0
 25 26  1  0
 26 27  2  0
 27 28  1  0
 28 29  2  0
 29 30  1  0
 30 31  2  0
 31 32  1  0
 25 33  1  0
 33 34  2  0
 15 35  2  0
 35  2  1  0
 13  8  1  0
 34 17  1  0
 33 20  1  0
 31 26  1  0
  1 36  1  0
  3 37  1  0
  5 38  1  0
  6 39  1  0
  6 40  1  0
  7 41  1  0
  7 42  1  0
  9 43  1  0
  9 44  1  0
 10 45  1  0
 10 46  1  0
 11 47  1  0
 12 48  1  0
 12 49  1  0
 13 50  1  0
 13 51  1  0
 14 52  1  0
 18 53  1  0
 19 54  1  0
 21 55  1  0
 24 56  1  0
 27 57  1  0
 28 58  1  0
 29 59  1  0
 30 60  1  0
 34 61  1  0
M  END
>  <smiles>  (58) 
N=c1cc(NCCN2CCNCC2)[nH]c(Sc2ccc3[nH]c(=O)cc(-c4ccccc4F)c3c2)n1

>  <score_type>  (58) 
oracle

>  <origin>  (58) 
adg

>  <m_score__min__energy>  (58) 
-9.9800000000000004

>  <m_primary>  (58) 
energy

$$$$
58:0
     RDKit          3D

 46 48  0  0  0  0  0  0  0  0999 V2000
   60.7160   34.2620   46.4570 C   0  0  0  0  0  0  0  0  0  0  0  0
   59.5140   34.2290   45.5600 C   0  0  0  0  0  0  0  0  0  0  0  0
   59.1810   35.2920   44.9670 O   0  0  0  0  0  0  0  0  0  0  0  0
   58.7170   32.9900   45.3580 C   0  0  0  0  0  0  0  0  0  0  0  0
   58.7130   31.9850   46.3440 C   0  0  0  0  0  0  0  0  0  0  0  0
   57.9620   30.8190   46.1730 C   0  0  0  0  0  0  0  0  0  0  0  0
   57.1960   30.6260   45.0110 C   0  0  0  0  0  0  0  0  0  0  0  0
   56.3840   29.4000   44.8380 C   0  0  0  0  0  0  0  0  0  0  0  0
   55.1260   29.4750   44.8140 O   0  0  0  0  0  0  0  0  0  0  0  0
   57.0300   28.1330   44.6500 N   0  0  0  0  0  0  0  0  0  0  0  0
   58.0070   27.5340   45.5170 C   0  0  0  0  0  0  0  0  0  0  0  0
   59.3640   27.8990   45.4380 C   0  0  0  0  0  0  0  0  0  0  0  0
   60.3170   27.2580   46.2320 C   0  0  0  0  0  0  0  0  0  0  0  0
   59.9330   26.2420   47.1050 C   0  0  0  0  0  0  0  0  0  0  0  0
   58.5940   25.8550   47.1800 C   0  0  0  0  0  0  0  0  0  0  0  0
   57.6230   26.4850   46.3810 C   0  0  0  0  0  0  0  0  0  0  0  0
   56.2190   26.0220   46.4560 C   0  0  0  0  0  0  0  0  0  0  0  0
   55.2920   26.7420   45.9970 O   0  0  0  0  0  0  0  0  0  0  0  0
   55.8910   24.7780   47.0830 N   0  0  0  0  0  0  0  0  0  0  0  0
   56.6630   23.5570   46.8690 C   0  0  0  0  0  0  0  0  0  0  0  0
   56.5860   23.1050   45.4360 C   0  0  0  0  0  0  0  0  0  0  0  0
   55.6330   23.6630   44.5660 C   0  0  0  0  0  0  0  0  0  0  0  0
   55.6090   23.2950   43.2170 C   0  0  0  0  0  0  0  0  0  0  0  0
   56.5340   22.3670   42.7280 C   0  0  0  0  0  0  0  0  0  0  0  0
   57.4830   21.8060   43.5870 C   0  0  0  0  0  0  0  0  0  0  0  0
   57.5120   22.1730   44.9370 C   0  0  0  0  0  0  0  0  0  0  0  0
   57.2030   31.6240   44.0220 C   0  0  0  0  0  0  0  0  0  0  0  0
   57.9530   32.7910   44.1930 C   0  0  0  0  0  0  0  0  0  0  0  0
   60.3899   34.2530   47.5075 H   0  0  0  0  0  0  0  0  0  0  0  0
   61.3444   33.3808   46.2606 H   0  0  0  0  0  0  0  0  0  0  0  0
   61.2951   35.1764   46.2606 H   0  0  0  0  0  0  0  0  0  0  0  0
   59.3079   32.1192   47.2595 H   0  0  0  0  0  0  0  0  0  0  0  0
   57.9706   30.0454   46.9550 H   0  0  0  0  0  0  0  0  0  0  0  0
   59.6760   28.6949   44.7458 H   0  0  0  0  0  0  0  0  0  0  0  0
   61.3740   27.5559   46.1682 H   0  0  0  0  0  0  0  0  0  0  0  0
   60.6852   25.7449   47.7351 H   0  0  0  0  0  0  0  0  0  0  0  0
   58.2959   25.0512   47.8692 H   0  0  0  0  0  0  0  0  0  0  0  0
   57.7148   23.7481   47.1283 H   0  0  0  0  0  0  0  0  0  0  0  0
   56.2427   22.7647   47.5058 H   0  0  0  0  0  0  0  0  0  0  0  0
   54.9032   24.3921   44.9479 H   0  0  0  0  0  0  0  0  0  0  0  0
   54.8622   23.7357   42.5402 H   0  0  0  0  0  0  0  0  0  0  0  0
   56.5146   22.0785   41.6667 H   0  0  0  0  0  0  0  0  0  0  0  0
   58.2084   21.0746   43.2012 H   0  0  0  0  0  0  0  0  0  0  0  0
   58.2617   21.7308   45.6096 H   0  0  0  0  0  0  0  0  0  0  0  0
   56.6125   31.4856   43.1043 H   0  0  0  0  0  0  0  0  0  0  0  0
   57.9460   33.5621   43.4086 H   0  0  0  0  0  0  0  0  0  0  0  0
  1  2  1  0
  2  3  2  0
  2  4  1  0
  4  5  2  0
  5  6  1  0
  6  7  2  0
  7  8  1  0
  8  9  2  0
  8 10  1  0
 10 11  1  0
 11 12  2  0
 12 13  1  0
 13 14  2  0
 14 15  1  0
 15 16  2  0
 16 17  1  0
 17 18  2  0
 17 19  1  0
 19 20  1  0
 20 21  1  0
 21 22  2  0
 22 23  1  0
 23 24  2  0
 24 25  1  0
 25 26  2  0
  7 27  1  0
 27 28  2  0
 28  4  1  0
 16 11  1  0
 26 21  1  0
  1 29  1  0
  1 30  1  0
  1 31  1  0
  5 32  1  0
  6 33  1  0
 12 34  1  0
 13 35  1  0
 14 36  1  0
 15 37  1  0
 20 38  1  0
 20 39  1  0
 22 40  1  0
 23 41  1  0
 24 42  1  0
 25 43  1  0
 26 44  1  0
 27 45  1  0
 28 46  1  0
M  CHG  2  10  -1  19  -1
M  END
>  <UniqueID>  (59) 
53

>  <SMILES>  (59) 
CC(=O)c1ccc(C(=O)[N-]c2ccccc2C(=O)[N-]Cc2ccccc2)cc1

>  <Energy>  (59) 
60.0841539900944

>  <Genealogy>  (59) 
CC(=O)c1ccc(C(=O)[N-]c2ccccc2C(=O)[N-]Cc2ccccc2)cc1 (protonated)
CC(=O)c1ccc(C(=O)[N-]c2ccccc2C(=O)[N-]Cc2ccccc2)cc1 (3D coordinates assigned)
CC(=O)c1ccc(C(=O)[N-]c2ccccc2C(=O)[N-]Cc2ccccc2)cc1 (optimized conformer: 60.0841539900944 kcal/mol)

>  <smiles>  (59) 
CC(=O)c1ccc(C(=O)Nc2ccccc2C(=O)NCc2ccccc2)cc1

>  <score_type>  (59) 
oracle

>  <origin>  (59) 
adg

>  <m_score__min__energy>  (59) 
-12.84

>  <m_primary>  (59) 
energy

$$$$
59:0
     RDKit          3D

 36 37  0  0  0  0  0  0  0  0999 V2000
   60.7240   27.1100   49.1260 C   0  0  0  0  0  0  0  0  0  0  0  0
   60.1680   27.9080   48.0300 N   0  0  0  0  0  0  0  0  0  0  0  0
   59.9430   27.2890   46.7140 C   0  0  0  0  0  0  0  0  0  0  0  0
   58.4720   27.0310   46.5100 C   0  0  0  0  0  0  0  0  0  0  0  0
   57.9100   25.8140   46.9270 C   0  0  0  0  0  0  0  0  0  0  0  0
   56.5580   25.5440   46.6930 C   0  0  0  0  0  0  0  0  0  0  0  0
   55.7570   26.4860   46.0410 C   0  0  0  0  0  0  0  0  0  0  0  0
   54.4160   26.2100   45.8070 O   0  0  0  0  0  0  0  0  0  0  0  0
   56.3090   27.7030   45.6230 C   0  0  0  0  0  0  0  0  0  0  0  0
   55.5190   28.6420   44.9710 O   0  0  0  0  0  0  0  0  0  0  0  0
   57.6620   27.9750   45.8580 C   0  0  0  0  0  0  0  0  0  0  0  0
   59.9850   29.3290   48.2130 C   0  0  0  0  0  0  0  0  0  0  0  0
   59.0910   29.9060   49.4680 S   0  0  0  0  0  0  0  0  0  0  0  0
   60.6410   30.2590   47.3400 N   0  0  0  0  0  0  0  0  0  0  0  0
   59.9440   31.3090   46.6470 C   0  0  0  0  0  0  0  0  0  0  0  0
   60.3300   32.6410   46.8480 C   0  0  0  0  0  0  0  0  0  0  0  0
   59.6770   33.6740   46.1740 C   0  0  0  0  0  0  0  0  0  0  0  0
   58.6420   33.3880   45.2800 C   0  0  0  0  0  0  0  0  0  0  0  0
   58.2520   32.0580   45.0460 C   0  0  0  0  0  0  0  0  0  0  0  0
   57.1960   31.7640   44.1110 N   0  0  0  0  0  0  0  0  0  0  0  0
   56.1320   31.2380   44.4960 O   0  0  0  0  0  0  0  0  0  0  0  0
   57.3530   32.0400   42.7710 O   0  0  0  0  0  0  0  0  0  0  0  0
   58.9110   31.0220   45.7320 C   0  0  0  0  0  0  0  0  0  0  0  0
   60.4197   27.5468   50.0886 H   0  0  0  0  0  0  0  0  0  0  0  0
   60.3479   26.0786   49.0561 H   0  0  0  0  0  0  0  0  0  0  0  0
   61.8218   27.1055   49.0561 H   0  0  0  0  0  0  0  0  0  0  0  0
   60.3068   27.9653   45.9264 H   0  0  0  0  0  0  0  0  0  0  0  0
   60.4869   26.3341   46.6666 H   0  0  0  0  0  0  0  0  0  0  0  0
   58.5361   25.0693   47.4402 H   0  0  0  0  0  0  0  0  0  0  0  0
   56.1240   24.5885   47.0226 H   0  0  0  0  0  0  0  0  0  0  0  0
   58.0927   28.9327   45.5304 H   0  0  0  0  0  0  0  0  0  0  0  0
   61.6690   30.1550   47.1870 H   0  0  0  0  0  0  0  0  0  0  0  0
   61.1522   32.8737   47.5408 H   0  0  0  0  0  0  0  0  0  0  0  0
   59.9784   34.7176   46.3473 H   0  0  0  0  0  0  0  0  0  0  0  0
   58.1294   34.2084   44.7563 H   0  0  0  0  0  0  0  0  0  0  0  0
   58.6173   29.9772   45.5526 H   0  0  0  0  0  0  0  0  0  0  0  0
  1  2  1  0
  2  3  1  0
  3  4  1  0
  4  5  2  0
  5  6  1  0
  6  7  2  0
  7  8  1  0
  7  9  1  0
  9 10  1  0
  9 11  2  0
  2 12  1  0
 12 13  2  0
 12 14  1  0
 14 15  1  0
 15 16  2  0
 16 17  1  0
 17 18  2  0
 18 19  1  0
 19 20  1  0
 20 21  2  0
 20 22  1  0
 19 23  2  0
 11  4  1  0
 23 15  1  0
  1 24  1  0
  1 25  1  0
  1 26  1  0
  3 27  1  0
  3 28  1  0
  5 29  1  0
  6 30  1  0
 11 31  1  0
 14 32  1  0
 16 33  1  0
 17 34  1  0
 18 35  1  0
 23 36  1  0
M  CHG  4   8  -1  10  -1  20   1  22  -1
M  END
>  <UniqueID>  (60) 
54

>  <SMILES>  (60) 
CN(Cc1ccc([O-])c([O-])c1)C(=S)Nc1cccc([N+](=O)[O-])c1

>  <Energy>  (60) 
41.844455832818745

>  <Genealogy>  (60) 
CN(Cc1ccc([O-])c([O-])c1)C(=S)Nc1cccc([N+](=O)[O-])c1 (protonated)
CN(Cc1ccc([O-])c([O-])c1)C(=S)Nc1cccc([N+](=O)[O-])c1 (3D coordinates assigned)
CN(Cc1ccc([O-])c([O-])c1)C(=S)Nc1cccc([N+](=O)[O-])c1 (optimized conformer: 41.844455832818745 kcal/mol)

>  <smiles>  (60) 
CN(Cc1ccc(O)c(O)c1)C(=S)Nc1cccc([N+](=O)[O-])c1

>  <score_type>  (60) 
oracle

>  <origin>  (60) 
adg

>  <m_score__min__energy>  (60) 
-15.44

>  <m_primary>  (60) 
energy

$$$$
60:0
     RDKit          3D

 38 40  0  0  0  0  0  0  0  0999 V2000
   56.8417   29.2465   41.9179 H   0  0  0  0  0  0  0  0  0  0  0  0
   56.6210   29.7750   42.8570 C   0  0  0  0  0  0  0  0  0  0  0  0
   55.8020   29.3550   43.7970 O   0  0  0  0  0  0  0  0  0  0  0  0
   55.7590   30.2030   44.7800 N   0  0  0  0  0  0  0  0  0  0  0  0
   55.1860   30.0890   45.6460 H   0  0  0  0  0  0  0  0  0  0  0  0
   56.5750   31.2240   44.4760 C   0  0  0  0  0  0  0  0  0  0  0  0
   56.7750   32.2300   45.2780 N   0  0  0  0  0  0  0  0  0  0  0  0
   57.7530   33.2740   45.1430 C   0  0  0  0  0  0  0  0  0  0  0  0
   57.4810   34.3460   44.5370 O   0  0  0  0  0  0  0  0  0  0  0  0
   59.1250   33.0680   45.7300 C   0  0  2  0  0  0  0  0  0  0  0  0
   59.8378   32.9503   44.9005 H   0  0  0  0  0  0  0  0  0  0  0  0
   59.1730   31.7950   46.5570 C   0  0  0  0  0  0  0  0  0  0  0  0
   58.8900   31.8050   47.9380 C   0  0  0  0  0  0  0  0  0  0  0  0
   58.6391   32.7525   48.4372 H   0  0  0  0  0  0  0  0  0  0  0  0
   58.9260   30.6200   48.6770 C   0  0  0  0  0  0  0  0  0  0  0  0
   58.7062   30.6389   49.7547 H   0  0  0  0  0  0  0  0  0  0  0  0
   59.2400   29.4120   48.0520 C   0  0  0  0  0  0  0  0  0  0  0  0
   59.2710   28.4816   48.6380 H   0  0  0  0  0  0  0  0  0  0  0  0
   59.5150   29.3840   46.6820 C   0  0  0  0  0  0  0  0  0  0  0  0
   59.9360   27.7300   45.8260 Br  0  0  0  0  0  0  0  0  0  0  0  0
   59.4800   30.5690   45.9360 C   0  0  0  0  0  0  0  0  0  0  0  0
   59.6939   30.5417   44.8573 H   0  0  0  0  0  0  0  0  0  0  0  0
   59.5790   34.3000   46.5420 C   0  0  0  0  0  0  0  0  0  0  0  0
   59.6935   35.1559   45.8606 H   0  0  0  0  0  0  0  0  0  0  0  0
   58.8177   34.5110   47.3074 H   0  0  0  0  0  0  0  0  0  0  0  0
   60.8940   34.0450   47.2360 C   0  0  0  0  0  0  0  0  0  0  0  0
   62.0070   33.5950   46.5060 C   0  0  0  0  0  0  0  0  0  0  0  0
   61.9323   33.4695   45.4157 H   0  0  0  0  0  0  0  0  0  0  0  0
   63.2090   33.3060   47.1590 C   0  0  0  0  0  0  0  0  0  0  0  0
   64.0774   32.9562   46.5815 H   0  0  0  0  0  0  0  0  0  0  0  0
   63.3090   33.4610   48.5460 C   0  0  0  0  0  0  0  0  0  0  0  0
   64.8160   33.0950   49.3630 Cl  0  0  0  0  0  0  0  0  0  0  0  0
   62.2030   33.9020   49.2790 C   0  0  0  0  0  0  0  0  0  0  0  0
   62.2803   34.0227   50.3696 H   0  0  0  0  0  0  0  0  0  0  0  0
   60.9990   34.1900   48.6290 C   0  0  0  0  0  0  0  0  0  0  0  0
   60.1304   34.5316   49.2111 H   0  0  0  0  0  0  0  0  0  0  0  0
   57.1590   30.9890   43.2420 C   0  0  0  0  0  0  0  0  0  0  0  0
   57.8790   31.6182   42.6982 H   0  0  0  0  0  0  0  0  0  0  0  0
  1  2  1  0
  2  3  1  0
  3  4  1  0
  4  5  1  0
  4  6  1  0
  6  7  2  0
  7  8  1  0
  8  9  2  0
  8 10  1  0
 10 11  1  6
 10 12  1  0
 12 13  2  0
 13 14  1  0
 13 15  1  0
 15 16  1  0
 15 17  2  0
 17 18  1  0
 17 19  1  0
 19 20  1  0
 19 21  2  0
 21 22  1  0
 10 23  1  0
 23 24  1  0
 23 25  1  0
 23 26  1  0
 26 27  2  0
 27 28  1  0
 27 29  1  0
 29 30  1  0
 29 31  2  0
 31 32  1  0
 31 33  1  0
 33 34  1  0
 33 35  2  0
 35 36  1  0
  6 37  1  0
 37 38  1  0
 37  2  2  0
 21 12  1  0
 35 26  1  0
M  END
>  <UniqueID>  (61) 
55

>  <SMILES>  (61) 
O=C(/N=c1\cco[nH]1)[C@@H](Cc1ccc(Cl)cc1)c1cccc(Br)c1

>  <Energy>  (61) 
74.18019181497803

>  <Genealogy>  (61) 
O=C(N=c1cco[nH]1)[C@@H](Cc1ccc(Cl)cc1)c1cccc(Br)c1 (chirality)
O=C(/N=c1\cco[nH]1)[C@@H](Cc1ccc(Cl)cc1)c1cccc(Br)c1 (cis-trans isomerization)
O=C(/N=c1\cco[nH]1)[C@@H](Cc1ccc(Cl)cc1)c1cccc(Br)c1 (3D coordinates assigned)
O=C(/N=c1\cco[nH]1)[C@@H](Cc1ccc(Cl)cc1)c1cccc(Br)c1 (optimized conformer: 74.18019181497803 kcal/mol)

>  <smiles>  (61) 
O=C(N=c1cco[nH]1)C(Cc1ccc(Cl)cc1)c1cccc(Br)c1

>  <score_type>  (61) 
oracle

>  <origin>  (61) 
adg

>  <m_score__min__energy>  (61) 
-8.8399999999999999

>  <m_primary>  (61) 
energy

$$$$
61:0
     RDKit          3D

 46 49  0  0  0  0  0  0  0  0999 V2000
   60.4680   33.6980   53.4850 N   0  0  0  0  0  0  0  0  0  0  0  0
   59.5180   32.7050   53.8830 C   0  0  0  0  0  0  0  0  0  0  0  0
   59.5850   32.2290   55.0450 O   0  0  0  0  0  0  0  0  0  0  0  0
   58.4660   32.2340   52.9560 C   0  0  0  0  0  0  0  0  0  0  0  0
   58.2060   32.6840   51.6600 C   0  0  0  0  0  0  0  0  0  0  0  0
   58.9150   33.7390   51.0010 N   0  0  0  0  0  0  0  0  0  0  0  0
   60.0090   33.5250   50.1020 C   0  0  0  0  0  0  0  0  0  0  0  0
   61.1560   33.9350   50.4220 O   0  0  0  0  0  0  0  0  0  0  0  0
   59.8360   32.8360   48.8530 N   0  0  0  0  0  0  0  0  0  0  0  0
   59.3030   33.4150   47.6530 C   0  0  0  0  0  0  0  0  0  0  0  0
   58.0550   33.0160   47.1410 C   0  0  0  0  0  0  0  0  0  0  0  0
   57.5820   33.5610   45.9410 C   0  0  0  0  0  0  0  0  0  0  0  0
   58.3430   34.5120   45.2530 C   0  0  0  0  0  0  0  0  0  0  0  0
   59.5690   34.9350   45.7720 C   0  0  0  0  0  0  0  0  0  0  0  0
   60.0420   34.3960   46.9740 C   0  0  0  0  0  0  0  0  0  0  0  0
   57.1110   32.0810   51.1410 N   0  0  0  0  0  0  0  0  0  0  0  0
   56.6560   31.2640   52.1060 C   0  0  0  0  0  0  0  0  0  0  0  0
   55.5250   30.4540   52.0470 C   0  0  0  0  0  0  0  0  0  0  0  0
   55.1910   29.6770   53.1810 C   0  0  0  0  0  0  0  0  0  0  0  0
   53.9950   28.8010   53.1590 C   0  0  0  0  0  0  0  0  0  0  0  0
   53.9820   27.7620   53.8680 O   0  0  0  0  0  0  0  0  0  0  0  0
   52.8640   29.1680   52.3440 N   0  0  0  0  0  0  0  0  0  0  0  0
   52.2610   30.3160   52.1580 C   0  0  0  0  0  0  0  0  0  0  0  0
   52.3250   30.8900   50.8790 C   0  0  0  0  0  0  0  0  0  0  0  0
   51.6950   32.1080   50.6250 C   0  0  0  0  0  0  0  0  0  0  0  0
   51.0200   32.7460   51.6160 N   0  0  0  0  0  0  0  0  0  0  0  0
   50.9380   32.2240   52.8670 C   0  0  0  0  0  0  0  0  0  0  0  0
   51.5470   31.0020   53.1650 C   0  0  0  0  0  0  0  0  0  0  0  0
   56.0120   29.7530   54.3360 C   0  0  0  0  0  0  0  0  0  0  0  0
   57.1480   30.5810   54.3660 C   0  0  0  0  0  0  0  0  0  0  0  0
   57.4440   31.3320   53.2260 C   0  0  0  0  0  0  0  0  0  0  0  0
   60.5440   34.0110   52.4950 H   0  0  0  0  0  0  0  0  0  0  0  0
   61.1470   34.0820   54.1810 H   0  0  0  0  0  0  0  0  0  0  0  0
   57.4500   32.2750   47.6840 H   0  0  0  0  0  0  0  0  0  0  0  0
   56.6098   33.2406   45.5384 H   0  0  0  0  0  0  0  0  0  0  0  0
   57.9758   34.9270   44.3028 H   0  0  0  0  0  0  0  0  0  0  0  0
   60.1621   35.6910   45.2365 H   0  0  0  0  0  0  0  0  0  0  0  0
   60.9994   34.7437   47.3893 H   0  0  0  0  0  0  0  0  0  0  0  0
   56.6840   32.2370   50.2010 H   0  0  0  0  0  0  0  0  0  0  0  0
   54.9051   30.4191   51.1390 H   0  0  0  0  0  0  0  0  0  0  0  0
   52.8735   30.3779   50.0747 H   0  0  0  0  0  0  0  0  0  0  0  0
   51.7449   32.5528   49.6202 H   0  0  0  0  0  0  0  0  0  0  0  0
   50.3888   32.7664   53.6507 H   0  0  0  0  0  0  0  0  0  0  0  0
   51.4708   30.5774   54.1769 H   0  0  0  0  0  0  0  0  0  0  0  0
   55.7554   29.1543   55.2224 H   0  0  0  0  0  0  0  0  0  0  0  0
   57.7850   30.6358   55.2611 H   0  0  0  0  0  0  0  0  0  0  0  0
  1  2  1  0
  2  3  2  0
  2  4  1  0
  4  5  2  0
  5  6  1  0
  6  7  1  0
  7  8  2  0
  7  9  1  0
  9 10  1  0
 10 11  2  0
 11 12  1  0
 12 13  2  0
 13 14  1  0
 14 15  2  0
  5 16  1  0
 16 17  1  0
 17 18  2  0
 18 19  1  0
 19 20  1  0
 20 21  2  0
 20 22  1  0
 22 23  2  3
 23 24  1  0
 24 25  2  0
 25 26  1  0
 26 27  1  0
 27 28  2  0
 19 29  2  0
 29 30  1  0
 30 31  2  0
 31  4  1  0
 15 10  1  0
 31 17  1  0
 28 23  1  0
  1 32  1  0
  1 33  1  0
 11 34  1  0
 12 35  1  0
 13 36  1  0
 14 37  1  0
 15 38  1  0
 16 39  1  0
 18 40  1  0
 24 41  1  0
 25 42  1  0
 27 43  1  0
 28 44  1  0
 29 45  1  0
 30 46  1  0
M  CHG  3   6  -1   9  -1  26  -1
M  END
>  <UniqueID>  (62) 
56

>  <SMILES>  (62) 
NC(=O)c1c([N-]C(=O)[N-]c2ccccc2)[nH]c2cc(C(=O)N=c3cc[n-]cc3)ccc12

>  <Energy>  (62) 
101.22700486227203

>  <Genealogy>  (62) 
NC(=O)c1c([N-]C(=O)[N-]c2ccccc2)[nH]c2cc(C(=O)N=c3cc[n-]cc3)ccc12 (protonated)
NC(=O)c1c([N-]C(=O)[N-]c2ccccc2)[nH]c2cc(C(=O)N=c3cc[n-]cc3)ccc12 (3D coordinates assigned)
NC(=O)c1c([N-]C(=O)[N-]c2ccccc2)[nH]c2cc(C(=O)N=c3cc[n-]cc3)ccc12 (optimized conformer: 101.22700486227203 kcal/mol)

>  <smiles>  (62) 
NC(=O)c1c(NC(=O)Nc2ccccc2)[nH]c2cc(C(=O)N=c3cc[nH]cc3)ccc12

>  <score_type>  (62) 
oracle

>  <origin>  (62) 
adg

>  <m_score__min__energy>  (62) 
-12.960000000000001

>  <m_primary>  (62) 
energy

$$$$
62:0
     RDKit          3D

 52 54  0  0  0  0  0  0  0  0999 V2000
   63.7430   33.6100   47.2250 C   0  0  0  0  0  0  0  0  0  0  0  0
   62.3540   33.0540   47.1300 C   0  0  0  0  0  0  0  0  0  0  0  0
   62.1040   31.7130   47.4570 C   0  0  0  0  0  0  0  0  0  0  0  0
   60.8160   31.1850   47.3290 C   0  0  0  0  0  0  0  0  0  0  0  0
   59.7620   31.9870   46.8760 C   0  0  0  0  0  0  0  0  0  0  0  0
   58.4890   31.4120   46.7450 O   0  0  0  0  0  0  0  0  0  0  0  0
   58.2230   30.1120   46.2900 C   0  0  0  0  0  0  0  0  0  0  0  0
   57.6580   29.8660   45.0260 C   0  0  0  0  0  0  0  0  0  0  0  0
   57.3990   28.5570   44.6120 C   0  0  0  0  0  0  0  0  0  0  0  0
   57.6970   27.4730   45.4510 C   0  0  0  0  0  0  0  0  0  0  0  0
   57.4290   26.1370   44.9900 N   0  0  0  0  0  0  0  0  0  0  0  0
   58.2020   24.9590   45.3950 C   0  0  0  0  0  0  0  0  0  0  0  0
   57.3050   23.7070   45.5310 C   0  0  2  0  0  0  0  0  0  0  0  0
   58.1120   22.4110   45.2300 C   0  0  0  0  0  0  0  0  0  0  0  0
   58.1260   22.0510   43.7410 C   0  0  0  0  0  0  0  0  0  0  0  0
   56.7220   22.0740   43.1100 C   0  0  0  0  0  0  0  0  0  0  0  0
   55.6460   22.5990   44.0650 C   0  0  0  0  0  0  0  0  0  0  0  0
   56.0850   23.8600   44.6870 N   0  0  0  0  0  0  0  0  0  0  0  0
   54.7630   24.5320   45.6190 S   0  0  0  0  0  0  0  0  0  0  0  0
   53.2010   24.0840   44.8910 C   0  0  0  0  0  0  0  0  0  0  0  0
   54.8530   26.0330   45.6390 O   0  0  0  0  0  0  0  0  0  0  0  0
   54.8150   24.0210   47.0320 O   0  0  0  0  0  0  0  0  0  0  0  0
   58.2230   27.7240   46.7320 C   0  0  0  0  0  0  0  0  0  0  0  0
   58.4810   29.0360   47.1430 C   0  0  0  0  0  0  0  0  0  0  0  0
   60.0200   33.3210   46.5150 C   0  0  0  0  0  0  0  0  0  0  0  0
   61.3070   33.8510   46.6440 C   0  0  0  0  0  0  0  0  0  0  0  0
   64.0217   33.7216   48.2832 H   0  0  0  0  0  0  0  0  0  0  0  0
   64.4470   32.9244   46.7307 H   0  0  0  0  0  0  0  0  0  0  0  0
   63.7795   34.5920   46.7307 H   0  0  0  0  0  0  0  0  0  0  0  0
   62.9247   31.0744   47.8156 H   0  0  0  0  0  0  0  0  0  0  0  0
   60.6295   30.1319   47.5861 H   0  0  0  0  0  0  0  0  0  0  0  0
   57.4188   30.7082   44.3600 H   0  0  0  0  0  0  0  0  0  0  0  0
   56.9581   28.3751   43.6208 H   0  0  0  0  0  0  0  0  0  0  0  0
   56.6200   25.9980   44.3440 H   0  0  0  0  0  0  0  0  0  0  0  0
   58.9760   24.7628   44.6384 H   0  0  0  0  0  0  0  0  0  0  0  0
   58.6542   25.1657   46.3762 H   0  0  0  0  0  0  0  0  0  0  0  0
   56.9604   23.6094   46.5711 H   0  0  0  0  0  0  0  0  0  0  0  0
   59.1493   22.5573   45.5657 H   0  0  0  0  0  0  0  0  0  0  0  0
   57.6217   21.5845   45.7653 H   0  0  0  0  0  0  0  0  0  0  0  0
   58.7621   22.7746   43.2102 H   0  0  0  0  0  0  0  0  0  0  0  0
   58.5134   21.0254   43.6512 H   0  0  0  0  0  0  0  0  0  0  0  0
   56.7477   22.7212   42.2209 H   0  0  0  0  0  0  0  0  0  0  0  0
   56.4585   21.0369   42.8551 H   0  0  0  0  0  0  0  0  0  0  0  0
   54.7171   22.7758   43.5030 H   0  0  0  0  0  0  0  0  0  0  0  0
   55.4730   21.8523   44.8540 H   0  0  0  0  0  0  0  0  0  0  0  0
   52.4718   23.8748   45.6875 H   0  0  0  0  0  0  0  0  0  0  0  0
   52.8355   24.9135   44.2679 H   0  0  0  0  0  0  0  0  0  0  0  0
   53.3308   23.1869   44.2679 H   0  0  0  0  0  0  0  0  0  0  0  0
   58.4320   26.8854   47.4125 H   0  0  0  0  0  0  0  0  0  0  0  0
   58.8907   29.2222   48.1467 H   0  0  0  0  0  0  0  0  0  0  0  0
   59.2050   33.9509   46.1291 H   0  0  0  0  0  0  0  0  0  0  0  0
   61.4995   34.8970   46.3633 H   0  0  0  0  0  0  0  0  0  0  0  0
  1  2  1  0
  2  3  2  0
  3  4  1  0
  4  5  2  0
  5  6  1  0
  6  7  1  0
  7  8  2  0
  8  9  1  0
  9 10  2  0
 10 11  1  0
 11 12  1  0
 12 13  1  0
 13 14  1  0
 14 15  1  0
 15 16  1  0
 16 17  1  0
 17 18  1  0
 18 19  1  0
 19 20  1  0
 19 21  2  0
 19 22  2  0
 10 23  1  0
 23 24  2  0
  5 25  1  0
 25 26  2  0
 26  2  1  0
 24  7  1  0
 18 13  1  0
  1 27  1  0
  1 28  1  0
  1 29  1  0
  3 30  1  0
  4 31  1  0
  8 32  1  0
  9 33  1  0
 11 34  1  0
 12 35  1  0
 12 36  1  0
 13 37  1  1
 14 38  1  0
 14 39  1  0
 15 40  1  0
 15 41  1  0
 16 42  1  0
 16 43  1  0
 17 44  1  0
 17 45  1  0
 20 46  1  0
 20 47  1  0
 20 48  1  0
 23 49  1  0
 24 50  1  0
 25 51  1  0
 26 52  1  0
M  END
>  <UniqueID>  (63) 
57

>  <SMILES>  (63) 
Cc1ccc(Oc2ccc(NC[C@@H]3CCCCN3S(C)(=O)=O)cc2)cc1

>  <Energy>  (63) 
60.480357963591274

>  <Genealogy>  (63) 
Cc1ccc(Oc2ccc(NC[C@@H]3CCCCN3S(C)(=O)=O)cc2)cc1 (chirality)
Cc1ccc(Oc2ccc(NC[C@@H]3CCCCN3S(C)(=O)=O)cc2)cc1 (3D coordinates assigned)
Cc1ccc(Oc2ccc(NC[C@@H]3CCCCN3S(C)(=O)=O)cc2)cc1 (nonaromatic ring conformer: 60.480357963591274 kcal/mol)

>  <smiles>  (63) 
Cc1ccc(Oc2ccc(NCC3CCCCN3S(C)(=O)=O)cc2)cc1

>  <score_type>  (63) 
oracle

>  <origin>  (63) 
adg

>  <m_score__min__energy>  (63) 
-8.2599999999999998

>  <m_primary>  (63) 
energy

$$$$
63:0
     RDKit          3D

 42 44  0  0  0  0  0  0  0  0999 V2000
   55.4290   29.3770   45.0780 O   0  0  0  0  0  0  0  0  0  0  0  0
   56.7060   29.4090   44.4940 C   0  0  2  0  0  0  0  0  0  0  0  0
   57.5400   28.2560   45.0000 C   0  0  0  0  0  0  0  0  0  0  0  0
   56.9410   27.1570   45.6460 C   0  0  0  0  0  0  0  0  0  0  0  0
   57.7300   26.1170   46.1480 C   0  0  0  0  0  0  0  0  0  0  0  0
   59.1200   26.1670   46.0200 C   0  0  0  0  0  0  0  0  0  0  0  0
   59.7250   27.2600   45.3950 C   0  0  0  0  0  0  0  0  0  0  0  0
   58.9420   28.3030   44.8920 C   0  0  0  0  0  0  0  0  0  0  0  0
   57.4080   30.7160   44.7970 C   0  0  0  0  0  0  0  0  0  0  0  0
   57.8230   31.0000   46.1090 C   0  0  0  0  0  0  0  0  0  0  0  0
   58.4370   32.2190   46.4090 C   0  0  0  0  0  0  0  0  0  0  0  0
   58.6270   33.1830   45.4070 C   0  0  0  0  0  0  0  0  0  0  0  0
   59.3230   34.4790   45.7220 C   0  0  0  0  0  0  0  0  0  0  0  0
   60.3950   34.2560   46.7540 C   0  0  0  0  0  0  0  0  0  0  0  0
   60.1210   34.4570   48.1150 C   0  0  0  0  0  0  0  0  0  0  0  0
   61.1060   34.2150   49.0770 C   0  0  0  0  0  0  0  0  0  0  0  0
   62.3730   33.7400   48.6960 C   0  0  0  0  0  0  0  0  0  0  0  0
   63.4510   33.5240   49.7280 C   0  0  0  0  0  0  0  0  0  0  0  0
   63.5100   34.5940   50.6030 F   0  0  0  0  0  0  0  0  0  0  0  0
   63.2020   32.3770   50.4630 F   0  0  0  0  0  0  0  0  0  0  0  0
   64.6710   33.3940   49.0910 F   0  0  0  0  0  0  0  0  0  0  0  0
   62.6480   33.5510   47.3300 C   0  0  0  0  0  0  0  0  0  0  0  0
   61.6620   33.7950   46.3690 C   0  0  0  0  0  0  0  0  0  0  0  0
   58.2100   32.9030   44.0970 C   0  0  0  0  0  0  0  0  0  0  0  0
   57.5960   31.6850   43.7950 C   0  0  0  0  0  0  0  0  0  0  0  0
   55.5240   29.7400   45.9980 H   0  0  0  0  0  0  0  0  0  0  0  0
   56.5838   29.3208   43.4044 H   0  0  0  0  0  0  0  0  0  0  0  0
   55.8473   27.1165   45.7562 H   0  0  0  0  0  0  0  0  0  0  0  0
   57.2550   25.2581   46.6446 H   0  0  0  0  0  0  0  0  0  0  0  0
   59.7383   25.3457   46.4114 H   0  0  0  0  0  0  0  0  0  0  0  0
   60.8200   27.3000   45.2984 H   0  0  0  0  0  0  0  0  0  0  0  0
   59.4247   29.1654   44.4090 H   0  0  0  0  0  0  0  0  0  0  0  0
   57.6636   30.2580   46.9052 H   0  0  0  0  0  0  0  0  0  0  0  0
   58.7732   32.4240   47.4361 H   0  0  0  0  0  0  0  0  0  0  0  0
   59.7795   34.8786   44.8044 H   0  0  0  0  0  0  0  0  0  0  0  0
   58.5872   35.1945   46.1178 H   0  0  0  0  0  0  0  0  0  0  0  0
   59.1259   34.8069   48.4269 H   0  0  0  0  0  0  0  0  0  0  0  0
   60.8881   34.3976   50.1396 H   0  0  0  0  0  0  0  0  0  0  0  0
   63.6451   33.2090   47.0154 H   0  0  0  0  0  0  0  0  0  0  0  0
   61.8816   33.6243   45.3047 H   0  0  0  0  0  0  0  0  0  0  0  0
   58.3675   33.6473   43.3025 H   0  0  0  0  0  0  0  0  0  0  0  0
   57.2578   31.4827   42.7680 H   0  0  0  0  0  0  0  0  0  0  0  0
  1  2  1  0
  2  3  1  0
  3  4  2  0
  4  5  1  0
  5  6  2  0
  6  7  1  0
  7  8  2  0
  2  9  1  0
  9 10  2  0
 10 11  1  0
 11 12  2  0
 12 13  1  0
 13 14  1  0
 14 15  2  0
 15 16  1  0
 16 17  2  0
 17 18  1  0
 18 19  1  0
 18 20  1  0
 18 21  1  0
 17 22  1  0
 22 23  2  0
 12 24  1  0
 24 25  2  0
  8  3  1  0
 25  9  1  0
 23 14  1  0
  1 26  1  0
  2 27  1  6
  4 28  1  0
  5 29  1  0
  6 30  1  0
  7 31  1  0
  8 32  1  0
 10 33  1  0
 11 34  1  0
 13 35  1  0
 13 36  1  0
 15 37  1  0
 16 38  1  0
 22 39  1  0
 23 40  1  0
 24 41  1  0
 25 42  1  0
M  END
>  <UniqueID>  (64) 
58

>  <SMILES>  (64) 
O[C@H](c1ccccc1)c1ccc(Cc2ccc(C(F)(F)F)cc2)cc1

>  <Energy>  (64) 
44.11613859590086

>  <Genealogy>  (64) 
O[C@H](c1ccccc1)c1ccc(Cc2ccc(C(F)(F)F)cc2)cc1 (chirality)
O[C@H](c1ccccc1)c1ccc(Cc2ccc(C(F)(F)F)cc2)cc1 (3D coordinates assigned)
O[C@H](c1ccccc1)c1ccc(Cc2ccc(C(F)(F)F)cc2)cc1 (optimized conformer: 44.11613859590086 kcal/mol)

>  <smiles>  (64) 
OC(c1ccccc1)c1ccc(Cc2ccc(C(F)(F)F)cc2)cc1

>  <score_type>  (64) 
oracle

>  <origin>  (64) 
adg

>  <m_score__min__energy>  (64) 
-9.1500000000000004

>  <m_primary>  (64) 
energy

$$$$
64:0
     RDKit          3D

 28 29  0  0  0  0  0  0  0  0999 V2000
   56.3660   29.7300   42.6170 C   0  0  0  0  0  0  0  0  0  0  0  0
   56.4450   29.9420   44.3820 S   0  0  0  0  0  0  0  0  0  0  0  0
   55.5180   28.9560   45.0350 O   0  0  0  0  0  0  0  0  0  0  0  0
   56.0020   31.3290   44.7530 O   0  0  0  0  0  0  0  0  0  0  0  0
   58.0870   29.6550   44.9510 C   0  0  0  0  0  0  0  0  0  0  0  0
   58.6880   28.3900   44.8910 C   0  0  0  0  0  0  0  0  0  0  0  0
   59.9580   28.3480   45.4530 C   0  0  0  0  0  0  0  0  0  0  0  0
   60.3410   29.8810   46.0300 S   0  0  0  0  0  0  0  0  0  0  0  0
   58.9020   30.6080   45.5600 C   0  0  0  0  0  0  0  0  0  0  0  0
   58.5980   31.9920   45.7680 N   0  0  0  0  0  0  0  0  0  0  0  0
   58.3110   32.4850   47.1150 C   0  0  0  0  0  0  0  0  0  0  0  0
   58.9150   33.8820   47.2860 C   0  0  0  0  0  0  0  0  0  0  0  0
   58.5190   34.7370   46.2280 O   0  0  0  0  0  0  0  0  0  0  0  0
   59.0520   34.2670   45.0030 C   0  0  0  0  0  0  0  0  0  0  0  0
   58.4530   32.9060   44.6360 C   0  0  0  0  0  0  0  0  0  0  0  0
   55.9905   28.7224   42.3852 H   0  0  0  0  0  0  0  0  0  0  0  0
   55.6877   30.4819   42.1874 H   0  0  0  0  0  0  0  0  0  0  0  0
   57.3709   29.8547   42.1874 H   0  0  0  0  0  0  0  0  0  0  0  0
   58.1999   27.5128   44.4412 H   0  0  0  0  0  0  0  0  0  0  0  0
   60.6051   27.4603   45.5110 H   0  0  0  0  0  0  0  0  0  0  0  0
   57.2222   32.5355   47.2628 H   0  0  0  0  0  0  0  0  0  0  0  0
   58.7501   31.8020   47.8571 H   0  0  0  0  0  0  0  0  0  0  0  0
   58.5727   34.3080   48.2406 H   0  0  0  0  0  0  0  0  0  0  0  0
   60.0115   33.7945   47.2755 H   0  0  0  0  0  0  0  0  0  0  0  0
   58.8191   34.9899   44.2073 H   0  0  0  0  0  0  0  0  0  0  0  0
   60.1409   34.1553   45.1119 H   0  0  0  0  0  0  0  0  0  0  0  0
   57.3864   33.0269   44.3959 H   0  0  0  0  0  0  0  0  0  0  0  0
   58.9798   32.4957   43.7619 H   0  0  0  0  0  0  0  0  0  0  0  0
  1  2  1  0
  2  3  2  0
  2  4  2  0
  2  5  1  0
  5  6  1  0
  6  7  2  0
  7  8  1  0
  8  9  1  0
  9 10  1  0
 10 11  1  0
 11 12  1  0
 12 13  1  0
 13 14  1  0
 14 15  1  0
  9  5  2  0
 15 10  1  0
  1 16  1  0
  1 17  1  0
  1 18  1  0
  6 19  1  0
  7 20  1  0
 11 21  1  0
 11 22  1  0
 12 23  1  0
 12 24  1  0
 14 25  1  0
 14 26  1  0
 15 27  1  0
 15 28  1  0
M  END
>  <UniqueID>  (65) 
59

>  <SMILES>  (65) 
CS(=O)(=O)c1ccsc1N1CCOCC1

>  <Energy>  (65) 
57.119043306140355

>  <Genealogy>  (65) 
CS(=O)(=O)c1ccsc1N1CCOCC1 (3D coordinates assigned)
CS(=O)(=O)c1ccsc1N1CCOCC1 (nonaromatic ring conformer: 57.119043306140355 kcal/mol)

>  <smiles>  (65) 
CS(=O)(=O)c1ccsc1N1CCOCC1

>  <score_type>  (65) 
oracle

>  <origin>  (65) 
adg

>  <m_score__min__energy>  (65) 
-6.4299999999999997

>  <m_primary>  (65) 
energy

$$$$
65:0
     RDKit          3D

 43 44  0  0  0  0  0  0  0  0999 V2000
   60.3690   34.5620   47.3300 C   0  0  0  0  0  0  0  0  0  0  0  0
   59.2430   34.7830   46.4880 O   0  0  0  0  0  0  0  0  0  0  0  0
   58.6740   33.8130   45.6480 C   0  0  0  0  0  0  0  0  0  0  0  0
   58.7740   33.8870   44.2460 C   0  0  0  0  0  0  0  0  0  0  0  0
   58.2010   32.9010   43.4430 C   0  0  0  0  0  0  0  0  0  0  0  0
   57.4890   31.8390   44.0210 C   0  0  0  0  0  0  0  0  0  0  0  0
   56.8880   30.7570   43.1530 C   0  0  0  0  0  0  0  0  0  0  0  0
   57.2830   29.3420   43.5990 C   0  0  0  0  0  0  0  0  0  0  0  0
   56.3950   28.8490   44.6710 N   0  0  0  0  0  0  0  0  0  0  0  0
   57.0600   28.8080   45.9820 C   0  0  0  0  0  0  0  0  0  0  0  0
   58.0330   27.6530   46.0580 C   0  0  0  0  0  0  0  0  0  0  0  0
   59.4060   27.9390   45.9440 C   0  0  0  0  0  0  0  0  0  0  0  0
   60.3570   26.9270   46.0400 C   0  0  0  0  0  0  0  0  0  0  0  0
   59.9570   25.6100   46.2460 C   0  0  0  0  0  0  0  0  0  0  0  0
   58.6010   25.2970   46.3640 C   0  0  0  0  0  0  0  0  0  0  0  0
   58.2510   23.9950   46.5200 F   0  0  0  0  0  0  0  0  0  0  0  0
   57.6180   26.3070   46.2820 C   0  0  0  0  0  0  0  0  0  0  0  0
   56.1900   25.9280   46.4520 C   0  0  0  0  0  0  0  0  0  0  0  0
   55.8860   24.8560   47.0400 O   0  0  0  0  0  0  0  0  0  0  0  0
   55.1670   26.7170   45.9440 O   0  0  0  0  0  0  0  0  0  0  0  0
   57.3980   31.7560   45.4190 C   0  0  0  0  0  0  0  0  0  0  0  0
   57.9960   32.7350   46.2380 C   0  0  0  0  0  0  0  0  0  0  0  0
   57.9510   32.6670   47.6390 O   0  0  0  0  0  0  0  0  0  0  0  0
   58.8120   31.8610   48.4370 C   0  0  0  0  0  0  0  0  0  0  0  0
   60.0570   34.6232   48.3831 H   0  0  0  0  0  0  0  0  0  0  0  0
   60.7871   33.5647   47.1289 H   0  0  0  0  0  0  0  0  0  0  0  0
   61.1331   35.3273   47.1289 H   0  0  0  0  0  0  0  0  0  0  0  0
   59.3079   34.7285   43.7803 H   0  0  0  0  0  0  0  0  0  0  0  0
   58.3079   32.9563   42.3496 H   0  0  0  0  0  0  0  0  0  0  0  0
   55.7922   30.8440   43.1927 H   0  0  0  0  0  0  0  0  0  0  0  0
   57.2745   30.9006   42.1332 H   0  0  0  0  0  0  0  0  0  0  0  0
   57.2148   28.6625   42.7366 H   0  0  0  0  0  0  0  0  0  0  0  0
   58.3113   29.3754   43.9883 H   0  0  0  0  0  0  0  0  0  0  0  0
   56.1240   27.8670   44.4330 H   0  0  0  0  0  0  0  0  0  0  0  0
   57.6063   29.7499   46.1383 H   0  0  0  0  0  0  0  0  0  0  0  0
   56.2943   28.6741   46.7603 H   0  0  0  0  0  0  0  0  0  0  0  0
   59.7322   28.9761   45.7768 H   0  0  0  0  0  0  0  0  0  0  0  0
   61.4266   27.1687   45.9529 H   0  0  0  0  0  0  0  0  0  0  0  0
   60.7116   24.8127   46.3161 H   0  0  0  0  0  0  0  0  0  0  0  0
   56.8544   30.9183   45.8803 H   0  0  0  0  0  0  0  0  0  0  0  0
   58.6094   32.0506   49.5014 H   0  0  0  0  0  0  0  0  0  0  0  0
   58.6320   30.7992   48.2130 H   0  0  0  0  0  0  0  0  0  0  0  0
   59.8596   32.1106   48.2130 H   0  0  0  0  0  0  0  0  0  0  0  0
  1  2  1  0
  2  3  1  0
  3  4  2  0
  4  5  1  0
  5  6  2  0
  6  7  1  0
  7  8  1  0
  8  9  1  0
  9 10  1  0
 10 11  1  0
 11 12  2  0
 12 13  1  0
 13 14  2  0
 14 15  1  0
 15 16  1  0
 15 17  2  0
 17 18  1  0
 18 19  2  0
 18 20  1  0
  6 21  1  0
 21 22  2  0
 22 23  1  0
 23 24  1  0
 22  3  1  0
 17 11  1  0
  1 25  1  0
  1 26  1  0
  1 27  1  0
  4 28  1  0
  5 29  1  0
  7 30  1  0
  7 31  1  0
  8 32  1  0
  8 33  1  0
  9 34  1  0
 10 35  1  0
 10 36  1  0
 12 37  1  0
 13 38  1  0
 14 39  1  0
 21 40  1  0
 24 41  1  0
 24 42  1  0
 24 43  1  0
M  CHG  1  20  -1
M  END
>  <UniqueID>  (66) 
60

>  <SMILES>  (66) 
COc1ccc(CCNCc2cccc(F)c2C(=O)[O-])cc1OC

>  <Energy>  (66) 
45.442336175246766

>  <Genealogy>  (66) 
COc1ccc(CCNCc2cccc(F)c2C(=O)[O-])cc1OC (protonated)
COc1ccc(CCNCc2cccc(F)c2C(=O)[O-])cc1OC (3D coordinates assigned)
COc1ccc(CCNCc2cccc(F)c2C(=O)[O-])cc1OC (optimized conformer: 45.442336175246766 kcal/mol)

>  <smiles>  (66) 
COc1ccc(CCNCc2cccc(F)c2C(=O)O)cc1OC

>  <score_type>  (66) 
oracle

>  <origin>  (66) 
adg

>  <m_score__min__energy>  (66) 
-10.210000000000001

>  <m_primary>  (66) 
energy

$$$$
66:0
     RDKit          3D

 26 26  0  0  0  0  0  0  0  0999 V2000
   55.1380   29.4080   44.8900 N   0  0  0  0  0  0  0  0  0  0  0  0
   56.6660   29.8140   44.1910 S   0  0  0  0  0  0  0  0  0  0  0  0
   56.5580   31.1570   43.5270 O   0  0  0  0  0  0  0  0  0  0  0  0
   57.0340   28.7850   43.1600 O   0  0  0  0  0  0  0  0  0  0  0  0
   57.9390   29.8880   45.4450 C   0  0  0  0  0  0  0  0  0  0  0  0
   58.4190   28.4930   45.8630 C   0  0  0  0  0  0  0  0  0  0  0  0
   57.4260   27.4620   45.5550 N   0  0  0  0  0  0  0  0  0  0  0  0
   57.6470   26.0890   45.9150 C   0  0  0  0  0  0  0  0  0  0  0  0
   58.6910   25.7690   46.5470 O   0  0  0  0  0  0  0  0  0  0  0  0
   56.6450   25.0440   45.6010 C   0  0  0  0  0  0  0  0  0  0  0  0
   57.0860   23.7670   45.2100 C   0  0  0  0  0  0  0  0  0  0  0  0
   56.1650   22.7560   44.9170 C   0  0  0  0  0  0  0  0  0  0  0  0
   56.6030   21.5250   44.5520 F   0  0  0  0  0  0  0  0  0  0  0  0
   54.7960   23.0120   45.0030 C   0  0  0  0  0  0  0  0  0  0  0  0
   54.3440   24.2800   45.3710 C   0  0  0  0  0  0  0  0  0  0  0  0
   55.2580   25.2990   45.6610 C   0  0  0  0  0  0  0  0  0  0  0  0
   54.7740   26.5640   45.9750 O   0  0  0  0  0  0  0  0  0  0  0  0
   55.3180   28.6740   45.6110 H   0  0  0  0  0  0  0  0  0  0  0  0
   58.7951   30.4535   45.0484 H   0  0  0  0  0  0  0  0  0  0  0  0
   57.5124   30.3792   46.3320 H   0  0  0  0  0  0  0  0  0  0  0  0
   59.3510   28.2614   45.3265 H   0  0  0  0  0  0  0  0  0  0  0  0
   58.5804   28.4985   46.9511 H   0  0  0  0  0  0  0  0  0  0  0  0
   56.5010   27.7380   45.1570 H   0  0  0  0  0  0  0  0  0  0  0  0
   58.1640   23.5617   45.1340 H   0  0  0  0  0  0  0  0  0  0  0  0
   54.0726   22.2138   44.7806 H   0  0  0  0  0  0  0  0  0  0  0  0
   53.2640   24.4793   45.4334 H   0  0  0  0  0  0  0  0  0  0  0  0
  1  2  1  0
  2  3  2  0
  2  4  2  0
  2  5  1  0
  5  6  1  0
  6  7  1  0
  7  8  1  0
  8  9  2  0
  8 10  1  0
 10 11  2  0
 11 12  1  0
 12 13  1  0
 12 14  2  0
 14 15  1  0
 15 16  2  0
 16 17  1  0
 16 10  1  0
  1 18  1  0
  5 19  1  0
  5 20  1  0
  6 21  1  0
  6 22  1  0
  7 23  1  0
 11 24  1  0
 14 25  1  0
 15 26  1  0
M  CHG  2   1  -1  17  -1
M  END
>  <UniqueID>  (67) 
61

>  <SMILES>  (67) 
[NH-]S(=O)(=O)CCNC(=O)c1cc(F)ccc1[O-]

>  <Energy>  (67) 
20.602233987990797

>  <Genealogy>  (67) 
[NH-]S(=O)(=O)CCNC(=O)c1cc(F)ccc1[O-] (protonated)
[NH-]S(=O)(=O)CCNC(=O)c1cc(F)ccc1[O-] (3D coordinates assigned)
[NH-]S(=O)(=O)CCNC(=O)c1cc(F)ccc1[O-] (optimized conformer: 20.602233987990797 kcal/mol)

>  <smiles>  (67) 
NS(=O)(=O)CCNC(=O)c1cc(F)ccc1O

>  <score_type>  (67) 
oracle

>  <origin>  (67) 
adg

>  <m_score__min__energy>  (67) 
-12.75

>  <m_primary>  (67) 
energy

$$$$
67:0
     RDKit          3D

 35 37  0  0  0  0  0  0  0  0999 V2000
   58.8534   32.3444   50.0389 H   0  0  0  0  0  0  0  0  0  0  0  0
   59.0190   32.9490   49.1350 C   0  0  0  0  0  0  0  0  0  0  0  0
   58.1690   32.8390   48.0790 N   0  0  0  0  0  0  0  0  0  0  0  0
   58.3380   33.5680   46.9380 C   0  0  0  0  0  0  0  0  0  0  0  0
   57.5180   33.4530   45.9320 N   0  0  0  0  0  0  0  0  0  0  0  0
   57.8120   32.9100   44.6330 C   0  0  0  0  0  0  0  0  0  0  0  0
   58.5750   33.5160   43.8320 O   0  0  0  0  0  0  0  0  0  0  0  0
   57.2170   31.6280   44.2270 C   0  0  0  0  0  0  0  0  0  0  0  0
   56.8250   30.7020   45.1450 N   0  0  0  0  0  0  0  0  0  0  0  0
   56.3030   29.6070   44.5520 C   0  0  0  0  0  0  0  0  0  0  0  0
   55.8860   28.5540   45.1900 N   0  0  0  0  0  0  0  0  0  0  0  0
   56.7030   27.5060   45.7400 C   0  0  0  0  0  0  0  0  0  0  0  0
   58.0670   27.7070   46.0280 C   0  0  0  0  0  0  0  0  0  0  0  0
   58.5347   28.6782   45.8088 H   0  0  0  0  0  0  0  0  0  0  0  0
   58.8290   26.6810   46.5900 C   0  0  0  0  0  0  0  0  0  0  0  0
   59.8969   26.8414   46.7996 H   0  0  0  0  0  0  0  0  0  0  0  0
   58.2380   25.4530   46.8860 C   0  0  0  0  0  0  0  0  0  0  0  0
   58.8426   24.6425   47.3192 H   0  0  0  0  0  0  0  0  0  0  0  0
   56.8790   25.2510   46.6330 C   0  0  0  0  0  0  0  0  0  0  0  0
   56.4149   24.2840   46.8771 H   0  0  0  0  0  0  0  0  0  0  0  0
   56.1000   26.2790   46.0670 C   0  0  0  0  0  0  0  0  0  0  0  0
   54.7300   26.1150   45.8070 O   0  0  0  0  0  0  0  0  0  0  0  0
   54.0900   24.8590   45.6040 C   0  0  0  0  0  0  0  0  0  0  0  0
   53.8581   24.4039   46.5782 H   0  0  0  0  0  0  0  0  0  0  0  0
   53.1585   25.0093   45.0385 H   0  0  0  0  0  0  0  0  0  0  0  0
   54.7590   24.1937   45.0385 H   0  0  0  0  0  0  0  0  0  0  0  0
   56.3240   29.7260   42.8780 S   0  0  0  0  0  0  0  0  0  0  0  0
   57.0150   31.2600   42.8960 C   0  0  0  0  0  0  0  0  0  0  0  0
   57.2640   31.8668   42.0130 H   0  0  0  0  0  0  0  0  0  0  0  0
   59.4150   34.4590   46.8440 C   0  0  0  0  0  0  0  0  0  0  0  0
   59.5638   35.0541   45.9309 H   0  0  0  0  0  0  0  0  0  0  0  0
   60.2980   34.5860   47.9180 C   0  0  0  0  0  0  0  0  0  0  0  0
   61.1473   35.2822   47.8539 H   0  0  0  0  0  0  0  0  0  0  0  0
   60.1010   33.8280   49.0730 C   0  0  0  0  0  0  0  0  0  0  0  0
   60.7907   33.9223   49.9247 H   0  0  0  0  0  0  0  0  0  0  0  0
  1  2  1  0
  2  3  1  0
  3  4  1  0
  4  5  2  0
  5  6  1  0
  6  7  2  0
  6  8  1  0
  8  9  1  0
  9 10  1  0
 10 11  2  3
 11 12  1  0
 12 13  2  0
 13 14  1  0
 13 15  1  0
 15 16  1  0
 15 17  2  0
 17 18  1  0
 17 19  1  0
 19 20  1  0
 19 21  2  0
 21 22  1  0
 22 23  1  0
 23 24  1  0
 23 25  1  0
 23 26  1  0
 10 27  1  0
 27 28  1  0
 28 29  1  0
  4 30  1  0
 30 31  1  0
 30 32  2  0
 32 33  1  0
 32 34  1  0
 34 35  1  0
 34  2  2  0
 28  8  2  0
 21 12  1  0
M  CHG  2   3  -1   9  -1
M  END
>  <UniqueID>  (68) 
62

>  <SMILES>  (68) 
COc1ccccc1N=c1[n-]c(C(=O)/N=c2/cccc[n-]2)cs1

>  <Energy>  (68) 
75.40800095475353

>  <Genealogy>  (68) 
COc1ccccc1N=c1[n-]c(C(=O)N=c2cccc[n-]2)cs1 (protonated)
COc1ccccc1N=c1[n-]c(C(=O)/N=c2/cccc[n-]2)cs1 (cis-trans isomerization)
COc1ccccc1N=c1[n-]c(C(=O)/N=c2/cccc[n-]2)cs1 (3D coordinates assigned)
COc1ccccc1N=c1[n-]c(C(=O)/N=c2/cccc[n-]2)cs1 (optimized conformer: 75.40800095475353 kcal/mol)

>  <smiles>  (68) 
COc1ccccc1N=c1[nH]c(C(=O)N=c2cccc[nH]2)cs1

>  <score_type>  (68) 
oracle

>  <origin>  (68) 
adg

>  <m_score__min__energy>  (68) 
-11.289999999999999

>  <m_primary>  (68) 
energy

$$$$
68:0
     RDKit          3D

 44 47  0  0  0  0  0  0  0  0999 V2000
   59.7190   30.1170   44.8790 O   0  0  0  0  0  0  0  0  0  0  0  0
   58.7010   30.8010   45.1620 C   0  0  0  0  0  0  0  0  0  0  0  0
   58.8850   32.1540   45.7290 C   0  0  0  0  0  0  0  0  0  0  0  0
   58.6220   33.2700   44.9230 C   0  0  0  0  0  0  0  0  0  0  0  0
   58.7570   34.5590   45.4410 C   0  0  0  0  0  0  0  0  0  0  0  0
   59.1720   34.7230   46.7610 C   0  0  0  0  0  0  0  0  0  0  0  0
   59.4520   33.6370   47.5270 N   0  0  0  0  0  0  0  0  0  0  0  0
   59.3200   32.3640   47.0620 C   0  0  0  0  0  0  0  0  0  0  0  0
   59.7340   31.2370   47.9280 C   0  0  0  0  0  0  0  0  0  0  0  0
   60.6120   30.4430   47.4890 O   0  0  0  0  0  0  0  0  0  0  0  0
   59.1380   30.9960   49.2250 N   0  0  0  0  0  0  0  0  0  0  0  0
   58.1450   31.9400   49.7700 C   0  0  0  0  0  0  0  0  0  0  0  0
   57.6660   31.5600   51.1760 C   0  0  0  0  0  0  0  0  0  0  0  0
   57.5070   30.1670   51.3010 O   0  0  0  0  0  0  0  0  0  0  0  0
   58.7770   29.5620   51.2440 C   0  0  0  0  0  0  0  0  0  0  0  0
   59.3660   29.6740   49.8370 C   0  0  0  0  0  0  0  0  0  0  0  0
   57.3480   30.2540   44.9150 C   0  0  0  0  0  0  0  0  0  0  0  0
   56.2510   30.9590   44.4600 C   0  0  0  0  0  0  0  0  0  0  0  0
   55.1680   30.1620   44.4790 N   0  0  0  0  0  0  0  0  0  0  0  0
   55.5270   28.9700   44.9270 N   0  0  0  0  0  0  0  0  0  0  0  0
   56.8480   28.9900   45.1880 C   0  0  0  0  0  0  0  0  0  0  0  0
   57.5680   27.8390   45.7570 C   0  0  0  0  0  0  0  0  0  0  0  0
   57.6260   26.6320   45.0430 C   0  0  0  0  0  0  0  0  0  0  0  0
   58.3290   25.5400   45.5620 C   0  0  0  0  0  0  0  0  0  0  0  0
   58.9900   25.6520   46.7890 C   0  0  0  0  0  0  0  0  0  0  0  0
   58.9550   26.8580   47.4940 C   0  0  0  0  0  0  0  0  0  0  0  0
   58.2540   27.9520   46.9770 C   0  0  0  0  0  0  0  0  0  0  0  0
   58.3080   33.1295   43.8782 H   0  0  0  0  0  0  0  0  0  0  0  0
   58.5381   35.4359   44.8140 H   0  0  0  0  0  0  0  0  0  0  0  0
   59.2730   35.7337   47.1833 H   0  0  0  0  0  0  0  0  0  0  0  0
   58.5995   32.9408   49.8131 H   0  0  0  0  0  0  0  0  0  0  0  0
   57.2685   31.9154   49.1059 H   0  0  0  0  0  0  0  0  0  0  0  0
   58.4070   31.9040   51.9126 H   0  0  0  0  0  0  0  0  0  0  0  0
   56.6916   32.0388   51.3530 H   0  0  0  0  0  0  0  0  0  0  0  0
   59.4480   30.0629   51.9574 H   0  0  0  0  0  0  0  0  0  0  0  0
   58.6736   28.4974   51.5006 H   0  0  0  0  0  0  0  0  0  0  0  0
   60.4499   29.4958   49.8947 H   0  0  0  0  0  0  0  0  0  0  0  0
   58.8621   28.9263   49.2069 H   0  0  0  0  0  0  0  0  0  0  0  0
   56.2615   32.0092   44.1329 H   0  0  0  0  0  0  0  0  0  0  0  0
   57.1168   26.5446   44.0719 H   0  0  0  0  0  0  0  0  0  0  0  0
   58.3619   24.5923   45.0045 H   0  0  0  0  0  0  0  0  0  0  0  0
   59.5376   24.7907   47.1994 H   0  0  0  0  0  0  0  0  0  0  0  0
   59.4795   26.9469   48.4568 H   0  0  0  0  0  0  0  0  0  0  0  0
   58.2399   28.9041   47.5278 H   0  0  0  0  0  0  0  0  0  0  0  0
  1  2  2  0
  2  3  1  0
  3  4  2  0
  4  5  1  0
  5  6  2  0
  6  7  1  0
  7  8  2  0
  8  9  1  0
  9 10  2  0
  9 11  1  0
 11 12  1  0
 12 13  1  0
 13 14  1  0
 14 15  1  0
 15 16  1  0
  2 17  1  0
 17 18  2  0
 18 19  1  0
 19 20  1  0
 20 21  2  0
 21 22  1  0
 22 23  2  0
 23 24  1  0
 24 25  2  0
 25 26  1  0
 26 27  2  0
  8  3  1  0
 16 11  1  0
 21 17  1  0
 27 22  1  0
  4 28  1  0
  5 29  1  0
  6 30  1  0
 12 31  1  0
 12 32  1  0
 13 33  1  0
 13 34  1  0
 15 35  1  0
 15 36  1  0
 16 37  1  0
 16 38  1  0
 18 39  1  0
 23 40  1  0
 24 41  1  0
 25 42  1  0
 26 43  1  0
 27 44  1  0
M  CHG  1  19  -1
M  END
>  <UniqueID>  (69) 
63

>  <SMILES>  (69) 
O=C(c1cccnc1C(=O)N1CCOCC1)c1c[n-]nc1-c1ccccc1

>  <Energy>  (69) 
99.30742332942542

>  <Genealogy>  (69) 
O=C(c1cccnc1C(=O)N1CCOCC1)c1c[n-]nc1-c1ccccc1 (protonated)
O=C(c1cccnc1C(=O)N1CCOCC1)c1c[n-]nc1-c1ccccc1 (3D coordinates assigned)
O=C(c1cccnc1C(=O)N1CCOCC1)c1c[n-]nc1-c1ccccc1 (nonaromatic ring conformer: 99.30742332942542 kcal/mol)

>  <smiles>  (69) 
O=C(c1cccnc1C(=O)N1CCOCC1)c1c[nH]nc1-c1ccccc1

>  <score_type>  (69) 
oracle

>  <origin>  (69) 
adg

>  <m_score__min__energy>  (69) 
-10.25

>  <m_primary>  (69) 
energy

$$$$
69:0
     RDKit          3D

 40 42  0  0  0  0  0  0  0  0999 V2000
   58.9600   31.1780   49.9280 C   0  0  0  0  0  0  0  0  0  0  0  0
   58.6160   32.5850   50.0820 N   0  0  0  0  0  0  0  0  0  0  0  0
   59.4060   33.4920   50.8530 C   0  0  0  0  0  0  0  0  0  0  0  0
   58.8700   34.1800   51.7650 O   0  0  0  0  0  0  0  0  0  0  0  0
   60.7630   33.6420   50.5420 O   0  0  0  0  0  0  0  0  0  0  0  0
   61.3060   33.5960   49.2500 C   0  0  0  0  0  0  0  0  0  0  0  0
   62.6540   33.2470   49.1050 C   0  0  0  0  0  0  0  0  0  0  0  0
   63.2380   33.1910   47.8360 C   0  0  0  0  0  0  0  0  0  0  0  0
   62.4800   33.4900   46.7020 C   0  0  0  0  0  0  0  0  0  0  0  0
   61.1320   33.8560   46.8280 C   0  0  0  0  0  0  0  0  0  0  0  0
   60.3240   34.1890   45.6010 C   0  0  0  0  0  0  0  0  0  0  0  0
   58.9090   33.8880   45.8200 N   0  0  0  0  0  0  0  0  0  0  0  0
   58.2760   32.6450   45.4600 C   0  0  0  0  0  0  0  0  0  0  0  0
   57.4070   32.5380   44.3370 C   0  0  0  0  0  0  0  0  0  0  0  0
   56.8170   31.3460   44.0210 N   0  0  0  0  0  0  0  0  0  0  0  0
   57.0720   30.2590   44.7890 C   0  0  0  0  0  0  0  0  0  0  0  0
   56.5720   29.0280   44.6080 N   0  0  0  0  0  0  0  0  0  0  0  0
   57.1040   28.2800   45.6050 C   0  0  0  0  0  0  0  0  0  0  0  0
   56.8230   26.8480   45.7930 C   0  0  0  0  0  0  0  0  0  0  0  0
   55.4830   26.4010   45.9800 N   0  0  0  0  0  0  0  0  0  0  0  0
   57.7660   26.0120   45.7890 O   0  0  0  0  0  0  0  0  0  0  0  0
   57.9430   29.0480   46.4160 C   0  0  0  0  0  0  0  0  0  0  0  0
   57.9020   30.3110   45.8680 C   0  0  0  0  0  0  0  0  0  0  0  0
   58.5300   31.4940   46.2360 C   0  0  0  0  0  0  0  0  0  0  0  0
   60.5520   33.9230   48.1070 C   0  0  0  0  0  0  0  0  0  0  0  0
   59.0726   30.7173   50.9205 H   0  0  0  0  0  0  0  0  0  0  0  0
   58.1611   30.6638   49.3736 H   0  0  0  0  0  0  0  0  0  0  0  0
   59.9060   31.0904   49.3736 H   0  0  0  0  0  0  0  0  0  0  0  0
   63.2574   33.0154   49.9951 H   0  0  0  0  0  0  0  0  0  0  0  0
   64.2965   32.9109   47.7306 H   0  0  0  0  0  0  0  0  0  0  0  0
   62.9423   33.4382   45.7052 H   0  0  0  0  0  0  0  0  0  0  0  0
   60.4352   35.2596   45.3743 H   0  0  0  0  0  0  0  0  0  0  0  0
   60.6899   33.5824   44.7595 H   0  0  0  0  0  0  0  0  0  0  0  0
   58.3140   34.6530   46.2120 H   0  0  0  0  0  0  0  0  0  0  0  0
   57.2082   33.4245   43.7168 H   0  0  0  0  0  0  0  0  0  0  0  0
   55.9150   28.7190   43.8570 H   0  0  0  0  0  0  0  0  0  0  0  0
   54.7630   27.0270   46.4050 H   0  0  0  0  0  0  0  0  0  0  0  0
   58.5112   28.7170   47.2979 H   0  0  0  0  0  0  0  0  0  0  0  0
   59.2038   31.5325   47.1046 H   0  0  0  0  0  0  0  0  0  0  0  0
   59.5021   34.2330   48.2153 H   0  0  0  0  0  0  0  0  0  0  0  0
  1  2  1  0
  2  3  1  0
  3  4  2  0
  3  5  1  0
  5  6  1  0
  6  7  2  0
  7  8  1  0
  8  9  2  0
  9 10  1  0
 10 11  1  0
 11 12  1  0
 12 13  1  0
 13 14  2  0
 14 15  1  0
 15 16  2  0
 16 17  1  0
 17 18  1  0
 18 19  1  0
 19 20  1  0
 19 21  2  0
 18 22  2  0
 22 23  1  0
 23 24  2  0
 10 25  2  0
 25  6  1  0
 24 13  1  0
 23 16  1  0
  1 26  1  0
  1 27  1  0
  1 28  1  0
  7 29  1  0
  8 30  1  0
  9 31  1  0
 11 32  1  0
 11 33  1  0
 12 34  1  0
 14 35  1  0
 17 36  1  0
 20 37  1  0
 22 38  1  0
 24 39  1  0
 25 40  1  0
M  CHG  2   2  -1  20  -1
M  END
>  <UniqueID>  (70) 
64

>  <SMILES>  (70) 
C[N-]C(=O)Oc1cccc(CNc2cnc3[nH]c(C([NH-])=O)cc3c2)c1

>  <Energy>  (70) 
76.15356485136002

>  <Genealogy>  (70) 
C[N-]C(=O)Oc1cccc(CNc2cnc3[nH]c(C([NH-])=O)cc3c2)c1 (protonated)
C[N-]C(=O)Oc1cccc(CNc2cnc3[nH]c(C([NH-])=O)cc3c2)c1 (3D coordinates assigned)
C[N-]C(=O)Oc1cccc(CNc2cnc3[nH]c(C([NH-])=O)cc3c2)c1 (optimized conformer: 76.15356485136002 kcal/mol)

>  <smiles>  (70) 
CNC(=O)Oc1cccc(CNc2cnc3[nH]c(C(N)=O)cc3c2)c1

>  <score_type>  (70) 
oracle

>  <origin>  (70) 
adg

>  <m_score__min__energy>  (70) 
-11.76

>  <m_primary>  (70) 
energy

$$$$
70:0
     RDKit          3D

 40 43  0  0  0  0  0  0  0  0999 V2000
   63.0130   30.4890   50.4870 C   0  0  0  0  0  0  0  0  0  0  0  0
   62.0470   31.0220   49.5120 N   0  0  0  0  0  0  0  0  0  0  0  0
   61.0270   30.2290   49.0440 C   0  0  0  0  0  0  0  0  0  0  0  0
   60.8910   29.0440   49.4550 O   0  0  0  0  0  0  0  0  0  0  0  0
   60.1490   30.7090   48.1270 N   0  0  0  0  0  0  0  0  0  0  0  0
   60.2520   31.9670   47.6310 C   0  0  0  0  0  0  0  0  0  0  0  0
   61.3010   32.7930   48.0680 C   0  0  0  0  0  0  0  0  0  0  0  0
   61.4320   34.0540   47.5740 N   0  0  0  0  0  0  0  0  0  0  0  0
   60.5660   34.5590   46.6580 C   0  0  0  0  0  0  0  0  0  0  0  0
   59.5000   33.7790   46.1900 C   0  0  0  0  0  0  0  0  0  0  0  0
   58.6010   34.2900   45.2450 C   0  0  0  0  0  0  0  0  0  0  0  0
   57.5410   33.5050   44.7860 C   0  0  0  0  0  0  0  0  0  0  0  0
   57.3650   32.1960   45.2670 C   0  0  0  0  0  0  0  0  0  0  0  0
   56.2840   31.3610   44.8250 N   0  0  0  0  0  0  0  0  0  0  0  0
   56.4450   29.7220   44.2810 S   0  0  0  0  0  0  0  0  0  0  0  0
   56.7620   29.7220   42.8120 O   0  0  0  0  0  0  0  0  0  0  0  0
   55.1440   29.0020   44.5020 O   0  0  0  0  0  0  0  0  0  0  0  0
   57.7520   28.9220   45.1460 C   0  0  0  0  0  0  0  0  0  0  0  0
   59.0650   28.9970   44.6590 C   0  0  0  0  0  0  0  0  0  0  0  0
   60.1080   28.3720   45.3510 C   0  0  0  0  0  0  0  0  0  0  0  0
   59.8440   27.6640   46.5330 C   0  0  0  0  0  0  0  0  0  0  0  0
   60.8740   27.0390   47.2310 O   0  0  0  0  0  0  0  0  0  0  0  0
   58.5330   27.5840   47.0140 C   0  0  0  0  0  0  0  0  0  0  0  0
   57.4900   28.2080   46.3240 C   0  0  0  0  0  0  0  0  0  0  0  0
   58.2650   31.6810   46.2080 C   0  0  0  0  0  0  0  0  0  0  0  0
   59.3370   32.4620   46.6810 C   0  0  0  0  0  0  0  0  0  0  0  0
   62.2040   32.2910   49.0120 C   0  0  0  0  0  0  0  0  0  0  0  0
   63.1640   33.0160   49.3940 O   0  0  0  0  0  0  0  0  0  0  0  0
   62.6523   30.6880   51.5069 H   0  0  0  0  0  0  0  0  0  0  0  0
   63.1203   29.4040   50.3412 H   0  0  0  0  0  0  0  0  0  0  0  0
   63.9881   30.9768   50.3412 H   0  0  0  0  0  0  0  0  0  0  0  0
   60.7017   35.5838   46.2821 H   0  0  0  0  0  0  0  0  0  0  0  0
   58.7304   35.3134   44.8630 H   0  0  0  0  0  0  0  0  0  0  0  0
   56.8396   33.9136   44.0436 H   0  0  0  0  0  0  0  0  0  0  0  0
   59.2753   29.5485   43.7308 H   0  0  0  0  0  0  0  0  0  0  0  0
   61.1370   28.4359   44.9675 H   0  0  0  0  0  0  0  0  0  0  0  0
   61.2410   27.4270   48.0920 H   0  0  0  0  0  0  0  0  0  0  0  0
   58.3220   27.0276   47.9392 H   0  0  0  0  0  0  0  0  0  0  0  0
   56.4608   28.1388   46.7061 H   0  0  0  0  0  0  0  0  0  0  0  0
   58.1331   30.6549   46.5819 H   0  0  0  0  0  0  0  0  0  0  0  0
  1  2  1  0
  2  3  1  0
  3  4  2  0
  3  5  1  0
  5  6  1  0
  6  7  2  0
  7  8  1  0
  8  9  2  0
  9 10  1  0
 10 11  2  0
 11 12  1  0
 12 13  2  0
 13 14  1  0
 14 15  1  0
 15 16  2  0
 15 17  2  0
 15 18  1  0
 18 19  2  0
 19 20  1  0
 20 21  2  0
 21 22  1  0
 21 23  1  0
 23 24  2  0
 13 25  1  0
 25 26  2  0
  7 27  1  0
 27 28  2  0
 27  2  1  0
 26  6  1  0
 26 10  1  0
 24 18  1  0
  1 29  1  0
  1 30  1  0
  1 31  1  0
  9 32  1  0
 11 33  1  0
 12 34  1  0
 19 35  1  0
 20 36  1  0
 22 37  1  0
 23 38  1  0
 24 39  1  0
 25 40  1  0
M  CHG  2   5  -1  14  -1
M  END
>  <UniqueID>  (71) 
65

>  <SMILES>  (71) 
Cn1c(=O)[n-]c2c(ncc3ccc([N-]S(=O)(=O)c4ccc(O)cc4)cc32)c1=O

>  <Energy>  (71) 
59.41100967335323

>  <Genealogy>  (71) 
Cn1c(=O)[n-]c2c(ncc3ccc([N-]S(=O)(=O)c4ccc(O)cc4)cc32)c1=O (protonated)
Cn1c(=O)[n-]c2c(ncc3ccc([N-]S(=O)(=O)c4ccc(O)cc4)cc32)c1=O (3D coordinates assigned)
Cn1c(=O)[n-]c2c(ncc3ccc([N-]S(=O)(=O)c4ccc(O)cc4)cc32)c1=O (optimized conformer: 59.41100967335323 kcal/mol)

>  <smiles>  (71) 
Cn1c(=O)[nH]c2c(ncc3ccc(NS(=O)(=O)c4ccc(O)cc4)cc32)c1=O

>  <score_type>  (71) 
oracle

>  <origin>  (71) 
adg

>  <m_score__min__energy>  (71) 
-11.51

>  <m_primary>  (71) 
energy

$$$$
71:0
     RDKit          3D

 25 27  0  0  0  0  0  0  0  0999 V2000
   54.1877   21.6260   45.5794 H   0  0  0  0  0  0  0  0  0  0  0  0
   54.7970   22.4790   45.2460 C   0  0  0  0  0  0  0  0  0  0  0  0
   54.6200   23.7350   45.8340 C   0  0  0  0  0  0  0  0  0  0  0  0
   53.8816   23.8637   46.6391 H   0  0  0  0  0  0  0  0  0  0  0  0
   55.3830   24.8360   45.4000 C   0  0  0  0  0  0  0  0  0  0  0  0
   55.2600   26.1360   46.0020 N   0  0  0  0  0  0  0  0  0  0  0  0
   56.1360   27.0980   45.9720 C   0  0  0  0  0  0  0  0  0  0  0  0
   57.3350   26.9190   46.5840 N   0  0  0  0  0  0  0  0  0  0  0  0
   58.2970   27.8790   46.5640 C   0  0  0  0  0  0  0  0  0  0  0  0
   59.3900   27.6650   47.1520 O   0  0  0  0  0  0  0  0  0  0  0  0
   58.0540   29.0910   45.8900 C   0  0  0  0  0  0  0  0  0  0  0  0
   58.9690   30.1580   45.8000 C   0  0  0  0  0  0  0  0  0  0  0  0
   60.1030   30.0910   46.3420 O   0  0  0  0  0  0  0  0  0  0  0  0
   58.6360   31.2590   45.1310 O   0  0  0  0  0  0  0  0  0  0  0  0
   57.4580   31.3980   44.5340 C   0  0  0  0  0  0  0  0  0  0  0  0
   57.1920   32.4600   43.9140 O   0  0  0  0  0  0  0  0  0  0  0  0
   56.5390   30.4000   44.5890 N   0  0  0  0  0  0  0  0  0  0  0  0
   56.8120   29.2520   45.2540 C   0  0  0  0  0  0  0  0  0  0  0  0
   55.8880   28.2590   45.3040 N   0  0  0  0  0  0  0  0  0  0  0  0
   56.3550   24.6450   44.4080 C   0  0  0  0  0  0  0  0  0  0  0  0
   56.9847   25.4890   44.0899 H   0  0  0  0  0  0  0  0  0  0  0  0
   56.5290   23.3870   43.8200 C   0  0  0  0  0  0  0  0  0  0  0  0
   57.2821   23.2494   43.0302 H   0  0  0  0  0  0  0  0  0  0  0  0
   55.7470   22.3050   44.2350 C   0  0  0  0  0  0  0  0  0  0  0  0
   55.9210   21.0570   43.6510 O   0  0  0  0  0  0  0  0  0  0  0  0
  1  2  1  0
  2  3  2  0
  3  4  1  0
  3  5  1  0
  5  6  1  0
  6  7  2  0
  7  8  1  0
  8  9  1  0
  9 10  2  0
  9 11  1  0
 11 12  1  0
 12 13  2  0
 12 14  1  0
 14 15  1  0
 15 16  2  0
 15 17  1  0
 17 18  1  0
 18 19  1  0
  5 20  2  0
 20 21  1  0
 20 22  1  0
 22 23  1  0
 22 24  2  0
 24 25  1  0
 24  2  1  0
 19  7  1  0
 18 11  2  0
M  CHG  4   8  -1  17  -1  19  -1  25  -1
M  END
>  <UniqueID>  (72) 
66

>  <SMILES>  (72) 
O=c1[n-]c2[n-]/c(=N\c3ccc([O-])cc3)[n-]c(=O)c2c(=O)o1

>  <Energy>  (72) 
42.64647217706198

>  <Genealogy>  (72) 
O=c1[n-]c2[n-]c(=Nc3ccc([O-])cc3)[n-]c(=O)c2c(=O)o1 (protonated)
O=c1[n-]c2[n-]/c(=N\c3ccc([O-])cc3)[n-]c(=O)c2c(=O)o1 (cis-trans isomerization)
O=c1[n-]c2[n-]/c(=N\c3ccc([O-])cc3)[n-]c(=O)c2c(=O)o1 (3D coordinates assigned)
O=c1[n-]c2[n-]/c(=N\c3ccc([O-])cc3)[n-]c(=O)c2c(=O)o1 (optimized conformer: 42.64647217706198 kcal/mol)

>  <smiles>  (72) 
O=c1[nH]c2[nH]c(=Nc3ccc(O)cc3)[nH]c(=O)c2c(=O)o1

>  <score_type>  (72) 
oracle

>  <origin>  (72) 
adg

>  <m_score__min__energy>  (72) 
-13.49

>  <m_primary>  (72) 
energy

$$$$
72:0
     RDKit          3D

 33 35  0  0  0  0  0  0  0  0999 V2000
   55.0010   29.6570   43.6170 O   0  0  0  0  0  0  0  0  0  0  0  0
   55.9330   29.4070   44.4270 C   0  0  0  0  0  0  0  0  0  0  0  0
   57.1000   30.3330   44.5130 C   0  0  0  0  0  0  0  0  0  0  0  0
   56.6480   31.6380   44.8680 O   0  0  0  0  0  0  0  0  0  0  0  0
   57.4860   32.6750   45.3030 C   0  0  0  0  0  0  0  0  0  0  0  0
   58.0170   33.6380   44.4200 C   0  0  0  0  0  0  0  0  0  0  0  0
   58.8520   34.6500   44.9040 C   0  0  0  0  0  0  0  0  0  0  0  0
   59.1580   34.7160   46.2660 C   0  0  0  0  0  0  0  0  0  0  0  0
   59.9580   35.7060   46.7310 F   0  0  0  0  0  0  0  0  0  0  0  0
   58.6310   33.7660   47.1480 C   0  0  0  0  0  0  0  0  0  0  0  0
   58.9250   33.8280   48.4690 F   0  0  0  0  0  0  0  0  0  0  0  0
   57.8000   32.7480   46.6660 C   0  0  0  0  0  0  0  0  0  0  0  0
   55.9040   28.2310   45.2470 N   0  0  0  0  0  0  0  0  0  0  0  0
   57.0100   27.3840   45.5940 C   0  0  0  0  0  0  0  0  0  0  0  0
   58.3410   27.7210   45.2870 C   0  0  0  0  0  0  0  0  0  0  0  0
   59.3820   26.8540   45.6260 C   0  0  0  0  0  0  0  0  0  0  0  0
   59.1070   25.6340   46.2490 C   0  0  0  0  0  0  0  0  0  0  0  0
   57.7820   25.2680   46.5350 C   0  0  0  0  0  0  0  0  0  0  0  0
   57.4840   23.9680   47.1730 C   0  0  0  0  0  0  0  0  0  0  0  0
   57.4080   22.7950   46.5170 N   0  0  0  0  0  0  0  0  0  0  0  0
   57.1280   21.9020   47.4530 N   0  0  0  0  0  0  0  0  0  0  0  0
   57.0330   22.5010   48.6290 N   0  0  0  0  0  0  0  0  0  0  0  0
   57.2530   23.7980   48.4890 N   0  0  0  0  0  0  0  0  0  0  0  0
   56.7390   26.1510   46.2000 C   0  0  0  0  0  0  0  0  0  0  0  0
   57.8019   29.9679   45.2772 H   0  0  0  0  0  0  0  0  0  0  0  0
   57.6073   30.3741   43.5378 H   0  0  0  0  0  0  0  0  0  0  0  0
   57.7738   33.5930   43.3482 H   0  0  0  0  0  0  0  0  0  0  0  0
   59.2689   35.3957   44.2111 H   0  0  0  0  0  0  0  0  0  0  0  0
   57.3910   32.0007   47.3619 H   0  0  0  0  0  0  0  0  0  0  0  0
   58.5625   28.6707   44.7781 H   0  0  0  0  0  0  0  0  0  0  0  0
   60.4222   27.1326   45.4017 H   0  0  0  0  0  0  0  0  0  0  0  0
   59.9320   24.9574   46.5165 H   0  0  0  0  0  0  0  0  0  0  0  0
   55.6980   25.8693   46.4168 H   0  0  0  0  0  0  0  0  0  0  0  0
  1  2  2  0
  2  3  1  0
  3  4  1  0
  4  5  1  0
  5  6  2  0
  6  7  1  0
  7  8  2  0
  8  9  1  0
  8 10  1  0
 10 11  1  0
 10 12  2  0
  2 13  1  0
 13 14  1  0
 14 15  2  0
 15 16  1  0
 16 17  2  0
 17 18  1  0
 18 19  1  0
 19 20  1  0
 20 21  2  0
 21 22  1  0
 22 23  1  0
 18 24  2  0
 12  5  1  0
 24 14  1  0
 23 19  2  0
  3 25  1  0
  3 26  1  0
  6 27  1  0
  7 28  1  0
 12 29  1  0
 15 30  1  0
 16 31  1  0
 17 32  1  0
 24 33  1  0
M  CHG  2  13  -1  22  -1
M  END
>  <UniqueID>  (73) 
67

>  <SMILES>  (73) 
O=C(COc1ccc(F)c(F)c1)[N-]c1cccc(-c2nn[n-]n2)c1

>  <Energy>  (73) 
76.70454473105808

>  <Genealogy>  (73) 
O=C(COc1ccc(F)c(F)c1)[N-]c1cccc(-c2nn[n-]n2)c1 (protonated)
O=C(COc1ccc(F)c(F)c1)[N-]c1cccc(-c2nn[n-]n2)c1 (3D coordinates assigned)
O=C(COc1ccc(F)c(F)c1)[N-]c1cccc(-c2nn[n-]n2)c1 (optimized conformer: 76.70454473105808 kcal/mol)

>  <smiles>  (73) 
O=C(COc1ccc(F)c(F)c1)Nc1cccc(-c2nn[nH]n2)c1

>  <score_type>  (73) 
oracle

>  <origin>  (73) 
adg

>  <m_score__min__energy>  (73) 
-11.59

>  <m_primary>  (73) 
energy

$$$$
73:0
     RDKit          3D

 59 61  0  0  0  0  0  0  0  0999 V2000
   64.9680   32.9430   49.3440 C   0  0  0  0  0  0  0  0  0  0  0  0
   63.5890   32.8470   48.8170 N   0  0  0  0  0  0  0  0  0  0  0  0
   63.6510   32.7440   47.3420 C   0  0  0  0  0  0  0  0  0  0  0  0
   62.8530   31.6940   49.4200 C   0  0  1  0  0  0  0  0  0  0  0  0
   62.9920   31.6410   50.9630 C   0  0  0  0  0  0  0  0  0  0  0  0
   62.4420   32.9080   51.6520 C   0  0  0  0  0  0  0  0  0  0  0  0
   61.4190   33.6800   50.7970 C   0  0  0  0  0  0  0  0  0  0  0  0
   60.5190   32.7440   49.9720 C   0  0  1  0  0  0  0  0  0  0  0  0
   59.6450   33.5570   49.1260 N   0  0  0  0  0  0  0  0  0  0  0  0
   59.4940   33.4100   47.7090 C   0  0  0  0  0  0  0  0  0  0  0  0
   60.5160   33.4990   46.9790 O   0  0  0  0  0  0  0  0  0  0  0  0
   58.2020   33.1950   47.1160 N   0  0  0  0  0  0  0  0  0  0  0  0
   58.0310   32.7010   45.7770 C   0  0  0  0  0  0  0  0  0  0  0  0
   57.4150   31.4550   45.5520 C   0  0  0  0  0  0  0  0  0  0  0  0
   57.2430   30.9680   44.2490 C   0  0  0  0  0  0  0  0  0  0  0  0
   56.5180   29.3850   43.9840 S   0  0  0  0  0  0  0  0  0  0  0  0
   55.1180   29.5360   43.4610 O   0  0  0  0  0  0  0  0  0  0  0  0
   57.3250   28.6450   42.9550 O   0  0  0  0  0  0  0  0  0  0  0  0
   56.4850   28.4480   45.4450 N   0  0  0  0  0  0  0  0  0  0  0  0
   57.6660   27.9180   46.0550 C   0  0  0  0  0  0  0  0  0  0  0  0
   58.7640   28.7520   46.3190 C   0  0  0  0  0  0  0  0  0  0  0  0
   59.9190   28.2350   46.9080 C   0  0  0  0  0  0  0  0  0  0  0  0
   59.9920   26.8780   47.2260 C   0  0  0  0  0  0  0  0  0  0  0  0
   58.9170   26.0330   46.9440 C   0  0  0  0  0  0  0  0  0  0  0  0
   57.7510   26.5430   46.3510 C   0  0  0  0  0  0  0  0  0  0  0  0
   56.3920   25.4670   46.0120 S   0  0  0  0  0  0  0  0  0  0  0  0
   54.9050   26.3510   45.9850 N   0  0  0  0  0  0  0  0  0  0  0  0
   56.5950   24.8160   44.6720 O   0  0  0  0  0  0  0  0  0  0  0  0
   56.3150   24.4110   47.0780 O   0  0  0  0  0  0  0  0  0  0  0  0
   57.6720   31.7360   43.1610 C   0  0  0  0  0  0  0  0  0  0  0  0
   58.2570   32.9860   43.3710 C   0  0  0  0  0  0  0  0  0  0  0  0
   58.4360   33.4760   44.6710 C   0  0  0  0  0  0  0  0  0  0  0  0
   59.2100   35.0420   44.8830 Cl  0  0  0  0  0  0  0  0  0  0  0  0
   61.3270   31.7280   49.1100 C   0  0  0  0  0  0  0  0  0  0  0  0
   64.9412   32.9411   50.4437 H   0  0  0  0  0  0  0  0  0  0  0  0
   65.5564   32.0836   48.9901 H   0  0  0  0  0  0  0  0  0  0  0  0
   65.4317   33.8756   48.9901 H   0  0  0  0  0  0  0  0  0  0  0  0
   64.1994   31.8329   47.0608 H   0  0  0  0  0  0  0  0  0  0  0  0
   62.6303   32.6981   46.9344 H   0  0  0  0  0  0  0  0  0  0  0  0
   64.1693   33.6245   46.9344 H   0  0  0  0  0  0  0  0  0  0  0  0
   63.3171   30.8084   48.9614 H   0  0  0  0  0  0  0  0  0  0  0  0
   62.4375   30.7677   51.3370 H   0  0  0  0  0  0  0  0  0  0  0  0
   64.0642   31.5721   51.1989 H   0  0  0  0  0  0  0  0  0  0  0  0
   61.9548   32.6091   52.5918 H   0  0  0  0  0  0  0  0  0  0  0  0
   63.2960   33.5809   51.8192 H   0  0  0  0  0  0  0  0  0  0  0  0
   60.7848   34.2829   51.4636 H   0  0  0  0  0  0  0  0  0  0  0  0
   61.9796   34.3126   50.0931 H   0  0  0  0  0  0  0  0  0  0  0  0
   59.9230   32.1410   50.6728 H   0  0  0  0  0  0  0  0  0  0  0  0
   57.3500   33.4700   47.6530 H   0  0  0  0  0  0  0  0  0  0  0  0
   57.0653   30.8580   46.4072 H   0  0  0  0  0  0  0  0  0  0  0  0
   58.7138   29.8199   46.0600 H   0  0  0  0  0  0  0  0  0  0  0  0
   60.7713   28.8968   47.1215 H   0  0  0  0  0  0  0  0  0  0  0  0
   60.8985   26.4734   47.6999 H   0  0  0  0  0  0  0  0  0  0  0  0
   58.9839   24.9624   47.1876 H   0  0  0  0  0  0  0  0  0  0  0  0
   55.1520   27.3660   46.0070 H   0  0  0  0  0  0  0  0  0  0  0  0
   57.5479   31.3537   42.1371 H   0  0  0  0  0  0  0  0  0  0  0  0
   58.5795   33.5900   42.5101 H   0  0  0  0  0  0  0  0  0  0  0  0
   60.9170   30.7229   49.2880 H   0  0  0  0  0  0  0  0  0  0  0  0
   61.2257   32.0525   48.0639 H   0  0  0  0  0  0  0  0  0  0  0  0
  1  2  1  0
  2  3  1  0
  2  4  1  0
  4  5  1  0
  5  6  1  0
  6  7  1  0
  7  8  1  0
  8  9  1  0
  9 10  1  0
 10 11  2  0
 10 12  1  0
 12 13  1  0
 13 14  2  0
 14 15  1  0
 15 16  1  0
 16 17  2  0
 16 18  2  0
 16 19  1  0
 19 20  1  0
 20 21  2  0
 21 22  1  0
 22 23  2  0
 23 24  1  0
 24 25  2  0
 25 26  1  0
 26 27  1  0
 26 28  2  0
 26 29  2  0
 15 30  2  0
 30 31  1  0
 31 32  2  0
 32 33  1  0
  8 34  1  0
 34  4  1  0
 32 13  1  0
 25 20  1  0
  1 35  1  0
  1 36  1  0
  1 37  1  0
  3 38  1  0
  3 39  1  0
  3 40  1  0
  4 41  1  6
  5 42  1  0
  5 43  1  0
  6 44  1  0
  6 45  1  0
  7 46  1  0
  7 47  1  0
  8 48  1  1
 12 49  1  0
 14 50  1  0
 21 51  1  0
 22 52  1  0
 23 53  1  0
 24 54  1  0
 27 55  1  0
 30 56  1  0
 31 57  1  0
 34 58  1  0
 34 59  1  0
M  CHG  3   9  -1  19  -1  27  -1
M  END
>  <UniqueID>  (74) 
68

>  <SMILES>  (74) 
CN(C)[C@H]1CCC[C@@H]([N-]C(=O)Nc2cc(S(=O)(=O)[N-]c3ccccc3S([NH-])(=O)=O)ccc2Cl)C1

>  <Energy>  (74) 
81.94292488249812

>  <Genealogy>  (74) 
CN(C)C1CCCC([N-]C(=O)Nc2cc(S(=O)(=O)[N-]c3ccccc3S([NH-])(=O)=O)ccc2Cl)C1 (protonated)
CN(C)[C@H]1CCC[C@@H]([N-]C(=O)Nc2cc(S(=O)(=O)[N-]c3ccccc3S([NH-])(=O)=O)ccc2Cl)C1 (chirality)
CN(C)[C@H]1CCC[C@@H]([N-]C(=O)Nc2cc(S(=O)(=O)[N-]c3ccccc3S([NH-])(=O)=O)ccc2Cl)C1 (3D coordinates assigned)
CN(C)[C@H]1CCC[C@@H]([N-]C(=O)Nc2cc(S(=O)(=O)[N-]c3ccccc3S([NH-])(=O)=O)ccc2Cl)C1 (nonaromatic ring conformer: 81.94292488249812 kcal/mol)

>  <smiles>  (74) 
CN(C)C1CCCC(NC(=O)Nc2cc(S(=O)(=O)Nc3ccccc3S(N)(=O)=O)ccc2Cl)C1

>  <score_type>  (74) 
oracle

>  <origin>  (74) 
adg

>  <m_score__min__energy>  (74) 
-16.050000000000001

>  <m_primary>  (74) 
energy

$$$$
74:0
     RDKit          3D

 67 72  0  0  0  0  0  0  0  0999 V2000
   57.6160   30.6500   43.0240 O   0  0  0  0  0  0  0  0  0  0  0  0
   57.3790   30.0710   44.1230 C   0  0  0  0  0  0  0  0  0  0  0  0
   57.0740   30.8780   45.2730 N   0  0  0  0  0  0  0  0  0  0  0  0
   57.6860   32.1250   45.6400 C   0  0  0  0  0  0  0  0  0  0  0  0
   57.9320   33.0590   44.6260 C   0  0  0  0  0  0  0  0  0  0  0  0
   58.6440   34.2310   44.8940 C   0  0  0  0  0  0  0  0  0  0  0  0
   59.1220   34.4820   46.1810 C   0  0  0  0  0  0  0  0  0  0  0  0
   58.8710   33.5700   47.2200 C   0  0  0  0  0  0  0  0  0  0  0  0
   59.2980   33.9000   48.6330 C   0  0  0  0  0  0  0  0  0  0  0  0
   60.8000   34.1950   48.8010 C   0  0  0  0  0  0  0  0  0  0  0  0
   61.6230   33.3430   47.9090 N   0  0  0  0  0  0  0  0  0  0  0  0
   61.7080   31.9370   48.3770 C   0  0  0  0  0  0  0  0  0  0  0  0
   62.8000   31.7400   49.4400 C   0  0  0  0  0  0  0  0  0  0  0  0
   64.0790   32.2880   48.9790 N   0  0  0  0  0  0  0  0  0  0  0  0
   65.2330   32.1830   49.8290 C   0  0  0  0  0  0  0  0  0  0  0  0
   66.1840   33.1500   49.9260 N   0  0  0  0  0  0  0  0  0  0  0  0
   67.0190   32.6220   50.8390 C   0  0  0  0  0  0  0  0  0  0  0  0
   68.1900   33.1740   51.3560 C   0  0  0  0  0  0  0  0  0  0  0  0
   68.8940   32.4270   52.3230 C   0  0  0  0  0  0  0  0  0  0  0  0
   68.4050   31.1720   52.7560 C   0  0  0  0  0  0  0  0  0  0  0  0
   67.2190   30.6440   52.2090 C   0  0  0  0  0  0  0  0  0  0  0  0
   66.5610   31.4030   51.2460 C   0  0  0  0  0  0  0  0  0  0  0  0
   65.4530   31.1410   50.6140 O   0  0  0  0  0  0  0  0  0  0  0  0
   64.1360   32.9880   47.6960 C   0  0  0  0  0  0  0  0  0  0  0  0
   62.9450   33.9580   47.5850 C   0  0  0  0  0  0  0  0  0  0  0  0
   58.1290   32.4040   46.9470 C   0  0  0  0  0  0  0  0  0  0  0  0
   57.3830   28.5920   44.1800 C   0  0  0  0  0  0  0  0  0  0  0  0
   57.7680   27.8440   43.0580 C   0  0  0  0  0  0  0  0  0  0  0  0
   57.8530   26.4520   43.1300 C   0  0  0  0  0  0  0  0  0  0  0  0
   57.5340   25.7790   44.3200 C   0  0  0  0  0  0  0  0  0  0  0  0
   57.6590   24.3030   44.4030 C   0  0  0  0  0  0  0  0  0  0  0  0
   58.5190   23.7180   45.3500 C   0  0  0  0  0  0  0  0  0  0  0  0
   58.5950   22.3250   45.4720 C   0  0  0  0  0  0  0  0  0  0  0  0
   57.8170   21.5040   44.6490 C   0  0  0  0  0  0  0  0  0  0  0  0
   56.9610   22.0740   43.7030 C   0  0  0  0  0  0  0  0  0  0  0  0
   56.8780   23.4690   43.5820 C   0  0  0  0  0  0  0  0  0  0  0  0
   57.1140   26.5260   45.4320 C   0  0  0  0  0  0  0  0  0  0  0  0
   57.0380   27.9190   45.3620 C   0  0  0  0  0  0  0  0  0  0  0  0
   57.5610   32.8681   43.6082 H   0  0  0  0  0  0  0  0  0  0  0  0
   58.8282   34.9575   44.0888 H   0  0  0  0  0  0  0  0  0  0  0  0
   59.6975   35.3974   46.3828 H   0  0  0  0  0  0  0  0  0  0  0  0
   58.7362   34.7866   48.9621 H   0  0  0  0  0  0  0  0  0  0  0  0
   59.0886   33.0048   49.2370 H   0  0  0  0  0  0  0  0  0  0  0  0
   60.9863   35.2516   48.5583 H   0  0  0  0  0  0  0  0  0  0  0  0
   61.0806   33.9777   49.8422 H   0  0  0  0  0  0  0  0  0  0  0  0
   60.7382   31.6489   48.8088 H   0  0  0  0  0  0  0  0  0  0  0  0
   61.9651   31.3095   47.5109 H   0  0  0  0  0  0  0  0  0  0  0  0
   62.4998   32.2538   50.3651 H   0  0  0  0  0  0  0  0  0  0  0  0
   62.9234   30.6625   49.6237 H   0  0  0  0  0  0  0  0  0  0  0  0
   68.5521   34.1574   51.0215 H   0  0  0  0  0  0  0  0  0  0  0  0
   69.8301   32.8229   52.7437 H   0  0  0  0  0  0  0  0  0  0  0  0
   68.9534   30.6059   53.5233 H   0  0  0  0  0  0  0  0  0  0  0  0
   66.8275   29.6678   52.5312 H   0  0  0  0  0  0  0  0  0  0  0  0
   65.0769   33.5539   47.6289 H   0  0  0  0  0  0  0  0  0  0  0  0
   64.0887   32.2552   46.8770 H   0  0  0  0  0  0  0  0  0  0  0  0
   63.1156   34.7947   48.2784 H   0  0  0  0  0  0  0  0  0  0  0  0
   62.8955   34.2792   46.5341 H   0  0  0  0  0  0  0  0  0  0  0  0
   57.8935   31.7048   47.7628 H   0  0  0  0  0  0  0  0  0  0  0  0
   58.0047   28.3575   42.1144 H   0  0  0  0  0  0  0  0  0  0  0  0
   58.1724   25.8784   42.2474 H   0  0  0  0  0  0  0  0  0  0  0  0
   59.1352   24.3583   45.9983 H   0  0  0  0  0  0  0  0  0  0  0  0
   59.2681   21.8754   46.2168 H   0  0  0  0  0  0  0  0  0  0  0  0
   57.8790   20.4101   44.7465 H   0  0  0  0  0  0  0  0  0  0  0  0
   56.3520   21.4285   43.0530 H   0  0  0  0  0  0  0  0  0  0  0  0
   56.1980   23.9137   42.8405 H   0  0  0  0  0  0  0  0  0  0  0  0
   56.8428   26.0106   46.3652 H   0  0  0  0  0  0  0  0  0  0  0  0
   56.7053   28.4925   46.2397 H   0  0  0  0  0  0  0  0  0  0  0  0
  1  2  2  0
  2  3  1  0
  3  4  1  0
  4  5  2  0
  5  6  1  0
  6  7  2  0
  7  8  1  0
  8  9  1  0
  9 10  1  0
 10 11  1  0
 11 12  1  0
 12 13  1  0
 13 14  1  0
 14 15  1  0
 15 16  2  0
 16 17  1  0
 17 18  2  0
 18 19  1  0
 19 20  2  0
 20 21  1  0
 21 22  2  0
 22 23  1  0
 14 24  1  0
 24 25  1  0
  8 26  2  0
  2 27  1  0
 27 28  2  0
 28 29  1  0
 29 30  2  0
 30 31  1  0
 31 32  2  0
 32 33  1  0
 33 34  2  0
 34 35  1  0
 35 36  2  0
 30 37  1  0
 37 38  2  0
 26  4  1  0
 38 27  1  0
 25 11  1  0
 36 31  1  0
 23 15  1  0
 22 17  1  0
  5 39  1  0
  6 40  1  0
  7 41  1  0
  9 42  1  0
  9 43  1  0
 10 44  1  0
 10 45  1  0
 12 46  1  0
 12 47  1  0
 13 48  1  0
 13 49  1  0
 18 50  1  0
 19 51  1  0
 20 52  1  0
 21 53  1  0
 24 54  1  0
 24 55  1  0
 25 56  1  0
 25 57  1  0
 26 58  1  0
 28 59  1  0
 29 60  1  0
 32 61  1  0
 33 62  1  0
 34 63  1  0
 35 64  1  0
 36 65  1  0
 37 66  1  0
 38 67  1  0
M  CHG  1   3  -1
M  END
>  <UniqueID>  (75) 
69

>  <SMILES>  (75) 
O=C([N-]c1cccc(CCN2CCN(c3nc4ccccc4o3)CC2)c1)c1ccc(-c2ccccc2)cc1

>  <Energy>  (75) 
135.5997157907989

>  <Genealogy>  (75) 
O=C([N-]c1cccc(CCN2CCN(c3nc4ccccc4o3)CC2)c1)c1ccc(-c2ccccc2)cc1 (protonated)
O=C([N-]c1cccc(CCN2CCN(c3nc4ccccc4o3)CC2)c1)c1ccc(-c2ccccc2)cc1 (3D coordinates assigned)
O=C([N-]c1cccc(CCN2CCN(c3nc4ccccc4o3)CC2)c1)c1ccc(-c2ccccc2)cc1 (nonaromatic ring conformer: 135.5997157907989 kcal/mol)

>  <smiles>  (75) 
O=C(Nc1cccc(CCN2CCN(c3nc4ccccc4o3)CC2)c1)c1ccc(-c2ccccc2)cc1

>  <score_type>  (75) 
oracle

>  <origin>  (75) 
adg

>  <m_score__min__energy>  (75) 
-11.42

>  <m_primary>  (75) 
energy

$$$$
75:0
     RDKit          3D

 48 51  0  0  0  0  0  0  0  0999 V2000
   55.1070   29.9030   52.7340 C   0  0  0  0  0  0  0  0  0  0  0  0
   56.3350   29.6670   52.0520 O   0  0  0  0  0  0  0  0  0  0  0  0
   57.2580   30.6680   51.7140 C   0  0  0  0  0  0  0  0  0  0  0  0
   57.1130   31.9310   52.3010 C   0  0  0  0  0  0  0  0  0  0  0  0
   58.0070   32.9610   51.9980 C   0  0  0  0  0  0  0  0  0  0  0  0
   59.0610   32.7430   51.0980 C   0  0  0  0  0  0  0  0  0  0  0  0
   60.0480   33.8370   50.7900 C   0  0  0  0  0  0  0  0  0  0  0  0
   60.2450   33.9440   49.3440 N   0  0  0  0  0  0  0  0  0  0  0  0
   59.2750   34.1870   48.4310 C   0  0  0  0  0  0  0  0  0  0  0  0
   59.8000   34.1450   47.1430 C   0  0  0  0  0  0  0  0  0  0  0  0
   59.0380   34.3690   45.9010 C   0  0  0  0  0  0  0  0  0  0  0  0
   59.5440   35.0890   44.9980 O   0  0  0  0  0  0  0  0  0  0  0  0
   57.6800   33.8230   45.7110 C   0  0  0  0  0  0  0  0  0  0  0  0
   56.7770   34.5630   45.2380 O   0  0  0  0  0  0  0  0  0  0  0  0
   57.3840   32.4430   45.9600 N   0  0  0  0  0  0  0  0  0  0  0  0
   58.3370   31.3720   46.0070 C   0  0  0  0  0  0  0  0  0  0  0  0
   59.0130   31.0380   47.1950 C   0  0  0  0  0  0  0  0  0  0  0  0
   59.9150   29.9680   47.2130 C   0  0  0  0  0  0  0  0  0  0  0  0
   60.1330   29.2170   46.0550 C   0  0  0  0  0  0  0  0  0  0  0  0
   59.4450   29.5280   44.8800 C   0  0  0  0  0  0  0  0  0  0  0  0
   58.5430   30.5970   44.8590 C   0  0  0  0  0  0  0  0  0  0  0  0
   61.1520   33.8770   47.2970 C   0  0  0  0  0  0  0  0  0  0  0  0
   62.1890   33.7860   46.3640 C   0  0  0  0  0  0  0  0  0  0  0  0
   63.4840   33.5190   46.8410 C   0  0  0  0  0  0  0  0  0  0  0  0
   63.7180   33.3630   48.2240 C   0  0  0  0  0  0  0  0  0  0  0  0
   62.6630   33.4850   49.1440 C   0  0  0  0  0  0  0  0  0  0  0  0
   61.3840   33.7510   48.6450 C   0  0  0  0  0  0  0  0  0  0  0  0
   59.2100   31.4780   50.5100 C   0  0  0  0  0  0  0  0  0  0  0  0
   58.3150   30.4470   50.8130 C   0  0  0  0  0  0  0  0  0  0  0  0
   55.2785   29.8700   53.8200 H   0  0  0  0  0  0  0  0  0  0  0  0
   54.7166   30.8926   52.4543 H   0  0  0  0  0  0  0  0  0  0  0  0
   54.3775   29.1286   52.4543 H   0  0  0  0  0  0  0  0  0  0  0  0
   56.2888   32.1136   53.0062 H   0  0  0  0  0  0  0  0  0  0  0  0
   57.8839   33.9481   52.4676 H   0  0  0  0  0  0  0  0  0  0  0  0
   59.6643   34.7927   51.1766 H   0  0  0  0  0  0  0  0  0  0  0  0
   61.0098   33.5991   51.2678 H   0  0  0  0  0  0  0  0  0  0  0  0
   58.2212   34.3890   48.6732 H   0  0  0  0  0  0  0  0  0  0  0  0
   58.8322   31.6190   48.1114 H   0  0  0  0  0  0  0  0  0  0  0  0
   60.4527   29.7180   48.1395 H   0  0  0  0  0  0  0  0  0  0  0  0
   60.8470   28.3803   46.0688 H   0  0  0  0  0  0  0  0  0  0  0  0
   59.6125   28.9321   43.9707 H   0  0  0  0  0  0  0  0  0  0  0  0
   57.9925   30.8301   43.9356 H   0  0  0  0  0  0  0  0  0  0  0  0
   61.9974   33.9193   45.2890 H   0  0  0  0  0  0  0  0  0  0  0  0
   64.3203   33.4311   46.1319 H   0  0  0  0  0  0  0  0  0  0  0  0
   64.7340   33.1442   48.5844 H   0  0  0  0  0  0  0  0  0  0  0  0
   62.8379   33.3746   50.2244 H   0  0  0  0  0  0  0  0  0  0  0  0
   60.0357   31.2960   49.8064 H   0  0  0  0  0  0  0  0  0  0  0  0
   58.4383   29.4593   50.3448 H   0  0  0  0  0  0  0  0  0  0  0  0
  1  2  1  0
  2  3  1  0
  3  4  2  0
  4  5  1  0
  5  6  2  0
  6  7  1  0
  7  8  1  0
  8  9  1  0
  9 10  2  0
 10 11  1  0
 11 12  2  0
 11 13  1  0
 13 14  2  0
 13 15  1  0
 15 16  1  0
 16 17  2  0
 17 18  1  0
 18 19  2  0
 19 20  1  0
 20 21  2  0
 10 22  1  0
 22 23  2  0
 23 24  1  0
 24 25  2  0
 25 26  1  0
 26 27  2  0
  6 28  1  0
 28 29  2  0
 29  3  1  0
 27  8  1  0
 21 16  1  0
 27 22  1  0
  1 30  1  0
  1 31  1  0
  1 32  1  0
  4 33  1  0
  5 34  1  0
  7 35  1  0
  7 36  1  0
  9 37  1  0
 17 38  1  0
 18 39  1  0
 19 40  1  0
 20 41  1  0
 21 42  1  0
 23 43  1  0
 24 44  1  0
 25 45  1  0
 26 46  1  0
 28 47  1  0
 29 48  1  0
M  CHG  1  15  -1
M  END
>  <UniqueID>  (76) 
70

>  <SMILES>  (76) 
COc1ccc(Cn2cc(C(=O)C(=O)[N-]c3ccccc3)c3ccccc32)cc1

>  <Energy>  (76) 
92.66044352711131

>  <Genealogy>  (76) 
COc1ccc(Cn2cc(C(=O)C(=O)[N-]c3ccccc3)c3ccccc32)cc1 (protonated)
COc1ccc(Cn2cc(C(=O)C(=O)[N-]c3ccccc3)c3ccccc32)cc1 (3D coordinates assigned)
COc1ccc(Cn2cc(C(=O)C(=O)[N-]c3ccccc3)c3ccccc32)cc1 (optimized conformer: 92.66044352711131 kcal/mol)

>  <smiles>  (76) 
COc1ccc(Cn2cc(C(=O)C(=O)Nc3ccccc3)c3ccccc32)cc1

>  <score_type>  (76) 
oracle

>  <origin>  (76) 
adg

>  <m_score__min__energy>  (76) 
-10.289999999999999

>  <m_primary>  (76) 
energy

$$$$
76:0
     RDKit          3D

 54 57  0  0  0  0  0  0  0  0999 V2000
   55.5270   28.7780   45.1830 N   0  0  0  0  0  0  0  0  0  0  0  0
   56.7810   29.8120   44.5920 S   0  0  0  0  0  0  0  0  0  0  0  0
   57.3050   29.2680   43.2920 O   0  0  0  0  0  0  0  0  0  0  0  0
   56.2260   31.1880   44.3510 O   0  0  0  0  0  0  0  0  0  0  0  0
   58.0830   29.8900   45.7760 C   0  0  0  0  0  0  0  0  0  0  0  0
   59.1060   30.8340   45.6350 C   0  0  0  0  0  0  0  0  0  0  0  0
   60.1460   30.8870   46.5640 C   0  0  0  0  0  0  0  0  0  0  0  0
   60.1840   29.9910   47.6480 C   0  0  0  0  0  0  0  0  0  0  0  0
   61.2710   30.0700   48.6500 C   0  0  0  0  0  0  0  0  0  0  0  0
   61.1450   29.4870   49.7630 O   0  0  0  0  0  0  0  0  0  0  0  0
   62.4310   30.8700   48.3860 N   0  0  0  0  0  0  0  0  0  0  0  0
   62.9050   31.9530   49.2000 C   0  0  0  0  0  0  0  0  0  0  0  0
   63.8260   31.7260   50.2370 C   0  0  0  0  0  0  0  0  0  0  0  0
   64.2430   32.7780   51.0520 C   0  0  0  0  0  0  0  0  0  0  0  0
   63.7460   34.0660   50.8470 C   0  0  0  0  0  0  0  0  0  0  0  0
   62.8390   34.3070   49.8130 C   0  0  0  0  0  0  0  0  0  0  0  0
   62.4310   33.2620   48.9670 C   0  0  0  0  0  0  0  0  0  0  0  0
   61.4770   33.5460   47.8750 C   0  0  0  0  0  0  0  0  0  0  0  0
   61.9130   33.7440   46.7080 O   0  0  0  0  0  0  0  0  0  0  0  0
   60.0580   33.5800   48.1210 N   0  0  0  0  0  0  0  0  0  0  0  0
   59.1650   33.8490   47.0210 C   0  0  0  0  0  0  0  0  0  0  0  0
   59.5960   34.6270   45.9320 C   0  0  0  0  0  0  0  0  0  0  0  0
   58.7210   34.9170   44.8800 C   0  0  0  0  0  0  0  0  0  0  0  0
   57.4150   34.4200   44.8980 C   0  0  0  0  0  0  0  0  0  0  0  0
   56.9820   33.6320   45.9680 C   0  0  0  0  0  0  0  0  0  0  0  0
   57.8500   33.3510   47.0280 C   0  0  0  0  0  0  0  0  0  0  0  0
   59.5360   33.2650   49.4340 C   0  0  0  0  0  0  0  0  0  0  0  0
   59.6780   34.1760   50.4970 C   0  0  0  0  0  0  0  0  0  0  0  0
   59.1830   33.8680   51.7670 C   0  0  0  0  0  0  0  0  0  0  0  0
   58.5280   32.6490   51.9900 C   0  0  0  0  0  0  0  0  0  0  0  0
   58.0310   32.3300   53.2510 O   0  0  0  0  0  0  0  0  0  0  0  0
   58.3650   31.7450   50.9370 C   0  0  0  0  0  0  0  0  0  0  0  0
   58.8650   32.0500   49.6680 C   0  0  0  0  0  0  0  0  0  0  0  0
   59.1610   29.0350   47.7750 C   0  0  0  0  0  0  0  0  0  0  0  0
   58.1200   28.9850   46.8440 C   0  0  0  0  0  0  0  0  0  0  0  0
   54.6550   29.3540   45.2220 H   0  0  0  0  0  0  0  0  0  0  0  0
   59.0905   31.5368   44.7890 H   0  0  0  0  0  0  0  0  0  0  0  0
   60.9432   31.6360   46.4477 H   0  0  0  0  0  0  0  0  0  0  0  0
   64.2201   30.7131   50.4067 H   0  0  0  0  0  0  0  0  0  0  0  0
   64.9664   32.5920   51.8595 H   0  0  0  0  0  0  0  0  0  0  0  0
   64.0686   34.8907   51.4995 H   0  0  0  0  0  0  0  0  0  0  0  0
   62.4415   35.3212   49.6598 H   0  0  0  0  0  0  0  0  0  0  0  0
   60.6270   35.0097   45.9072 H   0  0  0  0  0  0  0  0  0  0  0  0
   59.0613   35.5370   44.0375 H   0  0  0  0  0  0  0  0  0  0  0  0
   56.7279   34.6490   44.0701 H   0  0  0  0  0  0  0  0  0  0  0  0
   55.9572   33.2323   45.9764 H   0  0  0  0  0  0  0  0  0  0  0  0
   57.5021   32.7371   47.8718 H   0  0  0  0  0  0  0  0  0  0  0  0
   60.1828   35.1384   50.3269 H   0  0  0  0  0  0  0  0  0  0  0  0
   59.3076   34.5835   52.5932 H   0  0  0  0  0  0  0  0  0  0  0  0
   57.1280   32.6670   53.5650 H   0  0  0  0  0  0  0  0  0  0  0  0
   57.8425   30.7921   51.1071 H   0  0  0  0  0  0  0  0  0  0  0  0
   58.7328   31.3334   48.8439 H   0  0  0  0  0  0  0  0  0  0  0  0
   59.1801   28.3220   48.6124 H   0  0  0  0  0  0  0  0  0  0  0  0
   57.3260   28.2313   46.9506 H   0  0  0  0  0  0  0  0  0  0  0  0
  1  2  1  0
  2  3  2  0
  2  4  2  0
  2  5  1  0
  5  6  2  0
  6  7  1  0
  7  8  2  0
  8  9  1  0
  9 10  2  0
  9 11  1  0
 11 12  1  0
 12 13  2  0
 13 14  1  0
 14 15  2  0
 15 16  1  0
 16 17  2  0
 17 18  1  0
 18 19  2  0
 18 20  1  0
 20 21  1  0
 21 22  2  0
 22 23  1  0
 23 24  2  0
 24 25  1  0
 25 26  2  0
 20 27  1  0
 27 28  2  0
 28 29  1  0
 29 30  2  0
 30 31  1  0
 30 32  1  0
 32 33  2  0
  8 34  1  0
 34 35  2  0
 35  5  1  0
 17 12  1  0
 26 21  1  0
 33 27  1  0
  1 36  1  0
  6 37  1  0
  7 38  1  0
 13 39  1  0
 14 40  1  0
 15 41  1  0
 16 42  1  0
 22 43  1  0
 23 44  1  0
 24 45  1  0
 25 46  1  0
 26 47  1  0
 28 48  1  0
 29 49  1  0
 31 50  1  0
 32 51  1  0
 33 52  1  0
 34 53  1  0
 35 54  1  0
M  CHG  2   1  -1  11  -1
M  END
>  <UniqueID>  (77) 
71

>  <SMILES>  (77) 
[NH-]S(=O)(=O)c1ccc(C(=O)[N-]c2ccccc2C(=O)N(c2ccccc2)c2ccc(O)cc2)cc1

>  <Energy>  (77) 
76.10729517385538

>  <Genealogy>  (77) 
[NH-]S(=O)(=O)c1ccc(C(=O)[N-]c2ccccc2C(=O)N(c2ccccc2)c2ccc(O)cc2)cc1 (protonated)
[NH-]S(=O)(=O)c1ccc(C(=O)[N-]c2ccccc2C(=O)N(c2ccccc2)c2ccc(O)cc2)cc1 (3D coordinates assigned)
[NH-]S(=O)(=O)c1ccc(C(=O)[N-]c2ccccc2C(=O)N(c2ccccc2)c2ccc(O)cc2)cc1 (optimized conformer: 76.10729517385538 kcal/mol)

>  <smiles>  (77) 
NS(=O)(=O)c1ccc(C(=O)Nc2ccccc2C(=O)N(c2ccccc2)c2ccc(O)cc2)cc1

>  <score_type>  (77) 
oracle

>  <origin>  (77) 
adg

>  <m_score__min__energy>  (77) 
-13.800000000000001

>  <m_primary>  (77) 
energy

$$$$
77:0
     RDKit          3D

 62 65  0  0  0  0  0  0  0  0999 V2000
   54.9783   28.9246   44.8778 H   0  0  0  0  0  0  0  0  0  0  0  0
   56.0100   29.3060   44.8680 C   0  0  0  0  0  0  0  0  0  0  0  0
   56.2810   30.5120   44.3030 N   0  0  0  0  0  0  0  0  0  0  0  0
   57.5370   31.0320   44.2770 C   0  0  0  0  0  0  0  0  0  0  0  0
   57.7740   32.3540   43.5920 C   0  0  0  0  0  0  0  0  0  0  0  0
   58.7660   32.3337   43.1172 H   0  0  0  0  0  0  0  0  0  0  0  0
   56.9760   32.4959   42.8483 H   0  0  0  0  0  0  0  0  0  0  0  0
   57.7210   33.4980   44.5410 N   0  0  2  0  0  0  0  0  0  0  0  0
   57.0030   34.1770   44.1880 H   0  0  0  0  0  0  0  0  0  0  0  0
   59.0330   34.2100   44.5350 C   0  0  0  0  0  0  0  0  0  0  0  0
   59.8303   33.4705   44.3691 H   0  0  0  0  0  0  0  0  0  0  0  0
   58.9906   34.9624   43.7337 H   0  0  0  0  0  0  0  0  0  0  0  0
   59.3280   34.9600   45.8480 C   0  0  0  0  0  0  0  0  0  0  0  0
   60.3325   35.4035   45.7821 H   0  0  0  0  0  0  0  0  0  0  0  0
   58.5517   35.7292   45.9734 H   0  0  0  0  0  0  0  0  0  0  0  0
   59.2750   34.0320   47.0920 C   0  0  2  0  0  0  0  0  0  0  0  0
   58.7562   34.6157   47.8667 H   0  0  0  0  0  0  0  0  0  0  0  0
   60.6520   33.6850   47.6410 C   0  0  0  0  0  0  0  0  0  0  0  0
   61.5270   32.8400   46.9290 C   0  0  0  0  0  0  0  0  0  0  0  0
   61.2374   32.4661   45.9359 H   0  0  0  0  0  0  0  0  0  0  0  0
   62.7560   32.4750   47.4740 C   0  0  0  0  0  0  0  0  0  0  0  0
   63.4326   31.8185   46.9072 H   0  0  0  0  0  0  0  0  0  0  0  0
   63.1350   32.9400   48.7410 C   0  0  0  0  0  0  0  0  0  0  0  0
   64.4720   32.5680   49.3090 C   0  0  0  0  0  0  0  0  0  0  0  0
   64.4205   32.5823   50.4077 H   0  0  0  0  0  0  0  0  0  0  0  0
   64.7474   31.5591   48.9680 H   0  0  0  0  0  0  0  0  0  0  0  0
   65.2289   33.2897   48.9680 H   0  0  0  0  0  0  0  0  0  0  0  0
   62.2820   33.8040   49.4440 C   0  0  0  0  0  0  0  0  0  0  0  0
   62.5883   34.1987   50.4240 H   0  0  0  0  0  0  0  0  0  0  0  0
   61.0450   34.1650   48.9040 C   0  0  0  0  0  0  0  0  0  0  0  0
   60.3743   34.8285   49.4696 H   0  0  0  0  0  0  0  0  0  0  0  0
   58.4600   32.7490   46.8260 C   0  0  0  0  0  0  0  0  0  0  0  0
   59.1079   31.9976   46.3510 H   0  0  0  0  0  0  0  0  0  0  0  0
   58.0763   32.3600   47.7807 H   0  0  0  0  0  0  0  0  0  0  0  0
   57.2780   33.0620   45.8970 C   0  0  0  0  0  0  0  0  0  0  0  0
   56.6610   32.1573   45.7932 H   0  0  0  0  0  0  0  0  0  0  0  0
   56.7082   33.8889   46.3459 H   0  0  0  0  0  0  0  0  0  0  0  0
   58.5900   30.3190   44.8630 C   0  0  0  0  0  0  0  0  0  0  0  0
   59.6028   30.7480   44.8811 H   0  0  0  0  0  0  0  0  0  0  0  0
   58.3520   29.0590   45.4260 C   0  0  0  0  0  0  0  0  0  0  0  0
   59.3610   28.4170   45.9450 N   0  0  0  0  0  0  0  0  0  0  0  0
   59.8860   28.5480   47.2740 C   0  0  0  0  0  0  0  0  0  0  0  0
   59.8530   29.7830   47.9400 C   0  0  0  0  0  0  0  0  0  0  0  0
   59.5097   30.6826   47.4081 H   0  0  0  0  0  0  0  0  0  0  0  0
   60.2560   29.8760   49.2820 C   0  0  0  0  0  0  0  0  0  0  0  0
   60.2220   31.0820   49.9950 O   0  0  0  0  0  0  0  0  0  0  0  0
   59.0290   31.7410   50.4080 C   0  0  0  0  0  0  0  0  0  0  0  0
   58.9851   31.7652   51.5069 H   0  0  0  0  0  0  0  0  0  0  0  0
   59.0245   32.7696   50.0181 H   0  0  0  0  0  0  0  0  0  0  0  0
   58.1559   31.1972   50.0181 H   0  0  0  0  0  0  0  0  0  0  0  0
   60.6910   28.7240   49.9470 C   0  0  0  0  0  0  0  0  0  0  0  0
   61.0233   28.7959   50.9931 H   0  0  0  0  0  0  0  0  0  0  0  0
   60.7100   27.4850   49.3040 C   0  0  0  0  0  0  0  0  0  0  0  0
   61.1340   26.3630   50.0340 O   0  0  0  0  0  0  0  0  0  0  0  0
   61.4990   26.3860   51.4100 C   0  0  0  0  0  0  0  0  0  0  0  0
   60.5927   26.3289   52.0308 H   0  0  0  0  0  0  0  0  0  0  0  0
   62.1496   25.5271   51.6312 H   0  0  0  0  0  0  0  0  0  0  0  0
   62.0367   27.3198   51.6312 H   0  0  0  0  0  0  0  0  0  0  0  0
   60.2940   27.4010   47.9640 C   0  0  0  0  0  0  0  0  0  0  0  0
   60.2891   26.4264   47.4540 H   0  0  0  0  0  0  0  0  0  0  0  0
   57.0350   28.5510   45.4350 C   0  0  0  0  0  0  0  0  0  0  0  0
   56.8202   27.5703   45.8845 H   0  0  0  0  0  0  0  0  0  0  0  0
  1  2  1  0
  2  3  1  0
  3  4  1  0
  4  5  1  0
  5  6  1  0
  5  7  1  0
  5  8  1  0
  8  9  1  1
  8 10  1  0
 10 11  1  0
 10 12  1  0
 10 13  1  0
 13 14  1  0
 13 15  1  0
 13 16  1  0
 16 17  1  6
 16 18  1  0
 18 19  2  0
 19 20  1  0
 19 21  1  0
 21 22  1  0
 21 23  2  0
 23 24  1  0
 24 25  1  0
 24 26  1  0
 24 27  1  0
 23 28  1  0
 28 29  1  0
 28 30  2  0
 30 31  1  0
 16 32  1  0
 32 33  1  0
 32 34  1  0
 32 35  1  0
 35 36  1  0
 35 37  1  0
  4 38  2  0
 38 39  1  0
 38 40  1  0
 40 41  2  0
 41 42  1  0
 42 43  2  0
 43 44  1  0
 43 45  1  0
 45 46  1  0
 46 47  1  0
 47 48  1  0
 47 49  1  0
 47 50  1  0
 45 51  2  0
 51 52  1  0
 51 53  1  0
 53 54  1  0
 54 55  1  0
 55 56  1  0
 55 57  1  0
 55 58  1  0
 53 59  2  0
 59 60  1  0
 40 61  1  0
 61 62  1  0
 61  2  2  0
 35  8  1  0
 59 42  1  0
 30 18  1  0
M  CHG  2   3  -1   8   1
M  END
>  <UniqueID>  (78) 
72

>  <SMILES>  (78) 
COc1cc(/N=c2\cc[n-]c(C[NH+]3CCC(c4ccc(C)cc4)CC3)c2)cc(OC)c1

>  <Energy>  (78) 
84.88235074777104

>  <Genealogy>  (78) 
COc1cc(N=c2cc[n-]c(C[NH+]3CCC(c4ccc(C)cc4)CC3)c2)cc(OC)c1 (protonated)
COc1cc(/N=c2\cc[n-]c(C[NH+]3CCC(c4ccc(C)cc4)CC3)c2)cc(OC)c1 (cis-trans isomerization)
COc1cc(/N=c2\cc[n-]c(C[NH+]3CCC(c4ccc(C)cc4)CC3)c2)cc(OC)c1 (3D coordinates assigned)
COc1cc(/N=c2\cc[n-]c(C[NH+]3CCC(c4ccc(C)cc4)CC3)c2)cc(OC)c1 (nonaromatic ring conformer: 84.88235074777104 kcal/mol)

>  <smiles>  (78) 
COc1cc(N=c2cc[nH]c(CN3CCC(c4ccc(C)cc4)CC3)c2)cc(OC)c1

>  <score_type>  (78) 
oracle

>  <origin>  (78) 
adg

>  <m_score__min__energy>  (78) 
-9.0600000000000005

>  <m_primary>  (78) 
energy

$$$$
78:0
     RDKit          3D

 51 54  0  0  0  0  0  0  0  0999 V2000
   56.4770   30.3120   52.8380 C   0  0  0  0  0  0  0  0  0  0  0  0
   57.2410   29.8710   51.7210 O   0  0  0  0  0  0  0  0  0  0  0  0
   58.0600   30.7050   50.9440 C   0  0  0  0  0  0  0  0  0  0  0  0
   58.1470   32.0600   51.2870 C   0  0  0  0  0  0  0  0  0  0  0  0
   58.9500   32.9300   50.5440 C   0  0  0  0  0  0  0  0  0  0  0  0
   59.6780   32.4530   49.4460 C   0  0  0  0  0  0  0  0  0  0  0  0
   60.7090   33.5300   48.5080 S   0  0  0  0  0  0  0  0  0  0  0  0
   61.3100   34.5470   49.4370 O   0  0  0  0  0  0  0  0  0  0  0  0
   61.8170   32.7520   47.8550 O   0  0  0  0  0  0  0  0  0  0  0  0
   59.7510   34.3310   47.2860 N   0  0  0  0  0  0  0  0  0  0  0  0
   58.3140   33.9970   47.4290 C   0  0  0  0  0  0  0  0  0  0  0  0
   57.8480   32.9600   46.3940 C   0  0  0  0  0  0  0  0  0  0  0  0
   58.0520   33.4520   45.0060 N   0  0  0  0  0  0  0  0  0  0  0  0
   58.1000   32.3510   44.0610 C   0  0  0  0  0  0  0  0  0  0  0  0
   58.5130   32.5390   42.8830 O   0  0  0  0  0  0  0  0  0  0  0  0
   57.4820   31.0460   44.3930 C   0  0  0  0  0  0  0  0  0  0  0  0
   56.2100   30.7710   43.8710 C   0  0  0  0  0  0  0  0  0  0  0  0
   55.5620   29.5790   44.2030 C   0  0  0  0  0  0  0  0  0  0  0  0
   54.4160   29.3350   43.7440 O   0  0  0  0  0  0  0  0  0  0  0  0
   56.1640   28.6820   45.0240 N   0  0  0  0  0  0  0  0  0  0  0  0
   57.4030   28.8980   45.5390 C   0  0  0  0  0  0  0  0  0  0  0  0
   57.9840   27.9320   46.3690 C   0  0  0  0  0  0  0  0  0  0  0  0
   59.2700   28.1270   46.8790 C   0  0  0  0  0  0  0  0  0  0  0  0
   59.9830   29.2820   46.5560 C   0  0  0  0  0  0  0  0  0  0  0  0
   59.4120   30.2560   45.7320 C   0  0  0  0  0  0  0  0  0  0  0  0
   58.1080   30.0890   45.2270 C   0  0  0  0  0  0  0  0  0  0  0  0
   59.2610   34.3080   44.8530 C   0  0  0  0  0  0  0  0  0  0  0  0
   60.3020   34.0380   45.9470 C   0  0  0  0  0  0  0  0  0  0  0  0
   59.5970   31.0990   49.0990 C   0  0  0  0  0  0  0  0  0  0  0  0
   58.7930   30.2280   49.8400 C   0  0  0  0  0  0  0  0  0  0  0  0
   56.9851   30.0187   53.7685 H   0  0  0  0  0  0  0  0  0  0  0  0
   56.3767   31.4069   52.8044 H   0  0  0  0  0  0  0  0  0  0  0  0
   55.4787   29.8512   52.8044 H   0  0  0  0  0  0  0  0  0  0  0  0
   57.5790   32.4426   52.1478 H   0  0  0  0  0  0  0  0  0  0  0  0
   59.0106   33.9925   50.8222 H   0  0  0  0  0  0  0  0  0  0  0  0
   58.1442   33.5910   48.4371 H   0  0  0  0  0  0  0  0  0  0  0  0
   57.7371   34.9189   47.2636 H   0  0  0  0  0  0  0  0  0  0  0  0
   58.4221   32.0321   46.5331 H   0  0  0  0  0  0  0  0  0  0  0  0
   56.7733   32.7792   46.5436 H   0  0  0  0  0  0  0  0  0  0  0  0
   57.2230   34.0480   44.7670 H   0  0  0  0  0  0  0  0  0  0  0  0
   55.7226   31.4938   43.2002 H   0  0  0  0  0  0  0  0  0  0  0  0
   57.4268   27.0174   46.6202 H   0  0  0  0  0  0  0  0  0  0  0  0
   59.7210   27.3689   47.5361 H   0  0  0  0  0  0  0  0  0  0  0  0
   60.9991   29.4267   46.9516 H   0  0  0  0  0  0  0  0  0  0  0  0
   59.9852   31.1593   45.4762 H   0  0  0  0  0  0  0  0  0  0  0  0
   59.7166   34.1061   43.8724 H   0  0  0  0  0  0  0  0  0  0  0  0
   58.9452   35.3582   44.9380 H   0  0  0  0  0  0  0  0  0  0  0  0
   60.6020   32.9805   45.9050 H   0  0  0  0  0  0  0  0  0  0  0  0
   61.1695   34.6919   45.7743 H   0  0  0  0  0  0  0  0  0  0  0  0
   60.1686   30.7189   48.2394 H   0  0  0  0  0  0  0  0  0  0  0  0
   58.7326   29.1660   49.5598 H   0  0  0  0  0  0  0  0  0  0  0  0
  1  2  1  0
  2  3  1  0
  3  4  2  0
  4  5  1  0
  5  6  2  0
  6  7  1  0
  7  8  2  0
  7  9  2  0
  7 10  1  0
 10 11  1  0
 11 12  1  0
 12 13  1  0
 13 14  1  0
 14 15  2  0
 14 16  1  0
 16 17  2  0
 17 18  1  0
 18 19  2  0
 18 20  1  0
 20 21  1  0
 21 22  2  0
 22 23  1  0
 23 24  2  0
 24 25  1  0
 25 26  2  0
 13 27  1  0
 27 28  1  0
  6 29  1  0
 29 30  2  0
 30  3  1  0
 28 10  1  0
 26 16  1  0
 26 21  1  0
  1 31  1  0
  1 32  1  0
  1 33  1  0
  4 34  1  0
  5 35  1  0
 11 36  1  0
 11 37  1  0
 12 38  1  0
 12 39  1  0
 13 40  1  0
 17 41  1  0
 22 42  1  0
 23 43  1  0
 24 44  1  0
 25 45  1  0
 27 46  1  0
 27 47  1  0
 28 48  1  0
 28 49  1  0
 29 50  1  0
 30 51  1  0
M  CHG  2  13   1  20  -1
M  END
>  <UniqueID>  (79) 
73

>  <SMILES>  (79) 
COc1ccc(S(=O)(=O)N2CC[NH+](C(=O)c3cc(=O)[n-]c4ccccc34)CC2)cc1

>  <Energy>  (79) 
78.59059141404371

>  <Genealogy>  (79) 
COc1ccc(S(=O)(=O)N2CC[NH+](C(=O)c3cc(=O)[n-]c4ccccc34)CC2)cc1 (protonated)
COc1ccc(S(=O)(=O)N2CC[NH+](C(=O)c3cc(=O)[n-]c4ccccc34)CC2)cc1 (3D coordinates assigned)
COc1ccc(S(=O)(=O)N2CC[NH+](C(=O)c3cc(=O)[n-]c4ccccc34)CC2)cc1 (nonaromatic ring conformer: 78.59059141404371 kcal/mol)

>  <smiles>  (79) 
COc1ccc(S(=O)(=O)N2CCN(C(=O)c3cc(=O)[nH]c4ccccc34)CC2)cc1

>  <score_type>  (79) 
oracle

>  <origin>  (79) 
adg

>  <m_score__min__energy>  (79) 
-9.4000000000000004

>  <m_primary>  (79) 
energy

$$$$
79:0
     RDKit          3D

 48 51  0  0  0  0  0  0  0  0999 V2000
   67.8260   33.5110   50.5390 C   0  0  0  0  0  0  0  0  0  0  0  0
   66.7690   32.9220   49.7870 O   0  0  0  0  0  0  0  0  0  0  0  0
   65.4040   33.0900   50.0710 C   0  0  0  0  0  0  0  0  0  0  0  0
   64.9010   33.0620   51.3820 C   0  0  0  0  0  0  0  0  0  0  0  0
   63.5370   33.2330   51.6160 C   0  0  0  0  0  0  0  0  0  0  0  0
   62.6530   33.4350   50.5470 C   0  0  0  0  0  0  0  0  0  0  0  0
   61.2860   33.6140   50.7930 C   0  0  0  0  0  0  0  0  0  0  0  0
   60.4010   33.8100   49.7360 C   0  0  0  0  0  0  0  0  0  0  0  0
   60.8610   33.8240   48.4130 C   0  0  0  0  0  0  0  0  0  0  0  0
   59.8770   34.0070   47.3260 C   0  0  0  0  0  0  0  0  0  0  0  0
   59.4400   35.1680   47.0980 O   0  0  0  0  0  0  0  0  0  0  0  0
   59.3960   32.8940   46.5440 N   0  0  0  0  0  0  0  0  0  0  0  0
   60.2250   31.6850   46.3700 C   0  0  0  0  0  0  0  0  0  0  0  0
   59.3660   30.4210   46.4590 C   0  0  0  0  0  0  0  0  0  0  0  0
   58.1740   30.5720   45.6290 N   0  0  0  0  0  0  0  0  0  0  0  0
   57.5980   31.7470   45.3340 C   0  0  0  0  0  0  0  0  0  0  0  0
   56.4500   31.5850   44.6530 N   0  0  0  0  0  0  0  0  0  0  0  0
   56.2700   30.2780   44.5200 N   0  0  0  0  0  0  0  0  0  0  0  0
   57.3070   29.6630   45.1270 C   0  0  0  0  0  0  0  0  0  0  0  0
   57.4310   28.1580   45.1820 C   0  0  0  0  0  0  0  0  0  0  0  0
   58.3830   27.6350   44.1010 C   0  0  0  0  0  0  0  0  0  0  0  0
   57.8170   27.6500   46.5760 C   0  0  0  0  0  0  0  0  0  0  0  0
   58.1650   33.0680   45.7510 C   0  0  0  0  0  0  0  0  0  0  0  0
   62.2410   33.6720   48.1460 C   0  0  0  0  0  0  0  0  0  0  0  0
   62.8260   33.8140   46.4800 Cl  0  0  0  0  0  0  0  0  0  0  0  0
   63.1440   33.4660   49.2170 C   0  0  0  0  0  0  0  0  0  0  0  0
   64.5260   33.2920   49.0000 C   0  0  0  0  0  0  0  0  0  0  0  0
   67.6198   33.3961   51.6134 H   0  0  0  0  0  0  0  0  0  0  0  0
   68.7743   33.0113   50.2921 H   0  0  0  0  0  0  0  0  0  0  0  0
   67.8999   34.5804   50.2921 H   0  0  0  0  0  0  0  0  0  0  0  0
   65.5861   32.9045   52.2280 H   0  0  0  0  0  0  0  0  0  0  0  0
   63.1522   33.2092   52.6462 H   0  0  0  0  0  0  0  0  0  0  0  0
   60.9095   33.5997   51.8265 H   0  0  0  0  0  0  0  0  0  0  0  0
   59.3303   33.9553   49.9419 H   0  0  0  0  0  0  0  0  0  0  0  0
   60.7132   31.7209   45.3849 H   0  0  0  0  0  0  0  0  0  0  0  0
   60.9796   31.6562   47.1698 H   0  0  0  0  0  0  0  0  0  0  0  0
   59.9494   29.5577   46.1062 H   0  0  0  0  0  0  0  0  0  0  0  0
   59.0623   30.2618   47.5042 H   0  0  0  0  0  0  0  0  0  0  0  0
   56.4318   27.7496   44.9704 H   0  0  0  0  0  0  0  0  0  0  0  0
   59.2520   27.1576   44.5774 H   0  0  0  0  0  0  0  0  0  0  0  0
   57.8577   26.8988   43.4748 H   0  0  0  0  0  0  0  0  0  0  0  0
   58.7226   28.4732   43.4748 H   0  0  0  0  0  0  0  0  0  0  0  0
   57.3388   28.2794   47.3410 H   0  0  0  0  0  0  0  0  0  0  0  0
   57.4795   26.6097   46.6936 H   0  0  0  0  0  0  0  0  0  0  0  0
   58.9097   27.6965   46.6936 H   0  0  0  0  0  0  0  0  0  0  0  0
   58.3976   33.6583   44.8524 H   0  0  0  0  0  0  0  0  0  0  0  0
   57.4202   33.5857   46.3734 H   0  0  0  0  0  0  0  0  0  0  0  0
   64.9203   33.3153   47.9734 H   0  0  0  0  0  0  0  0  0  0  0  0
  1  2  1  0
  2  3  1  0
  3  4  2  0
  4  5  1  0
  5  6  2  0
  6  7  1  0
  7  8  2  0
  8  9  1  0
  9 10  1  0
 10 11  2  0
 10 12  1  0
 12 13  1  0
 13 14  1  0
 14 15  1  0
 15 16  1  0
 16 17  2  0
 17 18  1  0
 18 19  2  0
 19 20  1  0
 20 21  1  0
 20 22  1  0
 16 23  1  0
  9 24  2  0
 24 25  1  0
 24 26  1  0
 26 27  2  0
 27  3  1  0
 26  6  1  0
 23 12  1  0
 19 15  1  0
  1 28  1  0
  1 29  1  0
  1 30  1  0
  4 31  1  0
  5 32  1  0
  7 33  1  0
  8 34  1  0
 13 35  1  0
 13 36  1  0
 14 37  1  0
 14 38  1  0
 20 39  1  0
 21 40  1  0
 21 41  1  0
 21 42  1  0
 22 43  1  0
 22 44  1  0
 22 45  1  0
 23 46  1  0
 23 47  1  0
 27 48  1  0
M  END
>  <UniqueID>  (80) 
74

>  <SMILES>  (80) 
COc1ccc2ccc(C(=O)N3CCn4c(nnc4C(C)C)C3)c(Cl)c2c1

>  <Energy>  (80) 
97.1042989570624

>  <Genealogy>  (80) 
COc1ccc2ccc(C(=O)N3CCn4c(nnc4C(C)C)C3)c(Cl)c2c1 (3D coordinates assigned)
COc1ccc2ccc(C(=O)N3CCn4c(nnc4C(C)C)C3)c(Cl)c2c1 (nonaromatic ring conformer: 97.1042989570624 kcal/mol)

>  <smiles>  (80) 
COc1ccc2ccc(C(=O)N3CCn4c(nnc4C(C)C)C3)c(Cl)c2c1

>  <score_type>  (80) 
oracle

>  <origin>  (80) 
adg

>  <m_score__min__energy>  (80) 
-8.8000000000000007

>  <m_primary>  (80) 
energy

$$$$
80:0
     RDKit          3D

 73 77  0  0  0  0  0  0  0  0999 V2000
   61.7678   33.4108   45.7193 H   0  0  0  0  0  0  0  0  0  0  0  0
   61.2740   33.7210   46.6520 C   0  0  0  0  0  0  0  0  0  0  0  0
   62.0280   33.7580   47.7710 C   0  0  0  0  0  0  0  0  0  0  0  0
   63.3400   33.0500   47.7740 C   0  0  0  0  0  0  0  0  0  0  0  0
   63.9760   32.9190   46.6920 O   0  0  0  0  0  0  0  0  0  0  0  0
   63.9570   32.5370   49.0150 C   0  0  0  0  0  0  0  0  0  0  0  0
   65.1680   33.0830   49.4770 C   0  0  0  0  0  0  0  0  0  0  0  0
   65.6447   33.9048   48.9226 H   0  0  0  0  0  0  0  0  0  0  0  0
   65.7690   32.5860   50.6380 C   0  0  0  0  0  0  0  0  0  0  0  0
   66.7093   33.0262   51.0015 H   0  0  0  0  0  0  0  0  0  0  0  0
   65.1770   31.5320   51.3360 C   0  0  0  0  0  0  0  0  0  0  0  0
   65.6526   31.1388   52.2466 H   0  0  0  0  0  0  0  0  0  0  0  0
   63.9800   30.9770   50.8770 C   0  0  0  0  0  0  0  0  0  0  0  0
   63.5151   30.1448   51.4259 H   0  0  0  0  0  0  0  0  0  0  0  0
   63.3720   31.4760   49.7230 C   0  0  0  0  0  0  0  0  0  0  0  0
   62.4293   31.0349   49.3670 H   0  0  0  0  0  0  0  0  0  0  0  0
   61.6080   34.5290   49.0110 C   0  0  0  0  0  0  0  0  0  0  0  0
   62.3871   35.2635   49.2630 H   0  0  0  0  0  0  0  0  0  0  0  0
   60.6572   35.0434   48.8079 H   0  0  0  0  0  0  0  0  0  0  0  0
   61.4280   33.6360   50.1120 O   0  0  0  0  0  0  0  0  0  0  0  0
   60.1830   33.2960   50.6630 C   0  0  0  0  0  0  0  0  0  0  0  0
   59.2730   32.4540   49.9990 C   0  0  0  0  0  0  0  0  0  0  0  0
   59.5420   32.0162   49.0264 H   0  0  0  0  0  0  0  0  0  0  0  0
   58.0300   32.1710   50.5680 C   0  0  0  0  0  0  0  0  0  0  0  0
   57.3214   31.5189   50.0364 H   0  0  0  0  0  0  0  0  0  0  0  0
   57.6800   32.7110   51.8090 C   0  0  0  0  0  0  0  0  0  0  0  0
   56.4040   32.4360   52.3180 O   0  0  0  0  0  0  0  0  0  0  0  0
   55.8220   31.1660   52.4370 C   0  0  0  0  0  0  0  0  0  0  0  0
   56.5540   30.1480   53.0620 C   0  0  0  0  0  0  0  0  0  0  0  0
   57.5696   30.3523   53.4320 H   0  0  0  0  0  0  0  0  0  0  0  0
   56.0000   28.8730   53.2180 C   0  0  0  0  0  0  0  0  0  0  0  0
   56.5845   28.0751   53.6994 H   0  0  0  0  0  0  0  0  0  0  0  0
   54.7050   28.6120   52.7630 C   0  0  0  0  0  0  0  0  0  0  0  0
   54.2729   27.6074   52.8819 H   0  0  0  0  0  0  0  0  0  0  0  0
   53.9580   29.6260   52.1570 C   0  0  0  0  0  0  0  0  0  0  0  0
   52.9368   29.4205   51.8037 H   0  0  0  0  0  0  0  0  0  0  0  0
   54.5080   30.9000   52.0000 C   0  0  0  0  0  0  0  0  0  0  0  0
   53.9136   31.6994   51.5334 H   0  0  0  0  0  0  0  0  0  0  0  0
   58.5910   33.5480   52.4790 C   0  0  0  0  0  0  0  0  0  0  0  0
   58.3191   33.9889   53.4494 H   0  0  0  0  0  0  0  0  0  0  0  0
   59.8410   33.8210   51.9150 C   0  0  0  0  0  0  0  0  0  0  0  0
   60.5599   34.4520   52.4582 H   0  0  0  0  0  0  0  0  0  0  0  0
   59.8120   34.0700   46.5780 C   0  0  0  0  0  0  0  0  0  0  0  0
   59.5688   34.7560   47.4027 H   0  0  0  0  0  0  0  0  0  0  0  0
   59.6244   34.5389   45.6008 H   0  0  0  0  0  0  0  0  0  0  0  0
   58.9460   32.8690   46.6830 N   0  0  0  0  0  0  0  0  0  0  0  0
   57.6080   33.1510   46.1130 C   0  0  0  0  0  0  0  0  0  0  0  0
   56.8392   32.8930   46.8562 H   0  0  0  0  0  0  0  0  0  0  0  0
   57.5553   34.2196   45.8573 H   0  0  0  0  0  0  0  0  0  0  0  0
   57.3720   32.3490   44.8640 C   0  0  0  0  0  0  0  0  0  0  0  0
   56.7210   31.1560   44.9390 N   0  0  0  0  0  0  0  0  0  0  0  0
   56.5230   30.3750   43.8440 C   0  0  0  0  0  0  0  0  0  0  0  0
   55.9887   29.4183   43.9404 H   0  0  0  0  0  0  0  0  0  0  0  0
   56.9980   30.7870   42.5960 C   0  0  0  0  0  0  0  0  0  0  0  0
   56.8463   30.1568   41.7073 H   0  0  0  0  0  0  0  0  0  0  0  0
   57.6670   32.0070   42.4900 C   0  0  0  0  0  0  0  0  0  0  0  0
   58.0453   32.3453   41.5141 H   0  0  0  0  0  0  0  0  0  0  0  0
   57.8550   32.7970   43.6250 C   0  0  0  0  0  0  0  0  0  0  0  0
   58.3771   33.7622   43.5490 H   0  0  0  0  0  0  0  0  0  0  0  0
   59.5680   31.6980   46.0130 C   0  0  0  0  0  0  0  0  0  0  0  0
   58.9550   31.4055   45.1478 H   0  0  0  0  0  0  0  0  0  0  0  0
   60.5803   31.9692   45.6788 H   0  0  0  0  0  0  0  0  0  0  0  0
   59.6580   30.5440   46.9720 C   0  0  0  0  0  0  0  0  0  0  0  0
   58.6830   29.5340   46.9740 C   0  0  0  0  0  0  0  0  0  0  0  0
   57.8669   29.5576   46.2369 H   0  0  0  0  0  0  0  0  0  0  0  0
   58.7470   28.4980   47.9110 C   0  0  0  0  0  0  0  0  0  0  0  0
   57.9806   27.7089   47.9092 H   0  0  0  0  0  0  0  0  0  0  0  0
   59.7820   28.4620   48.8500 C   0  0  0  0  0  0  0  0  0  0  0  0
   59.8218   27.6529   49.5942 H   0  0  0  0  0  0  0  0  0  0  0  0
   60.7660   29.4540   48.8430 C   0  0  0  0  0  0  0  0  0  0  0  0
   61.5874   29.4195   49.5739 H   0  0  0  0  0  0  0  0  0  0  0  0
   60.7060   30.4910   47.9060 C   0  0  0  0  0  0  0  0  0  0  0  0
   61.4836   31.2691   47.9005 H   0  0  0  0  0  0  0  0  0  0  0  0
  1  2  1  0
  2  3  2  0
  3  4  1  0
  4  5  2  0
  4  6  1  0
  6  7  2  0
  7  8  1  0
  7  9  1  0
  9 10  1  0
  9 11  2  0
 11 12  1  0
 11 13  1  0
 13 14  1  0
 13 15  2  0
 15 16  1  0
  3 17  1  0
 17 18  1  0
 17 19  1  0
 17 20  1  0
 20 21  1  0
 21 22  2  0
 22 23  1  0
 22 24  1  0
 24 25  1  0
 24 26  2  0
 26 27  1  0
 27 28  1  0
 28 29  2  0
 29 30  1  0
 29 31  1  0
 31 32  1  0
 31 33  2  0
 33 34  1  0
 33 35  1  0
 35 36  1  0
 35 37  2  0
 37 38  1  0
 26 39  1  0
 39 40  1  0
 39 41  2  0
 41 42  1  0
  2 43  1  0
 43 44  1  0
 43 45  1  0
 43 46  1  0
 46 47  1  0
 47 48  1  0
 47 49  1  0
 47 50  1  0
 50 51  2  0
 51 52  1  0
 52 53  1  0
 52 54  2  0
 54 55  1  0
 54 56  1  0
 56 57  1  0
 56 58  2  0
 58 59  1  0
 46 60  1  0
 60 61  1  0
 60 62  1  0
 60 63  1  0
 63 64  2  0
 64 65  1  0
 64 66  1  0
 66 67  1  0
 66 68  2  0
 68 69  1  0
 68 70  1  0
 70 71  1  0
 70 72  2  0
 72 73  1  0
 15  6  1  0
 41 21  1  0
 58 50  1  0
 72 63  1  0
 37 28  1  0
M  END
>  <UniqueID>  (81) 
75

>  <SMILES>  (81) 
O=C(/C(=C/CN(Cc1ccccc1)Cc1ccccn1)COc1ccc(Oc2ccccc2)cc1)c1ccccc1

>  <Energy>  (81) 
90.7477133868132

>  <Genealogy>  (81) 
O=C(/C(=C/CN(Cc1ccccc1)Cc1ccccn1)COc1ccc(Oc2ccccc2)cc1)c1ccccc1 (cis-trans isomerization)
O=C(/C(=C/CN(Cc1ccccc1)Cc1ccccn1)COc1ccc(Oc2ccccc2)cc1)c1ccccc1 (3D coordinates assigned)
O=C(/C(=C/CN(Cc1ccccc1)Cc1ccccn1)COc1ccc(Oc2ccccc2)cc1)c1ccccc1 (optimized conformer: 90.7477133868132 kcal/mol)

>  <smiles>  (81) 
O=C(C(=CCN(Cc1ccccc1)Cc1ccccn1)COc1ccc(Oc2ccccc2)cc1)c1ccccc1

>  <score_type>  (81) 
oracle

>  <origin>  (81) 
adg

>  <m_score__min__energy>  (81) 
-10.140000000000001

>  <m_primary>  (81) 
energy

$$$$
81:0
     RDKit          3D

 47 49  0  0  0  0  0  0  0  0999 V2000
   57.5040   28.2710   43.4730 C   0  0  0  0  0  0  0  0  0  0  0  0
   56.9520   29.2360   44.8600 S   0  0  0  0  0  0  0  0  0  0  0  0
   57.3750   28.5580   46.1340 O   0  0  0  0  0  0  0  0  0  0  0  0
   55.4540   29.3420   44.8410 O   0  0  0  0  0  0  0  0  0  0  0  0
   57.6550   30.8470   44.7640 C   0  0  0  0  0  0  0  0  0  0  0  0
   57.6130   31.5780   43.5700 C   0  0  0  0  0  0  0  0  0  0  0  0
   58.1740   32.8570   43.5100 C   0  0  0  0  0  0  0  0  0  0  0  0
   58.7730   33.4140   44.6430 C   0  0  0  0  0  0  0  0  0  0  0  0
   58.8110   32.6950   45.8460 C   0  0  0  0  0  0  0  0  0  0  0  0
   59.4440   33.2540   47.0060 N   0  0  0  0  0  0  0  0  0  0  0  0
   60.5400   34.2150   46.8630 C   0  0  0  0  0  0  0  0  0  0  0  0
   61.7680   33.7120   47.5750 C   0  0  0  0  0  0  0  0  0  0  0  0
   62.0530   34.1290   48.8830 C   0  0  0  0  0  0  0  0  0  0  0  0
   63.2230   33.7040   49.5120 C   0  0  0  0  0  0  0  0  0  0  0  0
   64.1040   32.8670   48.8250 C   0  0  0  0  0  0  0  0  0  0  0  0
   63.8200   32.4700   47.5550 N   0  0  0  0  0  0  0  0  0  0  0  0
   62.6840   32.8730   46.9220 C   0  0  0  0  0  0  0  0  0  0  0  0
   58.8940   32.8040   48.5930 S   0  0  0  0  0  0  0  0  0  0  0  0
   59.3300   33.8470   49.5820 O   0  0  0  0  0  0  0  0  0  0  0  0
   57.3920   32.7240   48.6210 O   0  0  0  0  0  0  0  0  0  0  0  0
   59.5590   31.2320   49.0270 C   0  0  0  0  0  0  0  0  0  0  0  0
   60.6960   31.1550   49.8440 C   0  0  0  0  0  0  0  0  0  0  0  0
   61.2030   29.9110   50.2290 C   0  0  0  0  0  0  0  0  0  0  0  0
   60.5760   28.7340   49.8000 C   0  0  0  0  0  0  0  0  0  0  0  0
   61.0940   27.4530   50.2010 C   0  0  0  0  0  0  0  0  0  0  0  0
   61.5090   26.4230   50.5250 N   0  0  0  0  0  0  0  0  0  0  0  0
   59.4410   28.8090   48.9810 C   0  0  0  0  0  0  0  0  0  0  0  0
   58.9340   30.0530   48.5970 C   0  0  0  0  0  0  0  0  0  0  0  0
   58.2510   31.4100   45.9000 C   0  0  0  0  0  0  0  0  0  0  0  0
   58.0197   27.3695   43.8355 H   0  0  0  0  0  0  0  0  0  0  0  0
   56.6374   27.9772   42.8626 H   0  0  0  0  0  0  0  0  0  0  0  0
   58.1966   28.8691   42.8626 H   0  0  0  0  0  0  0  0  0  0  0  0
   57.1376   31.1448   42.6776 H   0  0  0  0  0  0  0  0  0  0  0  0
   58.1439   33.4261   42.5691 H   0  0  0  0  0  0  0  0  0  0  0  0
   59.2160   34.4195   44.5909 H   0  0  0  0  0  0  0  0  0  0  0  0
   60.7684   34.3497   45.7954 H   0  0  0  0  0  0  0  0  0  0  0  0
   60.2360   35.1750   47.3057 H   0  0  0  0  0  0  0  0  0  0  0  0
   61.3534   34.7917   49.4134 H   0  0  0  0  0  0  0  0  0  0  0  0
   63.4494   34.0252   50.5394 H   0  0  0  0  0  0  0  0  0  0  0  0
   65.0302   32.5275   49.3117 H   0  0  0  0  0  0  0  0  0  0  0  0
   64.4900   31.8460   47.0530 H   0  0  0  0  0  0  0  0  0  0  0  0
   62.4831   32.5392   45.8933 H   0  0  0  0  0  0  0  0  0  0  0  0
   61.1906   32.0771   50.1831 H   0  0  0  0  0  0  0  0  0  0  0  0
   62.0955   29.8559   50.8697 H   0  0  0  0  0  0  0  0  0  0  0  0
   58.9484   27.8865   48.6399 H   0  0  0  0  0  0  0  0  0  0  0  0
   58.0420   30.1075   47.9556 H   0  0  0  0  0  0  0  0  0  0  0  0
   58.2800   30.8405   46.8407 H   0  0  0  0  0  0  0  0  0  0  0  0
  1  2  1  0
  2  3  2  0
  2  4  2  0
  2  5  1  0
  5  6  2  0
  6  7  1  0
  7  8  2  0
  8  9  1  0
  9 10  1  0
 10 11  1  0
 11 12  1  0
 12 13  2  0
 13 14  1  0
 14 15  2  0
 15 16  1  0
 16 17  2  0
 10 18  1  0
 18 19  2  0
 18 20  2  0
 18 21  1  0
 21 22  2  0
 22 23  1  0
 23 24  2  0
 24 25  1  0
 25 26  3  0
 24 27  1  0
 27 28  2  0
  9 29  2  0
 29  5  1  0
 17 12  1  0
 28 21  1  0
  1 30  1  0
  1 31  1  0
  1 32  1  0
  6 33  1  0
  7 34  1  0
  8 35  1  0
 11 36  1  0
 11 37  1  0
 13 38  1  0
 14 39  1  0
 15 40  1  0
 16 41  1  0
 17 42  1  0
 22 43  1  0
 23 44  1  0
 27 45  1  0
 28 46  1  0
 29 47  1  0
M  CHG  1  16   1
M  END
>  <UniqueID>  (82) 
76

>  <SMILES>  (82) 
CS(=O)(=O)c1cccc(N(Cc2ccc[nH+]c2)S(=O)(=O)c2ccc(C#N)cc2)c1

>  <Energy>  (82) 
47.72823976173368

>  <Genealogy>  (82) 
CS(=O)(=O)c1cccc(N(Cc2ccc[nH+]c2)S(=O)(=O)c2ccc(C#N)cc2)c1 (protonated)
CS(=O)(=O)c1cccc(N(Cc2ccc[nH+]c2)S(=O)(=O)c2ccc(C#N)cc2)c1 (3D coordinates assigned)
CS(=O)(=O)c1cccc(N(Cc2ccc[nH+]c2)S(=O)(=O)c2ccc(C#N)cc2)c1 (optimized conformer: 47.72823976173368 kcal/mol)

>  <smiles>  (82) 
CS(=O)(=O)c1cccc(N(Cc2cccnc2)S(=O)(=O)c2ccc(C#N)cc2)c1

>  <score_type>  (82) 
oracle

>  <origin>  (82) 
adg

>  <m_score__min__energy>  (82) 
-7.96

>  <m_primary>  (82) 
energy

$$$$
82:0
     RDKit          3D

 46 48  0  0  1  0  0  0  0  0999 V2000
   63.8960   32.1130   49.7750 C   0  0  0  0  0  0  0  0  0  0  0  0
   64.0240   32.1890   48.4760 C   0  0  0  0  0  0  0  0  0  0  0  0
   62.9900   32.9020   47.6910 C   0  0  0  0  0  0  0  0  0  0  0  0
   63.3890   33.7600   46.9020 O   0  0  0  0  0  0  0  0  0  0  0  0
   61.6300   32.5830   47.8710 N   0  0  0  0  0  0  0  0  0  0  0  0
   60.5400   33.1750   47.1960 C   0  0  0  0  0  0  0  0  0  0  0  0
   59.9990   34.3430   47.7460 C   0  0  0  0  0  0  0  0  0  0  0  0
   58.9350   34.9740   47.1410 C   0  0  0  0  0  0  0  0  0  0  0  0
   59.3010   27.6290   47.2210 C   0  0  0  0  0  0  0  0  0  0  0  0
   58.5270   28.7920   47.2220 C   0  0  0  0  0  0  0  0  0  0  0  0
   58.3120   32.8170   44.2280 N   0  0  0  0  0  0  0  0  0  0  0  0
   57.8940   31.6140   44.2430 C   0  0  0  0  0  0  0  0  0  0  0  0
   57.8770   30.8200   45.3300 N   0  0  0  0  0  0  0  0  0  0  0  0
   57.4230   29.5500   45.2920 C   0  0  0  0  0  0  0  0  0  0  0  0
   57.4100   28.7930   46.3420 N   0  0  0  0  0  0  0  0  0  0  0  0
   58.8740   33.3610   45.4360 C   0  0  0  0  0  0  0  0  0  0  0  0
   58.3540   34.5120   45.9930 C   0  0  0  0  0  0  0  0  0  0  0  0
   60.4080   27.5290   48.0410 C   0  0  0  0  0  0  0  0  0  0  0  0
   60.7110   28.6060   48.8470 C   0  0  0  0  0  0  0  0  0  0  0  0
   59.9510   29.7560   48.8520 C   0  0  0  0  0  0  0  0  0  0  0  0
   60.2850   30.8080   49.6690 O   0  0  0  0  0  0  0  0  0  0  0  0
   59.3460   31.7590   50.1130 C   0  0  0  0  0  0  0  0  0  0  0  0
   58.8420   29.8690   48.0360 C   0  0  0  0  0  0  0  0  0  0  0  0
   56.9680   29.0420   44.1310 N   0  0  0  0  0  0  0  0  0  0  0  0
   56.9490   29.7730   42.9840 C   0  0  0  0  0  0  0  0  0  0  0  0
   57.4190   31.0710   43.0470 C   0  0  0  0  0  0  0  0  0  0  0  0
   57.3960   32.0100   41.5830 Cl  0  0  0  0  0  0  0  0  0  0  0  0
   59.9560   32.7230   46.0560 C   0  0  0  0  0  0  0  0  0  0  0  0
   64.6551   31.5871   50.3726 H   0  0  0  0  0  0  0  0  0  0  0  0
   63.0292   32.5750   50.2702 H   0  0  0  0  0  0  0  0  0  0  0  0
   64.8878   31.7297   47.9731 H   0  0  0  0  0  0  0  0  0  0  0  0
   61.4290   31.8250   48.5820 H   0  0  0  0  0  0  0  0  0  0  0  0
   60.4274   34.7603   48.6692 H   0  0  0  0  0  0  0  0  0  0  0  0
   58.5352   35.8895   47.6014 H   0  0  0  0  0  0  0  0  0  0  0  0
   59.0278   26.7896   46.5646 H   0  0  0  0  0  0  0  0  0  0  0  0
   58.2250   31.2090   46.2170 H   0  0  0  0  0  0  0  0  0  0  0  0
   57.5050   35.0371   45.5310 H   0  0  0  0  0  0  0  0  0  0  0  0
   61.0275   26.6201   48.0507 H   0  0  0  0  0  0  0  0  0  0  0  0
   61.5883   28.5455   49.5079 H   0  0  0  0  0  0  0  0  0  0  0  0
   59.3313   31.7739   51.2128 H   0  0  0  0  0  0  0  0  0  0  0  0
   59.6258   32.7540   49.7365 H   0  0  0  0  0  0  0  0  0  0  0  0
   58.3475   31.4919   49.7365 H   0  0  0  0  0  0  0  0  0  0  0  0
   58.2296   30.7827   48.0323 H   0  0  0  0  0  0  0  0  0  0  0  0
   56.6080   28.0620   44.0580 H   0  0  0  0  0  0  0  0  0  0  0  0
   56.5737   29.3470   42.0419 H   0  0  0  0  0  0  0  0  0  0  0  0
   60.3540   31.8070   45.5950 H   0  0  0  0  0  0  0  0  0  0  0  0
  1  2  2  0
  2  3  1  0
  3  4  2  0
  3  5  1  0
  5  6  1  0
  6  7  2  0
  7  8  1  0
  8  9  2  0
  9 10  1  0
 10 11  1  0
 11 12  2  0
 12 13  1  0
 13 14  1  0
 14 15  2  0
 15 16  1  0
 16 17  2  0
 17 18  1  0
 18 19  2  0
 19 20  1  0
 20 21  1  0
 21 22  1  0
 20 23  2  0
 14 24  1  0
 24 25  1  0
 25 26  2  0
 26 27  1  0
 10 28  2  0
 28  6  1  0
 26 12  1  0
 23 16  1  0
  1 29  1  0
  1 30  1  0
  2 31  1  0
  5 32  1  0
  7 33  1  0
  8 34  1  0
  9 35  1  0
 13 36  1  0
 17 37  1  0
 18 38  1  0
 19 39  1  0
 22 40  1  0
 22 41  1  0
 22 42  1  0
 23 43  1  0
 24 44  1  0
 25 45  1  0
 28 46  1  0
M  END
>  <smiles>  (83) 
C=CC(=O)Nc1cccc(N=c2[nH]c(=Nc3cccc(OC)c3)[nH]cc2Cl)c1

>  <score_type>  (83) 
oracle

>  <origin>  (83) 
adg

>  <m_score__min__energy>  (83) 
-8.5700000000000003

>  <m_primary>  (83) 
energy

$$$$
83:0
     RDKit          3D

 39 42  0  0  0  0  0  0  0  0999 V2000
   61.0080   29.4220   50.3750 N   0  0  0  0  0  0  0  0  0  0  0  0
   61.7630   30.6590   50.1930 C   0  0  0  0  0  0  0  0  0  0  0  0
   61.3060   31.4120   48.9340 C   0  0  0  0  0  0  0  0  0  0  0  0
   61.4290   30.6290   47.6060 C   0  0  0  0  0  0  0  0  0  0  0  0
   60.1510   30.0380   47.1690 N   0  0  0  0  0  0  0  0  0  0  0  0
   59.2110   30.7420   46.4450 C   0  0  0  0  0  0  0  0  0  0  0  0
   58.0710   30.1120   45.9440 C   0  0  0  0  0  0  0  0  0  0  0  0
   57.8020   28.7660   46.2210 C   0  0  0  0  0  0  0  0  0  0  0  0
   56.6460   28.1090   45.7570 C   0  0  0  0  0  0  0  0  0  0  0  0
   56.4210   26.7680   46.0720 C   0  0  0  0  0  0  0  0  0  0  0  0
   55.2760   26.1320   45.6070 O   0  0  0  0  0  0  0  0  0  0  0  0
   57.3420   26.0660   46.8530 C   0  0  0  0  0  0  0  0  0  0  0  0
   57.1170   24.7300   47.1670 O   0  0  0  0  0  0  0  0  0  0  0  0
   58.4930   26.7040   47.3200 C   0  0  0  0  0  0  0  0  0  0  0  0
   58.7380   28.0580   47.0110 C   0  0  0  0  0  0  0  0  0  0  0  0
   59.9090   28.7120   47.4670 C   0  0  0  0  0  0  0  0  0  0  0  0
   60.7440   28.0590   48.1560 O   0  0  0  0  0  0  0  0  0  0  0  0
   57.3220   31.0820   45.1430 C   0  0  0  0  0  0  0  0  0  0  0  0
   56.2510   30.8860   44.5100 O   0  0  0  0  0  0  0  0  0  0  0  0
   58.0470   32.3330   45.2050 C   0  0  0  0  0  0  0  0  0  0  0  0
   57.6960   33.5570   44.6360 C   0  0  0  0  0  0  0  0  0  0  0  0
   58.5110   34.6650   44.8880 C   0  0  0  0  0  0  0  0  0  0  0  0
   59.6360   34.5400   45.7220 C   0  0  0  0  0  0  0  0  0  0  0  0
   60.4180   35.6560   45.9940 O   0  0  0  0  0  0  0  0  0  0  0  0
   59.9700   33.2990   46.2920 C   0  0  0  0  0  0  0  0  0  0  0  0
   59.1750   32.1720   45.9980 C   0  0  0  0  0  0  0  0  0  0  0  0
   61.6120   28.6300   50.0600 H   0  0  0  0  0  0  0  0  0  0  0  0
   60.1820   29.4440   49.7330 H   0  0  0  0  0  0  0  0  0  0  0  0
   61.6112   31.3039   51.0711 H   0  0  0  0  0  0  0  0  0  0  0  0
   62.8265   30.4028   50.0774 H   0  0  0  0  0  0  0  0  0  0  0  0
   60.2493   31.6864   49.0686 H   0  0  0  0  0  0  0  0  0  0  0  0
   61.9807   32.2754   48.8380 H   0  0  0  0  0  0  0  0  0  0  0  0
   61.7833   31.3170   46.8242 H   0  0  0  0  0  0  0  0  0  0  0  0
   62.1351   29.8024   47.7739 H   0  0  0  0  0  0  0  0  0  0  0  0
   55.9159   28.6561   45.1425 H   0  0  0  0  0  0  0  0  0  0  0  0
   59.2148   26.1456   47.9342 H   0  0  0  0  0  0  0  0  0  0  0  0
   56.8000   33.6485   44.0045 H   0  0  0  0  0  0  0  0  0  0  0  0
   58.2713   35.6371   44.4325 H   0  0  0  0  0  0  0  0  0  0  0  0
   60.8402   33.2083   46.9587 H   0  0  0  0  0  0  0  0  0  0  0  0
  1  2  1  0
  2  3  1  0
  3  4  1  0
  4  5  1  0
  5  6  1  0
  6  7  2  0
  7  8  1  0
  8  9  2  0
  9 10  1  0
 10 11  1  0
 10 12  2  0
 12 13  1  0
 12 14  1  0
 14 15  2  0
 15 16  1  0
 16 17  2  0
  7 18  1  0
 18 19  2  0
 18 20  1  0
 20 21  2  0
 21 22  1  0
 22 23  2  0
 23 24  1  0
 23 25  1  0
 25 26  2  0
 16  5  1  0
 26 20  1  0
 26  6  1  0
 15  8  1  0
  1 27  1  0
  1 28  1  0
  2 29  1  0
  2 30  1  0
  3 31  1  0
  3 32  1  0
  4 33  1  0
  4 34  1  0
  9 35  1  0
 14 36  1  0
 21 37  1  0
 22 38  1  0
 25 39  1  0
M  CHG  3  11  -1  13  -1  24  -1
M  END
>  <UniqueID>  (84) 
77

>  <SMILES>  (84) 
NCCCn1c2c(c3cc([O-])c([O-])cc3c1=O)C(=O)c1ccc([O-])cc1-2

>  <Energy>  (84) 
91.54755774287477

>  <Genealogy>  (84) 
NCCCn1c2c(c3cc([O-])c([O-])cc3c1=O)C(=O)c1ccc([O-])cc1-2 (protonated)
NCCCn1c2c(c3cc([O-])c([O-])cc3c1=O)C(=O)c1ccc([O-])cc1-2 (3D coordinates assigned)
NCCCn1c2c(c3cc([O-])c([O-])cc3c1=O)C(=O)c1ccc([O-])cc1-2 (nonaromatic ring conformer: 91.54755774287477 kcal/mol)

>  <smiles>  (84) 
NCCCn1c2c(c3cc(O)c(O)cc3c1=O)C(=O)c1ccc(O)cc1-2

>  <score_type>  (84) 
oracle

>  <origin>  (84) 
adg

>  <m_score__min__energy>  (84) 
-13

>  <m_primary>  (84) 
energy

$$$$
84:0
     RDKit          3D

 29 31  0  0  0  0  0  0  0  0999 V2000
   55.1530   28.9700   44.8960 O   0  0  0  0  0  0  0  0  0  0  0  0
   56.0410   29.8410   44.2780 C   0  0  0  0  0  0  0  0  0  0  0  0
   56.0050   30.0060   42.8910 C   0  0  0  0  0  0  0  0  0  0  0  0
   56.8970   30.8830   42.2690 C   0  0  0  0  0  0  0  0  0  0  0  0
   57.8270   31.5960   43.0310 C   0  0  0  0  0  0  0  0  0  0  0  0
   57.8730   31.4390   44.4290 C   0  0  0  0  0  0  0  0  0  0  0  0
   58.8550   32.1890   45.2480 C   0  0  0  0  0  0  0  0  0  0  0  0
   59.0160   33.5300   45.1770 N   0  0  0  0  0  0  0  0  0  0  0  0
   59.9780   33.9860   46.0250 C   0  0  0  0  0  0  0  0  0  0  0  0
   60.6060   33.0030   46.7940 C   0  0  0  0  0  0  0  0  0  0  0  0
   61.6860   33.2020   47.7950 C   0  0  0  0  0  0  0  0  0  0  0  0
   62.9140   32.5260   47.6570 C   0  0  0  0  0  0  0  0  0  0  0  0
   63.9350   32.7080   48.5950 C   0  0  0  0  0  0  0  0  0  0  0  0
   63.7460   33.5630   49.6860 C   0  0  0  0  0  0  0  0  0  0  0  0
   64.7560   33.7510   50.6270 O   0  0  0  0  0  0  0  0  0  0  0  0
   62.5310   34.2360   49.8350 C   0  0  0  0  0  0  0  0  0  0  0  0
   61.5070   34.0590   48.8990 C   0  0  0  0  0  0  0  0  0  0  0  0
   59.9140   31.5230   46.3740 S   0  0  0  0  0  0  0  0  0  0  0  0
   56.9700   30.5530   45.0450 C   0  0  0  0  0  0  0  0  0  0  0  0
   55.2746   29.4456   42.2890 H   0  0  0  0  0  0  0  0  0  0  0  0
   56.8674   31.0128   41.1771 H   0  0  0  0  0  0  0  0  0  0  0  0
   58.5273   32.2841   42.5350 H   0  0  0  0  0  0  0  0  0  0  0  0
   60.2419   35.0513   46.0995 H   0  0  0  0  0  0  0  0  0  0  0  0
   63.0712   31.8492   46.8042 H   0  0  0  0  0  0  0  0  0  0  0  0
   64.8906   32.1767   48.4745 H   0  0  0  0  0  0  0  0  0  0  0  0
   65.1690   32.9700   51.1220 H   0  0  0  0  0  0  0  0  0  0  0  0
   62.3790   34.9082   50.6924 H   0  0  0  0  0  0  0  0  0  0  0  0
   60.5539   34.5933   49.0258 H   0  0  0  0  0  0  0  0  0  0  0  0
   56.9945   30.4192   46.1366 H   0  0  0  0  0  0  0  0  0  0  0  0
  1  2  1  0
  2  3  2  0
  3  4  1  0
  4  5  2  0
  5  6  1  0
  6  7  1  0
  7  8  2  0
  8  9  1  0
  9 10  2  0
 10 11  1  0
 11 12  2  0
 12 13  1  0
 13 14  2  0
 14 15  1  0
 14 16  1  0
 16 17  2  0
 10 18  1  0
  6 19  2  0
 19  2  1  0
 18  7  1  0
 17 11  1  0
  3 20  1  0
  4 21  1  0
  5 22  1  0
  9 23  1  0
 12 24  1  0
 13 25  1  0
 15 26  1  0
 16 27  1  0
 17 28  1  0
 19 29  1  0
M  CHG  1   1  -1
M  END
>  <UniqueID>  (85) 
78

>  <SMILES>  (85) 
[O-]c1cccc(-c2ncc(-c3ccc(O)cc3)s2)c1

>  <Energy>  (85) 
64.96350809925127

>  <Genealogy>  (85) 
[O-]c1cccc(-c2ncc(-c3ccc(O)cc3)s2)c1 (protonated)
[O-]c1cccc(-c2ncc(-c3ccc(O)cc3)s2)c1 (3D coordinates assigned)
[O-]c1cccc(-c2ncc(-c3ccc(O)cc3)s2)c1 (optimized conformer: 64.96350809925127 kcal/mol)

>  <smiles>  (85) 
Oc1ccc(-c2cnc(-c3cccc(O)c3)s2)cc1

>  <score_type>  (85) 
oracle

>  <origin>  (85) 
adg

>  <m_score__min__energy>  (85) 
-10.1

>  <m_primary>  (85) 
energy

$$$$
85:0
     RDKit          3D

 58 61  0  0  0  0  0  0  0  0999 V2000
   65.9050   32.9590   52.0380 C   0  0  0  0  0  0  0  0  0  0  0  0
   66.5780   32.5980   50.8720 C   0  0  0  0  0  0  0  0  0  0  0  0
   65.8770   32.3250   49.7430 N   0  0  0  0  0  0  0  0  0  0  0  0
   64.5180   32.4010   49.7240 C   0  0  0  0  0  0  0  0  0  0  0  0
   63.7780   32.0670   48.4600 C   0  0  0  0  0  0  0  0  0  0  0  0
   62.4040   32.6050   48.5140 N   0  0  0  0  0  0  0  0  0  0  0  0
   62.4150   34.0720   48.6700 C   0  0  0  0  0  0  0  0  0  0  0  0
   61.0050   34.5880   48.9890 C   0  0  0  0  0  0  0  0  0  0  0  0
   59.9090   33.6030   48.5470 C   0  0  0  0  0  0  0  0  0  0  0  0
   60.2320   32.9090   47.1870 C   0  0  2  0  0  0  0  0  0  0  0  0
   60.2730   33.9610   46.0410 C   0  0  0  0  0  0  0  0  0  0  0  0
   58.9140   34.6290   45.7870 C   0  0  0  0  0  0  0  0  0  0  0  0
   57.7280   33.6640   45.9740 C   0  0  0  0  0  0  0  0  0  0  0  0
   58.1180   32.2480   45.8490 N   0  0  0  0  0  0  0  0  0  0  0  0
   58.4720   31.8460   44.4640 C   0  0  0  0  0  0  0  0  0  0  0  0
   57.9520   30.4290   44.1350 C   0  0  0  0  0  0  0  0  0  0  0  0
   56.6150   30.4440   43.3570 C   0  0  0  0  0  0  0  0  0  0  0  0
   55.4400   30.0750   44.2760 C   0  0  0  0  0  0  0  0  0  0  0  0
   55.5500   28.7790   44.8540 O   0  0  0  0  0  0  0  0  0  0  0  0
   56.8870   28.3720   45.1350 C   0  0  0  0  0  0  0  0  0  0  0  0
   57.8590   29.5350   45.3900 C   0  0  0  0  0  0  0  0  0  0  0  0
   59.1150   31.8380   46.8710 C   0  0  0  0  0  0  0  0  0  0  0  0
   61.6470   32.2130   47.3000 C   0  0  0  0  0  0  0  0  0  0  0  0
   63.8430   32.7480   50.8570 N   0  0  0  0  0  0  0  0  0  0  0  0
   64.5130   33.0280   52.0060 C   0  0  0  0  0  0  0  0  0  0  0  0
   66.4590   33.1841   52.9613 H   0  0  0  0  0  0  0  0  0  0  0  0
   67.6762   32.5345   50.8672 H   0  0  0  0  0  0  0  0  0  0  0  0
   64.3071   32.5080   47.6023 H   0  0  0  0  0  0  0  0  0  0  0  0
   63.7304   30.9734   48.3512 H   0  0  0  0  0  0  0  0  0  0  0  0
   63.0946   34.3439   49.4911 H   0  0  0  0  0  0  0  0  0  0  0  0
   62.7568   34.5278   47.7290 H   0  0  0  0  0  0  0  0  0  0  0  0
   60.9229   34.7447   50.0747 H   0  0  0  0  0  0  0  0  0  0  0  0
   60.8569   35.5269   48.4353 H   0  0  0  0  0  0  0  0  0  0  0  0
   59.8005   32.8279   49.3200 H   0  0  0  0  0  0  0  0  0  0  0  0
   58.9811   34.1784   48.4129 H   0  0  0  0  0  0  0  0  0  0  0  0
   61.0018   34.7406   46.3075 H   0  0  0  0  0  0  0  0  0  0  0  0
   60.5550   33.4309   45.1194 H   0  0  0  0  0  0  0  0  0  0  0  0
   58.7983   35.4677   46.4893 H   0  0  0  0  0  0  0  0  0  0  0  0
   58.9027   34.9673   44.7404 H   0  0  0  0  0  0  0  0  0  0  0  0
   57.2996   33.8235   46.9745 H   0  0  0  0  0  0  0  0  0  0  0  0
   56.9987   33.8779   45.1788 H   0  0  0  0  0  0  0  0  0  0  0  0
   58.0262   32.5629   43.7588 H   0  0  0  0  0  0  0  0  0  0  0  0
   59.5685   31.8402   44.3761 H   0  0  0  0  0  0  0  0  0  0  0  0
   58.7037   29.9843   43.4663 H   0  0  0  0  0  0  0  0  0  0  0  0
   56.4486   31.4510   42.9468 H   0  0  0  0  0  0  0  0  0  0  0  0
   56.6725   29.7028   42.5463 H   0  0  0  0  0  0  0  0  0  0  0  0
   55.3895   30.8145   45.0888 H   0  0  0  0  0  0  0  0  0  0  0  0
   54.5334   30.0729   43.6531 H   0  0  0  0  0  0  0  0  0  0  0  0
   56.8721   27.7323   46.0298 H   0  0  0  0  0  0  0  0  0  0  0  0
   57.2517   27.8454   44.2408 H   0  0  0  0  0  0  0  0  0  0  0  0
   57.4960   30.1341   46.2381 H   0  0  0  0  0  0  0  0  0  0  0  0
   58.8554   29.1296   45.6196 H   0  0  0  0  0  0  0  0  0  0  0  0
   58.5759   31.6224   47.8053 H   0  0  0  0  0  0  0  0  0  0  0  0
   59.6381   30.9645   46.4546 H   0  0  0  0  0  0  0  0  0  0  0  0
   61.4985   31.1232   47.3191 H   0  0  0  0  0  0  0  0  0  0  0  0
   62.2379   32.5384   46.4311 H   0  0  0  0  0  0  0  0  0  0  0  0
   62.7990   32.7980   50.8560 H   0  0  0  0  0  0  0  0  0  0  0  0
   63.9561   33.3094   52.9119 H   0  0  0  0  0  0  0  0  0  0  0  0
  1  2  2  0
  2  3  1  0
  3  4  2  0
  4  5  1  0
  5  6  1  0
  6  7  1  0
  7  8  1  0
  8  9  1  0
 10  9  1  1
 10 11  1  0
 11 12  1  0
 12 13  1  0
 13 14  1  0
 14 15  1  0
 15 16  1  0
 16 17  1  0
 17 18  1  0
 18 19  1  0
 19 20  1  0
 20 21  1  0
 14 22  1  0
 10 23  1  0
  4 24  1  0
 24 25  2  0
 25  1  1  0
 23  6  1  0
 22 10  1  0
 21 16  1  0
  1 26  1  0
  2 27  1  0
  5 28  1  0
  5 29  1  0
  7 30  1  0
  7 31  1  0
  8 32  1  0
  8 33  1  0
  9 34  1  0
  9 35  1  0
 11 36  1  0
 11 37  1  0
 12 38  1  0
 12 39  1  0
 13 40  1  0
 13 41  1  0
 15 42  1  0
 15 43  1  0
 16 44  1  0
 17 45  1  0
 17 46  1  0
 18 47  1  0
 18 48  1  0
 20 49  1  0
 20 50  1  0
 21 51  1  0
 21 52  1  0
 22 53  1  0
 22 54  1  0
 23 55  1  0
 23 56  1  0
 24 57  1  0
 25 58  1  0
M  CHG  1  24   1
M  END
>  <UniqueID>  (86) 
79

>  <SMILES>  (86) 
c1cnc(CN2CCC[C@@]3(CCCN(CC4CCOCC4)C3)C2)[nH+]c1

>  <Energy>  (86) 
92.62869998239643

>  <Genealogy>  (86) 
c1cnc(CN2CCCC3(CCCN(CC4CCOCC4)C3)C2)[nH+]c1 (protonated)
c1cnc(CN2CCC[C@@]3(CCCN(CC4CCOCC4)C3)C2)[nH+]c1 (chirality)
c1cnc(CN2CCC[C@@]3(CCCN(CC4CCOCC4)C3)C2)[nH+]c1 (3D coordinates assigned)
c1cnc(CN2CCC[C@@]3(CCCN(CC4CCOCC4)C3)C2)[nH+]c1 (nonaromatic ring conformer: 92.62869998239643 kcal/mol)

>  <smiles>  (86) 
c1cnc(CN2CCCC3(CCCN(CC4CCOCC4)C3)C2)nc1

>  <score_type>  (86) 
oracle

>  <origin>  (86) 
adg

>  <m_score__min__energy>  (86) 
-8.1300000000000008

>  <m_primary>  (86) 
energy

$$$$
86:0
     RDKit          3D

 66 68  0  0  0  0  0  0  0  0999 V2000
   62.8770   30.5680   50.9680 C   0  0  0  0  0  0  0  0  0  0  0  0
   61.6480   29.7040   50.6970 C   0  0  0  0  0  0  0  0  0  0  0  0
   61.2570   29.7930   49.3270 O   0  0  0  0  0  0  0  0  0  0  0  0
   60.3870   28.9110   48.6610 C   0  0  0  0  0  0  0  0  0  0  0  0
   60.7720   27.6080   48.2890 C   0  0  0  0  0  0  0  0  0  0  0  0
   59.8770   26.7660   47.6280 C   0  0  0  0  0  0  0  0  0  0  0  0
   58.5780   27.2050   47.3370 C   0  0  0  0  0  0  0  0  0  0  0  0
   57.6200   26.3060   46.5980 C   0  0  0  0  0  0  0  0  0  0  0  0
   58.3410   25.4740   45.5360 C   0  0  0  0  0  0  0  0  0  0  0  0
   57.7890   25.7570   44.2150 N   0  0  0  0  0  0  0  0  0  0  0  0
   58.1200   26.9000   43.4150 C   0  0  0  0  0  0  0  0  0  0  0  0
   58.4120   26.7260   42.2020 O   0  0  0  0  0  0  0  0  0  0  0  0
   58.0920   28.2730   43.9540 C   0  0  0  0  0  0  0  0  0  0  0  0
   59.2490   28.8220   44.5250 C   0  0  0  0  0  0  0  0  0  0  0  0
   59.2330   30.1180   45.0500 C   0  0  0  0  0  0  0  0  0  0  0  0
   58.0520   30.8740   45.0290 C   0  0  0  0  0  0  0  0  0  0  0  0
   58.0390   32.2790   45.5650 C   0  0  0  0  0  0  0  0  0  0  0  0
   58.8210   32.3470   46.8000 N   0  0  0  0  0  0  0  0  0  0  0  0
   59.7620   33.8090   46.8190 S   0  0  0  0  0  0  0  0  0  0  0  0
   60.0430   34.2340   45.4050 O   0  0  0  0  0  0  0  0  0  0  0  0
   58.9900   34.9060   47.5010 O   0  0  0  0  0  0  0  0  0  0  0  0
   61.2910   33.5300   47.6520 C   0  0  0  0  0  0  0  0  0  0  0  0
   62.2700   32.6990   47.0880 C   0  0  0  0  0  0  0  0  0  0  0  0
   63.4930   32.5110   47.7390 C   0  0  0  0  0  0  0  0  0  0  0  0
   63.7570   33.1640   48.9530 C   0  0  0  0  0  0  0  0  0  0  0  0
   65.0630   32.9480   49.6630 C   0  0  0  0  0  0  0  0  0  0  0  0
   62.7710   33.9880   49.5220 C   0  0  0  0  0  0  0  0  0  0  0  0
   62.9970   34.6170   50.7020 F   0  0  0  0  0  0  0  0  0  0  0  0
   61.5470   34.1720   48.8700 C   0  0  0  0  0  0  0  0  0  0  0  0
   56.8910   30.3240   44.4630 C   0  0  0  0  0  0  0  0  0  0  0  0
   56.9080   29.0270   43.9410 C   0  0  0  0  0  0  0  0  0  0  0  0
   58.1920   28.5030   47.6980 C   0  0  0  0  0  0  0  0  0  0  0  0
   59.0880   29.3590   48.3700 C   0  0  0  0  0  0  0  0  0  0  0  0
   58.7370   30.6640   48.7590 O   0  0  0  0  0  0  0  0  0  0  0  0
   58.5570   31.1140   50.1020 C   0  0  0  0  0  0  0  0  0  0  0  0
   58.9220   32.5890   50.2350 C   0  0  0  0  0  0  0  0  0  0  0  0
   63.0216   30.6696   52.0537 H   0  0  0  0  0  0  0  0  0  0  0  0
   63.7640   30.0937   50.5228 H   0  0  0  0  0  0  0  0  0  0  0  0
   62.7310   31.5632   50.5228 H   0  0  0  0  0  0  0  0  0  0  0  0
   61.8835   28.6567   50.9374 H   0  0  0  0  0  0  0  0  0  0  0  0
   60.8190   30.0641   51.3240 H   0  0  0  0  0  0  0  0  0  0  0  0
   61.7863   27.2515   48.5215 H   0  0  0  0  0  0  0  0  0  0  0  0
   60.1920   25.7539   47.3341 H   0  0  0  0  0  0  0  0  0  0  0  0
   57.1383   25.6278   47.3177 H   0  0  0  0  0  0  0  0  0  0  0  0
   56.8722   26.9365   46.0947 H   0  0  0  0  0  0  0  0  0  0  0  0
   59.4122   25.7242   45.5436 H   0  0  0  0  0  0  0  0  0  0  0  0
   58.2036   24.4062   45.7617 H   0  0  0  0  0  0  0  0  0  0  0  0
   60.1751   28.2295   44.5602 H   0  0  0  0  0  0  0  0  0  0  0  0
   60.1501   30.5460   45.4810 H   0  0  0  0  0  0  0  0  0  0  0  0
   58.4760   32.9585   44.8184 H   0  0  0  0  0  0  0  0  0  0  0  0
   57.0014   32.5771   45.7759 H   0  0  0  0  0  0  0  0  0  0  0  0
   58.1580   32.4100   47.6050 H   0  0  0  0  0  0  0  0  0  0  0  0
   62.0751   32.1936   46.1306 H   0  0  0  0  0  0  0  0  0  0  0  0
   64.2519   31.8482   47.2976 H   0  0  0  0  0  0  0  0  0  0  0  0
   64.8982   32.9753   50.7502 H   0  0  0  0  0  0  0  0  0  0  0  0
   65.4771   31.9692   49.3793 H   0  0  0  0  0  0  0  0  0  0  0  0
   65.7702   33.7414   49.3793 H   0  0  0  0  0  0  0  0  0  0  0  0
   60.7818   34.8242   49.3163 H   0  0  0  0  0  0  0  0  0  0  0  0
   55.9643   30.9157   44.4300 H   0  0  0  0  0  0  0  0  0  0  0  0
   55.9889   28.5953   43.5180 H   0  0  0  0  0  0  0  0  0  0  0  0
   57.1795   28.8574   47.4545 H   0  0  0  0  0  0  0  0  0  0  0  0
   57.5044   30.9760   50.3901 H   0  0  0  0  0  0  0  0  0  0  0  0
   59.2153   30.5282   50.7603 H   0  0  0  0  0  0  0  0  0  0  0  0
   58.9880   32.8558   51.3001 H   0  0  0  0  0  0  0  0  0  0  0  0
   59.8925   32.7717   49.7504 H   0  0  0  0  0  0  0  0  0  0  0  0
   58.1488   33.2032   49.7504 H   0  0  0  0  0  0  0  0  0  0  0  0
  1  2  1  0
  2  3  1  0
  3  4  1  0
  4  5  2  0
  5  6  1  0
  6  7  2  0
  7  8  1  0
  8  9  1  0
  9 10  1  0
 10 11  1  0
 11 12  2  0
 11 13  1  0
 13 14  2  0
 14 15  1  0
 15 16  2  0
 16 17  1  0
 17 18  1  0
 18 19  1  0
 19 20  2  0
 19 21  2  0
 19 22  1  0
 22 23  2  0
 23 24  1  0
 24 25  2  0
 25 26  1  0
 25 27  1  0
 27 28  1  0
 27 29  2  0
 16 30  1  0
 30 31  2  0
  7 32  1  0
 32 33  2  0
 33 34  1  0
 34 35  1  0
 35 36  1  0
 33  4  1  0
 31 13  1  0
 29 22  1  0
  1 37  1  0
  1 38  1  0
  1 39  1  0
  2 40  1  0
  2 41  1  0
  5 42  1  0
  6 43  1  0
  8 44  1  0
  8 45  1  0
  9 46  1  0
  9 47  1  0
 14 48  1  0
 15 49  1  0
 17 50  1  0
 17 51  1  0
 18 52  1  0
 23 53  1  0
 24 54  1  0
 26 55  1  0
 26 56  1  0
 26 57  1  0
 29 58  1  0
 30 59  1  0
 31 60  1  0
 32 61  1  0
 35 62  1  0
 35 63  1  0
 36 64  1  0
 36 65  1  0
 36 66  1  0
M  CHG  1  10  -1
M  END
>  <UniqueID>  (87) 
80

>  <SMILES>  (87) 
CCOc1ccc(CC[N-]C(=O)c2ccc(CNS(=O)(=O)c3ccc(C)c(F)c3)cc2)cc1OCC

>  <Energy>  (87) 
61.49422238396275

>  <Genealogy>  (87) 
CCOc1ccc(CC[N-]C(=O)c2ccc(CNS(=O)(=O)c3ccc(C)c(F)c3)cc2)cc1OCC (protonated)
CCOc1ccc(CC[N-]C(=O)c2ccc(CNS(=O)(=O)c3ccc(C)c(F)c3)cc2)cc1OCC (3D coordinates assigned)
CCOc1ccc(CC[N-]C(=O)c2ccc(CNS(=O)(=O)c3ccc(C)c(F)c3)cc2)cc1OCC (optimized conformer: 61.49422238396275 kcal/mol)

>  <smiles>  (87) 
CCOc1ccc(CCNC(=O)c2ccc(CNS(=O)(=O)c3ccc(C)c(F)c3)cc2)cc1OCC

>  <score_type>  (87) 
oracle

>  <origin>  (87) 
adg

>  <m_score__min__energy>  (87) 
-9.6799999999999997

>  <m_primary>  (87) 
energy

$$$$
87:0
     RDKit          3D

 52 55  0  0  1  0  0  0  0  0999 V2000
   65.8410   33.0530   50.6760 C   0  0  0  0  0  0  0  0  0  0  0  0
   64.6160   33.1950   49.8450 C   0  0  0  0  0  0  0  0  0  0  0  0
   63.3570   33.3580   50.3870 C   0  0  0  0  0  0  0  0  0  0  0  0
   62.4970   33.4520   49.3110 C   0  0  0  0  0  0  0  0  0  0  0  0
   61.1240   33.6210   49.1720 C   0  0  0  0  0  0  0  0  0  0  0  0
   60.5730   33.6740   47.9090 C   0  0  0  0  0  0  0  0  0  0  0  0
   56.9700   30.9080   45.0090 N   0  0  0  0  0  0  0  0  0  0  0  0
   57.4750   32.0500   45.2600 C   0  0  0  0  0  0  0  0  0  0  0  0
   58.5370   34.5670   45.6850 C   0  0  0  0  0  0  0  0  0  0  0  0
   57.9250   34.2350   44.4920 C   0  0  0  0  0  0  0  0  0  0  0  0
   57.4110   33.0010   44.2970 N   0  0  0  0  0  0  0  0  0  0  0  0
   58.5830   33.5570   46.6500 C   0  0  0  0  0  0  0  0  0  0  0  0
   59.1500   33.8490   47.7680 N   0  0  0  0  0  0  0  0  0  0  0  0
   57.6920   29.7160   45.3080 C   0  0  0  0  0  0  0  0  0  0  0  0
   57.3780   28.5780   44.5940 C   0  0  0  0  0  0  0  0  0  0  0  0
   58.0840   27.4310   44.8940 C   0  0  0  0  0  0  0  0  0  0  0  0
   59.0630   27.4250   45.8640 C   0  0  0  0  0  0  0  0  0  0  0  0
   59.8390   26.1820   46.1970 C   0  0  0  0  0  0  0  0  0  0  0  0
   59.3980   28.5610   46.5960 C   0  0  0  0  0  0  0  0  0  0  0  0
   60.3980   28.5540   47.5920 N   0  0  0  0  0  0  0  0  0  0  0  0
   60.6530   29.8420   48.7070 S   0  0  0  0  0  0  0  0  0  0  0  0
   60.9000   29.1680   50.3200 C   0  0  0  0  0  0  0  0  0  0  0  0
   61.9030   30.6160   48.3140 O   0  0  0  0  0  0  0  0  0  0  0  0
   59.4590   30.7500   48.6990 O   0  0  0  0  0  0  0  0  0  0  0  0
   58.6860   29.7100   46.2920 C   0  0  0  0  0  0  0  0  0  0  0  0
   58.0680   32.3430   46.4370 N   0  0  0  0  0  0  0  0  0  0  0  0
   61.3150   33.5680   46.7510 C   0  0  0  0  0  0  0  0  0  0  0  0
   62.6940   33.3990   46.8920 C   0  0  0  0  0  0  0  0  0  0  0  0
   63.2420   33.3460   48.1600 C   0  0  0  0  0  0  0  0  0  0  0  0
   64.5550   33.1870   48.5020 N   0  0  0  0  0  0  0  0  0  0  0  0
   65.5674   33.0847   51.7409 H   0  0  0  0  0  0  0  0  0  0  0  0
   66.3275   32.0925   50.4509 H   0  0  0  0  0  0  0  0  0  0  0  0
   66.5343   33.8768   50.4509 H   0  0  0  0  0  0  0  0  0  0  0  0
   63.0937   33.4035   51.4541 H   0  0  0  0  0  0  0  0  0  0  0  0
   60.4831   33.7116   50.0614 H   0  0  0  0  0  0  0  0  0  0  0  0
   58.9622   35.5655   45.8646 H   0  0  0  0  0  0  0  0  0  0  0  0
   57.8553   34.9851   43.6904 H   0  0  0  0  0  0  0  0  0  0  0  0
   56.9540   32.7670   43.3970 H   0  0  0  0  0  0  0  0  0  0  0  0
   56.5979   28.5847   43.8185 H   0  0  0  0  0  0  0  0  0  0  0  0
   57.8609   26.5026   44.3479 H   0  0  0  0  0  0  0  0  0  0  0  0
   59.9066   26.0737   47.2896 H   0  0  0  0  0  0  0  0  0  0  0  0
   59.3273   25.3056   45.7726 H   0  0  0  0  0  0  0  0  0  0  0  0
   60.8511   26.2569   45.7726 H   0  0  0  0  0  0  0  0  0  0  0  0
   61.0150   27.6950   47.6350 H   0  0  0  0  0  0  0  0  0  0  0  0
   60.6253   29.9177   51.0767 H   0  0  0  0  0  0  0  0  0  0  0  0
   60.2710   28.2742   50.4442 H   0  0  0  0  0  0  0  0  0  0  0  0
   61.9576   28.8922   50.4442 H   0  0  0  0  0  0  0  0  0  0  0  0
   58.9076   30.6393   46.8373 H   0  0  0  0  0  0  0  0  0  0  0  0
   58.1200   31.6030   47.1930 H   0  0  0  0  0  0  0  0  0  0  0  0
   60.8410   33.6146   45.7595 H   0  0  0  0  0  0  0  0  0  0  0  0
   63.3370   33.3091   46.0040 H   0  0  0  0  0  0  0  0  0  0  0  0
   65.3760   33.0780   47.8730 H   0  0  0  0  0  0  0  0  0  0  0  0
  1  2  1  0
  2  3  2  0
  3  4  1  0
  4  5  2  0
  5  6  1  0
  6  7  1  0
  7  8  2  0
  8  9  1  0
  9 10  2  0
 10 11  1  0
 11 12  1  0
 12 13  2  0
 13 14  1  0
 14 15  2  0
 15 16  1  0
 16 17  2  0
 17 18  1  0
 17 19  1  0
 19 20  1  0
 20 21  1  0
 21 22  1  0
 21 23  2  0
 21 24  2  0
 19 25  2  0
 12 26  1  0
  6 27  2  0
 27 28  1  0
 28 29  2  0
 29 30  1  0
 30  2  1  0
 29  4  1  0
 26  8  1  0
 25 14  1  0
  1 31  1  0
  1 32  1  0
  1 33  1  0
  3 34  1  0
  5 35  1  0
  9 36  1  0
 10 37  1  0
 11 38  1  0
 15 39  1  0
 16 40  1  0
 18 41  1  0
 18 42  1  0
 18 43  1  0
 20 44  1  0
 22 45  1  0
 22 46  1  0
 22 47  1  0
 25 48  1  0
 26 49  1  0
 27 50  1  0
 28 51  1  0
 30 52  1  0
M  END
>  <smiles>  (88) 
Cc1cc2cc(N=c3cc[nH]c(=Nc4ccc(C)c(NS(C)(=O)=O)c4)[nH]3)ccc2[nH]1

>  <score_type>  (88) 
oracle

>  <origin>  (88) 
adg

>  <m_score__min__energy>  (88) 
-10.32

>  <m_primary>  (88) 
energy

$$$$
88:0
     RDKit          3D

 35 36  0  0  0  0  0  0  0  0999 V2000
   59.7240   34.7540   47.4890 C   0  0  0  0  0  0  0  0  0  0  0  0
   59.5060   34.7200   45.9790 C   0  0  0  0  0  0  0  0  0  0  0  0
   58.7230   33.4960   45.5890 C   0  0  0  0  0  0  0  0  0  0  0  0
   58.0500   33.4500   44.3580 C   0  0  0  0  0  0  0  0  0  0  0  0
   57.3980   32.2840   43.9540 C   0  0  0  0  0  0  0  0  0  0  0  0
   57.4220   31.1440   44.7700 C   0  0  0  0  0  0  0  0  0  0  0  0
   56.7360   29.6230   44.2020 S   0  0  0  0  0  0  0  0  0  0  0  0
   55.5670   29.2690   45.0750 O   0  0  0  0  0  0  0  0  0  0  0  0
   56.2670   29.7540   42.7800 O   0  0  0  0  0  0  0  0  0  0  0  0
   57.9180   28.3540   44.2890 N   0  0  0  0  0  0  0  0  0  0  0  0
   58.1420   27.5080   45.4240 C   0  0  0  0  0  0  0  0  0  0  0  0
   58.8700   27.9320   46.3590 O   0  0  0  0  0  0  0  0  0  0  0  0
   57.5510   26.1610   45.5290 C   0  0  0  0  0  0  0  0  0  0  0  0
   58.2540   25.0140   45.4280 N   0  0  0  0  0  0  0  0  0  0  0  0
   57.4060   24.0090   45.5950 N   0  0  0  0  0  0  0  0  0  0  0  0
   57.8070   22.6110   45.6450 C   0  0  0  0  0  0  0  0  0  0  0  0
   56.1620   24.4770   45.8170 C   0  0  0  0  0  0  0  0  0  0  0  0
   56.2230   25.8490   45.7730 C   0  0  0  0  0  0  0  0  0  0  0  0
   55.1600   26.7230   45.9800 O   0  0  0  0  0  0  0  0  0  0  0  0
   58.0710   31.1940   46.0100 C   0  0  0  0  0  0  0  0  0  0  0  0
   58.7270   32.3610   46.4140 C   0  0  0  0  0  0  0  0  0  0  0  0
   58.7624   34.6040   48.0018 H   0  0  0  0  0  0  0  0  0  0  0  0
   60.4218   33.9538   47.7768 H   0  0  0  0  0  0  0  0  0  0  0  0
   60.1449   35.7287   47.7768 H   0  0  0  0  0  0  0  0  0  0  0  0
   58.9501   35.6185   45.6728 H   0  0  0  0  0  0  0  0  0  0  0  0
   60.4849   34.6917   45.4780 H   0  0  0  0  0  0  0  0  0  0  0  0
   58.0364   34.3376   43.7084 H   0  0  0  0  0  0  0  0  0  0  0  0
   56.8638   32.2593   42.9927 H   0  0  0  0  0  0  0  0  0  0  0  0
   57.8982   22.2930   46.6941 H   0  0  0  0  0  0  0  0  0  0  0  0
   57.0496   21.9940   45.1394 H   0  0  0  0  0  0  0  0  0  0  0  0
   58.7763   22.4893   45.1394 H   0  0  0  0  0  0  0  0  0  0  0  0
   55.2621   23.8714   46.0000 H   0  0  0  0  0  0  0  0  0  0  0  0
   55.1470   27.6490   45.5730 H   0  0  0  0  0  0  0  0  0  0  0  0
   58.0647   30.3126   46.6681 H   0  0  0  0  0  0  0  0  0  0  0  0
   59.2482   32.3893   47.3823 H   0  0  0  0  0  0  0  0  0  0  0  0
  1  2  1  0
  2  3  1  0
  3  4  2  0
  4  5  1  0
  5  6  2  0
  6  7  1  0
  7  8  2  0
  7  9  2  0
  7 10  1  0
 10 11  1  0
 11 12  2  0
 11 13  1  0
 13 14  2  0
 14 15  1  0
 15 16  1  0
 15 17  1  0
 17 18  2  0
 18 19  1  0
  6 20  1  0
 20 21  2  0
 21  3  1  0
 18 13  1  0
  1 22  1  0
  1 23  1  0
  1 24  1  0
  2 25  1  0
  2 26  1  0
  4 27  1  0
  5 28  1  0
 16 29  1  0
 16 30  1  0
 16 31  1  0
 17 32  1  0
 19 33  1  0
 20 34  1  0
 21 35  1  0
M  CHG  1  10  -1
M  END
>  <UniqueID>  (89) 
81

>  <SMILES>  (89) 
CCc1ccc(S(=O)(=O)[N-]C(=O)c2nn(C)cc2O)cc1

>  <Energy>  (89) 
64.60609659623061

>  <Genealogy>  (89) 
CCc1ccc(S(=O)(=O)[N-]C(=O)c2nn(C)cc2O)cc1 (protonated)
CCc1ccc(S(=O)(=O)[N-]C(=O)c2nn(C)cc2O)cc1 (3D coordinates assigned)
CCc1ccc(S(=O)(=O)[N-]C(=O)c2nn(C)cc2O)cc1 (optimized conformer: 64.60609659623061 kcal/mol)

>  <smiles>  (89) 
CCc1ccc(S(=O)(=O)NC(=O)c2nn(C)cc2O)cc1

>  <score_type>  (89) 
oracle

>  <origin>  (89) 
adg

>  <m_score__min__energy>  (89) 
-9.8200000000000003

>  <m_primary>  (89) 
energy

$$$$
89:0
     RDKit          3D

 44 46  0  0  0  0  0  0  0  0999 V2000
   57.0330   24.4660   44.6580 C   0  0  0  0  0  0  0  0  0  0  0  0
   57.0180   25.0870   45.9380 O   0  0  0  0  0  0  0  0  0  0  0  0
   56.6360   26.4190   46.1320 C   0  0  0  0  0  0  0  0  0  0  0  0
   55.4120   26.7260   46.0840 O   0  0  0  0  0  0  0  0  0  0  0  0
   57.6470   27.4900   46.3720 C   0  0  0  0  0  0  0  0  0  0  0  0
   57.6870   28.6530   45.6440 C   0  0  0  0  0  0  0  0  0  0  0  0
   56.7260   28.9380   44.5680 C   0  0  0  0  0  0  0  0  0  0  0  0
   55.5970   29.4180   44.8530 O   0  0  0  0  0  0  0  0  0  0  0  0
   57.0610   28.6350   43.2450 O   0  0  0  0  0  0  0  0  0  0  0  0
   57.7880   27.4660   42.8900 C   0  0  0  0  0  0  0  0  0  0  0  0
   58.7820   29.6920   45.8140 C   0  0  0  0  0  0  0  0  0  0  0  0
   59.4810   29.5430   47.1200 C   0  0  0  0  0  0  0  0  0  0  0  0
   59.4540   28.3890   47.8610 C   0  0  0  0  0  0  0  0  0  0  0  0
   60.2810   28.4710   48.9290 N   0  0  0  0  0  0  0  0  0  0  0  0
   60.8310   29.7000   48.8530 C   0  0  0  0  0  0  0  0  0  0  0  0
   61.7780   30.2540   49.7090 C   0  0  0  0  0  0  0  0  0  0  0  0
   62.2600   31.5550   49.4230 C   0  0  0  0  0  0  0  0  0  0  0  0
   63.2120   32.1870   50.2380 O   0  0  0  0  0  0  0  0  0  0  0  0
   64.5890   32.3320   49.9050 C   0  0  0  0  0  0  0  0  0  0  0  0
   61.7810   32.2570   48.2850 C   0  0  0  0  0  0  0  0  0  0  0  0
   62.2850   33.5430   48.0380 O   0  0  0  0  0  0  0  0  0  0  0  0
   63.2920   33.8430   47.0760 C   0  0  0  0  0  0  0  0  0  0  0  0
   60.8240   31.6560   47.4320 C   0  0  0  0  0  0  0  0  0  0  0  0
   60.3710   30.3810   47.7550 C   0  0  0  0  0  0  0  0  0  0  0  0
   58.7050   27.1750   47.4280 C   0  0  0  0  0  0  0  0  0  0  0  0
   57.0594   23.3732   44.7809 H   0  0  0  0  0  0  0  0  0  0  0  0
   56.1277   24.7506   44.1017 H   0  0  0  0  0  0  0  0  0  0  0  0
   57.9235   24.7940   44.1017 H   0  0  0  0  0  0  0  0  0  0  0  0
   58.1123   26.9446   43.8027 H   0  0  0  0  0  0  0  0  0  0  0  0
   57.1444   26.8001   42.2963 H   0  0  0  0  0  0  0  0  0  0  0  0
   58.6698   27.7488   42.2963 H   0  0  0  0  0  0  0  0  0  0  0  0
   59.5144   29.5749   45.0017 H   0  0  0  0  0  0  0  0  0  0  0  0
   58.3180   30.6889   45.7839 H   0  0  0  0  0  0  0  0  0  0  0  0
   60.4790   27.7290   49.6360 H   0  0  0  0  0  0  0  0  0  0  0  0
   62.1426   29.6965   50.5844 H   0  0  0  0  0  0  0  0  0  0  0  0
   65.1847   32.3947   50.8276 H   0  0  0  0  0  0  0  0  0  0  0  0
   64.9170   31.4634   49.3151 H   0  0  0  0  0  0  0  0  0  0  0  0
   64.7289   33.2498   49.3151 H   0  0  0  0  0  0  0  0  0  0  0  0
   64.2224   34.1202   47.5933 H   0  0  0  0  0  0  0  0  0  0  0  0
   63.4720   32.9595   46.4459 H   0  0  0  0  0  0  0  0  0  0  0  0
   62.9592   34.6810   46.4459 H   0  0  0  0  0  0  0  0  0  0  0  0
   60.4500   32.1814   46.5409 H   0  0  0  0  0  0  0  0  0  0  0  0
   59.4185   26.4506   47.0083 H   0  0  0  0  0  0  0  0  0  0  0  0
   58.1885   26.7672   48.3094 H   0  0  0  0  0  0  0  0  0  0  0  0
  1  2  1  0
  2  3  1  0
  3  4  2  0
  3  5  1  0
  5  6  2  0
  6  7  1  0
  7  8  2  0
  7  9  1  0
  9 10  1  0
  6 11  1  0
 11 12  1  0
 12 13  2  0
 13 14  1  0
 14 15  1  0
 15 16  2  0
 16 17  1  0
 17 18  1  0
 18 19  1  0
 17 20  2  0
 20 21  1  0
 21 22  1  0
 20 23  1  0
 23 24  2  0
 13 25  1  0
 25  5  1  0
 24 12  1  0
 24 15  1  0
  1 26  1  0
  1 27  1  0
  1 28  1  0
 10 29  1  0
 10 30  1  0
 10 31  1  0
 11 32  1  0
 11 33  1  0
 14 34  1  0
 16 35  1  0
 19 36  1  0
 19 37  1  0
 19 38  1  0
 22 39  1  0
 22 40  1  0
 22 41  1  0
 23 42  1  0
 25 43  1  0
 25 44  1  0
M  END
>  <UniqueID>  (90) 
82

>  <SMILES>  (90) 
COC(=O)C1=C(C(=O)OC)Cc2c([nH]c3cc(OC)c(OC)cc23)C1

>  <Energy>  (90) 
89.01510736661764

>  <Genealogy>  (90) 
COC(=O)C1=C(C(=O)OC)Cc2c([nH]c3cc(OC)c(OC)cc23)C1 (3D coordinates assigned)
COC(=O)C1=C(C(=O)OC)Cc2c([nH]c3cc(OC)c(OC)cc23)C1 (nonaromatic ring conformer: 89.01510736661764 kcal/mol)

>  <smiles>  (90) 
COC(=O)C1=C(C(=O)OC)Cc2c([nH]c3cc(OC)c(OC)cc23)C1

>  <score_type>  (90) 
oracle

>  <origin>  (90) 
adg

>  <m_score__min__energy>  (90) 
-6.1399999999999997

>  <m_primary>  (90) 
energy

$$$$
90:0
     RDKit          3D

 52 54  0  0  0  0  0  0  0  0999 V2000
   60.8700   33.2510   52.0150 N   0  0  0  0  0  0  0  0  0  0  0  0
   60.0480   33.7780   50.9710 C   0  0  0  0  0  0  0  0  0  0  0  0
   58.9000   34.3080   51.2600 N   0  0  0  0  0  0  0  0  0  0  0  0
   60.5470   33.7820   49.6250 N   0  0  0  0  0  0  0  0  0  0  0  0
   59.7170   33.8200   48.4510 C   0  0  0  0  0  0  0  0  0  0  0  0
   58.5770   33.0110   48.3870 C   0  0  0  0  0  0  0  0  0  0  0  0
   57.7750   33.0130   47.2440 C   0  0  0  0  0  0  0  0  0  0  0  0
   58.0940   33.8400   46.1550 C   0  0  0  0  0  0  0  0  0  0  0  0
   57.2970   33.7520   44.8760 C   0  0  0  0  0  0  0  0  0  0  0  0
   57.8860   32.7410   43.8810 C   0  0  0  0  0  0  0  0  0  0  0  0
   57.6660   31.3200   44.3120 C   0  0  0  0  0  0  0  0  0  0  0  0
   56.6380   30.5060   43.8890 C   0  0  0  0  0  0  0  0  0  0  0  0
   56.8510   29.2810   44.3860 N   0  0  0  0  0  0  0  0  0  0  0  0
   57.9960   29.3730   45.0850 C   0  0  0  0  0  0  0  0  0  0  0  0
   58.6560   28.1990   45.7440 C   0  0  0  0  0  0  0  0  0  0  0  0
   59.9080   28.6030   46.5450 C   0  0  0  0  0  0  0  0  0  0  0  0
   59.6300   29.5520   47.7270 C   0  0  0  0  0  0  0  0  0  0  0  0
   60.8150   30.4100   48.0820 C   0  0  0  0  0  0  0  0  0  0  0  0
   61.4430   31.1930   47.1030 C   0  0  0  0  0  0  0  0  0  0  0  0
   62.5550   31.9690   47.4300 C   0  0  0  0  0  0  0  0  0  0  0  0
   63.0420   31.9770   48.7390 C   0  0  0  0  0  0  0  0  0  0  0  0
   62.4110   31.2140   49.7240 C   0  0  0  0  0  0  0  0  0  0  0  0
   61.3000   30.4350   49.3990 C   0  0  0  0  0  0  0  0  0  0  0  0
   58.5350   30.6130   45.0590 N   0  0  0  0  0  0  0  0  0  0  0  0
   59.2010   34.6990   46.2450 C   0  0  0  0  0  0  0  0  0  0  0  0
   60.0080   34.6850   47.3830 C   0  0  0  0  0  0  0  0  0  0  0  0
   61.8030   32.8450   51.7940 H   0  0  0  0  0  0  0  0  0  0  0  0
   60.5500   33.2500   53.0090 H   0  0  0  0  0  0  0  0  0  0  0  0
   58.7660   35.3430   51.2210 H   0  0  0  0  0  0  0  0  0  0  0  0
   58.0710   33.7230   51.5100 H   0  0  0  0  0  0  0  0  0  0  0  0
   61.5830   33.7710   49.4930 H   0  0  0  0  0  0  0  0  0  0  0  0
   58.3115   32.3706   49.2410 H   0  0  0  0  0  0  0  0  0  0  0  0
   56.8886   32.3633   47.1964 H   0  0  0  0  0  0  0  0  0  0  0  0
   56.2692   33.4465   45.1217 H   0  0  0  0  0  0  0  0  0  0  0  0
   57.3228   34.7427   44.3987 H   0  0  0  0  0  0  0  0  0  0  0  0
   57.4093   32.8909   42.9011 H   0  0  0  0  0  0  0  0  0  0  0  0
   58.9714   32.9124   43.8313 H   0  0  0  0  0  0  0  0  0  0  0  0
   55.7917   30.8090   43.2550 H   0  0  0  0  0  0  0  0  0  0  0  0
   56.2680   28.4320   44.2270 H   0  0  0  0  0  0  0  0  0  0  0  0
   57.9357   27.7270   46.4285 H   0  0  0  0  0  0  0  0  0  0  0  0
   58.9738   27.5047   44.9522 H   0  0  0  0  0  0  0  0  0  0  0  0
   60.3731   27.6881   46.9407 H   0  0  0  0  0  0  0  0  0  0  0  0
   60.5614   29.1509   45.8501 H   0  0  0  0  0  0  0  0  0  0  0  0
   58.7891   30.2087   47.4594 H   0  0  0  0  0  0  0  0  0  0  0  0
   59.4002   28.9283   48.6035 H   0  0  0  0  0  0  0  0  0  0  0  0
   61.0572   31.1953   46.0729 H   0  0  0  0  0  0  0  0  0  0  0  0
   63.0488   32.5752   46.6563 H   0  0  0  0  0  0  0  0  0  0  0  0
   63.9228   32.5844   48.9942 H   0  0  0  0  0  0  0  0  0  0  0  0
   62.7901   31.2272   50.7565 H   0  0  0  0  0  0  0  0  0  0  0  0
   60.8024   29.8383   50.1777 H   0  0  0  0  0  0  0  0  0  0  0  0
   59.4325   35.3845   45.4165 H   0  0  0  0  0  0  0  0  0  0  0  0
   60.8778   35.3556   47.4444 H   0  0  0  0  0  0  0  0  0  0  0  0
  1  2  1  0
  2  3  2  0
  2  4  1  0
  4  5  1  0
  5  6  2  0
  6  7  1  0
  7  8  2  0
  8  9  1  0
  9 10  1  0
 10 11  1  0
 11 12  2  0
 12 13  1  0
 13 14  1  0
 14 15  1  0
 15 16  1  0
 16 17  1  0
 17 18  1  0
 18 19  2  0
 19 20  1  0
 20 21  2  0
 21 22  1  0
 22 23  2  0
 14 24  2  0
  8 25  1  0
 25 26  2  0
 26  5  1  0
 24 11  1  0
 23 18  1  0
  1 27  1  0
  1 28  1  0
  3 29  1  0
  3 30  1  0
  4 31  1  0
  6 32  1  0
  7 33  1  0
  9 34  1  0
  9 35  1  0
 10 36  1  0
 10 37  1  0
 12 38  1  0
 13 39  1  0
 15 40  1  0
 15 41  1  0
 16 42  1  0
 16 43  1  0
 17 44  1  0
 17 45  1  0
 19 46  1  0
 20 47  1  0
 21 48  1  0
 22 49  1  0
 23 50  1  0
 25 51  1  0
 26 52  1  0
M  CHG  1   3   1
M  END
>  <UniqueID>  (91) 
83

>  <SMILES>  (91) 
NC(=[NH2+])Nc1ccc(CCc2c[nH]c(CCCc3ccccc3)n2)cc1

>  <Energy>  (91) 
73.05163896607401

>  <Genealogy>  (91) 
NC(=[NH2+])Nc1ccc(CCc2c[nH]c(CCCc3ccccc3)n2)cc1 (protonated)
NC(=[NH2+])Nc1ccc(CCc2c[nH]c(CCCc3ccccc3)n2)cc1 (3D coordinates assigned)
NC(=[NH2+])Nc1ccc(CCc2c[nH]c(CCCc3ccccc3)n2)cc1 (optimized conformer: 73.05163896607401 kcal/mol)

>  <smiles>  (91) 
N=C(N)Nc1ccc(CCc2c[nH]c(CCCc3ccccc3)n2)cc1

>  <score_type>  (91) 
oracle

>  <origin>  (91) 
adg

>  <m_score__min__energy>  (91) 
-7.3099999999999996

>  <m_primary>  (91) 
energy

$$$$
91:0
     RDKit          3D

 37 39  0  0  0  0  0  0  0  0999 V2000
   63.5440   33.0140   50.0320 C   0  0  0  0  0  0  0  0  0  0  0  0
   62.4440   33.4910   49.1210 C   0  0  0  0  0  0  0  0  0  0  0  0
   61.2320   33.9290   49.6760 C   0  0  0  0  0  0  0  0  0  0  0  0
   60.1950   34.3780   48.8570 C   0  0  0  0  0  0  0  0  0  0  0  0
   60.3460   34.4020   47.4650 C   0  0  0  0  0  0  0  0  0  0  0  0
   59.2640   34.8920   46.6530 N   0  0  0  0  0  0  0  0  0  0  0  0
   58.6500   34.0590   45.2580 S   0  0  0  0  0  0  0  0  0  0  0  0
   59.6180   34.2170   44.1200 O   0  0  0  0  0  0  0  0  0  0  0  0
   57.3300   34.6630   44.8680 O   0  0  0  0  0  0  0  0  0  0  0  0
   58.4690   32.3420   45.6130 C   0  0  0  0  0  0  0  0  0  0  0  0
   59.4610   31.6600   46.3310 C   0  0  0  0  0  0  0  0  0  0  0  0
   59.3300   30.2930   46.5890 C   0  0  0  0  0  0  0  0  0  0  0  0
   58.2070   29.5970   46.1320 C   0  0  0  0  0  0  0  0  0  0  0  0
   58.0830   28.2670   46.3790 N   0  0  0  0  0  0  0  0  0  0  0  0
   56.9990   27.5720   45.9430 C   0  0  0  0  0  0  0  0  0  0  0  0
   56.9050   26.3410   46.1820 O   0  0  0  0  0  0  0  0  0  0  0  0
   56.0180   28.2050   45.2470 N   0  0  0  0  0  0  0  0  0  0  0  0
   56.0910   29.5340   44.9730 C   0  0  0  0  0  0  0  0  0  0  0  0
   55.1600   30.0820   44.3250 O   0  0  0  0  0  0  0  0  0  0  0  0
   57.2000   30.2760   45.4130 C   0  0  0  0  0  0  0  0  0  0  0  0
   57.3360   31.6530   45.1610 C   0  0  0  0  0  0  0  0  0  0  0  0
   61.5510   33.9460   46.9010 C   0  0  0  0  0  0  0  0  0  0  0  0
   62.6020   33.4920   47.7150 C   0  0  0  0  0  0  0  0  0  0  0  0
   63.8850   33.0280   47.0740 C   0  0  0  0  0  0  0  0  0  0  0  0
   63.2362   33.1475   51.0796 H   0  0  0  0  0  0  0  0  0  0  0  0
   63.7424   31.9490   49.8410 H   0  0  0  0  0  0  0  0  0  0  0  0
   64.4570   33.5970   49.8410 H   0  0  0  0  0  0  0  0  0  0  0  0
   61.0978   33.9184   50.7677 H   0  0  0  0  0  0  0  0  0  0  0  0
   59.2508   34.7160   49.3089 H   0  0  0  0  0  0  0  0  0  0  0  0
   58.8880   35.8500   46.8320 H   0  0  0  0  0  0  0  0  0  0  0  0
   60.3464   32.2033   46.6929 H   0  0  0  0  0  0  0  0  0  0  0  0
   60.1121   29.7634   47.1528 H   0  0  0  0  0  0  0  0  0  0  0  0
   56.5513   32.1900   44.6080 H   0  0  0  0  0  0  0  0  0  0  0  0
   61.6721   33.9448   45.8077 H   0  0  0  0  0  0  0  0  0  0  0  0
   64.6118   32.7652   47.8567 H   0  0  0  0  0  0  0  0  0  0  0  0
   63.6843   32.1455   46.4488 H   0  0  0  0  0  0  0  0  0  0  0  0
   64.2952   33.8347   46.4488 H   0  0  0  0  0  0  0  0  0  0  0  0
  1  2  1  0
  2  3  2  0
  3  4  1  0
  4  5  2  0
  5  6  1  0
  6  7  1  0
  7  8  2  0
  7  9  2  0
  7 10  1  0
 10 11  2  0
 11 12  1  0
 12 13  2  0
 13 14  1  0
 14 15  1  0
 15 16  2  0
 15 17  1  0
 17 18  1  0
 18 19  2  0
 18 20  1  0
 20 21  2  0
  5 22  1  0
 22 23  2  0
 23 24  1  0
 23  2  1  0
 21 10  1  0
 20 13  1  0
  1 25  1  0
  1 26  1  0
  1 27  1  0
  3 28  1  0
  4 29  1  0
  6 30  1  0
 11 31  1  0
 12 32  1  0
 21 33  1  0
 22 34  1  0
 24 35  1  0
 24 36  1  0
 24 37  1  0
M  CHG  2  14  -1  17  -1
M  END
>  <UniqueID>  (92) 
84

>  <SMILES>  (92) 
Cc1ccc(NS(=O)(=O)c2ccc3[n-]c(=O)[n-]c(=O)c3c2)cc1C

>  <Energy>  (92) 
46.75879126634392

>  <Genealogy>  (92) 
Cc1ccc(NS(=O)(=O)c2ccc3[n-]c(=O)[n-]c(=O)c3c2)cc1C (protonated)
Cc1ccc(NS(=O)(=O)c2ccc3[n-]c(=O)[n-]c(=O)c3c2)cc1C (3D coordinates assigned)
Cc1ccc(NS(=O)(=O)c2ccc3[n-]c(=O)[n-]c(=O)c3c2)cc1C (optimized conformer: 46.75879126634392 kcal/mol)

>  <smiles>  (92) 
Cc1ccc(NS(=O)(=O)c2ccc3[nH]c(=O)[nH]c(=O)c3c2)cc1C

>  <score_type>  (92) 
oracle

>  <origin>  (92) 
adg

>  <m_score__min__energy>  (92) 
-11.99

>  <m_primary>  (92) 
energy

$$$$
92:0
     RDKit          3D

 30 31  0  0  0  0  0  0  0  0999 V2000
   55.1870   28.9700   44.8610 O   0  0  0  0  0  0  0  0  0  0  0  0
   55.9830   29.8340   44.4040 C   0  0  0  0  0  0  0  0  0  0  0  0
   55.7040   31.1840   44.5780 O   0  0  0  0  0  0  0  0  0  0  0  0
   57.2190   29.4070   43.6750 C   0  0  0  0  0  0  0  0  0  0  0  0
   58.4240   29.4710   44.5880 C   0  0  0  0  0  0  0  0  0  0  0  0
   59.3850   28.4490   44.4770 C   0  0  0  0  0  0  0  0  0  0  0  0
   60.5470   28.4720   45.2470 C   0  0  0  0  0  0  0  0  0  0  0  0
   60.7800   29.5220   46.1300 C   0  0  0  0  0  0  0  0  0  0  0  0
   59.8490   30.5540   46.2490 C   0  0  0  0  0  0  0  0  0  0  0  0
   58.6600   30.5490   45.4930 C   0  0  0  0  0  0  0  0  0  0  0  0
   57.7280   31.6460   45.6600 N   0  0  0  0  0  0  0  0  0  0  0  0
   58.4350   32.8530   46.0240 C   0  0  0  0  0  0  0  0  0  0  0  0
   58.9130   33.7230   45.0250 C   0  0  0  0  0  0  0  0  0  0  0  0
   59.5830   34.9000   45.3690 C   0  0  0  0  0  0  0  0  0  0  0  0
   59.7850   35.2240   46.7110 C   0  0  0  0  0  0  0  0  0  0  0  0
   59.3160   34.3730   47.7140 C   0  0  0  0  0  0  0  0  0  0  0  0
   58.6430   33.1930   47.3790 C   0  0  0  0  0  0  0  0  0  0  0  0
   58.1960   32.3860   48.3750 F   0  0  0  0  0  0  0  0  0  0  0  0
   57.0900   28.3745   43.3184 H   0  0  0  0  0  0  0  0  0  0  0  0
   57.3817   30.0855   42.8246 H   0  0  0  0  0  0  0  0  0  0  0  0
   59.2171   27.6206   43.7730 H   0  0  0  0  0  0  0  0  0  0  0  0
   61.2815   27.6581   45.1563 H   0  0  0  0  0  0  0  0  0  0  0  0
   61.6989   29.5382   46.7345 H   0  0  0  0  0  0  0  0  0  0  0  0
   60.0460   31.3841   46.9434 H   0  0  0  0  0  0  0  0  0  0  0  0
   56.9990   31.4540   46.3790 H   0  0  0  0  0  0  0  0  0  0  0  0
   57.2070   31.7770   44.7630 H   0  0  0  0  0  0  0  0  0  0  0  0
   58.7576   33.4739   43.9649 H   0  0  0  0  0  0  0  0  0  0  0  0
   59.9518   35.5723   44.5804 H   0  0  0  0  0  0  0  0  0  0  0  0
   60.3140   36.1504   46.9791 H   0  0  0  0  0  0  0  0  0  0  0  0
   59.4763   34.6313   48.7712 H   0  0  0  0  0  0  0  0  0  0  0  0
  1  2  2  0
  2  3  1  0
  2  4  1  0
  4  5  1  0
  5  6  2  0
  6  7  1  0
  7  8  2  0
  8  9  1  0
  9 10  2  0
 10 11  1  0
 11 12  1  0
 12 13  2  0
 13 14  1  0
 14 15  2  0
 15 16  1  0
 16 17  2  0
 17 18  1  0
 10  5  1  0
 17 12  1  0
  4 19  1  0
  4 20  1  0
  6 21  1  0
  7 22  1  0
  8 23  1  0
  9 24  1  0
 11 25  1  0
 11 26  1  0
 13 27  1  0
 14 28  1  0
 15 29  1  0
 16 30  1  0
M  CHG  2   3  -1  11   1
M  END
>  <UniqueID>  (93) 
85

>  <SMILES>  (93) 
O=C([O-])Cc1ccccc1[NH2+]c1ccccc1F

>  <Energy>  (93) 
35.47229688680477

>  <Genealogy>  (93) 
O=C([O-])Cc1ccccc1[NH2+]c1ccccc1F (protonated)
O=C([O-])Cc1ccccc1[NH2+]c1ccccc1F (3D coordinates assigned)
O=C([O-])Cc1ccccc1[NH2+]c1ccccc1F (optimized conformer: 35.47229688680477 kcal/mol)

>  <smiles>  (93) 
O=C(O)Cc1ccccc1Nc1ccccc1F

>  <score_type>  (93) 
oracle

>  <origin>  (93) 
adg

>  <m_score__min__energy>  (93) 
-7.9400000000000004

>  <m_primary>  (93) 
energy

$$$$
93:0
     RDKit          3D

 37 38  0  0  0  0  0  0  0  0999 V2000
   58.0130   33.8200   46.2330 C   0  0  0  0  0  0  0  0  0  0  0  0
   58.8880   34.2620   47.4050 C   0  0  0  0  0  0  0  0  0  0  0  0
   59.3540   33.0840   48.2740 C   0  0  0  0  0  0  0  0  0  0  0  0
   58.1930   32.3890   48.9930 C   0  0  0  0  0  0  0  0  0  0  0  0
   58.6540   31.9520   50.6640 S   0  0  0  0  0  0  0  0  0  0  0  0
   59.7650   32.8560   51.1170 O   0  0  0  0  0  0  0  0  0  0  0  0
   59.1320   30.5280   50.7280 O   0  0  0  0  0  0  0  0  0  0  0  0
   57.2990   32.1670   51.7240 N   0  0  0  0  0  0  0  0  0  0  0  0
   56.3540   31.1540   52.0930 C   0  0  0  0  0  0  0  0  0  0  0  0
   56.7400   29.8310   52.3740 C   0  0  0  0  0  0  0  0  0  0  0  0
   55.7840   28.8820   52.7440 C   0  0  0  0  0  0  0  0  0  0  0  0
   54.4370   29.2390   52.8340 C   0  0  0  0  0  0  0  0  0  0  0  0
   54.0340   30.5500   52.5410 C   0  0  0  0  0  0  0  0  0  0  0  0
   52.5890   30.9470   52.6720 C   0  0  0  0  0  0  0  0  0  0  0  0
   51.9870   31.1610   51.3190 C   0  0  0  0  0  0  0  0  0  0  0  0
   52.0020   30.2460   50.3330 N   0  0  0  0  0  0  0  0  0  0  0  0
   51.3080   30.8480   49.3420 C   0  0  0  0  0  0  0  0  0  0  0  0
   51.1060   30.3010   48.2270 O   0  0  0  0  0  0  0  0  0  0  0  0
   50.8420   32.0810   49.6410 N   0  0  0  0  0  0  0  0  0  0  0  0
   51.2780   32.2610   50.8990 C   0  0  0  0  0  0  0  0  0  0  0  0
   51.0270   33.4040   51.6470 O   0  0  0  0  0  0  0  0  0  0  0  0
   55.0010   31.5040   52.1830 C   0  0  0  0  0  0  0  0  0  0  0  0
   57.0930   33.3553   46.6171 H   0  0  0  0  0  0  0  0  0  0  0  0
   57.7531   34.6949   45.6191 H   0  0  0  0  0  0  0  0  0  0  0  0
   58.5630   33.0916   45.6191 H   0  0  0  0  0  0  0  0  0  0  0  0
   59.7742   34.7783   47.0075 H   0  0  0  0  0  0  0  0  0  0  0  0
   58.2823   34.9247   48.0406 H   0  0  0  0  0  0  0  0  0  0  0  0
   59.8604   32.3496   47.6303 H   0  0  0  0  0  0  0  0  0  0  0  0
   60.0316   33.4837   49.0428 H   0  0  0  0  0  0  0  0  0  0  0  0
   57.3285   33.0685   49.0231 H   0  0  0  0  0  0  0  0  0  0  0  0
   57.9377   31.4699   48.4452 H   0  0  0  0  0  0  0  0  0  0  0  0
   57.7990   29.5424   52.3021 H   0  0  0  0  0  0  0  0  0  0  0  0
   56.0934   27.8498   52.9652 H   0  0  0  0  0  0  0  0  0  0  0  0
   53.6900   28.4900   53.1355 H   0  0  0  0  0  0  0  0  0  0  0  0
   52.0388   30.1492   53.1924 H   0  0  0  0  0  0  0  0  0  0  0  0
   52.5247   31.8834   53.2455 H   0  0  0  0  0  0  0  0  0  0  0  0
   54.6918   32.5381   51.9709 H   0  0  0  0  0  0  0  0  0  0  0  0
  1  2  1  0
  2  3  1  0
  3  4  1  0
  4  5  1  0
  5  6  2  0
  5  7  2  0
  5  8  1  0
  8  9  1  0
  9 10  2  0
 10 11  1  0
 11 12  2  0
 12 13  1  0
 13 14  1  0
 14 15  1  0
 15 16  1  0
 16 17  1  0
 17 18  2  0
 17 19  1  0
 19 20  1  0
 20 21  1  0
 13 22  2  0
 22  9  1  0
 20 15  2  0
  1 23  1  0
  1 24  1  0
  1 25  1  0
  2 26  1  0
  2 27  1  0
  3 28  1  0
  3 29  1  0
  4 30  1  0
  4 31  1  0
 10 32  1  0
 11 33  1  0
 12 34  1  0
 14 35  1  0
 14 36  1  0
 22 37  1  0
M  CHG  4   8  -1  16  -1  19  -1  21  -1
M  END
>  <UniqueID>  (94) 
86

>  <SMILES>  (94) 
CCCCS(=O)(=O)[N-]c1cccc(Cc2[n-]c(=O)[n-]c2[O-])c1

>  <Energy>  (94) 
57.68727432379089

>  <Genealogy>  (94) 
CCCCS(=O)(=O)[N-]c1cccc(Cc2[n-]c(=O)[n-]c2[O-])c1 (protonated)
CCCCS(=O)(=O)[N-]c1cccc(Cc2[n-]c(=O)[n-]c2[O-])c1 (3D coordinates assigned)
CCCCS(=O)(=O)[N-]c1cccc(Cc2[n-]c(=O)[n-]c2[O-])c1 (optimized conformer: 57.68727432379089 kcal/mol)

>  <smiles>  (94) 
CCCCS(=O)(=O)Nc1cccc(Cc2[nH]c(=O)[nH]c2O)c1

>  <score_type>  (94) 
oracle

>  <origin>  (94) 
adg

>  <m_score__min__energy>  (94) 
-16.550000000000001

>  <m_primary>  (94) 
energy

$$$$
94:0
     RDKit          3D

 32 34  0  0  0  0  0  0  0  0999 V2000
   56.0390   30.5070   44.8050 O   0  0  0  0  0  0  0  0  0  0  0  0
   57.1350   30.6000   44.1880 C   0  0  0  0  0  0  0  0  0  0  0  0
   57.6800   31.9580   43.8680 C   0  0  0  0  0  0  0  0  0  0  0  0
   58.1850   32.5970   45.0900 N   0  0  0  0  0  0  0  0  0  0  0  0
   57.8060   33.8330   45.5120 C   0  0  0  0  0  0  0  0  0  0  0  0
   57.0090   34.5730   44.8760 O   0  0  0  0  0  0  0  0  0  0  0  0
   58.5090   34.2680   46.9840 S   0  0  0  0  0  0  0  0  0  0  0  0
   59.3270   32.8050   47.0990 C   0  0  0  0  0  0  0  0  0  0  0  0
   60.1700   32.3720   48.1200 C   0  0  0  0  0  0  0  0  0  0  0  0
   60.7370   31.0930   48.0150 C   0  0  0  0  0  0  0  0  0  0  0  0
   60.4510   30.2780   46.9030 C   0  0  0  0  0  0  0  0  0  0  0  0
   59.5980   30.7330   45.8840 C   0  0  0  0  0  0  0  0  0  0  0  0
   59.0350   32.0160   45.9920 C   0  0  0  0  0  0  0  0  0  0  0  0
   57.8460   29.4190   43.7850 N   0  0  0  0  0  0  0  0  0  0  0  0
   57.6320   28.1190   44.3590 C   0  0  0  0  0  0  0  0  0  0  0  0
   57.9460   26.9750   43.6080 C   0  0  0  0  0  0  0  0  0  0  0  0
   57.7700   25.6990   44.1550 C   0  0  0  0  0  0  0  0  0  0  0  0
   57.2940   25.5570   45.4610 C   0  0  0  0  0  0  0  0  0  0  0  0
   57.1260   24.3200   45.9900 F   0  0  0  0  0  0  0  0  0  0  0  0
   57.0000   26.6900   46.2240 C   0  0  0  0  0  0  0  0  0  0  0  0
   57.1730   27.9670   45.6810 C   0  0  0  0  0  0  0  0  0  0  0  0
   58.5009   31.8594   43.1425 H   0  0  0  0  0  0  0  0  0  0  0  0
   56.8776   32.5779   43.4414 H   0  0  0  0  0  0  0  0  0  0  0  0
   60.3854   33.0158   48.9855 H   0  0  0  0  0  0  0  0  0  0  0  0
   61.4081   30.7252   48.8051 H   0  0  0  0  0  0  0  0  0  0  0  0
   60.8995   29.2761   46.8316 H   0  0  0  0  0  0  0  0  0  0  0  0
   59.3744   30.0956   45.0158 H   0  0  0  0  0  0  0  0  0  0  0  0
   58.5250   29.5030   42.9940 H   0  0  0  0  0  0  0  0  0  0  0  0
   58.3326   27.0823   42.5838 H   0  0  0  0  0  0  0  0  0  0  0  0
   58.0066   24.8070   43.5563 H   0  0  0  0  0  0  0  0  0  0  0  0
   56.6316   26.5772   47.2543 H   0  0  0  0  0  0  0  0  0  0  0  0
   56.9496   28.8560   46.2891 H   0  0  0  0  0  0  0  0  0  0  0  0
  1  2  2  0
  2  3  1  0
  3  4  1  0
  4  5  1  0
  5  6  2  0
  5  7  1  0
  7  8  1  0
  8  9  2  0
  9 10  1  0
 10 11  2  0
 11 12  1  0
 12 13  2  0
  2 14  1  0
 14 15  1  0
 15 16  2  0
 16 17  1  0
 17 18  2  0
 18 19  1  0
 18 20  1  0
 20 21  2  0
 13  4  1  0
 21 15  1  0
 13  8  1  0
  3 22  1  0
  3 23  1  0
  9 24  1  0
 10 25  1  0
 11 26  1  0
 12 27  1  0
 14 28  1  0
 16 29  1  0
 17 30  1  0
 20 31  1  0
 21 32  1  0
M  END
>  <UniqueID>  (95) 
87

>  <SMILES>  (95) 
O=C(Cn1c(=O)sc2ccccc21)Nc1ccc(F)cc1

>  <Energy>  (95) 
73.1263770910147

>  <Genealogy>  (95) 
O=C(Cn1c(=O)sc2ccccc21)Nc1ccc(F)cc1 (3D coordinates assigned)
O=C(Cn1c(=O)sc2ccccc21)Nc1ccc(F)cc1 (optimized conformer: 73.1263770910147 kcal/mol)

>  <smiles>  (95) 
O=C(Cn1c(=O)sc2ccccc21)Nc1ccc(F)cc1

>  <score_type>  (95) 
oracle

>  <origin>  (95) 
adg

>  <m_score__min__energy>  (95) 
-7.25

>  <m_primary>  (95) 
energy

$$$$
95:0
     RDKit          3D

 31 33  0  0  0  0  0  0  0  0999 V2000
   56.1940   21.6730   42.4580 N   0  0  0  0  0  0  0  0  0  0  0  0
   56.9700   22.1830   43.3560 C   0  0  0  0  0  0  0  0  0  0  0  0
   56.9890   23.5230   43.4710 N   0  0  0  0  0  0  0  0  0  0  0  0
   57.7590   24.1650   44.3710 C   0  0  0  0  0  0  0  0  0  0  0  0
   57.7650   25.6130   44.4760 C   0  0  0  0  0  0  0  0  0  0  0  0
   57.8010   26.5820   43.4970 C   0  0  0  0  0  0  0  0  0  0  0  0
   57.7900   27.8270   44.0760 N   0  0  0  0  0  0  0  0  0  0  0  0
   57.8060   29.0640   43.7200 N   0  0  0  0  0  0  0  0  0  0  0  0
   57.7910   30.0480   44.3520 C   0  0  0  0  0  0  0  0  0  0  0  0
   57.7980   31.8220   44.2130 S   0  0  0  0  0  0  0  0  0  0  0  0
   58.1780   32.6620   45.7590 C   0  0  0  0  0  0  0  0  0  0  0  0
   58.1080   34.1700   45.6630 C   0  0  0  0  0  0  0  0  0  0  0  0
   59.4130   34.6960   46.2760 C   0  0  0  0  0  0  0  0  0  0  0  0
   59.6810   35.8930   45.6460 F   0  0  0  0  0  0  0  0  0  0  0  0
   60.4110   33.7490   45.9940 F   0  0  0  0  0  0  0  0  0  0  0  0
   59.2800   34.8680   47.6190 F   0  0  0  0  0  0  0  0  0  0  0  0
   57.7310   29.2650   46.1170 S   0  0  0  0  0  0  0  0  0  0  0  0
   57.7480   27.5970   45.3720 C   0  0  0  0  0  0  0  0  0  0  0  0
   57.7310   26.2850   45.6750 N   0  0  0  0  0  0  0  0  0  0  0  0
   58.5650   23.4330   45.2190 C   0  0  0  0  0  0  0  0  0  0  0  0
   58.5380   22.0450   45.0940 C   0  0  0  0  0  0  0  0  0  0  0  0
   57.7450   21.4390   44.1700 N   0  0  0  0  0  0  0  0  0  0  0  0
   56.2470   22.0510   41.4980 H   0  0  0  0  0  0  0  0  0  0  0  0
   57.8336   26.3875   42.4148 H   0  0  0  0  0  0  0  0  0  0  0  0
   57.4589   32.3285   46.5216 H   0  0  0  0  0  0  0  0  0  0  0  0
   59.2150   32.4036   46.0196 H   0  0  0  0  0  0  0  0  0  0  0  0
   58.0270   34.4823   44.6114 H   0  0  0  0  0  0  0  0  0  0  0  0
   57.2277   34.5660   46.1905 H   0  0  0  0  0  0  0  0  0  0  0  0
   59.2047   23.9264   45.9655 H   0  0  0  0  0  0  0  0  0  0  0  0
   59.1681   21.4299   45.7532 H   0  0  0  0  0  0  0  0  0  0  0  0
   57.7010   20.4090   44.0490 H   0  0  0  0  0  0  0  0  0  0  0  0
  1  2  2  3
  2  3  1  0
  3  4  2  0
  4  5  1  0
  5  6  2  0
  6  7  1  0
  7  8  1  0
  8  9  2  0
  9 10  1  0
 10 11  1  0
 11 12  1  0
 12 13  1  0
 13 14  1  0
 13 15  1  0
 13 16  1  0
  9 17  1  0
 17 18  1  0
 18 19  2  0
  4 20  1  0
 20 21  2  0
 21 22  1  0
 22  2  1  0
 19  5  1  0
 18  7  1  0
  1 23  1  0
  6 24  1  0
 11 25  1  0
 11 26  1  0
 12 27  1  0
 12 28  1  0
 20 29  1  0
 21 30  1  0
 22 31  1  0
M  END
>  <smiles>  (96) 
N=c1nc(-c2cn3nc(SCCC(F)(F)F)sc3n2)cc[nH]1

>  <score_type>  (96) 
oracle

>  <origin>  (96) 
adg

>  <m_score__min__energy>  (96) 
-6.3200000000000003

>  <m_primary>  (96) 
energy

$$$$
96:0
     RDKit          3D

 44 46  0  0  0  0  0  0  0  0999 V2000
   57.9700   32.1510   42.9020 O   0  0  0  0  0  0  0  0  0  0  0  0
   57.4840   32.1000   44.0650 C   0  0  0  0  0  0  0  0  0  0  0  0
   56.3260   31.1650   44.3120 C   0  0  0  0  0  0  0  0  0  0  0  0
   56.7290   29.7120   44.2450 C   0  0  0  0  0  0  0  0  0  0  0  0
   56.4840   29.0680   43.1900 O   0  0  0  0  0  0  0  0  0  0  0  0
   57.3700   29.0100   45.3820 C   0  0  0  0  0  0  0  0  0  0  0  0
   58.6200   29.4620   45.8390 C   0  0  0  0  0  0  0  0  0  0  0  0
   59.3060   28.7800   46.8550 C   0  0  0  0  0  0  0  0  0  0  0  0
   60.5950   29.2550   47.2750 N   0  0  0  0  0  0  0  0  0  0  0  0
   60.8250   30.2120   48.7020 S   0  0  0  0  0  0  0  0  0  0  0  0
   61.4860   29.3880   49.7710 O   0  0  0  0  0  0  0  0  0  0  0  0
   59.4870   30.6670   49.2130 O   0  0  0  0  0  0  0  0  0  0  0  0
   61.7920   31.6300   48.3090 C   0  0  0  0  0  0  0  0  0  0  0  0
   61.6310   32.8280   49.0200 C   0  0  0  0  0  0  0  0  0  0  0  0
   62.4240   33.9390   48.7110 C   0  0  0  0  0  0  0  0  0  0  0  0
   63.3750   33.8590   47.6900 C   0  0  0  0  0  0  0  0  0  0  0  0
   63.5360   32.6670   46.9780 C   0  0  0  0  0  0  0  0  0  0  0  0
   62.7530   31.5520   47.2910 C   0  0  0  0  0  0  0  0  0  0  0  0
   58.7100   27.6520   47.4430 C   0  0  0  0  0  0  0  0  0  0  0  0
   57.4560   27.2140   47.0170 C   0  0  0  0  0  0  0  0  0  0  0  0
   56.7800   27.8870   45.9950 C   0  0  0  0  0  0  0  0  0  0  0  0
   55.5200   27.4420   45.6140 O   0  0  0  0  0  0  0  0  0  0  0  0
   58.0710   32.9490   45.1370 C   0  0  0  0  0  0  0  0  0  0  0  0
   58.8930   34.0400   44.7950 C   0  0  0  0  0  0  0  0  0  0  0  0
   59.4770   34.8280   45.7900 C   0  0  0  0  0  0  0  0  0  0  0  0
   59.2520   34.5370   47.1360 C   0  0  0  0  0  0  0  0  0  0  0  0
   58.4350   33.4620   47.4900 C   0  0  0  0  0  0  0  0  0  0  0  0
   57.8430   32.6740   46.5000 C   0  0  0  0  0  0  0  0  0  0  0  0
   55.9140   31.3707   45.3110 H   0  0  0  0  0  0  0  0  0  0  0  0
   55.5812   31.3410   43.5219 H   0  0  0  0  0  0  0  0  0  0  0  0
   59.0666   30.3632   45.3937 H   0  0  0  0  0  0  0  0  0  0  0  0
   61.4510   28.8500   46.8340 H   0  0  0  0  0  0  0  0  0  0  0  0
   60.8806   32.8945   49.8215 H   0  0  0  0  0  0  0  0  0  0  0  0
   62.2986   34.8765   49.2725 H   0  0  0  0  0  0  0  0  0  0  0  0
   63.9964   34.7335   47.4469 H   0  0  0  0  0  0  0  0  0  0  0  0
   64.2800   32.6062   46.1701 H   0  0  0  0  0  0  0  0  0  0  0  0
   62.8911   30.6115   46.7375 H   0  0  0  0  0  0  0  0  0  0  0  0
   59.2352   27.1110   48.2440 H   0  0  0  0  0  0  0  0  0  0  0  0
   56.9959   26.3331   47.4884 H   0  0  0  0  0  0  0  0  0  0  0  0
   59.0768   34.2737   43.7359 H   0  0  0  0  0  0  0  0  0  0  0  0
   60.1154   35.6795   45.5118 H   0  0  0  0  0  0  0  0  0  0  0  0
   59.7183   35.1545   47.9178 H   0  0  0  0  0  0  0  0  0  0  0  0
   58.2568   33.2347   48.5514 H   0  0  0  0  0  0  0  0  0  0  0  0
   57.1944   31.8330   46.7865 H   0  0  0  0  0  0  0  0  0  0  0  0
  1  2  2  0
  2  3  1  0
  3  4  1  0
  4  5  2  0
  4  6  1  0
  6  7  2  0
  7  8  1  0
  8  9  1  0
  9 10  1  0
 10 11  2  0
 10 12  2  0
 10 13  1  0
 13 14  2  0
 14 15  1  0
 15 16  2  0
 16 17  1  0
 17 18  2  0
  8 19  2  0
 19 20  1  0
 20 21  2  0
 21 22  1  0
  2 23  1  0
 23 24  2  0
 24 25  1  0
 25 26  2  0
 26 27  1  0
 27 28  2  0
 21  6  1  0
 28 23  1  0
 18 13  1  0
  3 29  1  0
  3 30  1  0
  7 31  1  0
  9 32  1  0
 14 33  1  0
 15 34  1  0
 16 35  1  0
 17 36  1  0
 18 37  1  0
 19 38  1  0
 20 39  1  0
 24 40  1  0
 25 41  1  0
 26 42  1  0
 27 43  1  0
 28 44  1  0
M  CHG  1  22  -1
M  END
>  <UniqueID>  (97) 
88

>  <SMILES>  (97) 
O=C(CC(=O)c1cc(NS(=O)(=O)c2ccccc2)ccc1[O-])c1ccccc1

>  <Energy>  (97) 
53.048194107618265

>  <Genealogy>  (97) 
O=C(CC(=O)c1cc(NS(=O)(=O)c2ccccc2)ccc1[O-])c1ccccc1 (protonated)
O=C(CC(=O)c1cc(NS(=O)(=O)c2ccccc2)ccc1[O-])c1ccccc1 (3D coordinates assigned)
O=C(CC(=O)c1cc(NS(=O)(=O)c2ccccc2)ccc1[O-])c1ccccc1 (optimized conformer: 53.048194107618265 kcal/mol)

>  <smiles>  (97) 
O=C(CC(=O)c1cc(NS(=O)(=O)c2ccccc2)ccc1O)c1ccccc1

>  <score_type>  (97) 
oracle

>  <origin>  (97) 
adg

>  <m_score__min__energy>  (97) 
-12.02

>  <m_primary>  (97) 
energy

$$$$
