0:0
     RDKit          3D

 62 66  0  0  0  0  0  0  0  0999 V2000
   60.9230   29.3060   47.0060 O   0  0  0  0  0  0  0  0  0  0  0  0
   60.5610   30.3130   47.6740 C   0  0  0  0  0  0  0  0  0  0  0  0
   60.9890   31.6610   47.2350 C   0  0  0  0  0  0  0  0  0  0  0  0
   60.0850   32.4920   46.5500 C   0  0  0  0  0  0  0  0  0  0  0  0
   60.4690   33.7780   46.1330 C   0  0  0  0  0  0  0  0  0  0  0  0
   59.5030   34.6510   45.3820 C   0  0  0  0  0  0  0  0  0  0  0  0
   57.9340   33.8240   45.1930 S   0  0  0  0  0  0  0  0  0  0  0  0
   57.5850   33.1070   46.4670 O   0  0  0  0  0  0  0  0  0  0  0  0
   56.8650   34.8340   44.8790 O   0  0  0  0  0  0  0  0  0  0  0  0
   58.0520   32.6490   43.8590 C   0  0  0  0  0  0  0  0  0  0  0  0
   57.5410   31.3180   44.2990 C   0  0  0  0  0  0  0  0  0  0  0  0
   58.3290   30.2630   44.5820 N   0  0  0  0  0  0  0  0  0  0  0  0
   57.4140   29.3400   44.9480 C   0  0  0  0  0  0  0  0  0  0  0  0
   57.7600   27.9620   45.3600 C   0  0  0  0  0  0  0  0  0  0  0  0
   58.4880   27.7380   46.5420 C   0  0  0  0  0  0  0  0  0  0  0  0
   58.8050   26.4320   46.9170 C   0  0  0  0  0  0  0  0  0  0  0  0
   58.3970   25.3620   46.1200 C   0  0  0  0  0  0  0  0  0  0  0  0
   57.6750   25.6160   44.9530 C   0  0  0  0  0  0  0  0  0  0  0  0
   57.3740   26.8960   44.5970 N   0  0  0  0  0  0  0  0  0  0  0  0
   56.1540   29.8150   44.8940 N   0  0  0  0  0  0  0  0  0  0  0  0
   56.2750   31.0430   44.4920 O   0  0  0  0  0  0  0  0  0  0  0  0
   61.7770   34.2190   46.3760 C   0  0  0  0  0  0  0  0  0  0  0  0
   62.6860   33.3920   47.0400 C   0  0  0  0  0  0  0  0  0  0  0  0
   62.3010   32.1180   47.4660 C   0  0  0  0  0  0  0  0  0  0  0  0
   63.2200   31.3210   48.0690 F   0  0  0  0  0  0  0  0  0  0  0  0
   59.7460   30.1310   48.8470 N   0  0  0  0  0  0  0  0  0  0  0  0
   59.8610   28.8840   49.6120 C   0  0  0  0  0  0  0  0  0  0  0  0
   59.5110   29.1460   51.0760 C   0  0  0  0  0  0  0  0  0  0  0  0
   58.1670   29.7680   51.1580 N   0  0  0  0  0  0  0  0  0  0  0  0
   57.5580   29.8640   52.5140 C   0  0  0  0  0  0  0  0  0  0  0  0
   56.8580   31.1960   52.7830 C   0  0  0  0  0  0  0  0  0  0  0  0
   55.5350   30.4580   52.9610 C   0  0  0  0  0  0  0  0  0  0  0  0
   56.2360   29.1210   52.7370 C   0  0  0  0  0  0  0  0  0  0  0  0
   58.1830   31.0870   50.4970 C   0  0  0  0  0  0  0  0  0  0  0  0
   58.5210   30.9250   49.0110 C   0  0  0  0  0  0  0  0  0  0  0  0
   59.0673   32.1321   46.3384 H   0  0  0  0  0  0  0  0  0  0  0  0
   59.3539   35.5883   45.9381 H   0  0  0  0  0  0  0  0  0  0  0  0
   59.9160   34.8643   44.3850 H   0  0  0  0  0  0  0  0  0  0  0  0
   57.4536   33.0047   43.0073 H   0  0  0  0  0  0  0  0  0  0  0  0
   59.1061   32.5485   43.5609 H   0  0  0  0  0  0  0  0  0  0  0  0
   58.8053   28.5862   47.1664 H   0  0  0  0  0  0  0  0  0  0  0  0
   59.3754   26.2464   47.8391 H   0  0  0  0  0  0  0  0  0  0  0  0
   58.6418   24.3291   46.4084 H   0  0  0  0  0  0  0  0  0  0  0  0
   57.3477   24.7794   44.3182 H   0  0  0  0  0  0  0  0  0  0  0  0
   56.8320   27.0470   43.7160 H   0  0  0  0  0  0  0  0  0  0  0  0
   62.0888   35.2198   46.0427 H   0  0  0  0  0  0  0  0  0  0  0  0
   63.7104   33.7455   47.2286 H   0  0  0  0  0  0  0  0  0  0  0  0
   59.1688   28.1358   49.1985 H   0  0  0  0  0  0  0  0  0  0  0  0
   60.8927   28.5084   49.5449 H   0  0  0  0  0  0  0  0  0  0  0  0
   59.5095   28.1950   51.6288 H   0  0  0  0  0  0  0  0  0  0  0  0
   60.2569   29.8241   51.5162 H   0  0  0  0  0  0  0  0  0  0  0  0
   58.4438   29.5509   53.0862 H   0  0  0  0  0  0  0  0  0  0  0  0
   57.2093   31.7143   53.6874 H   0  0  0  0  0  0  0  0  0  0  0  0
   56.9426   32.0263   52.0665 H   0  0  0  0  0  0  0  0  0  0  0  0
   55.0923   30.5687   53.9619 H   0  0  0  0  0  0  0  0  0  0  0  0
   54.6623   30.7334   52.3506 H   0  0  0  0  0  0  0  0  0  0  0  0
   56.2340   28.4584   53.6150 H   0  0  0  0  0  0  0  0  0  0  0  0
   55.8596   28.4097   51.9871 H   0  0  0  0  0  0  0  0  0  0  0  0
   57.1930   31.5562   50.5963 H   0  0  0  0  0  0  0  0  0  0  0  0
   58.9457   31.7203   50.9736 H   0  0  0  0  0  0  0  0  0  0  0  0
   57.6885   30.4156   48.5036 H   0  0  0  0  0  0  0  0  0  0  0  0
   58.6801   31.9206   48.5711 H   0  0  0  0  0  0  0  0  0  0  0  0
  1  2  2  0
  2  3  1  0
  3  4  2  0
  4  5  1  0
  5  6  1  0
  6  7  1  0
  7  8  2  0
  7  9  2  0
  7 10  1  0
 10 11  1  0
 11 12  2  0
 12 13  1  0
 13 14  1  0
 14 15  2  0
 15 16  1  0
 16 17  2  0
 17 18  1  0
 18 19  2  0
 13 20  2  0
 20 21  1  0
  5 22  2  0
 22 23  1  0
 23 24  2  0
 24 25  1  0
  2 26  1  0
 26 27  1  0
 27 28  1  0
 28 29  1  0
 29 30  1  0
 30 31  1  0
 31 32  1  0
 32 33  1  0
 29 34  1  0
 34 35  1  0
 24  3  1  0
 35 26  1  0
 21 11  1  0
 33 30  1  0
 19 14  1  0
  4 36  1  0
  6 37  1  0
  6 38  1  0
 10 39  1  0
 10 40  1  0
 15 41  1  0
 16 42  1  0
 17 43  1  0
 18 44  1  0
 19 45  1  0
 22 46  1  0
 23 47  1  0
 27 48  1  0
 27 49  1  0
 28 50  1  0
 28 51  1  0
 30 52  1  0
 31 53  1  0
 31 54  1  0
 32 55  1  0
 32 56  1  0
 33 57  1  0
 33 58  1  0
 34 59  1  0
 34 60  1  0
 35 61  1  0
 35 62  1  0
M  CHG  1  19   1
M  END
>  <UniqueID>  (1) 
1

>  <SMILES>  (1) 
O=C(c1cc(CS(=O)(=O)Cc2nc(-c3cccc[nH+]3)no2)ccc1F)N1CCN(C2CCC2)CC1

>  <Energy>  (1) 
162.68719028749592

>  <Genealogy>  (1) 
O=C(c1cc(CS(=O)(=O)Cc2nc(-c3cccc[nH+]3)no2)ccc1F)N1CCN(C2CCC2)CC1 (protonated)
O=C(c1cc(CS(=O)(=O)Cc2nc(-c3cccc[nH+]3)no2)ccc1F)N1CCN(C2CCC2)CC1 (3D coordinates assigned)
O=C(c1cc(CS(=O)(=O)Cc2nc(-c3cccc[nH+]3)no2)ccc1F)N1CCN(C2CCC2)CC1 (nonaromatic ring conformer: 162.68719028749592 kcal/mol)

>  <smiles>  (1) 
O=C(c1cc(CS(=O)(=O)Cc2nc(-c3ccccn3)no2)ccc1F)N1CCN(C2CCC2)CC1

>  <score_type>  (1) 
oracle

>  <origin>  (1) 
adg

>  <m_score__min__energy>  (1) 
-9.5399999999999991

>  <m_primary>  (1) 
energy

$$$$
1:0
     RDKit          3D

 57 61  0  0  0  0  0  0  0  0999 V2000
   50.2800   32.3370   50.9650 H   0  0  0  0  0  0  0  0  0  0  0  0
   51.3060   32.1550   50.9030 N   0  0  0  0  0  0  0  0  0  0  0  0
   51.8030   30.8710   50.5280 C   0  0  0  0  0  0  0  0  0  0  0  0
   51.7090   30.5120   49.3260 O   0  0  0  0  0  0  0  0  0  0  0  0
   52.3940   29.9720   51.5500 C   0  0  0  0  0  0  0  0  0  0  0  0
   51.6320   28.8940   52.0620 C   0  0  0  0  0  0  0  0  0  0  0  0
   50.5998   28.7466   51.7117 H   0  0  0  0  0  0  0  0  0  0  0  0
   52.1750   28.0060   53.0140 C   0  0  0  0  0  0  0  0  0  0  0  0
   51.5647   27.1734   53.3938 H   0  0  0  0  0  0  0  0  0  0  0  0
   53.4860   28.1760   53.4800 C   0  0  0  0  0  0  0  0  0  0  0  0
   53.9209   27.4845   54.2167 H   0  0  0  0  0  0  0  0  0  0  0  0
   54.2190   29.2470   52.9810 C   0  0  0  0  0  0  0  0  0  0  0  0
   55.5040   29.6430   53.2740 C   0  0  0  0  0  0  0  0  0  0  0  0
   56.2113   29.1630   53.9663 H   0  0  0  0  0  0  0  0  0  0  0  0
   55.7140   30.7840   52.5030 C   0  0  0  0  0  0  0  0  0  0  0  0
   56.9690   31.5570   52.4110 C   0  0  0  0  0  0  0  0  0  0  0  0
   57.3810   31.9610   51.1790 N   0  0  0  0  0  0  0  0  0  0  0  0
   58.5230   32.6740   51.0010 C   0  0  0  0  0  0  0  0  0  0  0  0
   58.8800   33.0070   49.7940 N   0  0  0  0  0  0  0  0  0  0  0  0
   58.6240   32.2710   48.5840 C   0  0  0  0  0  0  0  0  0  0  0  0
   58.1300   32.9180   47.4390 C   0  0  0  0  0  0  0  0  0  0  0  0
   57.9640   34.0053   47.4570 H   0  0  0  0  0  0  0  0  0  0  0  0
   57.8480   32.1960   46.2800 C   0  0  0  0  0  0  0  0  0  0  0  0
   57.4778   32.7213   45.3872 H   0  0  0  0  0  0  0  0  0  0  0  0
   58.0320   30.8060   46.2420 C   0  0  0  0  0  0  0  0  0  0  0  0
   57.7370   30.0600   45.0400 N   0  0  0  0  0  0  0  0  0  0  0  0
   58.6940   29.0790   44.5120 C   0  0  0  0  0  0  0  0  0  0  0  0
   59.4122   29.5896   43.8536 H   0  0  0  0  0  0  0  0  0  0  0  0
   59.2252   28.6070   45.3516 H   0  0  0  0  0  0  0  0  0  0  0  0
   57.9560   27.9980   43.7150 C   0  0  0  0  0  0  0  0  0  0  0  0
   58.6978   27.3050   43.2915 H   0  0  0  0  0  0  0  0  0  0  0  0
   57.2693   27.4867   44.4057 H   0  0  0  0  0  0  0  0  0  0  0  0
   57.1470   28.5550   42.6130 N   0  0  0  0  0  0  0  0  0  0  0  0
   56.3350   27.9130   42.4520 H   0  0  0  0  0  0  0  0  0  0  0  0
   56.6310   29.9190   42.8440 C   0  0  0  0  0  0  0  0  0  0  0  0
   57.3330   30.6388   42.3978 H   0  0  0  0  0  0  0  0  0  0  0  0
   55.6342   29.9746   42.3823 H   0  0  0  0  0  0  0  0  0  0  0  0
   56.4650   30.2570   44.3310 C   0  0  0  0  0  0  0  0  0  0  0  0
   56.1509   31.3063   44.4325 H   0  0  0  0  0  0  0  0  0  0  0  0
   55.7037   29.5938   44.7676 H   0  0  0  0  0  0  0  0  0  0  0  0
   58.4960   30.1510   47.3960 C   0  0  0  0  0  0  0  0  0  0  0  0
   58.6360   29.0601   47.3785 H   0  0  0  0  0  0  0  0  0  0  0  0
   58.7850   30.8670   48.5750 C   0  0  0  0  0  0  0  0  0  0  0  0
   59.2560   30.1880   49.7600 N   0  0  0  0  0  0  0  0  0  0  0  0
   59.0740   30.6020   50.7010 H   0  0  0  0  0  0  0  0  0  0  0  0
   59.9820   28.9220   49.7300 C   0  0  0  0  0  0  0  0  0  0  0  0
   60.1750   28.5855   50.7593 H   0  0  0  0  0  0  0  0  0  0  0  0
   59.3799   28.1664   49.2040 H   0  0  0  0  0  0  0  0  0  0  0  0
   60.9382   29.0600   49.2040 H   0  0  0  0  0  0  0  0  0  0  0  0
   59.2920   32.9860   52.0770 N   0  0  0  0  0  0  0  0  0  0  0  0
   58.9240   32.6220   53.3310 C   0  0  0  0  0  0  0  0  0  0  0  0
   59.5568   32.8943   54.1886 H   0  0  0  0  0  0  0  0  0  0  0  0
   57.7450   31.9030   53.5370 C   0  0  0  0  0  0  0  0  0  0  0  0
   57.2530   31.5570   55.1910 Cl  0  0  0  0  0  0  0  0  0  0  0  0
   54.6220   31.0630   51.7520 N   0  0  0  0  0  0  0  0  0  0  0  0
   54.5300   31.8670   51.0950 H   0  0  0  0  0  0  0  0  0  0  0  0
   53.7060   30.1190   52.0510 C   0  0  0  0  0  0  0  0  0  0  0  0
  1  2  1  0
  2  3  1  0
  3  4  2  0
  3  5  1  0
  5  6  2  0
  6  7  1  0
  6  8  1  0
  8  9  1  0
  8 10  2  0
 10 11  1  0
 10 12  1  0
 12 13  1  0
 13 14  1  0
 13 15  2  0
 15 16  1  0
 16 17  2  0
 17 18  1  0
 18 19  2  0
 19 20  1  0
 20 21  2  0
 21 22  1  0
 21 23  1  0
 23 24  1  0
 23 25  2  0
 25 26  1  0
 26 27  1  0
 27 28  1  0
 27 29  1  0
 27 30  1  0
 30 31  1  0
 30 32  1  0
 30 33  1  0
 33 34  1  0
 33 35  1  0
 35 36  1  0
 35 37  1  0
 35 38  1  0
 38 39  1  0
 38 40  1  0
 25 41  1  0
 41 42  1  0
 41 43  2  0
 43 44  1  0
 44 45  1  0
 44 46  1  0
 46 47  1  0
 46 48  1  0
 46 49  1  0
 18 50  1  0
 50 51  1  0
 51 52  1  0
 51 53  2  0
 53 54  1  0
 15 55  1  0
 55 56  1  0
 55 57  1  0
 57  5  1  0
 57 12  2  0
 53 16  1  0
 43 20  1  0
 38 26  1  0
M  CHG  2   2  -1  50  -1
M  END
>  <UniqueID>  (2) 
2

>  <SMILES>  (2) 
CNc1cc(N2CCNCC2)ccc1/N=c1/nc(-c2cc3cccc(C([NH-])=O)c3[nH]2)c(Cl)c[n-]1

>  <Energy>  (2) 
117.49342466702333

>  <Genealogy>  (2) 
CNc1cc(N2CCNCC2)ccc1N=c1nc(-c2cc3cccc(C([NH-])=O)c3[nH]2)c(Cl)c[n-]1 (protonated)
CNc1cc(N2CCNCC2)ccc1/N=c1/nc(-c2cc3cccc(C([NH-])=O)c3[nH]2)c(Cl)c[n-]1 (cis-trans isomerization)
CNc1cc(N2CCNCC2)ccc1/N=c1/nc(-c2cc3cccc(C([NH-])=O)c3[nH]2)c(Cl)c[n-]1 (3D coordinates assigned)
CNc1cc(N2CCNCC2)ccc1/N=c1/nc(-c2cc3cccc(C([NH-])=O)c3[nH]2)c(Cl)c[n-]1 (nonaromatic ring conformer: 117.49342466702333 kcal/mol)

>  <smiles>  (2) 
CNc1cc(N2CCNCC2)ccc1N=c1nc(-c2cc3cccc(C(N)=O)c3[nH]2)c(Cl)c[nH]1

>  <score_type>  (2) 
oracle

>  <origin>  (2) 
adg

>  <m_score__min__energy>  (2) 
-13.380000000000001

>  <m_primary>  (2) 
energy

$$$$
2:0
     RDKit          3D

 46 48  0  0  1  0  0  0  0  0999 V2000
   56.6420   27.0100   45.7850 O   0  0  0  0  0  0  0  0  0  0  0  0
   57.0040   28.2200   45.5540 C   0  0  0  0  0  0  0  0  0  0  0  0
   58.4540   28.6140   45.7010 C   0  0  0  0  0  0  0  0  0  0  0  0
   58.7730   29.2940   46.9480 C   0  0  0  0  0  0  0  0  0  0  0  0
   58.4530   28.6320   48.1060 N   0  0  0  0  0  0  0  0  0  0  0  0
   58.7160   29.1760   49.2680 N   0  0  0  0  0  0  0  0  0  0  0  0
   59.2940   30.3700   49.4360 C   0  0  0  0  0  0  0  0  0  0  0  0
   59.5390   30.8740   50.5520 O   0  0  0  0  0  0  0  0  0  0  0  0
   59.6250   31.0560   48.3360 N   0  0  0  0  0  0  0  0  0  0  0  0
   59.3640   30.5170   47.1080 C   0  0  0  0  0  0  0  0  0  0  0  0
   59.6900   31.1960   46.1320 O   0  0  0  0  0  0  0  0  0  0  0  0
   56.1020   29.1830   45.1880 N   0  0  0  0  0  0  0  0  0  0  0  0
   56.1420   29.9240   44.1830 C   0  0  0  0  0  0  0  0  0  0  0  0
   56.9310   31.1130   43.9500 C   0  0  0  0  0  0  0  0  0  0  0  0
   57.6040   31.4490   42.8330 C   0  0  0  0  0  0  0  0  0  0  0  0
   58.3680   32.6130   42.6740 C   0  0  0  0  0  0  0  0  0  0  0  0
   58.4270   33.4670   43.7440 C   0  0  0  0  0  0  0  0  0  0  0  0
   57.7430   33.1610   44.9260 C   0  0  0  0  0  0  0  0  0  0  0  0
   57.8660   34.1330   46.0320 C   0  0  0  0  0  0  0  0  0  0  0  0
   58.9810   34.5500   46.5470 C   0  0  0  0  0  0  0  0  0  0  0  0
   59.8880   34.0860   47.5270 C   0  0  0  0  0  0  0  0  0  0  0  0
   59.2730   33.9920   48.7050 O   0  0  0  0  0  0  0  0  0  0  0  0
   61.2540   33.6940   47.6070 C   0  0  0  0  0  0  0  0  0  0  0  0
   62.0410   33.8760   46.4420 C   0  0  0  0  0  0  0  0  0  0  0  0
   63.3820   33.5970   46.3910 C   0  0  0  0  0  0  0  0  0  0  0  0
   64.0270   33.1240   47.4780 C   0  0  0  0  0  0  0  0  0  0  0  0
   63.3260   32.9260   48.6310 C   0  0  0  0  0  0  0  0  0  0  0  0
   61.9570   33.2130   48.6730 C   0  0  0  0  0  0  0  0  0  0  0  0
   61.3700   32.9640   49.8860 O   0  0  0  0  0  0  0  0  0  0  0  0
   57.0130   32.0090   45.0210 C   0  0  0  0  0  0  0  0  0  0  0  0
   59.0654   27.7015   45.6415 H   0  0  0  0  0  0  0  0  0  0  0  0
   58.6667   29.3288   44.8924 H   0  0  0  0  0  0  0  0  0  0  0  0
   58.4540   28.6320   50.1310 H   0  0  0  0  0  0  0  0  0  0  0  0
   60.0780   31.9910   48.4280 H   0  0  0  0  0  0  0  0  0  0  0  0
   55.4808   29.6290   43.3549 H   0  0  0  0  0  0  0  0  0  0  0  0
   57.5499   30.7566   41.9799 H   0  0  0  0  0  0  0  0  0  0  0  0
   58.8958   32.8310   41.7339 H   0  0  0  0  0  0  0  0  0  0  0  0
   59.0133   34.3951   43.6737 H   0  0  0  0  0  0  0  0  0  0  0  0
   56.9339   34.5368   46.4540 H   0  0  0  0  0  0  0  0  0  0  0  0
   59.3022   35.5073   46.1106 H   0  0  0  0  0  0  0  0  0  0  0  0
   61.5516   34.2598   45.5347 H   0  0  0  0  0  0  0  0  0  0  0  0
   63.9375   33.7601   45.4557 H   0  0  0  0  0  0  0  0  0  0  0  0
   65.1033   32.9012   47.4346 H   0  0  0  0  0  0  0  0  0  0  0  0
   63.8359   32.5413   49.5265 H   0  0  0  0  0  0  0  0  0  0  0  0
   60.3680   32.7640   49.9850 H   0  0  0  0  0  0  0  0  0  0  0  0
   56.4805   31.7826   45.9565 H   0  0  0  0  0  0  0  0  0  0  0  0
  1  2  2  0
  2  3  1  0
  3  4  1  0
  4  5  2  0
  5  6  1  0
  6  7  1  0
  7  8  2  0
  7  9  1  0
  9 10  1  0
 10 11  2  0
  2 12  1  0
 12 13  2  0
 13 14  1  0
 14 15  2  0
 15 16  1  0
 16 17  2  0
 17 18  1  0
 18 19  1  0
 19 20  2  0
 20 21  1  0
 21 22  2  0
 21 23  1  0
 23 24  2  0
 24 25  1  0
 25 26  2  0
 26 27  1  0
 27 28  2  0
 28 29  1  0
 18 30  2  0
 10  4  1  0
 30 14  1  0
 28 23  1  0
  3 31  1  0
  3 32  1  0
  6 33  1  0
  9 34  1  0
 13 35  1  0
 15 36  1  0
 16 37  1  0
 17 38  1  0
 19 39  1  0
 20 40  1  0
 24 41  1  0
 25 42  1  0
 26 43  1  0
 27 44  1  0
 29 45  1  0
 30 46  1  0
M  END
>  <smiles>  (3) 
O=C(Cc1n[nH]c(=O)[nH]c1=O)N=Cc1cccc(C=CC(=O)c2ccccc2O)c1

>  <score_type>  (3) 
oracle

>  <origin>  (3) 
adg

>  <m_score__min__energy>  (3) 
-11.09

>  <m_primary>  (3) 
energy

$$$$
3:0
     RDKit          3D

 73 76  0  0  0  0  0  0  0  0999 V2000
   56.9598   29.8600   43.0743 H   0  0  0  0  0  0  0  0  0  0  0  0
   57.2850   28.9400   43.5820 C   0  0  0  0  0  0  0  0  0  0  0  0
   57.1810   27.9677   43.0783 H   0  0  0  0  0  0  0  0  0  0  0  0
   57.8100   29.0040   44.8190 C   0  0  0  0  0  0  0  0  0  0  0  0
   58.2610   27.9210   45.5750 C   0  0  0  0  0  0  0  0  0  0  0  0
   58.1670   26.6150   45.2660 C   0  0  0  0  0  0  0  0  0  0  0  0
   58.7039   26.2491   44.3784 H   0  0  0  0  0  0  0  0  0  0  0  0
   57.3810   25.6480   46.0560 C   0  0  0  0  0  0  0  0  0  0  0  0
   57.9160   24.5640   46.6430 N   0  0  0  0  0  0  0  0  0  0  0  0
   56.8610   23.9930   47.2650 C   0  0  0  0  0  0  0  0  0  0  0  0
   56.9660   22.9240   47.9190 O   0  0  0  0  0  0  0  0  0  0  0  0
   55.6920   24.6580   47.1310 N   0  0  0  0  0  0  0  0  0  0  0  0
   56.0420   25.7080   46.3700 C   0  0  0  0  0  0  0  0  0  0  0  0
   55.1610   26.7150   45.9900 O   0  0  0  0  0  0  0  0  0  0  0  0
   58.7640   28.4530   46.7540 C   0  0  0  0  0  0  0  0  0  0  0  0
   59.2172   27.8897   47.5831 H   0  0  0  0  0  0  0  0  0  0  0  0
   58.5890   29.8250   46.6920 C   0  0  0  0  0  0  0  0  0  0  0  0
   59.0370   30.7310   47.7980 C   0  0  0  0  0  0  0  0  0  0  0  0
   58.6780   30.4320   48.9760 O   0  0  0  0  0  0  0  0  0  0  0  0
   59.9830   31.8210   47.6040 N   0  0  0  0  0  0  0  0  0  0  0  0
   59.6180   32.4810   46.8840 H   0  0  0  0  0  0  0  0  0  0  0  0
   60.1370   32.5950   48.8640 C   0  0  0  0  0  0  0  0  0  0  0  0
   59.2912   33.2913   48.9629 H   0  0  0  0  0  0  0  0  0  0  0  0
   60.1583   31.8880   49.7064 H   0  0  0  0  0  0  0  0  0  0  0  0
   61.4420   33.3920   48.8680 C   0  0  0  0  0  0  0  0  0  0  0  0
   61.4696   34.0461   47.9840 H   0  0  0  0  0  0  0  0  0  0  0  0
   61.4882   33.9948   49.7870 H   0  0  0  0  0  0  0  0  0  0  0  0
   62.6050   32.4800   48.8350 N   0  0  0  0  0  0  0  0  0  0  0  0
   63.8730   33.1630   48.5010 C   0  0  0  0  0  0  0  0  0  0  0  0
   64.3568   32.6138   47.6798 H   0  0  0  0  0  0  0  0  0  0  0  0
   63.6168   34.1961   48.2233 H   0  0  0  0  0  0  0  0  0  0  0  0
   64.8710   33.2480   49.6880 C   0  0  0  0  0  0  0  0  0  0  0  0
   65.7640   33.7928   49.3478 H   0  0  0  0  0  0  0  0  0  0  0  0
   64.3417   33.7585   50.5061 H   0  0  0  0  0  0  0  0  0  0  0  0
   65.3040   31.9370   50.2200 N   0  0  0  0  0  0  0  0  0  0  0  0
   64.4520   31.4130   51.2990 C   0  0  0  0  0  0  0  0  0  0  0  0
   64.5324   32.0652   52.1812 H   0  0  0  0  0  0  0  0  0  0  0  0
   63.4049   31.3846   50.9630 H   0  0  0  0  0  0  0  0  0  0  0  0
   64.9150   29.9990   51.6630 C   0  0  0  0  0  0  0  0  0  0  0  0
   64.2968   29.6180   52.4892 H   0  0  0  0  0  0  0  0  0  0  0  0
   64.8095   29.3535   50.7786 H   0  0  0  0  0  0  0  0  0  0  0  0
   66.2730   30.0050   52.0630 O   0  0  0  0  0  0  0  0  0  0  0  0
   67.0880   30.4580   50.9980 C   0  0  0  0  0  0  0  0  0  0  0  0
   68.1417   30.4263   51.3121 H   0  0  0  0  0  0  0  0  0  0  0  0
   66.9266   29.8036   50.1287 H   0  0  0  0  0  0  0  0  0  0  0  0
   66.7240   31.8960   50.6040 C   0  0  0  0  0  0  0  0  0  0  0  0
   66.8958   32.5681   51.4577 H   0  0  0  0  0  0  0  0  0  0  0  0
   67.3492   32.2221   49.7598 H   0  0  0  0  0  0  0  0  0  0  0  0
   62.3780   31.1910   48.1370 C   0  0  0  0  0  0  0  0  0  0  0  0
   63.3152   30.8808   47.6518 H   0  0  0  0  0  0  0  0  0  0  0  0
   62.0524   30.4538   48.8856 H   0  0  0  0  0  0  0  0  0  0  0  0
   61.2750   31.2970   47.0650 C   0  0  0  0  0  0  0  0  0  0  0  0
   61.6229   31.9732   46.2702 H   0  0  0  0  0  0  0  0  0  0  0  0
   61.0854   30.2814   46.6874 H   0  0  0  0  0  0  0  0  0  0  0  0
   57.9840   30.1560   45.5170 N   0  0  0  0  0  0  0  0  0  0  0  0
   57.5330   31.4540   45.1000 C   0  0  0  0  0  0  0  0  0  0  0  0
   56.3180   31.6250   44.8170 O   0  0  0  0  0  0  0  0  0  0  0  0
   58.5030   32.5920   44.9240 C   0  0  0  0  0  0  0  0  0  0  0  0
   59.4732   32.2812   45.3389 H   0  0  0  0  0  0  0  0  0  0  0  0
   58.5382   32.8032   43.8450 H   0  0  0  0  0  0  0  0  0  0  0  0
   58.0850   33.9230   45.6160 C   0  0  0  0  0  0  0  0  0  0  0  0
   56.9180   34.5860   44.8510 C   0  0  0  0  0  0  0  0  0  0  0  0
   56.1945   34.9970   45.5705 H   0  0  0  0  0  0  0  0  0  0  0  0
   57.3079   35.3974   44.2189 H   0  0  0  0  0  0  0  0  0  0  0  0
   56.4206   33.8356   44.2189 H   0  0  0  0  0  0  0  0  0  0  0  0
   57.6080   33.5920   47.0490 C   0  0  0  0  0  0  0  0  0  0  0  0
   58.2846   34.0615   47.7783 H   0  0  0  0  0  0  0  0  0  0  0  0
   56.5880   33.9774   47.1941 H   0  0  0  0  0  0  0  0  0  0  0  0
   57.6121   32.5016   47.1941 H   0  0  0  0  0  0  0  0  0  0  0  0
   59.2700   34.9120   45.7030 C   0  0  0  0  0  0  0  0  0  0  0  0
   59.5062   35.1092   46.7591 H   0  0  0  0  0  0  0  0  0  0  0  0
   60.1490   34.4757   45.2059 H   0  0  0  0  0  0  0  0  0  0  0  0
   58.9980   35.8548   45.2059 H   0  0  0  0  0  0  0  0  0  0  0  0
  1  2  1  0
  2  3  1  0
  2  4  2  0
  4  5  1  0
  5  6  2  0
  6  7  1  0
  6  8  1  0
  8  9  1  0
  9 10  1  0
 10 11  2  0
 10 12  1  0
 12 13  1  0
 13 14  1  0
  5 15  1  0
 15 16  1  0
 15 17  2  0
 17 18  1  0
 18 19  2  0
 18 20  1  0
 20 21  1  0
 20 22  1  0
 22 23  1  0
 22 24  1  0
 22 25  1  0
 25 26  1  0
 25 27  1  0
 25 28  1  0
 28 29  1  0
 29 30  1  0
 29 31  1  0
 29 32  1  0
 32 33  1  0
 32 34  1  0
 32 35  1  0
 35 36  1  0
 36 37  1  0
 36 38  1  0
 36 39  1  0
 39 40  1  0
 39 41  1  0
 39 42  1  0
 42 43  1  0
 43 44  1  0
 43 45  1  0
 43 46  1  0
 46 47  1  0
 46 48  1  0
 28 49  1  0
 49 50  1  0
 49 51  1  0
 49 52  1  0
 52 53  1  0
 52 54  1  0
 17 55  1  0
 55 56  1  0
 56 57  2  0
 56 58  1  0
 58 59  1  0
 58 60  1  0
 58 61  1  0
 61 62  1  0
 62 63  1  0
 62 64  1  0
 62 65  1  0
 61 66  1  0
 66 67  1  0
 66 68  1  0
 66 69  1  0
 61 70  1  0
 70 71  1  0
 70 72  1  0
 70 73  1  0
 55  4  1  0
 13  8  2  0
 52 20  1  0
 46 35  1  0
M  CHG  4   9  -1  12  -1  14  -1  20   1
M  END
>  <UniqueID>  (4) 
3

>  <SMILES>  (4) 
C=c1/c(=C/c2[n-]c(=O)[n-]c2[O-])cc(C(=O)[NH+]2CCN(CCN3CCOCC3)CC2)n1C(=O)CC(C)(C)C

>  <Energy>  (4) 
169.50666086209463

>  <Genealogy>  (4) 
C=c1c(=Cc2[n-]c(=O)[n-]c2[O-])cc(C(=O)[NH+]2CCN(CCN3CCOCC3)CC2)n1C(=O)CC(C)(C)C (protonated)
C=c1/c(=C/c2[n-]c(=O)[n-]c2[O-])cc(C(=O)[NH+]2CCN(CCN3CCOCC3)CC2)n1C(=O)CC(C)(C)C (cis-trans isomerization)
C=c1/c(=C/c2[n-]c(=O)[n-]c2[O-])cc(C(=O)[NH+]2CCN(CCN3CCOCC3)CC2)n1C(=O)CC(C)(C)C (3D coordinates assigned)
C=c1/c(=C/c2[n-]c(=O)[n-]c2[O-])cc(C(=O)[NH+]2CCN(CCN3CCOCC3)CC2)n1C(=O)CC(C)(C)C (nonaromatic ring conformer: 169.50666086209463 kcal/mol)

>  <smiles>  (4) 
C=c1c(=Cc2[nH]c(=O)[nH]c2O)cc(C(=O)N2CCN(CCN3CCOCC3)CC2)n1C(=O)CC(C)(C)C

>  <score_type>  (4) 
oracle

>  <origin>  (4) 
adg

>  <m_score__min__energy>  (4) 
-15.92

>  <m_primary>  (4) 
energy

$$$$
4:0
     RDKit          3D

 73 77  0  0  0  0  0  0  0  0999 V2000
   60.1560   28.6280   45.8760 C   0  0  0  0  0  0  0  0  0  0  0  0
   58.9060   28.8760   45.4570 C   0  0  0  0  0  0  0  0  0  0  0  0
   57.9880   27.9290   44.9660 C   0  0  0  0  0  0  0  0  0  0  0  0
   58.0310   26.5830   44.9210 C   0  0  0  0  0  0  0  0  0  0  0  0
   57.3840   25.6540   45.8630 C   0  0  0  0  0  0  0  0  0  0  0  0
   58.0210   24.6790   46.5420 N   0  0  0  0  0  0  0  0  0  0  0  0
   57.0790   24.2340   47.4030 C   0  0  0  0  0  0  0  0  0  0  0  0
   57.2920   23.2940   48.2140 O   0  0  0  0  0  0  0  0  0  0  0  0
   55.8980   24.8840   47.3370 N   0  0  0  0  0  0  0  0  0  0  0  0
   56.1140   25.7880   46.3670 C   0  0  0  0  0  0  0  0  0  0  0  0
   55.1710   26.7230   45.9580 O   0  0  0  0  0  0  0  0  0  0  0  0
   56.9140   28.6500   44.4800 C   0  0  0  0  0  0  0  0  0  0  0  0
   57.1670   29.9790   44.7410 C   0  0  0  0  0  0  0  0  0  0  0  0
   56.2510   31.0910   44.3240 C   0  0  0  0  0  0  0  0  0  0  0  0
   58.3820   30.1290   45.3270 N   0  0  0  0  0  0  0  0  0  0  0  0
   59.0490   31.4210   45.5760 C   0  0  0  0  0  0  0  0  0  0  0  0
   59.5750   31.4800   46.9910 C   0  0  0  0  0  0  0  0  0  0  0  0
   60.9480   31.6140   47.2330 C   0  0  0  0  0  0  0  0  0  0  0  0
   61.4480   31.6010   48.5430 C   0  0  0  0  0  0  0  0  0  0  0  0
   62.9050   31.7010   48.7800 C   0  0  0  0  0  0  0  0  0  0  0  0
   63.6990   31.5620   47.8090 O   0  0  0  0  0  0  0  0  0  0  0  0
   63.4330   31.9700   50.0920 N   0  0  0  0  0  0  0  0  0  0  0  0
   62.8710   33.0760   50.8840 C   0  0  0  0  0  0  0  0  0  0  0  0
   63.8140   33.4990   52.0200 C   0  0  0  0  0  0  0  0  0  0  0  0
   65.2050   33.5550   51.5400 N   0  0  0  0  0  0  0  0  0  0  0  0
   66.0680   34.6450   51.9280 C   0  0  0  0  0  0  0  0  0  0  0  0
   67.3950   34.8650   51.2640 C   0  0  0  0  0  0  0  0  0  0  0  0
   65.7160   35.4360   52.8440 O   0  0  0  0  0  0  0  0  0  0  0  0
   65.7450   32.4390   50.7430 C   0  0  0  0  0  0  0  0  0  0  0  0
   64.6940   31.3510   50.5150 C   0  0  0  0  0  0  0  0  0  0  0  0
   60.5600   31.4340   49.6170 C   0  0  0  0  0  0  0  0  0  0  0  0
   59.1770   31.3060   49.3980 C   0  0  0  0  0  0  0  0  0  0  0  0
   58.2580   31.1370   50.5610 C   0  0  0  0  0  0  0  0  0  0  0  0
   57.9470   29.9650   50.9210 O   0  0  0  0  0  0  0  0  0  0  0  0
   57.7580   32.2700   51.3220 N   0  0  0  0  0  0  0  0  0  0  0  0
   58.8330   33.2800   51.4670 C   0  0  0  0  0  0  0  0  0  0  0  0
   58.5860   34.1760   52.6930 C   0  0  0  0  0  0  0  0  0  0  0  0
   58.5400   33.4670   53.9260 O   0  0  0  0  0  0  0  0  0  0  0  0
   58.1720   32.1010   53.7900 C   0  0  0  0  0  0  0  0  0  0  0  0
   57.1900   31.8470   52.6310 C   0  0  0  0  0  0  0  0  0  0  0  0
   58.6970   31.3520   48.0760 C   0  0  0  0  0  0  0  0  0  0  0  0
   60.7871   29.4515   46.2415 H   0  0  0  0  0  0  0  0  0  0  0  0
   60.5499   27.6012   45.8540 H   0  0  0  0  0  0  0  0  0  0  0  0
   58.6068   26.1332   44.0987 H   0  0  0  0  0  0  0  0  0  0  0  0
   56.0246   28.2401   43.9791 H   0  0  0  0  0  0  0  0  0  0  0  0
   55.8437   31.5854   45.2183 H   0  0  0  0  0  0  0  0  0  0  0  0
   56.8120   31.8226   43.7240 H   0  0  0  0  0  0  0  0  0  0  0  0
   55.4255   30.6805   43.7240 H   0  0  0  0  0  0  0  0  0  0  0  0
   59.8870   31.5373   44.8730 H   0  0  0  0  0  0  0  0  0  0  0  0
   58.3194   32.2317   45.4332 H   0  0  0  0  0  0  0  0  0  0  0  0
   61.6411   31.7306   46.3868 H   0  0  0  0  0  0  0  0  0  0  0  0
   62.7015   33.9380   50.2221 H   0  0  0  0  0  0  0  0  0  0  0  0
   61.9276   32.7312   51.3325 H   0  0  0  0  0  0  0  0  0  0  0  0
   63.5169   34.4928   52.3863 H   0  0  0  0  0  0  0  0  0  0  0  0
   63.7469   32.7605   52.8324 H   0  0  0  0  0  0  0  0  0  0  0  0
   68.1722   34.9939   52.0317 H   0  0  0  0  0  0  0  0  0  0  0  0
   67.6398   33.9952   50.6367 H   0  0  0  0  0  0  0  0  0  0  0  0
   67.3460   35.7673   50.6367 H   0  0  0  0  0  0  0  0  0  0  0  0
   66.0774   32.8245   49.7679 H   0  0  0  0  0  0  0  0  0  0  0  0
   66.5856   31.9954   51.2966 H   0  0  0  0  0  0  0  0  0  0  0  0
   65.0442   30.6611   49.7331 H   0  0  0  0  0  0  0  0  0  0  0  0
   64.5336   30.7945   51.4502 H   0  0  0  0  0  0  0  0  0  0  0  0
   60.9515   31.4028   50.6445 H   0  0  0  0  0  0  0  0  0  0  0  0
   56.9640   32.7060   50.7980 H   0  0  0  0  0  0  0  0  0  0  0  0
   59.7973   32.7644   51.5867 H   0  0  0  0  0  0  0  0  0  0  0  0
   58.8433   33.9125   50.5671 H   0  0  0  0  0  0  0  0  0  0  0  0
   59.3972   34.9167   52.7496 H   0  0  0  0  0  0  0  0  0  0  0  0
   57.5985   34.6405   52.5550 H   0  0  0  0  0  0  0  0  0  0  0  0
   59.0826   31.5102   53.6119 H   0  0  0  0  0  0  0  0  0  0  0  0
   57.6622   31.8069   54.7193 H   0  0  0  0  0  0  0  0  0  0  0  0
   56.9598   30.7722   52.5885 H   0  0  0  0  0  0  0  0  0  0  0  0
   56.2817   32.4390   52.8167 H   0  0  0  0  0  0  0  0  0  0  0  0
   57.6146   31.2864   47.8910 H   0  0  0  0  0  0  0  0  0  0  0  0
  1  2  2  0
  2  3  1  0
  3  4  2  3
  4  5  1  0
  5  6  1  0
  6  7  1  0
  7  8  2  0
  7  9  1  0
  9 10  1  0
 10 11  1  0
  3 12  1  0
 12 13  2  0
 13 14  1  0
 13 15  1  0
 15 16  1  0
 16 17  1  0
 17 18  2  0
 18 19  1  0
 19 20  1  0
 20 21  2  0
 20 22  1  0
 22 23  1  0
 23 24  1  0
 24 25  1  0
 25 26  1  0
 26 27  1  0
 26 28  2  0
 25 29  1  0
 29 30  1  0
 19 31  2  0
 31 32  1  0
 32 33  1  0
 33 34  2  0
 33 35  1  0
 35 36  1  0
 36 37  1  0
 37 38  1  0
 38 39  1  0
 39 40  1  0
 32 41  2  0
 15  2  1  0
 41 17  1  0
 10  5  2  0
 30 22  1  0
 40 35  1  0
  1 42  1  0
  1 43  1  0
  4 44  1  0
 12 45  1  0
 14 46  1  0
 14 47  1  0
 14 48  1  0
 16 49  1  0
 16 50  1  0
 18 51  1  0
 23 52  1  0
 23 53  1  0
 24 54  1  0
 24 55  1  0
 27 56  1  0
 27 57  1  0
 27 58  1  0
 29 59  1  0
 29 60  1  0
 30 61  1  0
 30 62  1  0
 31 63  1  0
 35 64  1  0
 36 65  1  0
 36 66  1  0
 37 67  1  0
 37 68  1  0
 39 69  1  0
 39 70  1  0
 40 71  1  0
 40 72  1  0
 41 73  1  0
M  CHG  4   6  -1   9  -1  11  -1  35   1
M  END
>  <UniqueID>  (5) 
4

>  <SMILES>  (5) 
C=c1c(=Cc2[n-]c(=O)[n-]c2[O-])cc(C)n1Cc1cc(C(=O)N2CCN(C(C)=O)CC2)cc(C(=O)[NH+]2CCOCC2)c1

>  <Energy>  (5) 
168.5865805122616

>  <Genealogy>  (5) 
C=c1c(=Cc2[n-]c(=O)[n-]c2[O-])cc(C)n1Cc1cc(C(=O)N2CCN(C(C)=O)CC2)cc(C(=O)[NH+]2CCOCC2)c1 (protonated)
C=c1c(=Cc2[n-]c(=O)[n-]c2[O-])cc(C)n1Cc1cc(C(=O)N2CCN(C(C)=O)CC2)cc(C(=O)[NH+]2CCOCC2)c1 (3D coordinates assigned)
C=c1c(=Cc2[n-]c(=O)[n-]c2[O-])cc(C)n1Cc1cc(C(=O)N2CCN(C(C)=O)CC2)cc(C(=O)[NH+]2CCOCC2)c1 (nonaromatic ring conformer: 168.5865805122616 kcal/mol)

>  <smiles>  (5) 
C=c1c(=Cc2[nH]c(=O)[nH]c2O)cc(C)n1Cc1cc(C(=O)N2CCOCC2)cc(C(=O)N2CCN(C(C)=O)CC2)c1

>  <score_type>  (5) 
oracle

>  <origin>  (5) 
adg

>  <m_score__min__energy>  (5) 
-17.93

>  <m_primary>  (5) 
energy

$$$$
5:0
     RDKit          3D

 51 54  0  0  0  0  0  0  0  0999 V2000
   61.8840   32.5680   48.0010 C   0  0  0  0  0  0  0  0  0  0  0  0
   60.6630   33.0260   47.2520 C   0  0  0  0  0  0  0  0  0  0  0  0
   60.7090   34.2130   46.5010 C   0  0  0  0  0  0  0  0  0  0  0  0
   59.5890   34.6400   45.7820 C   0  0  0  0  0  0  0  0  0  0  0  0
   58.4160   33.8810   45.7940 C   0  0  0  0  0  0  0  0  0  0  0  0
   57.0150   34.4160   44.8860 Cl  0  0  0  0  0  0  0  0  0  0  0  0
   58.3640   32.6900   46.5240 C   0  0  0  0  0  0  0  0  0  0  0  0
   59.4840   32.2520   47.2450 C   0  0  0  0  0  0  0  0  0  0  0  0
   59.4130   31.0120   47.9610 N   0  0  0  0  0  0  0  0  0  0  0  0
   58.9460   30.8060   49.2110 C   0  0  0  0  0  0  0  0  0  0  0  0
   58.3330   31.8480   50.0930 C   0  0  0  0  0  0  0  0  0  0  0  0
   59.0720   29.4610   49.5140 C   0  0  0  0  0  0  0  0  0  0  0  0
   59.6200   28.8340   48.4520 N   0  0  0  0  0  0  0  0  0  0  0  0
   59.9610   27.4410   48.3750 C   0  0  0  0  0  0  0  0  0  0  0  0
   60.7890   26.9650   49.1980 O   0  0  0  0  0  0  0  0  0  0  0  0
   59.3430   26.5450   47.3700 C   0  0  0  0  0  0  0  0  0  0  0  0
   60.1470   25.6990   46.5900 C   0  0  0  0  0  0  0  0  0  0  0  0
   59.5690   24.8300   45.6600 C   0  0  0  0  0  0  0  0  0  0  0  0
   58.1750   24.7790   45.5010 C   0  0  0  0  0  0  0  0  0  0  0  0
   57.5770   23.8660   44.5560 N   0  0  0  0  0  0  0  0  0  0  0  0
   56.6330   24.3800   43.5500 C   0  0  0  0  0  0  0  0  0  0  0  0
   55.6910   23.2820   42.9950 C   0  0  0  0  0  0  0  0  0  0  0  0
   55.9330   21.9970   43.5320 O   0  0  0  0  0  0  0  0  0  0  0  0
   57.3040   21.6890   43.4340 C   0  0  0  0  0  0  0  0  0  0  0  0
   58.0630   22.4800   44.4930 C   0  0  0  0  0  0  0  0  0  0  0  0
   57.3690   25.6140   46.2950 C   0  0  0  0  0  0  0  0  0  0  0  0
   57.9470   26.4850   47.2220 C   0  0  0  0  0  0  0  0  0  0  0  0
   59.8340   29.8050   47.5370 C   0  0  0  0  0  0  0  0  0  0  0  0
   60.3930   29.6140   46.4230 O   0  0  0  0  0  0  0  0  0  0  0  0
   61.6981   32.6377   49.0829 H   0  0  0  0  0  0  0  0  0  0  0  0
   62.1081   31.5247   47.7340 H   0  0  0  0  0  0  0  0  0  0  0  0
   62.7389   33.2066   47.7340 H   0  0  0  0  0  0  0  0  0  0  0  0
   61.6326   34.8100   46.4789 H   0  0  0  0  0  0  0  0  0  0  0  0
   59.6312   35.5758   45.2054 H   0  0  0  0  0  0  0  0  0  0  0  0
   57.4399   32.0934   46.5329 H   0  0  0  0  0  0  0  0  0  0  0  0
   58.4927   31.5765   51.1469 H   0  0  0  0  0  0  0  0  0  0  0  0
   58.8020   32.8221   49.8902 H   0  0  0  0  0  0  0  0  0  0  0  0
   57.2537   31.9113   49.8902 H   0  0  0  0  0  0  0  0  0  0  0  0
   58.7757   28.9842   50.4600 H   0  0  0  0  0  0  0  0  0  0  0  0
   61.2401   25.7200   46.7115 H   0  0  0  0  0  0  0  0  0  0  0  0
   60.2118   24.1806   45.0476 H   0  0  0  0  0  0  0  0  0  0  0  0
   56.0204   25.1677   44.0128 H   0  0  0  0  0  0  0  0  0  0  0  0
   57.2248   24.7661   42.7070 H   0  0  0  0  0  0  0  0  0  0  0  0
   54.6538   23.5651   43.2274 H   0  0  0  0  0  0  0  0  0  0  0  0
   55.8777   23.2171   41.9129 H   0  0  0  0  0  0  0  0  0  0  0  0
   57.4535   20.6119   43.5995 H   0  0  0  0  0  0  0  0  0  0  0  0
   57.6754   21.9534   42.4329 H   0  0  0  0  0  0  0  0  0  0  0  0
   57.9183   22.0020   45.4731 H   0  0  0  0  0  0  0  0  0  0  0  0
   59.1303   22.4919   44.2272 H   0  0  0  0  0  0  0  0  0  0  0  0
   56.2750   25.5812   46.1854 H   0  0  0  0  0  0  0  0  0  0  0  0
   57.3043   27.1286   47.8406 H   0  0  0  0  0  0  0  0  0  0  0  0
  1  2  1  0
  2  3  2  0
  3  4  1  0
  4  5  2  0
  5  6  1  0
  5  7  1  0
  7  8  2  0
  8  9  1  0
  9 10  1  0
 10 11  1  0
 10 12  2  0
 12 13  1  0
 13 14  1  0
 14 15  2  0
 14 16  1  0
 16 17  2  0
 17 18  1  0
 18 19  2  0
 19 20  1  0
 20 21  1  0
 21 22  1  0
 22 23  1  0
 23 24  1  0
 24 25  1  0
 19 26  1  0
 26 27  2  0
 13 28  1  0
 28 29  2  0
  8  2  1  0
 28  9  1  0
 27 16  1  0
 25 20  1  0
  1 30  1  0
  1 31  1  0
  1 32  1  0
  3 33  1  0
  4 34  1  0
  7 35  1  0
 11 36  1  0
 11 37  1  0
 11 38  1  0
 12 39  1  0
 17 40  1  0
 18 41  1  0
 21 42  1  0
 21 43  1  0
 22 44  1  0
 22 45  1  0
 24 46  1  0
 24 47  1  0
 25 48  1  0
 25 49  1  0
 26 50  1  0
 27 51  1  0
M  END
>  <UniqueID>  (6) 
5

>  <SMILES>  (6) 
Cc1ccc(Cl)cc1-n1c(C)cn(C(=O)c2ccc(N3CCOCC3)cc2)c1=O

>  <Energy>  (6) 
108.90197843180096

>  <Genealogy>  (6) 
Cc1ccc(Cl)cc1-n1c(C)cn(C(=O)c2ccc(N3CCOCC3)cc2)c1=O (3D coordinates assigned)
Cc1ccc(Cl)cc1-n1c(C)cn(C(=O)c2ccc(N3CCOCC3)cc2)c1=O (nonaromatic ring conformer: 108.90197843180096 kcal/mol)

>  <smiles>  (6) 
Cc1ccc(Cl)cc1-n1c(C)cn(C(=O)c2ccc(N3CCOCC3)cc2)c1=O

>  <score_type>  (6) 
oracle

>  <origin>  (6) 
adg

>  <m_score__min__energy>  (6) 
-8.4800000000000004

>  <m_primary>  (6) 
energy

$$$$
6:0
     RDKit          3D

 49 52  0  0  0  0  0  0  0  0999 V2000
   55.1430   26.7100   46.0350 N   0  0  0  0  0  0  0  0  0  0  0  0
   56.1670   25.7960   46.4280 C   0  0  0  0  0  0  0  0  0  0  0  0
   55.8630   24.5900   46.6380 O   0  0  0  0  0  0  0  0  0  0  0  0
   57.5660   26.2550   46.5880 C   0  0  0  0  0  0  0  0  0  0  0  0
   58.6220   25.5330   46.0020 C   0  0  0  0  0  0  0  0  0  0  0  0
   59.9420   25.9590   46.1570 C   0  0  0  0  0  0  0  0  0  0  0  0
   60.2280   27.1090   46.8930 C   0  0  0  0  0  0  0  0  0  0  0  0
   59.1910   27.8530   47.4860 C   0  0  0  0  0  0  0  0  0  0  0  0
   59.4960   29.0800   48.2630 C   0  0  0  0  0  0  0  0  0  0  0  0
   60.4950   29.9130   47.8700 N   0  0  0  0  0  0  0  0  0  0  0  0
   60.8050   31.0420   48.5600 C   0  0  0  0  0  0  0  0  0  0  0  0
   61.8900   31.9220   48.0550 C   0  0  0  0  0  0  0  0  0  0  0  0
   61.7420   32.6290   46.9180 C   0  0  0  0  0  0  0  0  0  0  0  0
   62.8110   33.5550   46.4000 C   0  0  0  0  0  0  0  0  0  0  0  0
   64.1470   33.2010   46.8980 N   0  0  0  0  0  0  0  0  0  0  0  0
   64.1270   33.0860   48.3600 C   0  0  0  0  0  0  0  0  0  0  0  0
   63.2060   31.9410   48.8050 C   0  0  0  0  0  0  0  0  0  0  0  0
   60.0560   31.3660   49.7030 C   0  0  0  0  0  0  0  0  0  0  0  0
   59.0240   30.5050   50.1070 C   0  0  0  0  0  0  0  0  0  0  0  0
   58.2050   30.7970   51.2580 N   0  0  0  0  0  0  0  0  0  0  0  0
   58.3070   32.1170   51.8930 C   0  0  0  0  0  0  0  0  0  0  0  0
   57.0030   32.4570   52.6200 C   0  0  0  0  0  0  0  0  0  0  0  0
   56.6290   31.4090   53.4930 O   0  0  0  0  0  0  0  0  0  0  0  0
   56.3130   30.2550   52.7390 C   0  0  0  0  0  0  0  0  0  0  0  0
   57.5500   29.7180   52.0110 C   0  0  0  0  0  0  0  0  0  0  0  0
   58.7740   29.3870   49.3730 N   0  0  0  0  0  0  0  0  0  0  0  0
   57.8620   27.4160   47.3260 C   0  0  0  0  0  0  0  0  0  0  0  0
   54.4740   27.1000   46.7350 H   0  0  0  0  0  0  0  0  0  0  0  0
   58.4057   24.6265   45.4176 H   0  0  0  0  0  0  0  0  0  0  0  0
   60.7602   25.3856   45.6969 H   0  0  0  0  0  0  0  0  0  0  0  0
   61.2715   27.4366   47.0107 H   0  0  0  0  0  0  0  0  0  0  0  0
   60.8071   32.5264   46.3475 H   0  0  0  0  0  0  0  0  0  0  0  0
   62.8190   33.5059   45.3011 H   0  0  0  0  0  0  0  0  0  0  0  0
   62.5779   34.5693   46.7561 H   0  0  0  0  0  0  0  0  0  0  0  0
   64.4290   32.2800   46.4870 H   0  0  0  0  0  0  0  0  0  0  0  0
   65.1475   32.8885   48.7201 H   0  0  0  0  0  0  0  0  0  0  0  0
   63.7472   34.0280   48.7823 H   0  0  0  0  0  0  0  0  0  0  0  0
   63.7234   30.9859   48.6315 H   0  0  0  0  0  0  0  0  0  0  0  0
   62.9783   32.0936   49.8703 H   0  0  0  0  0  0  0  0  0  0  0  0
   60.2750   32.2809   50.2730 H   0  0  0  0  0  0  0  0  0  0  0  0
   59.1350   32.1087   52.6171 H   0  0  0  0  0  0  0  0  0  0  0  0
   58.4933   32.8746   51.1175 H   0  0  0  0  0  0  0  0  0  0  0  0
   57.1444   33.3792   53.2027 H   0  0  0  0  0  0  0  0  0  0  0  0
   56.2076   32.5956   51.8729 H   0  0  0  0  0  0  0  0  0  0  0  0
   55.9282   29.4777   53.4155 H   0  0  0  0  0  0  0  0  0  0  0  0
   55.5545   30.5236   51.9890 H   0  0  0  0  0  0  0  0  0  0  0  0
   58.2564   29.3090   52.7484 H   0  0  0  0  0  0  0  0  0  0  0  0
   57.2394   28.9291   51.3102 H   0  0  0  0  0  0  0  0  0  0  0  0
   57.0435   27.9904   47.7844 H   0  0  0  0  0  0  0  0  0  0  0  0
  1  2  1  0
  2  3  2  0
  2  4  1  0
  4  5  2  0
  5  6  1  0
  6  7  2  0
  7  8  1  0
  8  9  1  0
  9 10  2  0
 10 11  1  0
 11 12  1  0
 12 13  2  0
 13 14  1  0
 14 15  1  0
 15 16  1  0
 16 17  1  0
 11 18  2  0
 18 19  1  0
 19 20  1  0
 20 21  1  0
 21 22  1  0
 22 23  1  0
 23 24  1  0
 24 25  1  0
 19 26  2  0
  8 27  2  0
 27  4  1  0
 26  9  1  0
 17 12  1  0
 25 20  1  0
  1 28  1  0
  5 29  1  0
  6 30  1  0
  7 31  1  0
 13 32  1  0
 14 33  1  0
 14 34  1  0
 15 35  1  0
 16 36  1  0
 16 37  1  0
 17 38  1  0
 17 39  1  0
 18 40  1  0
 21 41  1  0
 21 42  1  0
 22 43  1  0
 22 44  1  0
 24 45  1  0
 24 46  1  0
 25 47  1  0
 25 48  1  0
 27 49  1  0
M  CHG  1   1  -1
M  END
>  <UniqueID>  (7) 
6

>  <SMILES>  (7) 
[NH-]C(=O)c1cccc(-c2nc(C3=CCNCC3)cc(N3CCOCC3)n2)c1

>  <Energy>  (7) 
62.36734405432335

>  <Genealogy>  (7) 
[NH-]C(=O)c1cccc(-c2nc(C3=CCNCC3)cc(N3CCOCC3)n2)c1 (protonated)
[NH-]C(=O)c1cccc(-c2nc(C3=CCNCC3)cc(N3CCOCC3)n2)c1 (3D coordinates assigned)
[NH-]C(=O)c1cccc(-c2nc(C3=CCNCC3)cc(N3CCOCC3)n2)c1 (nonaromatic ring conformer: 62.36734405432335 kcal/mol)

>  <smiles>  (7) 
NC(=O)c1cccc(-c2nc(C3=CCNCC3)cc(N3CCOCC3)n2)c1

>  <score_type>  (7) 
oracle

>  <origin>  (7) 
adg

>  <m_score__min__energy>  (7) 
-11.75

>  <m_primary>  (7) 
energy

$$$$
7:0
     RDKit          3D

 64 66  0  0  0  0  0  0  0  0999 V2000
   55.7270   30.8240   51.9840 C   0  0  0  0  0  0  0  0  0  0  0  0
   57.0250   31.5470   51.8190 C   0  0  0  0  0  0  0  0  0  0  0  0
   57.0730   32.7840   52.0620 O   0  0  0  0  0  0  0  0  0  0  0  0
   58.1920   30.8510   51.3570 N   0  0  0  0  0  0  0  0  0  0  0  0
   59.4540   31.5500   51.0700 C   0  0  2  0  0  0  0  0  0  0  0  0
   59.3300   32.4620   49.8260 C   0  0  0  0  0  0  0  0  0  0  0  0
   60.2630   33.6880   49.8080 C   0  0  0  0  0  0  0  0  0  0  0  0
   61.4820   33.4810   48.9440 C   0  0  0  0  0  0  0  0  0  0  0  0
   61.3490   33.1040   47.5960 C   0  0  0  0  0  0  0  0  0  0  0  0
   62.4820   32.9300   46.7950 C   0  0  0  0  0  0  0  0  0  0  0  0
   63.7570   33.1190   47.3370 C   0  0  0  0  0  0  0  0  0  0  0  0
   63.8990   33.4760   48.6810 C   0  0  0  0  0  0  0  0  0  0  0  0
   62.7680   33.6560   49.4830 C   0  0  0  0  0  0  0  0  0  0  0  0
   60.6130   30.5920   50.9330 C   0  0  0  0  0  0  0  0  0  0  0  0
   61.7890   31.0500   50.9030 O   0  0  0  0  0  0  0  0  0  0  0  0
   60.3850   29.1900   50.7450 N   0  0  0  0  0  0  0  0  0  0  0  0
   60.8220   28.4490   49.5680 C   0  0  0  0  0  0  0  0  0  0  0  0
   60.0470   28.8970   48.3710 C   0  0  0  0  0  0  0  0  0  0  0  0
   60.5010   29.7860   47.4010 C   0  0  0  0  0  0  0  0  0  0  0  0
   59.6140   29.9310   46.3270 C   0  0  0  0  0  0  0  0  0  0  0  0
   58.4700   29.1460   46.4470 C   0  0  0  0  0  0  0  0  0  0  0  0
   57.3920   29.0480   45.4570 C   0  0  0  0  0  0  0  0  0  0  0  0
   57.1890   27.9580   44.8540 O   0  0  0  0  0  0  0  0  0  0  0  0
   56.5790   30.1930   45.1800 N   0  0  0  0  0  0  0  0  0  0  0  0
   56.7630   31.0890   44.0390 C   0  0  2  0  0  0  0  0  0  0  0  0
   56.4080   30.3570   42.7370 C   0  0  0  0  0  0  0  0  0  0  0  0
   55.4810   29.3410   42.9990 O   0  0  0  0  0  0  0  0  0  0  0  0
   58.2090   31.6230   44.0210 C   0  0  0  0  0  0  0  0  0  0  0  0
   58.4240   32.7930   44.9530 C   0  0  0  0  0  0  0  0  0  0  0  0
   59.2050   33.8910   44.5500 C   0  0  0  0  0  0  0  0  0  0  0  0
   59.4330   34.9530   45.4310 C   0  0  0  0  0  0  0  0  0  0  0  0
   58.8810   34.9300   46.7130 C   0  0  0  0  0  0  0  0  0  0  0  0
   58.0990   33.8460   47.1200 C   0  0  0  0  0  0  0  0  0  0  0  0
   57.8690   32.7790   46.2450 C   0  0  0  0  0  0  0  0  0  0  0  0
   58.5580   28.2730   47.8830 S   0  0  0  0  0  0  0  0  0  0  0  0
   55.5086   30.7024   53.0552 H   0  0  0  0  0  0  0  0  0  0  0  0
   54.9216   31.4034   51.5091 H   0  0  0  0  0  0  0  0  0  0  0  0
   55.7957   29.8342   51.5091 H   0  0  0  0  0  0  0  0  0  0  0  0
   58.1430   29.8130   51.2920 H   0  0  0  0  0  0  0  0  0  0  0  0
   59.6651   32.1943   51.9362 H   0  0  0  0  0  0  0  0  0  0  0  0
   59.5517   31.8541   48.9364 H   0  0  0  0  0  0  0  0  0  0  0  0
   58.3054   32.8619   49.8450 H   0  0  0  0  0  0  0  0  0  0  0  0
   59.7013   34.5517   49.4225 H   0  0  0  0  0  0  0  0  0  0  0  0
   60.6111   33.8550   50.8380 H   0  0  0  0  0  0  0  0  0  0  0  0
   60.3478   32.9450   47.1690 H   0  0  0  0  0  0  0  0  0  0  0  0
   62.3702   32.6445   45.7386 H   0  0  0  0  0  0  0  0  0  0  0  0
   64.6482   32.9868   46.7059 H   0  0  0  0  0  0  0  0  0  0  0  0
   64.9028   33.6156   49.1086 H   0  0  0  0  0  0  0  0  0  0  0  0
   62.8853   33.9358   50.5403 H   0  0  0  0  0  0  0  0  0  0  0  0
   61.8934   28.6315   49.3986 H   0  0  0  0  0  0  0  0  0  0  0  0
   60.6502   27.3748   49.7307 H   0  0  0  0  0  0  0  0  0  0  0  0
   61.4597   30.3207   47.4709 H   0  0  0  0  0  0  0  0  0  0  0  0
   59.8022   30.5987   45.4733 H   0  0  0  0  0  0  0  0  0  0  0  0
   56.0879   31.9525   44.1314 H   0  0  0  0  0  0  0  0  0  0  0  0
   55.9732   31.0723   42.0233 H   0  0  0  0  0  0  0  0  0  0  0  0
   57.3200   29.9139   42.3104 H   0  0  0  0  0  0  0  0  0  0  0  0
   55.8880   28.7700   43.6990 H   0  0  0  0  0  0  0  0  0  0  0  0
   58.8859   30.8091   44.3200 H   0  0  0  0  0  0  0  0  0  0  0  0
   58.4137   31.9770   42.9998 H   0  0  0  0  0  0  0  0  0  0  0  0
   59.6378   33.9146   43.5390 H   0  0  0  0  0  0  0  0  0  0  0  0
   60.0482   35.8077   45.1133 H   0  0  0  0  0  0  0  0  0  0  0  0
   59.0620   35.7666   47.4039 H   0  0  0  0  0  0  0  0  0  0  0  0
   57.6635   33.8316   48.1300 H   0  0  0  0  0  0  0  0  0  0  0  0
   57.2527   31.9272   46.5683 H   0  0  0  0  0  0  0  0  0  0  0  0
  1  2  1  0
  2  3  2  0
  2  4  1  0
  4  5  1  0
  5  6  1  0
  6  7  1  0
  7  8  1  0
  8  9  2  0
  9 10  1  0
 10 11  2  0
 11 12  1  0
 12 13  2  0
  5 14  1  0
 14 15  2  0
 14 16  1  0
 16 17  1  0
 17 18  1  0
 18 19  2  0
 19 20  1  0
 20 21  2  0
 21 22  1  0
 22 23  2  0
 22 24  1  0
 24 25  1  0
 25 26  1  0
 26 27  1  0
 25 28  1  0
 28 29  1  0
 29 30  2  0
 30 31  1  0
 31 32  2  0
 32 33  1  0
 33 34  2  0
 21 35  1  0
 13  8  1  0
 35 18  1  0
 34 29  1  0
  1 36  1  0
  1 37  1  0
  1 38  1  0
  4 39  1  0
  5 40  1  1
  6 41  1  0
  6 42  1  0
  7 43  1  0
  7 44  1  0
  9 45  1  0
 10 46  1  0
 11 47  1  0
 12 48  1  0
 13 49  1  0
 17 50  1  0
 17 51  1  0
 19 52  1  0
 20 53  1  0
 25 54  1  1
 26 55  1  0
 26 56  1  0
 27 57  1  0
 28 58  1  0
 28 59  1  0
 30 60  1  0
 31 61  1  0
 32 62  1  0
 33 63  1  0
 34 64  1  0
M  CHG  2  16  -1  24  -1
M  END
>  <UniqueID>  (8) 
7

>  <SMILES>  (8) 
CC(=O)N[C@H](CCc1ccccc1)C(=O)[N-]Cc1ccc(C(=O)[N-][C@H](CO)Cc2ccccc2)s1

>  <Energy>  (8) 
74.87887404334103

>  <Genealogy>  (8) 
CC(=O)NC(CCc1ccccc1)C(=O)[N-]Cc1ccc(C(=O)[N-]C(CO)Cc2ccccc2)s1 (protonated)
CC(=O)N[C@H](CCc1ccccc1)C(=O)[N-]Cc1ccc(C(=O)[N-][C@H](CO)Cc2ccccc2)s1 (chirality)
CC(=O)N[C@H](CCc1ccccc1)C(=O)[N-]Cc1ccc(C(=O)[N-][C@H](CO)Cc2ccccc2)s1 (3D coordinates assigned)
CC(=O)N[C@H](CCc1ccccc1)C(=O)[N-]Cc1ccc(C(=O)[N-][C@H](CO)Cc2ccccc2)s1 (optimized conformer: 74.87887404334103 kcal/mol)

>  <smiles>  (8) 
CC(=O)NC(CCc1ccccc1)C(=O)NCc1ccc(C(=O)NC(CO)Cc2ccccc2)s1

>  <score_type>  (8) 
oracle

>  <origin>  (8) 
adg

>  <m_score__min__energy>  (8) 
-13.01

>  <m_primary>  (8) 
energy

$$$$
8:0
     RDKit          3D

 69 72  0  0  0  0  0  0  0  0999 V2000
   61.6030   32.0080   51.8530 C   0  0  0  0  0  0  0  0  0  0  0  0
   61.8210   33.1740   51.2430 C   0  0  0  0  0  0  0  0  0  0  0  0
   62.4840   33.2820   49.9310 C   0  0  0  0  0  0  0  0  0  0  0  0
   63.8750   33.0800   49.8360 C   0  0  0  0  0  0  0  0  0  0  0  0
   64.5130   33.1010   48.5980 C   0  0  0  0  0  0  0  0  0  0  0  0
   63.7690   33.2770   47.4300 C   0  0  0  0  0  0  0  0  0  0  0  0
   62.3870   33.4630   47.5060 C   0  0  0  0  0  0  0  0  0  0  0  0
   61.7410   33.5060   48.7460 C   0  0  0  0  0  0  0  0  0  0  0  0
   60.1140   34.2850   48.7420 S   0  0  0  0  0  0  0  0  0  0  0  0
   59.4580   33.6470   47.1900 C   0  0  0  0  0  0  0  0  0  0  0  0
   58.9020   34.5220   46.2550 C   0  0  0  0  0  0  0  0  0  0  0  0
   58.2950   34.0290   45.1020 C   0  0  0  0  0  0  0  0  0  0  0  0
   58.1350   32.6420   44.9170 C   0  0  0  0  0  0  0  0  0  0  0  0
   57.5600   32.1460   43.6500 C   0  0  0  0  0  0  0  0  0  0  0  0
   57.2560   30.8650   43.3710 C   0  0  0  0  0  0  0  0  0  0  0  0
   56.3190   30.0010   44.1210 C   0  0  0  0  0  0  0  0  0  0  0  0
   55.2540   30.4670   44.6080 O   0  0  0  0  0  0  0  0  0  0  0  0
   56.5830   28.5950   44.2300 N   0  0  0  0  0  0  0  0  0  0  0  0
   57.1720   27.9630   45.2080 C   0  0  0  0  0  0  0  0  0  0  0  0
   58.5040   28.1760   45.3920 N   0  0  0  0  0  0  0  0  0  0  0  0
   59.2140   27.5620   46.3780 C   0  0  0  0  0  0  0  0  0  0  0  0
   58.5860   26.6550   47.2340 C   0  0  0  0  0  0  0  0  0  0  0  0
   57.2260   26.3980   47.0720 C   0  0  0  0  0  0  0  0  0  0  0  0
   56.5000   27.0430   46.0590 C   0  0  0  0  0  0  0  0  0  0  0  0
   55.1550   26.7330   45.9110 O   0  0  0  0  0  0  0  0  0  0  0  0
   58.6470   31.7510   45.8790 C   0  0  0  0  0  0  0  0  0  0  0  0
   59.3120   32.2460   47.0120 C   0  0  0  0  0  0  0  0  0  0  0  0
   59.8930   31.2950   47.9800 C   0  0  0  0  0  0  0  0  0  0  0  0
   60.9350   30.6640   47.6390 O   0  0  0  0  0  0  0  0  0  0  0  0
   59.4330   31.2410   49.3520 N   0  0  0  0  0  0  0  0  0  0  0  0
   59.2480   29.8210   49.7230 C   0  0  0  0  0  0  0  0  0  0  0  0
   58.6900   29.6960   51.1400 C   0  0  0  0  0  0  0  0  0  0  0  0
   57.3960   30.4060   51.2360 N   0  0  0  0  0  0  0  0  0  0  0  0
   56.6850   30.2540   52.5390 C   0  0  0  0  0  0  0  0  0  0  0  0
   57.2480   31.2860   53.5300 C   0  0  0  0  0  0  0  0  0  0  0  0
   55.1570   30.4480   52.4750 C   0  0  0  0  0  0  0  0  0  0  0  0
   57.6070   31.8400   50.9250 C   0  0  0  0  0  0  0  0  0  0  0  0
   58.1580   31.9870   49.5040 C   0  0  0  0  0  0  0  0  0  0  0  0
   61.1033   31.9848   52.8327 H   0  0  0  0  0  0  0  0  0  0  0  0
   61.9229   31.0697   51.3764 H   0  0  0  0  0  0  0  0  0  0  0  0
   61.4909   34.0971   51.7419 H   0  0  0  0  0  0  0  0  0  0  0  0
   64.4632   32.9039   50.7487 H   0  0  0  0  0  0  0  0  0  0  0  0
   65.6047   32.9787   48.5406 H   0  0  0  0  0  0  0  0  0  0  0  0
   64.2706   33.2692   46.4511 H   0  0  0  0  0  0  0  0  0  0  0  0
   61.8009   33.5768   46.5821 H   0  0  0  0  0  0  0  0  0  0  0  0
   58.9434   35.6072   46.4297 H   0  0  0  0  0  0  0  0  0  0  0  0
   57.9383   34.7277   44.3309 H   0  0  0  0  0  0  0  0  0  0  0  0
   57.3626   32.8902   42.8643 H   0  0  0  0  0  0  0  0  0  0  0  0
   57.7538   30.4162   42.4987 H   0  0  0  0  0  0  0  0  0  0  0  0
   60.2850   27.7809   46.5007 H   0  0  0  0  0  0  0  0  0  0  0  0
   59.1577   26.1497   48.0263 H   0  0  0  0  0  0  0  0  0  0  0  0
   56.7195   25.6866   47.7409 H   0  0  0  0  0  0  0  0  0  0  0  0
   58.5260   30.6662   45.7429 H   0  0  0  0  0  0  0  0  0  0  0  0
   60.1690   31.6710   49.9780 H   0  0  0  0  0  0  0  0  0  0  0  0
   58.5463   29.3528   49.0170 H   0  0  0  0  0  0  0  0  0  0  0  0
   60.2252   29.3174   49.6844 H   0  0  0  0  0  0  0  0  0  0  0  0
   58.5416   28.6331   51.3811 H   0  0  0  0  0  0  0  0  0  0  0  0
   59.4016   30.1425   51.8501 H   0  0  0  0  0  0  0  0  0  0  0  0
   56.8569   29.2135   52.8518 H   0  0  0  0  0  0  0  0  0  0  0  0
   57.0621   30.9453   54.5593 H   0  0  0  0  0  0  0  0  0  0  0  0
   58.3308   31.3954   53.3699 H   0  0  0  0  0  0  0  0  0  0  0  0
   56.7539   32.2556   53.3699 H   0  0  0  0  0  0  0  0  0  0  0  0
   54.7509   30.4996   53.4960 H   0  0  0  0  0  0  0  0  0  0  0  0
   54.9280   31.3824   51.9417 H   0  0  0  0  0  0  0  0  0  0  0  0
   54.7018   29.6004   51.9417 H   0  0  0  0  0  0  0  0  0  0  0  0
   56.6491   32.3752   51.0024 H   0  0  0  0  0  0  0  0  0  0  0  0
   58.3276   32.2644   51.6396 H   0  0  0  0  0  0  0  0  0  0  0  0
   57.4215   31.5914   48.7891 H   0  0  0  0  0  0  0  0  0  0  0  0
   58.3480   33.0527   49.3085 H   0  0  0  0  0  0  0  0  0  0  0  0
  1  2  2  0
  2  3  1  0
  3  4  2  0
  4  5  1  0
  5  6  2  0
  6  7  1  0
  7  8  2  0
  8  9  1  0
  9 10  1  0
 10 11  2  0
 11 12  1  0
 12 13  2  0
 13 14  1  0
 14 15  2  3
 15 16  1  0
 16 17  2  0
 16 18  1  0
 18 19  2  3
 19 20  1  0
 20 21  1  0
 21 22  2  0
 22 23  1  0
 23 24  2  0
 24 25  1  0
 13 26  1  0
 26 27  2  0
 27 28  1  0
 28 29  2  0
 28 30  1  0
 30 31  1  0
 31 32  1  0
 32 33  1  0
 33 34  1  0
 34 35  1  0
 34 36  1  0
 33 37  1  0
 37 38  1  0
  8  3  1  0
 27 10  1  0
 38 30  1  0
 24 19  1  0
  1 39  1  0
  1 40  1  0
  2 41  1  0
  4 42  1  0
  5 43  1  0
  6 44  1  0
  7 45  1  0
 11 46  1  0
 12 47  1  0
 14 48  1  0
 15 49  1  0
 21 50  1  0
 22 51  1  0
 23 52  1  0
 26 53  1  0
 30 54  1  0
 31 55  1  0
 31 56  1  0
 32 57  1  0
 32 58  1  0
 34 59  1  0
 35 60  1  0
 35 61  1  0
 35 62  1  0
 36 63  1  0
 36 64  1  0
 36 65  1  0
 37 66  1  0
 37 67  1  0
 38 68  1  0
 38 69  1  0
M  CHG  3  20  -1  25  -1  30   1
M  END
>  <UniqueID>  (9) 
8

>  <SMILES>  (9) 
C=Cc1ccccc1Sc1ccc(C=CC(=O)N=c2[n-]cccc2[O-])cc1C(=O)[NH+]1CCN(C(C)C)CC1

>  <Energy>  (9) 
118.87957903972494

>  <Genealogy>  (9) 
C=Cc1ccccc1Sc1ccc(C=CC(=O)N=c2[n-]cccc2[O-])cc1C(=O)[NH+]1CCN(C(C)C)CC1 (protonated)
C=Cc1ccccc1Sc1ccc(C=CC(=O)N=c2[n-]cccc2[O-])cc1C(=O)[NH+]1CCN(C(C)C)CC1 (3D coordinates assigned)
C=Cc1ccccc1Sc1ccc(C=CC(=O)N=c2[n-]cccc2[O-])cc1C(=O)[NH+]1CCN(C(C)C)CC1 (nonaromatic ring conformer: 118.87957903972494 kcal/mol)

>  <smiles>  (9) 
C=Cc1ccccc1Sc1ccc(C=CC(=O)N=c2[nH]cccc2O)cc1C(=O)N1CCN(C(C)C)CC1

>  <score_type>  (9) 
oracle

>  <origin>  (9) 
adg

>  <m_score__min__energy>  (9) 
-15.289999999999999

>  <m_primary>  (9) 
energy

$$$$
9:0
     RDKit          3D

 72 76  0  0  0  0  0  0  0  0999 V2000
   58.2960   28.1440   47.5240 C   0  0  0  0  0  0  0  0  0  0  0  0
   58.1650   27.3650   46.2460 C   0  0  0  0  0  0  0  0  0  0  0  0
   58.2640   27.8620   44.9510 C   0  0  0  0  0  0  0  0  0  0  0  0
   58.4220   29.2140   44.5080 N   0  0  0  0  0  0  0  0  0  0  0  0
   57.5510   30.3060   44.8290 C   0  0  0  0  0  0  0  0  0  0  0  0
   56.3150   30.0870   44.8910 O   0  0  0  0  0  0  0  0  0  0  0  0
   58.0670   31.6660   45.1240 C   0  0  0  0  0  0  0  0  0  0  0  0
   57.3850   32.7950   44.6360 C   0  0  0  0  0  0  0  0  0  0  0  0
   57.8420   34.0820   44.9330 C   0  0  0  0  0  0  0  0  0  0  0  0
   58.9700   34.2570   45.7370 C   0  0  0  0  0  0  0  0  0  0  0  0
   59.6550   33.1450   46.2400 C   0  0  0  0  0  0  0  0  0  0  0  0
   61.0510   33.3560   47.2960 S   0  0  0  0  0  0  0  0  0  0  0  0
   60.8590   34.5900   48.1310 O   0  0  0  0  0  0  0  0  0  0  0  0
   62.2920   33.5330   46.4690 O   0  0  0  0  0  0  0  0  0  0  0  0
   61.2460   31.9960   48.3560 N   0  0  0  0  0  0  0  0  0  0  0  0
   60.1720   31.5190   49.1640 C   0  0  0  0  0  0  0  0  0  0  0  0
   60.1050   30.1700   49.5360 C   0  0  0  0  0  0  0  0  0  0  0  0
   59.1110   29.7330   50.4130 C   0  0  0  0  0  0  0  0  0  0  0  0
   58.1520   30.6360   50.9010 C   0  0  0  0  0  0  0  0  0  0  0  0
   57.1390   30.1820   51.8720 C   0  0  0  0  0  0  0  0  0  0  0  0
   55.9210   30.4230   51.6560 O   0  0  0  0  0  0  0  0  0  0  0  0
   57.5310   29.4840   53.0690 N   0  0  0  0  0  0  0  0  0  0  0  0
   58.7190   29.9280   53.8090 C   0  0  0  0  0  0  0  0  0  0  0  0
   58.8030   29.2390   55.1760 C   0  0  0  0  0  0  0  0  0  0  0  0
   58.6290   27.7730   55.0740 N   0  0  0  0  0  0  0  0  0  0  0  0
   59.8720   27.1100   54.6410 C   0  0  0  0  0  0  0  0  0  0  0  0
   57.4630   27.3370   54.2550 C   0  0  0  0  0  0  0  0  0  0  0  0
   56.6360   28.4960   53.6720 C   0  0  0  0  0  0  0  0  0  0  0  0
   58.1710   31.9680   50.4600 C   0  0  0  0  0  0  0  0  0  0  0  0
   59.1820   32.4080   49.5980 C   0  0  0  0  0  0  0  0  0  0  0  0
   59.2080   31.8550   45.9230 C   0  0  0  0  0  0  0  0  0  0  0  0
   58.1190   26.7650   44.1350 C   0  0  0  0  0  0  0  0  0  0  0  0
   58.1330   26.7800   42.8750 O   0  0  0  0  0  0  0  0  0  0  0  0
   57.9060   25.6670   44.8870 N   0  0  0  0  0  0  0  0  0  0  0  0
   57.6390   24.3470   44.3810 C   0  0  0  0  0  0  0  0  0  0  0  0
   58.4330   23.2580   44.7770 C   0  0  0  0  0  0  0  0  0  0  0  0
   58.1600   21.9740   44.2970 C   0  0  0  0  0  0  0  0  0  0  0  0
   57.0800   21.7650   43.4340 C   0  0  0  0  0  0  0  0  0  0  0  0
   56.2780   22.8420   43.0440 C   0  0  0  0  0  0  0  0  0  0  0  0
   56.5560   24.1300   43.5130 C   0  0  0  0  0  0  0  0  0  0  0  0
   57.9440   26.0260   46.1720 N   0  0  0  0  0  0  0  0  0  0  0  0
   57.7400   25.1210   47.3080 C   0  0  0  0  0  0  0  0  0  0  0  0
   58.1817   27.4642   48.3812 H   0  0  0  0  0  0  0  0  0  0  0  0
   59.2868   28.6201   47.5633 H   0  0  0  0  0  0  0  0  0  0  0  0
   57.5154   28.9180   47.5633 H   0  0  0  0  0  0  0  0  0  0  0  0
   56.4857   32.6642   44.0163 H   0  0  0  0  0  0  0  0  0  0  0  0
   57.3120   34.9587   44.5325 H   0  0  0  0  0  0  0  0  0  0  0  0
   59.3213   35.2717   45.9758 H   0  0  0  0  0  0  0  0  0  0  0  0
   60.8375   29.4535   49.1360 H   0  0  0  0  0  0  0  0  0  0  0  0
   59.0785   28.6781   50.7230 H   0  0  0  0  0  0  0  0  0  0  0  0
   59.6188   29.6820   53.2261 H   0  0  0  0  0  0  0  0  0  0  0  0
   58.6480   31.0142   53.9674 H   0  0  0  0  0  0  0  0  0  0  0  0
   59.7878   29.4490   55.6188 H   0  0  0  0  0  0  0  0  0  0  0  0
   57.9900   29.6330   55.8036 H   0  0  0  0  0  0  0  0  0  0  0  0
   60.4501   26.8017   55.5246 H   0  0  0  0  0  0  0  0  0  0  0  0
   59.6241   26.2243   54.0376 H   0  0  0  0  0  0  0  0  0  0  0  0
   60.4695   27.8092   54.0376 H   0  0  0  0  0  0  0  0  0  0  0  0
   57.8365   26.7253   53.4206 H   0  0  0  0  0  0  0  0  0  0  0  0
   56.7953   26.7775   54.9266 H   0  0  0  0  0  0  0  0  0  0  0  0
   55.9506   28.1067   52.9048 H   0  0  0  0  0  0  0  0  0  0  0  0
   56.0565   28.9718   54.4769 H   0  0  0  0  0  0  0  0  0  0  0  0
   57.3899   32.6676   50.7924 H   0  0  0  0  0  0  0  0  0  0  0  0
   59.1985   33.4549   49.2608 H   0  0  0  0  0  0  0  0  0  0  0  0
   59.7562   30.9806   46.3037 H   0  0  0  0  0  0  0  0  0  0  0  0
   59.2738   23.4165   45.4683 H   0  0  0  0  0  0  0  0  0  0  0  0
   58.7949   21.1278   44.5983 H   0  0  0  0  0  0  0  0  0  0  0  0
   56.8612   20.7533   43.0618 H   0  0  0  0  0  0  0  0  0  0  0  0
   55.4269   22.6760   42.3671 H   0  0  0  0  0  0  0  0  0  0  0  0
   55.9249   24.9753   43.2013 H   0  0  0  0  0  0  0  0  0  0  0  0
   57.8656   25.6784   48.2480 H   0  0  0  0  0  0  0  0  0  0  0  0
   56.7245   24.7004   47.2640 H   0  0  0  0  0  0  0  0  0  0  0  0
   58.4768   24.3054   47.2640 H   0  0  0  0  0  0  0  0  0  0  0  0
  1  2  1  0
  2  3  2  0
  3  4  1  0
  4  5  1  0
  5  6  2  0
  5  7  1  0
  7  8  2  0
  8  9  1  0
  9 10  2  0
 10 11  1  0
 11 12  1  0
 12 13  2  0
 12 14  2  0
 12 15  1  0
 15 16  1  0
 16 17  2  0
 17 18  1  0
 18 19  2  0
 19 20  1  0
 20 21  2  0
 20 22  1  0
 22 23  1  0
 23 24  1  0
 24 25  1  0
 25 26  1  0
 25 27  1  0
 27 28  1  0
 19 29  1  0
 29 30  2  0
 11 31  2  0
  3 32  1  0
 32 33  2  0
 32 34  1  0
 34 35  1  0
 35 36  2  0
 36 37  1  0
 37 38  2  0
 38 39  1  0
 39 40  2  0
 34 41  1  0
 41 42  1  0
 41  2  1  0
 31  7  1  0
 40 35  1  0
 30 16  1  0
 28 22  1  0
  1 43  1  0
  1 44  1  0
  1 45  1  0
  8 46  1  0
  9 47  1  0
 10 48  1  0
 17 49  1  0
 18 50  1  0
 23 51  1  0
 23 52  1  0
 24 53  1  0
 24 54  1  0
 26 55  1  0
 26 56  1  0
 26 57  1  0
 27 58  1  0
 27 59  1  0
 28 60  1  0
 28 61  1  0
 29 62  1  0
 30 63  1  0
 31 64  1  0
 36 65  1  0
 37 66  1  0
 38 67  1  0
 39 68  1  0
 40 69  1  0
 42 70  1  0
 42 71  1  0
 42 72  1  0
M  CHG  2   4  -1  15  -1
M  END
>  <UniqueID>  (10) 
9

>  <SMILES>  (10) 
Cc1c([N-]C(=O)c2cccc(S(=O)(=O)[N-]c3ccc(C(=O)N4CCN(C)CC4)cc3)c2)c(=O)n(-c2ccccc2)n1C

>  <Energy>  (10) 
142.6461872345724

>  <Genealogy>  (10) 
Cc1c([N-]C(=O)c2cccc(S(=O)(=O)[N-]c3ccc(C(=O)N4CCN(C)CC4)cc3)c2)c(=O)n(-c2ccccc2)n1C (protonated)
Cc1c([N-]C(=O)c2cccc(S(=O)(=O)[N-]c3ccc(C(=O)N4CCN(C)CC4)cc3)c2)c(=O)n(-c2ccccc2)n1C (3D coordinates assigned)
Cc1c([N-]C(=O)c2cccc(S(=O)(=O)[N-]c3ccc(C(=O)N4CCN(C)CC4)cc3)c2)c(=O)n(-c2ccccc2)n1C (nonaromatic ring conformer: 142.6461872345724 kcal/mol)

>  <smiles>  (10) 
Cc1c(NC(=O)c2cccc(S(=O)(=O)Nc3ccc(C(=O)N4CCN(C)CC4)cc3)c2)c(=O)n(-c2ccccc2)n1C

>  <score_type>  (10) 
oracle

>  <origin>  (10) 
adg

>  <m_score__min__energy>  (10) 
-12.970000000000001

>  <m_primary>  (10) 
energy

$$$$
10:0
     RDKit          3D

 59 63  0  0  0  0  0  0  0  0999 V2000
   57.5440   32.6370   42.8210 O   0  0  0  0  0  0  0  0  0  0  0  0
   57.9100   32.6130   44.0240 C   0  0  0  0  0  0  0  0  0  0  0  0
   57.3670   33.5910   44.9990 C   0  0  0  0  0  0  0  0  0  0  0  0
   57.2900   33.4090   46.3280 C   0  0  0  0  0  0  0  0  0  0  0  0
   58.4430   33.1710   47.2080 C   0  0  0  0  0  0  0  0  0  0  0  0
   58.2390   32.6190   48.4760 C   0  0  0  0  0  0  0  0  0  0  0  0
   59.3180   32.4060   49.3340 C   0  0  0  0  0  0  0  0  0  0  0  0
   60.6250   32.7220   48.9240 C   0  0  0  0  0  0  0  0  0  0  0  0
   60.8430   33.2230   47.6260 C   0  0  0  0  0  0  0  0  0  0  0  0
   59.7490   33.4480   46.7740 C   0  0  0  0  0  0  0  0  0  0  0  0
   62.2290   33.4710   47.1730 C   0  0  0  0  0  0  0  0  0  0  0  0
   62.4680   33.7990   45.9780 O   0  0  0  0  0  0  0  0  0  0  0  0
   63.3400   33.3330   48.1270 C   0  0  0  0  0  0  0  0  0  0  0  0
   64.5300   33.4480   47.7280 O   0  0  0  0  0  0  0  0  0  0  0  0
   63.0430   33.1620   49.5920 C   0  0  2  0  0  0  0  0  0  0  0  0
   64.0430   32.2580   50.3160 C   0  0  0  0  0  0  0  0  0  0  0  0
   63.2190   31.5400   51.3850 C   0  0  0  0  0  0  0  0  0  0  0  0
   61.7880   31.5300   50.8600 C   0  0  0  0  0  0  0  0  0  0  0  0
   61.7480   32.5320   49.8050 N   0  0  0  0  0  0  0  0  0  0  0  0
   58.7790   31.5530   44.4440 N   0  0  0  0  0  0  0  0  0  0  0  0
   58.3900   30.2430   44.8790 C   0  0  0  0  0  0  0  0  0  0  0  0
   57.0600   29.8450   44.6990 C   0  0  0  0  0  0  0  0  0  0  0  0
   56.6410   28.5710   45.0990 C   0  0  0  0  0  0  0  0  0  0  0  0
   57.5540   27.6780   45.6750 C   0  0  0  0  0  0  0  0  0  0  0  0
   57.0010   26.0790   46.1720 S   0  0  0  0  0  0  0  0  0  0  0  0
   57.3480   25.8350   47.6160 O   0  0  0  0  0  0  0  0  0  0  0  0
   55.5040   26.0400   46.0270 O   0  0  0  0  0  0  0  0  0  0  0  0
   57.7230   24.8550   45.1500 N   0  0  0  0  0  0  0  0  0  0  0  0
   57.6900   23.5240   45.7880 C   0  0  0  0  0  0  0  0  0  0  0  0
   56.2790   22.8820   45.7420 C   0  0  0  0  0  0  0  0  0  0  0  0
   55.4330   23.4280   44.7400 O   0  0  0  0  0  0  0  0  0  0  0  0
   56.1650   23.6800   43.5630 C   0  0  0  0  0  0  0  0  0  0  0  0
   57.1360   24.8520   43.7900 C   0  0  0  0  0  0  0  0  0  0  0  0
   58.8990   28.0600   45.8200 C   0  0  0  0  0  0  0  0  0  0  0  0
   59.3180   29.3340   45.4150 C   0  0  0  0  0  0  0  0  0  0  0  0
   56.9959   34.5464   44.5997 H   0  0  0  0  0  0  0  0  0  0  0  0
   56.2925   33.4404   46.7907 H   0  0  0  0  0  0  0  0  0  0  0  0
   57.2221   32.3512   48.7989 H   0  0  0  0  0  0  0  0  0  0  0  0
   59.1452   31.9885   50.3369 H   0  0  0  0  0  0  0  0  0  0  0  0
   59.9166   33.8434   45.7613 H   0  0  0  0  0  0  0  0  0  0  0  0
   63.0865   34.1863   49.9908 H   0  0  0  0  0  0  0  0  0  0  0  0
   64.4865   31.5334   49.6173 H   0  0  0  0  0  0  0  0  0  0  0  0
   64.8787   32.8272   50.7492 H   0  0  0  0  0  0  0  0  0  0  0  0
   63.5840   30.5118   51.5251 H   0  0  0  0  0  0  0  0  0  0  0  0
   63.2914   32.0423   52.3609 H   0  0  0  0  0  0  0  0  0  0  0  0
   61.5344   30.5384   50.4569 H   0  0  0  0  0  0  0  0  0  0  0  0
   61.0620   31.7502   51.6565 H   0  0  0  0  0  0  0  0  0  0  0  0
   56.3396   30.5381   44.2402 H   0  0  0  0  0  0  0  0  0  0  0  0
   55.5921   28.2700   44.9608 H   0  0  0  0  0  0  0  0  0  0  0  0
   58.3962   22.8632   45.2638 H   0  0  0  0  0  0  0  0  0  0  0  0
   57.9666   23.6514   46.8450 H   0  0  0  0  0  0  0  0  0  0  0  0
   56.3941   21.8051   45.5496 H   0  0  0  0  0  0  0  0  0  0  0  0
   55.8016   23.0879   46.7114 H   0  0  0  0  0  0  0  0  0  0  0  0
   56.7365   22.7808   43.2895 H   0  0  0  0  0  0  0  0  0  0  0  0
   55.4683   23.9392   42.7521 H   0  0  0  0  0  0  0  0  0  0  0  0
   57.9515   24.7803   43.0552 H   0  0  0  0  0  0  0  0  0  0  0  0
   56.5635   25.7841   43.6740 H   0  0  0  0  0  0  0  0  0  0  0  0
   59.6250   27.3562   46.2530 H   0  0  0  0  0  0  0  0  0  0  0  0
   60.3745   29.6231   45.5167 H   0  0  0  0  0  0  0  0  0  0  0  0
  1  2  2  0
  2  3  1  0
  3  4  2  3
  4  5  1  0
  5  6  2  0
  6  7  1  0
  7  8  2  0
  8  9  1  0
  9 10  2  0
  9 11  1  0
 11 12  2  0
 11 13  1  0
 13 14  2  0
 13 15  1  0
 15 16  1  0
 16 17  1  0
 17 18  1  0
 18 19  1  0
  2 20  1  0
 20 21  1  0
 21 22  2  0
 22 23  1  0
 23 24  2  0
 24 25  1  0
 25 26  2  0
 25 27  2  0
 25 28  1  0
 28 29  1  0
 29 30  1  0
 30 31  1  0
 31 32  1  0
 32 33  1  0
 24 34  1  0
 34 35  2  0
 10  5  1  0
 19 15  1  0
 35 21  1  0
 19  8  1  0
 33 28  1  0
  3 36  1  0
  4 37  1  0
  6 38  1  0
  7 39  1  0
 10 40  1  0
 15 41  1  1
 16 42  1  0
 16 43  1  0
 17 44  1  0
 17 45  1  0
 18 46  1  0
 18 47  1  0
 22 48  1  0
 23 49  1  0
 29 50  1  0
 29 51  1  0
 30 52  1  0
 30 53  1  0
 32 54  1  0
 32 55  1  0
 33 56  1  0
 33 57  1  0
 34 58  1  0
 35 59  1  0
M  CHG  1  20  -1
M  END
>  <UniqueID>  (11) 
10

>  <SMILES>  (11) 
O=C(C=Cc1ccc2c(c1)C(=O)C(=O)[C@@H]1CCCN21)[N-]c1ccc(S(=O)(=O)N2CCOCC2)cc1

>  <Energy>  (11) 
92.72581731705273

>  <Genealogy>  (11) 
O=C(C=Cc1ccc2c(c1)C(=O)C(=O)C1CCCN21)[N-]c1ccc(S(=O)(=O)N2CCOCC2)cc1 (protonated)
O=C(C=Cc1ccc2c(c1)C(=O)C(=O)[C@@H]1CCCN21)[N-]c1ccc(S(=O)(=O)N2CCOCC2)cc1 (chirality)
O=C(C=Cc1ccc2c(c1)C(=O)C(=O)[C@@H]1CCCN21)[N-]c1ccc(S(=O)(=O)N2CCOCC2)cc1 (3D coordinates assigned)
O=C(C=Cc1ccc2c(c1)C(=O)C(=O)[C@@H]1CCCN21)[N-]c1ccc(S(=O)(=O)N2CCOCC2)cc1 (nonaromatic ring conformer: 92.72581731705273 kcal/mol)

>  <smiles>  (11) 
O=C(C=Cc1ccc2c(c1)C(=O)C(=O)C1CCCN21)Nc1ccc(S(=O)(=O)N2CCOCC2)cc1

>  <score_type>  (11) 
oracle

>  <origin>  (11) 
adg

>  <m_score__min__energy>  (11) 
-11.93

>  <m_primary>  (11) 
energy

$$$$
11:0
     RDKit          3D

 61 64  0  0  0  0  0  0  0  0999 V2000
   55.4740   30.1570   44.7750 O   0  0  0  0  0  0  0  0  0  0  0  0
   56.5200   29.9270   44.1060 C   0  0  0  0  0  0  0  0  0  0  0  0
   57.1620   31.0410   43.3220 C   0  0  0  0  0  0  0  0  0  0  0  0
   57.6930   32.1220   44.2240 C   0  0  0  0  0  0  0  0  0  0  0  0
   57.4200   32.1020   45.6030 C   0  0  0  0  0  0  0  0  0  0  0  0
   57.9260   33.1030   46.4370 C   0  0  0  0  0  0  0  0  0  0  0  0
   58.7230   34.1270   45.9020 C   0  0  0  0  0  0  0  0  0  0  0  0
   59.2380   35.1290   46.7210 O   0  0  0  0  0  0  0  0  0  0  0  0
   59.0050   34.1440   44.5330 C   0  0  0  0  0  0  0  0  0  0  0  0
   58.4940   33.1460   43.6970 C   0  0  0  0  0  0  0  0  0  0  0  0
   57.0300   28.5880   44.0660 N   0  0  0  0  0  0  0  0  0  0  0  0
   57.5270   27.8580   45.2240 C   0  0  0  0  0  0  0  0  0  0  0  0
   58.5840   28.6690   45.9140 C   0  0  0  0  0  0  0  0  0  0  0  0
   59.7930   28.9610   45.2620 C   0  0  0  0  0  0  0  0  0  0  0  0
   60.7770   29.7190   45.9040 C   0  0  0  0  0  0  0  0  0  0  0  0
   60.5570   30.2060   47.2040 C   0  0  0  0  0  0  0  0  0  0  0  0
   61.6120   31.0170   47.9080 C   0  0  0  0  0  0  0  0  0  0  0  0
   61.0080   31.8340   48.9770 N   0  0  0  0  0  0  0  0  0  0  0  0
   61.8350   31.7640   50.2040 C   0  0  0  0  0  0  0  0  0  0  0  0
   61.3700   32.7410   51.3230 C   0  0  0  0  0  0  0  0  0  0  0  0
   60.1910   33.5330   50.9440 N   0  0  0  0  0  0  0  0  0  0  0  0
   59.2380   33.9860   51.9600 C   0  0  0  0  0  0  0  0  0  0  0  0
   58.5500   32.8130   52.6030 C   0  0  0  0  0  0  0  0  0  0  0  0
   58.5200   32.6940   54.0070 C   0  0  0  0  0  0  0  0  0  0  0  0
   57.8680   31.6150   54.6090 C   0  0  0  0  0  0  0  0  0  0  0  0
   57.2430   30.6460   53.8170 C   0  0  0  0  0  0  0  0  0  0  0  0
   57.2690   30.7540   52.4210 C   0  0  0  0  0  0  0  0  0  0  0  0
   56.6510   29.7870   51.6350 O   0  0  0  0  0  0  0  0  0  0  0  0
   57.9190   31.8350   51.8150 C   0  0  0  0  0  0  0  0  0  0  0  0
   60.0560   33.9470   49.5780 C   0  0  0  0  0  0  0  0  0  0  0  0
   59.2910   34.8950   49.2570 O   0  0  0  0  0  0  0  0  0  0  0  0
   60.8440   33.2310   48.5400 C   0  0  0  0  0  0  0  0  0  0  0  0
   59.3420   29.9320   47.8450 C   0  0  0  0  0  0  0  0  0  0  0  0
   58.3600   29.1740   47.2020 C   0  0  0  0  0  0  0  0  0  0  0  0
   57.9937   30.6284   42.7321 H   0  0  0  0  0  0  0  0  0  0  0  0
   56.3971   31.4851   42.6680 H   0  0  0  0  0  0  0  0  0  0  0  0
   56.8052   31.2947   46.0276 H   0  0  0  0  0  0  0  0  0  0  0  0
   57.6995   33.0883   47.5133 H   0  0  0  0  0  0  0  0  0  0  0  0
   58.9240   35.2460   47.6780 H   0  0  0  0  0  0  0  0  0  0  0  0
   59.6307   34.9447   44.1120 H   0  0  0  0  0  0  0  0  0  0  0  0
   58.7213   33.1641   42.6209 H   0  0  0  0  0  0  0  0  0  0  0  0
   56.6975   27.6686   45.9211 H   0  0  0  0  0  0  0  0  0  0  0  0
   57.9574   26.9005   44.8953 H   0  0  0  0  0  0  0  0  0  0  0  0
   59.9668   28.5914   44.2406 H   0  0  0  0  0  0  0  0  0  0  0  0
   61.7256   29.9347   45.3905 H   0  0  0  0  0  0  0  0  0  0  0  0
   62.3567   30.3377   48.3485 H   0  0  0  0  0  0  0  0  0  0  0  0
   62.0928   31.6852   47.1783 H   0  0  0  0  0  0  0  0  0  0  0  0
   61.7889   30.7376   50.5968 H   0  0  0  0  0  0  0  0  0  0  0  0
   62.8570   32.0576   49.9224 H   0  0  0  0  0  0  0  0  0  0  0  0
   61.1237   32.1540   52.2201 H   0  0  0  0  0  0  0  0  0  0  0  0
   62.1940   33.4464   51.5056 H   0  0  0  0  0  0  0  0  0  0  0  0
   59.7762   34.5564   52.7313 H   0  0  0  0  0  0  0  0  0  0  0  0
   58.4798   34.6197   51.4767 H   0  0  0  0  0  0  0  0  0  0  0  0
   59.0121   33.4541   54.6316 H   0  0  0  0  0  0  0  0  0  0  0  0
   57.8461   31.5274   55.7053 H   0  0  0  0  0  0  0  0  0  0  0  0
   56.7297   29.7969   54.2920 H   0  0  0  0  0  0  0  0  0  0  0  0
   57.9362   31.9196   50.7184 H   0  0  0  0  0  0  0  0  0  0  0  0
   60.3100   33.2613   47.5788 H   0  0  0  0  0  0  0  0  0  0  0  0
   61.8263   33.7084   48.4086 H   0  0  0  0  0  0  0  0  0  0  0  0
   59.1600   30.3155   48.8598 H   0  0  0  0  0  0  0  0  0  0  0  0
   57.4053   28.9724   47.7098 H   0  0  0  0  0  0  0  0  0  0  0  0
  1  2  2  0
  2  3  1  0
  3  4  1  0
  4  5  2  0
  5  6  1  0
  6  7  2  0
  7  8  1  0
  7  9  1  0
  9 10  2  0
  2 11  1  0
 11 12  1  0
 12 13  1  0
 13 14  2  0
 14 15  1  0
 15 16  2  0
 16 17  1  0
 17 18  1  0
 18 19  1  0
 19 20  1  0
 20 21  1  0
 21 22  1  0
 22 23  1  0
 23 24  2  0
 24 25  1  0
 25 26  2  0
 26 27  1  0
 27 28  1  0
 27 29  2  0
 21 30  1  0
 30 31  2  0
 30 32  1  0
 16 33  1  0
 33 34  2  0
 10  4  1  0
 34 13  1  0
 32 18  1  0
 29 23  1  0
  3 35  1  0
  3 36  1  0
  5 37  1  0
  6 38  1  0
  8 39  1  0
  9 40  1  0
 10 41  1  0
 12 42  1  0
 12 43  1  0
 14 44  1  0
 15 45  1  0
 17 46  1  0
 17 47  1  0
 19 48  1  0
 19 49  1  0
 20 50  1  0
 20 51  1  0
 22 52  1  0
 22 53  1  0
 24 54  1  0
 25 55  1  0
 26 56  1  0
 29 57  1  0
 32 58  1  0
 32 59  1  0
 33 60  1  0
 34 61  1  0
M  CHG  2  11  -1  28  -1
M  END
>  <UniqueID>  (12) 
11

>  <SMILES>  (12) 
O=C(Cc1ccc(O)cc1)[N-]Cc1ccc(CN2CCN(Cc3cccc([O-])c3)C(=O)C2)cc1

>  <Energy>  (12) 
66.66695344157715

>  <Genealogy>  (12) 
O=C(Cc1ccc(O)cc1)[N-]Cc1ccc(CN2CCN(Cc3cccc([O-])c3)C(=O)C2)cc1 (protonated)
O=C(Cc1ccc(O)cc1)[N-]Cc1ccc(CN2CCN(Cc3cccc([O-])c3)C(=O)C2)cc1 (3D coordinates assigned)
O=C(Cc1ccc(O)cc1)[N-]Cc1ccc(CN2CCN(Cc3cccc([O-])c3)C(=O)C2)cc1 (nonaromatic ring conformer: 66.66695344157715 kcal/mol)

>  <smiles>  (12) 
O=C(Cc1ccc(O)cc1)NCc1ccc(CN2CCN(Cc3cccc(O)c3)C(=O)C2)cc1

>  <score_type>  (12) 
oracle

>  <origin>  (12) 
adg

>  <m_score__min__energy>  (12) 
-14.630000000000001

>  <m_primary>  (12) 
energy

$$$$
12:0
     RDKit          3D

 68 70  0  0  0  0  0  0  0  0999 V2000
   56.3290   27.0380   45.9560 C   0  0  0  0  0  0  0  0  0  0  0  0
   57.7750   27.4290   46.0350 C   0  0  0  0  0  0  0  0  0  0  0  0
   58.5420   26.8710   47.0070 N   0  0  0  0  0  0  0  0  0  0  0  0
   59.8660   27.1520   47.1200 C   0  0  0  0  0  0  0  0  0  0  0  0
   60.6870   26.4920   48.1850 C   0  0  0  0  0  0  0  0  0  0  0  0
   60.7170   27.3380   49.4310 C   0  0  0  0  0  0  0  0  0  0  0  0
   61.0650   26.7630   50.6650 C   0  0  0  0  0  0  0  0  0  0  0  0
   61.0630   27.5360   51.8270 C   0  0  0  0  0  0  0  0  0  0  0  0
   60.7340   28.8920   51.7660 C   0  0  0  0  0  0  0  0  0  0  0  0
   60.4140   29.4940   50.5380 C   0  0  0  0  0  0  0  0  0  0  0  0
   60.1090   30.8990   50.5020 N   0  0  0  0  0  0  0  0  0  0  0  0
   58.4950   31.5360   50.5960 S   0  0  0  0  0  0  0  0  0  0  0  0
   58.3690   32.7180   51.9230 C   0  0  0  0  0  0  0  0  0  0  0  0
   57.5410   30.4080   50.8770 O   0  0  0  0  0  0  0  0  0  0  0  0
   58.1210   32.1740   49.2870 O   0  0  0  0  0  0  0  0  0  0  0  0
   60.3830   28.7010   49.3750 C   0  0  0  0  0  0  0  0  0  0  0  0
   60.4510   28.0030   46.2410 N   0  0  0  0  0  0  0  0  0  0  0  0
   59.7380   28.5980   45.2530 C   0  0  0  0  0  0  0  0  0  0  0  0
   60.3270   29.3760   44.4550 O   0  0  0  0  0  0  0  0  0  0  0  0
   58.3590   28.3390   45.1220 C   0  0  0  0  0  0  0  0  0  0  0  0
   57.5600   28.9750   43.9980 C   0  0  0  0  0  0  0  0  0  0  0  0
   56.7330   30.1370   44.4920 C   0  0  0  0  0  0  0  0  0  0  0  0
   55.5440   30.2600   44.0840 O   0  0  0  0  0  0  0  0  0  0  0  0
   57.3220   31.1950   45.2690 N   0  0  0  0  0  0  0  0  0  0  0  0
   58.1430   30.9220   46.4530 C   0  0  0  0  0  0  0  0  0  0  0  0
   59.4330   31.7390   46.3770 C   0  0  0  0  0  0  0  0  0  0  0  0
   59.1610   33.1430   46.0340 N   0  0  0  0  0  0  0  0  0  0  0  0
   60.2450   34.0880   46.0850 C   0  0  0  0  0  0  0  0  0  0  0  0
   60.0160   35.3210   45.9480 O   0  0  0  0  0  0  0  0  0  0  0  0
   61.5550   33.6230   46.2980 O   0  0  0  0  0  0  0  0  0  0  0  0
   62.1420   33.2800   47.5630 C   0  0  0  0  0  0  0  0  0  0  0  0
   63.5290   33.9340   47.7090 C   0  0  0  0  0  0  0  0  0  0  0  0
   62.2430   31.7500   47.7200 C   0  0  0  0  0  0  0  0  0  0  0  0
   61.2140   33.8290   48.6560 C   0  0  0  0  0  0  0  0  0  0  0  0
   57.7800   33.5900   45.7850 C   0  0  0  0  0  0  0  0  0  0  0  0
   57.0380   32.5870   44.8890 C   0  0  0  0  0  0  0  0  0  0  0  0
   55.9228   26.9282   46.9723 H   0  0  0  0  0  0  0  0  0  0  0  0
   55.7675   27.8166   45.4189 H   0  0  0  0  0  0  0  0  0  0  0  0
   56.2363   26.0825   45.4189 H   0  0  0  0  0  0  0  0  0  0  0  0
   60.2488   25.5117   48.4239 H   0  0  0  0  0  0  0  0  0  0  0  0
   61.7155   26.3687   47.8149 H   0  0  0  0  0  0  0  0  0  0  0  0
   61.3401   25.6992   50.7154 H   0  0  0  0  0  0  0  0  0  0  0  0
   61.3210   27.0765   52.7926 H   0  0  0  0  0  0  0  0  0  0  0  0
   60.7254   29.4933   52.6871 H   0  0  0  0  0  0  0  0  0  0  0  0
   60.8610   31.5730   50.2390 H   0  0  0  0  0  0  0  0  0  0  0  0
   58.4249   32.1931   52.8881 H   0  0  0  0  0  0  0  0  0  0  0  0
   59.1952   33.4405   51.8501 H   0  0  0  0  0  0  0  0  0  0  0  0
   57.4090   33.2501   51.8501 H   0  0  0  0  0  0  0  0  0  0  0  0
   60.0947   29.1528   48.4144 H   0  0  0  0  0  0  0  0  0  0  0  0
   58.2552   29.3348   43.2252 H   0  0  0  0  0  0  0  0  0  0  0  0
   56.8768   28.2158   43.5895 H   0  0  0  0  0  0  0  0  0  0  0  0
   57.5848   31.2012   47.3588 H   0  0  0  0  0  0  0  0  0  0  0  0
   58.3888   29.8505   46.4900 H   0  0  0  0  0  0  0  0  0  0  0  0
   59.9386   31.7008   47.3532 H   0  0  0  0  0  0  0  0  0  0  0  0
   60.0693   31.3080   45.5900 H   0  0  0  0  0  0  0  0  0  0  0  0
   63.7702   34.0477   48.7762 H   0  0  0  0  0  0  0  0  0  0  0  0
   64.2867   33.2983   47.2275 H   0  0  0  0  0  0  0  0  0  0  0  0
   63.5206   34.9230   47.2275 H   0  0  0  0  0  0  0  0  0  0  0  0
   62.2601   31.4914   48.7890 H   0  0  0  0  0  0  0  0  0  0  0  0
   61.3743   31.2742   47.2415 H   0  0  0  0  0  0  0  0  0  0  0  0
   63.1667   31.3925   47.2415 H   0  0  0  0  0  0  0  0  0  0  0  0
   61.6278   33.5842   49.6454 H   0  0  0  0  0  0  0  0  0  0  0  0
   61.1320   34.9211   48.5529 H   0  0  0  0  0  0  0  0  0  0  0  0
   60.2174   33.3751   48.5529 H   0  0  0  0  0  0  0  0  0  0  0  0
   57.2501   33.6774   46.7450 H   0  0  0  0  0  0  0  0  0  0  0  0
   57.8101   34.5645   45.2756 H   0  0  0  0  0  0  0  0  0  0  0  0
   55.9561   32.7654   44.9762 H   0  0  0  0  0  0  0  0  0  0  0  0
   57.3831   32.7345   43.8550 H   0  0  0  0  0  0  0  0  0  0  0  0
  1  2  1  0
  2  3  1  0
  3  4  1  0
  4  5  1  0
  5  6  1  0
  6  7  2  0
  7  8  1  0
  8  9  2  0
  9 10  1  0
 10 11  1  0
 11 12  1  0
 12 13  1  0
 12 14  2  0
 12 15  2  0
 10 16  2  0
  4 17  2  0
 17 18  1  0
 18 19  2  0
 18 20  1  0
 20 21  1  0
 21 22  1  0
 22 23  2  0
 22 24  1  0
 24 25  1  0
 25 26  1  0
 26 27  1  0
 27 28  1  0
 28 29  2  0
 28 30  1  0
 30 31  1  0
 31 32  1  0
 31 33  1  0
 31 34  1  0
 27 35  1  0
 35 36  1  0
 20  2  2  0
 36 24  1  0
 16  6  1  0
  1 37  1  0
  1 38  1  0
  1 39  1  0
  5 40  1  0
  5 41  1  0
  7 42  1  0
  8 43  1  0
  9 44  1  0
 11 45  1  0
 13 46  1  0
 13 47  1  0
 13 48  1  0
 16 49  1  0
 21 50  1  0
 21 51  1  0
 25 52  1  0
 25 53  1  0
 26 54  1  0
 26 55  1  0
 32 56  1  0
 32 57  1  0
 32 58  1  0
 33 59  1  0
 33 60  1  0
 33 61  1  0
 34 62  1  0
 34 63  1  0
 34 64  1  0
 35 65  1  0
 35 66  1  0
 36 67  1  0
 36 68  1  0
M  CHG  1   3  -1
M  END
>  <UniqueID>  (13) 
12

>  <SMILES>  (13) 
Cc1[n-]c(Cc2cccc(NS(C)(=O)=O)c2)nc(=O)c1CC(=O)N1CCN(C(=O)OC(C)(C)C)CC1

>  <Energy>  (13) 
66.00511268307922

>  <Genealogy>  (13) 
Cc1[n-]c(Cc2cccc(NS(C)(=O)=O)c2)nc(=O)c1CC(=O)N1CCN(C(=O)OC(C)(C)C)CC1 (protonated)
Cc1[n-]c(Cc2cccc(NS(C)(=O)=O)c2)nc(=O)c1CC(=O)N1CCN(C(=O)OC(C)(C)C)CC1 (3D coordinates assigned)
Cc1[n-]c(Cc2cccc(NS(C)(=O)=O)c2)nc(=O)c1CC(=O)N1CCN(C(=O)OC(C)(C)C)CC1 (nonaromatic ring conformer: 66.00511268307922 kcal/mol)

>  <smiles>  (13) 
Cc1[nH]c(Cc2cccc(NS(C)(=O)=O)c2)nc(=O)c1CC(=O)N1CCN(C(=O)OC(C)(C)C)CC1

>  <score_type>  (13) 
oracle

>  <origin>  (13) 
adg

>  <m_score__min__energy>  (13) 
-10.960000000000001

>  <m_primary>  (13) 
energy

$$$$
13:0
     RDKit          3D

 63 66  0  0  0  0  0  0  0  0999 V2000
   60.6830   29.5730   47.9350 C   0  0  0  0  0  0  0  0  0  0  0  0
   60.5750   29.1860   49.3830 C   0  0  0  0  0  0  0  0  0  0  0  0
   61.1050   28.1450   49.7470 O   0  0  0  0  0  0  0  0  0  0  0  0
   59.8730   30.0280   50.3400 N   0  0  0  0  0  0  0  0  0  0  0  0
   58.5850   30.5380   49.7780 C   0  0  0  0  0  0  0  0  0  0  0  0
   58.5560   32.0600   49.5550 C   0  0  0  0  0  0  0  0  0  0  0  0
   59.8600   32.5310   49.0720 N   0  0  0  0  0  0  0  0  0  0  0  0
   59.9460   33.4710   47.9850 C   0  0  0  0  0  0  0  0  0  0  0  0
   60.7580   34.4350   48.0540 O   0  0  0  0  0  0  0  0  0  0  0  0
   59.1030   33.3190   46.7850 C   0  0  0  0  0  0  0  0  0  0  0  0
   58.1290   34.2770   46.4650 C   0  0  0  0  0  0  0  0  0  0  0  0
   57.2780   34.0800   45.3730 C   0  0  0  0  0  0  0  0  0  0  0  0
   57.4010   32.9300   44.5860 C   0  0  0  0  0  0  0  0  0  0  0  0
   58.3920   31.9860   44.8800 C   0  0  0  0  0  0  0  0  0  0  0  0
   58.5120   30.7890   44.1130 N   0  0  0  0  0  0  0  0  0  0  0  0
   57.2640   29.5940   44.1480 S   0  0  0  0  0  0  0  0  0  0  0  0
   56.8710   29.2540   42.7380 O   0  0  0  0  0  0  0  0  0  0  0  0
   56.0560   30.1260   44.8680 O   0  0  0  0  0  0  0  0  0  0  0  0
   57.8750   28.1550   44.9630 C   0  0  0  0  0  0  0  0  0  0  0  0
   59.2200   28.0650   45.3400 C   0  0  0  0  0  0  0  0  0  0  0  0
   59.6930   26.9180   45.9830 C   0  0  0  0  0  0  0  0  0  0  0  0
   58.8240   25.8560   46.2520 C   0  0  0  0  0  0  0  0  0  0  0  0
   57.4730   25.9380   45.8870 C   0  0  0  0  0  0  0  0  0  0  0  0
   56.5570   24.8120   46.1560 C   0  0  0  0  0  0  0  0  0  0  0  0
   55.9230   24.7790   47.2460 O   0  0  0  0  0  0  0  0  0  0  0  0
   56.3780   23.7600   45.1880 N   0  0  0  0  0  0  0  0  0  0  0  0
   56.1530   24.0900   43.7770 C   0  0  0  0  0  0  0  0  0  0  0  0
   56.6300   22.9340   42.8940 C   0  0  0  0  0  0  0  0  0  0  0  0
   56.0510   21.7110   43.3070 O   0  0  0  0  0  0  0  0  0  0  0  0
   56.4980   21.3840   44.6120 C   0  0  0  0  0  0  0  0  0  0  0  0
   55.9990   22.4150   45.6300 C   0  0  0  0  0  0  0  0  0  0  0  0
   57.0000   27.1000   45.2580 C   0  0  0  0  0  0  0  0  0  0  0  0
   59.2470   32.1890   45.9680 C   0  0  0  0  0  0  0  0  0  0  0  0
   61.0650   32.1830   49.8250 C   0  0  0  0  0  0  0  0  0  0  0  0
   60.7710   31.0850   50.8640 C   0  0  0  0  0  0  0  0  0  0  0  0
   60.9780   30.6300   47.8590 H   0  0  0  0  0  0  0  0  0  0  0  0
   61.4401   28.9447   47.4430 H   0  0  0  0  0  0  0  0  0  0  0  0
   59.7100   29.4276   47.4430 H   0  0  0  0  0  0  0  0  0  0  0  0
   59.6230   29.4340   51.1640 H   0  0  0  0  0  0  0  0  0  0  0  0
   58.4103   30.0438   48.8109 H   0  0  0  0  0  0  0  0  0  0  0  0
   57.8038   30.3109   50.5184 H   0  0  0  0  0  0  0  0  0  0  0  0
   57.7842   32.3026   48.8097 H   0  0  0  0  0  0  0  0  0  0  0  0
   58.3284   32.5565   50.5099 H   0  0  0  0  0  0  0  0  0  0  0  0
   58.0344   35.1869   47.0758 H   0  0  0  0  0  0  0  0  0  0  0  0
   56.5106   34.8305   45.1325 H   0  0  0  0  0  0  0  0  0  0  0  0
   56.7201   32.7678   43.7375 H   0  0  0  0  0  0  0  0  0  0  0  0
   59.9060   28.8988   45.1297 H   0  0  0  0  0  0  0  0  0  0  0  0
   60.7506   26.8504   46.2780 H   0  0  0  0  0  0  0  0  0  0  0  0
   59.2022   24.9523   46.7522 H   0  0  0  0  0  0  0  0  0  0  0  0
   55.0795   24.2602   43.6080 H   0  0  0  0  0  0  0  0  0  0  0  0
   56.7161   24.9997   43.5215 H   0  0  0  0  0  0  0  0  0  0  0  0
   56.3423   23.1347   41.8514 H   0  0  0  0  0  0  0  0  0  0  0  0
   57.7234   22.8526   42.9820 H   0  0  0  0  0  0  0  0  0  0  0  0
   56.1142   20.3904   44.8867 H   0  0  0  0  0  0  0  0  0  0  0  0
   57.5980   21.3838   44.6192 H   0  0  0  0  0  0  0  0  0  0  0  0
   54.9039   22.3504   45.7107 H   0  0  0  0  0  0  0  0  0  0  0  0
   56.4514   22.2102   46.6115 H   0  0  0  0  0  0  0  0  0  0  0  0
   55.9353   27.1836   44.9946 H   0  0  0  0  0  0  0  0  0  0  0  0
   60.0385   31.4564   46.1843 H   0  0  0  0  0  0  0  0  0  0  0  0
   61.8331   31.8201   49.1262 H   0  0  0  0  0  0  0  0  0  0  0  0
   61.4175   33.0803   50.3548 H   0  0  0  0  0  0  0  0  0  0  0  0
   61.7221   30.6215   51.1651 H   0  0  0  0  0  0  0  0  0  0  0  0
   60.2630   31.5607   51.7159 H   0  0  0  0  0  0  0  0  0  0  0  0
  1  2  1  0
  2  3  2  0
  2  4  1  0
  4  5  1  0
  5  6  1  0
  6  7  1  0
  7  8  1  0
  8  9  2  0
  8 10  1  0
 10 11  2  0
 11 12  1  0
 12 13  2  0
 13 14  1  0
 14 15  1  0
 15 16  1  0
 16 17  2  0
 16 18  2  0
 16 19  1  0
 19 20  2  0
 20 21  1  0
 21 22  2  0
 22 23  1  0
 23 24  1  0
 24 25  2  0
 24 26  1  0
 26 27  1  0
 27 28  1  0
 28 29  1  0
 29 30  1  0
 30 31  1  0
 23 32  2  0
 14 33  2  0
  7 34  1  0
 34 35  1  0
 35  4  1  0
 33 10  1  0
 32 19  1  0
 31 26  1  0
  1 36  1  0
  1 37  1  0
  1 38  1  0
  4 39  1  0
  5 40  1  0
  5 41  1  0
  6 42  1  0
  6 43  1  0
 11 44  1  0
 12 45  1  0
 13 46  1  0
 20 47  1  0
 21 48  1  0
 22 49  1  0
 27 50  1  0
 27 51  1  0
 28 52  1  0
 28 53  1  0
 30 54  1  0
 30 55  1  0
 31 56  1  0
 31 57  1  0
 32 58  1  0
 33 59  1  0
 34 60  1  0
 34 61  1  0
 35 62  1  0
 35 63  1  0
M  CHG  2   4   1  15  -1
M  END
>  <UniqueID>  (14) 
13

>  <SMILES>  (14) 
CC(=O)[NH+]1CCN(C(=O)c2cccc([N-]S(=O)(=O)c3cccc(C(=O)N4CCOCC4)c3)c2)CC1

>  <Energy>  (14) 
87.3236549079637

>  <Genealogy>  (14) 
CC(=O)[NH+]1CCN(C(=O)c2cccc([N-]S(=O)(=O)c3cccc(C(=O)N4CCOCC4)c3)c2)CC1 (protonated)
CC(=O)[NH+]1CCN(C(=O)c2cccc([N-]S(=O)(=O)c3cccc(C(=O)N4CCOCC4)c3)c2)CC1 (3D coordinates assigned)
CC(=O)[NH+]1CCN(C(=O)c2cccc([N-]S(=O)(=O)c3cccc(C(=O)N4CCOCC4)c3)c2)CC1 (nonaromatic ring conformer: 87.3236549079637 kcal/mol)

>  <smiles>  (14) 
CC(=O)N1CCN(C(=O)c2cccc(NS(=O)(=O)c3cccc(C(=O)N4CCOCC4)c3)c2)CC1

>  <score_type>  (14) 
oracle

>  <origin>  (14) 
adg

>  <m_score__min__energy>  (14) 
-11.02

>  <m_primary>  (14) 
energy

$$$$
14:0
     RDKit          3D

 42 45  0  0  0  0  0  0  0  0999 V2000
   65.6370   33.4510   50.9300 C   0  0  0  0  0  0  0  0  0  0  0  0
   64.4690   34.1980   50.6070 O   0  0  0  0  0  0  0  0  0  0  0  0
   63.5600   33.8470   49.5970 C   0  0  0  0  0  0  0  0  0  0  0  0
   64.0470   33.1480   48.4720 C   0  0  0  0  0  0  0  0  0  0  0  0
   63.1850   32.7640   47.4330 C   0  0  0  0  0  0  0  0  0  0  0  0
   61.8320   33.0840   47.5300 C   0  0  0  0  0  0  0  0  0  0  0  0
   60.8980   32.7540   46.6040 N   0  0  0  0  0  0  0  0  0  0  0  0
   59.6740   33.1970   46.9760 C   0  0  0  0  0  0  0  0  0  0  0  0
   58.1930   32.8750   46.0210 S   0  0  0  0  0  0  0  0  0  0  0  0
   58.2510   31.1130   46.3810 C   0  0  0  0  0  0  0  0  0  0  0  0
   59.0250   30.6970   47.4730 C   0  0  0  0  0  0  0  0  0  0  0  0
   59.0780   29.3500   47.8370 C   0  0  0  0  0  0  0  0  0  0  0  0
   59.9730   28.8540   49.3060 S   0  0  0  0  0  0  0  0  0  0  0  0
   59.3940   30.2780   50.2300 C   0  0  0  0  0  0  0  0  0  0  0  0
   60.3030   31.2570   50.6500 C   0  0  0  0  0  0  0  0  0  0  0  0
   59.8350   32.3670   51.3560 C   0  0  0  0  0  0  0  0  0  0  0  0
   58.4720   32.4920   51.6280 C   0  0  0  0  0  0  0  0  0  0  0  0
   57.5940   31.4950   51.1950 C   0  0  0  0  0  0  0  0  0  0  0  0
   58.0670   30.4160   50.5130 N   0  0  0  0  0  0  0  0  0  0  0  0
   58.4010   28.3980   47.0740 C   0  0  0  0  0  0  0  0  0  0  0  0
   57.6570   28.7930   45.9610 C   0  0  0  0  0  0  0  0  0  0  0  0
   57.5560   30.1500   45.6040 C   0  0  0  0  0  0  0  0  0  0  0  0
   56.7770   30.5170   44.4470 N   0  0  0  0  0  0  0  0  0  0  0  0
   55.5300   30.4540   44.4890 O   0  0  0  0  0  0  0  0  0  0  0  0
   57.3690   31.0690   43.3360 O   0  0  0  0  0  0  0  0  0  0  0  0
   59.7000   34.0050   48.4620 S   0  0  0  0  0  0  0  0  0  0  0  0
   61.3550   33.7750   48.6300 C   0  0  0  0  0  0  0  0  0  0  0  0
   62.1850   34.1690   49.6760 C   0  0  0  0  0  0  0  0  0  0  0  0
   65.7396   33.3854   52.0232 H   0  0  0  0  0  0  0  0  0  0  0  0
   65.5530   32.4386   50.5082 H   0  0  0  0  0  0  0  0  0  0  0  0
   66.5209   33.9518   50.5082 H   0  0  0  0  0  0  0  0  0  0  0  0
   65.1169   32.9007   48.4085 H   0  0  0  0  0  0  0  0  0  0  0  0
   63.5704   32.2203   46.5579 H   0  0  0  0  0  0  0  0  0  0  0  0
   59.5966   31.4394   48.0492 H   0  0  0  0  0  0  0  0  0  0  0  0
   61.3749   31.1526   50.4260 H   0  0  0  0  0  0  0  0  0  0  0  0
   60.5387   33.1407   51.6968 H   0  0  0  0  0  0  0  0  0  0  0  0
   58.0928   33.3662   52.1775 H   0  0  0  0  0  0  0  0  0  0  0  0
   56.5179   31.5822   51.4057 H   0  0  0  0  0  0  0  0  0  0  0  0
   57.3930   29.6820   50.1980 H   0  0  0  0  0  0  0  0  0  0  0  0
   58.4537   27.3345   47.3500 H   0  0  0  0  0  0  0  0  0  0  0  0
   57.1426   28.0328   45.3547 H   0  0  0  0  0  0  0  0  0  0  0  0
   61.7821   34.7162   50.5410 H   0  0  0  0  0  0  0  0  0  0  0  0
  1  2  1  0
  2  3  1  0
  3  4  2  0
  4  5  1  0
  5  6  2  0
  6  7  1  0
  7  8  2  0
  8  9  1  0
  9 10  1  0
 10 11  2  0
 11 12  1  0
 12 13  1  0
 13 14  1  0
 14 15  2  0
 15 16  1  0
 16 17  2  0
 17 18  1  0
 18 19  2  0
 12 20  2  0
 20 21  1  0
 21 22  2  0
 22 23  1  0
 23 24  2  0
 23 25  1  0
  8 26  1  0
 26 27  1  0
 27 28  2  0
 28  3  1  0
 27  6  1  0
 22 10  1  0
 19 14  1  0
  1 29  1  0
  1 30  1  0
  1 31  1  0
  4 32  1  0
  5 33  1  0
 11 34  1  0
 15 35  1  0
 16 36  1  0
 17 37  1  0
 18 38  1  0
 19 39  1  0
 20 40  1  0
 21 41  1  0
 28 42  1  0
M  CHG  3  19   1  23   1  25  -1
M  END
>  <UniqueID>  (15) 
14

>  <SMILES>  (15) 
COc1ccc2nc(Sc3cc(Sc4cccc[nH+]4)ccc3[N+](=O)[O-])sc2c1

>  <Energy>  (15) 
74.80009877989005

>  <Genealogy>  (15) 
COc1ccc2nc(Sc3cc(Sc4cccc[nH+]4)ccc3[N+](=O)[O-])sc2c1 (protonated)
COc1ccc2nc(Sc3cc(Sc4cccc[nH+]4)ccc3[N+](=O)[O-])sc2c1 (3D coordinates assigned)
COc1ccc2nc(Sc3cc(Sc4cccc[nH+]4)ccc3[N+](=O)[O-])sc2c1 (optimized conformer: 74.80009877989005 kcal/mol)

>  <smiles>  (15) 
COc1ccc2nc(Sc3cc(Sc4ccccn4)ccc3[N+](=O)[O-])sc2c1

>  <score_type>  (15) 
oracle

>  <origin>  (15) 
adg

>  <m_score__min__energy>  (15) 
-7.3600000000000003

>  <m_primary>  (15) 
energy

$$$$
15:0
     RDKit          3D

 50 53  0  0  0  0  0  0  0  0999 V2000
   53.9040   28.7440   54.2360 C   0  0  0  0  0  0  0  0  0  0  0  0
   54.4710   29.6600   53.4270 C   0  0  0  0  0  0  0  0  0  0  0  0
   53.7740   30.4680   52.5210 C   0  0  0  0  0  0  0  0  0  0  0  0
   52.4480   30.4580   52.2620 C   0  0  0  0  0  0  0  0  0  0  0  0
   51.8240   30.8510   50.9790 C   0  0  0  0  0  0  0  0  0  0  0  0
   51.7330   30.0830   49.8790 N   0  0  0  0  0  0  0  0  0  0  0  0
   51.0360   30.8480   49.0130 C   0  0  0  0  0  0  0  0  0  0  0  0
   50.7500   30.4680   47.8480 O   0  0  0  0  0  0  0  0  0  0  0  0
   50.6640   32.0530   49.4960 N   0  0  0  0  0  0  0  0  0  0  0  0
   51.1650   32.0350   50.7420 C   0  0  0  0  0  0  0  0  0  0  0  0
   51.0220   33.0810   51.6450 O   0  0  0  0  0  0  0  0  0  0  0  0
   54.7120   31.3250   51.9800 C   0  0  0  0  0  0  0  0  0  0  0  0
   55.9340   30.9910   52.5230 C   0  0  0  0  0  0  0  0  0  0  0  0
   57.1420   31.8060   52.2760 C   0  0  0  0  0  0  0  0  0  0  0  0
   57.5810   32.5130   53.2220 O   0  0  0  0  0  0  0  0  0  0  0  0
   57.7680   31.9110   50.9670 N   0  0  0  0  0  0  0  0  0  0  0  0
   58.8400   32.9400   50.8950 C   0  0  0  0  0  0  0  0  0  0  0  0
   60.2400   32.4470   51.3320 C   0  0  0  0  0  0  0  0  0  0  0  0
   60.4280   30.9890   51.1740 N   0  0  0  0  0  0  0  0  0  0  0  0
   61.8500   30.6610   50.9970 C   0  0  0  0  0  0  0  0  0  0  0  0
   59.6300   30.4630   50.0630 C   0  0  0  0  0  0  0  0  0  0  0  0
   58.1450   30.5750   50.4230 C   0  0  0  0  0  0  0  0  0  0  0  0
   55.8040   29.9620   53.4120 N   0  0  0  0  0  0  0  0  0  0  0  0
   56.8170   29.3260   54.3000 C   0  0  0  0  0  0  0  0  0  0  0  0
   57.4860   30.3140   55.2480 C   0  0  0  0  0  0  0  0  0  0  0  0
   58.8510   29.9030   54.7060 C   0  0  0  0  0  0  0  0  0  0  0  0
   58.1820   28.9580   53.7140 C   0  0  0  0  0  0  0  0  0  0  0  0
   54.5298   28.1511   54.9192 H   0  0  0  0  0  0  0  0  0  0  0  0
   52.8152   28.5890   54.2133 H   0  0  0  0  0  0  0  0  0  0  0  0
   51.7777   30.1311   53.0706 H   0  0  0  0  0  0  0  0  0  0  0  0
   54.5196   32.1258   51.2508 H   0  0  0  0  0  0  0  0  0  0  0  0
   57.0130   32.2780   50.3370 H   0  0  0  0  0  0  0  0  0  0  0  0
   58.9094   33.2902   49.8545 H   0  0  0  0  0  0  0  0  0  0  0  0
   58.5560   33.7343   51.6010 H   0  0  0  0  0  0  0  0  0  0  0  0
   60.9967   32.9636   50.7232 H   0  0  0  0  0  0  0  0  0  0  0  0
   60.3421   32.6720   52.4039 H   0  0  0  0  0  0  0  0  0  0  0  0
   62.3264   30.5511   51.9824 H   0  0  0  0  0  0  0  0  0  0  0  0
   61.9420   29.7181   50.4381 H   0  0  0  0  0  0  0  0  0  0  0  0
   62.3457   31.4684   50.4381 H   0  0  0  0  0  0  0  0  0  0  0  0
   59.8344   31.0460   49.1529 H   0  0  0  0  0  0  0  0  0  0  0  0
   59.8915   29.4100   49.8817 H   0  0  0  0  0  0  0  0  0  0  0  0
   57.5511   30.3872   49.5164 H   0  0  0  0  0  0  0  0  0  0  0  0
   57.9447   29.8345   51.2113 H   0  0  0  0  0  0  0  0  0  0  0  0
   56.1761   28.5040   54.6515 H   0  0  0  0  0  0  0  0  0  0  0  0
   57.2251   31.3658   55.0589 H   0  0  0  0  0  0  0  0  0  0  0  0
   57.2803   30.2780   56.3280 H   0  0  0  0  0  0  0  0  0  0  0  0
   59.4113   30.7238   54.2345 H   0  0  0  0  0  0  0  0  0  0  0  0
   59.6285   29.5296   55.3887 H   0  0  0  0  0  0  0  0  0  0  0  0
   58.3122   29.2451   52.6601 H   0  0  0  0  0  0  0  0  0  0  0  0
   58.4961   27.9062   53.6432 H   0  0  0  0  0  0  0  0  0  0  0  0
  1  2  2  0
  2  3  1  0
  3  4  2  3
  4  5  1  0
  5  6  1  0
  6  7  1  0
  7  8  2  0
  7  9  1  0
  9 10  1  0
 10 11  1  0
  3 12  1  0
 12 13  2  0
 13 14  1  0
 14 15  2  0
 14 16  1  0
 16 17  1  0
 17 18  1  0
 18 19  1  0
 19 20  1  0
 19 21  1  0
 21 22  1  0
 13 23  1  0
 23 24  1  0
 24 25  1  0
 25 26  1  0
 26 27  1  0
 23  2  1  0
 27 24  1  0
 10  5  2  0
 22 16  1  0
  1 28  1  0
  1 29  1  0
  4 30  1  0
 12 31  1  0
 16 32  1  0
 17 33  1  0
 17 34  1  0
 18 35  1  0
 18 36  1  0
 20 37  1  0
 20 38  1  0
 20 39  1  0
 21 40  1  0
 21 41  1  0
 22 42  1  0
 22 43  1  0
 24 44  1  0
 25 45  1  0
 25 46  1  0
 26 47  1  0
 26 48  1  0
 27 49  1  0
 27 50  1  0
M  CHG  4   6  -1   9  -1  11  -1  16   1
M  END
>  <UniqueID>  (16) 
15

>  <SMILES>  (16) 
C=c1c(=Cc2[n-]c(=O)[n-]c2[O-])cc(C(=O)[NH+]2CCN(C)CC2)n1C1CCC1

>  <Energy>  (16) 
203.60957139755666

>  <Genealogy>  (16) 
C=c1c(=Cc2[n-]c(=O)[n-]c2[O-])cc(C(=O)[NH+]2CCN(C)CC2)n1C1CCC1 (protonated)
C=c1c(=Cc2[n-]c(=O)[n-]c2[O-])cc(C(=O)[NH+]2CCN(C)CC2)n1C1CCC1 (3D coordinates assigned)
C=c1c(=Cc2[n-]c(=O)[n-]c2[O-])cc(C(=O)[NH+]2CCN(C)CC2)n1C1CCC1 (nonaromatic ring conformer: 203.60957139755666 kcal/mol)

>  <smiles>  (16) 
C=c1c(=Cc2[nH]c(=O)[nH]c2O)cc(C(=O)N2CCN(C)CC2)n1C1CCC1

>  <score_type>  (16) 
oracle

>  <origin>  (16) 
adg

>  <m_score__min__energy>  (16) 
-15.289999999999999

>  <m_primary>  (16) 
energy

$$$$
16:0
     RDKit          3D

 53 56  0  0  0  0  0  0  0  0999 V2000
   57.4040   29.5090   43.9390 C   0  0  0  0  0  0  0  0  0  0  0  0
   57.9050   29.3120   45.1680 C   0  0  0  0  0  0  0  0  0  0  0  0
   58.0910   28.0830   45.8240 C   0  0  0  0  0  0  0  0  0  0  0  0
   58.0020   26.8160   45.3750 C   0  0  0  0  0  0  0  0  0  0  0  0
   57.2730   25.7200   46.0350 C   0  0  0  0  0  0  0  0  0  0  0  0
   57.8530   24.6390   46.5900 N   0  0  0  0  0  0  0  0  0  0  0  0
   56.8200   24.0060   47.1890 C   0  0  0  0  0  0  0  0  0  0  0  0
   56.9620   22.9230   47.8140 O   0  0  0  0  0  0  0  0  0  0  0  0
   55.6290   24.6310   47.0750 N   0  0  0  0  0  0  0  0  0  0  0  0
   55.9380   25.7210   46.3560 C   0  0  0  0  0  0  0  0  0  0  0  0
   55.0180   26.7020   46.0040 O   0  0  0  0  0  0  0  0  0  0  0  0
   58.4430   28.3900   47.1290 C   0  0  0  0  0  0  0  0  0  0  0  0
   58.5180   29.7640   47.2110 C   0  0  0  0  0  0  0  0  0  0  0  0
   58.8960   30.5300   48.4430 C   0  0  0  0  0  0  0  0  0  0  0  0
   58.2050   30.3240   46.0220 N   0  0  0  0  0  0  0  0  0  0  0  0
   58.1200   31.7370   45.7680 C   0  0  0  0  0  0  0  0  0  0  0  0
   57.0800   32.2470   44.9800 C   0  0  0  0  0  0  0  0  0  0  0  0
   57.0030   33.6170   44.7230 C   0  0  0  0  0  0  0  0  0  0  0  0
   57.9680   34.4850   45.2410 C   0  0  0  0  0  0  0  0  0  0  0  0
   59.0300   33.9870   46.0160 C   0  0  0  0  0  0  0  0  0  0  0  0
   60.0540   34.9000   46.5750 C   0  0  0  0  0  0  0  0  0  0  0  0
   60.0100   36.1270   46.2810 O   0  0  0  0  0  0  0  0  0  0  0  0
   61.0980   34.4190   47.4430 N   0  0  0  0  0  0  0  0  0  0  0  0
   60.9250   34.4390   48.8960 C   0  0  0  0  0  0  0  0  0  0  0  0
   60.7570   33.0070   49.3930 C   0  0  0  0  0  0  0  0  0  0  0  0
   61.8500   32.1500   48.9090 N   0  0  0  0  0  0  0  0  0  0  0  0
   62.2160   30.9600   49.6880 C   0  0  0  0  0  0  0  0  0  0  0  0
   63.4680   31.2180   50.4690 C   0  0  0  0  0  0  0  0  0  0  0  0
   64.2810   32.0420   50.0820 O   0  0  0  0  0  0  0  0  0  0  0  0
   62.4580   32.3940   47.6200 C   0  0  0  0  0  0  0  0  0  0  0  0
   63.2170   31.5310   47.1020 O   0  0  0  0  0  0  0  0  0  0  0  0
   62.2590   33.7030   46.9050 C   0  0  0  0  0  0  0  0  0  0  0  0
   59.0930   32.6080   46.2830 C   0  0  0  0  0  0  0  0  0  0  0  0
   57.3108   30.5299   43.5402 H   0  0  0  0  0  0  0  0  0  0  0  0
   57.0865   28.6496   43.3302 H   0  0  0  0  0  0  0  0  0  0  0  0
   58.5190   26.5796   44.4333 H   0  0  0  0  0  0  0  0  0  0  0  0
   58.6273   27.6741   47.9435 H   0  0  0  0  0  0  0  0  0  0  0  0
   58.6113   29.9531   49.3352 H   0  0  0  0  0  0  0  0  0  0  0  0
   59.9824   30.7020   48.4489 H   0  0  0  0  0  0  0  0  0  0  0  0
   58.3716   31.4969   48.4489 H   0  0  0  0  0  0  0  0  0  0  0  0
   56.3228   31.5668   44.5630 H   0  0  0  0  0  0  0  0  0  0  0  0
   56.1801   34.0145   44.1108 H   0  0  0  0  0  0  0  0  0  0  0  0
   57.8962   35.5643   45.0412 H   0  0  0  0  0  0  0  0  0  0  0  0
   61.8098   34.8920   49.3671 H   0  0  0  0  0  0  0  0  0  0  0  0
   60.0356   35.0311   49.1574 H   0  0  0  0  0  0  0  0  0  0  0  0
   60.7586   33.0054   50.4930 H   0  0  0  0  0  0  0  0  0  0  0  0
   59.8051   32.6118   49.0087 H   0  0  0  0  0  0  0  0  0  0  0  0
   61.3988   30.7146   50.3822 H   0  0  0  0  0  0  0  0  0  0  0  0
   62.3891   30.1196   48.9997 H   0  0  0  0  0  0  0  0  0  0  0  0
   63.6561   30.6605   51.3984 H   0  0  0  0  0  0  0  0  0  0  0  0
   63.1574   34.3245   47.0338 H   0  0  0  0  0  0  0  0  0  0  0  0
   62.0842   33.4990   45.8383 H   0  0  0  0  0  0  0  0  0  0  0  0
   59.9112   32.2085   46.9003 H   0  0  0  0  0  0  0  0  0  0  0  0
  1  2  2  0
  2  3  1  0
  3  4  2  3
  4  5  1  0
  5  6  1  0
  6  7  1  0
  7  8  2  0
  7  9  1  0
  9 10  1  0
 10 11  1  0
  3 12  1  0
 12 13  2  0
 13 14  1  0
 13 15  1  0
 15 16  1  0
 16 17  2  0
 17 18  1  0
 18 19  2  0
 19 20  1  0
 20 21  1  0
 21 22  2  0
 21 23  1  0
 23 24  1  0
 24 25  1  0
 25 26  1  0
 26 27  1  0
 27 28  1  0
 28 29  2  0
 26 30  1  0
 30 31  2  0
 30 32  1  0
 20 33  2  0
 15  2  1  0
 33 16  1  0
 10  5  2  0
 32 23  1  0
  1 34  1  0
  1 35  1  0
  4 36  1  0
 12 37  1  0
 14 38  1  0
 14 39  1  0
 14 40  1  0
 17 41  1  0
 18 42  1  0
 19 43  1  0
 24 44  1  0
 24 45  1  0
 25 46  1  0
 25 47  1  0
 27 48  1  0
 27 49  1  0
 28 50  1  0
 32 51  1  0
 32 52  1  0
 33 53  1  0
M  CHG  3   6  -1   9  -1  11  -1
M  END
>  <UniqueID>  (17) 
16

>  <SMILES>  (17) 
C=c1c(=Cc2[n-]c(=O)[n-]c2[O-])cc(C)n1-c1cccc(C(=O)N2CCN(CC=O)C(=O)C2)c1

>  <Energy>  (17) 
134.44930152267534

>  <Genealogy>  (17) 
C=c1c(=Cc2[n-]c(=O)[n-]c2[O-])cc(C)n1-c1cccc(C(=O)N2CCN(CC=O)C(=O)C2)c1 (protonated)
C=c1c(=Cc2[n-]c(=O)[n-]c2[O-])cc(C)n1-c1cccc(C(=O)N2CCN(CC=O)C(=O)C2)c1 (3D coordinates assigned)
C=c1c(=Cc2[n-]c(=O)[n-]c2[O-])cc(C)n1-c1cccc(C(=O)N2CCN(CC=O)C(=O)C2)c1 (nonaromatic ring conformer: 134.44930152267534 kcal/mol)

>  <smiles>  (17) 
C=c1c(=Cc2[nH]c(=O)[nH]c2O)cc(C)n1-c1cccc(C(=O)N2CCN(CC=O)C(=O)C2)c1

>  <score_type>  (17) 
oracle

>  <origin>  (17) 
adg

>  <m_score__min__energy>  (17) 
-17.109999999999999

>  <m_primary>  (17) 
energy

$$$$
17:0
     RDKit          3D

 47 49  0  0  0  0  0  0  0  0999 V2000
   58.2530   21.5780   43.7770 C   0  0  0  0  0  0  0  0  0  0  0  0
   56.4980   21.8170   43.9540 S   0  0  0  0  0  0  0  0  0  0  0  0
   55.8560   20.4850   44.2210 O   0  0  0  0  0  0  0  0  0  0  0  0
   55.9170   22.3900   42.6930 O   0  0  0  0  0  0  0  0  0  0  0  0
   56.1670   22.8710   45.2930 N   0  0  0  0  0  0  0  0  0  0  0  0
   56.7830   24.1440   45.5300 C   0  0  0  0  0  0  0  0  0  0  0  0
   58.1560   24.1810   45.8020 C   0  0  0  0  0  0  0  0  0  0  0  0
   58.8020   25.4000   46.0180 C   0  0  0  0  0  0  0  0  0  0  0  0
   58.0800   26.5950   45.9730 C   0  0  0  0  0  0  0  0  0  0  0  0
   56.6960   26.5750   45.7250 C   0  0  0  0  0  0  0  0  0  0  0  0
   55.9270   27.7790   45.6110 N   0  0  0  0  0  0  0  0  0  0  0  0
   56.2560   28.9350   44.8310 C   0  0  0  0  0  0  0  0  0  0  0  0
   55.3510   29.6890   44.3830 O   0  0  0  0  0  0  0  0  0  0  0  0
   57.6930   29.2290   44.5370 C   0  0  0  0  0  0  0  0  0  0  0  0
   58.2070   30.1800   45.5350 N   0  0  0  0  0  0  0  0  0  0  0  0
   59.0620   29.7210   46.5000 C   0  0  0  0  0  0  0  0  0  0  0  0
   59.4300   30.5330   47.5720 C   0  0  0  0  0  0  0  0  0  0  0  0
   58.9210   31.8330   47.6590 C   0  0  0  0  0  0  0  0  0  0  0  0
   59.1960   32.6640   48.7950 N   0  0  0  0  0  0  0  0  0  0  0  0
   60.0890   33.7870   48.7840 C   0  0  0  0  0  0  0  0  0  0  0  0
   59.6840   34.8860   49.2470 O   0  0  0  0  0  0  0  0  0  0  0  0
   61.4800   33.6750   48.2800 C   0  0  0  0  0  0  0  0  0  0  0  0
   61.7710   33.8510   46.9160 C   0  0  0  0  0  0  0  0  0  0  0  0
   63.0910   33.7480   46.4710 C   0  0  0  0  0  0  0  0  0  0  0  0
   64.0860   33.4640   47.3500 N   0  0  0  0  0  0  0  0  0  0  0  0
   63.8350   33.2740   48.6730 C   0  0  0  0  0  0  0  0  0  0  0  0
   62.5290   33.3690   49.1600 C   0  0  0  0  0  0  0  0  0  0  0  0
   58.1080   32.3170   46.6340 C   0  0  0  0  0  0  0  0  0  0  0  0
   57.7370   31.4710   45.5850 C   0  0  0  0  0  0  0  0  0  0  0  0
   56.9490   31.9040   44.7000 O   0  0  0  0  0  0  0  0  0  0  0  0
   56.0580   25.3490   45.4920 C   0  0  0  0  0  0  0  0  0  0  0  0
   58.7167   21.5149   44.7725 H   0  0  0  0  0  0  0  0  0  0  0  0
   58.4422   20.6458   43.2246 H   0  0  0  0  0  0  0  0  0  0  0  0
   58.6846   22.4257   43.2246 H   0  0  0  0  0  0  0  0  0  0  0  0
   58.7297   23.2435   45.8458 H   0  0  0  0  0  0  0  0  0  0  0  0
   59.8823   25.4193   46.2241 H   0  0  0  0  0  0  0  0  0  0  0  0
   58.5952   27.5538   46.1319 H   0  0  0  0  0  0  0  0  0  0  0  0
   58.2758   28.2972   44.5826 H   0  0  0  0  0  0  0  0  0  0  0  0
   57.7824   29.6651   43.5311 H   0  0  0  0  0  0  0  0  0  0  0  0
   59.4636   28.6994   46.4290 H   0  0  0  0  0  0  0  0  0  0  0  0
   60.1158   30.1540   48.3440 H   0  0  0  0  0  0  0  0  0  0  0  0
   60.9628   34.0689   46.2023 H   0  0  0  0  0  0  0  0  0  0  0  0
   63.3248   33.8972   45.4065 H   0  0  0  0  0  0  0  0  0  0  0  0
   64.6620   33.0450   49.3612 H   0  0  0  0  0  0  0  0  0  0  0  0
   62.3242   33.2047   50.2282 H   0  0  0  0  0  0  0  0  0  0  0  0
   57.7602   33.3604   46.6512 H   0  0  0  0  0  0  0  0  0  0  0  0
   54.9794   25.3288   45.2772 H   0  0  0  0  0  0  0  0  0  0  0  0
  1  2  1  0
  2  3  2  0
  2  4  2  0
  2  5  1  0
  5  6  1  0
  6  7  2  0
  7  8  1  0
  8  9  2  0
  9 10  1  0
 10 11  1  0
 11 12  1  0
 12 13  2  0
 12 14  1  0
 14 15  1  0
 15 16  1  0
 16 17  2  0
 17 18  1  0
 18 19  1  0
 19 20  1  0
 20 21  2  0
 20 22  1  0
 22 23  2  0
 23 24  1  0
 24 25  2  0
 25 26  1  0
 26 27  2  0
 18 28  2  0
 28 29  1  0
 29 30  2  0
 10 31  2  0
 31  6  1  0
 29 15  1  0
 27 22  1  0
  1 32  1  0
  1 33  1  0
  1 34  1  0
  7 35  1  0
  8 36  1  0
  9 37  1  0
 14 38  1  0
 14 39  1  0
 16 40  1  0
 17 41  1  0
 23 42  1  0
 24 43  1  0
 26 44  1  0
 27 45  1  0
 28 46  1  0
 31 47  1  0
M  CHG  3   5  -1  11  -1  19  -1
M  END
>  <UniqueID>  (18) 
17

>  <SMILES>  (18) 
CS(=O)(=O)[N-]c1cccc([N-]C(=O)Cn2ccc([N-]C(=O)c3ccncc3)cc2=O)c1

>  <Energy>  (18) 
58.58578048719159

>  <Genealogy>  (18) 
CS(=O)(=O)[N-]c1cccc([N-]C(=O)Cn2ccc([N-]C(=O)c3ccncc3)cc2=O)c1 (protonated)
CS(=O)(=O)[N-]c1cccc([N-]C(=O)Cn2ccc([N-]C(=O)c3ccncc3)cc2=O)c1 (3D coordinates assigned)
CS(=O)(=O)[N-]c1cccc([N-]C(=O)Cn2ccc([N-]C(=O)c3ccncc3)cc2=O)c1 (optimized conformer: 58.58578048719159 kcal/mol)

>  <smiles>  (18) 
CS(=O)(=O)Nc1cccc(NC(=O)Cn2ccc(NC(=O)c3ccncc3)cc2=O)c1

>  <score_type>  (18) 
oracle

>  <origin>  (18) 
adg

>  <m_score__min__energy>  (18) 
-13.31

>  <m_primary>  (18) 
energy

$$$$
18:0
     RDKit          3D

 54 57  0  0  0  0  0  0  0  0999 V2000
   56.2780   29.7370   42.3750 C   0  0  0  0  0  0  0  0  0  0  0  0
   57.3990   30.0020   43.2780 N   0  0  0  0  0  0  0  0  0  0  0  0
   57.2710   30.0960   44.6700 C   0  0  0  0  0  0  0  0  0  0  0  0
   56.1510   29.9500   45.2330 O   0  0  0  0  0  0  0  0  0  0  0  0
   58.4120   30.3650   45.5420 C   0  0  0  0  0  0  0  0  0  0  0  0
   58.8880   31.6400   45.7500 C   0  0  0  0  0  0  0  0  0  0  0  0
   59.9480   31.9550   46.5510 C   0  0  0  0  0  0  0  0  0  0  0  0
   60.5070   33.2850   46.8070 C   0  0  0  0  0  0  0  0  0  0  0  0
   61.7320   33.2780   47.6340 C   0  0  0  0  0  0  0  0  0  0  0  0
   62.8880   33.1610   46.9370 N   0  0  0  0  0  0  0  0  0  0  0  0
   64.0260   33.1550   47.5460 N   0  0  0  0  0  0  0  0  0  0  0  0
   64.1580   33.2610   48.8710 C   0  0  0  0  0  0  0  0  0  0  0  0
   65.2890   33.2520   49.4190 O   0  0  0  0  0  0  0  0  0  0  0  0
   62.9960   33.3810   49.6080 C   0  0  0  0  0  0  0  0  0  0  0  0
   61.7360   33.3940   49.0190 C   0  0  0  0  0  0  0  0  0  0  0  0
   60.4730   33.4940   49.7680 C   0  0  0  0  0  0  0  0  0  0  0  0
   60.7310   33.8140   51.2080 C   0  0  0  0  0  0  0  0  0  0  0  0
   61.8860   33.0440   51.7710 C   0  0  0  0  0  0  0  0  0  0  0  0
   63.1800   33.4870   51.0880 C   0  0  0  0  0  0  0  0  0  0  0  0
   60.5750   30.8780   47.1950 C   0  0  0  0  0  0  0  0  0  0  0  0
   60.1110   29.6030   46.9990 C   0  0  0  0  0  0  0  0  0  0  0  0
   59.0340   29.3110   46.1790 C   0  0  0  0  0  0  0  0  0  0  0  0
   58.6530   27.9690   46.0570 N   0  0  0  0  0  0  0  0  0  0  0  0
   59.0490   27.1120   44.9260 C   0  0  0  0  0  0  0  0  0  0  0  0
   57.7890   26.4090   44.3840 C   0  0  0  0  0  0  0  0  0  0  0  0
   57.2800   25.6480   45.4350 O   0  0  0  0  0  0  0  0  0  0  0  0
   56.7110   26.5020   46.3500 C   0  0  0  0  0  0  0  0  0  0  0  0
   57.8060   27.2810   47.0530 C   0  0  0  0  0  0  0  0  0  0  0  0
   55.3745   29.5234   42.9650 H   0  0  0  0  0  0  0  0  0  0  0  0
   56.1019   30.6183   41.7407 H   0  0  0  0  0  0  0  0  0  0  0  0
   56.5151   28.8702   41.7407 H   0  0  0  0  0  0  0  0  0  0  0  0
   58.3310   30.1230   42.8320 H   0  0  0  0  0  0  0  0  0  0  0  0
   58.3769   32.4655   45.2330 H   0  0  0  0  0  0  0  0  0  0  0  0
   60.7464   33.7507   45.8396 H   0  0  0  0  0  0  0  0  0  0  0  0
   59.7469   33.8441   47.3724 H   0  0  0  0  0  0  0  0  0  0  0  0
   64.9130   33.0640   46.9950 H   0  0  0  0  0  0  0  0  0  0  0  0
   59.8546   34.2898   49.3272 H   0  0  0  0  0  0  0  0  0  0  0  0
   59.9520   32.5269   49.7102 H   0  0  0  0  0  0  0  0  0  0  0  0
   60.9473   34.8889   51.2968 H   0  0  0  0  0  0  0  0  0  0  0  0
   59.8333   33.5325   51.7780 H   0  0  0  0  0  0  0  0  0  0  0  0
   61.9596   33.2329   52.8522 H   0  0  0  0  0  0  0  0  0  0  0  0
   61.7293   31.9696   51.5945 H   0  0  0  0  0  0  0  0  0  0  0  0
   63.4053   34.5287   51.3602 H   0  0  0  0  0  0  0  0  0  0  0  0
   64.0145   32.8471   51.4107 H   0  0  0  0  0  0  0  0  0  0  0  0
   61.4365   31.0560   47.8554 H   0  0  0  0  0  0  0  0  0  0  0  0
   60.6170   28.7746   47.5164 H   0  0  0  0  0  0  0  0  0  0  0  0
   59.5008   27.7273   44.1340 H   0  0  0  0  0  0  0  0  0  0  0  0
   59.7855   26.3652   45.2574 H   0  0  0  0  0  0  0  0  0  0  0  0
   57.0475   27.1540   44.0598 H   0  0  0  0  0  0  0  0  0  0  0  0
   58.0269   25.7790   43.5142 H   0  0  0  0  0  0  0  0  0  0  0  0
   56.0371   27.2003   45.8320 H   0  0  0  0  0  0  0  0  0  0  0  0
   56.1367   25.9233   47.0884 H   0  0  0  0  0  0  0  0  0  0  0  0
   57.3513   28.0264   47.7221 H   0  0  0  0  0  0  0  0  0  0  0  0
   58.4266   26.5859   47.6375 H   0  0  0  0  0  0  0  0  0  0  0  0
  1  2  1  0
  2  3  1  0
  3  4  2  0
  3  5  1  0
  5  6  2  0
  6  7  1  0
  7  8  1  0
  8  9  1  0
  9 10  2  0
 10 11  1  0
 11 12  1  0
 12 13  2  0
 12 14  1  0
 14 15  2  0
 15 16  1  0
 16 17  1  0
 17 18  1  0
 18 19  1  0
  7 20  2  0
 20 21  1  0
 21 22  2  0
 22 23  1  0
 23 24  1  0
 24 25  1  0
 25 26  1  0
 26 27  1  0
 27 28  1  0
 22  5  1  0
 28 23  1  0
 15  9  1  0
 19 14  1  0
  1 29  1  0
  1 30  1  0
  1 31  1  0
  2 32  1  0
  6 33  1  0
  8 34  1  0
  8 35  1  0
 11 36  1  0
 16 37  1  0
 16 38  1  0
 17 39  1  0
 17 40  1  0
 18 41  1  0
 18 42  1  0
 19 43  1  0
 19 44  1  0
 20 45  1  0
 21 46  1  0
 24 47  1  0
 24 48  1  0
 25 49  1  0
 25 50  1  0
 27 51  1  0
 27 52  1  0
 28 53  1  0
 28 54  1  0
M  END
>  <smiles>  (19) 
CNC(=O)c1cc(Cc2n[nH]c(=O)c3c2CCCC3)ccc1N1CCOCC1

>  <score_type>  (19) 
oracle

>  <origin>  (19) 
adg

>  <m_score__min__energy>  (19) 
-9.5999999999999996

>  <m_primary>  (19) 
energy

$$$$
19:0
     RDKit          3D

 43 46  0  0  0  0  0  0  0  0999 V2000
   55.4530   29.7250   43.6590 C   0  0  0  0  0  0  0  0  0  0  0  0
   55.5120   28.9310   44.8800 N   0  0  0  0  0  0  0  0  0  0  0  0
   56.7050   28.3510   45.4210 C   0  0  0  0  0  0  0  0  0  0  0  0
   56.8240   27.0970   45.4180 O   0  0  0  0  0  0  0  0  0  0  0  0
   57.8140   29.1750   45.9440 C   0  0  0  0  0  0  0  0  0  0  0  0
   58.8360   28.5980   46.7120 C   0  0  0  0  0  0  0  0  0  0  0  0
   59.8880   29.3850   47.1870 C   0  0  0  0  0  0  0  0  0  0  0  0
   59.9370   30.7470   46.8870 C   0  0  0  0  0  0  0  0  0  0  0  0
   58.9400   31.3340   46.0900 C   0  0  0  0  0  0  0  0  0  0  0  0
   58.9870   32.7760   45.7600 C   0  0  0  0  0  0  0  0  0  0  0  0
   59.4800   33.7620   46.5160 C   0  0  0  0  0  0  0  0  0  0  0  0
   60.2130   33.6170   47.7880 C   0  0  0  0  0  0  0  0  0  0  0  0
   59.6620   33.6300   49.0670 C   0  0  0  0  0  0  0  0  0  0  0  0
   60.6310   33.4530   49.9950 N   0  0  0  0  0  0  0  0  0  0  0  0
   60.4480   33.4410   51.4430 C   0  0  0  0  0  0  0  0  0  0  0  0
   61.7910   33.3370   49.3190 C   0  0  0  0  0  0  0  0  0  0  0  0
   63.0770   33.1720   49.8430 C   0  0  0  0  0  0  0  0  0  0  0  0
   64.1570   33.1070   48.9400 C   0  0  0  0  0  0  0  0  0  0  0  0
   65.4580   32.9400   49.4070 O   0  0  0  0  0  0  0  0  0  0  0  0
   63.9280   33.2170   47.5500 C   0  0  0  0  0  0  0  0  0  0  0  0
   62.6250   33.3880   47.0500 C   0  0  0  0  0  0  0  0  0  0  0  0
   61.5730   33.4290   47.9670 C   0  0  0  0  0  0  0  0  0  0  0  0
   59.2880   35.0130   45.7800 C   0  0  0  0  0  0  0  0  0  0  0  0
   59.6930   36.1430   46.1570 O   0  0  0  0  0  0  0  0  0  0  0  0
   58.6380   34.8010   44.5320 N   0  0  0  0  0  0  0  0  0  0  0  0
   58.4590   33.3900   44.5390 C   0  0  0  0  0  0  0  0  0  0  0  0
   57.8890   32.7670   43.6060 O   0  0  0  0  0  0  0  0  0  0  0  0
   57.8790   30.5410   45.6240 C   0  0  0  0  0  0  0  0  0  0  0  0
   55.3738   30.7911   43.9183 H   0  0  0  0  0  0  0  0  0  0  0  0
   56.3660   29.5581   43.0686 H   0  0  0  0  0  0  0  0  0  0  0  0
   54.5747   29.4250   43.0686 H   0  0  0  0  0  0  0  0  0  0  0  0
   58.8091   27.5224   46.9410 H   0  0  0  0  0  0  0  0  0  0  0  0
   60.6802   28.9296   47.7994 H   0  0  0  0  0  0  0  0  0  0  0  0
   60.7602   31.3640   47.2764 H   0  0  0  0  0  0  0  0  0  0  0  0
   58.5934   33.7647   49.2906 H   0  0  0  0  0  0  0  0  0  0  0  0
   61.4287   33.5053   51.9371 H   0  0  0  0  0  0  0  0  0  0  0  0
   59.8299   34.3006   51.7416 H   0  0  0  0  0  0  0  0  0  0  0  0
   59.9475   32.5081   51.7416 H   0  0  0  0  0  0  0  0  0  0  0  0
   63.2407   33.0952   50.9280 H   0  0  0  0  0  0  0  0  0  0  0  0
   66.2160   32.6870   48.7840 H   0  0  0  0  0  0  0  0  0  0  0  0
   64.7772   33.1684   46.8525 H   0  0  0  0  0  0  0  0  0  0  0  0
   62.4403   33.4864   45.9701 H   0  0  0  0  0  0  0  0  0  0  0  0
   57.0919   30.9936   45.0029 H   0  0  0  0  0  0  0  0  0  0  0  0
  1  2  1  0
  2  3  1  0
  3  4  2  0
  3  5  1  0
  5  6  2  0
  6  7  1  0
  7  8  2  0
  8  9  1  0
  9 10  1  0
 10 11  2  0
 11 12  1  0
 12 13  2  0
 13 14  1  0
 14 15  1  0
 14 16  1  0
 16 17  2  0
 17 18  1  0
 18 19  1  0
 18 20  2  0
 20 21  1  0
 21 22  2  0
 11 23  1  0
 23 24  2  0
 23 25  1  0
 25 26  1  0
 26 27  2  0
  9 28  2  0
 28  5  1  0
 26 10  1  0
 22 12  1  0
 22 16  1  0
  1 29  1  0
  1 30  1  0
  1 31  1  0
  6 32  1  0
  7 33  1  0
  8 34  1  0
 13 35  1  0
 15 36  1  0
 15 37  1  0
 15 38  1  0
 17 39  1  0
 19 40  1  0
 20 41  1  0
 21 42  1  0
 28 43  1  0
M  CHG  2   2  -1  25  -1
M  END
>  <UniqueID>  (20) 
18

>  <SMILES>  (20) 
C[N-]C(=O)c1cccc(C2=C(c3cn(C)c4cc(O)ccc34)C(=O)[N-]C2=O)c1

>  <Energy>  (20) 
116.71220162671483

>  <Genealogy>  (20) 
C[N-]C(=O)c1cccc(C2=C(c3cn(C)c4cc(O)ccc34)C(=O)[N-]C2=O)c1 (protonated)
C[N-]C(=O)c1cccc(C2=C(c3cn(C)c4cc(O)ccc34)C(=O)[N-]C2=O)c1 (3D coordinates assigned)
C[N-]C(=O)c1cccc(C2=C(c3cn(C)c4cc(O)ccc34)C(=O)[N-]C2=O)c1 (nonaromatic ring conformer: 116.71220162671483 kcal/mol)

>  <smiles>  (20) 
CNC(=O)c1cccc(C2=C(c3cn(C)c4cc(O)ccc34)C(=O)NC2=O)c1

>  <score_type>  (20) 
oracle

>  <origin>  (20) 
adg

>  <m_score__min__energy>  (20) 
-12.08

>  <m_primary>  (20) 
energy

$$$$
20:0
     RDKit          3D

 67 70  0  0  0  0  0  0  0  0999 V2000
   58.4560   26.1220   47.7810 C   0  0  0  0  0  0  0  0  0  0  0  0
   58.1990   27.0940   46.8920 C   0  0  0  0  0  0  0  0  0  0  0  0
   57.7090   26.9220   45.5910 C   0  0  0  0  0  0  0  0  0  0  0  0
   57.4350   25.7540   44.9740 C   0  0  0  0  0  0  0  0  0  0  0  0
   56.2270   24.9380   45.2140 C   0  0  0  0  0  0  0  0  0  0  0  0
   56.0870   23.6350   44.9070 N   0  0  0  0  0  0  0  0  0  0  0  0
   54.8080   23.3670   45.2430 C   0  0  0  0  0  0  0  0  0  0  0  0
   54.2950   22.2270   45.1070 O   0  0  0  0  0  0  0  0  0  0  0  0
   54.1190   24.4200   45.7370 N   0  0  0  0  0  0  0  0  0  0  0  0
   55.0300   25.4060   45.7020 C   0  0  0  0  0  0  0  0  0  0  0  0
   54.7710   26.7080   46.1100 O   0  0  0  0  0  0  0  0  0  0  0  0
   57.6170   28.1950   45.0430 C   0  0  0  0  0  0  0  0  0  0  0  0
   58.0600   29.0770   46.0070 C   0  0  0  0  0  0  0  0  0  0  0  0
   58.2100   30.5280   45.7850 C   0  0  0  0  0  0  0  0  0  0  0  0
   57.3150   31.1260   45.1290 O   0  0  0  0  0  0  0  0  0  0  0  0
   59.3680   31.2580   46.2510 N   0  0  0  0  0  0  0  0  0  0  0  0
   59.3510   32.7240   46.1660 C   0  0  0  0  0  0  0  0  0  0  0  0
   60.6470   33.3460   46.7160 C   0  0  0  0  0  0  0  0  0  0  0  0
   61.1550   32.6380   48.0140 C   0  0  0  0  0  0  0  0  0  0  0  0
   62.4770   33.3840   48.4240 C   0  0  0  0  0  0  0  0  0  0  0  0
   63.5380   32.4770   48.9360 N   0  0  0  0  0  0  0  0  0  0  0  0
   63.1640   31.8400   50.2210 C   0  0  0  0  0  0  0  0  0  0  0  0
   63.1440   32.8400   51.3930 C   0  0  0  0  0  0  0  0  0  0  0  0
   64.2140   33.9330   51.2600 C   0  0  0  0  0  0  0  0  0  0  0  0
   65.3810   33.4560   50.3990 C   0  0  0  0  0  0  0  0  0  0  0  0
   64.8980   33.0870   48.9810 C   0  0  0  0  0  0  0  0  0  0  0  0
   60.0430   32.7070   49.1540 C   0  0  0  0  0  0  0  0  0  0  0  0
   59.9790   31.5040   50.1260 C   0  0  0  0  0  0  0  0  0  0  0  0
   60.0840   34.0010   49.9970 C   0  0  0  0  0  0  0  0  0  0  0  0
   61.4680   31.1470   47.6160 C   0  0  0  0  0  0  0  0  0  0  0  0
   60.6600   30.5800   46.4250 C   0  0  0  0  0  0  0  0  0  0  0  0
   58.3850   28.4150   47.1410 N   0  0  0  0  0  0  0  0  0  0  0  0
   58.8280   29.0180   48.4020 C   0  0  0  0  0  0  0  0  0  0  0  0
   58.8408   26.3774   48.7793 H   0  0  0  0  0  0  0  0  0  0  0  0
   58.2818   25.0699   47.5113 H   0  0  0  0  0  0  0  0  0  0  0  0
   58.1639   25.3822   44.2389 H   0  0  0  0  0  0  0  0  0  0  0  0
   57.2597   28.4507   44.0346 H   0  0  0  0  0  0  0  0  0  0  0  0
   59.2348   33.0178   45.1123 H   0  0  0  0  0  0  0  0  0  0  0  0
   58.5117   33.0910   46.7749 H   0  0  0  0  0  0  0  0  0  0  0  0
   61.4281   33.2697   45.9453 H   0  0  0  0  0  0  0  0  0  0  0  0
   60.4288   34.3930   46.9734 H   0  0  0  0  0  0  0  0  0  0  0  0
   62.8668   33.9115   47.5409 H   0  0  0  0  0  0  0  0  0  0  0  0
   62.2185   34.0722   49.2422 H   0  0  0  0  0  0  0  0  0  0  0  0
   62.1618   31.3986   50.1171 H   0  0  0  0  0  0  0  0  0  0  0  0
   63.9219   31.0756   50.4475 H   0  0  0  0  0  0  0  0  0  0  0  0
   62.1545   33.3192   51.4294 H   0  0  0  0  0  0  0  0  0  0  0  0
   63.3583   32.2766   52.3131 H   0  0  0  0  0  0  0  0  0  0  0  0
   63.7637   34.8221   50.7945 H   0  0  0  0  0  0  0  0  0  0  0  0
   64.5949   34.1737   52.2635 H   0  0  0  0  0  0  0  0  0  0  0  0
   66.1291   34.2593   50.3279 H   0  0  0  0  0  0  0  0  0  0  0  0
   65.8226   32.5630   50.8655 H   0  0  0  0  0  0  0  0  0  0  0  0
   64.8852   34.0030   48.3721 H   0  0  0  0  0  0  0  0  0  0  0  0
   65.5965   32.3288   48.5974 H   0  0  0  0  0  0  0  0  0  0  0  0
   59.1299   32.6841   48.5410 H   0  0  0  0  0  0  0  0  0  0  0  0
   59.9984   31.8693   51.1634 H   0  0  0  0  0  0  0  0  0  0  0  0
   59.0497   30.9416   49.9527 H   0  0  0  0  0  0  0  0  0  0  0  0
   60.8434   30.8462   49.9527 H   0  0  0  0  0  0  0  0  0  0  0  0
   60.0758   33.7425   51.0662 H   0  0  0  0  0  0  0  0  0  0  0  0
   61.0004   34.5625   49.7625 H   0  0  0  0  0  0  0  0  0  0  0  0
   59.2050   34.6194   49.7625 H   0  0  0  0  0  0  0  0  0  0  0  0
   62.5357   31.0842   47.3589 H   0  0  0  0  0  0  0  0  0  0  0  0
   61.1787   30.5403   48.4867 H   0  0  0  0  0  0  0  0  0  0  0  0
   61.2511   30.7049   45.5058 H   0  0  0  0  0  0  0  0  0  0  0  0
   60.4567   29.5191   46.6325 H   0  0  0  0  0  0  0  0  0  0  0  0
   58.4107   28.4500   49.2466 H   0  0  0  0  0  0  0  0  0  0  0  0
   59.9266   28.9964   48.4527 H   0  0  0  0  0  0  0  0  0  0  0  0
   58.4790   30.0599   48.4527 H   0  0  0  0  0  0  0  0  0  0  0  0
  1  2  2  0
  2  3  1  0
  3  4  2  3
  4  5  1  0
  5  6  1  0
  6  7  1  0
  7  8  2  0
  7  9  1  0
  9 10  1  0
 10 11  1  0
  3 12  1  0
 12 13  2  0
 13 14  1  0
 14 15  2  0
 14 16  1  0
 16 17  1  0
 17 18  1  0
 18 19  1  0
 19 20  1  0
 20 21  1  0
 21 22  1  0
 22 23  1  0
 23 24  1  0
 24 25  1  0
 25 26  1  0
 19 27  1  0
 27 28  1  0
 27 29  1  0
 19 30  1  0
 30 31  1  0
 13 32  1  0
 32 33  1  0
 32  2  1  0
 10  5  2  0
 31 16  1  0
 26 21  1  0
  1 34  1  0
  1 35  1  0
  4 36  1  0
 12 37  1  0
 17 38  1  0
 17 39  1  0
 18 40  1  0
 18 41  1  0
 20 42  1  0
 20 43  1  0
 22 44  1  0
 22 45  1  0
 23 46  1  0
 23 47  1  0
 24 48  1  0
 24 49  1  0
 25 50  1  0
 25 51  1  0
 26 52  1  0
 26 53  1  0
 27 54  1  0
 28 55  1  0
 28 56  1  0
 28 57  1  0
 29 58  1  0
 29 59  1  0
 29 60  1  0
 30 61  1  0
 30 62  1  0
 31 63  1  0
 31 64  1  0
 33 65  1  0
 33 66  1  0
 33 67  1  0
M  CHG  3   6  -1   9  -1  11  -1
M  END
>  <UniqueID>  (21) 
19

>  <SMILES>  (21) 
C=c1c(=Cc2[n-]c(=O)[n-]c2[O-])cc(C(=O)N2CCC(CN3CCCCC3)(C(C)C)CC2)n1C

>  <Energy>  (21) 
158.95333513185486

>  <Genealogy>  (21) 
C=c1c(=Cc2[n-]c(=O)[n-]c2[O-])cc(C(=O)N2CCC(CN3CCCCC3)(C(C)C)CC2)n1C (protonated)
C=c1c(=Cc2[n-]c(=O)[n-]c2[O-])cc(C(=O)N2CCC(CN3CCCCC3)(C(C)C)CC2)n1C (3D coordinates assigned)
C=c1c(=Cc2[n-]c(=O)[n-]c2[O-])cc(C(=O)N2CCC(CN3CCCCC3)(C(C)C)CC2)n1C (nonaromatic ring conformer: 158.95333513185486 kcal/mol)

>  <smiles>  (21) 
C=c1c(=Cc2[nH]c(=O)[nH]c2O)cc(C(=O)N2CCC(CN3CCCCC3)(C(C)C)CC2)n1C

>  <score_type>  (21) 
oracle

>  <origin>  (21) 
adg

>  <m_score__min__energy>  (21) 
-18.609999999999999

>  <m_primary>  (21) 
energy

$$$$
21:0
     RDKit          3D

 41 43  0  0  0  0  0  0  0  0999 V2000
   54.7900   27.0880   46.6410 H   0  0  0  0  0  0  0  0  0  0  0  0
   55.1760   26.3630   45.9960 N   0  0  0  0  0  0  0  0  0  0  0  0
   56.8760   26.6500   45.8760 S   0  0  0  0  0  0  0  0  0  0  0  0
   57.5180   26.4400   47.2190 O   0  0  0  0  0  0  0  0  0  0  0  0
   57.4780   25.6800   44.8970 O   0  0  0  0  0  0  0  0  0  0  0  0
   57.1570   28.3010   45.3320 C   0  0  0  0  0  0  0  0  0  0  0  0
   58.4540   28.8330   45.3300 C   0  0  0  0  0  0  0  0  0  0  0  0
   59.2986   28.2203   45.6780 H   0  0  0  0  0  0  0  0  0  0  0  0
   58.6770   30.1400   44.8870 C   0  0  0  0  0  0  0  0  0  0  0  0
   59.6955   30.5553   44.8982 H   0  0  0  0  0  0  0  0  0  0  0  0
   57.6080   30.9250   44.4280 C   0  0  0  0  0  0  0  0  0  0  0  0
   57.8440   32.3430   43.9840 C   0  0  0  0  0  0  0  0  0  0  0  0
   58.9236   32.5048   43.8485 H   0  0  0  0  0  0  0  0  0  0  0  0
   57.3129   32.5115   43.0356 H   0  0  0  0  0  0  0  0  0  0  0  0
   57.3140   33.3290   45.0300 C   0  0  0  0  0  0  0  0  0  0  0  0
   56.4475   33.8647   44.6152 H   0  0  0  0  0  0  0  0  0  0  0  0
   57.0201   32.7676   45.9291 H   0  0  0  0  0  0  0  0  0  0  0  0
   58.3470   34.2970   45.3960 N   0  0  0  0  0  0  0  0  0  0  0  0
   59.2930   34.0850   46.2620 C   0  0  0  0  0  0  0  0  0  0  0  0
   58.9670   33.8620   47.5610 N   0  0  0  0  0  0  0  0  0  0  0  0
   59.9220   33.6390   48.5030 C   0  0  0  0  0  0  0  0  0  0  0  0
   61.2770   33.6000   48.1270 C   0  0  0  0  0  0  0  0  0  0  0  0
   61.5920   33.8490   46.7820 C   0  0  0  0  0  0  0  0  0  0  0  0
   62.7920   33.8650   46.3940 O   0  0  0  0  0  0  0  0  0  0  0  0
   60.6000   34.0770   45.8850 N   0  0  0  0  0  0  0  0  0  0  0  0
   62.3640   33.4100   49.1640 C   0  0  0  0  0  0  0  0  0  0  0  0
   63.1525   32.7714   48.7392 H   0  0  0  0  0  0  0  0  0  0  0  0
   62.7565   34.4024   49.4307 H   0  0  0  0  0  0  0  0  0  0  0  0
   61.8510   32.7790   50.3910 N   0  0  0  0  0  0  0  0  0  0  0  0
   61.6160   31.7760   50.2030 H   0  0  0  0  0  0  0  0  0  0  0  0
   62.6010   32.8090   51.1230 H   0  0  0  0  0  0  0  0  0  0  0  0
   60.6670   33.4860   50.8980 C   0  0  0  0  0  0  0  0  0  0  0  0
   60.3764   33.0557   51.8677 H   0  0  0  0  0  0  0  0  0  0  0  0
   60.9124   34.5520   51.0137 H   0  0  0  0  0  0  0  0  0  0  0  0
   59.4980   33.3510   49.9160 C   0  0  0  0  0  0  0  0  0  0  0  0
   59.1055   32.3247   49.9681 H   0  0  0  0  0  0  0  0  0  0  0  0
   58.7271   34.0831   50.1983 H   0  0  0  0  0  0  0  0  0  0  0  0
   56.3090   30.3910   44.4370 C   0  0  0  0  0  0  0  0  0  0  0  0
   55.4626   31.0041   44.0939 H   0  0  0  0  0  0  0  0  0  0  0  0
   56.0870   29.0840   44.8800 C   0  0  0  0  0  0  0  0  0  0  0  0
   55.0684   28.6688   44.8737 H   0  0  0  0  0  0  0  0  0  0  0  0
  1  2  1  0
  2  3  1  0
  3  4  2  0
  3  5  2  0
  3  6  1  0
  6  7  2  0
  7  8  1  0
  7  9  1  0
  9 10  1  0
  9 11  2  0
 11 12  1  0
 12 13  1  0
 12 14  1  0
 12 15  1  0
 15 16  1  0
 15 17  1  0
 15 18  1  0
 18 19  2  0
 19 20  1  0
 20 21  1  0
 21 22  2  0
 22 23  1  0
 23 24  2  0
 23 25  1  0
 22 26  1  0
 26 27  1  0
 26 28  1  0
 26 29  1  0
 29 30  1  0
 29 31  1  0
 29 32  1  0
 32 33  1  0
 32 34  1  0
 32 35  1  0
 35 36  1  0
 35 37  1  0
 11 38  1  0
 38 39  1  0
 38 40  2  0
 40 41  1  0
 40  6  1  0
 25 19  1  0
 35 21  1  0
M  CHG  4   2  -1  20  -1  25  -1  29   1
M  END
>  <UniqueID>  (22) 
20

>  <SMILES>  (22) 
[NH-]S(=O)(=O)c1ccc(CC/N=c2/[n-]c3c(c(=O)[n-]2)C[NH2+]CC3)cc1

>  <Energy>  (22) 
42.48491382248168

>  <Genealogy>  (22) 
[NH-]S(=O)(=O)c1ccc(CCN=c2[n-]c3c(c(=O)[n-]2)C[NH2+]CC3)cc1 (protonated)
[NH-]S(=O)(=O)c1ccc(CC/N=c2/[n-]c3c(c(=O)[n-]2)C[NH2+]CC3)cc1 (cis-trans isomerization)
[NH-]S(=O)(=O)c1ccc(CC/N=c2/[n-]c3c(c(=O)[n-]2)C[NH2+]CC3)cc1 (3D coordinates assigned)
[NH-]S(=O)(=O)c1ccc(CC/N=c2/[n-]c3c(c(=O)[n-]2)C[NH2+]CC3)cc1 (nonaromatic ring conformer: 42.48491382248168 kcal/mol)

>  <smiles>  (22) 
NS(=O)(=O)c1ccc(CCN=c2[nH]c3c(c(=O)[nH]2)CNCC3)cc1

>  <score_type>  (22) 
oracle

>  <origin>  (22) 
adg

>  <m_score__min__energy>  (22) 
-11.779999999999999

>  <m_primary>  (22) 
energy

$$$$
22:0
     RDKit          3D

 33 34  0  0  0  0  0  0  0  0999 V2000
   59.5820   35.1570   45.7500 C   0  0  0  0  0  0  0  0  0  0  0  0
   59.5600   34.1050   46.5740 C   0  0  0  0  0  0  0  0  0  0  0  0
   58.2810   33.3930   46.9130 C   0  0  0  0  0  0  0  0  0  0  0  0
   58.0360   32.2470   45.9650 C   0  0  0  0  0  0  0  0  0  0  0  0
   57.8590   32.4940   44.6030 C   0  0  0  0  0  0  0  0  0  0  0  0
   57.6220   31.4460   43.7040 C   0  0  0  0  0  0  0  0  0  0  0  0
   57.3830   31.8050   42.2550 C   0  0  0  0  0  0  0  0  0  0  0  0
   57.5450   30.1050   44.1850 C   0  0  0  0  0  0  0  0  0  0  0  0
   57.0120   29.1480   43.3950 C   0  0  0  0  0  0  0  0  0  0  0  0
   57.9210   29.8390   45.5460 C   0  0  0  0  0  0  0  0  0  0  0  0
   58.1780   28.6080   46.0620 C   0  0  0  0  0  0  0  0  0  0  0  0
   57.2270   27.4840   46.1580 C   0  0  0  0  0  0  0  0  0  0  0  0
   55.9940   27.5170   45.6220 N   0  0  0  0  0  0  0  0  0  0  0  0
   55.4600   26.3320   45.9870 C   0  0  0  0  0  0  0  0  0  0  0  0
   54.2980   25.9820   45.6570 O   0  0  0  0  0  0  0  0  0  0  0  0
   56.2670   25.5550   46.7410 N   0  0  0  0  0  0  0  0  0  0  0  0
   57.3780   26.3000   46.8560 C   0  0  0  0  0  0  0  0  0  0  0  0
   58.4800   25.9120   47.6140 O   0  0  0  0  0  0  0  0  0  0  0  0
   58.0740   30.9290   46.4250 C   0  0  0  0  0  0  0  0  0  0  0  0
   60.5349   35.6568   45.5215 H   0  0  0  0  0  0  0  0  0  0  0  0
   58.6472   35.5230   45.3003 H   0  0  0  0  0  0  0  0  0  0  0  0
   60.5032   33.7510   47.0157 H   0  0  0  0  0  0  0  0  0  0  0  0
   58.3468   33.0034   47.9396 H   0  0  0  0  0  0  0  0  0  0  0  0
   57.4479   34.1060   46.8254 H   0  0  0  0  0  0  0  0  0  0  0  0
   57.9063   33.5276   44.2295 H   0  0  0  0  0  0  0  0  0  0  0  0
   56.7742   32.7195   42.1994 H   0  0  0  0  0  0  0  0  0  0  0  0
   58.3481   31.9761   41.7556 H   0  0  0  0  0  0  0  0  0  0  0  0
   56.8528   30.9806   41.7556 H   0  0  0  0  0  0  0  0  0  0  0  0
   56.9473   28.1106   43.7550 H   0  0  0  0  0  0  0  0  0  0  0  0
   56.6425   29.4059   42.3915 H   0  0  0  0  0  0  0  0  0  0  0  0
   59.1940   28.4327   46.4454 H   0  0  0  0  0  0  0  0  0  0  0  0
   58.9920   26.5700   48.1860 H   0  0  0  0  0  0  0  0  0  0  0  0
   58.2268   30.7378   47.4974 H   0  0  0  0  0  0  0  0  0  0  0  0
  1  2  2  0
  2  3  1  0
  3  4  1  0
  4  5  1  0
  5  6  2  0
  6  7  1  0
  6  8  1  0
  8  9  2  0
  8 10  1  0
 10 11  2  3
 11 12  1  0
 12 13  1  0
 13 14  1  0
 14 15  2  0
 14 16  1  0
 16 17  1  0
 17 18  1  0
 10 19  1  0
 19  4  2  0
 17 12  2  0
  1 20  1  0
  1 21  1  0
  2 22  1  0
  3 23  1  0
  3 24  1  0
  5 25  1  0
  7 26  1  0
  7 27  1  0
  7 28  1  0
  9 29  1  0
  9 30  1  0
 11 31  1  0
 18 32  1  0
 19 33  1  0
M  CHG  2  13  -1  16  -1
M  END
>  <UniqueID>  (23) 
21

>  <SMILES>  (23) 
C=CCc1cc(C)c(=C)c(=Cc2[n-]c(=O)[n-]c2O)c1

>  <Energy>  (23) 
83.19335615402625

>  <Genealogy>  (23) 
C=CCc1cc(C)c(=C)c(=Cc2[n-]c(=O)[n-]c2O)c1 (protonated)
C=CCc1cc(C)c(=C)c(=Cc2[n-]c(=O)[n-]c2O)c1 (3D coordinates assigned)
C=CCc1cc(C)c(=C)c(=Cc2[n-]c(=O)[n-]c2O)c1 (optimized conformer: 83.19335615402625 kcal/mol)

>  <smiles>  (23) 
C=CCc1cc(C)c(=C)c(=Cc2[nH]c(=O)[nH]c2O)c1

>  <score_type>  (23) 
oracle

>  <origin>  (23) 
adg

>  <m_score__min__energy>  (23) 
-11.630000000000001

>  <m_primary>  (23) 
energy

$$$$
23:0
     RDKit          3D

 65 68  0  0  0  0  0  0  0  0999 V2000
   57.5150   31.1390   53.6330 C   0  0  0  0  0  0  0  0  0  0  0  0
   57.5080   31.6720   52.2430 C   0  0  0  0  0  0  0  0  0  0  0  0
   57.1120   30.9360   51.2950 O   0  0  0  0  0  0  0  0  0  0  0  0
   58.0050   32.9550   51.9950 O   0  0  0  0  0  0  0  0  0  0  0  0
   59.3660   33.2860   52.0620 C   0  0  0  0  0  0  0  0  0  0  0  0
   59.9190   33.5300   53.3230 C   0  0  0  0  0  0  0  0  0  0  0  0
   61.2820   33.8070   53.4620 C   0  0  0  0  0  0  0  0  0  0  0  0
   62.1110   33.8470   52.3350 C   0  0  0  0  0  0  0  0  0  0  0  0
   63.8390   34.1570   52.5050 S   0  0  0  0  0  0  0  0  0  0  0  0
   64.1500   35.5450   52.0150 O   0  0  0  0  0  0  0  0  0  0  0  0
   64.2480   34.0800   53.9530 O   0  0  0  0  0  0  0  0  0  0  0  0
   64.7400   33.0140   51.5570 N   0  0  0  0  0  0  0  0  0  0  0  0
   64.1810   32.0250   50.6860 C   0  0  0  0  0  0  0  0  0  0  0  0
   64.3290   30.8060   50.9770 O   0  0  0  0  0  0  0  0  0  0  0  0
   63.4890   32.3950   49.4800 N   0  0  0  0  0  0  0  0  0  0  0  0
   62.5590   31.5370   48.7980 C   0  0  0  0  0  0  0  0  0  0  0  0
   62.3090   31.7430   47.4320 C   0  0  0  0  0  0  0  0  0  0  0  0
   61.3890   30.9380   46.7480 C   0  0  0  0  0  0  0  0  0  0  0  0
   60.7040   29.9270   47.4260 C   0  0  0  0  0  0  0  0  0  0  0  0
   60.9240   29.7310   48.7950 C   0  0  0  0  0  0  0  0  0  0  0  0
   60.0490   28.4750   49.6540 Cl  0  0  0  0  0  0  0  0  0  0  0  0
   61.8420   30.5360   49.4820 C   0  0  0  0  0  0  0  0  0  0  0  0
   61.5580   33.6450   51.0650 C   0  0  0  0  0  0  0  0  0  0  0  0
   60.1830   33.3910   50.9070 C   0  0  0  0  0  0  0  0  0  0  0  0
   59.6140   33.3110   49.5380 C   0  0  0  0  0  0  0  0  0  0  0  0
   59.8930   34.3120   48.5900 C   0  0  0  0  0  0  0  0  0  0  0  0
   59.3290   34.2610   47.3130 C   0  0  0  0  0  0  0  0  0  0  0  0
   58.5060   33.1850   46.9420 C   0  0  0  0  0  0  0  0  0  0  0  0
   57.8880   33.1280   45.5960 C   0  0  0  0  0  0  0  0  0  0  0  0
   57.0680   34.0280   45.2630 O   0  0  0  0  0  0  0  0  0  0  0  0
   58.1790   32.0630   44.6720 N   0  0  0  0  0  0  0  0  0  0  0  0
   58.1560   32.3100   43.2280 C   0  0  0  0  0  0  0  0  0  0  0  0
   57.0250   31.4980   42.5660 C   0  0  0  0  0  0  0  0  0  0  0  0
   56.7920   30.1670   43.1900 N   0  0  0  0  0  0  0  0  0  0  0  0
   55.5260   30.1250   43.9370 C   0  0  0  0  0  0  0  0  0  0  0  0
   57.9280   29.6910   44.0110 C   0  0  0  0  0  0  0  0  0  0  0  0
   58.2740   30.6740   45.1420 C   0  0  0  0  0  0  0  0  0  0  0  0
   58.2320   32.1790   47.8870 C   0  0  0  0  0  0  0  0  0  0  0  0
   58.7850   32.2380   49.1700 C   0  0  0  0  0  0  0  0  0  0  0  0
   57.5040   31.9760   54.3467 H   0  0  0  0  0  0  0  0  0  0  0  0
   56.6250   30.5118   53.7897 H   0  0  0  0  0  0  0  0  0  0  0  0
   58.4211   30.5354   53.7897 H   0  0  0  0  0  0  0  0  0  0  0  0
   59.2750   33.5037   54.2144 H   0  0  0  0  0  0  0  0  0  0  0  0
   61.7044   33.9941   54.4603 H   0  0  0  0  0  0  0  0  0  0  0  0
   63.7390   33.2990   49.0190 H   0  0  0  0  0  0  0  0  0  0  0  0
   62.8397   32.5428   46.8946 H   0  0  0  0  0  0  0  0  0  0  0  0
   61.2058   31.1022   45.6759 H   0  0  0  0  0  0  0  0  0  0  0  0
   59.9926   29.2856   46.8852 H   0  0  0  0  0  0  0  0  0  0  0  0
   62.0034   30.3858   50.5597 H   0  0  0  0  0  0  0  0  0  0  0  0
   62.2074   33.6854   50.1781 H   0  0  0  0  0  0  0  0  0  0  0  0
   60.5621   35.1433   48.8569 H   0  0  0  0  0  0  0  0  0  0  0  0
   59.5306   35.0684   46.5937 H   0  0  0  0  0  0  0  0  0  0  0  0
   57.9884   33.3817   43.0455 H   0  0  0  0  0  0  0  0  0  0  0  0
   59.1193   32.0011   42.7960 H   0  0  0  0  0  0  0  0  0  0  0  0
   56.0944   32.0805   42.6353 H   0  0  0  0  0  0  0  0  0  0  0  0
   57.3318   31.3132   41.5259 H   0  0  0  0  0  0  0  0  0  0  0  0
   55.7369   30.1320   45.0166 H   0  0  0  0  0  0  0  0  0  0  0  0
   54.9173   31.0034   43.6766 H   0  0  0  0  0  0  0  0  0  0  0  0
   54.9769   29.2081   43.6766 H   0  0  0  0  0  0  0  0  0  0  0  0
   57.6636   28.7193   44.4537 H   0  0  0  0  0  0  0  0  0  0  0  0
   58.8074   29.6040   43.3559 H   0  0  0  0  0  0  0  0  0  0  0  0
   57.5718   30.5264   45.9758 H   0  0  0  0  0  0  0  0  0  0  0  0
   59.3056   30.4829   45.4725 H   0  0  0  0  0  0  0  0  0  0  0  0
   57.5769   31.3386   47.6140 H   0  0  0  0  0  0  0  0  0  0  0  0
   58.5697   31.4396   49.8954 H   0  0  0  0  0  0  0  0  0  0  0  0
  1  2  1  0
  2  3  2  0
  2  4  1  0
  4  5  1  0
  5  6  2  0
  6  7  1  0
  7  8  2  0
  8  9  1  0
  9 10  2  0
  9 11  2  0
  9 12  1  0
 12 13  1  0
 13 14  2  0
 13 15  1  0
 15 16  1  0
 16 17  2  0
 17 18  1  0
 18 19  2  0
 19 20  1  0
 20 21  1  0
 20 22  2  0
  8 23  1  0
 23 24  2  0
 24 25  1  0
 25 26  2  0
 26 27  1  0
 27 28  2  0
 28 29  1  0
 29 30  2  0
 29 31  1  0
 31 32  1  0
 32 33  1  0
 33 34  1  0
 34 35  1  0
 34 36  1  0
 36 37  1  0
 28 38  1  0
 38 39  2  0
 24  5  1  0
 39 25  1  0
 22 16  1  0
 37 31  1  0
  1 40  1  0
  1 41  1  0
  1 42  1  0
  6 43  1  0
  7 44  1  0
 15 45  1  0
 17 46  1  0
 18 47  1  0
 19 48  1  0
 22 49  1  0
 23 50  1  0
 26 51  1  0
 27 52  1  0
 32 53  1  0
 32 54  1  0
 33 55  1  0
 33 56  1  0
 35 57  1  0
 35 58  1  0
 35 59  1  0
 36 60  1  0
 36 61  1  0
 37 62  1  0
 37 63  1  0
 38 64  1  0
 39 65  1  0
M  CHG  1  12  -1
M  END
>  <UniqueID>  (24) 
22

>  <SMILES>  (24) 
CC(=O)Oc1ccc(S(=O)(=O)[N-]C(=O)Nc2cccc(Cl)c2)cc1-c1ccc(C(=O)N2CCN(C)CC2)cc1

>  <Energy>  (24) 
98.70078303119054

>  <Genealogy>  (24) 
CC(=O)Oc1ccc(S(=O)(=O)[N-]C(=O)Nc2cccc(Cl)c2)cc1-c1ccc(C(=O)N2CCN(C)CC2)cc1 (protonated)
CC(=O)Oc1ccc(S(=O)(=O)[N-]C(=O)Nc2cccc(Cl)c2)cc1-c1ccc(C(=O)N2CCN(C)CC2)cc1 (3D coordinates assigned)
CC(=O)Oc1ccc(S(=O)(=O)[N-]C(=O)Nc2cccc(Cl)c2)cc1-c1ccc(C(=O)N2CCN(C)CC2)cc1 (nonaromatic ring conformer: 98.70078303119054 kcal/mol)

>  <smiles>  (24) 
CC(=O)Oc1ccc(S(=O)(=O)NC(=O)Nc2cccc(Cl)c2)cc1-c1ccc(C(=O)N2CCN(C)CC2)cc1

>  <score_type>  (24) 
oracle

>  <origin>  (24) 
adg

>  <m_score__min__energy>  (24) 
-11.289999999999999

>  <m_primary>  (24) 
energy

$$$$
24:0
     RDKit          3D

 57 60  0  0  0  0  0  0  0  0999 V2000
   55.5870   29.6980   43.0170 C   0  0  0  0  0  0  0  0  0  0  0  0
   56.7470   29.8300   43.9530 C   0  0  0  0  0  0  0  0  0  0  0  0
   57.7380   28.8480   43.9900 C   0  0  0  0  0  0  0  0  0  0  0  0
   58.8190   28.9760   44.8760 C   0  0  0  0  0  0  0  0  0  0  0  0
   59.8530   27.8820   44.9080 C   0  0  0  0  0  0  0  0  0  0  0  0
   58.9170   30.1320   45.6940 C   0  0  0  0  0  0  0  0  0  0  0  0
   60.0860   30.3450   46.6460 C   0  0  0  0  0  0  0  0  0  0  0  0
   59.6530   30.8780   47.9490 N   0  0  0  0  0  0  0  0  0  0  0  0
   58.9860   30.2030   48.9280 C   0  0  0  0  0  0  0  0  0  0  0  0
   58.4890   28.7890   48.7990 C   0  0  0  0  0  0  0  0  0  0  0  0
   58.7660   31.0360   50.0310 C   0  0  0  0  0  0  0  0  0  0  0  0
   58.1330   30.6890   51.3190 C   0  0  0  0  0  0  0  0  0  0  0  0
   58.6620   29.8110   52.0510 O   0  0  0  0  0  0  0  0  0  0  0  0
   56.9040   31.3140   51.7190 N   0  0  0  0  0  0  0  0  0  0  0  0
   56.2210   30.9680   52.9620 C   0  0  0  0  0  0  0  0  0  0  0  0
   54.8470   30.4320   52.6660 C   0  0  0  0  0  0  0  0  0  0  0  0
   54.4880   29.1340   53.0560 C   0  0  0  0  0  0  0  0  0  0  0  0
   53.2200   28.6340   52.7510 C   0  0  0  0  0  0  0  0  0  0  0  0
   52.3040   29.4220   52.0510 C   0  0  0  0  0  0  0  0  0  0  0  0
   52.6450   30.7240   51.6480 C   0  0  0  0  0  0  0  0  0  0  0  0
   51.6720   31.5580   50.9030 C   0  0  0  0  0  0  0  0  0  0  0  0
   51.0510   32.6800   51.5290 N   0  0  0  0  0  0  0  0  0  0  0  0
   51.3820   31.2840   49.7080 O   0  0  0  0  0  0  0  0  0  0  0  0
   53.9240   31.2200   51.9600 C   0  0  0  0  0  0  0  0  0  0  0  0
   59.2620   32.2730   49.6660 C   0  0  0  0  0  0  0  0  0  0  0  0
   59.3030   33.4820   50.3660 C   0  0  0  0  0  0  0  0  0  0  0  0
   59.8680   34.5960   49.7240 C   0  0  0  0  0  0  0  0  0  0  0  0
   60.3740   34.4830   48.4130 C   0  0  0  0  0  0  0  0  0  0  0  0
   60.3300   33.2540   47.7350 C   0  0  0  0  0  0  0  0  0  0  0  0
   59.7810   32.1490   48.3990 C   0  0  0  0  0  0  0  0  0  0  0  0
   57.8670   31.0790   45.6380 C   0  0  0  0  0  0  0  0  0  0  0  0
   57.8760   32.0990   46.3770 O   0  0  0  0  0  0  0  0  0  0  0  0
   56.8310   30.9050   44.7770 N   0  0  0  0  0  0  0  0  0  0  0  0
   54.6582   29.5923   43.5968 H   0  0  0  0  0  0  0  0  0  0  0  0
   55.5235   30.5947   42.3831 H   0  0  0  0  0  0  0  0  0  0  0  0
   55.7266   28.8099   42.3831 H   0  0  0  0  0  0  0  0  0  0  0  0
   57.6719   27.9742   43.3251 H   0  0  0  0  0  0  0  0  0  0  0  0
   60.0897   27.6316   45.9527 H   0  0  0  0  0  0  0  0  0  0  0  0
   59.4596   26.9906   44.3974 H   0  0  0  0  0  0  0  0  0  0  0  0
   60.7651   28.2245   44.3974 H   0  0  0  0  0  0  0  0  0  0  0  0
   60.5912   29.3813   46.8077 H   0  0  0  0  0  0  0  0  0  0  0  0
   60.7638   31.0808   46.1888 H   0  0  0  0  0  0  0  0  0  0  0  0
   58.3384   28.3605   49.8008 H   0  0  0  0  0  0  0  0  0  0  0  0
   57.5353   28.7841   48.2509 H   0  0  0  0  0  0  0  0  0  0  0  0
   59.2299   28.1885   48.2509 H   0  0  0  0  0  0  0  0  0  0  0  0
   56.4300   31.9780   51.0670 H   0  0  0  0  0  0  0  0  0  0  0  0
   56.8029   30.2021   53.4957 H   0  0  0  0  0  0  0  0  0  0  0  0
   56.1287   31.8700   53.5848 H   0  0  0  0  0  0  0  0  0  0  0  0
   55.2072   28.5075   53.6039 H   0  0  0  0  0  0  0  0  0  0  0  0
   52.9421   27.6165   53.0631 H   0  0  0  0  0  0  0  0  0  0  0  0
   51.3079   29.0203   51.8133 H   0  0  0  0  0  0  0  0  0  0  0  0
   50.0140   32.7210   51.6530 H   0  0  0  0  0  0  0  0  0  0  0  0
   54.2041   32.2367   51.6473 H   0  0  0  0  0  0  0  0  0  0  0  0
   58.9049   33.5587   51.3886 H   0  0  0  0  0  0  0  0  0  0  0  0
   59.9160   35.5624   50.2472 H   0  0  0  0  0  0  0  0  0  0  0  0
   60.8067   35.3645   47.9172 H   0  0  0  0  0  0  0  0  0  0  0  0
   60.7165   33.1612   46.7093 H   0  0  0  0  0  0  0  0  0  0  0  0
  1  2  1  0
  2  3  2  0
  3  4  1  0
  4  5  1  0
  4  6  2  0
  6  7  1  0
  7  8  1  0
  8  9  1  0
  9 10  1  0
  9 11  2  0
 11 12  1  0
 12 13  2  0
 12 14  1  0
 14 15  1  0
 15 16  1  0
 16 17  2  0
 17 18  1  0
 18 19  2  0
 19 20  1  0
 20 21  1  0
 21 22  1  0
 21 23  2  0
 20 24  2  0
 11 25  1  0
 25 26  2  0
 26 27  1  0
 27 28  2  0
 28 29  1  0
 29 30  2  0
  6 31  1  0
 31 32  2  0
 31 33  1  0
 33  2  1  0
 30  8  1  0
 24 16  1  0
 30 25  1  0
  1 34  1  0
  1 35  1  0
  1 36  1  0
  3 37  1  0
  5 38  1  0
  5 39  1  0
  5 40  1  0
  7 41  1  0
  7 42  1  0
 10 43  1  0
 10 44  1  0
 10 45  1  0
 14 46  1  0
 15 47  1  0
 15 48  1  0
 17 49  1  0
 18 50  1  0
 19 51  1  0
 22 52  1  0
 24 53  1  0
 26 54  1  0
 27 55  1  0
 28 56  1  0
 29 57  1  0
M  CHG  2  22  -1  33  -1
M  END
>  <UniqueID>  (25) 
23

>  <SMILES>  (25) 
Cc1cc(C)c(Cn2c(C)c(C(=O)NCc3cccc(C([NH-])=O)c3)c3ccccc32)c(=O)[n-]1

>  <Energy>  (25) 
98.26601721318549

>  <Genealogy>  (25) 
Cc1cc(C)c(Cn2c(C)c(C(=O)NCc3cccc(C([NH-])=O)c3)c3ccccc32)c(=O)[n-]1 (protonated)
Cc1cc(C)c(Cn2c(C)c(C(=O)NCc3cccc(C([NH-])=O)c3)c3ccccc32)c(=O)[n-]1 (3D coordinates assigned)
Cc1cc(C)c(Cn2c(C)c(C(=O)NCc3cccc(C([NH-])=O)c3)c3ccccc32)c(=O)[n-]1 (optimized conformer: 98.26601721318549 kcal/mol)

>  <smiles>  (25) 
Cc1cc(C)c(Cn2c(C)c(C(=O)NCc3cccc(C(N)=O)c3)c3ccccc32)c(=O)[nH]1

>  <score_type>  (25) 
oracle

>  <origin>  (25) 
adg

>  <m_score__min__energy>  (25) 
-14.93

>  <m_primary>  (25) 
energy

$$$$
25:0
     RDKit          3D

 51 55  0  0  0  0  0  0  0  0999 V2000
   56.5680   29.6620   42.6210 C   0  0  0  0  0  0  0  0  0  0  0  0
   57.0960   29.3680   43.8190 C   0  0  0  0  0  0  0  0  0  0  0  0
   57.0680   28.0800   44.2650 N   0  0  0  0  0  0  0  0  0  0  0  0
   57.5980   27.7260   45.4690 C   0  0  0  0  0  0  0  0  0  0  0  0
   57.5400   26.3050   45.9010 C   0  0  0  0  0  0  0  0  0  0  0  0
   58.5910   25.4190   45.6030 C   0  0  0  0  0  0  0  0  0  0  0  0
   58.5230   24.0820   46.0050 C   0  0  0  0  0  0  0  0  0  0  0  0
   57.4070   23.6030   46.7000 C   0  0  0  0  0  0  0  0  0  0  0  0
   57.3870   22.2520   47.0750 O   0  0  0  0  0  0  0  0  0  0  0  0
   57.3180   21.1650   46.1560 C   0  0  0  0  0  0  0  0  0  0  0  0
   56.3500   24.4860   46.9920 C   0  0  0  0  0  0  0  0  0  0  0  0
   56.4170   25.8240   46.5920 C   0  0  0  0  0  0  0  0  0  0  0  0
   58.1730   28.7170   46.2850 C   0  0  0  0  0  0  0  0  0  0  0  0
   58.6260   28.4020   47.4220 O   0  0  0  0  0  0  0  0  0  0  0  0
   58.2160   30.0200   45.8550 N   0  0  0  0  0  0  0  0  0  0  0  0
   58.7830   30.9920   46.6390 C   0  0  0  0  0  0  0  0  0  0  0  0
   58.8210   32.3320   46.2190 C   0  0  0  0  0  0  0  0  0  0  0  0
   58.2720   32.6380   44.9630 C   0  0  0  0  0  0  0  0  0  0  0  0
   57.7230   31.6540   44.2130 N   0  0  0  0  0  0  0  0  0  0  0  0
   57.6840   30.3600   44.6320 C   0  0  0  0  0  0  0  0  0  0  0  0
   58.2860   33.8950   44.5030 C   0  0  0  0  0  0  0  0  0  0  0  0
   58.8750   34.9870   45.2950 C   0  0  0  0  0  0  0  0  0  0  0  0
   59.4010   34.7360   46.4940 C   0  0  0  0  0  0  0  0  0  0  0  0
   59.3980   33.3950   47.0250 N   0  0  0  0  0  0  0  0  0  0  0  0
   59.9060   33.1760   48.3890 C   0  0  0  0  0  0  0  0  0  0  0  0
   61.4120   33.2350   48.4160 C   0  0  0  0  0  0  0  0  0  0  0  0
   62.1630   32.6960   47.3620 C   0  0  0  0  0  0  0  0  0  0  0  0
   63.5580   32.7570   47.3940 C   0  0  0  0  0  0  0  0  0  0  0  0
   64.1910   33.3520   48.4860 C   0  0  0  0  0  0  0  0  0  0  0  0
   63.4530   33.8540   49.5110 N   0  0  0  0  0  0  0  0  0  0  0  0
   62.0940   33.8050   49.5040 C   0  0  0  0  0  0  0  0  0  0  0  0
   56.5853   30.6980   42.2516 H   0  0  0  0  0  0  0  0  0  0  0  0
   56.1178   28.8670   42.0083 H   0  0  0  0  0  0  0  0  0  0  0  0
   56.6470   27.3350   43.6630 H   0  0  0  0  0  0  0  0  0  0  0  0
   59.4711   25.7802   45.0507 H   0  0  0  0  0  0  0  0  0  0  0  0
   59.3544   23.4002   45.7729 H   0  0  0  0  0  0  0  0  0  0  0  0
   57.2579   20.2179   46.7122 H   0  0  0  0  0  0  0  0  0  0  0  0
   56.4251   21.2759   45.5232 H   0  0  0  0  0  0  0  0  0  0  0  0
   58.2178   21.1621   45.5232 H   0  0  0  0  0  0  0  0  0  0  0  0
   55.4671   24.1214   47.5375 H   0  0  0  0  0  0  0  0  0  0  0  0
   55.5836   26.5046   46.8205 H   0  0  0  0  0  0  0  0  0  0  0  0
   59.2151   30.7178   47.6127 H   0  0  0  0  0  0  0  0  0  0  0  0
   57.8503   34.1154   43.5173 H   0  0  0  0  0  0  0  0  0  0  0  0
   58.8812   36.0123   44.8967 H   0  0  0  0  0  0  0  0  0  0  0  0
   59.8397   35.5560   47.0815 H   0  0  0  0  0  0  0  0  0  0  0  0
   59.5028   33.9546   49.0532 H   0  0  0  0  0  0  0  0  0  0  0  0
   59.5864   32.1796   48.7282 H   0  0  0  0  0  0  0  0  0  0  0  0
   61.6531   32.2246   46.5089 H   0  0  0  0  0  0  0  0  0  0  0  0
   64.1515   32.3403   46.5669 H   0  0  0  0  0  0  0  0  0  0  0  0
   65.2888   33.4148   48.5173 H   0  0  0  0  0  0  0  0  0  0  0  0
   61.5266   34.2132   50.3534 H   0  0  0  0  0  0  0  0  0  0  0  0
  1  2  2  0
  2  3  1  0
  3  4  2  0
  4  5  1  0
  5  6  2  0
  6  7  1  0
  7  8  2  0
  8  9  1  0
  9 10  1  0
  8 11  1  0
 11 12  2  0
  4 13  1  0
 13 14  2  0
 13 15  1  0
 15 16  1  0
 16 17  2  0
 17 18  1  0
 18 19  1  0
 19 20  2  0
 18 21  2  0
 21 22  1  0
 22 23  2  0
 23 24  1  0
 24 25  1  0
 25 26  1  0
 26 27  2  0
 27 28  1  0
 28 29  2  0
 29 30  1  0
 30 31  2  0
 20  2  1  0
 31 26  1  0
 12  5  1  0
 20 15  1  0
 24 17  1  0
  1 32  1  0
  1 33  1  0
  3 34  1  0
  6 35  1  0
  7 36  1  0
 10 37  1  0
 10 38  1  0
 10 39  1  0
 11 40  1  0
 12 41  1  0
 16 42  1  0
 21 43  1  0
 22 44  1  0
 23 45  1  0
 25 46  1  0
 25 47  1  0
 27 48  1  0
 28 49  1  0
 29 50  1  0
 31 51  1  0
M  CHG  1   3   1
M  END
>  <UniqueID>  (26) 
24

>  <SMILES>  (26) 
C=c1[nH+]c(-c2ccc(OC)cc2)c(=O)n2cc3c(nc12)=CC=CN3Cc1cccnc1

>  <Energy>  (26) 
74.74459315687001

>  <Genealogy>  (26) 
C=c1[nH+]c(-c2ccc(OC)cc2)c(=O)n2cc3c(nc12)=CC=CN3Cc1cccnc1 (protonated)
C=c1[nH+]c(-c2ccc(OC)cc2)c(=O)n2cc3c(nc12)=CC=CN3Cc1cccnc1 (3D coordinates assigned)
C=c1[nH+]c(-c2ccc(OC)cc2)c(=O)n2cc3c(nc12)=CC=CN3Cc1cccnc1 (nonaromatic ring conformer: 74.74459315687001 kcal/mol)

>  <smiles>  (26) 
C=c1nc(-c2ccc(OC)cc2)c(=O)n2cc3c(nc12)=CC=CN3Cc1cccnc1

>  <score_type>  (26) 
oracle

>  <origin>  (26) 
adg

>  <m_score__min__energy>  (26) 
-8.3800000000000008

>  <m_primary>  (26) 
energy

$$$$
26:0
     RDKit          3D

 55 58  0  0  0  0  0  0  0  0999 V2000
   59.3956   30.1453   43.4530 H   0  0  0  0  0  0  0  0  0  0  0  0
   59.0600   29.9900   44.4890 C   0  0  0  0  0  0  0  0  0  0  0  0
   57.6360   30.2790   44.7820 C   0  0  0  0  0  0  0  0  0  0  0  0
   56.7110   29.5850   44.2860 O   0  0  0  0  0  0  0  0  0  0  0  0
   57.2870   31.3870   45.6230 N   0  0  0  0  0  0  0  0  0  0  0  0
   57.8730   32.5510   45.6520 C   0  0  0  0  0  0  0  0  0  0  0  0
   58.5180   32.9810   44.5330 N   0  0  0  0  0  0  0  0  0  0  0  0
   59.1640   34.1760   44.4810 C   0  0  0  0  0  0  0  0  0  0  0  0
   59.6698   34.4874   43.5552 H   0  0  0  0  0  0  0  0  0  0  0  0
   59.1860   35.0080   45.6010 C   0  0  0  0  0  0  0  0  0  0  0  0
   59.7002   35.9796   45.5620 H   0  0  0  0  0  0  0  0  0  0  0  0
   58.5490   34.5940   46.7700 C   0  0  0  0  0  0  0  0  0  0  0  0
   58.5645   35.2368   47.6625 H   0  0  0  0  0  0  0  0  0  0  0  0
   57.8920   33.3640   46.8070 C   0  0  0  0  0  0  0  0  0  0  0  0
   57.3926   33.0298   47.7284 H   0  0  0  0  0  0  0  0  0  0  0  0
   59.9840   29.5550   45.3700 C   0  0  0  0  0  0  0  0  0  0  0  0
   60.3550   30.2380   46.6350 C   0  0  0  0  0  0  0  0  0  0  0  0
   60.5380   31.6260   46.7380 C   0  0  0  0  0  0  0  0  0  0  0  0
   60.3920   32.2669   45.8560 H   0  0  0  0  0  0  0  0  0  0  0  0
   60.9060   32.1940   47.9620 C   0  0  0  0  0  0  0  0  0  0  0  0
   61.0240   33.2842   48.0482 H   0  0  0  0  0  0  0  0  0  0  0  0
   61.1240   31.3780   49.0760 C   0  0  0  0  0  0  0  0  0  0  0  0
   61.3885   31.8302   50.0433 H   0  0  0  0  0  0  0  0  0  0  0  0
   61.0070   29.9890   48.9650 C   0  0  0  0  0  0  0  0  0  0  0  0
   61.1905   29.3488   49.8405 H   0  0  0  0  0  0  0  0  0  0  0  0
   60.6560   29.4150   47.7380 C   0  0  0  0  0  0  0  0  0  0  0  0
   60.6000   27.9870   47.5970 N   0  0  0  0  0  0  0  0  0  0  0  0
   60.5480   27.4070   46.4290 C   0  0  0  0  0  0  0  0  0  0  0  0
   60.3140   25.6350   46.3420 S   0  0  0  0  0  0  0  0  0  0  0  0
   58.5400   25.8220   46.1620 C   0  0  0  0  0  0  0  0  0  0  0  0
   57.9650   27.0880   46.2040 C   0  0  0  0  0  0  0  0  0  0  0  0
   58.6024   27.9795   46.2988 H   0  0  0  0  0  0  0  0  0  0  0  0
   56.5840   27.2250   46.1260 C   0  0  0  0  0  0  0  0  0  0  0  0
   56.1359   28.2291   46.1567 H   0  0  0  0  0  0  0  0  0  0  0  0
   55.7560   26.1030   46.0090 C   0  0  0  0  0  0  0  0  0  0  0  0
   54.3890   26.3350   45.9470 O   0  0  0  0  0  0  0  0  0  0  0  0
   56.3190   24.7910   45.9560 C   0  0  0  0  0  0  0  0  0  0  0  0
   55.5040   23.4750   45.8450 C   0  0  0  0  0  0  0  0  0  0  0  0
   54.9780   23.0810   47.2450 C   0  0  0  0  0  0  0  0  0  0  0  0
   55.6047   23.5504   48.0176 H   0  0  0  0  0  0  0  0  0  0  0  0
   53.9392   23.4250   47.3566 H   0  0  0  0  0  0  0  0  0  0  0  0
   55.0161   21.9873   47.3566 H   0  0  0  0  0  0  0  0  0  0  0  0
   54.2780   23.5470   44.9060 C   0  0  0  0  0  0  0  0  0  0  0  0
   53.3584   23.6010   45.5072 H   0  0  0  0  0  0  0  0  0  0  0  0
   54.3543   24.4422   44.2714 H   0  0  0  0  0  0  0  0  0  0  0  0
   54.2490   22.6490   44.2714 H   0  0  0  0  0  0  0  0  0  0  0  0
   56.4210   22.3520   45.3120 C   0  0  0  0  0  0  0  0  0  0  0  0
   56.8650   21.8083   46.1589 H   0  0  0  0  0  0  0  0  0  0  0  0
   55.8298   21.6560   44.6988 H   0  0  0  0  0  0  0  0  0  0  0  0
   57.2212   22.7921   44.6988 H   0  0  0  0  0  0  0  0  0  0  0  0
   57.7290   24.6920   46.0250 C   0  0  0  0  0  0  0  0  0  0  0  0
   58.1993   23.6992   45.9693 H   0  0  0  0  0  0  0  0  0  0  0  0
   60.6450   28.2160   45.1580 C   0  0  0  0  0  0  0  0  0  0  0  0
   60.1380   27.6807   44.3417 H   0  0  0  0  0  0  0  0  0  0  0  0
   61.7026   28.3639   44.8942 H   0  0  0  0  0  0  0  0  0  0  0  0
  1  2  1  0
  2  3  1  0
  3  4  2  0
  3  5  1  0
  5  6  2  0
  6  7  1  0
  7  8  1  0
  8  9  1  0
  8 10  2  0
 10 11  1  0
 10 12  1  0
 12 13  1  0
 12 14  2  0
 14 15  1  0
  2 16  2  3
 16 17  1  0
 17 18  2  0
 18 19  1  0
 18 20  1  0
 20 21  1  0
 20 22  2  0
 22 23  1  0
 22 24  1  0
 24 25  1  0
 24 26  2  0
 26 27  1  0
 27 28  2  0
 28 29  1  0
 29 30  1  0
 30 31  2  0
 31 32  1  0
 31 33  1  0
 33 34  1  0
 33 35  2  0
 35 36  1  0
 35 37  1  0
 37 38  1  0
 38 39  1  0
 39 40  1  0
 39 41  1  0
 39 42  1  0
 38 43  1  0
 43 44  1  0
 43 45  1  0
 43 46  1  0
 38 47  1  0
 47 48  1  0
 47 49  1  0
 47 50  1  0
 37 51  2  0
 51 52  1  0
 28 53  1  0
 53 54  1  0
 53 55  1  0
 14  6  1  0
 53 16  1  0
 26 17  1  0
 51 30  1  0
M  CHG  2   7  -1  36  -1
M  END
>  <UniqueID>  (27) 
25

>  <SMILES>  (27) 
CC(C)(C)c1cc(SC2=Nc3ccccc3C(=CC(=O)/N=c3\cccc[n-]3)C2)ccc1[O-]

>  <Energy>  (27) 
82.1927372260955

>  <Genealogy>  (27) 
CC(C)(C)c1cc(SC2=Nc3ccccc3C(=CC(=O)N=c3cccc[n-]3)C2)ccc1[O-] (protonated)
CC(C)(C)c1cc(SC2=Nc3ccccc3C(=CC(=O)/N=c3\cccc[n-]3)C2)ccc1[O-] (cis-trans isomerization)
CC(C)(C)c1cc(SC2=Nc3ccccc3C(=CC(=O)/N=c3\cccc[n-]3)C2)ccc1[O-] (3D coordinates assigned)
CC(C)(C)c1cc(SC2=Nc3ccccc3C(=CC(=O)/N=c3\cccc[n-]3)C2)ccc1[O-] (nonaromatic ring conformer: 82.1927372260955 kcal/mol)

>  <smiles>  (27) 
CC(C)(C)c1cc(SC2=Nc3ccccc3C(=CC(=O)N=c3cccc[nH]3)C2)ccc1O

>  <score_type>  (27) 
oracle

>  <origin>  (27) 
adg

>  <m_score__min__energy>  (27) 
-14.720000000000001

>  <m_primary>  (27) 
energy

$$$$
27:0
     RDKit          3D

 45 48  0  0  0  0  0  0  0  0999 V2000
   55.1390   26.6640   46.0630 N   0  0  0  0  0  0  0  0  0  0  0  0
   56.4420   26.2540   46.4720 C   0  0  0  0  0  0  0  0  0  0  0  0
   56.6030   25.0890   46.9290 O   0  0  0  0  0  0  0  0  0  0  0  0
   57.5940   27.1800   46.3630 C   0  0  0  0  0  0  0  0  0  0  0  0
   58.8900   26.7500   46.6970 C   0  0  0  0  0  0  0  0  0  0  0  0
   59.9740   27.6230   46.5900 C   0  0  0  0  0  0  0  0  0  0  0  0
   59.7800   28.9350   46.1530 C   0  0  0  0  0  0  0  0  0  0  0  0
   58.4950   29.3890   45.8130 C   0  0  0  0  0  0  0  0  0  0  0  0
   58.2840   30.7840   45.3610 C   0  0  0  0  0  0  0  0  0  0  0  0
   57.9470   31.1570   44.1130 C   0  0  0  0  0  0  0  0  0  0  0  0
   57.7480   32.6510   44.0160 C   0  0  0  0  0  0  0  0  0  0  0  0
   58.5010   33.0650   45.2650 C   0  0  1  0  0  0  0  0  0  0  0  0
   58.3100   34.2910   46.1180 C   0  0  0  0  0  0  0  0  0  0  0  0
   58.8470   33.8760   47.4420 N   0  0  0  0  0  0  0  0  0  0  0  0
   60.0700   34.5920   47.8760 C   0  0  0  0  0  0  0  0  0  0  0  0
   61.3420   33.7620   47.8500 C   0  0  0  0  0  0  0  0  0  0  0  0
   62.2100   33.8230   46.7470 C   0  0  0  0  0  0  0  0  0  0  0  0
   63.3710   33.0480   46.7340 C   0  0  0  0  0  0  0  0  0  0  0  0
   63.6520   32.2170   47.7730 N   0  0  0  0  0  0  0  0  0  0  0  0
   62.8110   32.1070   48.8370 C   0  0  0  0  0  0  0  0  0  0  0  0
   61.6390   32.8660   48.8900 C   0  0  0  0  0  0  0  0  0  0  0  0
   58.9700   32.3920   47.4240 C   0  0  0  0  0  0  0  0  0  0  0  0
   58.1400   31.9830   46.2290 C   0  0  2  0  0  0  0  0  0  0  0  0
   57.4070   28.5040   45.9210 C   0  0  0  0  0  0  0  0  0  0  0  0
   54.4670   27.0800   46.7450 H   0  0  0  0  0  0  0  0  0  0  0  0
   59.0510   25.7190   47.0449 H   0  0  0  0  0  0  0  0  0  0  0  0
   60.9848   27.2761   46.8509 H   0  0  0  0  0  0  0  0  0  0  0  0
   60.6391   29.6174   46.0745 H   0  0  0  0  0  0  0  0  0  0  0  0
   57.8310   30.4611   43.2691 H   0  0  0  0  0  0  0  0  0  0  0  0
   58.1980   33.0698   43.1038 H   0  0  0  0  0  0  0  0  0  0  0  0
   56.7028   32.9888   43.9567 H   0  0  0  0  0  0  0  0  0  0  0  0
   59.4864   33.2738   44.8230 H   0  0  0  0  0  0  0  0  0  0  0  0
   58.8750   35.1439   45.7137 H   0  0  0  0  0  0  0  0  0  0  0  0
   57.2625   34.6235   46.1642 H   0  0  0  0  0  0  0  0  0  0  0  0
   60.2131   35.4570   47.2117 H   0  0  0  0  0  0  0  0  0  0  0  0
   59.9063   34.8717   48.9272 H   0  0  0  0  0  0  0  0  0  0  0  0
   61.9755   34.4795   45.8961 H   0  0  0  0  0  0  0  0  0  0  0  0
   64.0613   33.1098   45.8798 H   0  0  0  0  0  0  0  0  0  0  0  0
   64.5230   31.6420   47.7480 H   0  0  0  0  0  0  0  0  0  0  0  0
   63.0548   31.4177   49.6589 H   0  0  0  0  0  0  0  0  0  0  0  0
   60.9519   32.7622   49.7427 H   0  0  0  0  0  0  0  0  0  0  0  0
   60.0190   32.0860   47.2973 H   0  0  0  0  0  0  0  0  0  0  0  0
   58.6329   31.9230   48.3602 H   0  0  0  0  0  0  0  0  0  0  0  0
   57.1712   31.7768   46.7075 H   0  0  0  0  0  0  0  0  0  0  0  0
   56.3970   28.8506   45.6568 H   0  0  0  0  0  0  0  0  0  0  0  0
  1  2  1  0
  2  3  2  0
  2  4  1  0
  4  5  2  0
  5  6  1  0
  6  7  2  0
  7  8  1  0
  8  9  1  0
  9 10  2  0
 10 11  1  0
 11 12  1  0
 12 13  1  0
 13 14  1  0
 14 15  1  0
 15 16  1  0
 16 17  2  0
 17 18  1  0
 18 19  2  0
 19 20  1  0
 20 21  2  0
 14 22  1  0
 22 23  1  0
  8 24  2  0
 24  4  1  0
 23  9  1  0
 23 12  1  0
 21 16  1  0
  1 25  1  0
  5 26  1  0
  6 27  1  0
  7 28  1  0
 10 29  1  0
 11 30  1  0
 11 31  1  0
 12 32  1  6
 13 33  1  0
 13 34  1  0
 15 35  1  0
 15 36  1  0
 17 37  1  0
 18 38  1  0
 19 39  1  0
 20 40  1  0
 21 41  1  0
 22 42  1  0
 22 43  1  0
 23 44  1  1
 24 45  1  0
M  CHG  2   1  -1  19   1
M  END
>  <UniqueID>  (28) 
26

>  <SMILES>  (28) 
[NH-]C(=O)c1cccc(C2=CC[C@H]3CN(Cc4cc[nH+]cc4)C[C@H]23)c1

>  <Energy>  (28) 
99.72628798260153

>  <Genealogy>  (28) 
[NH-]C(=O)c1cccc(C2=CCC3CN(Cc4cc[nH+]cc4)CC23)c1 (protonated)
[NH-]C(=O)c1cccc(C2=CC[C@H]3CN(Cc4cc[nH+]cc4)C[C@H]23)c1 (chirality)
[NH-]C(=O)c1cccc(C2=CC[C@H]3CN(Cc4cc[nH+]cc4)C[C@H]23)c1 (3D coordinates assigned)
[NH-]C(=O)c1cccc(C2=CC[C@H]3CN(Cc4cc[nH+]cc4)C[C@H]23)c1 (nonaromatic ring conformer: 99.72628798260153 kcal/mol)

>  <smiles>  (28) 
NC(=O)c1cccc(C2=CCC3CN(Cc4ccncc4)CC23)c1

>  <score_type>  (28) 
oracle

>  <origin>  (28) 
adg

>  <m_score__min__energy>  (28) 
-11.960000000000001

>  <m_primary>  (28) 
energy

$$$$
28:0
     RDKit          3D

 55 58  0  0  0  0  0  0  0  0999 V2000
   57.5000   25.6360   43.0610 C   0  0  0  0  0  0  0  0  0  0  0  0
   57.8470   25.8720   44.3360 C   0  0  0  0  0  0  0  0  0  0  0  0
   57.4010   25.1810   45.4770 C   0  0  0  0  0  0  0  0  0  0  0  0
   56.7040   24.0340   45.6070 C   0  0  0  0  0  0  0  0  0  0  0  0
   55.2410   23.8980   45.5010 C   0  0  0  0  0  0  0  0  0  0  0  0
   54.5910   22.7280   45.3700 N   0  0  0  0  0  0  0  0  0  0  0  0
   53.2890   23.0830   45.4530 C   0  0  0  0  0  0  0  0  0  0  0  0
   52.3520   22.2490   45.3590 O   0  0  0  0  0  0  0  0  0  0  0  0
   53.0740   24.4010   45.6570 N   0  0  0  0  0  0  0  0  0  0  0  0
   54.3190   24.9020   45.6990 C   0  0  0  0  0  0  0  0  0  0  0  0
   54.5970   26.2500   45.9140 O   0  0  0  0  0  0  0  0  0  0  0  0
   57.8380   25.9130   46.5670 C   0  0  0  0  0  0  0  0  0  0  0  0
   58.5870   26.9610   46.0710 C   0  0  0  0  0  0  0  0  0  0  0  0
   59.2860   27.9400   46.9240 C   0  0  0  0  0  0  0  0  0  0  0  0
   60.3210   27.5700   47.5400 O   0  0  0  0  0  0  0  0  0  0  0  0
   58.8380   29.3060   47.0390 N   0  0  0  0  0  0  0  0  0  0  0  0
   58.0190   29.9320   45.9910 C   0  0  0  0  0  0  0  0  0  0  0  0
   58.5700   31.3210   45.6500 C   0  0  0  0  0  0  0  0  0  0  0  0
   58.9010   32.1030   46.8550 N   0  0  0  0  0  0  0  0  0  0  0  0
   59.3720   33.4600   46.6820 C   0  0  0  0  0  0  0  0  0  0  0  0
   59.2550   34.0170   45.5570 O   0  0  0  0  0  0  0  0  0  0  0  0
   60.0100   34.2530   47.7940 C   0  0  0  0  0  0  0  0  0  0  0  0
   61.4470   33.8500   48.0070 C   0  0  0  0  0  0  0  0  0  0  0  0
   62.3310   33.7840   46.9150 C   0  0  0  0  0  0  0  0  0  0  0  0
   63.6580   33.3880   47.1040 C   0  0  0  0  0  0  0  0  0  0  0  0
   64.1140   33.0460   48.3790 C   0  0  0  0  0  0  0  0  0  0  0  0
   63.2370   33.0910   49.4690 C   0  0  0  0  0  0  0  0  0  0  0  0
   63.6850   32.7360   50.7350 O   0  0  0  0  0  0  0  0  0  0  0  0
   61.9090   33.4880   49.2840 C   0  0  0  0  0  0  0  0  0  0  0  0
   58.6660   31.5040   48.1780 C   0  0  0  0  0  0  0  0  0  0  0  0
   59.2410   30.0880   48.2170 C   0  0  0  0  0  0  0  0  0  0  0  0
   58.5910   26.9450   44.7170 N   0  0  0  0  0  0  0  0  0  0  0  0
   59.1700   27.9650   43.8340 C   0  0  0  0  0  0  0  0  0  0  0  0
   57.9220   26.2519   42.2531 H   0  0  0  0  0  0  0  0  0  0  0  0
   56.7937   24.8267   42.8240 H   0  0  0  0  0  0  0  0  0  0  0  0
   57.2790   23.1185   45.8103 H   0  0  0  0  0  0  0  0  0  0  0  0
   54.3260   26.7130   46.7750 H   0  0  0  0  0  0  0  0  0  0  0  0
   57.6286   25.7005   47.6258 H   0  0  0  0  0  0  0  0  0  0  0  0
   58.0381   29.3019   45.0896 H   0  0  0  0  0  0  0  0  0  0  0  0
   56.9860   30.0343   46.3549 H   0  0  0  0  0  0  0  0  0  0  0  0
   59.4807   31.2015   45.0447 H   0  0  0  0  0  0  0  0  0  0  0  0
   57.7898   31.8664   45.0987 H   0  0  0  0  0  0  0  0  0  0  0  0
   59.9730   35.3220   47.5372 H   0  0  0  0  0  0  0  0  0  0  0  0
   59.4547   34.0534   48.7223 H   0  0  0  0  0  0  0  0  0  0  0  0
   61.9762   34.0454   45.9071 H   0  0  0  0  0  0  0  0  0  0  0  0
   64.3452   33.3456   46.2461 H   0  0  0  0  0  0  0  0  0  0  0  0
   65.1608   32.7417   48.5264 H   0  0  0  0  0  0  0  0  0  0  0  0
   61.2221   33.5171   50.1427 H   0  0  0  0  0  0  0  0  0  0  0  0
   59.1554   32.1178   48.9485 H   0  0  0  0  0  0  0  0  0  0  0  0
   57.5836   31.4610   48.3692 H   0  0  0  0  0  0  0  0  0  0  0  0
   60.3389   30.1495   48.2457 H   0  0  0  0  0  0  0  0  0  0  0  0
   58.8514   29.5837   49.1136 H   0  0  0  0  0  0  0  0  0  0  0  0
   59.6225   28.7622   44.4420 H   0  0  0  0  0  0  0  0  0  0  0  0
   59.9417   27.5051   43.1992 H   0  0  0  0  0  0  0  0  0  0  0  0
   58.3796   28.3919   43.1992 H   0  0  0  0  0  0  0  0  0  0  0  0
  1  2  2  0
  2  3  1  0
  3  4  2  3
  4  5  1  0
  5  6  1  0
  6  7  1  0
  7  8  2  0
  7  9  1  0
  9 10  1  0
 10 11  1  0
  3 12  1  0
 12 13  2  0
 13 14  1  0
 14 15  2  0
 14 16  1  0
 16 17  1  0
 17 18  1  0
 18 19  1  0
 19 20  1  0
 20 21  2  0
 20 22  1  0
 22 23  1  0
 23 24  2  0
 24 25  1  0
 25 26  2  0
 26 27  1  0
 27 28  1  0
 27 29  2  0
 19 30  1  0
 30 31  1  0
 13 32  1  0
 32 33  1  0
 32  2  1  0
 10  5  2  0
 31 16  1  0
 29 23  1  0
  1 34  1  0
  1 35  1  0
  4 36  1  0
 11 37  1  0
 12 38  1  0
 17 39  1  0
 17 40  1  0
 18 41  1  0
 18 42  1  0
 22 43  1  0
 22 44  1  0
 24 45  1  0
 25 46  1  0
 26 47  1  0
 29 48  1  0
 30 49  1  0
 30 50  1  0
 31 51  1  0
 31 52  1  0
 33 53  1  0
 33 54  1  0
 33 55  1  0
M  CHG  3   6  -1   9  -1  28  -1
M  END
>  <UniqueID>  (29) 
27

>  <SMILES>  (29) 
C=c1c(=Cc2[n-]c(=O)[n-]c2O)cc(C(=O)N2CCN(C(=O)Cc3cccc([O-])c3)CC2)n1C

>  <Energy>  (29) 
133.04928460222388

>  <Genealogy>  (29) 
C=c1c(=Cc2[n-]c(=O)[n-]c2O)cc(C(=O)N2CCN(C(=O)Cc3cccc([O-])c3)CC2)n1C (protonated)
C=c1c(=Cc2[n-]c(=O)[n-]c2O)cc(C(=O)N2CCN(C(=O)Cc3cccc([O-])c3)CC2)n1C (3D coordinates assigned)
C=c1c(=Cc2[n-]c(=O)[n-]c2O)cc(C(=O)N2CCN(C(=O)Cc3cccc([O-])c3)CC2)n1C (nonaromatic ring conformer: 133.04928460222388 kcal/mol)

>  <smiles>  (29) 
C=c1c(=Cc2[nH]c(=O)[nH]c2O)cc(C(=O)N2CCN(C(=O)Cc3cccc(O)c3)CC2)n1C

>  <score_type>  (29) 
oracle

>  <origin>  (29) 
adg

>  <m_score__min__energy>  (29) 
-14.23

>  <m_primary>  (29) 
energy

$$$$
29:0
     RDKit          3D

 65 68  0  0  0  0  0  0  0  0999 V2000
   63.1450   33.5430   51.1660 C   0  0  0  0  0  0  0  0  0  0  0  0
   62.9040   33.2060   49.7700 N   0  0  0  0  0  0  0  0  0  0  0  0
   63.7150   33.4780   48.7430 C   0  0  0  0  0  0  0  0  0  0  0  0
   63.1380   32.9990   47.5850 C   0  0  0  0  0  0  0  0  0  0  0  0
   63.6660   33.0910   46.3430 F   0  0  0  0  0  0  0  0  0  0  0  0
   61.9300   32.4200   47.9780 C   0  0  0  0  0  0  0  0  0  0  0  0
   61.0200   31.8040   47.0560 C   0  0  0  0  0  0  0  0  0  0  0  0
   61.2920   30.6810   46.5360 O   0  0  0  0  0  0  0  0  0  0  0  0
   59.7820   32.3890   46.6680 N   0  0  0  0  0  0  0  0  0  0  0  0
   59.6410   33.8230   46.4990 C   0  0  0  0  0  0  0  0  0  0  0  0
   59.2390   34.1880   45.0980 C   0  0  0  0  0  0  0  0  0  0  0  0
   58.4930   33.1130   44.4400 C   0  0  0  0  0  0  0  0  0  0  0  0
   57.9830   33.0780   43.1830 N   0  0  0  0  0  0  0  0  0  0  0  0
   57.3790   31.9160   42.9840 N   0  0  0  0  0  0  0  0  0  0  0  0
   57.4650   31.1520   44.0870 C   0  0  0  0  0  0  0  0  0  0  0  0
   56.9330   29.8070   44.2790 C   0  0  0  0  0  0  0  0  0  0  0  0
   57.3310   28.7690   43.3910 N   0  0  0  0  0  0  0  0  0  0  0  0
   56.1170   29.5540   45.2310 O   0  0  0  0  0  0  0  0  0  0  0  0
   58.1660   31.9020   45.0070 C   0  0  0  0  0  0  0  0  0  0  0  0
   58.5810   31.5940   46.4180 C   0  0  0  0  0  0  0  0  0  0  0  0
   61.7950   32.5580   49.3580 C   0  0  0  0  0  0  0  0  0  0  0  0
   60.6420   32.0740   50.2020 C   0  0  0  0  0  0  0  0  0  0  0  0
   59.5210   32.9910   49.9690 C   0  0  0  0  0  0  0  0  0  0  0  0
   58.1580   32.3660   49.8790 C   0  0  0  0  0  0  0  0  0  0  0  0
   58.1630   31.0030   50.4240 N   0  0  0  0  0  0  0  0  0  0  0  0
   57.2890   30.6490   51.4750 C   0  0  0  0  0  0  0  0  0  0  0  0
   56.5140   31.5460   51.9060 O   0  0  0  0  0  0  0  0  0  0  0  0
   57.2370   29.4100   52.0430 O   0  0  0  0  0  0  0  0  0  0  0  0
   57.9520   29.0900   53.2300 C   0  0  0  0  0  0  0  0  0  0  0  0
   59.3340   28.5770   52.9860 C   0  0  0  0  0  0  0  0  0  0  0  0
   57.1500   28.0080   53.9270 C   0  0  0  0  0  0  0  0  0  0  0  0
   57.9510   30.2810   54.1940 C   0  0  0  0  0  0  0  0  0  0  0  0
   59.1100   30.0890   49.8100 C   0  0  0  0  0  0  0  0  0  0  0  0
   60.4720   30.6230   50.0700 C   0  0  0  0  0  0  0  0  0  0  0  0
   62.6273   32.8191   51.8126 H   0  0  0  0  0  0  0  0  0  0  0  0
   64.2254   33.5098   51.3700 H   0  0  0  0  0  0  0  0  0  0  0  0
   62.7643   34.5547   51.3700 H   0  0  0  0  0  0  0  0  0  0  0  0
   64.6822   33.9976   48.8100 H   0  0  0  0  0  0  0  0  0  0  0  0
   58.8723   34.1888   47.1957 H   0  0  0  0  0  0  0  0  0  0  0  0
   60.6171   34.2868   46.7041 H   0  0  0  0  0  0  0  0  0  0  0  0
   58.6071   35.0877   45.1335 H   0  0  0  0  0  0  0  0  0  0  0  0
   60.1567   34.3667   44.5185 H   0  0  0  0  0  0  0  0  0  0  0  0
   56.8950   31.6320   42.0820 H   0  0  0  0  0  0  0  0  0  0  0  0
   56.6890   27.9820   43.1370 H   0  0  0  0  0  0  0  0  0  0  0  0
   58.2930   28.7790   42.9720 H   0  0  0  0  0  0  0  0  0  0  0  0
   57.7832   31.8755   47.1210 H   0  0  0  0  0  0  0  0  0  0  0  0
   58.7733   30.5197   46.5558 H   0  0  0  0  0  0  0  0  0  0  0  0
   60.7978   32.1322   51.2894 H   0  0  0  0  0  0  0  0  0  0  0  0
   59.5034   33.7159   50.7962 H   0  0  0  0  0  0  0  0  0  0  0  0
   59.7060   33.4353   48.9799 H   0  0  0  0  0  0  0  0  0  0  0  0
   57.4440   32.9781   50.4495 H   0  0  0  0  0  0  0  0  0  0  0  0
   57.8661   32.3169   48.8196 H   0  0  0  0  0  0  0  0  0  0  0  0
   59.8319   28.3922   53.9493 H   0  0  0  0  0  0  0  0  0  0  0  0
   59.2812   27.6386   52.4145 H   0  0  0  0  0  0  0  0  0  0  0  0
   59.9063   29.3226   52.4145 H   0  0  0  0  0  0  0  0  0  0  0  0
   57.2399   28.1293   55.0166 H   0  0  0  0  0  0  0  0  0  0  0  0
   56.0926   28.0897   53.6350 H   0  0  0  0  0  0  0  0  0  0  0  0
   57.5357   27.0201   53.6350 H   0  0  0  0  0  0  0  0  0  0  0  0
   57.9513   29.9135   55.2308 H   0  0  0  0  0  0  0  0  0  0  0  0
   58.8486   30.8930   54.0216 H   0  0  0  0  0  0  0  0  0  0  0  0
   57.0523   30.8915   54.0216 H   0  0  0  0  0  0  0  0  0  0  0  0
   59.0076   29.0873   50.2529 H   0  0  0  0  0  0  0  0  0  0  0  0
   58.9247   30.0046   48.7290 H   0  0  0  0  0  0  0  0  0  0  0  0
   60.8256   30.1682   51.0071 H   0  0  0  0  0  0  0  0  0  0  0  0
   61.0390   30.3671   49.1628 H   0  0  0  0  0  0  0  0  0  0  0  0
  1  2  1  0
  2  3  1  0
  3  4  2  0
  4  5  1  0
  4  6  1  0
  6  7  1  0
  7  8  2  0
  7  9  1  0
  9 10  1  0
 10 11  1  0
 11 12  1  0
 12 13  2  0
 13 14  1  0
 14 15  1  0
 15 16  1  0
 16 17  1  0
 16 18  2  0
 15 19  2  0
 19 20  1  0
  6 21  2  0
 21 22  1  0
 22 23  1  0
 23 24  1  0
 24 25  1  0
 25 26  1  0
 26 27  2  0
 26 28  1  0
 28 29  1  0
 29 30  1  0
 29 31  1  0
 29 32  1  0
 25 33  1  0
 33 34  1  0
 21  2  1  0
 34 22  1  0
 20  9  1  0
 19 12  1  0
  1 35  1  0
  1 36  1  0
  1 37  1  0
  3 38  1  0
 10 39  1  0
 10 40  1  0
 11 41  1  0
 11 42  1  0
 14 43  1  0
 17 44  1  0
 17 45  1  0
 20 46  1  0
 20 47  1  0
 22 48  1  0
 23 49  1  0
 23 50  1  0
 24 51  1  0
 24 52  1  0
 30 53  1  0
 30 54  1  0
 30 55  1  0
 31 56  1  0
 31 57  1  0
 31 58  1  0
 32 59  1  0
 32 60  1  0
 32 61  1  0
 33 62  1  0
 33 63  1  0
 34 64  1  0
 34 65  1  0
M  END
>  <smiles>  (30) 
Cn1cc(F)c(C(=O)N2CCc3n[nH]c(C(N)=O)c3C2)c1C1CCN(C(=O)OC(C)(C)C)CC1

>  <score_type>  (30) 
oracle

>  <origin>  (30) 
adg

>  <m_score__min__energy>  (30) 
-9.4199999999999999

>  <m_primary>  (30) 
energy

$$$$
30:0
     RDKit          3D

 52 55  0  0  0  0  0  0  0  0999 V2000
   59.7100   27.5700   46.9570 C   0  0  0  0  0  0  0  0  0  0  0  0
   59.1790   28.3820   46.0280 C   0  0  0  0  0  0  0  0  0  0  0  0
   58.1820   28.0610   45.0910 C   0  0  0  0  0  0  0  0  0  0  0  0
   57.6450   26.8780   44.7390 C   0  0  0  0  0  0  0  0  0  0  0  0
   57.1260   25.8600   45.6660 C   0  0  0  0  0  0  0  0  0  0  0  0
   57.8870   24.8940   46.2100 N   0  0  0  0  0  0  0  0  0  0  0  0
   57.0460   24.2860   47.0760 C   0  0  0  0  0  0  0  0  0  0  0  0
   57.3940   23.3030   47.7790 O   0  0  0  0  0  0  0  0  0  0  0  0
   55.8090   24.8240   47.1380 N   0  0  0  0  0  0  0  0  0  0  0  0
   55.8800   25.8280   46.2500 C   0  0  0  0  0  0  0  0  0  0  0  0
   54.8380   26.7140   46.0010 O   0  0  0  0  0  0  0  0  0  0  0  0
   57.7970   29.2600   44.5130 C   0  0  0  0  0  0  0  0  0  0  0  0
   58.5990   30.2430   45.0520 C   0  0  0  0  0  0  0  0  0  0  0  0
   58.5470   31.6890   44.6610 C   0  0  0  0  0  0  0  0  0  0  0  0
   59.4350   29.7140   45.9740 N   0  0  0  0  0  0  0  0  0  0  0  0
   60.3920   30.4400   46.7660 C   0  0  0  0  0  0  0  0  0  0  0  0
   61.5960   30.4860   46.3870 O   0  0  0  0  0  0  0  0  0  0  0  0
   60.0030   31.0360   48.0250 N   0  0  0  0  0  0  0  0  0  0  0  0
   59.7290   29.9910   49.0530 C   0  0  0  0  0  0  0  0  0  0  0  0
   58.5560   30.3260   49.9970 C   0  0  0  0  0  0  0  0  0  0  0  0
   58.4650   31.7730   50.2330 N   0  0  0  0  0  0  0  0  0  0  0  0
   58.2850   32.3040   51.5600 C   0  0  0  0  0  0  0  0  0  0  0  0
   58.8460   33.3900   51.8720 O   0  0  0  0  0  0  0  0  0  0  0  0
   57.4510   31.6120   52.5700 C   0  0  0  0  0  0  0  0  0  0  0  0
   57.8960   31.5070   53.9000 C   0  0  0  0  0  0  0  0  0  0  0  0
   57.1070   30.8670   54.8610 C   0  0  0  0  0  0  0  0  0  0  0  0
   55.8630   30.3370   54.5060 C   0  0  0  0  0  0  0  0  0  0  0  0
   55.4040   30.4530   53.1930 C   0  0  0  0  0  0  0  0  0  0  0  0
   56.1900   31.0920   52.2280 C   0  0  0  0  0  0  0  0  0  0  0  0
   58.5330   32.6980   49.0970 C   0  0  0  0  0  0  0  0  0  0  0  0
   58.8640   31.9490   47.8020 C   0  0  0  0  0  0  0  0  0  0  0  0
   60.4900   27.9462   47.6353 H   0  0  0  0  0  0  0  0  0  0  0  0
   59.3649   26.5288   47.0395 H   0  0  0  0  0  0  0  0  0  0  0  0
   57.5892   26.6524   43.6638 H   0  0  0  0  0  0  0  0  0  0  0  0
   57.0021   29.4007   43.7658 H   0  0  0  0  0  0  0  0  0  0  0  0
   58.5246   32.3131   45.5665 H   0  0  0  0  0  0  0  0  0  0  0  0
   59.4367   31.9398   44.0648 H   0  0  0  0  0  0  0  0  0  0  0  0
   57.6416   31.8753   44.0648 H   0  0  0  0  0  0  0  0  0  0  0  0
   60.8030   31.6230   48.3640 H   0  0  0  0  0  0  0  0  0  0  0  0
   59.4965   29.0492   48.5343 H   0  0  0  0  0  0  0  0  0  0  0  0
   60.6298   29.9204   49.6803 H   0  0  0  0  0  0  0  0  0  0  0  0
   57.6175   29.9763   49.5422 H   0  0  0  0  0  0  0  0  0  0  0  0
   58.7284   29.8246   50.9608 H   0  0  0  0  0  0  0  0  0  0  0  0
   58.8701   31.9306   54.1859 H   0  0  0  0  0  0  0  0  0  0  0  0
   57.4656   30.7805   55.8973 H   0  0  0  0  0  0  0  0  0  0  0  0
   55.2459   29.8286   55.2615 H   0  0  0  0  0  0  0  0  0  0  0  0
   54.4222   30.0412   52.9164 H   0  0  0  0  0  0  0  0  0  0  0  0
   55.8198   31.1881   51.1966 H   0  0  0  0  0  0  0  0  0  0  0  0
   57.5616   33.2015   48.9837 H   0  0  0  0  0  0  0  0  0  0  0  0
   59.3269   33.4345   49.2901 H   0  0  0  0  0  0  0  0  0  0  0  0
   57.9869   31.3665   47.4835 H   0  0  0  0  0  0  0  0  0  0  0  0
   59.1313   32.6767   47.0216 H   0  0  0  0  0  0  0  0  0  0  0  0
  1  2  2  0
  2  3  1  0
  3  4  2  3
  4  5  1  0
  5  6  1  0
  6  7  1  0
  7  8  2  0
  7  9  1  0
  9 10  1  0
 10 11  1  0
  3 12  1  0
 12 13  2  0
 13 14  1  0
 13 15  1  0
 15 16  1  0
 16 17  2  0
 16 18  1  0
 18 19  1  0
 19 20  1  0
 20 21  1  0
 21 22  1  0
 22 23  2  0
 22 24  1  0
 24 25  2  0
 25 26  1  0
 26 27  2  0
 27 28  1  0
 28 29  2  0
 21 30  1  0
 30 31  1  0
 15  2  1  0
 31 18  1  0
 10  5  2  0
 29 24  1  0
  1 32  1  0
  1 33  1  0
  4 34  1  0
 12 35  1  0
 14 36  1  0
 14 37  1  0
 14 38  1  0
 18 39  1  0
 19 40  1  0
 19 41  1  0
 20 42  1  0
 20 43  1  0
 25 44  1  0
 26 45  1  0
 27 46  1  0
 28 47  1  0
 29 48  1  0
 30 49  1  0
 30 50  1  0
 31 51  1  0
 31 52  1  0
M  CHG  4   6  -1   9  -1  11  -1  18   1
M  END
>  <UniqueID>  (31) 
28

>  <SMILES>  (31) 
C=c1c(=Cc2[n-]c(=O)[n-]c2[O-])cc(C)n1C(=O)[NH+]1CCN(C(=O)c2ccccc2)CC1

>  <Energy>  (31) 
142.56278422656783

>  <Genealogy>  (31) 
C=c1c(=Cc2[n-]c(=O)[n-]c2[O-])cc(C)n1C(=O)[NH+]1CCN(C(=O)c2ccccc2)CC1 (protonated)
C=c1c(=Cc2[n-]c(=O)[n-]c2[O-])cc(C)n1C(=O)[NH+]1CCN(C(=O)c2ccccc2)CC1 (3D coordinates assigned)
C=c1c(=Cc2[n-]c(=O)[n-]c2[O-])cc(C)n1C(=O)[NH+]1CCN(C(=O)c2ccccc2)CC1 (nonaromatic ring conformer: 142.56278422656783 kcal/mol)

>  <smiles>  (31) 
C=c1c(=Cc2[nH]c(=O)[nH]c2O)cc(C)n1C(=O)N1CCN(C(=O)c2ccccc2)CC1

>  <score_type>  (31) 
oracle

>  <origin>  (31) 
adg

>  <m_score__min__energy>  (31) 
-16.109999999999999

>  <m_primary>  (31) 
energy

$$$$
31:0
     RDKit          3D

 36 38  0  0  0  0  0  0  0  0999 V2000
   54.5880   24.5560   44.6290 H   0  0  0  0  0  0  0  0  0  0  0  0
   55.0080   23.7500   44.1820 O   0  0  0  0  0  0  0  0  0  0  0  0
   56.2740   23.2790   44.5330 C   0  0  0  0  0  0  0  0  0  0  0  0
   56.8860   22.3110   43.7300 C   0  0  0  0  0  0  0  0  0  0  0  0
   56.3703   21.9353   42.8340 H   0  0  0  0  0  0  0  0  0  0  0  0
   58.1490   21.8210   44.0630 C   0  0  0  0  0  0  0  0  0  0  0  0
   58.6348   21.0614   43.4328 H   0  0  0  0  0  0  0  0  0  0  0  0
   58.7890   22.3050   45.2040 C   0  0  0  0  0  0  0  0  0  0  0  0
   59.7823   21.9223   45.4813 H   0  0  0  0  0  0  0  0  0  0  0  0
   58.1860   23.2490   45.9730 N   0  0  0  0  0  0  0  0  0  0  0  0
   56.9550   23.7550   45.6700 C   0  0  0  0  0  0  0  0  0  0  0  0
   56.3970   24.6480   46.4350 N   0  0  0  0  0  0  0  0  0  0  0  0
   55.9950   25.9650   46.0260 C   0  0  0  0  0  0  0  0  0  0  0  0
   54.7640   26.2340   45.9820 O   0  0  0  0  0  0  0  0  0  0  0  0
   56.9800   26.9850   45.5880 C   0  0  0  0  0  0  0  0  0  0  0  0
   58.3510   26.6780   45.5540 C   0  0  0  0  0  0  0  0  0  0  0  0
   58.6928   25.6694   45.8296 H   0  0  0  0  0  0  0  0  0  0  0  0
   59.2820   27.6470   45.1720 C   0  0  0  0  0  0  0  0  0  0  0  0
   60.3535   27.3992   45.1491 H   0  0  0  0  0  0  0  0  0  0  0  0
   58.8560   28.9300   44.8190 C   0  0  0  0  0  0  0  0  0  0  0  0
   59.5947   29.6900   44.5246 H   0  0  0  0  0  0  0  0  0  0  0  0
   57.4960   29.2530   44.8380 C   0  0  0  0  0  0  0  0  0  0  0  0
   57.1030   30.5550   44.4940 O   0  0  0  0  0  0  0  0  0  0  0  0
   57.6960   31.7280   44.9820 C   0  0  0  0  0  0  0  0  0  0  0  0
   58.1530   31.7560   46.3060 C   0  0  0  0  0  0  0  0  0  0  0  0
   58.0436   30.8652   46.9420 H   0  0  0  0  0  0  0  0  0  0  0  0
   58.7480   32.9120   46.8230 C   0  0  0  0  0  0  0  0  0  0  0  0
   59.0976   32.9305   47.8658 H   0  0  0  0  0  0  0  0  0  0  0  0
   58.8990   34.0450   46.0150 C   0  0  0  0  0  0  0  0  0  0  0  0
   59.6410   35.4950   46.6660 Cl  0  0  0  0  0  0  0  0  0  0  0  0
   58.4670   34.0160   44.6850 C   0  0  0  0  0  0  0  0  0  0  0  0
   58.5930   34.9028   44.0464 H   0  0  0  0  0  0  0  0  0  0  0  0
   57.8750   32.8600   44.1670 C   0  0  0  0  0  0  0  0  0  0  0  0
   57.5478   32.8359   43.1171 H   0  0  0  0  0  0  0  0  0  0  0  0
   56.5620   28.2830   45.2460 C   0  0  0  0  0  0  0  0  0  0  0  0
   55.4944   28.5428   45.2979 H   0  0  0  0  0  0  0  0  0  0  0  0
  1  2  1  0
  2  3  1  0
  3  4  2  0
  4  5  1  0
  4  6  1  0
  6  7  1  0
  6  8  2  0
  8  9  1  0
  8 10  1  0
 10 11  1  0
 11 12  2  0
 12 13  1  0
 13 14  2  0
 13 15  1  0
 15 16  2  0
 16 17  1  0
 16 18  1  0
 18 19  1  0
 18 20  2  0
 20 21  1  0
 20 22  1  0
 22 23  1  0
 23 24  1  0
 24 25  2  0
 25 26  1  0
 25 27  1  0
 27 28  1  0
 27 29  2  0
 29 30  1  0
 29 31  1  0
 31 32  1  0
 31 33  2  0
 33 34  1  0
 22 35  2  0
 35 36  1  0
 11  3  1  0
 35 15  1  0
 33 24  1  0
M  CHG  1  10  -1
M  END
>  <UniqueID>  (32) 
29

>  <SMILES>  (32) 
O=C(/N=c1\[n-]cccc1O)c1cccc(Oc2ccc(Cl)cc2)c1

>  <Energy>  (32) 
52.21122409178226

>  <Genealogy>  (32) 
O=C(N=c1[n-]cccc1O)c1cccc(Oc2ccc(Cl)cc2)c1 (protonated)
O=C(/N=c1\[n-]cccc1O)c1cccc(Oc2ccc(Cl)cc2)c1 (cis-trans isomerization)
O=C(/N=c1\[n-]cccc1O)c1cccc(Oc2ccc(Cl)cc2)c1 (3D coordinates assigned)
O=C(/N=c1\[n-]cccc1O)c1cccc(Oc2ccc(Cl)cc2)c1 (optimized conformer: 52.21122409178226 kcal/mol)

>  <smiles>  (32) 
O=C(N=c1[nH]cccc1O)c1cccc(Oc2ccc(Cl)cc2)c1

>  <score_type>  (32) 
oracle

>  <origin>  (32) 
adg

>  <m_score__min__energy>  (32) 
-10.82

>  <m_primary>  (32) 
energy

$$$$
32:0
     RDKit          3D

 42 43  0  0  0  0  0  0  0  0999 V2000
   58.5260   33.0920   47.5380 C   0  0  0  0  0  0  0  0  0  0  0  0
   59.9770   32.7810   47.3600 C   0  0  0  0  0  0  0  0  0  0  0  0
   60.9280   33.7350   47.2910 N   0  0  0  0  0  0  0  0  0  0  0  0
   62.0950   33.1230   47.1660 N   0  0  0  0  0  0  0  0  0  0  0  0
   63.3630   33.8190   46.9970 C   0  0  0  0  0  0  0  0  0  0  0  0
   61.9200   31.7900   47.1300 C   0  0  0  0  0  0  0  0  0  0  0  0
   60.5680   31.5270   47.2450 C   0  0  0  0  0  0  0  0  0  0  0  0
   59.9340   30.1880   47.2530 C   0  0  0  0  0  0  0  0  0  0  0  0
   60.4840   29.1580   48.0320 C   0  0  0  0  0  0  0  0  0  0  0  0
   59.9050   27.8860   48.0360 C   0  0  0  0  0  0  0  0  0  0  0  0
   58.7740   27.6280   47.2590 C   0  0  0  0  0  0  0  0  0  0  0  0
   58.2100   28.6450   46.4750 C   0  0  0  0  0  0  0  0  0  0  0  0
   57.0250   28.3560   45.5960 C   0  0  0  0  0  0  0  0  0  0  0  0
   57.3900   28.5760   44.1960 N   0  0  0  0  0  0  0  0  0  0  0  0
   56.6360   30.0240   43.5940 S   0  0  0  0  0  0  0  0  0  0  0  0
   56.0360   29.7410   42.2440 O   0  0  0  0  0  0  0  0  0  0  0  0
   55.5330   30.4190   44.5360 O   0  0  0  0  0  0  0  0  0  0  0  0
   57.8040   31.3820   43.4490 C   0  0  0  0  0  0  0  0  0  0  0  0
   57.5300   32.4500   44.5120 C   0  0  0  0  0  0  0  0  0  0  0  0
   57.7320   31.9910   42.0460 C   0  0  0  0  0  0  0  0  0  0  0  0
   58.8050   29.9170   46.4600 C   0  0  0  0  0  0  0  0  0  0  0  0
   58.2908   33.1424   48.6114 H   0  0  0  0  0  0  0  0  0  0  0  0
   58.2979   34.0594   47.0668 H   0  0  0  0  0  0  0  0  0  0  0  0
   57.9214   32.3030   47.0668 H   0  0  0  0  0  0  0  0  0  0  0  0
   63.7878   34.0521   47.9845 H   0  0  0  0  0  0  0  0  0  0  0  0
   64.0617   33.1779   46.4394 H   0  0  0  0  0  0  0  0  0  0  0  0
   63.1973   34.7526   46.4394 H   0  0  0  0  0  0  0  0  0  0  0  0
   62.7162   31.0381   47.0268 H   0  0  0  0  0  0  0  0  0  0  0  0
   61.3771   29.3534   48.6437 H   0  0  0  0  0  0  0  0  0  0  0  0
   60.3413   27.0864   48.6526 H   0  0  0  0  0  0  0  0  0  0  0  0
   58.3240   26.6242   47.2618 H   0  0  0  0  0  0  0  0  0  0  0  0
   56.7131   27.3102   45.7335 H   0  0  0  0  0  0  0  0  0  0  0  0
   56.1954   29.0252   45.8678 H   0  0  0  0  0  0  0  0  0  0  0  0
   57.0340   27.7740   43.6270 H   0  0  0  0  0  0  0  0  0  0  0  0
   58.8182   30.9890   43.6129 H   0  0  0  0  0  0  0  0  0  0  0  0
   57.6433   32.0085   45.5131 H   0  0  0  0  0  0  0  0  0  0  0  0
   58.2449   33.2775   44.3932 H   0  0  0  0  0  0  0  0  0  0  0  0
   56.5050   32.8311   44.3932 H   0  0  0  0  0  0  0  0  0  0  0  0
   57.6032   33.0805   42.1254 H   0  0  0  0  0  0  0  0  0  0  0  0
   58.6625   31.7704   41.5023 H   0  0  0  0  0  0  0  0  0  0  0  0
   56.8786   31.5595   41.5023 H   0  0  0  0  0  0  0  0  0  0  0  0
   58.3841   30.7083   45.8222 H   0  0  0  0  0  0  0  0  0  0  0  0
  1  2  1  0
  2  3  2  0
  3  4  1  0
  4  5  1  0
  4  6  1  0
  6  7  2  0
  7  8  1  0
  8  9  2  0
  9 10  1  0
 10 11  2  0
 11 12  1  0
 12 13  1  0
 13 14  1  0
 14 15  1  0
 15 16  2  0
 15 17  2  0
 15 18  1  0
 18 19  1  0
 18 20  1  0
 12 21  2  0
  7  2  1  0
 21  8  1  0
  1 22  1  0
  1 23  1  0
  1 24  1  0
  5 25  1  0
  5 26  1  0
  5 27  1  0
  6 28  1  0
  9 29  1  0
 10 30  1  0
 11 31  1  0
 13 32  1  0
 13 33  1  0
 14 34  1  0
 18 35  1  0
 19 36  1  0
 19 37  1  0
 19 38  1  0
 20 39  1  0
 20 40  1  0
 20 41  1  0
 21 42  1  0
M  END
>  <UniqueID>  (33) 
30

>  <SMILES>  (33) 
Cc1nn(C)cc1-c1cccc(CNS(=O)(=O)C(C)C)c1

>  <Energy>  (33) 
61.636669695896934

>  <Genealogy>  (33) 
Cc1nn(C)cc1-c1cccc(CNS(=O)(=O)C(C)C)c1 (3D coordinates assigned)
Cc1nn(C)cc1-c1cccc(CNS(=O)(=O)C(C)C)c1 (optimized conformer: 61.636669695896934 kcal/mol)

>  <smiles>  (33) 
Cc1nn(C)cc1-c1cccc(CNS(=O)(=O)C(C)C)c1

>  <score_type>  (33) 
oracle

>  <origin>  (33) 
adg

>  <m_score__min__energy>  (33) 
-8.4499999999999993

>  <m_primary>  (33) 
energy

$$$$
33:0
     RDKit          3D

 53 56  0  0  0  0  0  0  0  0999 V2000
   55.2070   26.6790   46.0480 N   0  0  0  0  0  0  0  0  0  0  0  0
   56.5580   26.3780   46.3950 C   0  0  0  0  0  0  0  0  0  0  0  0
   56.7780   25.4750   47.2470 O   0  0  0  0  0  0  0  0  0  0  0  0
   57.6820   27.1280   45.7660 C   0  0  0  0  0  0  0  0  0  0  0  0
   57.7690   27.1750   44.3600 C   0  0  0  0  0  0  0  0  0  0  0  0
   58.8050   27.8650   43.7300 C   0  0  0  0  0  0  0  0  0  0  0  0
   59.7750   28.5130   44.4890 C   0  0  0  0  0  0  0  0  0  0  0  0
   59.7110   28.4790   45.8810 C   0  0  0  0  0  0  0  0  0  0  0  0
   58.6630   27.8040   46.5360 C   0  0  0  0  0  0  0  0  0  0  0  0
   58.6350   27.7250   47.9720 N   0  0  0  0  0  0  0  0  0  0  0  0
   59.7470   27.9150   48.8560 C   0  0  0  0  0  0  0  0  0  0  0  0
   60.3830   26.9270   49.3090 O   0  0  0  0  0  0  0  0  0  0  0  0
   60.2110   29.3010   49.1770 C   0  0  0  0  0  0  0  0  0  0  0  0
   58.8590   30.3230   49.8660 S   0  0  0  0  0  0  0  0  0  0  0  0
   58.8170   31.4850   48.4860 C   0  0  0  0  0  0  0  0  0  0  0  0
   58.4070   31.0060   47.2840 N   0  0  0  0  0  0  0  0  0  0  0  0
   58.3460   31.7930   46.1860 C   0  0  0  0  0  0  0  0  0  0  0  0
   57.9120   31.2610   44.9670 C   0  0  0  0  0  0  0  0  0  0  0  0
   57.8450   32.0740   43.8330 C   0  0  0  0  0  0  0  0  0  0  0  0
   58.2180   33.4180   43.9130 C   0  0  0  0  0  0  0  0  0  0  0  0
   58.6610   33.9540   45.1260 C   0  0  0  0  0  0  0  0  0  0  0  0
   58.7260   33.1430   46.2750 C   0  0  0  0  0  0  0  0  0  0  0  0
   59.1680   33.6290   47.5180 C   0  0  0  0  0  0  0  0  0  0  0  0
   59.5430   34.8310   47.6160 O   0  0  0  0  0  0  0  0  0  0  0  0
   59.1980   32.8020   48.6160 N   0  0  0  0  0  0  0  0  0  0  0  0
   59.7080   33.3180   49.9030 C   0  0  0  0  0  0  0  0  0  0  0  0
   61.0880   32.7260   50.2050 C   0  0  0  0  0  0  0  0  0  0  0  0
   61.9830   32.8280   49.0000 C   0  0  0  0  0  0  0  0  0  0  0  0
   62.5680   34.0580   48.6530 C   0  0  0  0  0  0  0  0  0  0  0  0
   63.4290   34.1420   47.5550 C   0  0  0  0  0  0  0  0  0  0  0  0
   63.7190   33.0000   46.8020 C   0  0  0  0  0  0  0  0  0  0  0  0
   63.1510   31.7720   47.1490 C   0  0  0  0  0  0  0  0  0  0  0  0
   62.2890   31.6820   48.2470 C   0  0  0  0  0  0  0  0  0  0  0  0
   54.5680   27.1470   46.7280 H   0  0  0  0  0  0  0  0  0  0  0  0
   57.0103   26.6610   43.7516 H   0  0  0  0  0  0  0  0  0  0  0  0
   58.8553   27.8969   42.6316 H   0  0  0  0  0  0  0  0  0  0  0  0
   60.5932   29.0527   43.9898 H   0  0  0  0  0  0  0  0  0  0  0  0
   60.4872   28.9847   46.4740 H   0  0  0  0  0  0  0  0  0  0  0  0
   61.0254   29.2428   49.9142 H   0  0  0  0  0  0  0  0  0  0  0  0
   60.5567   29.7719   48.2450 H   0  0  0  0  0  0  0  0  0  0  0  0
   57.6233   30.2016   44.9015 H   0  0  0  0  0  0  0  0  0  0  0  0
   57.4984   31.6557   42.8765 H   0  0  0  0  0  0  0  0  0  0  0  0
   58.1630   34.0565   43.0189 H   0  0  0  0  0  0  0  0  0  0  0  0
   58.9593   35.0113   45.1827 H   0  0  0  0  0  0  0  0  0  0  0  0
   59.7875   34.4138   49.8485 H   0  0  0  0  0  0  0  0  0  0  0  0
   59.0122   33.0295   50.7046 H   0  0  0  0  0  0  0  0  0  0  0  0
   61.5429   33.2775   51.0410 H   0  0  0  0  0  0  0  0  0  0  0  0
   60.9687   31.6649   50.4694 H   0  0  0  0  0  0  0  0  0  0  0  0
   62.3477   34.9571   49.2472 H   0  0  0  0  0  0  0  0  0  0  0  0
   63.8792   35.1081   47.2829 H   0  0  0  0  0  0  0  0  0  0  0  0
   64.3944   33.0687   45.9365 H   0  0  0  0  0  0  0  0  0  0  0  0
   63.3820   30.8738   46.5576 H   0  0  0  0  0  0  0  0  0  0  0  0
   61.8497   30.7116   48.5216 H   0  0  0  0  0  0  0  0  0  0  0  0
  1  2  1  0
  2  3  2  0
  2  4  1  0
  4  5  2  0
  5  6  1  0
  6  7  2  0
  7  8  1  0
  8  9  2  0
  9 10  1  0
 10 11  1  0
 11 12  2  0
 11 13  1  0
 13 14  1  0
 14 15  1  0
 15 16  2  0
 16 17  1  0
 17 18  2  0
 18 19  1  0
 19 20  2  0
 20 21  1  0
 21 22  2  0
 22 23  1  0
 23 24  2  0
 23 25  1  0
 25 26  1  0
 26 27  1  0
 27 28  1  0
 28 29  2  0
 29 30  1  0
 30 31  2  0
 31 32  1  0
 32 33  2  0
  9  4  1  0
 25 15  1  0
 33 28  1  0
 22 17  1  0
  1 34  1  0
  5 35  1  0
  6 36  1  0
  7 37  1  0
  8 38  1  0
 13 39  1  0
 13 40  1  0
 18 41  1  0
 19 42  1  0
 20 43  1  0
 21 44  1  0
 26 45  1  0
 26 46  1  0
 27 47  1  0
 27 48  1  0
 29 49  1  0
 30 50  1  0
 31 51  1  0
 32 52  1  0
 33 53  1  0
M  CHG  2   1  -1  10  -1
M  END
>  <UniqueID>  (34) 
31

>  <SMILES>  (34) 
[NH-]C(=O)c1ccccc1[N-]C(=O)CSc1nc2ccccc2c(=O)n1CCc1ccccc1

>  <Energy>  (34) 
62.7342841092854

>  <Genealogy>  (34) 
[NH-]C(=O)c1ccccc1[N-]C(=O)CSc1nc2ccccc2c(=O)n1CCc1ccccc1 (protonated)
[NH-]C(=O)c1ccccc1[N-]C(=O)CSc1nc2ccccc2c(=O)n1CCc1ccccc1 (3D coordinates assigned)
[NH-]C(=O)c1ccccc1[N-]C(=O)CSc1nc2ccccc2c(=O)n1CCc1ccccc1 (optimized conformer: 62.7342841092854 kcal/mol)

>  <smiles>  (34) 
NC(=O)c1ccccc1NC(=O)CSc1nc2ccccc2c(=O)n1CCc1ccccc1

>  <score_type>  (34) 
oracle

>  <origin>  (34) 
adg

>  <m_score__min__energy>  (34) 
-13.68

>  <m_primary>  (34) 
energy

$$$$
34:0
     RDKit          3D

 47 49  0  0  0  0  0  0  0  0999 V2000
   55.0047   22.4413   46.8769 H   0  0  0  0  0  0  0  0  0  0  0  0
   55.6930   23.2990   46.8530 C   0  0  0  0  0  0  0  0  0  0  0  0
   56.7070   23.7920   48.1040 S   0  0  0  0  0  0  0  0  0  0  0  0
   57.3330   25.0820   47.2300 C   0  0  0  0  0  0  0  0  0  0  0  0
   58.2000   25.9250   47.7130 N   0  0  0  0  0  0  0  0  0  0  0  0
   59.2740   26.5950   47.0290 C   0  0  0  0  0  0  0  0  0  0  0  0
   60.3520   26.7850   47.6530 O   0  0  0  0  0  0  0  0  0  0  0  0
   59.2030   27.0200   45.5840 C   0  0  0  0  0  0  0  0  0  0  0  0
   60.1941   27.3715   45.2613 H   0  0  0  0  0  0  0  0  0  0  0  0
   58.8884   26.1591   44.9759 H   0  0  0  0  0  0  0  0  0  0  0  0
   58.2040   28.1290   45.4080 C   0  0  0  0  0  0  0  0  0  0  0  0
   58.3990   29.4870   45.6200 C   0  0  0  0  0  0  0  0  0  0  0  0
   59.6680   30.1520   46.0710 C   0  0  0  0  0  0  0  0  0  0  0  0
   60.4162   29.3775   46.2954 H   0  0  0  0  0  0  0  0  0  0  0  0
   60.0153   30.8126   45.2629 H   0  0  0  0  0  0  0  0  0  0  0  0
   59.4020   31.1710   47.5670 S   0  0  0  0  0  0  0  0  0  0  0  0
   59.3480   32.7340   46.6750 C   0  0  0  0  0  0  0  0  0  0  0  0
   58.6090   32.8440   45.4910 C   0  0  0  0  0  0  0  0  0  0  0  0
   58.0637   31.9723   45.1002 H   0  0  0  0  0  0  0  0  0  0  0  0
   58.5640   34.0600   44.8060 C   0  0  0  0  0  0  0  0  0  0  0  0
   57.9866   34.1446   43.8736 H   0  0  0  0  0  0  0  0  0  0  0  0
   59.2530   35.1710   45.3050 C   0  0  0  0  0  0  0  0  0  0  0  0
   59.2203   36.1265   44.7611 H   0  0  0  0  0  0  0  0  0  0  0  0
   59.9810   35.0700   46.4900 C   0  0  0  0  0  0  0  0  0  0  0  0
   60.5169   35.9460   46.8842 H   0  0  0  0  0  0  0  0  0  0  0  0
   60.0280   33.8540   47.1750 C   0  0  0  0  0  0  0  0  0  0  0  0
   60.6008   33.7743   48.1107 H   0  0  0  0  0  0  0  0  0  0  0  0
   57.2290   30.1340   45.4630 N   0  0  0  0  0  0  0  0  0  0  0  0
   56.3620   29.1530   45.1410 C   0  0  0  0  0  0  0  0  0  0  0  0
   55.1490   29.3620   44.8960 O   0  0  0  0  0  0  0  0  0  0  0  0
   56.9120   27.9300   45.1020 N   0  0  0  0  0  0  0  0  0  0  0  0
   56.4270   27.0250   44.8970 H   0  0  0  0  0  0  0  0  0  0  0  0
   56.7810   25.1680   46.0020 N   0  0  0  0  0  0  0  0  0  0  0  0
   55.8810   24.1710   45.7820 C   0  0  0  0  0  0  0  0  0  0  0  0
   55.1110   24.0730   44.5030 C   0  0  0  0  0  0  0  0  0  0  0  0
   55.3071   24.9646   43.8893 H   0  0  0  0  0  0  0  0  0  0  0  0
   54.0365   24.0084   44.7296 H   0  0  0  0  0  0  0  0  0  0  0  0
   55.5310   22.8530   43.7530 C   0  0  0  0  0  0  0  0  0  0  0  0
   55.5140   22.8560   42.4910 O   0  0  0  0  0  0  0  0  0  0  0  0
   55.9050   21.7050   44.4630 O   0  0  0  0  0  0  0  0  0  0  0  0
   57.2080   21.1250   44.3930 C   0  0  0  0  0  0  0  0  0  0  0  0
   57.3058   20.5683   43.4493 H   0  0  0  0  0  0  0  0  0  0  0  0
   57.3415   20.4479   45.2496 H   0  0  0  0  0  0  0  0  0  0  0  0
   58.2840   22.2110   44.4500 C   0  0  0  0  0  0  0  0  0  0  0  0
   58.5147   22.4438   45.5000 H   0  0  0  0  0  0  0  0  0  0  0  0
   59.1935   21.8529   43.9455 H   0  0  0  0  0  0  0  0  0  0  0  0
   57.9175   23.1172   43.9455 H   0  0  0  0  0  0  0  0  0  0  0  0
  1  2  1  0
  2  3  1  0
  3  4  1  0
  4  5  2  0
  5  6  1  0
  6  7  2  0
  6  8  1  0
  8  9  1  0
  8 10  1  0
  8 11  1  0
 11 12  2  0
 12 13  1  0
 13 14  1  0
 13 15  1  0
 13 16  1  0
 16 17  1  0
 17 18  2  0
 18 19  1  0
 18 20  1  0
 20 21  1  0
 20 22  2  0
 22 23  1  0
 22 24  1  0
 24 25  1  0
 24 26  2  0
 26 27  1  0
 12 28  1  0
 28 29  1  0
 29 30  2  0
 29 31  1  0
 31 32  1  0
  4 33  1  0
 33 34  1  0
 34 35  1  0
 35 36  1  0
 35 37  1  0
 35 38  1  0
 38 39  2  0
 38 40  1  0
 40 41  1  0
 41 42  1  0
 41 43  1  0
 41 44  1  0
 44 45  1  0
 44 46  1  0
 44 47  1  0
 34  2  2  0
 31 11  1  0
 26 17  1  0
M  CHG  2  28  -1  33  -1
M  END
>  <UniqueID>  (35) 
32

>  <SMILES>  (35) 
CCOC(=O)Cc1cs/c(=N/C(=O)Cc2[nH]c(=O)[n-]c2CSc2ccccc2)[n-]1

>  <Energy>  (35) 
100.27614692801609

>  <Genealogy>  (35) 
CCOC(=O)Cc1csc(=NC(=O)Cc2[nH]c(=O)[n-]c2CSc2ccccc2)[n-]1 (protonated)
CCOC(=O)Cc1cs/c(=N/C(=O)Cc2[nH]c(=O)[n-]c2CSc2ccccc2)[n-]1 (cis-trans isomerization)
CCOC(=O)Cc1cs/c(=N/C(=O)Cc2[nH]c(=O)[n-]c2CSc2ccccc2)[n-]1 (3D coordinates assigned)
CCOC(=O)Cc1cs/c(=N/C(=O)Cc2[nH]c(=O)[n-]c2CSc2ccccc2)[n-]1 (optimized conformer: 100.27614692801609 kcal/mol)

>  <smiles>  (35) 
CCOC(=O)Cc1csc(=NC(=O)Cc2[nH]c(=O)[nH]c2CSc2ccccc2)[nH]1

>  <score_type>  (35) 
oracle

>  <origin>  (35) 
adg

>  <m_score__min__energy>  (35) 
-11.99

>  <m_primary>  (35) 
energy

$$$$
35:0
     RDKit          3D

 61 63  0  0  0  0  0  0  0  0999 V2000
   58.5810   33.9760   45.9640 C   0  0  0  0  0  0  0  0  0  0  0  0
   58.0950   32.8910   45.0490 C   0  0  0  0  0  0  0  0  0  0  0  0
   58.2110   33.0450   43.6610 C   0  0  0  0  0  0  0  0  0  0  0  0
   57.8020   32.0210   42.8050 C   0  0  0  0  0  0  0  0  0  0  0  0
   57.2860   30.8290   43.3240 C   0  0  0  0  0  0  0  0  0  0  0  0
   57.1700   30.6500   44.7150 C   0  0  0  0  0  0  0  0  0  0  0  0
   56.6450   29.3740   45.2650 C   0  0  0  0  0  0  0  0  0  0  0  0
   55.4900   28.9870   44.9430 O   0  0  0  0  0  0  0  0  0  0  0  0
   57.4650   28.5870   46.1430 N   0  0  0  0  0  0  0  0  0  0  0  0
   58.3190   27.4290   45.8490 C   0  0  2  0  0  0  0  0  0  0  0  0
   59.1660   27.0110   47.0350 C   0  0  0  0  0  0  0  0  0  0  0  0
   59.7600   25.9030   47.0410 O   0  0  0  0  0  0  0  0  0  0  0  0
   59.2670   27.8730   48.1790 N   0  0  0  0  0  0  0  0  0  0  0  0
   60.1780   27.5970   49.2850 C   0  0  0  0  0  0  0  0  0  0  0  0
   60.0400   28.6320   50.3540 C   0  0  0  0  0  0  0  0  0  0  0  0
   60.7780   28.5630   51.3730 O   0  0  0  0  0  0  0  0  0  0  0  0
   59.0520   29.6660   50.2080 N   0  0  0  0  0  0  0  0  0  0  0  0
   59.1680   31.0900   50.4080 C   0  0  0  0  0  0  0  0  0  0  0  0
   58.9240   31.7130   51.6520 C   0  0  0  0  0  0  0  0  0  0  0  0
   58.9820   33.1070   51.7710 C   0  0  0  0  0  0  0  0  0  0  0  0
   59.2720   33.8980   50.6590 C   0  0  0  0  0  0  0  0  0  0  0  0
   59.5340   33.2950   49.4270 C   0  0  0  0  0  0  0  0  0  0  0  0
   59.5090   31.8960   49.3020 C   0  0  0  0  0  0  0  0  0  0  0  0
   59.9470   31.1510   47.7240 S   0  0  0  0  0  0  0  0  0  0  0  0
   61.5140   32.0260   47.6520 C   0  0  0  0  0  0  0  0  0  0  0  0
   62.5730   31.6660   48.5020 C   0  0  0  0  0  0  0  0  0  0  0  0
   63.7670   32.3920   48.4770 C   0  0  0  0  0  0  0  0  0  0  0  0
   63.9120   33.4720   47.6050 C   0  0  0  0  0  0  0  0  0  0  0  0
   62.8640   33.8250   46.7490 C   0  0  0  0  0  0  0  0  0  0  0  0
   61.6660   33.1030   46.7710 C   0  0  0  0  0  0  0  0  0  0  0  0
   59.1010   27.5680   44.5090 C   0  0  0  0  0  0  0  0  0  0  0  0
   58.2290   27.4690   43.2500 C   0  0  0  0  0  0  0  0  0  0  0  0
   59.9150   28.8740   44.4790 C   0  0  0  0  0  0  0  0  0  0  0  0
   57.5840   31.6900   45.5730 C   0  0  0  0  0  0  0  0  0  0  0  0
   58.4412   33.6639   47.0095 H   0  0  0  0  0  0  0  0  0  0  0  0
   59.6487   34.1627   45.7767 H   0  0  0  0  0  0  0  0  0  0  0  0
   58.0094   34.8970   45.7767 H   0  0  0  0  0  0  0  0  0  0  0  0
   58.6254   33.9751   43.2449 H   0  0  0  0  0  0  0  0  0  0  0  0
   57.8860   32.1522   41.7161 H   0  0  0  0  0  0  0  0  0  0  0  0
   56.9691   30.0270   42.6411 H   0  0  0  0  0  0  0  0  0  0  0  0
   57.6425   26.5790   45.6765 H   0  0  0  0  0  0  0  0  0  0  0  0
   58.7270   28.7690   48.1960 H   0  0  0  0  0  0  0  0  0  0  0  0
   59.9443   26.6085   49.7072 H   0  0  0  0  0  0  0  0  0  0  0  0
   61.2104   27.6158   48.9058 H   0  0  0  0  0  0  0  0  0  0  0  0
   58.6868   31.0989   52.5333 H   0  0  0  0  0  0  0  0  0  0  0  0
   58.7979   33.5809   52.7465 H   0  0  0  0  0  0  0  0  0  0  0  0
   59.2942   34.9938   50.7524 H   0  0  0  0  0  0  0  0  0  0  0  0
   59.7611   33.9187   48.5499 H   0  0  0  0  0  0  0  0  0  0  0  0
   62.4625   30.8127   49.1873 H   0  0  0  0  0  0  0  0  0  0  0  0
   64.5940   32.1116   49.1459 H   0  0  0  0  0  0  0  0  0  0  0  0
   64.8506   34.0455   47.5910 H   0  0  0  0  0  0  0  0  0  0  0  0
   62.9819   34.6720   46.0571 H   0  0  0  0  0  0  0  0  0  0  0  0
   60.8434   33.3817   46.0959 H   0  0  0  0  0  0  0  0  0  0  0  0
   59.7769   26.7006   44.4835 H   0  0  0  0  0  0  0  0  0  0  0  0
   57.1753   27.3494   43.5423 H   0  0  0  0  0  0  0  0  0  0  0  0
   58.3420   28.3857   42.6527 H   0  0  0  0  0  0  0  0  0  0  0  0
   58.5447   26.6009   42.6527 H   0  0  0  0  0  0  0  0  0  0  0  0
   60.1196   29.2023   45.5087 H   0  0  0  0  0  0  0  0  0  0  0  0
   60.8658   28.7015   43.9534 H   0  0  0  0  0  0  0  0  0  0  0  0
   59.3414   29.6516   43.9534 H   0  0  0  0  0  0  0  0  0  0  0  0
   57.5065   31.5606   46.6626 H   0  0  0  0  0  0  0  0  0  0  0  0
  1  2  1  0
  2  3  2  0
  3  4  1  0
  4  5  2  0
  5  6  1  0
  6  7  1  0
  7  8  2  0
  7  9  1  0
  9 10  1  0
 10 11  1  0
 11 12  2  0
 11 13  1  0
 13 14  1  0
 14 15  1  0
 15 16  2  0
 15 17  1  0
 17 18  1  0
 18 19  2  0
 19 20  1  0
 20 21  2  0
 21 22  1  0
 22 23  2  0
 23 24  1  0
 24 25  1  0
 25 26  2  0
 26 27  1  0
 27 28  2  0
 28 29  1  0
 29 30  2  0
 10 31  1  0
 31 32  1  0
 31 33  1  0
  6 34  2  0
 34  2  1  0
 23 18  1  0
 30 25  1  0
  1 35  1  0
  1 36  1  0
  1 37  1  0
  3 38  1  0
  4 39  1  0
  5 40  1  0
 10 41  1  6
 13 42  1  0
 14 43  1  0
 14 44  1  0
 19 45  1  0
 20 46  1  0
 21 47  1  0
 22 48  1  0
 26 49  1  0
 27 50  1  0
 28 51  1  0
 29 52  1  0
 30 53  1  0
 31 54  1  0
 32 55  1  0
 32 56  1  0
 32 57  1  0
 33 58  1  0
 33 59  1  0
 33 60  1  0
 34 61  1  0
M  CHG  2   9  -1  17  -1
M  END
>  <UniqueID>  (36) 
33

>  <SMILES>  (36) 
Cc1cccc(C(=O)[N-][C@H](C(=O)NCC(=O)[N-]c2ccccc2Sc2ccccc2)C(C)C)c1

>  <Energy>  (36) 
60.53768772023203

>  <Genealogy>  (36) 
Cc1cccc(C(=O)[N-]C(C(=O)NCC(=O)[N-]c2ccccc2Sc2ccccc2)C(C)C)c1 (protonated)
Cc1cccc(C(=O)[N-][C@H](C(=O)NCC(=O)[N-]c2ccccc2Sc2ccccc2)C(C)C)c1 (chirality)
Cc1cccc(C(=O)[N-][C@H](C(=O)NCC(=O)[N-]c2ccccc2Sc2ccccc2)C(C)C)c1 (3D coordinates assigned)
Cc1cccc(C(=O)[N-][C@H](C(=O)NCC(=O)[N-]c2ccccc2Sc2ccccc2)C(C)C)c1 (optimized conformer: 60.53768772023203 kcal/mol)

>  <smiles>  (36) 
Cc1cccc(C(=O)NC(C(=O)NCC(=O)Nc2ccccc2Sc2ccccc2)C(C)C)c1

>  <score_type>  (36) 
oracle

>  <origin>  (36) 
adg

>  <m_score__min__energy>  (36) 
-13.02

>  <m_primary>  (36) 
energy

$$$$
36:0
     RDKit          3D

 72 76  0  0  0  0  0  0  0  0999 V2000
   60.4450   27.2330   48.3960 O   0  0  0  0  0  0  0  0  0  0  0  0
   60.0210   28.4070   48.2020 C   0  0  0  0  0  0  0  0  0  0  0  0
   58.7290   28.5750   47.5980 N   0  0  0  0  0  0  0  0  0  0  0  0
   58.4400   28.4920   46.1920 C   0  0  0  0  0  0  0  0  0  0  0  0
   58.6270   27.2620   45.5530 C   0  0  0  0  0  0  0  0  0  0  0  0
   58.2890   27.0960   44.2110 C   0  0  0  0  0  0  0  0  0  0  0  0
   57.7670   28.1660   43.4860 C   0  0  0  0  0  0  0  0  0  0  0  0
   57.6030   29.4110   44.0980 C   0  0  0  0  0  0  0  0  0  0  0  0
   57.9490   29.5960   45.4490 C   0  0  0  0  0  0  0  0  0  0  0  0
   57.9010   30.9600   46.0150 C   0  0  0  0  0  0  0  0  0  0  0  0
   57.5690   31.9210   45.2690 O   0  0  0  0  0  0  0  0  0  0  0  0
   58.1510   31.1630   47.4150 N   0  0  0  0  0  0  0  0  0  0  0  0
   58.7260   32.3170   48.0500 C   0  0  0  0  0  0  0  0  0  0  0  0
   59.1050   33.4690   47.3320 C   0  0  0  0  0  0  0  0  0  0  0  0
   59.5610   34.6040   48.0110 C   0  0  0  0  0  0  0  0  0  0  0  0
   59.6650   34.6000   49.4020 C   0  0  0  0  0  0  0  0  0  0  0  0
   59.3390   33.4450   50.1300 C   0  0  0  0  0  0  0  0  0  0  0  0
   59.4570   33.4560   51.8970 S   0  0  0  0  0  0  0  0  0  0  0  0
   60.9040   33.4450   52.3070 O   0  0  0  0  0  0  0  0  0  0  0  0
   58.8410   34.7200   52.4260 O   0  0  0  0  0  0  0  0  0  0  0  0
   58.6380   32.0880   52.6200 N   0  0  0  0  0  0  0  0  0  0  0  0
   57.1680   32.1820   52.4750 C   0  0  0  0  0  0  0  0  0  0  0  0
   56.6300   31.2160   51.4040 C   0  0  0  0  0  0  0  0  0  0  0  0
   56.9510   29.8540   51.6520 O   0  0  0  0  0  0  0  0  0  0  0  0
   58.1900   29.6700   52.3230 C   0  0  0  0  0  0  0  0  0  0  0  0
   59.1920   30.8170   52.1110 C   0  0  0  0  0  0  0  0  0  0  0  0
   58.8970   32.2980   49.4430 C   0  0  0  0  0  0  0  0  0  0  0  0
   60.8660   29.5630   48.5820 C   0  0  0  0  0  0  0  0  0  0  0  0
   61.2380   29.7790   49.9160 C   0  0  0  0  0  0  0  0  0  0  0  0
   62.0260   30.8770   50.2580 C   0  0  0  0  0  0  0  0  0  0  0  0
   62.4790   31.7710   49.2760 C   0  0  0  0  0  0  0  0  0  0  0  0
   63.3680   33.2140   49.7970 S   0  0  0  0  0  0  0  0  0  0  0  0
   64.0770   33.8290   48.6210 O   0  0  0  0  0  0  0  0  0  0  0  0
   62.3940   34.2170   50.3570 O   0  0  0  0  0  0  0  0  0  0  0  0
   64.5490   32.7810   51.0110 N   0  0  0  0  0  0  0  0  0  0  0  0
   65.5920   33.8230   51.1390 C   0  0  0  0  0  0  0  0  0  0  0  0
   66.9030   33.4140   50.4480 C   0  0  0  0  0  0  0  0  0  0  0  0
   67.4570   32.2120   50.9670 O   0  0  0  0  0  0  0  0  0  0  0  0
   66.4810   31.2540   51.3690 C   0  0  0  0  0  0  0  0  0  0  0  0
   65.1010   31.4370   50.7220 C   0  0  0  0  0  0  0  0  0  0  0  0
   62.1440   31.5390   47.9170 C   0  0  0  0  0  0  0  0  0  0  0  0
   62.5940   32.4070   46.8680 N   0  0  0  0  0  0  0  0  0  0  0  0
   61.8380   33.2890   46.4090 O   0  0  0  0  0  0  0  0  0  0  0  0
   63.9200   32.3980   46.4920 O   0  0  0  0  0  0  0  0  0  0  0  0
   61.3350   30.4400   47.5890 C   0  0  0  0  0  0  0  0  0  0  0  0
   59.0460   26.4152   46.1165 H   0  0  0  0  0  0  0  0  0  0  0  0
   58.4342   26.1205   43.7239 H   0  0  0  0  0  0  0  0  0  0  0  0
   57.4841   28.0300   42.4317 H   0  0  0  0  0  0  0  0  0  0  0  0
   57.1997   30.2544   43.5183 H   0  0  0  0  0  0  0  0  0  0  0  0
   59.0420   33.4757   46.2338 H   0  0  0  0  0  0  0  0  0  0  0  0
   59.8392   35.5050   47.4446 H   0  0  0  0  0  0  0  0  0  0  0  0
   60.0032   35.5040   49.9296 H   0  0  0  0  0  0  0  0  0  0  0  0
   56.6999   31.9383   53.4401 H   0  0  0  0  0  0  0  0  0  0  0  0
   56.9230   33.2073   52.1609 H   0  0  0  0  0  0  0  0  0  0  0  0
   55.5350   31.3137   51.3664 H   0  0  0  0  0  0  0  0  0  0  0  0
   57.1081   31.4915   50.4524 H   0  0  0  0  0  0  0  0  0  0  0  0
   57.9897   29.5804   53.4009 H   0  0  0  0  0  0  0  0  0  0  0  0
   58.6492   28.7639   51.9009 H   0  0  0  0  0  0  0  0  0  0  0  0
   60.1241   30.5874   52.6481 H   0  0  0  0  0  0  0  0  0  0  0  0
   59.3910   30.9213   51.0342 H   0  0  0  0  0  0  0  0  0  0  0  0
   58.6833   31.3766   50.0045 H   0  0  0  0  0  0  0  0  0  0  0  0
   60.9066   29.0787   50.6969 H   0  0  0  0  0  0  0  0  0  0  0  0
   62.2961   31.0446   51.3111 H   0  0  0  0  0  0  0  0  0  0  0  0
   65.2237   34.7524   50.6801 H   0  0  0  0  0  0  0  0  0  0  0  0
   65.8019   33.9637   52.2096 H   0  0  0  0  0  0  0  0  0  0  0  0
   66.7039   33.2729   49.3754 H   0  0  0  0  0  0  0  0  0  0  0  0
   67.6332   34.2163   50.6300 H   0  0  0  0  0  0  0  0  0  0  0  0
   66.8536   30.2532   51.1051 H   0  0  0  0  0  0  0  0  0  0  0  0
   66.3382   31.3899   52.4512 H   0  0  0  0  0  0  0  0  0  0  0  0
   65.1960   31.3145   49.6330 H   0  0  0  0  0  0  0  0  0  0  0  0
   64.4176   30.6823   51.1385 H   0  0  0  0  0  0  0  0  0  0  0  0
   61.0637   30.2623   46.5379 H   0  0  0  0  0  0  0  0  0  0  0  0
  1  2  2  0
  2  3  1  0
  3  4  1  0
  4  5  2  0
  5  6  1  0
  6  7  2  0
  7  8  1  0
  8  9  2  0
  9 10  1  0
 10 11  2  0
 10 12  1  0
 12 13  1  0
 13 14  2  0
 14 15  1  0
 15 16  2  0
 16 17  1  0
 17 18  1  0
 18 19  2  0
 18 20  2  0
 18 21  1  0
 21 22  1  0
 22 23  1  0
 23 24  1  0
 24 25  1  0
 25 26  1  0
 17 27  2  0
  2 28  1  0
 28 29  2  0
 29 30  1  0
 30 31  2  0
 31 32  1  0
 32 33  2  0
 32 34  2  0
 32 35  1  0
 35 36  1  0
 36 37  1  0
 37 38  1  0
 38 39  1  0
 39 40  1  0
 31 41  1  0
 41 42  1  0
 42 43  2  0
 42 44  1  0
 41 45  2  0
  9  4  1  0
 27 13  1  0
 45 28  1  0
 26 21  1  0
 40 35  1  0
  5 46  1  0
  6 47  1  0
  7 48  1  0
  8 49  1  0
 14 50  1  0
 15 51  1  0
 16 52  1  0
 22 53  1  0
 22 54  1  0
 23 55  1  0
 23 56  1  0
 25 57  1  0
 25 58  1  0
 26 59  1  0
 26 60  1  0
 27 61  1  0
 29 62  1  0
 30 63  1  0
 36 64  1  0
 36 65  1  0
 37 66  1  0
 37 67  1  0
 39 68  1  0
 39 69  1  0
 40 70  1  0
 40 71  1  0
 45 72  1  0
M  CHG  4   3  -1  12  -1  42   1  44  -1
M  END
>  <UniqueID>  (37) 
34

>  <SMILES>  (37) 
O=C([N-]c1ccccc1C(=O)[N-]c1cccc(S(=O)(=O)N2CCOCC2)c1)c1ccc(S(=O)(=O)N2CCOCC2)c([N+](=O)[O-])c1

>  <Energy>  (37) 
119.20148668395086

>  <Genealogy>  (37) 
O=C([N-]c1ccccc1C(=O)[N-]c1cccc(S(=O)(=O)N2CCOCC2)c1)c1ccc(S(=O)(=O)N2CCOCC2)c([N+](=O)[O-])c1 (protonated)
O=C([N-]c1ccccc1C(=O)[N-]c1cccc(S(=O)(=O)N2CCOCC2)c1)c1ccc(S(=O)(=O)N2CCOCC2)c([N+](=O)[O-])c1 (3D coordinates assigned)
O=C([N-]c1ccccc1C(=O)[N-]c1cccc(S(=O)(=O)N2CCOCC2)c1)c1ccc(S(=O)(=O)N2CCOCC2)c([N+](=O)[O-])c1 (nonaromatic ring conformer: 119.20148668395086 kcal/mol)

>  <smiles>  (37) 
O=C(Nc1ccccc1C(=O)Nc1cccc(S(=O)(=O)N2CCOCC2)c1)c1ccc(S(=O)(=O)N2CCOCC2)c([N+](=O)[O-])c1

>  <score_type>  (37) 
oracle

>  <origin>  (37) 
adg

>  <m_score__min__energy>  (37) 
-14

>  <m_primary>  (37) 
energy

$$$$
37:0
     RDKit          3D

 41 43  0  0  0  0  0  0  0  0999 V2000
   54.4280   29.6950   45.4920 H   0  0  0  0  0  0  0  0  0  0  0  0
   55.1640   29.2850   44.8730 N   0  0  0  0  0  0  0  0  0  0  0  0
   56.3780   29.7320   44.8790 C   0  0  0  0  0  0  0  0  0  0  0  0
   56.6380   31.0070   44.4810 N   0  0  0  0  0  0  0  0  0  0  0  0
   57.9020   31.5100   44.4560 C   0  0  0  0  0  0  0  0  0  0  0  0
   58.1280   32.8950   44.0130 C   0  0  0  0  0  0  0  0  0  0  0  0
   58.5010   33.0710   42.8210 O   0  0  0  0  0  0  0  0  0  0  0  0
   57.9840   34.0490   44.8860 N   0  0  0  0  0  0  0  0  0  0  0  0
   57.5220   34.7850   44.2990 H   0  0  0  0  0  0  0  0  0  0  0  0
   59.2980   34.6060   45.2750 C   0  0  0  0  0  0  0  0  0  0  0  0
   59.9384   34.6580   44.3821 H   0  0  0  0  0  0  0  0  0  0  0  0
   59.1262   35.6037   45.7052 H   0  0  0  0  0  0  0  0  0  0  0  0
   60.0000   33.7540   46.3350 C   0  0  0  0  0  0  0  0  0  0  0  0
   60.2827   32.7857   45.8963 H   0  0  0  0  0  0  0  0  0  0  0  0
   60.9003   34.2802   46.6851 H   0  0  0  0  0  0  0  0  0  0  0  0
   59.1020   33.5300   47.4670 N   0  0  0  0  0  0  0  0  0  0  0  0
   59.6250   33.5680   48.8050 C   0  0  0  0  0  0  0  0  0  0  0  0
   60.2520   34.5890   49.1950 O   0  0  0  0  0  0  0  0  0  0  0  0
   59.4510   32.4370   49.7330 C   0  0  0  0  0  0  0  0  0  0  0  0
   60.3500   31.0130   49.6930 S   0  0  0  0  0  0  0  0  0  0  0  0
   59.5420   30.2620   50.9610 C   0  0  0  0  0  0  0  0  0  0  0  0
   59.8920   28.9290   51.5330 C   0  0  0  0  0  0  0  0  0  0  0  0
   59.8770   28.9860   52.6314 H   0  0  0  0  0  0  0  0  0  0  0  0
   59.1598   28.1811   51.1946 H   0  0  0  0  0  0  0  0  0  0  0  0
   60.8972   28.6373   51.1946 H   0  0  0  0  0  0  0  0  0  0  0  0
   58.5610   31.1210   51.4420 C   0  0  0  0  0  0  0  0  0  0  0  0
   57.9009   30.8741   52.2866 H   0  0  0  0  0  0  0  0  0  0  0  0
   58.4980   32.3320   50.7430 C   0  0  0  0  0  0  0  0  0  0  0  0
   57.7677   33.1229   50.9692 H   0  0  0  0  0  0  0  0  0  0  0  0
   57.7370   33.0680   47.2110 C   0  0  0  0  0  0  0  0  0  0  0  0
   57.7627   32.0014   46.9431 H   0  0  0  0  0  0  0  0  0  0  0  0
   57.1385   33.2230   48.1208 H   0  0  0  0  0  0  0  0  0  0  0  0
   57.0920   33.8610   46.0590 C   0  0  0  0  0  0  0  0  0  0  0  0
   56.1927   33.3212   45.7276 H   0  0  0  0  0  0  0  0  0  0  0  0
   56.8621   34.8632   46.4499 H   0  0  0  0  0  0  0  0  0  0  0  0
   58.9750   30.7140   44.8810 C   0  0  0  0  0  0  0  0  0  0  0  0
   59.9982   31.1176   44.8873 H   0  0  0  0  0  0  0  0  0  0  0  0
   58.7310   29.4040   45.2960 C   0  0  0  0  0  0  0  0  0  0  0  0
   59.5645   28.7663   45.6257 H   0  0  0  0  0  0  0  0  0  0  0  0
   57.4270   28.9040   45.2920 C   0  0  0  0  0  0  0  0  0  0  0  0
   57.2270   27.8702   45.6102 H   0  0  0  0  0  0  0  0  0  0  0  0
  1  2  1  0
  2  3  2  0
  3  4  1  0
  4  5  1  0
  5  6  1  0
  6  7  2  0
  6  8  1  0
  8  9  1  0
  8 10  1  0
 10 11  1  0
 10 12  1  0
 10 13  1  0
 13 14  1  0
 13 15  1  0
 13 16  1  0
 16 17  1  0
 17 18  2  0
 17 19  1  0
 19 20  1  0
 20 21  1  0
 21 22  1  0
 22 23  1  0
 22 24  1  0
 22 25  1  0
 21 26  2  0
 26 27  1  0
 26 28  1  0
 28 29  1  0
 16 30  1  0
 30 31  1  0
 30 32  1  0
 30 33  1  0
 33 34  1  0
 33 35  1  0
  5 36  2  0
 36 37  1  0
 36 38  1  0
 38 39  1  0
 38 40  2  0
 40 41  1  0
 40  3  1  0
 33  8  1  0
 28 19  2  0
M  CHG  2   4  -1   8   1
M  END
>  <UniqueID>  (38) 
35

>  <SMILES>  (38) 
[H]/N=c1/cccc(C(=O)[NH+]2CCN(C(=O)c3ccc(C)s3)CC2)[n-]1

>  <Energy>  (38) 
85.36010125093883

>  <Genealogy>  (38) 
Cc1ccc(C(=O)N2CC[NH+](C(=O)c3cccc(=N)[n-]3)CC2)s1 (protonated)
[H]/N=c1/cccc(C(=O)[NH+]2CCN(C(=O)c3ccc(C)s3)CC2)[n-]1 (cis-trans isomerization)
[H]/N=c1/cccc(C(=O)[NH+]2CCN(C(=O)c3ccc(C)s3)CC2)[n-]1 (3D coordinates assigned)
[H]/N=c1/cccc(C(=O)[NH+]2CCN(C(=O)c3ccc(C)s3)CC2)[n-]1 (nonaromatic ring conformer: 85.36010125093883 kcal/mol)

>  <smiles>  (38) 
Cc1ccc(C(=O)N2CCN(C(=O)c3cccc(=N)[nH]3)CC2)s1

>  <score_type>  (38) 
oracle

>  <origin>  (38) 
adg

>  <m_score__min__energy>  (38) 
-8.5099999999999998

>  <m_primary>  (38) 
energy

$$$$
38:0
     RDKit          3D

 42 44  0  0  0  0  0  0  0  0999 V2000
   55.9890   30.0920   43.4860 C   0  0  0  0  0  0  0  0  0  0  0  0
   56.7840   29.6980   44.4830 C   0  0  0  0  0  0  0  0  0  0  0  0
   56.6190   28.5300   45.1370 N   0  0  0  0  0  0  0  0  0  0  0  0
   57.6130   28.4510   46.0490 C   0  0  0  0  0  0  0  0  0  0  0  0
   57.8230   27.4200   46.8810 C   0  0  0  0  0  0  0  0  0  0  0  0
   57.2100   26.0890   46.7190 C   0  0  0  0  0  0  0  0  0  0  0  0
   57.8150   24.9410   47.0600 N   0  0  0  0  0  0  0  0  0  0  0  0
   56.8890   23.9870   46.8410 C   0  0  0  0  0  0  0  0  0  0  0  0
   57.1030   22.7640   47.0420 O   0  0  0  0  0  0  0  0  0  0  0  0
   55.7040   24.4600   46.3980 N   0  0  0  0  0  0  0  0  0  0  0  0
   55.9170   25.7900   46.3370 C   0  0  0  0  0  0  0  0  0  0  0  0
   54.9340   26.7080   45.9880 O   0  0  0  0  0  0  0  0  0  0  0  0
   58.4260   29.5660   45.9730 C   0  0  0  0  0  0  0  0  0  0  0  0
   57.8920   30.3770   44.9870 C   0  0  0  0  0  0  0  0  0  0  0  0
   58.4670   31.7040   44.5430 C   0  0  0  0  0  0  0  0  0  0  0  0
   58.1270   32.9180   45.4670 C   0  0  0  0  0  0  0  0  0  0  0  0
   56.6590   33.3530   45.2470 C   0  0  0  0  0  0  0  0  0  0  0  0
   58.2810   32.4460   46.9570 C   0  0  0  0  0  0  0  0  0  0  0  0
   58.8070   33.5390   47.8970 C   0  0  0  0  0  0  0  0  0  0  0  0
   60.1330   34.0330   47.3910 C   0  0  0  0  0  0  0  0  0  0  0  0
   60.9990   34.3800   48.1790 O   0  0  0  0  0  0  0  0  0  0  0  0
   60.3870   34.1060   45.9110 C   0  0  0  0  0  0  0  0  0  0  0  0
   59.0560   34.1400   45.1500 C   0  0  0  0  0  0  0  0  0  0  0  0
   56.1692   31.0555   42.9868 H   0  0  0  0  0  0  0  0  0  0  0  0
   55.1535   29.4532   43.1635 H   0  0  0  0  0  0  0  0  0  0  0  0
   55.8940   27.8090   44.9240 H   0  0  0  0  0  0  0  0  0  0  0  0
   58.4946   27.5775   47.7378 H   0  0  0  0  0  0  0  0  0  0  0  0
   58.7880   24.8150   47.4210 H   0  0  0  0  0  0  0  0  0  0  0  0
   59.3221   29.7691   46.5778 H   0  0  0  0  0  0  0  0  0  0  0  0
   59.5616   31.6039   44.5013 H   0  0  0  0  0  0  0  0  0  0  0  0
   58.0090   31.9246   43.5675 H   0  0  0  0  0  0  0  0  0  0  0  0
   56.1696   33.4980   46.2214 H   0  0  0  0  0  0  0  0  0  0  0  0
   56.6369   34.2963   44.6816 H   0  0  0  0  0  0  0  0  0  0  0  0
   56.1266   32.5740   44.6816 H   0  0  0  0  0  0  0  0  0  0  0  0
   57.2962   32.1184   47.3215 H   0  0  0  0  0  0  0  0  0  0  0  0
   59.0213   31.6324   46.9625 H   0  0  0  0  0  0  0  0  0  0  0  0
   58.0911   34.3736   47.9271 H   0  0  0  0  0  0  0  0  0  0  0  0
   58.9292   33.1269   48.9095 H   0  0  0  0  0  0  0  0  0  0  0  0
   60.9593   35.0177   45.6844 H   0  0  0  0  0  0  0  0  0  0  0  0
   60.9580   33.2191   45.5991 H   0  0  0  0  0  0  0  0  0  0  0  0
   58.5227   35.0631   45.4211 H   0  0  0  0  0  0  0  0  0  0  0  0
   59.2940   34.0975   44.0769 H   0  0  0  0  0  0  0  0  0  0  0  0
  1  2  2  0
  2  3  1  0
  3  4  1  0
  4  5  2  3
  5  6  1  0
  6  7  1  0
  7  8  1  0
  8  9  2  0
  8 10  1  0
 10 11  1  0
 11 12  1  0
  4 13  1  0
 13 14  2  0
 14 15  1  0
 15 16  1  0
 16 17  1  0
 16 18  1  0
 18 19  1  0
 19 20  1  0
 20 21  2  0
 20 22  1  0
 22 23  1  0
 14  2  1  0
 23 16  1  0
 11  6  2  0
  1 24  1  0
  1 25  1  0
  3 26  1  0
  5 27  1  0
  7 28  1  0
 13 29  1  0
 15 30  1  0
 15 31  1  0
 17 32  1  0
 17 33  1  0
 17 34  1  0
 18 35  1  0
 18 36  1  0
 19 37  1  0
 19 38  1  0
 22 39  1  0
 22 40  1  0
 23 41  1  0
 23 42  1  0
M  CHG  2  10  -1  12  -1
M  END
>  <UniqueID>  (39) 
36

>  <SMILES>  (39) 
C=c1[nH]c(=Cc2[nH]c(=O)[n-]c2[O-])cc1CC1(C)CCC(=O)CC1

>  <Energy>  (39) 
108.05386047624219

>  <Genealogy>  (39) 
C=c1[nH]c(=Cc2[nH]c(=O)[n-]c2[O-])cc1CC1(C)CCC(=O)CC1 (protonated)
C=c1[nH]c(=Cc2[nH]c(=O)[n-]c2[O-])cc1CC1(C)CCC(=O)CC1 (3D coordinates assigned)
C=c1[nH]c(=Cc2[nH]c(=O)[n-]c2[O-])cc1CC1(C)CCC(=O)CC1 (nonaromatic ring conformer: 108.05386047624219 kcal/mol)

>  <smiles>  (39) 
C=c1[nH]c(=Cc2[nH]c(=O)[nH]c2O)cc1CC1(C)CCC(=O)CC1

>  <score_type>  (39) 
oracle

>  <origin>  (39) 
adg

>  <m_score__min__energy>  (39) 
-14.699999999999999

>  <m_primary>  (39) 
energy

$$$$
39:0
     RDKit          3D

 42 44  0  0  0  0  0  0  0  0999 V2000
   63.7650   31.7220   47.0840 N   0  0  0  0  0  0  0  0  0  0  0  0
   63.2110   33.2570   47.6720 S   0  0  0  0  0  0  0  0  0  0  0  0
   63.0700   34.2080   46.5160 O   0  0  0  0  0  0  0  0  0  0  0  0
   64.2040   33.8250   48.6550 O   0  0  0  0  0  0  0  0  0  0  0  0
   61.6630   33.0800   48.4410 N   0  0  0  0  0  0  0  0  0  0  0  0
   60.4550   32.8140   47.7240 C   0  0  0  0  0  0  0  0  0  0  0  0
   59.2240   33.3730   48.0330 C   0  0  0  0  0  0  0  0  0  0  0  0
   58.2050   32.9600   47.1660 C   0  0  0  0  0  0  0  0  0  0  0  0
   58.6520   32.0970   46.1680 C   0  0  0  0  0  0  0  0  0  0  0  0
   57.6750   31.3370   44.9120 S   0  0  0  0  0  0  0  0  0  0  0  0
   56.3390   32.0270   44.8710 O   0  0  0  0  0  0  0  0  0  0  0  0
   58.3540   31.5290   43.5870 O   0  0  0  0  0  0  0  0  0  0  0  0
   57.3980   29.6340   45.2000 N   0  0  0  0  0  0  0  0  0  0  0  0
   57.3690   28.8680   43.9290 C   0  0  0  0  0  0  0  0  0  0  0  0
   57.8690   27.4170   44.0750 C   0  0  0  0  0  0  0  0  0  0  0  0
   57.5750   26.8970   45.4150 N   0  0  0  0  0  0  0  0  0  0  0  0
   56.9260   25.6230   45.5750 C   0  0  0  0  0  0  0  0  0  0  0  0
   57.6720   24.4420   45.4610 C   0  0  0  0  0  0  0  0  0  0  0  0
   57.0510   23.1980   45.5880 C   0  0  0  0  0  0  0  0  0  0  0  0
   55.6790   23.1230   45.8420 C   0  0  0  0  0  0  0  0  0  0  0  0
   54.9310   24.2930   45.9820 C   0  0  0  0  0  0  0  0  0  0  0  0
   55.5470   25.5430   45.8470 C   0  0  0  0  0  0  0  0  0  0  0  0
   54.7840   26.6960   45.9970 O   0  0  0  0  0  0  0  0  0  0  0  0
   57.9260   27.6950   46.5970 C   0  0  0  0  0  0  0  0  0  0  0  0
   58.3530   29.1070   46.1900 C   0  0  0  0  0  0  0  0  0  0  0  0
   60.3020   31.8220   46.3730 S   0  0  0  0  0  0  0  0  0  0  0  0
   64.4650   31.9260   46.3300 H   0  0  0  0  0  0  0  0  0  0  0  0
   64.2940   31.2640   47.8690 H   0  0  0  0  0  0  0  0  0  0  0  0
   59.0649   34.0677   48.8709 H   0  0  0  0  0  0  0  0  0  0  0  0
   57.1583   33.2840   47.2631 H   0  0  0  0  0  0  0  0  0  0  0  0
   56.3329   28.8440   43.5603 H   0  0  0  0  0  0  0  0  0  0  0  0
   58.0487   29.3760   43.2290 H   0  0  0  0  0  0  0  0  0  0  0  0
   57.3688   26.7860   43.3256 H   0  0  0  0  0  0  0  0  0  0  0  0
   58.9582   27.4024   43.9223 H   0  0  0  0  0  0  0  0  0  0  0  0
   58.7540   24.4955   45.2702 H   0  0  0  0  0  0  0  0  0  0  0  0
   57.6424   22.2759   45.4880 H   0  0  0  0  0  0  0  0  0  0  0  0
   55.1887   22.1424   45.9316 H   0  0  0  0  0  0  0  0  0  0  0  0
   53.8543   24.2328   46.1990 H   0  0  0  0  0  0  0  0  0  0  0  0
   57.0517   27.7597   47.2614 H   0  0  0  0  0  0  0  0  0  0  0  0
   58.7649   27.2079   47.1157 H   0  0  0  0  0  0  0  0  0  0  0  0
   58.3619   29.7587   47.0761 H   0  0  0  0  0  0  0  0  0  0  0  0
   59.3615   29.0768   45.7518 H   0  0  0  0  0  0  0  0  0  0  0  0
  1  2  1  0
  2  3  2  0
  2  4  2  0
  2  5  1  0
  5  6  1  0
  6  7  2  0
  7  8  1  0
  8  9  2  0
  9 10  1  0
 10 11  2  0
 10 12  2  0
 10 13  1  0
 13 14  1  0
 14 15  1  0
 15 16  1  0
 16 17  1  0
 17 18  2  0
 18 19  1  0
 19 20  2  0
 20 21  1  0
 21 22  2  0
 22 23  1  0
 16 24  1  0
 24 25  1  0
  9 26  1  0
 26  6  1  0
 25 13  1  0
 22 17  1  0
  1 27  1  0
  1 28  1  0
  7 29  1  0
  8 30  1  0
 14 31  1  0
 14 32  1  0
 15 33  1  0
 15 34  1  0
 18 35  1  0
 19 36  1  0
 20 37  1  0
 21 38  1  0
 24 39  1  0
 24 40  1  0
 25 41  1  0
 25 42  1  0
M  CHG  2   5  -1  23  -1
M  END
>  <UniqueID>  (40) 
37

>  <SMILES>  (40) 
NS(=O)(=O)[N-]c1ccc(S(=O)(=O)N2CCN(c3ccccc3[O-])CC2)s1

>  <Energy>  (40) 
80.49004120429144

>  <Genealogy>  (40) 
NS(=O)(=O)[N-]c1ccc(S(=O)(=O)N2CCN(c3ccccc3[O-])CC2)s1 (protonated)
NS(=O)(=O)[N-]c1ccc(S(=O)(=O)N2CCN(c3ccccc3[O-])CC2)s1 (3D coordinates assigned)
NS(=O)(=O)[N-]c1ccc(S(=O)(=O)N2CCN(c3ccccc3[O-])CC2)s1 (nonaromatic ring conformer: 80.49004120429144 kcal/mol)

>  <smiles>  (40) 
NS(=O)(=O)Nc1ccc(S(=O)(=O)N2CCN(c3ccccc3O)CC2)s1

>  <score_type>  (40) 
oracle

>  <origin>  (40) 
adg

>  <m_score__min__energy>  (40) 
-13.57

>  <m_primary>  (40) 
energy

$$$$
40:0
     RDKit          3D

 60 64  0  0  1  0  0  0  0  0999 V2000
   62.3400   32.4840   53.1180 N   0  0  0  0  0  0  0  0  0  0  0  0
   61.4410   32.9480   52.5620 C   0  0  0  0  0  0  0  0  0  0  0  0
   60.2830   33.5370   51.8770 C   0  0  0  0  0  0  0  0  0  0  0  0
   60.6960   34.0730   50.5840 N   0  0  0  0  0  0  0  0  0  0  0  0
   59.8780   33.6860   49.4690 C   0  0  0  0  0  0  0  0  0  0  0  0
   58.9080   32.9430   49.7360 O   0  0  0  0  0  0  0  0  0  0  0  0
   60.1730   34.1290   48.1610 N   0  0  0  0  0  0  0  0  0  0  0  0
   59.4560   33.8050   46.9890 C   0  0  0  0  0  0  0  0  0  0  0  0
   59.2650   34.8220   46.0650 C   0  0  0  0  0  0  0  0  0  0  0  0
   58.5850   34.5870   44.8830 C   0  0  0  0  0  0  0  0  0  0  0  0
   58.0780   33.3430   44.5830 C   0  0  0  0  0  0  0  0  0  0  0  0
   58.2540   32.3120   45.4860 C   0  0  0  0  0  0  0  0  0  0  0  0
   57.7690   30.9640   45.2560 C   0  0  0  0  0  0  0  0  0  0  0  0
   56.5690   30.8180   44.8470 O   0  0  0  0  0  0  0  0  0  0  0  0
   58.5270   29.7510   45.4510 C   0  0  0  0  0  0  0  0  0  0  0  0
   58.8380   28.7860   44.4850 C   0  0  0  0  0  0  0  0  0  0  0  0
   59.5490   27.7850   45.0770 N   0  0  0  0  0  0  0  0  0  0  0  0
   59.7160   28.0460   46.3670 C   0  0  0  0  0  0  0  0  0  0  0  0
   60.3550   27.3200   47.3170 N   0  0  0  0  0  0  0  0  0  0  0  0
   60.3990   27.7880   48.6010 C   0  0  0  0  0  0  0  0  0  0  0  0
   59.7940   28.9930   48.9020 C   0  0  0  0  0  0  0  0  0  0  0  0
   59.7290   29.5530   50.2370 C   0  0  0  0  0  0  0  0  0  0  0  0
   58.4770   29.7150   50.7860 C   0  0  0  0  0  0  0  0  0  0  0  0
   58.2800   30.1340   52.0480 N   0  0  0  0  0  0  0  0  0  0  0  0
   59.3750   30.4070   52.8080 C   0  0  0  0  0  0  0  0  0  0  0  0
   60.6150   30.2550   52.2860 N   0  0  0  0  0  0  0  0  0  0  0  0
   60.8070   29.8320   51.0060 C   0  0  0  0  0  0  0  0  0  0  0  0
   61.9580   29.8040   50.5530 N   0  0  0  0  0  0  0  0  0  0  0  0
   63.0080   30.7160   50.5960 C   0  0  0  0  0  0  0  0  0  0  0  0
   63.0600   31.6100   49.3960 C   0  0  0  0  0  0  0  0  0  0  0  0
   62.2990   31.2340   48.3090 C   0  0  0  0  0  0  0  0  0  0  0  0
   62.2800   31.9740   47.1330 C   0  0  0  0  0  0  0  0  0  0  0  0
   63.0280   33.1250   47.0040 C   0  0  0  0  0  0  0  0  0  0  0  0
   63.7850   33.4950   48.0900 C   0  0  0  0  0  0  0  0  0  0  0  0
   63.7990   32.7390   49.2790 C   0  0  0  0  0  0  0  0  0  0  0  0
   59.1310   29.7400   47.9020 C   0  0  0  0  0  0  0  0  0  0  0  0
   59.1010   29.2420   46.6170 C   0  0  0  0  0  0  0  0  0  0  0  0
   58.9430   32.5830   46.6680 C   0  0  0  0  0  0  0  0  0  0  0  0
   59.5163   32.7632   51.7239 H   0  0  0  0  0  0  0  0  0  0  0  0
   59.8702   34.3496   52.4929 H   0  0  0  0  0  0  0  0  0  0  0  0
   61.5310   34.6990   50.4700 H   0  0  0  0  0  0  0  0  0  0  0  0
   61.0130   34.7590   48.0780 H   0  0  0  0  0  0  0  0  0  0  0  0
   59.6589   35.8275   46.2745 H   0  0  0  0  0  0  0  0  0  0  0  0
   58.4467   35.4116   44.1682 H   0  0  0  0  0  0  0  0  0  0  0  0
   57.5407   33.1721   43.6385 H   0  0  0  0  0  0  0  0  0  0  0  0
   58.5550   28.8288   43.4229 H   0  0  0  0  0  0  0  0  0  0  0  0
   59.8700   26.9670   44.4920 H   0  0  0  0  0  0  0  0  0  0  0  0
   60.9105   27.2113   49.3857 H   0  0  0  0  0  0  0  0  0  0  0  0
   57.5979   29.4914   50.1637 H   0  0  0  0  0  0  0  0  0  0  0  0
   59.2530   30.7509   53.8457 H   0  0  0  0  0  0  0  0  0  0  0  0
   61.4440   30.4790   52.9130 H   0  0  0  0  0  0  0  0  0  0  0  0
   62.8918   31.3413   51.4935 H   0  0  0  0  0  0  0  0  0  0  0  0
   63.9436   30.1378   50.6146 H   0  0  0  0  0  0  0  0  0  0  0  0
   61.6889   30.3211   48.3749 H   0  0  0  0  0  0  0  0  0  0  0  0
   61.6579   31.6359   46.2911 H   0  0  0  0  0  0  0  0  0  0  0  0
   63.0194   33.7180   46.0776 H   0  0  0  0  0  0  0  0  0  0  0  0
   64.3971   34.4069   48.0292 H   0  0  0  0  0  0  0  0  0  0  0  0
   64.4193   33.0707   50.1247 H   0  0  0  0  0  0  0  0  0  0  0  0
   58.6490   30.6987   48.1441 H   0  0  0  0  0  0  0  0  0  0  0  0
   59.0810   31.7605   47.3853 H   0  0  0  0  0  0  0  0  0  0  0  0
  1  2  3  0
  2  3  1  0
  3  4  1  0
  4  5  1  0
  5  6  2  0
  5  7  1  0
  7  8  1  0
  8  9  2  0
  9 10  1  0
 10 11  2  0
 11 12  1  0
 12 13  1  0
 13 14  2  0
 13 15  1  0
 15 16  2  0
 16 17  1  0
 17 18  1  0
 18 19  2  0
 19 20  1  0
 20 21  2  0
 21 22  1  0
 22 23  2  0
 23 24  1  0
 24 25  2  0
 25 26  1  0
 26 27  1  0
 27 28  2  0
 28 29  1  0
 29 30  1  0
 30 31  2  0
 31 32  1  0
 32 33  2  0
 33 34  1  0
 34 35  2  0
 21 36  1  0
 36 37  2  0
 12 38  2  0
 38  8  1  0
 37 15  1  0
 37 18  1  0
 27 22  1  0
 35 30  1  0
  3 39  1  0
  3 40  1  0
  4 41  1  0
  7 42  1  0
  9 43  1  0
 10 44  1  0
 11 45  1  0
 16 46  1  0
 17 47  1  0
 20 48  1  0
 23 49  1  0
 25 50  1  0
 26 51  1  0
 29 52  1  0
 29 53  1  0
 31 54  1  0
 32 55  1  0
 33 56  1  0
 34 57  1  0
 35 58  1  0
 36 59  1  0
 38 60  1  0
M  END
>  <smiles>  (41) 
N#CCNC(=O)Nc1cccc(C(=O)c2c[nH]c3ncc(-c4cnc[nH]c4=NCc4ccccc4)cc23)c1

>  <score_type>  (41) 
oracle

>  <origin>  (41) 
adg

>  <m_score__min__energy>  (41) 
-10.529999999999999

>  <m_primary>  (41) 
energy

$$$$
41:0
     RDKit          3D

 48 50  0  0  0  0  0  0  0  0999 V2000
   58.0190   32.5450   43.6880 C   0  0  0  0  0  0  0  0  0  0  0  0
   57.5680   32.8300   44.9140 C   0  0  0  0  0  0  0  0  0  0  0  0
   57.9470   34.1010   45.6190 C   0  0  0  0  0  0  0  0  0  0  0  0
   59.1300   33.8760   46.5240 C   0  0  0  0  0  0  0  0  0  0  0  0
   60.3960   33.6050   45.9830 C   0  0  0  0  0  0  0  0  0  0  0  0
   61.4980   33.4350   46.8230 C   0  0  0  0  0  0  0  0  0  0  0  0
   61.3470   33.5290   48.2080 C   0  0  0  0  0  0  0  0  0  0  0  0
   60.0840   33.7820   48.7680 C   0  0  0  0  0  0  0  0  0  0  0  0
   59.9120   33.8460   50.2700 C   0  0  0  0  0  0  0  0  0  0  0  0
   59.0560   32.7650   50.7970 N   0  0  0  0  0  0  0  0  0  0  0  0
   59.8040   31.5480   51.1710 C   0  0  0  0  0  0  0  0  0  0  0  0
   59.9220   30.5850   50.0240 C   0  0  0  0  0  0  0  0  0  0  0  0
   60.8750   29.6020   49.8800 C   0  0  0  0  0  0  0  0  0  0  0  0
   60.6920   29.0500   48.7060 O   0  0  0  0  0  0  0  0  0  0  0  0
   59.6720   29.6600   48.1420 C   0  0  0  0  0  0  0  0  0  0  0  0
   59.1810   29.3530   46.7840 C   0  0  0  0  0  0  0  0  0  0  0  0
   60.0530   28.8190   45.8230 C   0  0  0  0  0  0  0  0  0  0  0  0
   59.6010   28.5690   44.5250 C   0  0  0  0  0  0  0  0  0  0  0  0
   58.2770   28.8510   44.1740 C   0  0  0  0  0  0  0  0  0  0  0  0
   57.3910   29.3850   45.1270 C   0  0  0  0  0  0  0  0  0  0  0  0
   56.0570   29.6930   44.8250 O   0  0  0  0  0  0  0  0  0  0  0  0
   55.5200   29.7310   43.5060 C   0  0  0  0  0  0  0  0  0  0  0  0
   57.8500   29.6250   46.4290 C   0  0  0  0  0  0  0  0  0  0  0  0
   59.1450   30.6250   48.9260 N   0  0  0  0  0  0  0  0  0  0  0  0
   58.9820   33.9750   47.9180 C   0  0  0  0  0  0  0  0  0  0  0  0
   57.7234   31.6057   43.1978 H   0  0  0  0  0  0  0  0  0  0  0  0
   58.6856   33.2499   43.1695 H   0  0  0  0  0  0  0  0  0  0  0  0
   56.9021   32.1151   45.4195 H   0  0  0  0  0  0  0  0  0  0  0  0
   58.2047   34.8655   44.8713 H   0  0  0  0  0  0  0  0  0  0  0  0
   57.0943   34.4350   46.2284 H   0  0  0  0  0  0  0  0  0  0  0  0
   60.5206   33.5262   44.8929 H   0  0  0  0  0  0  0  0  0  0  0  0
   62.4885   33.2263   46.3924 H   0  0  0  0  0  0  0  0  0  0  0  0
   62.2214   33.4043   48.8636 H   0  0  0  0  0  0  0  0  0  0  0  0
   60.9034   33.7694   50.7403 H   0  0  0  0  0  0  0  0  0  0  0  0
   59.4197   34.8011   50.5054 H   0  0  0  0  0  0  0  0  0  0  0  0
   58.4760   33.1090   51.5970 H   0  0  0  0  0  0  0  0  0  0  0  0
   58.3890   32.5020   50.0340 H   0  0  0  0  0  0  0  0  0  0  0  0
   60.8139   31.8379   51.4966 H   0  0  0  0  0  0  0  0  0  0  0  0
   59.2536   31.0463   51.9805 H   0  0  0  0  0  0  0  0  0  0  0  0
   61.6472   29.3303   50.6147 H   0  0  0  0  0  0  0  0  0  0  0  0
   61.0960   28.5965   46.0926 H   0  0  0  0  0  0  0  0  0  0  0  0
   60.2889   28.1489   43.7765 H   0  0  0  0  0  0  0  0  0  0  0  0
   57.9275   28.6546   43.1497 H   0  0  0  0  0  0  0  0  0  0  0  0
   54.4240   29.8086   43.5584 H   0  0  0  0  0  0  0  0  0  0  0  0
   55.9241   30.6028   42.9706 H   0  0  0  0  0  0  0  0  0  0  0  0
   55.7973   28.8110   42.9706 H   0  0  0  0  0  0  0  0  0  0  0  0
   57.1591   30.0315   47.1823 H   0  0  0  0  0  0  0  0  0  0  0  0
   57.9957   34.2054   48.3470 H   0  0  0  0  0  0  0  0  0  0  0  0
  1  2  2  0
  2  3  1  0
  3  4  1  0
  4  5  2  0
  5  6  1  0
  6  7  2  0
  7  8  1  0
  8  9  1  0
  9 10  1  0
 10 11  1  0
 11 12  1  0
 12 13  2  0
 13 14  1  0
 14 15  1  0
 15 16  1  0
 16 17  2  0
 17 18  1  0
 18 19  2  0
 19 20  1  0
 20 21  1  0
 21 22  1  0
 20 23  2  0
 15 24  2  0
  8 25  2  0
 25  4  1  0
 24 12  1  0
 23 16  1  0
  1 26  1  0
  1 27  1  0
  2 28  1  0
  3 29  1  0
  3 30  1  0
  5 31  1  0
  6 32  1  0
  7 33  1  0
  9 34  1  0
  9 35  1  0
 10 36  1  0
 10 37  1  0
 11 38  1  0
 11 39  1  0
 13 40  1  0
 17 41  1  0
 18 42  1  0
 19 43  1  0
 22 44  1  0
 22 45  1  0
 22 46  1  0
 23 47  1  0
 25 48  1  0
M  CHG  1  10   1
M  END
>  <UniqueID>  (42) 
38

>  <SMILES>  (42) 
C=CCc1cccc(C[NH2+]Cc2coc(-c3cccc(OC)c3)n2)c1

>  <Energy>  (42) 
71.11992457210675

>  <Genealogy>  (42) 
C=CCc1cccc(C[NH2+]Cc2coc(-c3cccc(OC)c3)n2)c1 (protonated)
C=CCc1cccc(C[NH2+]Cc2coc(-c3cccc(OC)c3)n2)c1 (3D coordinates assigned)
C=CCc1cccc(C[NH2+]Cc2coc(-c3cccc(OC)c3)n2)c1 (optimized conformer: 71.11992457210675 kcal/mol)

>  <smiles>  (42) 
C=CCc1cccc(CNCc2coc(-c3cccc(OC)c3)n2)c1

>  <score_type>  (42) 
oracle

>  <origin>  (42) 
adg

>  <m_score__min__energy>  (42) 
-6.6900000000000004

>  <m_primary>  (42) 
energy

$$$$
42:0
     RDKit          3D

 48 50  0  0  0  0  0  0  0  0999 V2000
   60.5050   26.9280   48.3510 C   0  0  0  0  0  0  0  0  0  0  0  0
   59.7510   28.0150   48.1230 C   0  0  0  0  0  0  0  0  0  0  0  0
   58.8600   28.2150   47.0570 C   0  0  0  0  0  0  0  0  0  0  0  0
   58.3850   27.3660   46.1250 C   0  0  0  0  0  0  0  0  0  0  0  0
   57.1140   26.6290   46.2010 C   0  0  0  0  0  0  0  0  0  0  0  0
   57.0270   25.3350   46.5540 N   0  0  0  0  0  0  0  0  0  0  0  0
   55.7200   25.0470   46.3590 C   0  0  0  0  0  0  0  0  0  0  0  0
   55.2350   23.9100   46.5990 O   0  0  0  0  0  0  0  0  0  0  0  0
   54.9790   26.0660   45.8780 N   0  0  0  0  0  0  0  0  0  0  0  0
   55.8790   27.0560   45.7690 C   0  0  0  0  0  0  0  0  0  0  0  0
   55.5840   28.3130   45.2560 O   0  0  0  0  0  0  0  0  0  0  0  0
   58.5000   29.5510   47.1010 C   0  0  0  0  0  0  0  0  0  0  0  0
   59.1200   30.1010   48.2040 C   0  0  0  0  0  0  0  0  0  0  0  0
   59.0350   31.5280   48.5780 C   0  0  0  0  0  0  0  0  0  0  0  0
   58.1440   31.8960   49.3910 O   0  0  0  0  0  0  0  0  0  0  0  0
   59.9580   32.4950   48.0390 N   0  0  0  0  0  0  0  0  0  0  0  0
   60.2180   33.7560   48.7360 C   0  0  0  0  0  0  0  0  0  0  0  0
   59.7130   34.9390   47.8890 C   0  0  0  0  0  0  0  0  0  0  0  0
   59.7980   34.7180   46.4120 N   0  0  0  0  0  0  0  0  0  0  0  0
   58.4570   34.5080   45.7820 C   0  0  0  0  0  0  0  0  0  0  0  0
   58.6170   33.7490   44.4480 C   0  0  0  0  0  0  0  0  0  0  0  0
   57.4910   33.6850   46.6650 C   0  0  0  0  0  0  0  0  0  0  0  0
   60.8300   33.7050   46.0730 C   0  0  0  0  0  0  0  0  0  0  0  0
   60.5000   32.3330   46.6860 C   0  0  0  0  0  0  0  0  0  0  0  0
   59.8610   29.1630   48.8420 N   0  0  0  0  0  0  0  0  0  0  0  0
   60.6610   29.3660   50.0570 C   0  0  0  0  0  0  0  0  0  0  0  0
   61.1682   26.8927   49.2279 H   0  0  0  0  0  0  0  0  0  0  0  0
   60.4597   26.0726   47.6609 H   0  0  0  0  0  0  0  0  0  0  0  0
   59.0021   27.2101   45.2278 H   0  0  0  0  0  0  0  0  0  0  0  0
   57.8436   30.0751   46.3907 H   0  0  0  0  0  0  0  0  0  0  0  0
   59.6956   33.7517   49.7041 H   0  0  0  0  0  0  0  0  0  0  0  0
   61.3008   33.8632   48.8972 H   0  0  0  0  0  0  0  0  0  0  0  0
   58.6607   35.1251   48.1497 H   0  0  0  0  0  0  0  0  0  0  0  0
   60.3672   35.7931   48.1183 H   0  0  0  0  0  0  0  0  0  0  0  0
   58.0311   35.5118   45.6370 H   0  0  0  0  0  0  0  0  0  0  0  0
   58.8399   32.6914   44.6523 H   0  0  0  0  0  0  0  0  0  0  0  0
   57.6837   33.8220   43.8704 H   0  0  0  0  0  0  0  0  0  0  0  0
   59.4414   34.1925   43.8704 H   0  0  0  0  0  0  0  0  0  0  0  0
   57.7128   33.8739   47.7257 H   0  0  0  0  0  0  0  0  0  0  0  0
   56.4540   33.9814   46.4488 H   0  0  0  0  0  0  0  0  0  0  0  0
   57.6189   32.6141   46.4488 H   0  0  0  0  0  0  0  0  0  0  0  0
   60.8846   33.6034   44.9791 H   0  0  0  0  0  0  0  0  0  0  0  0
   61.7923   34.0432   46.4847 H   0  0  0  0  0  0  0  0  0  0  0  0
   59.7558   31.8240   46.0559 H   0  0  0  0  0  0  0  0  0  0  0  0
   61.4217   31.7351   46.7399 H   0  0  0  0  0  0  0  0  0  0  0  0
   60.0292   29.2057   50.9431 H   0  0  0  0  0  0  0  0  0  0  0  0
   61.4974   28.6516   50.0689 H   0  0  0  0  0  0  0  0  0  0  0  0
   61.0556   30.3927   50.0689 H   0  0  0  0  0  0  0  0  0  0  0  0
  1  2  2  0
  2  3  1  0
  3  4  2  3
  4  5  1  0
  5  6  1  0
  6  7  1  0
  7  8  2  0
  7  9  1  0
  9 10  1  0
 10 11  1  0
  3 12  1  0
 12 13  2  0
 13 14  1  0
 14 15  2  0
 14 16  1  0
 16 17  1  0
 17 18  1  0
 18 19  1  0
 19 20  1  0
 20 21  1  0
 20 22  1  0
 19 23  1  0
 23 24  1  0
 13 25  1  0
 25 26  1  0
 25  2  1  0
 10  5  2  0
 24 16  1  0
  1 27  1  0
  1 28  1  0
  4 29  1  0
 12 30  1  0
 17 31  1  0
 17 32  1  0
 18 33  1  0
 18 34  1  0
 20 35  1  0
 21 36  1  0
 21 37  1  0
 21 38  1  0
 22 39  1  0
 22 40  1  0
 22 41  1  0
 23 42  1  0
 23 43  1  0
 24 44  1  0
 24 45  1  0
 26 46  1  0
 26 47  1  0
 26 48  1  0
M  CHG  3   6  -1   9  -1  11  -1
M  END
>  <UniqueID>  (43) 
39

>  <SMILES>  (43) 
C=c1c(=Cc2[n-]c(=O)[n-]c2[O-])cc(C(=O)N2CCN(C(C)C)CC2)n1C

>  <Energy>  (43) 
135.91820042784445

>  <Genealogy>  (43) 
C=c1c(=Cc2[n-]c(=O)[n-]c2[O-])cc(C(=O)N2CCN(C(C)C)CC2)n1C (protonated)
C=c1c(=Cc2[n-]c(=O)[n-]c2[O-])cc(C(=O)N2CCN(C(C)C)CC2)n1C (3D coordinates assigned)
C=c1c(=Cc2[n-]c(=O)[n-]c2[O-])cc(C(=O)N2CCN(C(C)C)CC2)n1C (nonaromatic ring conformer: 135.91820042784445 kcal/mol)

>  <smiles>  (43) 
C=c1c(=Cc2[nH]c(=O)[nH]c2O)cc(C(=O)N2CCN(C(C)C)CC2)n1C

>  <score_type>  (43) 
oracle

>  <origin>  (43) 
adg

>  <m_score__min__energy>  (43) 
-16.550000000000001

>  <m_primary>  (43) 
energy

$$$$
43:0
     RDKit          3D

 66 69  0  0  0  0  0  0  0  0999 V2000
   62.5770   33.8920   46.3890 C   0  0  0  0  0  0  0  0  0  0  0  0
   62.5480   33.4050   47.8150 C   0  0  0  0  0  0  0  0  0  0  0  0
   63.6710   32.7670   48.3590 C   0  0  0  0  0  0  0  0  0  0  0  0
   63.6490   32.2960   49.6700 C   0  0  0  0  0  0  0  0  0  0  0  0
   62.5130   32.4690   50.4580 C   0  0  0  0  0  0  0  0  0  0  0  0
   61.3780   33.1210   49.9490 C   0  0  0  0  0  0  0  0  0  0  0  0
   60.2260   33.2950   50.7990 N   0  0  0  0  0  0  0  0  0  0  0  0
   60.0270   32.5460   51.7790 O   0  0  0  0  0  0  0  0  0  0  0  0
   59.2720   34.2360   50.4840 O   0  0  0  0  0  0  0  0  0  0  0  0
   61.3940   33.5830   48.6080 C   0  0  0  0  0  0  0  0  0  0  0  0
   60.2370   34.2090   48.0380 N   0  0  0  0  0  0  0  0  0  0  0  0
   59.4470   33.5950   47.0030 C   0  0  0  0  0  0  0  0  0  0  0  0
   58.2180   34.1450   46.5880 C   0  0  0  0  0  0  0  0  0  0  0  0
   57.4530   33.5050   45.6080 C   0  0  0  0  0  0  0  0  0  0  0  0
   57.8910   32.2970   45.0480 C   0  0  0  0  0  0  0  0  0  0  0  0
   57.0260   31.5720   44.0990 C   0  0  0  0  0  0  0  0  0  0  0  0
   57.0210   31.9140   42.8890 O   0  0  0  0  0  0  0  0  0  0  0  0
   56.1490   30.5200   44.5290 N   0  0  0  0  0  0  0  0  0  0  0  0
   56.5290   29.1180   44.7090 C   0  0  0  0  0  0  0  0  0  0  0  0
   57.9450   28.9940   45.3060 C   0  0  0  0  0  0  0  0  0  0  0  0
   58.8780   28.2040   44.3800 C   0  0  0  0  0  0  0  0  0  0  0  0
   60.3200   28.2150   44.9350 C   0  0  0  0  0  0  0  0  0  0  0  0
   60.4010   28.1280   46.4200 N   0  0  0  0  0  0  0  0  0  0  0  0
   60.7970   29.4030   47.0580 C   0  0  0  0  0  0  0  0  0  0  0  0
   60.1260   29.5450   48.3970 C   0  0  0  0  0  0  0  0  0  0  0  0
   60.5360   28.7440   49.4730 C   0  0  0  0  0  0  0  0  0  0  0  0
   59.9180   28.8650   50.7210 C   0  0  0  0  0  0  0  0  0  0  0  0
   58.8780   29.7940   50.9150 C   0  0  0  0  0  0  0  0  0  0  0  0
   58.2210   29.9260   52.2380 C   0  0  0  0  0  0  0  0  0  0  0  0
   58.9620   30.3630   53.3760 N   0  0  0  0  0  0  0  0  0  0  0  0
   56.9980   29.6530   52.3700 O   0  0  0  0  0  0  0  0  0  0  0  0
   58.4730   30.5960   49.8330 C   0  0  0  0  0  0  0  0  0  0  0  0
   59.0910   30.4730   48.5840 C   0  0  0  0  0  0  0  0  0  0  0  0
   59.1870   27.5510   47.0340 C   0  0  0  0  0  0  0  0  0  0  0  0
   57.9220   28.3730   46.7240 C   0  0  0  0  0  0  0  0  0  0  0  0
   59.1280   31.7640   45.4350 C   0  0  0  0  0  0  0  0  0  0  0  0
   59.9010   32.4110   46.4030 C   0  0  0  0  0  0  0  0  0  0  0  0
   62.6424   34.9900   46.3778 H   0  0  0  0  0  0  0  0  0  0  0  0
   63.4514   33.4673   45.8742 H   0  0  0  0  0  0  0  0  0  0  0  0
   61.6583   33.5741   45.8742 H   0  0  0  0  0  0  0  0  0  0  0  0
   64.5757   32.6373   47.7469 H   0  0  0  0  0  0  0  0  0  0  0  0
   64.5312   31.7860   50.0843 H   0  0  0  0  0  0  0  0  0  0  0  0
   62.5050   32.0905   51.4908 H   0  0  0  0  0  0  0  0  0  0  0  0
   60.0510   35.2050   48.2990 H   0  0  0  0  0  0  0  0  0  0  0  0
   57.8585   35.0825   47.0372 H   0  0  0  0  0  0  0  0  0  0  0  0
   56.5041   33.9511   45.2754 H   0  0  0  0  0  0  0  0  0  0  0  0
   55.8103   28.6362   45.3882 H   0  0  0  0  0  0  0  0  0  0  0  0
   56.5229   28.6273   43.7245 H   0  0  0  0  0  0  0  0  0  0  0  0
   58.3422   30.0157   45.3978 H   0  0  0  0  0  0  0  0  0  0  0  0
   58.5243   27.1648   44.3093 H   0  0  0  0  0  0  0  0  0  0  0  0
   58.8743   28.6720   43.3845 H   0  0  0  0  0  0  0  0  0  0  0  0
   60.8607   27.3572   44.5087 H   0  0  0  0  0  0  0  0  0  0  0  0
   60.7624   29.1807   44.6493 H   0  0  0  0  0  0  0  0  0  0  0  0
   61.8883   29.4169   47.1953 H   0  0  0  0  0  0  0  0  0  0  0  0
   60.4888   30.2383   46.4120 H   0  0  0  0  0  0  0  0  0  0  0  0
   61.3489   28.0161   49.3339 H   0  0  0  0  0  0  0  0  0  0  0  0
   60.2464   28.2301   51.5571 H   0  0  0  0  0  0  0  0  0  0  0  0
   59.8000   30.9760   53.2670 H   0  0  0  0  0  0  0  0  0  0  0  0
   57.6625   31.3270   49.9701 H   0  0  0  0  0  0  0  0  0  0  0  0
   58.7642   31.1061   47.7459 H   0  0  0  0  0  0  0  0  0  0  0  0
   59.0477   26.5302   46.6485 H   0  0  0  0  0  0  0  0  0  0  0  0
   59.3296   27.5553   48.1247 H   0  0  0  0  0  0  0  0  0  0  0  0
   57.0453   27.7136   46.8051 H   0  0  0  0  0  0  0  0  0  0  0  0
   57.8777   29.2000   47.4480 H   0  0  0  0  0  0  0  0  0  0  0  0
   59.4917   30.8332   44.9753 H   0  0  0  0  0  0  0  0  0  0  0  0
   60.8732   31.9885   46.6968 H   0  0  0  0  0  0  0  0  0  0  0  0
  1  2  1  0
  2  3  2  0
  3  4  1  0
  4  5  2  0
  5  6  1  0
  6  7  1  0
  7  8  2  0
  7  9  1  0
  6 10  2  0
 10 11  1  0
 11 12  1  0
 12 13  2  0
 13 14  1  0
 14 15  2  0
 15 16  1  0
 16 17  2  0
 16 18  1  0
 18 19  1  0
 19 20  1  0
 20 21  1  0
 21 22  1  0
 22 23  1  0
 23 24  1  0
 24 25  1  0
 25 26  2  0
 26 27  1  0
 27 28  2  0
 28 29  1  0
 29 30  1  0
 29 31  2  0
 28 32  1  0
 32 33  2  0
 23 34  1  0
 34 35  1  0
 15 36  1  0
 36 37  2  0
 10  2  1  0
 37 12  1  0
 35 20  1  0
 33 25  1  0
  1 38  1  0
  1 39  1  0
  1 40  1  0
  3 41  1  0
  4 42  1  0
  5 43  1  0
 11 44  1  0
 13 45  1  0
 14 46  1  0
 19 47  1  0
 19 48  1  0
 20 49  1  0
 21 50  1  0
 21 51  1  0
 22 52  1  0
 22 53  1  0
 24 54  1  0
 24 55  1  0
 26 56  1  0
 27 57  1  0
 30 58  1  0
 32 59  1  0
 33 60  1  0
 34 61  1  0
 34 62  1  0
 35 63  1  0
 35 64  1  0
 36 65  1  0
 37 66  1  0
M  CHG  4   7   1   9  -1  18  -1  30  -1
M  END
>  <UniqueID>  (44) 
40

>  <SMILES>  (44) 
Cc1cccc([N+](=O)[O-])c1Nc1ccc(C(=O)[N-]CC2CCN(Cc3ccc(C([NH-])=O)cc3)CC2)cc1

>  <Energy>  (44) 
87.9966832224481

>  <Genealogy>  (44) 
Cc1cccc([N+](=O)[O-])c1Nc1ccc(C(=O)[N-]CC2CCN(Cc3ccc(C([NH-])=O)cc3)CC2)cc1 (protonated)
Cc1cccc([N+](=O)[O-])c1Nc1ccc(C(=O)[N-]CC2CCN(Cc3ccc(C([NH-])=O)cc3)CC2)cc1 (3D coordinates assigned)
Cc1cccc([N+](=O)[O-])c1Nc1ccc(C(=O)[N-]CC2CCN(Cc3ccc(C([NH-])=O)cc3)CC2)cc1 (nonaromatic ring conformer: 87.9966832224481 kcal/mol)

>  <smiles>  (44) 
Cc1cccc([N+](=O)[O-])c1Nc1ccc(C(=O)NCC2CCN(Cc3ccc(C(N)=O)cc3)CC2)cc1

>  <score_type>  (44) 
oracle

>  <origin>  (44) 
adg

>  <m_score__min__energy>  (44) 
-13.970000000000001

>  <m_primary>  (44) 
energy

$$$$
44:0
     RDKit          3D

 65 68  0  0  0  0  0  0  0  0999 V2000
   54.0150   26.3360   46.3880 H   0  0  0  0  0  0  0  0  0  0  0  0
   54.9430   26.4250   45.9890 O   0  0  0  0  0  0  0  0  0  0  0  0
   55.9690   25.5740   46.3850 C   0  0  0  0  0  0  0  0  0  0  0  0
   55.7800   24.4690   47.1240 N   0  0  0  0  0  0  0  0  0  0  0  0
   57.0230   23.9460   47.1980 C   0  0  0  0  0  0  0  0  0  0  0  0
   57.2720   22.8740   47.8090 O   0  0  0  0  0  0  0  0  0  0  0  0
   57.9740   24.6510   46.5500 N   0  0  0  0  0  0  0  0  0  0  0  0
   57.3020   25.7070   46.0590 C   0  0  0  0  0  0  0  0  0  0  0  0
   57.8990   26.6900   45.1400 C   0  0  0  0  0  0  0  0  0  0  0  0
   57.9186   26.4284   44.0717 H   0  0  0  0  0  0  0  0  0  0  0  0
   58.4240   27.8820   45.4890 C   0  0  0  0  0  0  0  0  0  0  0  0
   57.9290   29.0860   45.0150 C   0  0  0  0  0  0  0  0  0  0  0  0
   57.1286   29.2185   44.2721 H   0  0  0  0  0  0  0  0  0  0  0  0
   58.6320   30.0870   45.6530 C   0  0  0  0  0  0  0  0  0  0  0  0
   58.3710   31.5530   45.4760 C   0  0  0  0  0  0  0  0  0  0  0  0
   58.2857   32.0320   46.4626 H   0  0  0  0  0  0  0  0  0  0  0  0
   59.2021   32.0086   44.9178 H   0  0  0  0  0  0  0  0  0  0  0  0
   57.4337   31.6938   44.9178 H   0  0  0  0  0  0  0  0  0  0  0  0
   59.5760   29.5580   46.4640 N   0  0  0  0  0  0  0  0  0  0  0  0
   60.4790   30.3040   47.3030 C   0  0  0  0  0  0  0  0  0  0  0  0
   60.3840   30.2050   48.6980 C   0  0  0  0  0  0  0  0  0  0  0  0
   59.6395   29.5326   49.1491 H   0  0  0  0  0  0  0  0  0  0  0  0
   61.2290   30.9550   49.5180 C   0  0  0  0  0  0  0  0  0  0  0  0
   61.1538   30.8612   50.6114 H   0  0  0  0  0  0  0  0  0  0  0  0
   62.1750   31.8290   48.9560 C   0  0  0  0  0  0  0  0  0  0  0  0
   63.0710   32.6240   49.8250 C   0  0  0  0  0  0  0  0  0  0  0  0
   63.0790   33.8820   49.7300 O   0  0  0  0  0  0  0  0  0  0  0  0
   63.9530   31.9840   50.7580 N   0  0  0  0  0  0  0  0  0  0  0  0
   63.4070   31.0510   51.7570 C   0  0  0  0  0  0  0  0  0  0  0  0
   62.6764   31.5844   52.3828 H   0  0  0  0  0  0  0  0  0  0  0  0
   62.9295   30.2152   51.2246 H   0  0  0  0  0  0  0  0  0  0  0  0
   64.5110   30.4820   52.6550 C   0  0  0  0  0  0  0  0  0  0  0  0
   64.7976   31.2359   53.4030 H   0  0  0  0  0  0  0  0  0  0  0  0
   64.1372   29.5797   53.1610 H   0  0  0  0  0  0  0  0  0  0  0  0
   65.6860   30.1300   51.8420 N   0  0  0  0  0  0  0  0  0  0  0  0
   66.3200   28.8400   51.9540 C   0  0  0  0  0  0  0  0  0  0  0  0
   65.8820   27.9860   52.7730 O   0  0  0  0  0  0  0  0  0  0  0  0
   67.4220   28.5440   51.1340 O   0  0  0  0  0  0  0  0  0  0  0  0
   67.9530   27.2380   50.8620 C   0  0  0  0  0  0  0  0  0  0  0  0
   66.8380   26.2960   50.3610 C   0  0  0  0  0  0  0  0  0  0  0  0
   66.3159   25.8549   51.2229 H   0  0  0  0  0  0  0  0  0  0  0  0
   66.1220   26.8669   49.7515 H   0  0  0  0  0  0  0  0  0  0  0  0
   67.2813   25.4947   49.7515 H   0  0  0  0  0  0  0  0  0  0  0  0
   68.6360   26.6540   52.1160 C   0  0  0  0  0  0  0  0  0  0  0  0
   68.1576   27.0630   53.0181 H   0  0  0  0  0  0  0  0  0  0  0  0
   68.5350   25.5587   52.1120 H   0  0  0  0  0  0  0  0  0  0  0  0
   69.7024   26.9239   52.1120 H   0  0  0  0  0  0  0  0  0  0  0  0
   69.0020   27.4010   49.7520 C   0  0  0  0  0  0  0  0  0  0  0  0
   69.9930   27.5550   50.2038 H   0  0  0  0  0  0  0  0  0  0  0  0
   69.0200   26.4949   49.1286 H   0  0  0  0  0  0  0  0  0  0  0  0
   68.7442   28.2699   49.1286 H   0  0  0  0  0  0  0  0  0  0  0  0
   66.2340   31.1070   50.8870 C   0  0  0  0  0  0  0  0  0  0  0  0
   67.2468   31.3907   51.2090 H   0  0  0  0  0  0  0  0  0  0  0  0
   66.2532   30.6396   49.8914 H   0  0  0  0  0  0  0  0  0  0  0  0
   65.3680   32.3670   50.8060 C   0  0  0  0  0  0  0  0  0  0  0  0
   65.5486   32.9939   51.6917 H   0  0  0  0  0  0  0  0  0  0  0  0
   65.6263   32.9324   49.8985 H   0  0  0  0  0  0  0  0  0  0  0  0
   62.2830   31.9100   47.5580 C   0  0  0  0  0  0  0  0  0  0  0  0
   63.0378   32.5699   47.1054 H   0  0  0  0  0  0  0  0  0  0  0  0
   61.4370   31.1570   46.7380 C   0  0  0  0  0  0  0  0  0  0  0  0
   61.5237   31.2344   45.6442 H   0  0  0  0  0  0  0  0  0  0  0  0
   59.4830   28.2060   46.3530 C   0  0  0  0  0  0  0  0  0  0  0  0
   60.3850   27.3610   46.8750 C   0  0  0  0  0  0  0  0  0  0  0  0
   61.1718   27.7406   47.5434 H   0  0  0  0  0  0  0  0  0  0  0  0
   60.3377   26.2887   46.6345 H   0  0  0  0  0  0  0  0  0  0  0  0
  1  2  1  0
  2  3  1  0
  3  4  1  0
  4  5  1  0
  5  6  2  0
  5  7  1  0
  7  8  1  0
  8  9  1  0
  9 10  1  0
  9 11  2  0
 11 12  1  0
 12 13  1  0
 12 14  2  0
 14 15  1  0
 15 16  1  0
 15 17  1  0
 15 18  1  0
 14 19  1  0
 19 20  1  0
 20 21  2  0
 21 22  1  0
 21 23  1  0
 23 24  1  0
 23 25  2  0
 25 26  1  0
 26 27  2  0
 26 28  1  0
 28 29  1  0
 29 30  1  0
 29 31  1  0
 29 32  1  0
 32 33  1  0
 32 34  1  0
 32 35  1  0
 35 36  1  0
 36 37  2  0
 36 38  1  0
 38 39  1  0
 39 40  1  0
 40 41  1  0
 40 42  1  0
 40 43  1  0
 39 44  1  0
 44 45  1  0
 44 46  1  0
 44 47  1  0
 39 48  1  0
 48 49  1  0
 48 50  1  0
 48 51  1  0
 35 52  1  0
 52 53  1  0
 52 54  1  0
 52 55  1  0
 55 56  1  0
 55 57  1  0
 25 58  1  0
 58 59  1  0
 58 60  2  0
 60 61  1  0
 19 62  1  0
 62 63  2  0
 63 64  1  0
 63 65  1  0
  8  3  2  0
 62 11  1  0
 60 20  1  0
 55 28  1  0
M  CHG  2   4  -1   7  -1
M  END
>  <UniqueID>  (45) 
41

>  <SMILES>  (45) 
C=c1/c(=C\c2[n-]c(=O)[n-]c2O)cc(C)n1-c1ccc(C(=O)N2CCN(C(=O)OC(C)(C)C)CC2)cc1

>  <Energy>  (45) 
142.65715727220206

>  <Genealogy>  (45) 
C=c1c(=Cc2[n-]c(=O)[n-]c2O)cc(C)n1-c1ccc(C(=O)N2CCN(C(=O)OC(C)(C)C)CC2)cc1 (protonated)
C=c1/c(=C\c2[n-]c(=O)[n-]c2O)cc(C)n1-c1ccc(C(=O)N2CCN(C(=O)OC(C)(C)C)CC2)cc1 (cis-trans isomerization)
C=c1/c(=C\c2[n-]c(=O)[n-]c2O)cc(C)n1-c1ccc(C(=O)N2CCN(C(=O)OC(C)(C)C)CC2)cc1 (3D coordinates assigned)
C=c1/c(=C\c2[n-]c(=O)[n-]c2O)cc(C)n1-c1ccc(C(=O)N2CCN(C(=O)OC(C)(C)C)CC2)cc1 (nonaromatic ring conformer: 142.65715727220206 kcal/mol)

>  <smiles>  (45) 
C=c1c(=Cc2[nH]c(=O)[nH]c2O)cc(C)n1-c1ccc(C(=O)N2CCN(C(=O)OC(C)(C)C)CC2)cc1

>  <score_type>  (45) 
oracle

>  <origin>  (45) 
adg

>  <m_score__min__energy>  (45) 
-13.65

>  <m_primary>  (45) 
energy

$$$$
45:0
     RDKit          3D

 47 50  0  0  0  0  0  0  0  0999 V2000
   55.9660   26.6910   53.4970 O   0  0  0  0  0  0  0  0  0  0  0  0
   55.4690   27.7680   53.9200 C   0  0  0  0  0  0  0  0  0  0  0  0
   54.5480   27.8260   54.9910 N   0  0  0  0  0  0  0  0  0  0  0  0
   54.1300   29.1830   55.0760 C   0  0  0  0  0  0  0  0  0  0  0  0
   53.3060   29.5850   55.9400 O   0  0  0  0  0  0  0  0  0  0  0  0
   54.7690   30.0740   54.0470 C   0  0  2  0  0  0  0  0  0  0  0  0
   53.7440   30.6770   53.1120 C   0  0  0  0  0  0  0  0  0  0  0  0
   54.0320   30.7990   51.7420 C   0  0  0  0  0  0  0  0  0  0  0  0
   53.0900   31.3510   50.8670 C   0  0  0  0  0  0  0  0  0  0  0  0
   51.8530   31.7840   51.3510 C   0  0  0  0  0  0  0  0  0  0  0  0
   50.9200   32.3320   50.4790 O   0  0  0  0  0  0  0  0  0  0  0  0
   51.5550   31.6670   52.7120 C   0  0  0  0  0  0  0  0  0  0  0  0
   52.4930   31.1160   53.5900 C   0  0  0  0  0  0  0  0  0  0  0  0
   55.6670   29.1000   53.3400 C   0  0  0  0  0  0  0  0  0  0  0  0
   56.4240   29.4260   52.3310 N   0  0  0  0  0  0  0  0  0  0  0  0
   57.1350   30.6590   52.1650 C   0  0  0  0  0  0  0  0  0  0  0  0
   57.2380   31.5840   53.2170 C   0  0  0  0  0  0  0  0  0  0  0  0
   57.8920   32.8010   53.0170 C   0  0  0  0  0  0  0  0  0  0  0  0
   58.4200   33.1190   51.7640 C   0  0  0  0  0  0  0  0  0  0  0  0
   58.2780   32.2270   50.6880 C   0  0  0  0  0  0  0  0  0  0  0  0
   58.8290   32.5550   49.3540 C   0  0  0  0  0  0  0  0  0  0  0  0
   58.0360   32.7050   48.3850 O   0  0  0  0  0  0  0  0  0  0  0  0
   60.2440   32.7190   49.1400 N   0  0  0  0  0  0  0  0  0  0  0  0
   60.8750   32.2240   47.9120 C   0  0  0  0  0  0  0  0  0  0  0  0
   61.9240   33.2310   47.4330 C   0  0  0  0  0  0  0  0  0  0  0  0
   62.8280   33.5530   48.4740 O   0  0  0  0  0  0  0  0  0  0  0  0
   62.1410   34.2210   49.5150 C   0  0  0  0  0  0  0  0  0  0  0  0
   61.1140   33.2930   50.1720 C   0  0  0  0  0  0  0  0  0  0  0  0
   57.6340   30.9940   50.9000 C   0  0  0  0  0  0  0  0  0  0  0  0
   54.2100   27.0260   55.5720 H   0  0  0  0  0  0  0  0  0  0  0  0
   55.2915   30.9466   54.4660 H   0  0  0  0  0  0  0  0  0  0  0  0
   55.0038   30.4585   51.3552 H   0  0  0  0  0  0  0  0  0  0  0  0
   53.3238   31.4442   49.7962 H   0  0  0  0  0  0  0  0  0  0  0  0
   50.5812   32.0090   53.0924 H   0  0  0  0  0  0  0  0  0  0  0  0
   52.2534   31.0246   54.6597 H   0  0  0  0  0  0  0  0  0  0  0  0
   56.8028   31.3492   54.1996 H   0  0  0  0  0  0  0  0  0  0  0  0
   57.9918   33.5125   53.8500 H   0  0  0  0  0  0  0  0  0  0  0  0
   58.9495   34.0722   51.6188 H   0  0  0  0  0  0  0  0  0  0  0  0
   61.3602   31.2575   48.1134 H   0  0  0  0  0  0  0  0  0  0  0  0
   60.1088   32.0956   47.1332 H   0  0  0  0  0  0  0  0  0  0  0  0
   62.4836   32.7955   46.5920 H   0  0  0  0  0  0  0  0  0  0  0  0
   61.4097   34.1507   47.1173 H   0  0  0  0  0  0  0  0  0  0  0  0
   62.8669   34.5499   50.2732 H   0  0  0  0  0  0  0  0  0  0  0  0
   61.6126   35.0870   49.0898 H   0  0  0  0  0  0  0  0  0  0  0  0
   61.6373   32.4837   50.7023 H   0  0  0  0  0  0  0  0  0  0  0  0
   60.5060   33.8664   50.8872 H   0  0  0  0  0  0  0  0  0  0  0  0
   57.5215   30.2870   50.0648 H   0  0  0  0  0  0  0  0  0  0  0  0
  1  2  2  0
  2  3  1  0
  3  4  1  0
  4  5  2  0
  4  6  1  0
  6  7  1  0
  7  8  2  0
  8  9  1  0
  9 10  2  0
 10 11  1  0
 10 12  1  0
 12 13  2  0
  6 14  1  0
 14 15  2  3
 15 16  1  0
 16 17  2  0
 17 18  1  0
 18 19  2  0
 19 20  1  0
 20 21  1  0
 21 22  2  0
 21 23  1  0
 23 24  1  0
 24 25  1  0
 25 26  1  0
 26 27  1  0
 27 28  1  0
 20 29  2  0
 14  2  1  0
 29 16  1  0
 13  7  1  0
 28 23  1  0
  3 30  1  0
  6 31  1  1
  8 32  1  0
  9 33  1  0
 12 34  1  0
 13 35  1  0
 17 36  1  0
 18 37  1  0
 19 38  1  0
 24 39  1  0
 24 40  1  0
 25 41  1  0
 25 42  1  0
 27 43  1  0
 27 44  1  0
 28 45  1  0
 28 46  1  0
 29 47  1  0
M  CHG  1  11  -1
M  END
>  <UniqueID>  (46) 
42

>  <SMILES>  (46) 
O=C1NC(=O)[C@H](c2ccc([O-])cc2)C1=Nc1cccc(C(=O)N2CCOCC2)c1

>  <Energy>  (46) 
83.09961637622995

>  <Genealogy>  (46) 
O=C1NC(=O)C(c2ccc([O-])cc2)C1=Nc1cccc(C(=O)N2CCOCC2)c1 (protonated)
O=C1NC(=O)[C@H](c2ccc([O-])cc2)C1=Nc1cccc(C(=O)N2CCOCC2)c1 (chirality)
O=C1NC(=O)[C@H](c2ccc([O-])cc2)C1=Nc1cccc(C(=O)N2CCOCC2)c1 (3D coordinates assigned)
O=C1NC(=O)[C@H](c2ccc([O-])cc2)C1=Nc1cccc(C(=O)N2CCOCC2)c1 (nonaromatic ring conformer: 83.09961637622995 kcal/mol)

>  <smiles>  (46) 
O=C1NC(=O)C(c2ccc(O)cc2)C1=Nc1cccc(C(=O)N2CCOCC2)c1

>  <score_type>  (46) 
oracle

>  <origin>  (46) 
adg

>  <m_score__min__energy>  (46) 
-11.390000000000001

>  <m_primary>  (46) 
energy

$$$$
46:0
     RDKit          3D

 26 27  0  0  0  0  0  0  0  0999 V2000
   56.9780   33.1380   46.1210 O   0  0  0  0  0  0  0  0  0  0  0  0
   57.6810   32.7090   45.1680 C   0  0  0  0  0  0  0  0  0  0  0  0
   57.5850   31.3080   44.7200 C   0  0  0  0  0  0  0  0  0  0  0  0
   56.4750   30.8550   43.9860 C   0  0  0  0  0  0  0  0  0  0  0  0
   56.4040   29.5240   43.5670 C   0  0  0  0  0  0  0  0  0  0  0  0
   57.4350   28.6350   43.8760 C   0  0  0  0  0  0  0  0  0  0  0  0
   58.5500   29.0700   44.6100 C   0  0  0  0  0  0  0  0  0  0  0  0
   59.6800   28.1250   44.9140 C   0  0  0  0  0  0  0  0  0  0  0  0
   59.7390   27.7310   46.6970 S   0  0  0  0  0  0  0  0  0  0  0  0
   58.3510   26.6010   46.6470 C   0  0  0  0  0  0  0  0  0  0  0  0
   58.5440   25.2790   46.8930 N   0  0  0  0  0  0  0  0  0  0  0  0
   57.5080   24.4010   46.8450 C   0  0  0  0  0  0  0  0  0  0  0  0
   57.7100   23.1800   47.0710 O   0  0  0  0  0  0  0  0  0  0  0  0
   56.2240   24.8580   46.5430 C   0  0  0  0  0  0  0  0  0  0  0  0
   56.0440   26.2210   46.3000 C   0  0  0  0  0  0  0  0  0  0  0  0
   54.7820   26.7150   45.9990 O   0  0  0  0  0  0  0  0  0  0  0  0
   57.1070   27.0650   46.3570 N   0  0  0  0  0  0  0  0  0  0  0  0
   58.6190   30.4100   45.0270 C   0  0  0  0  0  0  0  0  0  0  0  0
   58.3788   33.3918   44.6612 H   0  0  0  0  0  0  0  0  0  0  0  0
   55.6593   31.5510   43.7406 H   0  0  0  0  0  0  0  0  0  0  0  0
   55.5333   29.1757   42.9921 H   0  0  0  0  0  0  0  0  0  0  0  0
   57.3735   27.5885   43.5428 H   0  0  0  0  0  0  0  0  0  0  0  0
   59.5350   27.1952   44.3444 H   0  0  0  0  0  0  0  0  0  0  0  0
   60.6270   28.6066   44.6291 H   0  0  0  0  0  0  0  0  0  0  0  0
   55.3743   24.1609   46.4976 H   0  0  0  0  0  0  0  0  0  0  0  0
   59.4914   30.7584   45.5993 H   0  0  0  0  0  0  0  0  0  0  0  0
  1  2  2  0
  2  3  1  0
  3  4  2  0
  4  5  1  0
  5  6  2  0
  6  7  1  0
  7  8  1  0
  8  9  1  0
  9 10  1  0
 10 11  2  0
 11 12  1  0
 12 13  2  0
 12 14  1  0
 14 15  2  0
 15 16  1  0
 15 17  1  0
  7 18  2  0
 18  3  1  0
 17 10  1  0
  2 19  1  0
  4 20  1  0
  5 21  1  0
  6 22  1  0
  8 23  1  0
  8 24  1  0
 14 25  1  0
 18 26  1  0
M  CHG  2  16  -1  17  -1
M  END
>  <UniqueID>  (47) 
43

>  <SMILES>  (47) 
O=Cc1cccc(CSc2nc(=O)cc([O-])[n-]2)c1

>  <Energy>  (47) 
22.960013432603304

>  <Genealogy>  (47) 
O=Cc1cccc(CSc2nc(=O)cc([O-])[n-]2)c1 (protonated)
O=Cc1cccc(CSc2nc(=O)cc([O-])[n-]2)c1 (3D coordinates assigned)
O=Cc1cccc(CSc2nc(=O)cc([O-])[n-]2)c1 (optimized conformer: 22.960013432603304 kcal/mol)

>  <smiles>  (47) 
O=Cc1cccc(CSc2nc(=O)cc(O)[nH]2)c1

>  <score_type>  (47) 
oracle

>  <origin>  (47) 
adg

>  <m_score__min__energy>  (47) 
-11.92

>  <m_primary>  (47) 
energy

$$$$
47:0
     RDKit          3D

 57 60  0  0  0  0  0  0  0  0999 V2000
   57.8323   25.9506   42.6588 H   0  0  0  0  0  0  0  0  0  0  0  0
   57.4060   25.3040   43.4400 C   0  0  0  0  0  0  0  0  0  0  0  0
   56.8807   24.3785   43.1617 H   0  0  0  0  0  0  0  0  0  0  0  0
   57.5270   25.6450   44.7350 C   0  0  0  0  0  0  0  0  0  0  0  0
   57.0380   24.9250   45.8390 C   0  0  0  0  0  0  0  0  0  0  0  0
   56.2060   23.8670   45.9170 C   0  0  0  0  0  0  0  0  0  0  0  0
   56.6528   22.8980   46.1843 H   0  0  0  0  0  0  0  0  0  0  0  0
   54.7550   23.8910   45.6770 C   0  0  0  0  0  0  0  0  0  0  0  0
   54.0120   22.8190   45.3480 N   0  0  0  0  0  0  0  0  0  0  0  0
   52.7830   23.3460   45.1490 C   0  0  0  0  0  0  0  0  0  0  0  0
   51.7890   22.6420   44.8320 O   0  0  0  0  0  0  0  0  0  0  0  0
   52.7050   24.6880   45.3050 N   0  0  0  0  0  0  0  0  0  0  0  0
   53.9670   25.0170   45.6270 C   0  0  0  0  0  0  0  0  0  0  0  0
   54.3890   26.3210   45.8660 O   0  0  0  0  0  0  0  0  0  0  0  0
   57.6110   25.5030   46.9570 C   0  0  0  0  0  0  0  0  0  0  0  0
   57.4834   25.1759   47.9995 H   0  0  0  0  0  0  0  0  0  0  0  0
   58.3720   26.5660   46.5200 C   0  0  0  0  0  0  0  0  0  0  0  0
   59.1800   27.4450   47.4290 C   0  0  0  0  0  0  0  0  0  0  0  0
   58.9523   27.1973   48.4763 H   0  0  0  0  0  0  0  0  0  0  0  0
   60.2512   27.2832   47.2385 H   0  0  0  0  0  0  0  0  0  0  0  0
   58.9288   28.4989   47.2385 H   0  0  0  0  0  0  0  0  0  0  0  0
   58.3060   26.6730   45.1700 N   0  0  0  0  0  0  0  0  0  0  0  0
   58.9960   27.6840   44.3450 C   0  0  0  0  0  0  0  0  0  0  0  0
   59.9442   27.9590   44.8301 H   0  0  0  0  0  0  0  0  0  0  0  0
   59.1846   27.2567   43.3491 H   0  0  0  0  0  0  0  0  0  0  0  0
   58.1440   28.9210   44.1870 C   0  0  0  0  0  0  0  0  0  0  0  0
   57.0490   28.9180   43.3050 C   0  0  0  0  0  0  0  0  0  0  0  0
   56.8057   28.0065   42.7393 H   0  0  0  0  0  0  0  0  0  0  0  0
   56.2670   30.0660   43.1420 C   0  0  0  0  0  0  0  0  0  0  0  0
   55.4208   30.0597   42.4392 H   0  0  0  0  0  0  0  0  0  0  0  0
   56.5600   31.2200   43.8710 C   0  0  0  0  0  0  0  0  0  0  0  0
   55.9471   32.1233   43.7350 H   0  0  0  0  0  0  0  0  0  0  0  0
   57.6340   31.2340   44.7780 C   0  0  0  0  0  0  0  0  0  0  0  0
   57.9420   32.4550   45.5550 C   0  0  0  0  0  0  0  0  0  0  0  0
   57.1470   33.4350   45.4970 O   0  0  0  0  0  0  0  0  0  0  0  0
   59.1510   32.5630   46.3260 N   0  0  0  0  0  0  0  0  0  0  0  0
   59.5680   31.4610   47.2030 C   0  0  0  0  0  0  0  0  0  0  0  0
   59.2155   31.6569   48.2264 H   0  0  0  0  0  0  0  0  0  0  0  0
   59.1341   30.5209   46.8317 H   0  0  0  0  0  0  0  0  0  0  0  0
   61.0940   31.3420   47.2070 C   0  0  0  0  0  0  0  0  0  0  0  0
   61.3944   30.6083   47.9695 H   0  0  0  0  0  0  0  0  0  0  0  0
   61.4201   31.0193   46.2073 H   0  0  0  0  0  0  0  0  0  0  0  0
   61.7300   32.6360   47.5090 N   0  0  0  0  0  0  0  0  0  0  0  0
   63.0970   32.6400   47.9760 C   0  0  0  0  0  0  0  0  0  0  0  0
   63.8040   31.6000   47.8430 O   0  0  0  0  0  0  0  0  0  0  0  0
   63.7180   33.8530   48.5970 C   0  0  0  0  0  0  0  0  0  0  0  0
   63.6741   33.7672   49.6928 H   0  0  0  0  0  0  0  0  0  0  0  0
   64.7675   33.9321   48.2772 H   0  0  0  0  0  0  0  0  0  0  0  0
   63.1686   34.7507   48.2772 H   0  0  0  0  0  0  0  0  0  0  0  0
   60.9460   33.8800   47.4430 C   0  0  0  0  0  0  0  0  0  0  0  0
   60.4347   34.0315   48.4051 H   0  0  0  0  0  0  0  0  0  0  0  0
   61.6349   34.7107   47.2300 H   0  0  0  0  0  0  0  0  0  0  0  0
   59.8950   33.8260   46.3220 C   0  0  0  0  0  0  0  0  0  0  0  0
   59.1863   34.6559   46.4596 H   0  0  0  0  0  0  0  0  0  0  0  0
   60.4211   33.9069   45.3594 H   0  0  0  0  0  0  0  0  0  0  0  0
   58.4210   30.0770   44.9340 C   0  0  0  0  0  0  0  0  0  0  0  0
   59.2591   30.0788   45.6464 H   0  0  0  0  0  0  0  0  0  0  0  0
  1  2  1  0
  2  3  1  0
  2  4  2  0
  4  5  1  0
  5  6  2  0
  6  7  1  0
  6  8  1  0
  8  9  1  0
  9 10  1  0
 10 11  2  0
 10 12  1  0
 12 13  1  0
 13 14  1  0
  5 15  1  0
 15 16  1  0
 15 17  2  0
 17 18  1  0
 18 19  1  0
 18 20  1  0
 18 21  1  0
 17 22  1  0
 22 23  1  0
 23 24  1  0
 23 25  1  0
 23 26  1  0
 26 27  2  0
 27 28  1  0
 27 29  1  0
 29 30  1  0
 29 31  2  0
 31 32  1  0
 31 33  1  0
 33 34  1  0
 34 35  2  0
 34 36  1  0
 36 37  1  0
 37 38  1  0
 37 39  1  0
 37 40  1  0
 40 41  1  0
 40 42  1  0
 40 43  1  0
 43 44  1  0
 44 45  2  0
 44 46  1  0
 46 47  1  0
 46 48  1  0
 46 49  1  0
 43 50  1  0
 50 51  1  0
 50 52  1  0
 50 53  1  0
 53 54  1  0
 53 55  1  0
 33 56  2  0
 56 57  1  0
 22  4  1  0
 56 26  1  0
 13  8  2  0
 53 36  1  0
M  CHG  3   9  -1  12  -1  14  -1
M  END
>  <UniqueID>  (48) 
44

>  <SMILES>  (48) 
C=c1/c(=C\c2[n-]c(=O)[n-]c2[O-])cc(C)n1Cc1cccc(C(=O)N2CCN(C(C)=O)CC2)c1

>  <Energy>  (48) 
133.3192671851131

>  <Genealogy>  (48) 
C=c1c(=Cc2[n-]c(=O)[n-]c2[O-])cc(C)n1Cc1cccc(C(=O)N2CCN(C(C)=O)CC2)c1 (protonated)
C=c1/c(=C\c2[n-]c(=O)[n-]c2[O-])cc(C)n1Cc1cccc(C(=O)N2CCN(C(C)=O)CC2)c1 (cis-trans isomerization)
C=c1/c(=C\c2[n-]c(=O)[n-]c2[O-])cc(C)n1Cc1cccc(C(=O)N2CCN(C(C)=O)CC2)c1 (3D coordinates assigned)
C=c1/c(=C\c2[n-]c(=O)[n-]c2[O-])cc(C)n1Cc1cccc(C(=O)N2CCN(C(C)=O)CC2)c1 (nonaromatic ring conformer: 133.3192671851131 kcal/mol)

>  <smiles>  (48) 
C=c1c(=Cc2[nH]c(=O)[nH]c2O)cc(C)n1Cc1cccc(C(=O)N2CCN(C(C)=O)CC2)c1

>  <score_type>  (48) 
oracle

>  <origin>  (48) 
adg

>  <m_score__min__energy>  (48) 
-17.899999999999999

>  <m_primary>  (48) 
energy

$$$$
48:0
     RDKit          3D

 41 42  0  0  0  0  0  0  0  0999 V2000
   57.7680   31.3770   46.7520 O   0  0  0  0  0  0  0  0  0  0  0  0
   57.8160   32.6360   46.7370 C   0  0  0  0  0  0  0  0  0  0  0  0
   57.0970   33.3990   45.6700 C   0  0  0  0  0  0  0  0  0  0  0  0
   57.6110   33.0430   44.3530 N   0  0  0  0  0  0  0  0  0  0  0  0
   57.5330   31.7510   43.7340 C   0  0  0  0  0  0  0  0  0  0  0  0
   58.4950   31.3610   43.0240 O   0  0  0  0  0  0  0  0  0  0  0  0
   56.3610   30.8300   43.9310 C   0  0  0  0  0  0  0  0  0  0  0  0
   56.6180   29.8950   45.0260 N   0  0  0  0  0  0  0  0  0  0  0  0
   57.4780   28.7610   44.8490 C   0  0  0  0  0  0  0  0  0  0  0  0
   57.9450   28.4900   43.7110 O   0  0  0  0  0  0  0  0  0  0  0  0
   57.8130   27.8780   46.0110 C   0  0  0  0  0  0  0  0  0  0  0  0
   56.8920   26.6910   46.0460 C   0  0  0  0  0  0  0  0  0  0  0  0
   55.5510   26.8860   45.9340 N   0  0  0  0  0  0  0  0  0  0  0  0
   54.6930   25.8670   45.9960 N   0  0  0  0  0  0  0  0  0  0  0  0
   55.1370   24.5970   46.1810 C   0  0  0  0  0  0  0  0  0  0  0  0
   54.3180   23.6450   46.2500 O   0  0  0  0  0  0  0  0  0  0  0  0
   56.4670   24.3600   46.3020 N   0  0  0  0  0  0  0  0  0  0  0  0
   57.3590   25.3810   46.2410 C   0  0  0  0  0  0  0  0  0  0  0  0
   58.5900   25.1390   46.3660 O   0  0  0  0  0  0  0  0  0  0  0  0
   58.5560   33.3480   47.7340 N   0  0  0  0  0  0  0  0  0  0  0  0
   59.4350   34.4700   47.4310 C   0  0  0  0  0  0  0  0  0  0  0  0
   60.8600   34.1140   47.7510 C   0  0  0  0  0  0  0  0  0  0  0  0
   61.3370   34.1820   49.0720 C   0  0  0  0  0  0  0  0  0  0  0  0
   62.6710   33.8750   49.3550 C   0  0  0  0  0  0  0  0  0  0  0  0
   63.5390   33.5020   48.3230 C   0  0  0  0  0  0  0  0  0  0  0  0
   64.8330   33.2000   48.5970 F   0  0  0  0  0  0  0  0  0  0  0  0
   63.0720   33.4370   47.0060 C   0  0  0  0  0  0  0  0  0  0  0  0
   61.7380   33.7440   46.7180 C   0  0  0  0  0  0  0  0  0  0  0  0
   56.0239   33.1617   45.7160 H   0  0  0  0  0  0  0  0  0  0  0  0
   57.2549   34.4751   45.8345 H   0  0  0  0  0  0  0  0  0  0  0  0
   55.4681   31.4271   44.1678 H   0  0  0  0  0  0  0  0  0  0  0  0
   56.2017   30.2567   43.0058 H   0  0  0  0  0  0  0  0  0  0  0  0
   56.1860   30.0570   45.9660 H   0  0  0  0  0  0  0  0  0  0  0  0
   58.8516   27.5288   45.9140 H   0  0  0  0  0  0  0  0  0  0  0  0
   57.6938   28.4512   46.9423 H   0  0  0  0  0  0  0  0  0  0  0  0
   59.3534   34.7172   46.3623 H   0  0  0  0  0  0  0  0  0  0  0  0
   59.1356   35.3354   48.0405 H   0  0  0  0  0  0  0  0  0  0  0  0
   60.6581   34.4778   49.8854 H   0  0  0  0  0  0  0  0  0  0  0  0
   63.0388   33.9267   50.3904 H   0  0  0  0  0  0  0  0  0  0  0  0
   63.7552   33.1439   46.1952 H   0  0  0  0  0  0  0  0  0  0  0  0
   61.3754   33.6957   45.6806 H   0  0  0  0  0  0  0  0  0  0  0  0
  1  2  2  0
  2  3  1  0
  3  4  1  0
  4  5  1  0
  5  6  2  0
  5  7  1  0
  7  8  1  0
  8  9  1  0
  9 10  2  0
  9 11  1  0
 11 12  1  0
 12 13  2  0
 13 14  1  0
 14 15  1  0
 15 16  2  0
 15 17  1  0
 17 18  1  0
 18 19  2  0
  2 20  1  0
 20 21  1  0
 21 22  1  0
 22 23  2  0
 23 24  1  0
 24 25  2  0
 25 26  1  0
 25 27  1  0
 27 28  2  0
 18 12  1  0
 28 22  1  0
  3 29  1  0
  3 30  1  0
  7 31  1  0
  7 32  1  0
  8 33  1  0
 11 34  1  0
 11 35  1  0
 21 36  1  0
 21 37  1  0
 23 38  1  0
 24 39  1  0
 27 40  1  0
 28 41  1  0
M  CHG  4   4  -1  14  -1  17  -1  20  -1
M  END
>  <UniqueID>  (49) 
45

>  <SMILES>  (49) 
O=C(C[N-]C(=O)CNC(=O)Cc1n[n-]c(=O)[n-]c1=O)[N-]Cc1ccc(F)cc1

>  <Energy>  (49) 
32.301793540978146

>  <Genealogy>  (49) 
O=C(C[N-]C(=O)CNC(=O)Cc1n[n-]c(=O)[n-]c1=O)[N-]Cc1ccc(F)cc1 (protonated)
O=C(C[N-]C(=O)CNC(=O)Cc1n[n-]c(=O)[n-]c1=O)[N-]Cc1ccc(F)cc1 (3D coordinates assigned)
O=C(C[N-]C(=O)CNC(=O)Cc1n[n-]c(=O)[n-]c1=O)[N-]Cc1ccc(F)cc1 (optimized conformer: 32.301793540978146 kcal/mol)

>  <smiles>  (49) 
O=C(CNC(=O)Cc1n[nH]c(=O)[nH]c1=O)NCC(=O)NCc1ccc(F)cc1

>  <score_type>  (49) 
oracle

>  <origin>  (49) 
adg

>  <m_score__min__energy>  (49) 
-14.210000000000001

>  <m_primary>  (49) 
energy

$$$$
49:0
     RDKit          3D

 51 54  0  0  0  0  0  0  0  0999 V2000
   56.1617   29.6814   42.6270 H   0  0  0  0  0  0  0  0  0  0  0  0
   56.2410   29.8300   43.7140 C   0  0  0  0  0  0  0  0  0  0  0  0
   55.7609   29.1193   44.4028 H   0  0  0  0  0  0  0  0  0  0  0  0
   56.9180   30.8700   44.1960 C   0  0  0  0  0  0  0  0  0  0  0  0
   57.0540   31.1100   45.4880 O   0  0  0  0  0  0  0  0  0  0  0  0
   57.7740   32.2030   45.6190 C   0  0  0  0  0  0  0  0  0  0  0  0
   58.1640   32.8200   46.8030 C   0  0  0  0  0  0  0  0  0  0  0  0
   57.8688   32.4038   47.7775 H   0  0  0  0  0  0  0  0  0  0  0  0
   58.9510   33.9980   46.7260 C   0  0  0  0  0  0  0  0  0  0  0  0
   59.3400   34.5980   47.8700 C   0  0  0  0  0  0  0  0  0  0  0  0
   59.4419   35.6933   47.8707 H   0  0  0  0  0  0  0  0  0  0  0  0
   59.6430   33.8580   49.1460 C   0  0  0  0  0  0  0  0  0  0  0  0
   59.5363   34.5469   49.9969 H   0  0  0  0  0  0  0  0  0  0  0  0
   58.9388   33.0186   49.2435 H   0  0  0  0  0  0  0  0  0  0  0  0
   61.0470   33.3120   49.1250 C   0  0  0  0  0  0  0  0  0  0  0  0
   61.9670   34.0250   49.5060 O   0  0  0  0  0  0  0  0  0  0  0  0
   61.3100   31.9520   48.6910 N   0  0  0  0  0  0  0  0  0  0  0  0
   62.2710   31.6880   49.0150 H   0  0  0  0  0  0  0  0  0  0  0  0
   60.3590   31.0000   49.3350 C   0  0  0  0  0  0  0  0  0  0  0  0
   60.9283   30.1342   49.7042 H   0  0  0  0  0  0  0  0  0  0  0  0
   59.8557   31.5431   50.1485 H   0  0  0  0  0  0  0  0  0  0  0  0
   59.2660   30.4940   48.3820 C   0  0  0  0  0  0  0  0  0  0  0  0
   58.6619   29.7301   48.8934 H   0  0  0  0  0  0  0  0  0  0  0  0
   58.6265   31.3384   48.0853 H   0  0  0  0  0  0  0  0  0  0  0  0
   59.8780   29.9070   47.1810 N   0  0  0  0  0  0  0  0  0  0  0  0
   59.2240   28.8360   46.4640 C   0  0  0  0  0  0  0  0  0  0  0  0
   59.4540   28.6500   45.0870 C   0  0  0  0  0  0  0  0  0  0  0  0
   60.1423   29.3219   44.5534 H   0  0  0  0  0  0  0  0  0  0  0  0
   58.8150   27.6190   44.3930 C   0  0  0  0  0  0  0  0  0  0  0  0
   59.0033   27.4816   43.3180 H   0  0  0  0  0  0  0  0  0  0  0  0
   57.9380   26.7630   45.0620 C   0  0  0  0  0  0  0  0  0  0  0  0
   57.4346   25.9531   44.5137 H   0  0  0  0  0  0  0  0  0  0  0  0
   57.7000   26.9350   46.4270 C   0  0  0  0  0  0  0  0  0  0  0  0
   57.0106   26.2586   46.9534 H   0  0  0  0  0  0  0  0  0  0  0  0
   58.3360   27.9650   47.1260 C   0  0  0  0  0  0  0  0  0  0  0  0
   58.1418   28.0965   48.2007 H   0  0  0  0  0  0  0  0  0  0  0  0
   61.1460   30.4640   46.6880 C   0  0  0  0  0  0  0  0  0  0  0  0
   61.9793   29.8379   47.0396 H   0  0  0  0  0  0  0  0  0  0  0  0
   61.1279   30.4808   45.5883 H   0  0  0  0  0  0  0  0  0  0  0  0
   61.3320   31.8940   47.2080 C   0  0  0  0  0  0  0  0  0  0  0  0
   62.2989   32.2789   46.8516 H   0  0  0  0  0  0  0  0  0  0  0  0
   60.4982   32.5045   46.8310 H   0  0  0  0  0  0  0  0  0  0  0  0
   59.3080   34.5080   45.4420 C   0  0  0  0  0  0  0  0  0  0  0  0
   59.9151   35.4225   45.3712 H   0  0  0  0  0  0  0  0  0  0  0  0
   58.8940   33.8570   44.2650 C   0  0  0  0  0  0  0  0  0  0  0  0
   59.1684   34.2478   43.2741 H   0  0  0  0  0  0  0  0  0  0  0  0
   58.1270   32.7040   44.3940 C   0  0  0  0  0  0  0  0  0  0  0  0
   57.5800   31.8530   43.4600 C   0  0  0  0  0  0  0  0  0  0  0  0
   57.6760   31.9690   42.0380 N   0  0  0  0  0  0  0  0  0  0  0  0
   57.1640   32.7170   41.5200 H   0  0  0  0  0  0  0  0  0  0  0  0
   58.2740   31.3090   41.4930 H   0  0  0  0  0  0  0  0  0  0  0  0
  1  2  1  0
  2  3  1  0
  2  4  2  0
  4  5  1  0
  5  6  1  0
  6  7  2  0
  7  8  1  0
  7  9  1  0
  9 10  2  0
 10 11  1  0
 10 12  1  0
 12 13  1  0
 12 14  1  0
 12 15  1  0
 15 16  2  0
 15 17  1  0
 17 18  1  0
 17 19  1  0
 19 20  1  0
 19 21  1  0
 19 22  1  0
 22 23  1  0
 22 24  1  0
 22 25  1  0
 25 26  1  0
 26 27  2  0
 27 28  1  0
 27 29  1  0
 29 30  1  0
 29 31  2  0
 31 32  1  0
 31 33  1  0
 33 34  1  0
 33 35  2  0
 35 36  1  0
 25 37  1  0
 37 38  1  0
 37 39  1  0
 37 40  1  0
 40 41  1  0
 40 42  1  0
  9 43  1  0
 43 44  1  0
 43 45  2  0
 45 46  1  0
 45 47  1  0
 47 48  2  0
 48 49  1  0
 49 50  1  0
 49 51  1  0
 48  4  1  0
 47  6  1  0
 40 17  1  0
 35 26  1  0
M  CHG  1  17   1
M  END
>  <UniqueID>  (50) 
46

>  <SMILES>  (50) 
C=c1oc2c/c(=C/CC(=O)[NH+]3CCN(c4ccccc4)CC3)ccc2c1N

>  <Energy>  (50) 
100.75978240733694

>  <Genealogy>  (50) 
C=c1oc2cc(=CCC(=O)[NH+]3CCN(c4ccccc4)CC3)ccc2c1N (protonated)
C=c1oc2c/c(=C/CC(=O)[NH+]3CCN(c4ccccc4)CC3)ccc2c1N (cis-trans isomerization)
C=c1oc2c/c(=C/CC(=O)[NH+]3CCN(c4ccccc4)CC3)ccc2c1N (3D coordinates assigned)
C=c1oc2c/c(=C/CC(=O)[NH+]3CCN(c4ccccc4)CC3)ccc2c1N (nonaromatic ring conformer: 100.75978240733694 kcal/mol)

>  <smiles>  (50) 
C=c1oc2cc(=CCC(=O)N3CCN(c4ccccc4)CC3)ccc2c1N

>  <score_type>  (50) 
oracle

>  <origin>  (50) 
adg

>  <m_score__min__energy>  (50) 
-7.3099999999999996

>  <m_primary>  (50) 
energy

$$$$
50:0
     RDKit          3D

 42 44  0  0  0  0  0  0  0  0999 V2000
   56.7790   22.5760   42.9930 C   0  0  0  0  0  0  0  0  0  0  0  0
   55.8950   21.7200   43.7070 O   0  0  0  0  0  0  0  0  0  0  0  0
   56.1830   21.1360   44.9500 C   0  0  0  0  0  0  0  0  0  0  0  0
   56.3500   19.7440   45.1030 C   0  0  0  0  0  0  0  0  0  0  0  0
   56.6490   19.2010   46.3560 C   0  0  0  0  0  0  0  0  0  0  0  0
   56.7840   20.0360   47.4660 C   0  0  0  0  0  0  0  0  0  0  0  0
   56.6180   21.4150   47.3290 C   0  0  0  0  0  0  0  0  0  0  0  0
   56.3170   21.9720   46.0760 C   0  0  0  0  0  0  0  0  0  0  0  0
   56.1420   23.3980   45.9500 N   0  0  0  0  0  0  0  0  0  0  0  0
   54.8820   23.9320   45.9320 C   0  0  0  0  0  0  0  0  0  0  0  0
   53.8650   23.1920   46.0350 O   0  0  0  0  0  0  0  0  0  0  0  0
   54.7100   25.2730   45.8100 N   0  0  0  0  0  0  0  0  0  0  0  0
   55.7640   26.1170   45.7120 C   0  0  0  0  0  0  0  0  0  0  0  0
   55.5280   27.4840   45.6060 O   0  0  0  0  0  0  0  0  0  0  0  0
   57.0720   25.6120   45.7350 C   0  0  0  0  0  0  0  0  0  0  0  0
   58.2350   26.5260   45.6340 C   0  0  0  0  0  0  0  0  0  0  0  0
   59.3830   26.1030   45.9390 O   0  0  0  0  0  0  0  0  0  0  0  0
   58.0680   27.8760   45.1710 N   0  0  0  0  0  0  0  0  0  0  0  0
   59.1800   28.8200   45.0960 C   0  0  0  0  0  0  0  0  0  0  0  0
   58.6620   30.2260   44.9680 C   0  0  0  0  0  0  0  0  0  0  0  0
   57.8800   30.5890   43.8590 C   0  0  0  0  0  0  0  0  0  0  0  0
   57.4140   31.9000   43.7240 C   0  0  0  0  0  0  0  0  0  0  0  0
   57.7270   32.8580   44.6910 C   0  0  0  0  0  0  0  0  0  0  0  0
   58.5090   32.5070   45.7960 C   0  0  0  0  0  0  0  0  0  0  0  0
   58.9770   31.1970   45.9350 C   0  0  0  0  0  0  0  0  0  0  0  0
   57.2360   24.2170   45.8380 C   0  0  0  0  0  0  0  0  0  0  0  0
   58.3960   23.7170   45.7960 O   0  0  0  0  0  0  0  0  0  0  0  0
   57.3807   23.1587   43.7060 H   0  0  0  0  0  0  0  0  0  0  0  0
   57.4447   21.9704   42.3605 H   0  0  0  0  0  0  0  0  0  0  0  0
   56.1951   23.2608   42.3605 H   0  0  0  0  0  0  0  0  0  0  0  0
   56.2443   19.0816   44.2312 H   0  0  0  0  0  0  0  0  0  0  0  0
   56.7780   18.1143   46.4672 H   0  0  0  0  0  0  0  0  0  0  0  0
   57.0216   19.6066   48.4505 H   0  0  0  0  0  0  0  0  0  0  0  0
   56.7236   22.0688   48.2073 H   0  0  0  0  0  0  0  0  0  0  0  0
   57.1360   28.1880   44.8180 H   0  0  0  0  0  0  0  0  0  0  0  0
   59.7875   28.7387   46.0094 H   0  0  0  0  0  0  0  0  0  0  0  0
   59.7928   28.5823   44.2140 H   0  0  0  0  0  0  0  0  0  0  0  0
   57.6333   29.8385   43.0936 H   0  0  0  0  0  0  0  0  0  0  0  0
   56.7998   32.1776   42.8547 H   0  0  0  0  0  0  0  0  0  0  0  0
   57.3583   33.8888   44.5834 H   0  0  0  0  0  0  0  0  0  0  0  0
   58.7561   33.2624   46.5565 H   0  0  0  0  0  0  0  0  0  0  0  0
   59.5940   30.9249   46.8041 H   0  0  0  0  0  0  0  0  0  0  0  0
  1  2  1  0
  2  3  1  0
  3  4  2  0
  4  5  1  0
  5  6  2  0
  6  7  1  0
  7  8  2  0
  8  9  1  0
  9 10  1  0
 10 11  2  0
 10 12  1  0
 12 13  1  0
 13 14  1  0
 13 15  2  0
 15 16  1  0
 16 17  2  0
 16 18  1  0
 18 19  1  0
 19 20  1  0
 20 21  2  0
 21 22  1  0
 22 23  2  0
 23 24  1  0
 24 25  2  0
 15 26  1  0
 26 27  2  0
  8  3  1  0
 26  9  1  0
 25 20  1  0
  1 28  1  0
  1 29  1  0
  1 30  1  0
  4 31  1  0
  5 32  1  0
  6 33  1  0
  7 34  1  0
 18 35  1  0
 19 36  1  0
 19 37  1  0
 21 38  1  0
 22 39  1  0
 23 40  1  0
 24 41  1  0
 25 42  1  0
M  CHG  2  12  -1  14  -1
M  END
>  <UniqueID>  (51) 
47

>  <SMILES>  (51) 
COc1ccccc1-n1c(=O)[n-]c([O-])c(C(=O)NCc2ccccc2)c1=O

>  <Energy>  (51) 
58.3955465356323

>  <Genealogy>  (51) 
COc1ccccc1-n1c(=O)[n-]c([O-])c(C(=O)NCc2ccccc2)c1=O (protonated)
COc1ccccc1-n1c(=O)[n-]c([O-])c(C(=O)NCc2ccccc2)c1=O (3D coordinates assigned)
COc1ccccc1-n1c(=O)[n-]c([O-])c(C(=O)NCc2ccccc2)c1=O (optimized conformer: 58.3955465356323 kcal/mol)

>  <smiles>  (51) 
COc1ccccc1-n1c(=O)[nH]c(O)c(C(=O)NCc2ccccc2)c1=O

>  <score_type>  (51) 
oracle

>  <origin>  (51) 
adg

>  <m_score__min__energy>  (51) 
-12.140000000000001

>  <m_primary>  (51) 
energy

$$$$
51:0
     RDKit          3D

 39 41  0  0  0  0  0  0  0  0999 V2000
   58.0480   29.6870   51.2840 O   0  0  0  0  0  0  0  0  0  0  0  0
   57.6220   30.8620   51.1180 C   0  0  0  0  0  0  0  0  0  0  0  0
   58.4730   31.8870   50.5810 N   0  0  0  0  0  0  0  0  0  0  0  0
   58.6460   32.2340   49.3370 C   0  0  0  0  0  0  0  0  0  0  0  0
   58.9550   33.4800   48.8970 N   0  0  0  0  0  0  0  0  0  0  0  0
   59.0880   33.5250   47.5450 C   0  0  0  0  0  0  0  0  0  0  0  0
   58.9060   32.3030   46.9060 C   0  0  0  0  0  0  0  0  0  0  0  0
   58.9260   32.0750   45.4290 C   0  0  0  0  0  0  0  0  0  0  0  0
   58.3920   30.7060   45.1100 C   0  0  0  0  0  0  0  0  0  0  0  0
   59.2660   29.6810   44.7090 C   0  0  0  0  0  0  0  0  0  0  0  0
   58.7640   28.4190   44.3770 C   0  0  0  0  0  0  0  0  0  0  0  0
   57.3890   28.1740   44.4320 C   0  0  0  0  0  0  0  0  0  0  0  0
   56.5110   29.1940   44.8150 C   0  0  0  0  0  0  0  0  0  0  0  0
   55.1440   28.9510   44.8610 O   0  0  0  0  0  0  0  0  0  0  0  0
   57.0100   30.4580   45.1490 C   0  0  0  0  0  0  0  0  0  0  0  0
   58.5420   31.1380   48.0660 S   0  0  0  0  0  0  0  0  0  0  0  0
   56.2860   31.2080   51.5070 N   0  0  0  0  0  0  0  0  0  0  0  0
   55.3790   30.3000   52.1590 C   0  0  0  0  0  0  0  0  0  0  0  0
   55.8160   29.2300   52.6640 O   0  0  0  0  0  0  0  0  0  0  0  0
   53.9350   30.6190   52.2780 C   0  0  0  0  0  0  0  0  0  0  0  0
   53.1690   30.1260   53.3510 C   0  0  0  0  0  0  0  0  0  0  0  0
   51.8100   30.4420   53.4540 C   0  0  0  0  0  0  0  0  0  0  0  0
   51.2040   31.2550   52.4940 C   0  0  0  0  0  0  0  0  0  0  0  0
   51.9570   31.7600   51.4310 C   0  0  0  0  0  0  0  0  0  0  0  0
   51.3680   32.5540   50.5020 F   0  0  0  0  0  0  0  0  0  0  0  0
   53.3150   31.4490   51.3240 C   0  0  0  0  0  0  0  0  0  0  0  0
   59.1050   34.3240   49.4890 H   0  0  0  0  0  0  0  0  0  0  0  0
   59.3206   34.4521   47.0006 H   0  0  0  0  0  0  0  0  0  0  0  0
   58.3007   32.8335   44.9353 H   0  0  0  0  0  0  0  0  0  0  0  0
   59.9620   32.1506   45.0671 H   0  0  0  0  0  0  0  0  0  0  0  0
   60.3480   29.8722   44.6562 H   0  0  0  0  0  0  0  0  0  0  0  0
   59.4526   27.6173   44.0719 H   0  0  0  0  0  0  0  0  0  0  0  0
   56.9970   27.1791   44.1741 H   0  0  0  0  0  0  0  0  0  0  0  0
   56.3174   31.2603   45.4432 H   0  0  0  0  0  0  0  0  0  0  0  0
   55.9790   32.1910   51.3320 H   0  0  0  0  0  0  0  0  0  0  0  0
   53.6415   29.4887   54.1129 H   0  0  0  0  0  0  0  0  0  0  0  0
   51.2174   30.0490   54.2933 H   0  0  0  0  0  0  0  0  0  0  0  0
   50.1342   31.4978   52.5746 H   0  0  0  0  0  0  0  0  0  0  0  0
   53.9041   31.8554   50.4886 H   0  0  0  0  0  0  0  0  0  0  0  0
  1  2  2  0
  2  3  1  0
  3  4  2  3
  4  5  1  0
  5  6  1  0
  6  7  2  0
  7  8  1  0
  8  9  1  0
  9 10  2  0
 10 11  1  0
 11 12  2  0
 12 13  1  0
 13 14  1  0
 13 15  2  0
  7 16  1  0
  2 17  1  0
 17 18  1  0
 18 19  2  0
 18 20  1  0
 20 21  2  0
 21 22  1  0
 22 23  2  0
 23 24  1  0
 24 25  1  0
 24 26  2  0
 16  4  1  0
 26 20  1  0
 15  9  1  0
  5 27  1  0
  6 28  1  0
  8 29  1  0
  8 30  1  0
 10 31  1  0
 11 32  1  0
 12 33  1  0
 15 34  1  0
 17 35  1  0
 21 36  1  0
 22 37  1  0
 23 38  1  0
 26 39  1  0
M  CHG  1  14  -1
M  END
>  <UniqueID>  (52) 
48

>  <SMILES>  (52) 
O=C(N=c1[nH]cc(Cc2cccc([O-])c2)s1)NC(=O)c1cccc(F)c1

>  <Energy>  (52) 
77.34318919027953

>  <Genealogy>  (52) 
O=C(N=c1[nH]cc(Cc2cccc([O-])c2)s1)NC(=O)c1cccc(F)c1 (protonated)
O=C(N=c1[nH]cc(Cc2cccc([O-])c2)s1)NC(=O)c1cccc(F)c1 (3D coordinates assigned)
O=C(N=c1[nH]cc(Cc2cccc([O-])c2)s1)NC(=O)c1cccc(F)c1 (optimized conformer: 77.34318919027953 kcal/mol)

>  <smiles>  (52) 
O=C(N=c1[nH]cc(Cc2cccc(O)c2)s1)NC(=O)c1cccc(F)c1

>  <score_type>  (52) 
oracle

>  <origin>  (52) 
adg

>  <m_score__min__energy>  (52) 
-12.539999999999999

>  <m_primary>  (52) 
energy

$$$$
52:0
     RDKit          3D

 47 49  0  0  0  0  0  0  0  0999 V2000
   51.0290   32.3230   50.1870 N   0  0  0  0  0  0  0  0  0  0  0  0
   51.0940   32.0300   51.5810 C   0  0  0  0  0  0  0  0  0  0  0  0
   50.9130   32.9470   52.4250 O   0  0  0  0  0  0  0  0  0  0  0  0
   51.3400   30.6290   52.0400 C   0  0  0  0  0  0  0  0  0  0  0  0
   52.7990   30.4320   52.3440 C   0  0  0  0  0  0  0  0  0  0  0  0
   53.7690   31.2080   51.6920 C   0  0  0  0  0  0  0  0  0  0  0  0
   55.1240   31.0510   51.9990 C   0  0  0  0  0  0  0  0  0  0  0  0
   55.5270   30.1160   52.9650 C   0  0  0  0  0  0  0  0  0  0  0  0
   56.9780   29.9840   53.3400 C   0  0  0  0  0  0  0  0  0  0  0  0
   57.8020   30.9320   52.5250 C   0  0  0  0  0  0  0  0  0  0  0  0
   57.8420   32.2650   52.7300 N   0  0  0  0  0  0  0  0  0  0  0  0
   58.5890   32.7240   51.7010 C   0  0  0  0  0  0  0  0  0  0  0  0
   58.8360   33.9470   51.5290 O   0  0  0  0  0  0  0  0  0  0  0  0
   59.0170   31.7540   50.8660 N   0  0  0  0  0  0  0  0  0  0  0  0
   59.7040   31.9150   49.5850 C   0  0  0  0  0  0  0  0  0  0  0  0
   58.9940   32.9330   48.7500 C   0  0  0  0  0  0  0  0  0  0  0  0
   59.3090   34.1500   48.8470 O   0  0  0  0  0  0  0  0  0  0  0  0
   58.0170   32.5020   47.7950 N   0  0  0  0  0  0  0  0  0  0  0  0
   58.2090   31.5440   46.7420 C   0  0  0  0  0  0  0  0  0  0  0  0
   58.5550   30.2090   47.0280 C   0  0  0  0  0  0  0  0  0  0  0  0
   58.7450   29.2900   45.9970 C   0  0  0  0  0  0  0  0  0  0  0  0
   58.6010   29.6900   44.6690 C   0  0  0  0  0  0  0  0  0  0  0  0
   58.2870   31.0160   44.3660 C   0  0  0  0  0  0  0  0  0  0  0  0
   58.1050   31.9620   45.3950 C   0  0  0  0  0  0  0  0  0  0  0  0
   57.7670   33.3990   45.0660 C   0  0  0  0  0  0  0  0  0  0  0  0
   56.6850   33.8090   45.8220 F   0  0  0  0  0  0  0  0  0  0  0  0
   58.8270   34.2510   45.3290 F   0  0  0  0  0  0  0  0  0  0  0  0
   57.4460   33.5010   43.7250 F   0  0  0  0  0  0  0  0  0  0  0  0
   58.5020   30.6250   51.3790 C   0  0  0  0  0  0  0  0  0  0  0  0
   58.6320   29.3640   50.8070 O   0  0  0  0  0  0  0  0  0  0  0  0
   54.5560   29.3530   53.6330 C   0  0  0  0  0  0  0  0  0  0  0  0
   53.2010   29.5110   53.3260 C   0  0  0  0  0  0  0  0  0  0  0  0
   50.1150   32.3440   49.6850 H   0  0  0  0  0  0  0  0  0  0  0  0
   50.7501   30.4350   52.9479 H   0  0  0  0  0  0  0  0  0  0  0  0
   51.0417   29.9321   51.2429 H   0  0  0  0  0  0  0  0  0  0  0  0
   53.4617   31.9443   50.9348 H   0  0  0  0  0  0  0  0  0  0  0  0
   55.8773   31.6629   51.4812 H   0  0  0  0  0  0  0  0  0  0  0  0
   57.1018   30.2179   54.4077 H   0  0  0  0  0  0  0  0  0  0  0  0
   57.3108   28.9539   53.1446 H   0  0  0  0  0  0  0  0  0  0  0  0
   60.7372   32.2472   49.7646 H   0  0  0  0  0  0  0  0  0  0  0  0
   59.7097   30.9517   49.0539 H   0  0  0  0  0  0  0  0  0  0  0  0
   58.6763   29.8889   48.0734 H   0  0  0  0  0  0  0  0  0  0  0  0
   59.0088   28.2482   46.2314 H   0  0  0  0  0  0  0  0  0  0  0  0
   58.7352   28.9589   43.8582 H   0  0  0  0  0  0  0  0  0  0  0  0
   58.1807   31.3251   43.3157 H   0  0  0  0  0  0  0  0  0  0  0  0
   54.8625   28.6278   54.4012 H   0  0  0  0  0  0  0  0  0  0  0  0
   52.4462   28.9114   53.8558 H   0  0  0  0  0  0  0  0  0  0  0  0
  1  2  1  0
  2  3  2  0
  2  4  1  0
  4  5  1  0
  5  6  2  0
  6  7  1  0
  7  8  2  0
  8  9  1  0
  9 10  1  0
 10 11  1  0
 11 12  1  0
 12 13  2  0
 12 14  1  0
 14 15  1  0
 15 16  1  0
 16 17  2  0
 16 18  1  0
 18 19  1  0
 19 20  2  0
 20 21  1  0
 21 22  2  0
 22 23  1  0
 23 24  2  0
 24 25  1  0
 25 26  1  0
 25 27  1  0
 25 28  1  0
 14 29  1  0
 29 30  1  0
  8 31  1  0
 31 32  2  0
 32  5  1  0
 29 10  2  0
 24 19  1  0
  1 33  1  0
  4 34  1  0
  4 35  1  0
  6 36  1  0
  7 37  1  0
  9 38  1  0
  9 39  1  0
 15 40  1  0
 15 41  1  0
 20 42  1  0
 21 43  1  0
 22 44  1  0
 23 45  1  0
 31 46  1  0
 32 47  1  0
M  CHG  4   1  -1  11  -1  18  -1  30  -1
M  END
>  <UniqueID>  (53) 
49

>  <SMILES>  (53) 
[NH-]C(=O)Cc1ccc(Cc2[n-]c(=O)n(CC(=O)[N-]c3ccccc3C(F)(F)F)c2[O-])cc1

>  <Energy>  (53) 
76.6302680132513

>  <Genealogy>  (53) 
[NH-]C(=O)Cc1ccc(Cc2[n-]c(=O)n(CC(=O)[N-]c3ccccc3C(F)(F)F)c2[O-])cc1 (protonated)
[NH-]C(=O)Cc1ccc(Cc2[n-]c(=O)n(CC(=O)[N-]c3ccccc3C(F)(F)F)c2[O-])cc1 (3D coordinates assigned)
[NH-]C(=O)Cc1ccc(Cc2[n-]c(=O)n(CC(=O)[N-]c3ccccc3C(F)(F)F)c2[O-])cc1 (optimized conformer: 76.6302680132513 kcal/mol)

>  <smiles>  (53) 
NC(=O)Cc1ccc(Cc2[nH]c(=O)n(CC(=O)Nc3ccccc3C(F)(F)F)c2O)cc1

>  <score_type>  (53) 
oracle

>  <origin>  (53) 
adg

>  <m_score__min__energy>  (53) 
-14.58

>  <m_primary>  (53) 
energy

$$$$
53:0
     RDKit          3D

 82 88  0  0  0  0  0  0  0  0999 V2000
   60.1874   32.0030   54.0489 H   0  0  0  0  0  0  0  0  0  0  0  0
   59.4750   31.8660   53.2220 C   0  0  0  0  0  0  0  0  0  0  0  0
   58.1010   32.3580   53.4310 C   0  0  0  0  0  0  0  0  0  0  0  0
   57.7630   33.5280   53.1100 O   0  0  0  0  0  0  0  0  0  0  0  0
   57.1610   31.5140   54.0880 N   0  0  0  0  0  0  0  0  0  0  0  0
   56.2680   30.6550   53.3200 C   0  0  0  0  0  0  0  0  0  0  0  0
   55.4522   30.5833   54.0544 H   0  0  0  0  0  0  0  0  0  0  0  0
   56.3510   30.8990   51.8240 C   0  0  0  0  0  0  0  0  0  0  0  0
   55.4541   30.7865   51.1972 H   0  0  0  0  0  0  0  0  0  0  0  0
   56.6904   31.7297   51.1878 H   0  0  0  0  0  0  0  0  0  0  0  0
   57.0100   29.6730   52.4370 C   0  0  0  0  0  0  0  0  0  0  0  0
   56.5903   28.6730   52.2529 H   0  0  0  0  0  0  0  0  0  0  0  0
   58.0249   29.2488   52.4273 H   0  0  0  0  0  0  0  0  0  0  0  0
   59.9340   31.2660   52.1130 C   0  0  0  0  0  0  0  0  0  0  0  0
   60.2970   30.2325   52.2130 H   0  0  0  0  0  0  0  0  0  0  0  0
   59.9930   31.8780   50.7660 C   0  0  0  0  0  0  0  0  0  0  0  0
   59.7180   33.2470   50.6120 C   0  0  0  0  0  0  0  0  0  0  0  0
   59.5303   33.8669   51.5011 H   0  0  0  0  0  0  0  0  0  0  0  0
   59.6800   33.8300   49.3450 C   0  0  0  0  0  0  0  0  0  0  0  0
   59.4860   34.9083   49.2465 H   0  0  0  0  0  0  0  0  0  0  0  0
   59.8870   33.0530   48.1960 C   0  0  0  0  0  0  0  0  0  0  0  0
   59.8610   33.6740   46.8490 C   0  0  0  0  0  0  0  0  0  0  0  0
   60.2900   34.8470   46.6950 O   0  0  0  0  0  0  0  0  0  0  0  0
   59.3350   32.9630   45.7200 N   0  0  0  0  0  0  0  0  0  0  0  0
   59.3030   31.4930   45.7360 C   0  0  0  0  0  0  0  0  0  0  0  0
   59.2714   31.1400   46.7774 H   0  0  0  0  0  0  0  0  0  0  0  0
   60.2049   31.1054   45.2396 H   0  0  0  0  0  0  0  0  0  0  0  0
   58.0860   31.0010   45.0060 C   0  0  0  0  0  0  0  0  0  0  0  0
   57.3710   29.8800   45.4480 C   0  0  0  0  0  0  0  0  0  0  0  0
   57.6887   29.3483   46.3571 H   0  0  0  0  0  0  0  0  0  0  0  0
   56.2530   29.4370   44.7330 C   0  0  0  0  0  0  0  0  0  0  0  0
   55.5390   28.3310   45.1760 O   0  0  0  0  0  0  0  0  0  0  0  0
   55.8580   30.1010   43.5670 C   0  0  0  0  0  0  0  0  0  0  0  0
   54.9809   29.7485   43.0046 H   0  0  0  0  0  0  0  0  0  0  0  0
   56.5770   31.2130   43.1150 C   0  0  0  0  0  0  0  0  0  0  0  0
   56.2717   31.7278   42.1921 H   0  0  0  0  0  0  0  0  0  0  0  0
   57.6880   31.6710   43.8400 C   0  0  0  0  0  0  0  0  0  0  0  0
   58.5190   32.8260   43.3500 C   0  0  0  0  0  0  0  0  0  0  0  0
   57.9249   33.4198   42.6398 H   0  0  0  0  0  0  0  0  0  0  0  0
   59.4195   32.4252   42.8617 H   0  0  0  0  0  0  0  0  0  0  0  0
   58.9580   33.7300   44.5170 C   0  0  0  0  0  0  0  0  0  0  0  0
   58.1258   34.4018   44.7743 H   0  0  0  0  0  0  0  0  0  0  0  0
   59.8457   34.2901   44.1880 H   0  0  0  0  0  0  0  0  0  0  0  0
   60.1440   31.6800   48.3410 C   0  0  0  0  0  0  0  0  0  0  0  0
   60.3098   31.0633   47.4454 H   0  0  0  0  0  0  0  0  0  0  0  0
   60.1930   31.0800   49.6130 C   0  0  0  0  0  0  0  0  0  0  0  0
   60.4350   29.6180   49.7050 C   0  0  0  0  0  0  0  0  0  0  0  0
   60.7610   29.0190   50.9310 C   0  0  0  0  0  0  0  0  0  0  0  0
   60.8776   29.6404   51.8311 H   0  0  0  0  0  0  0  0  0  0  0  0
   60.9380   27.6350   51.0120 C   0  0  0  0  0  0  0  0  0  0  0  0
   61.1784   27.1695   51.9792 H   0  0  0  0  0  0  0  0  0  0  0  0
   60.8110   26.8400   49.8700 C   0  0  0  0  0  0  0  0  0  0  0  0
   60.9361   25.7497   49.9443 H   0  0  0  0  0  0  0  0  0  0  0  0
   60.5240   27.4290   48.6270 C   0  0  0  0  0  0  0  0  0  0  0  0
   60.3650   26.5880   47.4230 C   0  0  0  0  0  0  0  0  0  0  0  0
   61.3790   26.3320   46.7140 O   0  0  0  0  0  0  0  0  0  0  0  0
   59.0920   26.0190   47.0670 N   0  0  0  0  0  0  0  0  0  0  0  0
   59.0510   24.7070   46.4130 C   0  0  0  0  0  0  0  0  0  0  0  0
   59.1444   24.8413   45.3252 H   0  0  0  0  0  0  0  0  0  0  0  0
   59.8823   24.0939   46.7912 H   0  0  0  0  0  0  0  0  0  0  0  0
   57.7300   23.9970   46.7220 C   0  0  0  0  0  0  0  0  0  0  0  0
   57.6505   23.0999   46.0904 H   0  0  0  0  0  0  0  0  0  0  0  0
   57.7249   23.7278   47.7885 H   0  0  0  0  0  0  0  0  0  0  0  0
   56.5720   24.8700   46.4610 N   0  0  0  0  0  0  0  0  0  0  0  0
   55.2580   24.2950   46.3110 C   0  0  0  0  0  0  0  0  0  0  0  0
   54.3410   24.9540   45.7490 O   0  0  0  0  0  0  0  0  0  0  0  0
   54.9730   22.8860   46.7560 C   0  0  0  0  0  0  0  0  0  0  0  0
   55.3727   23.0028   47.7741 H   0  0  0  0  0  0  0  0  0  0  0  0
   55.0930   21.8270   45.6680 C   0  0  0  0  0  0  0  0  0  0  0  0
   55.4440   22.1074   44.6639 H   0  0  0  0  0  0  0  0  0  0  0  0
   55.6083   20.8594   45.5780 H   0  0  0  0  0  0  0  0  0  0  0  0
   53.7220   22.2730   46.1450 C   0  0  0  0  0  0  0  0  0  0  0  0
   53.0801   22.8760   45.4860 H   0  0  0  0  0  0  0  0  0  0  0  0
   52.8334   21.7613   46.5432 H   0  0  0  0  0  0  0  0  0  0  0  0
   56.7720   26.3050   46.2140 C   0  0  0  0  0  0  0  0  0  0  0  0
   57.0524   26.4550   45.1610 H   0  0  0  0  0  0  0  0  0  0  0  0
   55.8358   26.8375   46.4378 H   0  0  0  0  0  0  0  0  0  0  0  0
   57.8840   26.8580   47.1160 C   0  0  0  0  0  0  0  0  0  0  0  0
   58.1417   27.8739   46.7821 H   0  0  0  0  0  0  0  0  0  0  0  0
   57.5135   26.8657   48.1517 H   0  0  0  0  0  0  0  0  0  0  0  0
   60.3240   28.8160   48.5580 C   0  0  0  0  0  0  0  0  0  0  0  0
   60.0769   29.2813   47.5923 H   0  0  0  0  0  0  0  0  0  0  0  0
  1  2  1  0
  2  3  1  0
  3  4  2  0
  3  5  1  0
  5  6  1  0
  6  7  1  0
  6  8  1  0
  8  9  1  0
  8 10  1  0
  8 11  1  0
 11 12  1  0
 11 13  1  0
  2 14  2  0
 14 15  1  0
 14 16  1  0
 16 17  2  0
 17 18  1  0
 17 19  1  0
 19 20  1  0
 19 21  2  0
 21 22  1  0
 22 23  2  0
 22 24  1  0
 24 25  1  0
 25 26  1  0
 25 27  1  0
 25 28  1  0
 28 29  2  0
 29 30  1  0
 29 31  1  0
 31 32  1  0
 31 33  2  0
 33 34  1  0
 33 35  1  0
 35 36  1  0
 35 37  2  0
 37 38  1  0
 38 39  1  0
 38 40  1  0
 38 41  1  0
 41 42  1  0
 41 43  1  0
 21 44  1  0
 44 45  1  0
 44 46  2  0
 46 47  1  0
 47 48  2  0
 48 49  1  0
 48 50  1  0
 50 51  1  0
 50 52  2  0
 52 53  1  0
 52 54  1  0
 54 55  1  0
 55 56  2  0
 55 57  1  0
 57 58  1  0
 58 59  1  0
 58 60  1  0
 58 61  1  0
 61 62  1  0
 61 63  1  0
 61 64  1  0
 64 65  1  0
 65 66  2  0
 65 67  1  0
 67 68  1  0
 67 69  1  0
 69 70  1  0
 69 71  1  0
 69 72  1  0
 72 73  1  0
 72 74  1  0
 64 75  1  0
 75 76  1  0
 75 77  1  0
 75 78  1  0
 78 79  1  0
 78 80  1  0
 54 81  2  0
 81 82  1  0
 11  6  1  0
 46 16  1  0
 81 47  1  0
 41 24  1  0
 78 57  1  0
 37 28  1  0
 72 67  1  0
M  CHG  2   5  -1  32  -1
M  END
>  <UniqueID>  (54) 
50

>  <SMILES>  (54) 
O=C(/C=C\c1ccc(C(=O)N2CCc3ccc([O-])cc3C2)cc1-c1cccc(C(=O)N2CCN(C(=O)C3CC3)CC2)c1)[N-]C1CC1

>  <Energy>  (54) 
648.4491299444308

>  <Genealogy>  (54) 
O=C(C=Cc1ccc(C(=O)N2CCc3ccc([O-])cc3C2)cc1-c1cccc(C(=O)N2CCN(C(=O)C3CC3)CC2)c1)[N-]C1CC1 (protonated)
O=C(/C=C\c1ccc(C(=O)N2CCc3ccc([O-])cc3C2)cc1-c1cccc(C(=O)N2CCN(C(=O)C3CC3)CC2)c1)[N-]C1CC1 (cis-trans isomerization)
O=C(/C=C\c1ccc(C(=O)N2CCc3ccc([O-])cc3C2)cc1-c1cccc(C(=O)N2CCN(C(=O)C3CC3)CC2)c1)[N-]C1CC1 (3D coordinates assigned)
O=C(/C=C\c1ccc(C(=O)N2CCc3ccc([O-])cc3C2)cc1-c1cccc(C(=O)N2CCN(C(=O)C3CC3)CC2)c1)[N-]C1CC1 (nonaromatic ring conformer: 648.4491299444308 kcal/mol)

>  <smiles>  (54) 
O=C(C=Cc1ccc(C(=O)N2CCc3ccc(O)cc3C2)cc1-c1cccc(C(=O)N2CCN(C(=O)C3CC3)CC2)c1)NC1CC1

>  <score_type>  (54) 
oracle

>  <origin>  (54) 
adg

>  <m_score__min__energy>  (54) 
-14.789999999999999

>  <m_primary>  (54) 
energy

$$$$
54:0
     RDKit          3D

 25 26  0  0  0  0  0  0  0  0999 V2000
   55.5190   28.6500   45.2450 O   0  0  0  0  0  0  0  0  0  0  0  0
   56.6900   28.3700   45.6180 C   0  0  0  0  0  0  0  0  0  0  0  0
   57.6400   29.4350   45.7540 N   0  0  0  0  0  0  0  0  0  0  0  0
   57.7520   30.5870   44.9040 C   0  0  0  0  0  0  0  0  0  0  0  0
   57.3690   30.4770   43.5610 C   0  0  0  0  0  0  0  0  0  0  0  0
   57.4700   31.5760   42.7040 C   0  0  0  0  0  0  0  0  0  0  0  0
   57.9700   32.7920   43.1810 C   0  0  0  0  0  0  0  0  0  0  0  0
   58.3770   32.9060   44.5140 C   0  0  0  0  0  0  0  0  0  0  0  0
   59.0220   34.4260   45.1070 Cl  0  0  0  0  0  0  0  0  0  0  0  0
   58.2780   31.8050   45.3730 C   0  0  0  0  0  0  0  0  0  0  0  0
   57.0290   26.9630   45.9350 C   0  0  0  0  0  0  0  0  0  0  0  0
   58.3750   26.5870   46.0690 C   0  0  0  0  0  0  0  0  0  0  0  0
   58.7090   25.2700   46.3870 C   0  0  0  0  0  0  0  0  0  0  0  0
   57.6920   24.3290   46.5550 C   0  0  0  0  0  0  0  0  0  0  0  0
   57.9740   23.1380   46.8470 O   0  0  0  0  0  0  0  0  0  0  0  0
   56.3930   24.6980   46.4000 N   0  0  0  0  0  0  0  0  0  0  0  0
   56.0380   25.9750   46.0900 C   0  0  0  0  0  0  0  0  0  0  0  0
   54.6920   26.2830   45.9080 O   0  0  0  0  0  0  0  0  0  0  0  0
   56.9863   29.5192   43.1786 H   0  0  0  0  0  0  0  0  0  0  0  0
   57.1561   31.4848   41.6537 H   0  0  0  0  0  0  0  0  0  0  0  0
   58.0431   33.6587   42.5076 H   0  0  0  0  0  0  0  0  0  0  0  0
   58.6123   31.8923   46.4173 H   0  0  0  0  0  0  0  0  0  0  0  0
   59.1695   27.3336   45.9227 H   0  0  0  0  0  0  0  0  0  0  0  0
   59.7627   24.9766   46.5040 H   0  0  0  0  0  0  0  0  0  0  0  0
   54.3680   26.7180   45.0520 H   0  0  0  0  0  0  0  0  0  0  0  0
  1  2  2  0
  2  3  1  0
  3  4  1  0
  4  5  2  0
  5  6  1  0
  6  7  2  0
  7  8  1  0
  8  9  1  0
  8 10  2  0
  2 11  1  0
 11 12  1  0
 12 13  2  0
 13 14  1  0
 14 15  2  0
 14 16  1  0
 16 17  1  0
 17 18  1  0
 10  4  1  0
 17 11  2  0
  5 19  1  0
  6 20  1  0
  7 21  1  0
 10 22  1  0
 12 23  1  0
 13 24  1  0
 18 25  1  0
M  CHG  2   3  -1  16  -1
M  END
>  <UniqueID>  (55) 
51

>  <SMILES>  (55) 
O=C([N-]c1cccc(Cl)c1)c1ccc(=O)[n-]c1O

>  <Energy>  (55) 
34.17348156258741

>  <Genealogy>  (55) 
O=C([N-]c1cccc(Cl)c1)c1ccc(=O)[n-]c1O (protonated)
O=C([N-]c1cccc(Cl)c1)c1ccc(=O)[n-]c1O (3D coordinates assigned)
O=C([N-]c1cccc(Cl)c1)c1ccc(=O)[n-]c1O (optimized conformer: 34.17348156258741 kcal/mol)

>  <smiles>  (55) 
O=C(Nc1cccc(Cl)c1)c1ccc(=O)[nH]c1O

>  <score_type>  (55) 
oracle

>  <origin>  (55) 
adg

>  <m_score__min__energy>  (55) 
-11.539999999999999

>  <m_primary>  (55) 
energy

$$$$
55:0
     RDKit          3D

 44 46  0  0  0  0  0  0  0  0999 V2000
   57.1290   32.8980   45.5700 C   0  0  0  0  0  0  0  0  0  0  0  0
   57.7550   31.7440   45.8090 C   0  0  0  0  0  0  0  0  0  0  0  0
   57.6040   30.6500   45.0370 N   0  0  0  0  0  0  0  0  0  0  0  0
   58.3440   29.6660   45.5930 C   0  0  0  0  0  0  0  0  0  0  0  0
   58.4090   28.4050   45.1290 C   0  0  0  0  0  0  0  0  0  0  0  0
   57.5230   27.3160   45.5950 C   0  0  0  0  0  0  0  0  0  0  0  0
   56.1260   27.4650   45.6290 C   0  0  0  0  0  0  0  0  0  0  0  0
   55.5260   28.6540   45.2280 O   0  0  0  0  0  0  0  0  0  0  0  0
   55.3430   26.4330   46.0400 N   0  0  0  0  0  0  0  0  0  0  0  0
   55.8870   25.2430   46.4040 C   0  0  0  0  0  0  0  0  0  0  0  0
   55.1430   24.3030   46.7840 O   0  0  0  0  0  0  0  0  0  0  0  0
   57.2320   25.0660   46.3510 N   0  0  0  0  0  0  0  0  0  0  0  0
   58.0570   26.0660   45.9500 C   0  0  0  0  0  0  0  0  0  0  0  0
   59.3000   25.8630   45.9100 O   0  0  0  0  0  0  0  0  0  0  0  0
   58.9850   30.1400   46.7350 C   0  0  0  0  0  0  0  0  0  0  0  0
   59.9170   29.3730   47.6290 C   0  0  0  0  0  0  0  0  0  0  0  0
   58.5980   31.4680   46.8780 C   0  0  0  0  0  0  0  0  0  0  0  0
   58.9950   32.4020   47.9550 C   0  0  0  0  0  0  0  0  0  0  0  0
   58.6590   32.1360   49.1430 O   0  0  0  0  0  0  0  0  0  0  0  0
   59.8140   33.5660   47.6730 N   0  0  1  0  0  0  0  0  0  0  0  0
   60.1940   34.2800   48.9330 C   0  0  0  0  0  0  0  0  0  0  0  0
   61.6890   34.1860   49.3170 C   0  0  0  0  0  0  0  0  0  0  0  0
   62.2540   32.8920   48.9330 N   0  0  0  0  0  0  0  0  0  0  0  0
   63.0610   32.0920   49.8540 C   0  0  0  0  0  0  0  0  0  0  0  0
   61.9900   32.4430   47.6020 C   0  0  0  0  0  0  0  0  0  0  0  0
   62.6060   31.4590   47.1100 O   0  0  0  0  0  0  0  0  0  0  0  0
   60.9550   33.1770   46.8100 C   0  0  0  0  0  0  0  0  0  0  0  0
   57.2905   33.7593   46.2349 H   0  0  0  0  0  0  0  0  0  0  0  0
   56.4515   32.9880   44.7081 H   0  0  0  0  0  0  0  0  0  0  0  0
   56.9870   30.5780   44.1960 H   0  0  0  0  0  0  0  0  0  0  0  0
   59.1616   28.1711   44.3616 H   0  0  0  0  0  0  0  0  0  0  0  0
   59.6679   29.5780   48.6806 H   0  0  0  0  0  0  0  0  0  0  0  0
   59.8121   28.2961   47.4305 H   0  0  0  0  0  0  0  0  0  0  0  0
   60.9535   29.6831   47.4305 H   0  0  0  0  0  0  0  0  0  0  0  0
   59.2420   34.2310   47.1010 H   0  0  0  0  0  0  0  0  0  0  0  0
   59.9399   35.3433   48.8116 H   0  0  0  0  0  0  0  0  0  0  0  0
   59.6386   33.7857   49.7437 H   0  0  0  0  0  0  0  0  0  0  0  0
   62.2424   34.9858   48.8031 H   0  0  0  0  0  0  0  0  0  0  0  0
   61.7756   34.2936   50.4083 H   0  0  0  0  0  0  0  0  0  0  0  0
   62.7995   32.3512   50.8906 H   0  0  0  0  0  0  0  0  0  0  0  0
   62.8629   31.0237   49.6820 H   0  0  0  0  0  0  0  0  0  0  0  0
   64.1275   32.2994   49.6820 H   0  0  0  0  0  0  0  0  0  0  0  0
   61.4060   34.0824   46.3776 H   0  0  0  0  0  0  0  0  0  0  0  0
   60.5858   32.5163   46.0118 H   0  0  0  0  0  0  0  0  0  0  0  0
  1  2  2  0
  2  3  1  0
  3  4  1  0
  4  5  2  3
  5  6  1  0
  6  7  2  0
  7  8  1  0
  7  9  1  0
  9 10  1  0
 10 11  2  0
 10 12  1  0
 12 13  1  0
 13 14  2  0
  4 15  1  0
 15 16  1  0
 15 17  2  0
 17 18  1  0
 18 19  2  0
 18 20  1  0
 20 21  1  0
 21 22  1  0
 22 23  1  0
 23 24  1  0
 23 25  1  0
 25 26  2  0
 25 27  1  0
 17  2  1  0
 27 20  1  0
 13  6  1  0
  1 28  1  0
  1 29  1  0
  3 30  1  0
  5 31  1  0
 16 32  1  0
 16 33  1  0
 16 34  1  0
 20 35  1  6
 21 36  1  0
 21 37  1  0
 22 38  1  0
 22 39  1  0
 24 40  1  0
 24 41  1  0
 24 42  1  0
 27 43  1  0
 27 44  1  0
M  CHG  4   8  -1   9  -1  12  -1  20   1
M  END
>  <UniqueID>  (56) 
52

>  <SMILES>  (56) 
C=c1[nH]c(=Cc2c([O-])[n-]c(=O)[n-]c2=O)c(C)c1C(=O)[N@H+]1CCN(C)C(=O)C1

>  <Energy>  (56) 
95.31393614925035

>  <Genealogy>  (56) 
C=c1[nH]c(=Cc2c([O-])[n-]c(=O)[n-]c2=O)c(C)c1C(=O)[NH+]1CCN(C)C(=O)C1 (protonated)
C=c1[nH]c(=Cc2c([O-])[n-]c(=O)[n-]c2=O)c(C)c1C(=O)[N@H+]1CCN(C)C(=O)C1 (chirality)
C=c1[nH]c(=Cc2c([O-])[n-]c(=O)[n-]c2=O)c(C)c1C(=O)[N@H+]1CCN(C)C(=O)C1 (3D coordinates assigned)
C=c1[nH]c(=Cc2c([O-])[n-]c(=O)[n-]c2=O)c(C)c1C(=O)[N@H+]1CCN(C)C(=O)C1 (nonaromatic ring conformer: 95.31393614925035 kcal/mol)

>  <smiles>  (56) 
C=c1[nH]c(=Cc2c(O)[nH]c(=O)[nH]c2=O)c(C)c1C(=O)N1CCN(C)C(=O)C1

>  <score_type>  (56) 
oracle

>  <origin>  (56) 
adg

>  <m_score__min__energy>  (56) 
-14.19

>  <m_primary>  (56) 
energy

$$$$
56:0
     RDKit          3D

 60 63  0  0  0  0  0  0  0  0999 V2000
   57.9873   34.9271   45.7563 H   0  0  0  0  0  0  0  0  0  0  0  0
   57.6180   34.1500   45.0710 C   0  0  0  0  0  0  0  0  0  0  0  0
   56.8560   34.3981   44.3175 H   0  0  0  0  0  0  0  0  0  0  0  0
   58.0960   32.9020   45.1540 C   0  0  0  0  0  0  0  0  0  0  0  0
   57.5660   31.6790   44.1320 S   0  0  0  0  0  0  0  0  0  0  0  0
   58.5120   30.4960   44.8560 C   0  0  0  0  0  0  0  0  0  0  0  0
   58.6060   29.2070   44.4870 C   0  0  0  0  0  0  0  0  0  0  0  0
   59.1009   28.9787   43.5315 H   0  0  0  0  0  0  0  0  0  0  0  0
   58.0860   28.0780   45.2850 C   0  0  0  0  0  0  0  0  0  0  0  0
   58.9510   27.4060   46.1510 C   0  0  0  0  0  0  0  0  0  0  0  0
   60.0052   27.7127   46.2183 H   0  0  0  0  0  0  0  0  0  0  0  0
   58.4850   26.3480   46.9310 C   0  0  0  0  0  0  0  0  0  0  0  0
   59.1835   25.8139   47.5919 H   0  0  0  0  0  0  0  0  0  0  0  0
   57.1420   25.9550   46.8860 C   0  0  0  0  0  0  0  0  0  0  0  0
   56.7760   24.8680   47.7010 O   0  0  0  0  0  0  0  0  0  0  0  0
   56.8100   23.4920   47.3370 C   0  0  0  0  0  0  0  0  0  0  0  0
   56.8253   22.8726   48.2459 H   0  0  0  0  0  0  0  0  0  0  0  0
   55.9176   23.2480   46.7419 H   0  0  0  0  0  0  0  0  0  0  0  0
   57.7134   23.2923   46.7419 H   0  0  0  0  0  0  0  0  0  0  0  0
   56.2410   26.6580   46.0440 C   0  0  0  0  0  0  0  0  0  0  0  0
   54.8820   26.3040   46.0160 O   0  0  0  0  0  0  0  0  0  0  0  0
   54.3760   25.0370   45.6070 C   0  0  0  0  0  0  0  0  0  0  0  0
   54.1353   24.4343   46.4951 H   0  0  0  0  0  0  0  0  0  0  0  0
   53.4669   25.1822   45.0050 H   0  0  0  0  0  0  0  0  0  0  0  0
   55.1351   24.5160   45.0050 H   0  0  0  0  0  0  0  0  0  0  0  0
   56.7310   27.7180   45.2510 C   0  0  0  0  0  0  0  0  0  0  0  0
   56.0399   28.2697   44.5968 H   0  0  0  0  0  0  0  0  0  0  0  0
   59.2350   31.0990   45.8860 C   0  0  0  0  0  0  0  0  0  0  0  0
   60.0250   30.4350   46.6030 O   0  0  0  0  0  0  0  0  0  0  0  0
   59.0250   32.4490   46.0560 N   0  0  0  0  0  0  0  0  0  0  0  0
   59.6430   33.3220   47.0960 C   0  0  2  0  0  0  0  0  0  0  0  0
   58.8370   34.0026   47.4076 H   0  0  0  0  0  0  0  0  0  0  0  0
   60.7370   34.3130   46.5970 C   0  0  0  0  0  0  0  0  0  0  0  0
   60.5562   34.5052   45.5291 H   0  0  0  0  0  0  0  0  0  0  0  0
   60.6449   35.2047   47.2345 H   0  0  0  0  0  0  0  0  0  0  0  0
   62.2000   33.8360   46.7520 C   0  0  0  0  0  0  0  0  0  0  0  0
   62.4286   33.1267   45.9429 H   0  0  0  0  0  0  0  0  0  0  0  0
   62.8501   34.7220   46.7044 H   0  0  0  0  0  0  0  0  0  0  0  0
   62.4370   33.1700   48.0490 N   0  0  2  0  0  0  0  0  0  0  0  0
   62.2280   33.8660   48.8050 H   0  0  0  0  0  0  0  0  0  0  0  0
   63.8620   32.7880   48.2290 C   0  0  0  0  0  0  0  0  0  0  0  0
   63.9474   31.7004   48.0879 H   0  0  0  0  0  0  0  0  0  0  0  0
   64.4376   33.3622   47.4881 H   0  0  0  0  0  0  0  0  0  0  0  0
   64.4360   33.1370   49.5900 C   0  0  0  0  0  0  0  0  0  0  0  0
   63.6740   33.8680   50.5170 C   0  0  0  0  0  0  0  0  0  0  0  0
   62.6594   34.1997   50.2513 H   0  0  0  0  0  0  0  0  0  0  0  0
   64.2000   34.1760   51.7770 C   0  0  0  0  0  0  0  0  0  0  0  0
   63.6026   34.7562   52.4957 H   0  0  0  0  0  0  0  0  0  0  0  0
   65.4850   33.7460   52.1220 C   0  0  0  0  0  0  0  0  0  0  0  0
   65.8957   33.9849   53.1141 H   0  0  0  0  0  0  0  0  0  0  0  0
   66.2480   33.0140   51.2100 C   0  0  0  0  0  0  0  0  0  0  0  0
   67.2597   32.6794   51.4830 H   0  0  0  0  0  0  0  0  0  0  0  0
   65.7260   32.7060   49.9490 C   0  0  0  0  0  0  0  0  0  0  0  0
   66.3272   32.1241   49.2349 H   0  0  0  0  0  0  0  0  0  0  0  0
   61.5270   32.0190   48.2120 C   0  0  0  0  0  0  0  0  0  0  0  0
   61.6226   31.3546   47.3406 H   0  0  0  0  0  0  0  0  0  0  0  0
   61.7965   31.4769   49.1304 H   0  0  0  0  0  0  0  0  0  0  0  0
   60.0820   32.4980   48.3240 C   0  0  0  0  0  0  0  0  0  0  0  0
   59.4244   31.6209   48.4153 H   0  0  0  0  0  0  0  0  0  0  0  0
   60.0097   33.1473   49.2090 H   0  0  0  0  0  0  0  0  0  0  0  0
  1  2  1  0
  2  3  1  0
  2  4  2  0
  4  5  1  0
  5  6  1  0
  6  7  2  0
  7  8  1  0
  7  9  1  0
  9 10  2  0
 10 11  1  0
 10 12  1  0
 12 13  1  0
 12 14  2  0
 14 15  1  0
 15 16  1  0
 16 17  1  0
 16 18  1  0
 16 19  1  0
 14 20  1  0
 20 21  1  0
 21 22  1  0
 22 23  1  0
 22 24  1  0
 22 25  1  0
 20 26  2  0
 26 27  1  0
  6 28  1  0
 28 29  2  0
 28 30  1  0
 30 31  1  0
 31 32  1  6
 31 33  1  0
 33 34  1  0
 33 35  1  0
 33 36  1  0
 36 37  1  0
 36 38  1  0
 36 39  1  0
 39 40  1  6
 39 41  1  0
 41 42  1  0
 41 43  1  0
 41 44  1  0
 44 45  2  0
 45 46  1  0
 45 47  1  0
 47 48  1  0
 47 49  2  0
 49 50  1  0
 49 51  1  0
 51 52  1  0
 51 53  2  0
 53 54  1  0
 39 55  1  0
 55 56  1  0
 55 57  1  0
 55 58  1  0
 58 59  1  0
 58 60  1  0
 30  4  1  0
 58 31  1  0
 26  9  1  0
 53 44  1  0
M  CHG  1  39   1
M  END
>  <UniqueID>  (57) 
53

>  <SMILES>  (57) 
C=c1s/c(=C\c2ccc(OC)c(OC)c2)c(=O)n1C1CC[NH+](Cc2ccccc2)CC1

>  <Energy>  (57) 
116.07634340446148

>  <Genealogy>  (57) 
C=c1sc(=Cc2ccc(OC)c(OC)c2)c(=O)n1C1CC[NH+](Cc2ccccc2)CC1 (protonated)
C=c1s/c(=C\c2ccc(OC)c(OC)c2)c(=O)n1C1CC[NH+](Cc2ccccc2)CC1 (cis-trans isomerization)
C=c1s/c(=C\c2ccc(OC)c(OC)c2)c(=O)n1C1CC[NH+](Cc2ccccc2)CC1 (3D coordinates assigned)
C=c1s/c(=C\c2ccc(OC)c(OC)c2)c(=O)n1C1CC[NH+](Cc2ccccc2)CC1 (nonaromatic ring conformer: 116.07634340446148 kcal/mol)

>  <smiles>  (57) 
C=c1sc(=Cc2ccc(OC)c(OC)c2)c(=O)n1C1CCN(Cc2ccccc2)CC1

>  <score_type>  (57) 
oracle

>  <origin>  (57) 
adg

>  <m_score__min__energy>  (57) 
-8.2300000000000004

>  <m_primary>  (57) 
energy

$$$$
57:0
     RDKit          3D

 51 54  0  0  0  0  0  0  0  0999 V2000
   57.6638   31.9228   51.9488 H   0  0  0  0  0  0  0  0  0  0  0  0
   56.6060   31.8100   51.6690 C   0  0  0  0  0  0  0  0  0  0  0  0
   56.1521   32.5016   50.9440 H   0  0  0  0  0  0  0  0  0  0  0  0
   55.8680   30.8270   52.2130 C   0  0  0  0  0  0  0  0  0  0  0  0
   54.5140   30.5540   51.9600 C   0  0  0  0  0  0  0  0  0  0  0  0
   53.5690   31.2740   51.3240 C   0  0  0  0  0  0  0  0  0  0  0  0
   53.7418   31.5048   50.2625 H   0  0  0  0  0  0  0  0  0  0  0  0
   52.3250   31.7780   51.9290 C   0  0  0  0  0  0  0  0  0  0  0  0
   51.8840   31.4570   53.1590 N   0  0  0  0  0  0  0  0  0  0  0  0
   50.6630   32.0320   53.2140 C   0  0  0  0  0  0  0  0  0  0  0  0
   49.9270   31.9660   54.2310 O   0  0  0  0  0  0  0  0  0  0  0  0
   50.2890   32.6750   52.0860 N   0  0  0  0  0  0  0  0  0  0  0  0
   51.3470   32.4920   51.2800 C   0  0  0  0  0  0  0  0  0  0  0  0
   51.4150   32.9630   49.9750 O   0  0  0  0  0  0  0  0  0  0  0  0
   54.2570   29.3210   52.5300 C   0  0  0  0  0  0  0  0  0  0  0  0
   53.3071   28.7676   52.4907 H   0  0  0  0  0  0  0  0  0  0  0  0
   55.4160   28.9160   53.1570 C   0  0  0  0  0  0  0  0  0  0  0  0
   55.5640   27.6380   53.9250 C   0  0  0  0  0  0  0  0  0  0  0  0
   55.5391   27.8533   55.0034 H   0  0  0  0  0  0  0  0  0  0  0  0
   54.7386   26.9579   53.6677 H   0  0  0  0  0  0  0  0  0  0  0  0
   56.5230   27.1645   53.6677 H   0  0  0  0  0  0  0  0  0  0  0  0
   56.3930   29.8380   52.9860 N   0  0  0  0  0  0  0  0  0  0  0  0
   57.7850   29.7070   53.4400 C   0  0  0  0  0  0  0  0  0  0  0  0
   58.1258   30.6698   53.8486 H   0  0  0  0  0  0  0  0  0  0  0  0
   57.8371   28.9294   54.2162 H   0  0  0  0  0  0  0  0  0  0  0  0
   58.6680   29.3150   52.2970 C   0  0  0  0  0  0  0  0  0  0  0  0
   58.3210   29.4380   51.0020 N   0  0  0  0  0  0  0  0  0  0  0  0
   59.3400   28.9980   50.2820 N   0  0  0  0  0  0  0  0  0  0  0  0
   59.3290   28.9110   48.8270 C   0  0  0  0  0  0  0  0  0  0  0  0
   59.6077   27.8925   48.5187 H   0  0  0  0  0  0  0  0  0  0  0  0
   58.3210   29.1448   48.4539 H   0  0  0  0  0  0  0  0  0  0  0  0
   60.2870   29.8670   48.2730 N   0  0  0  0  0  0  0  0  0  0  0  0
   60.9590   30.1280   49.0310 H   0  0  0  0  0  0  0  0  0  0  0  0
   59.4620   31.3240   47.8070 S   0  0  0  0  0  0  0  0  0  0  0  0
   60.4630   32.4260   47.5950 O   0  0  0  0  0  0  0  0  0  0  0  0
   58.5280   31.7370   48.9090 O   0  0  0  0  0  0  0  0  0  0  0  0
   58.5320   31.0590   46.3340 C   0  0  0  0  0  0  0  0  0  0  0  0
   58.2410   29.7510   45.9200 C   0  0  0  0  0  0  0  0  0  0  0  0
   58.5803   28.8961   46.5234 H   0  0  0  0  0  0  0  0  0  0  0  0
   57.5200   29.5310   44.7410 C   0  0  0  0  0  0  0  0  0  0  0  0
   57.2915   28.5040   44.4201 H   0  0  0  0  0  0  0  0  0  0  0  0
   57.0900   30.6150   43.9710 C   0  0  0  0  0  0  0  0  0  0  0  0
   56.5211   30.4413   43.0457 H   0  0  0  0  0  0  0  0  0  0  0  0
   57.3830   31.9200   44.3770 C   0  0  0  0  0  0  0  0  0  0  0  0
   57.0461   32.7726   43.7692 H   0  0  0  0  0  0  0  0  0  0  0  0
   58.1040   32.1440   45.5550 C   0  0  0  0  0  0  0  0  0  0  0  0
   58.3354   33.1721   45.8705 H   0  0  0  0  0  0  0  0  0  0  0  0
   60.3290   28.5720   51.0920 C   0  0  0  0  0  0  0  0  0  0  0  0
   61.2877   28.1421   50.7664 H   0  0  0  0  0  0  0  0  0  0  0  0
   59.9340   28.7670   52.3990 C   0  0  0  0  0  0  0  0  0  0  0  0
   60.4981   28.5384   53.3153 H   0  0  0  0  0  0  0  0  0  0  0  0
  1  2  1  0
  2  3  1  0
  2  4  2  0
  4  5  1  0
  5  6  2  0
  6  7  1  0
  6  8  1  0
  8  9  1  0
  9 10  1  0
 10 11  2  0
 10 12  1  0
 12 13  1  0
 13 14  1  0
  5 15  1  0
 15 16  1  0
 15 17  2  0
 17 18  1  0
 18 19  1  0
 18 20  1  0
 18 21  1  0
 17 22  1  0
 22 23  1  0
 23 24  1  0
 23 25  1  0
 23 26  1  0
 26 27  2  0
 27 28  1  0
 28 29  1  0
 29 30  1  0
 29 31  1  0
 29 32  1  0
 32 33  1  0
 32 34  1  0
 34 35  2  0
 34 36  2  0
 34 37  1  0
 37 38  2  0
 38 39  1  0
 38 40  1  0
 40 41  1  0
 40 42  2  0
 42 43  1  0
 42 44  1  0
 44 45  1  0
 44 46  2  0
 46 47  1  0
 28 48  1  0
 48 49  1  0
 48 50  2  0
 50 51  1  0
 22  4  1  0
 50 26  1  0
 13  8  2  0
 46 37  1  0
M  CHG  3   9  -1  12  -1  14  -1
M  END
>  <UniqueID>  (58) 
54

>  <SMILES>  (58) 
C=c1/c(=C\c2[n-]c(=O)[n-]c2[O-])cc(C)n1Cc1ccn(CNS(=O)(=O)c2ccccc2)n1

>  <Energy>  (58) 
147.76052797322583

>  <Genealogy>  (58) 
C=c1c(=Cc2[n-]c(=O)[n-]c2[O-])cc(C)n1Cc1ccn(CNS(=O)(=O)c2ccccc2)n1 (protonated)
C=c1/c(=C\c2[n-]c(=O)[n-]c2[O-])cc(C)n1Cc1ccn(CNS(=O)(=O)c2ccccc2)n1 (cis-trans isomerization)
C=c1/c(=C\c2[n-]c(=O)[n-]c2[O-])cc(C)n1Cc1ccn(CNS(=O)(=O)c2ccccc2)n1 (3D coordinates assigned)
C=c1/c(=C\c2[n-]c(=O)[n-]c2[O-])cc(C)n1Cc1ccn(CNS(=O)(=O)c2ccccc2)n1 (optimized conformer: 147.76052797322583 kcal/mol)

>  <smiles>  (58) 
C=c1c(=Cc2[nH]c(=O)[nH]c2O)cc(C)n1Cc1ccn(CNS(=O)(=O)c2ccccc2)n1

>  <score_type>  (58) 
oracle

>  <origin>  (58) 
adg

>  <m_score__min__energy>  (58) 
-16.91

>  <m_primary>  (58) 
energy

$$$$
58:0
     RDKit          3D

 72 76  0  0  0  0  0  0  0  0999 V2000
   59.6660   34.5890   49.0510 C   0  0  0  0  0  0  0  0  0  0  0  0
   59.2990   34.5920   47.6010 C   0  0  0  0  0  0  0  0  0  0  0  0
   58.3220   33.7200   47.1110 C   0  0  0  0  0  0  0  0  0  0  0  0
   58.0290   33.7170   45.7420 C   0  0  0  0  0  0  0  0  0  0  0  0
   56.9760   32.7980   45.1770 C   0  0  0  0  0  0  0  0  0  0  0  0
   57.5150   31.3950   45.0440 C   0  0  0  0  0  0  0  0  0  0  0  0
   58.1580   30.7830   46.1250 C   0  0  0  0  0  0  0  0  0  0  0  0
   58.6690   29.5130   46.0240 N   0  0  0  0  0  0  0  0  0  0  0  0
   59.3850   28.8620   47.1500 C   0  0  0  0  0  0  0  0  0  0  0  0
   59.6050   29.7380   48.3650 C   0  0  0  0  0  0  0  0  0  0  0  0
   58.8960   29.5150   49.3870 O   0  0  0  0  0  0  0  0  0  0  0  0
   60.6050   30.7840   48.4020 N   0  0  0  0  0  0  0  0  0  0  0  0
   60.7480   31.5970   49.6220 C   0  0  0  0  0  0  0  0  0  0  0  0
   62.1340   32.2470   49.6890 C   0  0  0  0  0  0  0  0  0  0  0  0
   62.4210   33.0450   48.4770 N   0  0  0  0  0  0  0  0  0  0  0  0
   63.8190   33.5280   48.4050 C   0  0  0  0  0  0  0  0  0  0  0  0
   64.5690   33.4350   49.7190 C   0  0  0  0  0  0  0  0  0  0  0  0
   65.6520   32.5460   49.8520 C   0  0  0  0  0  0  0  0  0  0  0  0
   66.3470   32.4490   51.0620 C   0  0  0  0  0  0  0  0  0  0  0  0
   65.9610   33.2230   52.1570 C   0  0  0  0  0  0  0  0  0  0  0  0
   64.8790   34.1030   52.0410 C   0  0  0  0  0  0  0  0  0  0  0  0
   64.1790   34.2010   50.8330 C   0  0  0  0  0  0  0  0  0  0  0  0
   61.9020   32.4890   47.2020 C   0  0  0  0  0  0  0  0  0  0  0  0
   61.5570   30.9990   47.3010 C   0  0  0  0  0  0  0  0  0  0  0  0
   58.5610   28.8450   44.8250 C   0  0  0  0  0  0  0  0  0  0  0  0
   59.2200   27.1730   44.6140 S   0  0  0  0  0  0  0  0  0  0  0  0
   58.2210   26.4120   45.9450 C   0  0  0  0  0  0  0  0  0  0  0  0
   57.1420   25.5180   45.3960 C   0  0  0  0  0  0  0  0  0  0  0  0
   57.3660   24.7540   44.2390 C   0  0  0  0  0  0  0  0  0  0  0  0
   56.3720   23.8950   43.7600 C   0  0  0  0  0  0  0  0  0  0  0  0
   55.1500   23.7940   44.4340 C   0  0  0  0  0  0  0  0  0  0  0  0
   54.1830   22.9680   43.9710 F   0  0  0  0  0  0  0  0  0  0  0  0
   54.9130   24.5680   45.5720 C   0  0  0  0  0  0  0  0  0  0  0  0
   55.9040   25.4300   46.0520 C   0  0  0  0  0  0  0  0  0  0  0  0
   57.9860   29.4510   43.7490 N   0  0  0  0  0  0  0  0  0  0  0  0
   57.4580   30.6980   43.8330 C   0  0  0  0  0  0  0  0  0  0  0  0
   56.9160   31.2160   42.8170 O   0  0  0  0  0  0  0  0  0  0  0  0
   58.7220   34.6010   44.9070 C   0  0  0  0  0  0  0  0  0  0  0  0
   59.6740   35.4150   45.4330 N   0  0  0  0  0  0  0  0  0  0  0  0
   59.9570   35.4070   46.7370 N   0  0  0  0  0  0  0  0  0  0  0  0
   58.7506   34.5965   49.6609 H   0  0  0  0  0  0  0  0  0  0  0  0
   60.2513   33.6860   49.2792 H   0  0  0  0  0  0  0  0  0  0  0  0
   60.2660   35.4823   49.2792 H   0  0  0  0  0  0  0  0  0  0  0  0
   57.7888   33.0429   47.7945 H   0  0  0  0  0  0  0  0  0  0  0  0
   56.1051   32.7890   45.8489 H   0  0  0  0  0  0  0  0  0  0  0  0
   56.6831   33.1624   44.1813 H   0  0  0  0  0  0  0  0  0  0  0  0
   58.2561   31.3300   47.0743 H   0  0  0  0  0  0  0  0  0  0  0  0
   58.8000   27.9850   47.4640 H   0  0  0  0  0  0  0  0  0  0  0  0
   60.3859   28.6088   46.7703 H   0  0  0  0  0  0  0  0  0  0  0  0
   59.9807   32.3852   49.6211 H   0  0  0  0  0  0  0  0  0  0  0  0
   60.6257   30.9412   50.4966 H   0  0  0  0  0  0  0  0  0  0  0  0
   62.1769   32.9061   50.5686 H   0  0  0  0  0  0  0  0  0  0  0  0
   62.8858   31.4471   49.7600 H   0  0  0  0  0  0  0  0  0  0  0  0
   64.3554   32.9261   47.6566 H   0  0  0  0  0  0  0  0  0  0  0  0
   63.7753   34.5939   48.1368 H   0  0  0  0  0  0  0  0  0  0  0  0
   65.9543   31.9225   48.9976 H   0  0  0  0  0  0  0  0  0  0  0  0
   67.2003   31.7606   51.1506 H   0  0  0  0  0  0  0  0  0  0  0  0
   66.5059   33.1417   53.1091 H   0  0  0  0  0  0  0  0  0  0  0  0
   64.5780   34.7190   52.9012 H   0  0  0  0  0  0  0  0  0  0  0  0
   63.3183   34.8814   50.7539 H   0  0  0  0  0  0  0  0  0  0  0  0
   60.9937   33.0422   46.9212 H   0  0  0  0  0  0  0  0  0  0  0  0
   62.6946   32.5961   46.4469 H   0  0  0  0  0  0  0  0  0  0  0  0
   61.1048   30.6645   46.3557 H   0  0  0  0  0  0  0  0  0  0  0  0
   62.4746   30.4240   47.4945 H   0  0  0  0  0  0  0  0  0  0  0  0
   58.8831   25.8155   46.5897 H   0  0  0  0  0  0  0  0  0  0  0  0
   57.7374   27.2205   46.5128 H   0  0  0  0  0  0  0  0  0  0  0  0
   58.3262   24.8316   43.7080 H   0  0  0  0  0  0  0  0  0  0  0  0
   56.5508   23.2986   42.8532 H   0  0  0  0  0  0  0  0  0  0  0  0
   53.9457   24.4995   46.0914 H   0  0  0  0  0  0  0  0  0  0  0  0
   55.7129   26.0411   46.9465 H   0  0  0  0  0  0  0  0  0  0  0  0
   57.9490   28.9460   42.8350 H   0  0  0  0  0  0  0  0  0  0  0  0
   58.4971   34.6365   43.8308 H   0  0  0  0  0  0  0  0  0  0  0  0
  1  2  1  0
  2  3  2  0
  3  4  1  0
  4  5  1  0
  5  6  1  0
  6  7  2  0
  7  8  1  0
  8  9  1  0
  9 10  1  0
 10 11  2  0
 10 12  1  0
 12 13  1  0
 13 14  1  0
 14 15  1  0
 15 16  1  0
 16 17  1  0
 17 18  2  0
 18 19  1  0
 19 20  2  0
 20 21  1  0
 21 22  2  0
 15 23  1  0
 23 24  1  0
  8 25  1  0
 25 26  1  0
 26 27  1  0
 27 28  1  0
 28 29  2  0
 29 30  1  0
 30 31  2  0
 31 32  1  0
 31 33  1  0
 33 34  2  0
 25 35  2  0
 35 36  1  0
 36 37  2  0
  4 38  2  0
 38 39  1  0
 39 40  2  0
 40  2  1  0
 36  6  1  0
 24 12  1  0
 34 28  1  0
 22 17  1  0
  1 41  1  0
  1 42  1  0
  1 43  1  0
  3 44  1  0
  5 45  1  0
  5 46  1  0
  7 47  1  0
  9 48  1  0
  9 49  1  0
 13 50  1  0
 13 51  1  0
 14 52  1  0
 14 53  1  0
 16 54  1  0
 16 55  1  0
 18 56  1  0
 19 57  1  0
 20 58  1  0
 21 59  1  0
 22 60  1  0
 23 61  1  0
 23 62  1  0
 24 63  1  0
 24 64  1  0
 27 65  1  0
 27 66  1  0
 29 67  1  0
 30 68  1  0
 33 69  1  0
 34 70  1  0
 35 71  1  0
 38 72  1  0
M  CHG  1  35   1
M  END
>  <UniqueID>  (59) 
55

>  <SMILES>  (59) 
Cc1cc(Cc2cn(CC(=O)N3CCN(Cc4ccccc4)CC3)c(SCc3ccc(F)cc3)[nH+]c2=O)cnn1

>  <Energy>  (59) 
85.017026976697

>  <Genealogy>  (59) 
Cc1cc(Cc2cn(CC(=O)N3CCN(Cc4ccccc4)CC3)c(SCc3ccc(F)cc3)[nH+]c2=O)cnn1 (protonated)
Cc1cc(Cc2cn(CC(=O)N3CCN(Cc4ccccc4)CC3)c(SCc3ccc(F)cc3)[nH+]c2=O)cnn1 (3D coordinates assigned)
Cc1cc(Cc2cn(CC(=O)N3CCN(Cc4ccccc4)CC3)c(SCc3ccc(F)cc3)[nH+]c2=O)cnn1 (nonaromatic ring conformer: 85.017026976697 kcal/mol)

>  <smiles>  (59) 
Cc1cc(Cc2cn(CC(=O)N3CCN(Cc4ccccc4)CC3)c(SCc3ccc(F)cc3)nc2=O)cnn1

>  <score_type>  (59) 
oracle

>  <origin>  (59) 
adg

>  <m_score__min__energy>  (59) 
-9.5399999999999991

>  <m_primary>  (59) 
energy

$$$$
59:0
     RDKit          3D

 60 64  0  0  0  0  0  0  0  0999 V2000
   55.1470   29.4380   44.9850 N   0  0  0  0  0  0  0  0  0  0  0  0
   56.6250   29.6660   44.1180 S   0  0  0  0  0  0  0  0  0  0  0  0
   57.4880   28.4440   44.2640 O   0  0  0  0  0  0  0  0  0  0  0  0
   56.3050   29.8710   42.6610 O   0  0  0  0  0  0  0  0  0  0  0  0
   57.4770   31.0680   44.7530 C   0  0  0  0  0  0  0  0  0  0  0  0
   57.0130   32.3630   44.4870 C   0  0  0  0  0  0  0  0  0  0  0  0
   57.6850   33.4710   45.0090 C   0  0  0  0  0  0  0  0  0  0  0  0
   58.8280   33.2930   45.7910 C   0  0  0  0  0  0  0  0  0  0  0  0
   59.3240   32.0000   46.0380 C   0  0  0  0  0  0  0  0  0  0  0  0
   60.5040   31.8130   46.8400 N   0  0  0  0  0  0  0  0  0  0  0  0
   61.3660   32.7870   47.2050 C   0  0  0  0  0  0  0  0  0  0  0  0
   62.4220   32.2010   47.8740 C   0  0  0  0  0  0  0  0  0  0  0  0
   63.5800   32.8870   48.4780 C   0  0  0  0  0  0  0  0  0  0  0  0
   64.4130   33.4510   47.7180 O   0  0  0  0  0  0  0  0  0  0  0  0
   63.7690   32.9420   49.9040 N   0  0  0  0  0  0  0  0  0  0  0  0
   65.1290   32.9250   50.4600 C   0  0  0  0  0  0  0  0  0  0  0  0
   65.3890   34.2330   51.2090 C   0  0  0  0  0  0  0  0  0  0  0  0
   64.2920   34.5420   52.1450 N   0  0  0  0  0  0  0  0  0  0  0  0
   64.4630   35.5990   53.1180 C   0  0  0  0  0  0  0  0  0  0  0  0
   64.8740   36.8840   52.7150 C   0  0  0  0  0  0  0  0  0  0  0  0
   65.0470   37.9020   53.6600 C   0  0  0  0  0  0  0  0  0  0  0  0
   64.8180   37.6470   55.0150 C   0  0  0  0  0  0  0  0  0  0  0  0
   64.4090   36.3770   55.4270 C   0  0  0  0  0  0  0  0  0  0  0  0
   64.2270   35.3590   54.4850 C   0  0  0  0  0  0  0  0  0  0  0  0
   63.1020   33.6750   52.1920 C   0  0  0  0  0  0  0  0  0  0  0  0
   62.6400   33.3170   50.7720 C   0  0  0  0  0  0  0  0  0  0  0  0
   62.2080   30.8730   47.9490 N   0  0  0  0  0  0  0  0  0  0  0  0
   61.0390   30.6580   47.3110 C   0  0  0  0  0  0  0  0  0  0  0  0
   60.3950   29.3260   47.2400 C   0  0  0  0  0  0  0  0  0  0  0  0
   60.6250   28.4840   46.1370 C   0  0  0  0  0  0  0  0  0  0  0  0
   60.0160   27.2270   46.0690 C   0  0  0  0  0  0  0  0  0  0  0  0
   59.1650   26.8060   47.0930 C   0  0  0  0  0  0  0  0  0  0  0  0
   58.9220   27.6400   48.1880 C   0  0  0  0  0  0  0  0  0  0  0  0
   59.5280   28.8980   48.2640 C   0  0  0  0  0  0  0  0  0  0  0  0
   59.3030   29.6770   49.3530 F   0  0  0  0  0  0  0  0  0  0  0  0
   58.6320   30.8910   45.5280 C   0  0  0  0  0  0  0  0  0  0  0  0
   55.2900   28.6260   45.6300 H   0  0  0  0  0  0  0  0  0  0  0  0
   56.1171   32.5077   43.8654 H   0  0  0  0  0  0  0  0  0  0  0  0
   57.3130   34.4856   44.8036 H   0  0  0  0  0  0  0  0  0  0  0  0
   59.3427   34.1675   46.2157 H   0  0  0  0  0  0  0  0  0  0  0  0
   61.2470   33.8619   47.0038 H   0  0  0  0  0  0  0  0  0  0  0  0
   65.2308   32.0781   51.1545 H   0  0  0  0  0  0  0  0  0  0  0  0
   65.8581   32.8185   49.6433 H   0  0  0  0  0  0  0  0  0  0  0  0
   66.3277   34.1412   51.7750 H   0  0  0  0  0  0  0  0  0  0  0  0
   65.4565   35.0472   50.4724 H   0  0  0  0  0  0  0  0  0  0  0  0
   65.0604   37.0892   51.6505 H   0  0  0  0  0  0  0  0  0  0  0  0
   65.3637   38.9043   53.3357 H   0  0  0  0  0  0  0  0  0  0  0  0
   64.9600   38.4467   55.7568 H   0  0  0  0  0  0  0  0  0  0  0  0
   64.2297   36.1768   56.4937 H   0  0  0  0  0  0  0  0  0  0  0  0
   63.8968   34.3630   54.8150 H   0  0  0  0  0  0  0  0  0  0  0  0
   63.3486   32.7513   52.7360 H   0  0  0  0  0  0  0  0  0  0  0  0
   62.2907   34.2125   52.7048 H   0  0  0  0  0  0  0  0  0  0  0  0
   61.9393   32.4710   50.8290 H   0  0  0  0  0  0  0  0  0  0  0  0
   62.1568   34.2045   50.3374 H   0  0  0  0  0  0  0  0  0  0  0  0
   62.8070   30.1640   48.4290 H   0  0  0  0  0  0  0  0  0  0  0  0
   61.2872   28.8160   45.3238 H   0  0  0  0  0  0  0  0  0  0  0  0
   60.2074   26.5694   45.2083 H   0  0  0  0  0  0  0  0  0  0  0  0
   58.6856   25.8175   47.0378 H   0  0  0  0  0  0  0  0  0  0  0  0
   58.2514   27.3055   48.9932 H   0  0  0  0  0  0  0  0  0  0  0  0
   58.9983   29.8752   45.7377 H   0  0  0  0  0  0  0  0  0  0  0  0
  1  2  1  0
  2  3  2  0
  2  4  2  0
  2  5  1  0
  5  6  2  0
  6  7  1  0
  7  8  2  0
  8  9  1  0
  9 10  1  0
 10 11  1  0
 11 12  2  0
 12 13  1  0
 13 14  2  0
 13 15  1  0
 15 16  1  0
 16 17  1  0
 17 18  1  0
 18 19  1  0
 19 20  2  0
 20 21  1  0
 21 22  2  0
 22 23  1  0
 23 24  2  0
 18 25  1  0
 25 26  1  0
 12 27  1  0
 27 28  2  0
 28 29  1  0
 29 30  2  0
 30 31  1  0
 31 32  2  0
 32 33  1  0
 33 34  2  0
 34 35  1  0
  9 36  2  0
 36  5  1  0
 28 10  1  0
 34 29  1  0
 26 15  1  0
 24 19  1  0
  1 37  1  0
  6 38  1  0
  7 39  1  0
  8 40  1  0
 11 41  1  0
 16 42  1  0
 16 43  1  0
 17 44  1  0
 17 45  1  0
 20 46  1  0
 21 47  1  0
 22 48  1  0
 23 49  1  0
 24 50  1  0
 25 51  1  0
 25 52  1  0
 26 53  1  0
 26 54  1  0
 27 55  1  0
 30 56  1  0
 31 57  1  0
 32 58  1  0
 33 59  1  0
 36 60  1  0
M  CHG  2   1  -1  27   1
M  END
>  <UniqueID>  (60) 
56

>  <SMILES>  (60) 
[NH-]S(=O)(=O)c1cccc(-n2cc(C(=O)N3CCN(c4ccccc4)CC3)[nH+]c2-c2ccccc2F)c1

>  <Energy>  (60) 
113.49226756961545

>  <Genealogy>  (60) 
[NH-]S(=O)(=O)c1cccc(-n2cc(C(=O)N3CCN(c4ccccc4)CC3)[nH+]c2-c2ccccc2F)c1 (protonated)
[NH-]S(=O)(=O)c1cccc(-n2cc(C(=O)N3CCN(c4ccccc4)CC3)[nH+]c2-c2ccccc2F)c1 (3D coordinates assigned)
[NH-]S(=O)(=O)c1cccc(-n2cc(C(=O)N3CCN(c4ccccc4)CC3)[nH+]c2-c2ccccc2F)c1 (nonaromatic ring conformer: 113.49226756961545 kcal/mol)

>  <smiles>  (60) 
NS(=O)(=O)c1cccc(-n2cc(C(=O)N3CCN(c4ccccc4)CC3)nc2-c2ccccc2F)c1

>  <score_type>  (60) 
oracle

>  <origin>  (60) 
adg

>  <m_score__min__energy>  (60) 
-11.279999999999999

>  <m_primary>  (60) 
energy

$$$$
60:0
     RDKit          3D

 50 54  0  0  0  0  0  0  0  0999 V2000
   59.2660   27.3470   48.1360 O   0  0  0  0  0  0  0  0  0  0  0  0
   59.5380   28.4950   48.4510 C   0  0  0  0  0  0  0  0  0  0  0  0
   58.5500   29.2540   49.3200 C   0  0  0  0  0  0  0  0  0  0  0  0
   59.2110   30.4390   49.9420 C   0  0  0  0  0  0  0  0  0  0  0  0
   60.5390   30.7600   49.7720 C   0  0  0  0  0  0  0  0  0  0  0  0
   60.8750   31.8620   50.4800 N   0  0  0  0  0  0  0  0  0  0  0  0
   59.7350   32.2500   51.0870 C   0  0  0  0  0  0  0  0  0  0  0  0
   59.5580   33.3420   51.9350 C   0  0  0  0  0  0  0  0  0  0  0  0
   58.2740   33.5560   52.4710 C   0  0  0  0  0  0  0  0  0  0  0  0
   57.2090   32.6830   52.1540 C   0  0  0  0  0  0  0  0  0  0  0  0
   57.4160   31.5860   51.2980 C   0  0  0  0  0  0  0  0  0  0  0  0
   58.6960   31.4020   50.7800 C   0  0  0  0  0  0  0  0  0  0  0  0
   61.4750   29.9000   48.9820 C   0  0  0  0  0  0  0  0  0  0  0  0
   60.7570   29.1190   47.9410 N   0  0  2  0  0  0  0  0  0  0  0  0
   60.4510   29.9480   46.7870 C   0  0  0  0  0  0  0  0  0  0  0  0
   61.0660   29.7770   45.7420 O   0  0  0  0  0  0  0  0  0  0  0  0
   59.3880   31.0420   46.8140 C   0  0  1  0  0  0  0  0  0  0  0  0
   59.8980   32.4650   46.4550 C   0  0  0  0  0  0  0  0  0  0  0  0
   60.9850   33.0280   47.3440 C   0  0  0  0  0  0  0  0  0  0  0  0
   60.6810   33.9750   48.3380 C   0  0  0  0  0  0  0  0  0  0  0  0
   61.6940   34.5040   49.1450 C   0  0  0  0  0  0  0  0  0  0  0  0
   63.0200   34.1100   48.9520 C   0  0  0  0  0  0  0  0  0  0  0  0
   63.3370   33.1960   47.9440 C   0  0  0  0  0  0  0  0  0  0  0  0
   62.3280   32.6670   47.1350 C   0  0  0  0  0  0  0  0  0  0  0  0
   58.1710   30.6520   46.0790 N   0  0  0  0  0  0  0  0  0  0  0  0
   57.4930   29.4890   46.1300 C   0  0  0  0  0  0  0  0  0  0  0  0
   56.4480   29.5760   45.2430 C   0  0  0  0  0  0  0  0  0  0  0  0
   55.5200   28.5720   44.9960 O   0  0  0  0  0  0  0  0  0  0  0  0
   56.4410   30.7700   44.6210 N   0  0  0  0  0  0  0  0  0  0  0  0
   57.5100   31.3920   45.1580 C   0  0  0  0  0  0  0  0  0  0  0  0
   57.8590   32.5550   44.8200 O   0  0  0  0  0  0  0  0  0  0  0  0
   57.7069   29.5927   48.6999 H   0  0  0  0  0  0  0  0  0  0  0  0
   58.1881   28.5871   50.1164 H   0  0  0  0  0  0  0  0  0  0  0  0
   61.8170   32.3090   50.5500 H   0  0  0  0  0  0  0  0  0  0  0  0
   60.3941   34.0144   52.1774 H   0  0  0  0  0  0  0  0  0  0  0  0
   58.0983   34.4097   53.1420 H   0  0  0  0  0  0  0  0  0  0  0  0
   56.2107   32.8625   52.5797 H   0  0  0  0  0  0  0  0  0  0  0  0
   56.5958   30.8976   51.0465 H   0  0  0  0  0  0  0  0  0  0  0  0
   62.2228   30.5420   48.4936 H   0  0  0  0  0  0  0  0  0  0  0  0
   61.9551   29.1911   49.6726 H   0  0  0  0  0  0  0  0  0  0  0  0
   61.4020   28.3550   47.6440 H   0  0  0  0  0  0  0  0  0  0  0  0
   59.1053   31.1351   47.8730 H   0  0  0  0  0  0  0  0  0  0  0  0
   60.2882   32.4324   45.4271 H   0  0  0  0  0  0  0  0  0  0  0  0
   59.0328   33.1309   46.5895 H   0  0  0  0  0  0  0  0  0  0  0  0
   59.6406   34.3018   48.4819 H   0  0  0  0  0  0  0  0  0  0  0  0
   61.4459   35.2310   49.9323 H   0  0  0  0  0  0  0  0  0  0  0  0
   63.8145   34.5192   49.5934 H   0  0  0  0  0  0  0  0  0  0  0  0
   64.3825   32.8924   47.7870 H   0  0  0  0  0  0  0  0  0  0  0  0
   62.5858   31.9637   46.3295 H   0  0  0  0  0  0  0  0  0  0  0  0
   57.7331   28.6252   46.7673 H   0  0  0  0  0  0  0  0  0  0  0  0
  1  2  2  0
  2  3  1  0
  3  4  1  0
  4  5  2  0
  5  6  1  0
  6  7  1  0
  7  8  2  0
  8  9  1  0
  9 10  2  0
 10 11  1  0
 11 12  2  0
  5 13  1  0
 13 14  1  0
 14 15  1  0
 15 16  2  0
 15 17  1  0
 17 18  1  0
 18 19  1  0
 19 20  2  0
 20 21  1  0
 21 22  2  0
 22 23  1  0
 23 24  2  0
 17 25  1  0
 25 26  1  0
 26 27  2  0
 27 28  1  0
 27 29  1  0
 29 30  1  0
 30 31  2  0
 14  2  1  0
 24 19  1  0
 30 25  1  0
 12  4  1  0
 12  7  1  0
  3 32  1  0
  3 33  1  0
  6 34  1  0
  8 35  1  0
  9 36  1  0
 10 37  1  0
 11 38  1  0
 13 39  1  0
 13 40  1  0
 14 41  1  6
 17 42  1  1
 18 43  1  0
 18 44  1  0
 20 45  1  0
 21 46  1  0
 22 47  1  0
 23 48  1  0
 24 49  1  0
 26 50  1  0
M  CHG  3  14   1  28  -1  29  -1
M  END
>  <UniqueID>  (61) 
57

>  <SMILES>  (61) 
O=C1Cc2c([nH]c3ccccc23)C[N@@H+]1C(=O)[C@@H](Cc1ccccc1)n1cc([O-])[n-]c1=O

>  <Energy>  (61) 
131.7409524846549

>  <Genealogy>  (61) 
O=C1Cc2c([nH]c3ccccc23)C[NH+]1C(=O)C(Cc1ccccc1)n1cc([O-])[n-]c1=O (protonated)
O=C1Cc2c([nH]c3ccccc23)C[N@@H+]1C(=O)[C@@H](Cc1ccccc1)n1cc([O-])[n-]c1=O (chirality)
O=C1Cc2c([nH]c3ccccc23)C[N@@H+]1C(=O)[C@@H](Cc1ccccc1)n1cc([O-])[n-]c1=O (3D coordinates assigned)
O=C1Cc2c([nH]c3ccccc23)C[N@@H+]1C(=O)[C@@H](Cc1ccccc1)n1cc([O-])[n-]c1=O (nonaromatic ring conformer: 131.7409524846549 kcal/mol)

>  <smiles>  (61) 
O=C1Cc2c([nH]c3ccccc23)CN1C(=O)C(Cc1ccccc1)n1cc(O)[nH]c1=O

>  <score_type>  (61) 
oracle

>  <origin>  (61) 
adg

>  <m_score__min__energy>  (61) 
-11.800000000000001

>  <m_primary>  (61) 
energy

$$$$
61:0
     RDKit          3D

 48 51  0  0  0  0  0  0  0  0999 V2000
   56.9973   31.2766   41.3928 H   0  0  0  0  0  0  0  0  0  0  0  0
   57.0340   31.2080   42.4900 C   0  0  0  0  0  0  0  0  0  0  0  0
   56.5730   30.0950   43.1170 N   0  0  0  0  0  0  0  0  0  0  0  0
   56.6100   29.9860   44.4730 C   0  0  0  0  0  0  0  0  0  0  0  0
   56.1410   28.9340   45.0810 N   0  0  0  0  0  0  0  0  0  0  0  0
   56.8760   27.7610   45.4700 C   0  0  0  0  0  0  0  0  0  0  0  0
   56.2700   26.6960   46.1650 C   0  0  0  0  0  0  0  0  0  0  0  0
   55.2100   26.7605   46.4519 H   0  0  0  0  0  0  0  0  0  0  0  0
   57.0130   25.5570   46.4910 C   0  0  0  0  0  0  0  0  0  0  0  0
   56.5400   24.7338   47.0466 H   0  0  0  0  0  0  0  0  0  0  0  0
   58.3540   25.4620   46.1130 C   0  0  0  0  0  0  0  0  0  0  0  0
   58.9390   24.5695   46.3799 H   0  0  0  0  0  0  0  0  0  0  0  0
   58.9530   26.5020   45.3950 C   0  0  0  0  0  0  0  0  0  0  0  0
   60.0064   26.4231   45.0883 H   0  0  0  0  0  0  0  0  0  0  0  0
   58.2130   27.6420   45.0670 C   0  0  0  0  0  0  0  0  0  0  0  0
   58.6834   28.4509   44.4887 H   0  0  0  0  0  0  0  0  0  0  0  0
   57.1060   31.0110   45.2150 N   0  0  0  0  0  0  0  0  0  0  0  0
   57.5940   32.1420   44.6340 C   0  0  0  0  0  0  0  0  0  0  0  0
   58.0900   33.2110   45.4610 N   0  0  0  0  0  0  0  0  0  0  0  0
   57.6450   33.3850   46.8480 C   0  0  0  0  0  0  0  0  0  0  0  0
   57.0986   32.4856   47.1682 H   0  0  0  0  0  0  0  0  0  0  0  0
   56.9899   34.2669   46.9031 H   0  0  0  0  0  0  0  0  0  0  0  0
   58.8530   33.6030   47.7800 C   0  0  0  0  0  0  0  0  0  0  0  0
   59.1739   32.6238   48.1650 H   0  0  0  0  0  0  0  0  0  0  0  0
   58.5207   34.2838   48.5776 H   0  0  0  0  0  0  0  0  0  0  0  0
   60.0190   34.2510   47.1190 N   0  0  0  0  0  0  0  0  0  0  0  0
   61.0810   33.2820   46.7690 C   0  0  0  0  0  0  0  0  0  0  0  0
   62.0288   33.6006   47.2275 H   0  0  0  0  0  0  0  0  0  0  0  0
   61.1863   33.2453   45.6747 H   0  0  0  0  0  0  0  0  0  0  0  0
   60.7210   31.9090   47.2740 C   0  0  0  0  0  0  0  0  0  0  0  0
   60.1090   30.9840   46.4110 C   0  0  0  0  0  0  0  0  0  0  0  0
   59.8873   31.2674   45.3715 H   0  0  0  0  0  0  0  0  0  0  0  0
   59.7810   29.7040   46.8700 C   0  0  0  0  0  0  0  0  0  0  0  0
   59.3012   28.9835   46.1913 H   0  0  0  0  0  0  0  0  0  0  0  0
   60.0620   29.3390   48.1900 C   0  0  0  0  0  0  0  0  0  0  0  0
   59.7450   28.0980   48.6330 F   0  0  0  0  0  0  0  0  0  0  0  0
   60.6730   30.2540   49.0530 C   0  0  0  0  0  0  0  0  0  0  0  0
   60.8954   29.9658   50.0910 H   0  0  0  0  0  0  0  0  0  0  0  0
   61.0020   31.5360   48.5980 C   0  0  0  0  0  0  0  0  0  0  0  0
   61.4821   32.2534   49.2797 H   0  0  0  0  0  0  0  0  0  0  0  0
   59.6260   35.0830   45.9620 C   0  0  0  0  0  0  0  0  0  0  0  0
   60.5242   35.5600   45.5428 H   0  0  0  0  0  0  0  0  0  0  0  0
   58.9072   35.8400   46.3087 H   0  0  0  0  0  0  0  0  0  0  0  0
   58.9500   34.2400   44.8670 C   0  0  0  0  0  0  0  0  0  0  0  0
   59.7247   33.7542   44.2556 H   0  0  0  0  0  0  0  0  0  0  0  0
   58.3306   34.9016   44.2436 H   0  0  0  0  0  0  0  0  0  0  0  0
   57.5540   32.2640   43.2380 C   0  0  0  0  0  0  0  0  0  0  0  0
   57.9250   33.1736   42.7430 H   0  0  0  0  0  0  0  0  0  0  0  0
  1  2  1  0
  2  3  1  0
  3  4  1  0
  4  5  2  0
  5  6  1  0
  6  7  2  0
  7  8  1  0
  7  9  1  0
  9 10  1  0
  9 11  2  0
 11 12  1  0
 11 13  1  0
 13 14  1  0
 13 15  2  0
 15 16  1  0
  4 17  1  0
 17 18  2  0
 18 19  1  0
 19 20  1  0
 20 21  1  0
 20 22  1  0
 20 23  1  0
 23 24  1  0
 23 25  1  0
 23 26  1  0
 26 27  1  0
 27 28  1  0
 27 29  1  0
 27 30  1  0
 30 31  2  0
 31 32  1  0
 31 33  1  0
 33 34  1  0
 33 35  2  0
 35 36  1  0
 35 37  1  0
 37 38  1  0
 37 39  2  0
 39 40  1  0
 26 41  1  0
 41 42  1  0
 41 43  1  0
 41 44  1  0
 44 45  1  0
 44 46  1  0
 18 47  1  0
 47 48  1  0
 47  2  2  0
 15  6  1  0
 44 19  1  0
 39 30  1  0
M  CHG  1   3  -1
M  END
>  <UniqueID>  (62) 
58

>  <SMILES>  (62) 
Fc1ccc(CN2CCN(c3cc[n-]/c(=N\c4ccccc4)n3)CC2)cc1

>  <Energy>  (62) 
69.79654427992351

>  <Genealogy>  (62) 
Fc1ccc(CN2CCN(c3cc[n-]c(=Nc4ccccc4)n3)CC2)cc1 (protonated)
Fc1ccc(CN2CCN(c3cc[n-]/c(=N\c4ccccc4)n3)CC2)cc1 (cis-trans isomerization)
Fc1ccc(CN2CCN(c3cc[n-]/c(=N\c4ccccc4)n3)CC2)cc1 (3D coordinates assigned)
Fc1ccc(CN2CCN(c3cc[n-]/c(=N\c4ccccc4)n3)CC2)cc1 (nonaromatic ring conformer: 69.79654427992351 kcal/mol)

>  <smiles>  (62) 
Fc1ccc(CN2CCN(c3cc[nH]c(=Nc4ccccc4)n3)CC2)cc1

>  <score_type>  (62) 
oracle

>  <origin>  (62) 
adg

>  <m_score__min__energy>  (62) 
-10.77

>  <m_primary>  (62) 
energy

$$$$
62:0
     RDKit          3D

 61 64  0  0  0  0  0  0  0  0999 V2000
   60.7430   29.7170   46.1860 C   0  0  0  0  0  0  0  0  0  0  0  0
   59.7410   30.5710   45.6440 O   0  0  0  0  0  0  0  0  0  0  0  0
   58.4570   30.1520   45.2570 C   0  0  0  0  0  0  0  0  0  0  0  0
   57.9740   28.8670   45.5770 C   0  0  0  0  0  0  0  0  0  0  0  0
   56.6860   28.4790   45.1950 C   0  0  0  0  0  0  0  0  0  0  0  0
   55.8690   29.3620   44.4890 C   0  0  0  0  0  0  0  0  0  0  0  0
   56.3360   30.6360   44.1620 C   0  0  0  0  0  0  0  0  0  0  0  0
   57.6280   31.0420   44.5360 C   0  0  0  0  0  0  0  0  0  0  0  0
   58.0840   32.4360   44.1820 C   0  0  0  0  0  0  0  0  0  0  0  0
   57.7470   33.3770   45.2730 N   0  0  0  0  0  0  0  0  0  0  0  0
   58.5080   34.6360   45.1800 C   0  0  0  0  0  0  0  0  0  0  0  0
   60.0060   34.4330   45.4660 C   0  0  0  0  0  0  0  0  0  0  0  0
   60.3060   33.3980   46.5960 C   0  0  0  0  0  0  0  0  0  0  0  0
   61.5140   33.8000   47.3930 N   0  0  2  0  0  0  0  0  0  0  0  0
   62.6460   32.8790   47.1090 C   0  0  0  0  0  0  0  0  0  0  0  0
   63.9370   33.3860   47.7530 C   0  0  0  0  0  0  0  0  0  0  0  0
   63.7580   33.5450   49.1950 N   0  0  0  0  0  0  0  0  0  0  0  0
   64.8910   33.3340   50.1050 C   0  0  0  0  0  0  0  0  0  0  0  0
   64.8400   31.9410   50.6700 C   0  0  0  0  0  0  0  0  0  0  0  0
   63.6190   31.2490   50.7630 C   0  0  0  0  0  0  0  0  0  0  0  0
   63.5880   29.9370   51.2450 C   0  0  0  0  0  0  0  0  0  0  0  0
   64.7740   29.3030   51.6300 C   0  0  0  0  0  0  0  0  0  0  0  0
   65.9920   29.9820   51.5340 C   0  0  0  0  0  0  0  0  0  0  0  0
   66.0280   31.2940   51.0550 C   0  0  0  0  0  0  0  0  0  0  0  0
   62.4770   33.9610   49.6990 C   0  0  0  0  0  0  0  0  0  0  0  0
   62.3640   34.3780   50.8820 O   0  0  0  0  0  0  0  0  0  0  0  0
   61.2360   33.8140   48.8550 C   0  0  0  0  0  0  0  0  0  0  0  0
   59.0370   33.2080   47.4660 C   0  0  0  0  0  0  0  0  0  0  0  0
   57.8210   32.7620   46.6220 C   0  0  0  0  0  0  0  0  0  0  0  0
   60.7006   29.7532   47.2846 H   0  0  0  0  0  0  0  0  0  0  0  0
   60.5687   28.6855   45.8461 H   0  0  0  0  0  0  0  0  0  0  0  0
   61.7339   30.0526   45.8461 H   0  0  0  0  0  0  0  0  0  0  0  0
   58.6145   28.1648   46.1309 H   0  0  0  0  0  0  0  0  0  0  0  0
   56.3163   27.4753   45.4518 H   0  0  0  0  0  0  0  0  0  0  0  0
   54.8562   29.0542   44.1898 H   0  0  0  0  0  0  0  0  0  0  0  0
   55.6866   31.3285   43.6064 H   0  0  0  0  0  0  0  0  0  0  0  0
   59.1731   32.4337   44.0278 H   0  0  0  0  0  0  0  0  0  0  0  0
   57.5747   32.7570   43.2614 H   0  0  0  0  0  0  0  0  0  0  0  0
   58.3935   35.0449   44.1653 H   0  0  0  0  0  0  0  0  0  0  0  0
   58.1105   35.3272   45.9378 H   0  0  0  0  0  0  0  0  0  0  0  0
   60.4899   34.0847   44.5415 H   0  0  0  0  0  0  0  0  0  0  0  0
   60.3965   35.4015   45.8118 H   0  0  0  0  0  0  0  0  0  0  0  0
   60.5551   32.4230   46.1518 H   0  0  0  0  0  0  0  0  0  0  0  0
   61.7860   34.7720   47.1090 H   0  0  0  0  0  0  0  0  0  0  0  0
   62.4097   31.8830   47.5118 H   0  0  0  0  0  0  0  0  0  0  0  0
   62.7930   32.8282   46.0200 H   0  0  0  0  0  0  0  0  0  0  0  0
   64.7441   32.6626   47.5654 H   0  0  0  0  0  0  0  0  0  0  0  0
   64.1951   34.3617   47.3155 H   0  0  0  0  0  0  0  0  0  0  0  0
   65.8327   33.4696   49.5528 H   0  0  0  0  0  0  0  0  0  0  0  0
   64.8352   34.0614   50.9282 H   0  0  0  0  0  0  0  0  0  0  0  0
   62.6850   31.7419   50.4553 H   0  0  0  0  0  0  0  0  0  0  0  0
   62.6296   29.4025   51.3216 H   0  0  0  0  0  0  0  0  0  0  0  0
   64.7481   28.2704   52.0082 H   0  0  0  0  0  0  0  0  0  0  0  0
   66.9242   29.4823   51.8362 H   0  0  0  0  0  0  0  0  0  0  0  0
   66.9894   31.8231   50.9787 H   0  0  0  0  0  0  0  0  0  0  0  0
   60.7406   32.8697   49.1248 H   0  0  0  0  0  0  0  0  0  0  0  0
   60.6006   34.6891   49.0565 H   0  0  0  0  0  0  0  0  0  0  0  0
   59.2403   32.4423   48.2291 H   0  0  0  0  0  0  0  0  0  0  0  0
   58.7937   34.1753   47.9299 H   0  0  0  0  0  0  0  0  0  0  0  0
   57.8704   31.6700   46.4991 H   0  0  0  0  0  0  0  0  0  0  0  0
   56.9247   33.0945   47.1661 H   0  0  0  0  0  0  0  0  0  0  0  0
  1  2  1  0
  2  3  1  0
  3  4  2  0
  4  5  1  0
  5  6  2  0
  6  7  1  0
  7  8  2  0
  8  9  1  0
  9 10  1  0
 10 11  1  0
 11 12  1  0
 12 13  1  0
 13 14  1  0
 14 15  1  0
 15 16  1  0
 16 17  1  0
 17 18  1  0
 18 19  1  0
 19 20  2  0
 20 21  1  0
 21 22  2  0
 22 23  1  0
 23 24  2  0
 17 25  1  0
 25 26  2  0
 25 27  1  0
 13 28  1  0
 28 29  1  0
  8  3  1  0
 29 10  1  0
 27 14  1  0
 24 19  1  0
  1 30  1  0
  1 31  1  0
  1 32  1  0
  4 33  1  0
  5 34  1  0
  6 35  1  0
  7 36  1  0
  9 37  1  0
  9 38  1  0
 11 39  1  0
 11 40  1  0
 12 41  1  0
 12 42  1  0
 13 43  1  0
 14 44  1  6
 15 45  1  0
 15 46  1  0
 16 47  1  0
 16 48  1  0
 18 49  1  0
 18 50  1  0
 20 51  1  0
 21 52  1  0
 22 53  1  0
 23 54  1  0
 24 55  1  0
 27 56  1  0
 27 57  1  0
 28 58  1  0
 28 59  1  0
 29 60  1  0
 29 61  1  0
M  CHG  1  14   1
M  END
>  <UniqueID>  (63) 
59

>  <SMILES>  (63) 
COc1ccccc1CN1CCC([N@@H+]2CCN(Cc3ccccc3)C(=O)C2)CC1

>  <Energy>  (63) 
79.15603028115663

>  <Genealogy>  (63) 
COc1ccccc1CN1CCC([NH+]2CCN(Cc3ccccc3)C(=O)C2)CC1 (protonated)
COc1ccccc1CN1CCC([N@@H+]2CCN(Cc3ccccc3)C(=O)C2)CC1 (chirality)
COc1ccccc1CN1CCC([N@@H+]2CCN(Cc3ccccc3)C(=O)C2)CC1 (3D coordinates assigned)
COc1ccccc1CN1CCC([N@@H+]2CCN(Cc3ccccc3)C(=O)C2)CC1 (nonaromatic ring conformer: 79.15603028115663 kcal/mol)

>  <smiles>  (63) 
COc1ccccc1CN1CCC(N2CCN(Cc3ccccc3)C(=O)C2)CC1

>  <score_type>  (63) 
oracle

>  <origin>  (63) 
adg

>  <m_score__min__energy>  (63) 
-7.0199999999999996

>  <m_primary>  (63) 
energy

$$$$
63:0
     RDKit          3D

 19 20  0  0  0  0  0  0  0  0999 V2000
   54.7650   27.0890   45.0860 H   0  0  0  0  0  0  0  0  0  0  0  0
   54.8430   26.6390   45.9890 O   0  0  0  0  0  0  0  0  0  0  0  0
   55.9240   25.8250   46.3200 C   0  0  0  0  0  0  0  0  0  0  0  0
   55.8180   24.7740   47.1500 N   0  0  0  0  0  0  0  0  0  0  0  0
   57.0760   24.2890   47.1810 C   0  0  0  0  0  0  0  0  0  0  0  0
   57.3980   23.2810   47.8620 O   0  0  0  0  0  0  0  0  0  0  0  0
   57.9630   24.9690   46.4260 N   0  0  0  0  0  0  0  0  0  0  0  0
   57.2260   25.9520   45.8750 C   0  0  0  0  0  0  0  0  0  0  0  0
   57.7420   26.9870   44.9490 C   0  0  0  0  0  0  0  0  0  0  0  0
   58.0861   26.6571   43.9576 H   0  0  0  0  0  0  0  0  0  0  0  0
   57.8210   28.2990   45.2300 C   0  0  0  0  0  0  0  0  0  0  0  0
   59.1970   29.1730   45.6790 S   0  0  0  0  0  0  0  0  0  0  0  0
   58.3660   30.6290   45.8110 C   0  0  0  0  0  0  0  0  0  0  0  0
   58.9170   31.7880   46.1550 C   0  0  0  0  0  0  0  0  0  0  0  0
   59.9925   31.8405   46.3798 H   0  0  0  0  0  0  0  0  0  0  0  0
   58.2977   32.6951   46.2150 H   0  0  0  0  0  0  0  0  0  0  0  0
   57.0550   30.4860   45.5210 N   0  0  0  0  0  0  0  0  0  0  0  0
   56.7510   29.1990   45.2010 C   0  0  0  0  0  0  0  0  0  0  0  0
   55.5740   28.8620   44.9000 O   0  0  0  0  0  0  0  0  0  0  0  0
  1  2  1  0
  2  3  1  0
  3  4  1  0
  4  5  1  0
  5  6  2  0
  5  7  1  0
  7  8  1  0
  8  9  1  0
  9 10  1  0
  9 11  2  0
 11 12  1  0
 12 13  1  0
 13 14  2  0
 14 15  1  0
 14 16  1  0
 13 17  1  0
 17 18  1  0
 18 19  2  0
  8  3  2  0
 18 11  1  0
M  CHG  3   4  -1   7  -1  17  -1
M  END
>  <UniqueID>  (64) 
60

>  <SMILES>  (64) 
C=c1[n-]c(=O)/c(=C/c2[n-]c(=O)[n-]c2O)s1

>  <Energy>  (64) 
80.86419347880512

>  <Genealogy>  (64) 
C=c1[n-]c(=O)c(=Cc2[n-]c(=O)[n-]c2O)s1 (protonated)
C=c1[n-]c(=O)/c(=C/c2[n-]c(=O)[n-]c2O)s1 (cis-trans isomerization)
C=c1[n-]c(=O)/c(=C/c2[n-]c(=O)[n-]c2O)s1 (3D coordinates assigned)
C=c1[n-]c(=O)/c(=C/c2[n-]c(=O)[n-]c2O)s1 (optimized conformer: 80.86419347880512 kcal/mol)

>  <smiles>  (64) 
C=c1[nH]c(=O)c(=Cc2[nH]c(=O)[nH]c2O)s1

>  <score_type>  (64) 
oracle

>  <origin>  (64) 
adg

>  <m_score__min__energy>  (64) 
-12.19

>  <m_primary>  (64) 
energy

$$$$
64:0
     RDKit          3D

 37 39  0  0  0  0  0  0  0  0999 V2000
   57.5140   30.8820   42.9110 O   0  0  0  0  0  0  0  0  0  0  0  0
   57.2990   30.7030   44.1390 C   0  0  0  0  0  0  0  0  0  0  0  0
   56.9290   31.8320   44.9410 N   0  0  0  0  0  0  0  0  0  0  0  0
   57.7870   32.5410   45.8480 C   0  0  0  0  0  0  0  0  0  0  0  0
   58.0830   33.9040   45.6690 C   0  0  0  0  0  0  0  0  0  0  0  0
   58.9200   34.5670   46.5710 C   0  0  0  0  0  0  0  0  0  0  0  0
   59.4540   33.8830   47.6750 C   0  0  0  0  0  0  0  0  0  0  0  0
   60.3970   34.5830   48.6150 C   0  0  0  0  0  0  0  0  0  0  0  0
   61.7830   34.0170   48.4740 C   0  0  0  0  0  0  0  0  0  0  0  0
   62.2780   33.6550   47.2110 C   0  0  0  0  0  0  0  0  0  0  0  0
   63.5820   33.1680   47.0980 C   0  0  0  0  0  0  0  0  0  0  0  0
   64.3680   33.0560   48.2020 N   0  0  0  0  0  0  0  0  0  0  0  0
   63.9180   33.4080   49.4360 C   0  0  0  0  0  0  0  0  0  0  0  0
   62.6200   33.9000   49.5940 C   0  0  0  0  0  0  0  0  0  0  0  0
   59.1450   32.5270   47.8600 C   0  0  0  0  0  0  0  0  0  0  0  0
   58.3060   31.8660   46.9580 C   0  0  0  0  0  0  0  0  0  0  0  0
   57.3810   29.3330   44.6980 C   0  0  0  0  0  0  0  0  0  0  0  0
   58.6260   28.6980   44.8710 C   0  0  0  0  0  0  0  0  0  0  0  0
   58.6920   27.4050   45.3990 C   0  0  0  0  0  0  0  0  0  0  0  0
   57.5220   26.7380   45.7690 C   0  0  0  0  0  0  0  0  0  0  0  0
   56.2820   27.3650   45.6180 C   0  0  0  0  0  0  0  0  0  0  0  0
   55.1200   26.7030   45.9930 O   0  0  0  0  0  0  0  0  0  0  0  0
   56.2110   28.6580   45.0890 C   0  0  0  0  0  0  0  0  0  0  0  0
   57.6543   34.4504   44.8160 H   0  0  0  0  0  0  0  0  0  0  0  0
   59.1614   35.6289   46.4154 H   0  0  0  0  0  0  0  0  0  0  0  0
   60.4168   35.6569   48.3775 H   0  0  0  0  0  0  0  0  0  0  0  0
   60.0511   34.4342   49.6485 H   0  0  0  0  0  0  0  0  0  0  0  0
   61.6438   33.7542   46.3177 H   0  0  0  0  0  0  0  0  0  0  0  0
   63.9744   32.8742   46.1132 H   0  0  0  0  0  0  0  0  0  0  0  0
   64.5768   33.3052   50.3109 H   0  0  0  0  0  0  0  0  0  0  0  0
   62.2566   34.1937   50.5898 H   0  0  0  0  0  0  0  0  0  0  0  0
   59.5646   31.9817   48.7183 H   0  0  0  0  0  0  0  0  0  0  0  0
   58.0523   30.8083   47.1221 H   0  0  0  0  0  0  0  0  0  0  0  0
   59.5513   29.2219   44.5893 H   0  0  0  0  0  0  0  0  0  0  0  0
   59.6675   26.9120   45.5232 H   0  0  0  0  0  0  0  0  0  0  0  0
   57.5764   25.7189   46.1794 H   0  0  0  0  0  0  0  0  0  0  0  0
   55.2334   29.1500   44.9781 H   0  0  0  0  0  0  0  0  0  0  0  0
  1  2  2  0
  2  3  1  0
  3  4  1  0
  4  5  2  0
  5  6  1  0
  6  7  2  0
  7  8  1  0
  8  9  1  0
  9 10  2  0
 10 11  1  0
 11 12  2  0
 12 13  1  0
 13 14  2  0
  7 15  1  0
 15 16  2  0
  2 17  1  0
 17 18  2  0
 18 19  1  0
 19 20  2  0
 20 21  1  0
 21 22  1  0
 21 23  2  0
 16  4  1  0
 23 17  1  0
 14  9  1  0
  5 24  1  0
  6 25  1  0
  8 26  1  0
  8 27  1  0
 10 28  1  0
 11 29  1  0
 13 30  1  0
 14 31  1  0
 15 32  1  0
 16 33  1  0
 18 34  1  0
 19 35  1  0
 20 36  1  0
 23 37  1  0
M  CHG  2   3  -1  22  -1
M  END
>  <UniqueID>  (65) 
61

>  <SMILES>  (65) 
O=C([N-]c1ccc(Cc2ccncc2)cc1)c1cccc([O-])c1

>  <Energy>  (65) 
46.05822505662106

>  <Genealogy>  (65) 
O=C([N-]c1ccc(Cc2ccncc2)cc1)c1cccc([O-])c1 (protonated)
O=C([N-]c1ccc(Cc2ccncc2)cc1)c1cccc([O-])c1 (3D coordinates assigned)
O=C([N-]c1ccc(Cc2ccncc2)cc1)c1cccc([O-])c1 (optimized conformer: 46.05822505662106 kcal/mol)

>  <smiles>  (65) 
O=C(Nc1ccc(Cc2ccncc2)cc1)c1cccc(O)c1

>  <score_type>  (65) 
oracle

>  <origin>  (65) 
adg

>  <m_score__min__energy>  (65) 
-12.83

>  <m_primary>  (65) 
energy

$$$$
65:0
     RDKit          3D

 64 68  0  0  0  0  0  0  0  0999 V2000
   56.5976   21.7867   41.5835 H   0  0  0  0  0  0  0  0  0  0  0  0
   56.6480   22.1400   42.6240 C   0  0  0  0  0  0  0  0  0  0  0  0
   55.9000   23.2500   43.0220 C   0  0  0  0  0  0  0  0  0  0  0  0
   55.2605   23.7705   42.2939 H   0  0  0  0  0  0  0  0  0  0  0  0
   55.9620   23.7010   44.3430 C   0  0  0  0  0  0  0  0  0  0  0  0
   55.3797   24.5829   44.6482 H   0  0  0  0  0  0  0  0  0  0  0  0
   56.7650   23.0330   45.2840 C   0  0  0  0  0  0  0  0  0  0  0  0
   56.8540   23.5360   46.7010 C   0  0  0  0  0  0  0  0  0  0  0  0
   56.7179   22.6911   47.3921 H   0  0  0  0  0  0  0  0  0  0  0  0
   56.0682   24.2900   46.8559 H   0  0  0  0  0  0  0  0  0  0  0  0
   58.1510   24.1560   46.9540 N   0  0  0  0  0  0  0  0  0  0  0  0
   58.7910   25.1420   46.1310 C   0  0  0  0  0  0  0  0  0  0  0  0
   60.0430   25.0830   45.9970 O   0  0  0  0  0  0  0  0  0  0  0  0
   58.0260   26.2890   45.5060 C   0  0  2  0  0  0  0  0  0  0  0  0
   56.9952   25.9444   45.3364 H   0  0  0  0  0  0  0  0  0  0  0  0
   58.6020   26.6930   44.1260 C   0  0  0  0  0  0  0  0  0  0  0  0
   58.1837   26.0242   43.3593 H   0  0  0  0  0  0  0  0  0  0  0  0
   59.6972   26.6075   44.1820 H   0  0  0  0  0  0  0  0  0  0  0  0
   58.2630   28.1510   43.7500 C   0  0  0  0  0  0  0  0  0  0  0  0
   58.1400   28.2201   42.6591 H   0  0  0  0  0  0  0  0  0  0  0  0
   59.0852   28.7971   44.0914 H   0  0  0  0  0  0  0  0  0  0  0  0
   57.0180   28.5990   44.4030 N   0  0  2  0  0  0  0  0  0  0  0  0
   56.2490   27.9310   44.1590 H   0  0  0  0  0  0  0  0  0  0  0  0
   56.5360   30.1600   43.7820 S   0  0  0  0  0  0  0  0  0  0  0  0
   56.6470   30.1590   42.2810 O   0  0  0  0  0  0  0  0  0  0  0  0
   55.0990   30.4180   44.1420 O   0  0  0  0  0  0  0  0  0  0  0  0
   57.5420   31.4550   44.4340 C   0  0  0  0  0  0  0  0  0  0  0  0
   57.9200   32.5430   43.6090 C   0  0  0  0  0  0  0  0  0  0  0  0
   57.5626   32.5883   42.5697 H   0  0  0  0  0  0  0  0  0  0  0  0
   58.7480   33.5660   44.1060 C   0  0  0  0  0  0  0  0  0  0  0  0
   59.0441   34.4153   43.4728 H   0  0  0  0  0  0  0  0  0  0  0  0
   59.1800   33.4680   45.4250 C   0  0  0  0  0  0  0  0  0  0  0  0
   59.9620   34.3330   46.0980 N   0  0  0  0  0  0  0  0  0  0  0  0
   60.0560   33.7580   47.3270 C   0  0  0  0  0  0  0  0  0  0  0  0
   60.6960   34.2930   48.3280 N   0  0  0  0  0  0  0  0  0  0  0  0
   62.0000   33.9250   48.8090 C   0  0  0  0  0  0  0  0  0  0  0  0
   62.3990   34.1550   50.1400 C   0  0  0  0  0  0  0  0  0  0  0  0
   61.6933   34.6041   50.8543 H   0  0  0  0  0  0  0  0  0  0  0  0
   63.6900   33.8140   50.5560 C   0  0  0  0  0  0  0  0  0  0  0  0
   63.9927   33.9823   51.6001 H   0  0  0  0  0  0  0  0  0  0  0  0
   64.5960   33.2600   49.6480 C   0  0  0  0  0  0  0  0  0  0  0  0
   65.8480   32.9310   50.0540 F   0  0  0  0  0  0  0  0  0  0  0  0
   64.2160   33.0570   48.3180 C   0  0  0  0  0  0  0  0  0  0  0  0
   64.9316   32.6283   47.6009 H   0  0  0  0  0  0  0  0  0  0  0  0
   62.9260   33.3990   47.8990 C   0  0  0  0  0  0  0  0  0  0  0  0
   62.6367   33.2539   46.8477 H   0  0  0  0  0  0  0  0  0  0  0  0
   59.3720   32.5900   47.4370 N   0  0  0  0  0  0  0  0  0  0  0  0
   59.1790   31.7660   48.6270 C   0  0  0  0  0  0  0  0  0  0  0  0
   59.3233   32.3820   49.5269 H   0  0  0  0  0  0  0  0  0  0  0  0
   58.1597   31.3525   48.6253 H   0  0  0  0  0  0  0  0  0  0  0  0
   59.9086   30.9428   48.6253 H   0  0  0  0  0  0  0  0  0  0  0  0
   58.8160   32.4240   46.2260 C   0  0  0  0  0  0  0  0  0  0  0  0
   57.9890   31.3970   45.7710 C   0  0  0  0  0  0  0  0  0  0  0  0
   57.6950   30.5690   46.4328 H   0  0  0  0  0  0  0  0  0  0  0  0
   57.1620   28.6560   45.8790 C   0  0  0  0  0  0  0  0  0  0  0  0
   56.1591   28.6206   46.3295 H   0  0  0  0  0  0  0  0  0  0  0  0
   57.6910   29.5900   46.1194 H   0  0  0  0  0  0  0  0  0  0  0  0
   58.0010   27.4920   46.4560 C   0  0  0  0  0  0  0  0  0  0  0  0
   57.5649   27.1795   47.4163 H   0  0  0  0  0  0  0  0  0  0  0  0
   59.0338   27.8459   46.5901 H   0  0  0  0  0  0  0  0  0  0  0  0
   57.5250   21.9250   44.8730 C   0  0  0  0  0  0  0  0  0  0  0  0
   58.1730   21.4069   45.5953 H   0  0  0  0  0  0  0  0  0  0  0  0
   57.4610   21.4780   43.5490 C   0  0  0  0  0  0  0  0  0  0  0  0
   58.0512   20.6044   43.2352 H   0  0  0  0  0  0  0  0  0  0  0  0
  1  2  1  0
  2  3  2  0
  3  4  1  0
  3  5  1  0
  5  6  1  0
  5  7  2  0
  7  8  1  0
  8  9  1  0
  8 10  1  0
  8 11  1  0
 11 12  1  0
 12 13  2  0
 12 14  1  0
 14 15  1  6
 14 16  1  0
 16 17  1  0
 16 18  1  0
 16 19  1  0
 19 20  1  0
 19 21  1  0
 19 22  1  0
 22 23  1  1
 22 24  1  0
 24 25  2  0
 24 26  2  0
 24 27  1  0
 27 28  2  0
 28 29  1  0
 28 30  1  0
 30 31  1  0
 30 32  2  0
 32 33  1  0
 33 34  1  0
 34 35  2  0
 35 36  1  0
 36 37  2  0
 37 38  1  0
 37 39  1  0
 39 40  1  0
 39 41  2  0
 41 42  1  0
 41 43  1  0
 43 44  1  0
 43 45  2  0
 45 46  1  0
 34 47  1  0
 47 48  1  0
 48 49  1  0
 48 50  1  0
 48 51  1  0
 47 52  1  0
 52 53  2  0
 53 54  1  0
 22 55  1  0
 55 56  1  0
 55 57  1  0
 55 58  1  0
 58 59  1  0
 58 60  1  0
  7 61  1  0
 61 62  1  0
 61 63  2  0
 63 64  1  0
 63  2  1  0
 58 14  1  0
 53 27  1  0
 52 32  1  0
 45 36  1  0
M  CHG  3  11  -1  22   1  33  -1
M  END
>  <UniqueID>  (66) 
62

>  <SMILES>  (66) 
Cn1/c(=N/c2ccc(F)cc2)[n-]c2ccc(S(=O)(=O)[NH+]3CCC(C(=O)[N-]Cc4ccccc4)CC3)cc21

>  <Energy>  (66) 
114.97083008825203

>  <Genealogy>  (66) 
Cn1c(=Nc2ccc(F)cc2)[n-]c2ccc(S(=O)(=O)[NH+]3CCC(C(=O)[N-]Cc4ccccc4)CC3)cc21 (protonated)
Cn1/c(=N/c2ccc(F)cc2)[n-]c2ccc(S(=O)(=O)[NH+]3CCC(C(=O)[N-]Cc4ccccc4)CC3)cc21 (cis-trans isomerization)
Cn1/c(=N/c2ccc(F)cc2)[n-]c2ccc(S(=O)(=O)[NH+]3CCC(C(=O)[N-]Cc4ccccc4)CC3)cc21 (3D coordinates assigned)
Cn1/c(=N/c2ccc(F)cc2)[n-]c2ccc(S(=O)(=O)[NH+]3CCC(C(=O)[N-]Cc4ccccc4)CC3)cc21 (nonaromatic ring conformer: 114.97083008825203 kcal/mol)

>  <smiles>  (66) 
Cn1c(=Nc2ccc(F)cc2)[nH]c2ccc(S(=O)(=O)N3CCC(C(=O)NCc4ccccc4)CC3)cc21

>  <score_type>  (66) 
oracle

>  <origin>  (66) 
adg

>  <m_score__min__energy>  (66) 
-11.31

>  <m_primary>  (66) 
energy

$$$$
66:0
     RDKit          3D

 53 56  0  0  0  0  0  0  0  0999 V2000
   58.5800   34.1090   44.4110 O   0  0  0  0  0  0  0  0  0  0  0  0
   57.7920   33.3570   45.0470 C   0  0  0  0  0  0  0  0  0  0  0  0
   57.4880   33.6360   46.4870 C   0  0  0  0  0  0  0  0  0  0  0  0
   58.7600   33.5920   47.2750 C   0  0  0  0  0  0  0  0  0  0  0  0
   58.9560   32.8570   48.4410 C   0  0  0  0  0  0  0  0  0  0  0  0
   60.3040   32.7230   48.7910 C   0  0  0  0  0  0  0  0  0  0  0  0
   61.1640   33.3500   47.8980 C   0  0  0  0  0  0  0  0  0  0  0  0
   62.8890   33.0720   47.7910 S   0  0  0  0  0  0  0  0  0  0  0  0
   63.5370   34.1810   47.0050 O   0  0  0  0  0  0  0  0  0  0  0  0
   63.1310   31.7660   47.0850 O   0  0  0  0  0  0  0  0  0  0  0  0
   63.5390   33.0060   49.4100 N   0  0  0  0  0  0  0  0  0  0  0  0
   63.1010   34.1830   50.1820 C   0  0  0  0  0  0  0  0  0  0  0  0
   63.8890   34.3030   51.4990 C   0  0  0  0  0  0  0  0  0  0  0  0
   64.5730   33.1010   51.7900 O   0  0  0  0  0  0  0  0  0  0  0  0
   65.5640   32.8580   50.8060 C   0  0  0  0  0  0  0  0  0  0  0  0
   65.0050   32.9390   49.3690 C   0  0  0  0  0  0  0  0  0  0  0  0
   60.2630   34.0500   46.6680 S   0  0  0  0  0  0  0  0  0  0  0  0
   57.2030   32.2150   44.4140 N   0  0  0  0  0  0  0  0  0  0  0  0
   57.3690   30.8440   44.7980 C   0  0  0  0  0  0  0  0  0  0  0  0
   56.8690   29.8460   43.9540 C   0  0  0  0  0  0  0  0  0  0  0  0
   57.0440   28.4960   44.2690 C   0  0  0  0  0  0  0  0  0  0  0  0
   57.7260   28.1250   45.4390 C   0  0  0  0  0  0  0  0  0  0  0  0
   57.9220   26.6720   45.7780 C   0  0  0  0  0  0  0  0  0  0  0  0
   56.6700   25.8960   45.4980 C   0  0  0  0  0  0  0  0  0  0  0  0
   56.7060   24.7160   44.7470 C   0  0  0  0  0  0  0  0  0  0  0  0
   55.5240   24.0040   44.5340 C   0  0  0  0  0  0  0  0  0  0  0  0
   55.5570   22.8280   43.7840 O   0  0  0  0  0  0  0  0  0  0  0  0
   54.3330   24.4910   45.0890 C   0  0  0  0  0  0  0  0  0  0  0  0
   53.2450   23.8790   44.9220 O   0  0  0  0  0  0  0  0  0  0  0  0
   54.3540   25.6360   45.8200 N   0  0  0  0  0  0  0  0  0  0  0  0
   55.4850   26.3140   46.0210 N   0  0  0  0  0  0  0  0  0  0  0  0
   58.2610   29.1230   46.2660 C   0  0  0  0  0  0  0  0  0  0  0  0
   58.0890   30.4730   45.9460 C   0  0  0  0  0  0  0  0  0  0  0  0
   57.0314   34.6324   46.5805 H   0  0  0  0  0  0  0  0  0  0  0  0
   56.7885   32.8788   46.8709 H   0  0  0  0  0  0  0  0  0  0  0  0
   58.1328   32.4246   49.0287 H   0  0  0  0  0  0  0  0  0  0  0  0
   60.6477   32.1771   49.6820 H   0  0  0  0  0  0  0  0  0  0  0  0
   63.2653   35.0892   49.5806 H   0  0  0  0  0  0  0  0  0  0  0  0
   62.0336   34.0678   50.4214 H   0  0  0  0  0  0  0  0  0  0  0  0
   64.6198   35.1201   51.4080 H   0  0  0  0  0  0  0  0  0  0  0  0
   63.1803   34.5098   52.3144 H   0  0  0  0  0  0  0  0  0  0  0  0
   66.3617   33.6072   50.9166 H   0  0  0  0  0  0  0  0  0  0  0  0
   65.9430   31.8368   50.9594 H   0  0  0  0  0  0  0  0  0  0  0  0
   65.3982   33.8393   48.8742 H   0  0  0  0  0  0  0  0  0  0  0  0
   65.3126   32.0442   48.8081 H   0  0  0  0  0  0  0  0  0  0  0  0
   56.3337   30.1267   43.0349 H   0  0  0  0  0  0  0  0  0  0  0  0
   56.6459   27.7208   43.5978 H   0  0  0  0  0  0  0  0  0  0  0  0
   58.7438   26.2657   45.1700 H   0  0  0  0  0  0  0  0  0  0  0  0
   58.1639   26.5848   46.8475 H   0  0  0  0  0  0  0  0  0  0  0  0
   57.6562   24.3528   44.3285 H   0  0  0  0  0  0  0  0  0  0  0  0
   54.7430   22.2340   43.6850 H   0  0  0  0  0  0  0  0  0  0  0  0
   58.8190   28.8422   47.1714 H   0  0  0  0  0  0  0  0  0  0  0  0
   58.5196   31.2487   46.5963 H   0  0  0  0  0  0  0  0  0  0  0  0
  1  2  2  0
  2  3  1  0
  3  4  1  0
  4  5  2  0
  5  6  1  0
  6  7  2  0
  7  8  1  0
  8  9  2  0
  8 10  2  0
  8 11  1  0
 11 12  1  0
 12 13  1  0
 13 14  1  0
 14 15  1  0
 15 16  1  0
  7 17  1  0
  2 18  1  0
 18 19  1  0
 19 20  2  0
 20 21  1  0
 21 22  2  0
 22 23  1  0
 23 24  1  0
 24 25  1  0
 25 26  2  0
 26 27  1  0
 26 28  1  0
 28 29  2  0
 28 30  1  0
 30 31  1  0
 22 32  1  0
 32 33  2  0
 17  4  1  0
 33 19  1  0
 16 11  1  0
 31 24  2  0
  3 34  1  0
  3 35  1  0
  5 36  1  0
  6 37  1  0
 12 38  1  0
 12 39  1  0
 13 40  1  0
 13 41  1  0
 15 42  1  0
 15 43  1  0
 16 44  1  0
 16 45  1  0
 20 46  1  0
 21 47  1  0
 23 48  1  0
 23 49  1  0
 25 50  1  0
 27 51  1  0
 32 52  1  0
 33 53  1  0
M  CHG  2  18  -1  30  -1
M  END
>  <UniqueID>  (67) 
63

>  <SMILES>  (67) 
O=C(Cc1ccc(S(=O)(=O)N2CCOCC2)s1)[N-]c1ccc(Cc2cc(O)c(=O)[n-]n2)cc1

>  <Energy>  (67) 
86.8161824729477

>  <Genealogy>  (67) 
O=C(Cc1ccc(S(=O)(=O)N2CCOCC2)s1)[N-]c1ccc(Cc2cc(O)c(=O)[n-]n2)cc1 (protonated)
O=C(Cc1ccc(S(=O)(=O)N2CCOCC2)s1)[N-]c1ccc(Cc2cc(O)c(=O)[n-]n2)cc1 (3D coordinates assigned)
O=C(Cc1ccc(S(=O)(=O)N2CCOCC2)s1)[N-]c1ccc(Cc2cc(O)c(=O)[n-]n2)cc1 (nonaromatic ring conformer: 86.8161824729477 kcal/mol)

>  <smiles>  (67) 
O=C(Cc1ccc(S(=O)(=O)N2CCOCC2)s1)Nc1ccc(Cc2cc(O)c(=O)[nH]n2)cc1

>  <score_type>  (67) 
oracle

>  <origin>  (67) 
adg

>  <m_score__min__energy>  (67) 
-13.4

>  <m_primary>  (67) 
energy

$$$$
67:0
     RDKit          3D

 63 66  0  0  0  0  0  0  0  0999 V2000
   58.5460   34.9680   44.9330 O   0  0  0  0  0  0  0  0  0  0  0  0
   58.8480   34.4380   45.9980 C   0  0  0  0  0  0  0  0  0  0  0  0
   60.1760   34.7590   46.6450 C   0  0  0  0  0  0  0  0  0  0  0  0
   61.1910   33.6310   46.4020 C   0  0  0  0  0  0  0  0  0  0  0  0
   62.4350   33.8760   47.1350 N   0  0  0  0  0  0  0  0  0  0  0  0
   62.7720   33.3260   48.4260 C   0  0  0  0  0  0  0  0  0  0  0  0
   63.9870   33.2400   48.7630 O   0  0  0  0  0  0  0  0  0  0  0  0
   61.7360   32.8200   49.3460 C   0  0  0  0  0  0  0  0  0  0  0  0
   60.9780   33.7090   50.1220 C   0  0  0  0  0  0  0  0  0  0  0  0
   59.8960   33.2420   50.8740 C   0  0  0  0  0  0  0  0  0  0  0  0
   59.5600   31.8700   50.8710 C   0  0  0  0  0  0  0  0  0  0  0  0
   58.3670   31.3970   51.5440 N   0  0  0  0  0  0  0  0  0  0  0  0
   57.0490   31.9870   51.2500 C   0  0  0  0  0  0  0  0  0  0  0  0
   56.0420   31.6670   52.3690 C   0  0  0  0  0  0  0  0  0  0  0  0
   55.9440   30.2140   52.6620 N   0  0  0  0  0  0  0  0  0  0  0  0
   54.6720   29.5900   52.2290 C   0  0  0  0  0  0  0  0  0  0  0  0
   53.4430   30.4150   52.5600 C   0  0  0  0  0  0  0  0  0  0  0  0
   52.9220   30.4060   53.8670 C   0  0  0  0  0  0  0  0  0  0  0  0
   51.7650   31.1300   54.1740 C   0  0  0  0  0  0  0  0  0  0  0  0
   51.1250   31.8830   53.1850 C   0  0  0  0  0  0  0  0  0  0  0  0
   51.6510   31.9290   51.8910 C   0  0  0  0  0  0  0  0  0  0  0  0
   51.0190   32.6910   50.9130 O   0  0  0  0  0  0  0  0  0  0  0  0
   52.8110   31.2020   51.5790 C   0  0  0  0  0  0  0  0  0  0  0  0
   57.1470   29.4140   52.3310 C   0  0  0  0  0  0  0  0  0  0  0  0
   58.4310   30.2400   52.4540 C   0  0  0  0  0  0  0  0  0  0  0  0
   60.3940   30.9750   50.1680 C   0  0  0  0  0  0  0  0  0  0  0  0
   61.4690   31.4450   49.4110 C   0  0  0  0  0  0  0  0  0  0  0  0
   57.8700   33.5110   46.6830 C   0  0  0  0  0  0  0  0  0  0  0  0
   57.9250   32.1330   46.0740 C   0  0  0  0  0  0  0  0  0  0  0  0
   58.5860   31.0880   46.7390 C   0  0  0  0  0  0  0  0  0  0  0  0
   58.6640   29.8160   46.1560 C   0  0  0  0  0  0  0  0  0  0  0  0
   58.0970   29.5790   44.8990 C   0  0  0  0  0  0  0  0  0  0  0  0
   57.4410   30.6160   44.2250 C   0  0  0  0  0  0  0  0  0  0  0  0
   57.3490   31.8890   44.8140 C   0  0  0  0  0  0  0  0  0  0  0  0
   60.5678   35.6942   46.2184 H   0  0  0  0  0  0  0  0  0  0  0  0
   60.0222   34.8661   47.7289 H   0  0  0  0  0  0  0  0  0  0  0  0
   60.7569   32.6781   46.7389 H   0  0  0  0  0  0  0  0  0  0  0  0
   61.4202   33.5920   45.3268 H   0  0  0  0  0  0  0  0  0  0  0  0
   61.2360   34.7782   50.1390 H   0  0  0  0  0  0  0  0  0  0  0  0
   59.3018   33.9482   51.4725 H   0  0  0  0  0  0  0  0  0  0  0  0
   57.1546   33.0784   51.1618 H   0  0  0  0  0  0  0  0  0  0  0  0
   56.6750   31.5597   50.3079 H   0  0  0  0  0  0  0  0  0  0  0  0
   56.3574   32.1889   53.2845 H   0  0  0  0  0  0  0  0  0  0  0  0
   55.0516   32.0017   52.0267 H   0  0  0  0  0  0  0  0  0  0  0  0
   54.7097   29.4454   51.1392 H   0  0  0  0  0  0  0  0  0  0  0  0
   54.5779   28.6403   52.7761 H   0  0  0  0  0  0  0  0  0  0  0  0
   53.4279   29.8257   54.6527 H   0  0  0  0  0  0  0  0  0  0  0  0
   51.3579   31.1068   55.1956 H   0  0  0  0  0  0  0  0  0  0  0  0
   50.2071   32.4395   53.4255 H   0  0  0  0  0  0  0  0  0  0  0  0
   53.2282   31.2478   50.5622 H   0  0  0  0  0  0  0  0  0  0  0  0
   57.2065   28.5587   53.0201 H   0  0  0  0  0  0  0  0  0  0  0  0
   57.0565   29.0760   51.2881 H   0  0  0  0  0  0  0  0  0  0  0  0
   58.5395   30.5949   53.4895 H   0  0  0  0  0  0  0  0  0  0  0  0
   59.2942   29.6132   52.1857 H   0  0  0  0  0  0  0  0  0  0  0  0
   60.1950   29.8943   50.2169 H   0  0  0  0  0  0  0  0  0  0  0  0
   62.1076   30.7353   48.8646 H   0  0  0  0  0  0  0  0  0  0  0  0
   58.1238   33.4440   47.7512 H   0  0  0  0  0  0  0  0  0  0  0  0
   56.8540   33.9131   46.5563 H   0  0  0  0  0  0  0  0  0  0  0  0
   59.0448   31.2685   47.7223 H   0  0  0  0  0  0  0  0  0  0  0  0
   59.1735   28.9999   46.6892 H   0  0  0  0  0  0  0  0  0  0  0  0
   58.1665   28.5810   44.4418 H   0  0  0  0  0  0  0  0  0  0  0  0
   56.9977   30.4347   43.2348 H   0  0  0  0  0  0  0  0  0  0  0  0
   56.8237   32.6989   44.2867 H   0  0  0  0  0  0  0  0  0  0  0  0
  1  2  2  0
  2  3  1  0
  3  4  1  0
  4  5  1  0
  5  6  1  0
  6  7  2  0
  6  8  1  0
  8  9  2  0
  9 10  1  0
 10 11  2  0
 11 12  1  0
 12 13  1  0
 13 14  1  0
 14 15  1  0
 15 16  1  0
 16 17  1  0
 17 18  2  0
 18 19  1  0
 19 20  2  0
 20 21  1  0
 21 22  1  0
 21 23  2  0
 15 24  1  0
 24 25  1  0
 11 26  1  0
 26 27  2  0
  2 28  1  0
 28 29  1  0
 29 30  2  0
 30 31  1  0
 31 32  2  0
 32 33  1  0
 33 34  2  0
 27  8  1  0
 34 29  1  0
 25 12  1  0
 23 17  1  0
  3 35  1  0
  3 36  1  0
  4 37  1  0
  4 38  1  0
  9 39  1  0
 10 40  1  0
 13 41  1  0
 13 42  1  0
 14 43  1  0
 14 44  1  0
 16 45  1  0
 16 46  1  0
 18 47  1  0
 19 48  1  0
 20 49  1  0
 23 50  1  0
 24 51  1  0
 24 52  1  0
 25 53  1  0
 25 54  1  0
 26 55  1  0
 27 56  1  0
 28 57  1  0
 28 58  1  0
 30 59  1  0
 31 60  1  0
 32 61  1  0
 33 62  1  0
 34 63  1  0
M  CHG  2   5  -1  22  -1
M  END
>  <UniqueID>  (68) 
64

>  <SMILES>  (68) 
O=C(CC[N-]C(=O)c1ccc(N2CCN(Cc3cccc([O-])c3)CC2)cc1)Cc1ccccc1

>  <Energy>  (68) 
73.43578380628354

>  <Genealogy>  (68) 
O=C(CC[N-]C(=O)c1ccc(N2CCN(Cc3cccc([O-])c3)CC2)cc1)Cc1ccccc1 (protonated)
O=C(CC[N-]C(=O)c1ccc(N2CCN(Cc3cccc([O-])c3)CC2)cc1)Cc1ccccc1 (3D coordinates assigned)
O=C(CC[N-]C(=O)c1ccc(N2CCN(Cc3cccc([O-])c3)CC2)cc1)Cc1ccccc1 (nonaromatic ring conformer: 73.43578380628354 kcal/mol)

>  <smiles>  (68) 
O=C(CCNC(=O)c1ccc(N2CCN(Cc3cccc(O)c3)CC2)cc1)Cc1ccccc1

>  <score_type>  (68) 
oracle

>  <origin>  (68) 
adg

>  <m_score__min__energy>  (68) 
-14.619999999999999

>  <m_primary>  (68) 
energy

$$$$
68:0
     RDKit          3D

 47 49  0  0  0  0  0  0  0  0999 V2000
   57.0330   34.2050   45.2530 C   0  0  0  0  0  0  0  0  0  0  0  0
   57.9630   33.0310   45.1990 C   0  0  0  0  0  0  0  0  0  0  0  0
   57.7120   32.1000   44.3870 O   0  0  0  0  0  0  0  0  0  0  0  0
   59.1430   32.9660   46.0290 N   0  0  0  0  0  0  0  0  0  0  0  0
   59.8860   31.7070   46.1540 C   0  0  0  0  0  0  0  0  0  0  0  0
   60.4760   31.6050   47.5600 C   0  0  0  0  0  0  0  0  0  0  0  0
   61.3890   32.7270   47.8680 N   0  0  0  0  0  0  0  0  0  0  0  0
   61.5090   32.9750   49.5960 S   0  0  0  0  0  0  0  0  0  0  0  0
   61.7070   34.4400   49.8670 O   0  0  0  0  0  0  0  0  0  0  0  0
   62.7000   32.2340   50.1380 O   0  0  0  0  0  0  0  0  0  0  0  0
   60.0520   32.4200   50.4270 C   0  0  0  0  0  0  0  0  0  0  0  0
   60.1510   31.7300   51.6410 C   0  0  0  0  0  0  0  0  0  0  0  0
   59.0030   31.2340   52.2650 C   0  0  0  0  0  0  0  0  0  0  0  0
   57.7380   31.4250   51.6850 C   0  0  0  0  0  0  0  0  0  0  0  0
   56.5280   30.8790   52.3460 C   0  0  0  0  0  0  0  0  0  0  0  0
   56.4930   30.8040   53.6030 O   0  0  0  0  0  0  0  0  0  0  0  0
   55.3660   30.4790   51.6070 N   0  0  0  0  0  0  0  0  0  0  0  0
   53.9960   30.6560   52.0000 C   0  0  0  0  0  0  0  0  0  0  0  0
   53.4630   29.8170   52.9870 C   0  0  0  0  0  0  0  0  0  0  0  0
   52.1330   29.9590   53.3920 C   0  0  0  0  0  0  0  0  0  0  0  0
   51.3210   30.9310   52.8020 C   0  0  0  0  0  0  0  0  0  0  0  0
   51.8360   31.7580   51.7990 C   0  0  0  0  0  0  0  0  0  0  0  0
   51.0240   32.7160   51.2070 O   0  0  0  0  0  0  0  0  0  0  0  0
   53.1670   31.6160   51.3900 C   0  0  0  0  0  0  0  0  0  0  0  0
   57.6410   32.1600   50.4910 C   0  0  0  0  0  0  0  0  0  0  0  0
   58.7910   32.6440   49.8620 C   0  0  0  0  0  0  0  0  0  0  0  0
   61.0980   33.9920   47.1530 C   0  0  0  0  0  0  0  0  0  0  0  0
   59.6190   34.1500   46.7600 C   0  0  0  0  0  0  0  0  0  0  0  0
   56.8287   34.4629   46.3026 H   0  0  0  0  0  0  0  0  0  0  0  0
   57.4979   35.0646   44.7480 H   0  0  0  0  0  0  0  0  0  0  0  0
   56.0899   33.9492   44.7480 H   0  0  0  0  0  0  0  0  0  0  0  0
   59.2060   30.8603   45.9787 H   0  0  0  0  0  0  0  0  0  0  0  0
   60.6975   31.6833   45.4117 H   0  0  0  0  0  0  0  0  0  0  0  0
   59.6532   31.6078   48.2900 H   0  0  0  0  0  0  0  0  0  0  0  0
   61.0577   30.6730   47.6142 H   0  0  0  0  0  0  0  0  0  0  0  0
   61.1363   31.5776   52.1057 H   0  0  0  0  0  0  0  0  0  0  0  0
   59.0907   30.6902   53.2171 H   0  0  0  0  0  0  0  0  0  0  0  0
   54.0947   29.0421   53.4458 H   0  0  0  0  0  0  0  0  0  0  0  0
   51.7249   29.3046   54.1764 H   0  0  0  0  0  0  0  0  0  0  0  0
   50.2763   31.0457   53.1266 H   0  0  0  0  0  0  0  0  0  0  0  0
   53.5662   32.2564   50.5897 H   0  0  0  0  0  0  0  0  0  0  0  0
   56.6530   32.3556   50.0487 H   0  0  0  0  0  0  0  0  0  0  0  0
   58.7051   33.2034   48.9188 H   0  0  0  0  0  0  0  0  0  0  0  0
   61.3763   34.8326   47.8057 H   0  0  0  0  0  0  0  0  0  0  0  0
   61.6803   33.9770   46.2199 H   0  0  0  0  0  0  0  0  0  0  0  0
   59.0156   34.2781   47.6708 H   0  0  0  0  0  0  0  0  0  0  0  0
   59.5198   35.0302   46.1078 H   0  0  0  0  0  0  0  0  0  0  0  0
  1  2  1  0
  2  3  2  0
  2  4  1  0
  4  5  1  0
  5  6  1  0
  6  7  1  0
  7  8  1  0
  8  9  2  0
  8 10  2  0
  8 11  1  0
 11 12  2  0
 12 13  1  0
 13 14  2  0
 14 15  1  0
 15 16  2  0
 15 17  1  0
 17 18  1  0
 18 19  2  0
 19 20  1  0
 20 21  2  0
 21 22  1  0
 22 23  1  0
 22 24  2  0
 14 25  1  0
 25 26  2  0
  7 27  1  0
 27 28  1  0
 28  4  1  0
 26 11  1  0
 24 18  1  0
  1 29  1  0
  1 30  1  0
  1 31  1  0
  5 32  1  0
  5 33  1  0
  6 34  1  0
  6 35  1  0
 12 36  1  0
 13 37  1  0
 19 38  1  0
 20 39  1  0
 21 40  1  0
 24 41  1  0
 25 42  1  0
 26 43  1  0
 27 44  1  0
 27 45  1  0
 28 46  1  0
 28 47  1  0
M  CHG  2  17  -1  23  -1
M  END
>  <UniqueID>  (69) 
65

>  <SMILES>  (69) 
CC(=O)N1CCN(S(=O)(=O)c2ccc(C(=O)[N-]c3cccc([O-])c3)cc2)CC1

>  <Energy>  (69) 
57.684804876422

>  <Genealogy>  (69) 
CC(=O)N1CCN(S(=O)(=O)c2ccc(C(=O)[N-]c3cccc([O-])c3)cc2)CC1 (protonated)
CC(=O)N1CCN(S(=O)(=O)c2ccc(C(=O)[N-]c3cccc([O-])c3)cc2)CC1 (3D coordinates assigned)
CC(=O)N1CCN(S(=O)(=O)c2ccc(C(=O)[N-]c3cccc([O-])c3)cc2)CC1 (nonaromatic ring conformer: 57.684804876422 kcal/mol)

>  <smiles>  (69) 
CC(=O)N1CCN(S(=O)(=O)c2ccc(C(=O)Nc3cccc(O)c3)cc2)CC1

>  <score_type>  (69) 
oracle

>  <origin>  (69) 
adg

>  <m_score__min__energy>  (69) 
-14.08

>  <m_primary>  (69) 
energy

$$$$
69:0
     RDKit          3D

 53 56  0  0  0  0  0  0  0  0999 V2000
   65.6900   33.9210   51.6360 C   0  0  0  0  0  0  0  0  0  0  0  0
   65.4580   33.2520   50.3140 C   0  0  0  0  0  0  0  0  0  0  0  0
   66.4430   32.7080   49.7440 O   0  0  0  0  0  0  0  0  0  0  0  0
   64.1500   33.2090   49.6960 N   0  0  0  0  0  0  0  0  0  0  0  0
   64.0230   32.7130   48.3160 C   0  0  0  0  0  0  0  0  0  0  0  0
   62.6590   32.0510   48.1040 C   0  0  0  0  0  0  0  0  0  0  0  0
   61.5700   32.9570   48.5240 N   0  0  0  0  0  0  0  0  0  0  0  0
   60.2510   32.4320   48.2180 C   0  0  0  0  0  0  0  0  0  0  0  0
   59.7320   31.5920   49.0040 O   0  0  0  0  0  0  0  0  0  0  0  0
   59.4540   32.8640   47.0440 C   0  0  0  0  0  0  0  0  0  0  0  0
   58.8880   34.1470   47.0370 C   0  0  0  0  0  0  0  0  0  0  0  0
   58.1230   34.5760   45.9500 C   0  0  0  0  0  0  0  0  0  0  0  0
   57.9110   33.7250   44.8630 C   0  0  0  0  0  0  0  0  0  0  0  0
   58.4620   32.4350   44.8580 C   0  0  0  0  0  0  0  0  0  0  0  0
   58.1740   31.4940   43.7210 C   0  0  0  0  0  0  0  0  0  0  0  0
   57.2880   30.3850   44.1910 C   0  0  0  0  0  0  0  0  0  0  0  0
   55.9120   30.4670   44.3820 C   0  0  0  0  0  0  0  0  0  0  0  0
   55.3440   29.3480   44.9030 N   0  0  0  0  0  0  0  0  0  0  0  0
   56.2680   28.3900   45.1470 C   0  0  0  0  0  0  0  0  0  0  0  0
   55.9900   27.2160   45.6280 N   0  0  0  0  0  0  0  0  0  0  0  0
   56.7750   26.5180   46.6050 C   0  0  0  0  0  0  0  0  0  0  0  0
   56.2890   25.4940   47.1530 O   0  0  0  0  0  0  0  0  0  0  0  0
   58.1550   26.9250   46.9340 C   0  0  0  0  0  0  0  0  0  0  0  0
   58.5110   27.9850   47.7610 C   0  0  0  0  0  0  0  0  0  0  0  0
   59.8940   28.1060   47.9430 C   0  0  0  0  0  0  0  0  0  0  0  0
   60.6320   27.1360   47.2790 C   0  0  0  0  0  0  0  0  0  0  0  0
   59.5640   26.1270   46.4650 S   0  0  0  0  0  0  0  0  0  0  0  0
   57.8180   28.8730   44.7130 S   0  0  0  0  0  0  0  0  0  0  0  0
   59.2220   32.0040   45.9590 C   0  0  0  0  0  0  0  0  0  0  0  0
   61.6880   33.2850   49.9570 C   0  0  0  0  0  0  0  0  0  0  0  0
   63.0240   33.9810   50.2510 C   0  0  0  0  0  0  0  0  0  0  0  0
   65.4472   33.2208   52.4489 H   0  0  0  0  0  0  0  0  0  0  0  0
   66.7451   34.2222   51.7144 H   0  0  0  0  0  0  0  0  0  0  0  0
   65.0479   34.8107   51.7144 H   0  0  0  0  0  0  0  0  0  0  0  0
   64.1278   33.5565   47.6177 H   0  0  0  0  0  0  0  0  0  0  0  0
   64.8109   31.9674   48.1335 H   0  0  0  0  0  0  0  0  0  0  0  0
   62.5366   31.8086   47.0380 H   0  0  0  0  0  0  0  0  0  0  0  0
   62.6116   31.1346   48.7107 H   0  0  0  0  0  0  0  0  0  0  0  0
   61.6730   33.8470   47.9770 H   0  0  0  0  0  0  0  0  0  0  0  0
   59.0475   34.8196   47.8927 H   0  0  0  0  0  0  0  0  0  0  0  0
   57.6868   35.5858   45.9500 H   0  0  0  0  0  0  0  0  0  0  0  0
   57.3099   34.0675   44.0078 H   0  0  0  0  0  0  0  0  0  0  0  0
   57.6722   32.0434   42.9108 H   0  0  0  0  0  0  0  0  0  0  0  0
   59.1200   31.0707   43.3524 H   0  0  0  0  0  0  0  0  0  0  0  0
   55.3304   31.3663   44.1311 H   0  0  0  0  0  0  0  0  0  0  0  0
   57.7786   28.6613   48.2260 H   0  0  0  0  0  0  0  0  0  0  0  0
   60.3529   28.8963   48.5553 H   0  0  0  0  0  0  0  0  0  0  0  0
   61.7281   27.0439   47.2848 H   0  0  0  0  0  0  0  0  0  0  0  0
   59.6379   30.9857   45.9705 H   0  0  0  0  0  0  0  0  0  0  0  0
   60.8628   33.9540   50.2425 H   0  0  0  0  0  0  0  0  0  0  0  0
   61.6432   32.3510   50.5363 H   0  0  0  0  0  0  0  0  0  0  0  0
   63.0158   34.9832   49.7977 H   0  0  0  0  0  0  0  0  0  0  0  0
   63.1506   34.0546   51.3412 H   0  0  0  0  0  0  0  0  0  0  0  0
  1  2  1  0
  2  3  2  0
  2  4  1  0
  4  5  1  0
  5  6  1  0
  6  7  1  0
  7  8  1  0
  8  9  2  0
  8 10  1  0
 10 11  2  0
 11 12  1  0
 12 13  2  0
 13 14  1  0
 14 15  1  0
 15 16  1  0
 16 17  2  0
 17 18  1  0
 18 19  1  0
 19 20  2  3
 20 21  1  0
 21 22  2  0
 21 23  1  0
 23 24  2  0
 24 25  1  0
 25 26  2  0
 26 27  1  0
 19 28  1  0
 14 29  2  0
  7 30  1  0
 30 31  1  0
 31  4  1  0
 29 10  1  0
 28 16  1  0
 27 23  1  0
  1 32  1  0
  1 33  1  0
  1 34  1  0
  5 35  1  0
  5 36  1  0
  6 37  1  0
  6 38  1  0
  7 39  1  0
 11 40  1  0
 12 41  1  0
 13 42  1  0
 15 43  1  0
 15 44  1  0
 17 45  1  0
 24 46  1  0
 25 47  1  0
 26 48  1  0
 29 49  1  0
 30 50  1  0
 30 51  1  0
 31 52  1  0
 31 53  1  0
M  CHG  2   7   1  18  -1
M  END
>  <UniqueID>  (70) 
66

>  <SMILES>  (70) 
CC(=O)N1CC[NH+](C(=O)c2cccc(Cc3c[n-]c(=NC(=O)c4cccs4)s3)c2)CC1

>  <Energy>  (70) 
125.76823833443949

>  <Genealogy>  (70) 
CC(=O)N1CC[NH+](C(=O)c2cccc(Cc3c[n-]c(=NC(=O)c4cccs4)s3)c2)CC1 (protonated)
CC(=O)N1CC[NH+](C(=O)c2cccc(Cc3c[n-]c(=NC(=O)c4cccs4)s3)c2)CC1 (3D coordinates assigned)
CC(=O)N1CC[NH+](C(=O)c2cccc(Cc3c[n-]c(=NC(=O)c4cccs4)s3)c2)CC1 (nonaromatic ring conformer: 125.76823833443949 kcal/mol)

>  <smiles>  (70) 
CC(=O)N1CCN(C(=O)c2cccc(Cc3c[nH]c(=NC(=O)c4cccs4)s3)c2)CC1

>  <score_type>  (70) 
oracle

>  <origin>  (70) 
adg

>  <m_score__min__energy>  (70) 
-10.94

>  <m_primary>  (70) 
energy

$$$$
70:0
     RDKit          3D

 52 54  0  0  0  0  0  0  0  0999 V2000
   57.3060   23.8730   47.2850 C   0  0  0  0  0  0  0  0  0  0  0  0
   57.5930   25.0240   46.6790 C   0  0  0  0  0  0  0  0  0  0  0  0
   56.5480   25.9870   46.2700 C   0  0  0  0  0  0  0  0  0  0  0  0
   55.3310   25.6730   46.3570 O   0  0  0  0  0  0  0  0  0  0  0  0
   56.8880   27.3080   45.8300 N   0  0  0  0  0  0  0  0  0  0  0  0
   57.9500   28.1190   46.3540 C   0  0  0  0  0  0  0  0  0  0  0  0
   58.1740   28.1160   47.7350 C   0  0  0  0  0  0  0  0  0  0  0  0
   59.2060   28.8760   48.2890 C   0  0  0  0  0  0  0  0  0  0  0  0
   60.0250   29.6720   47.4700 C   0  0  0  0  0  0  0  0  0  0  0  0
   61.1550   30.4690   48.0240 C   0  0  0  0  0  0  0  0  0  0  0  0
   61.4650   30.4680   49.3960 C   0  0  0  0  0  0  0  0  0  0  0  0
   62.5590   31.2040   49.8550 C   0  0  0  0  0  0  0  0  0  0  0  0
   63.3420   31.9290   48.9560 C   0  0  0  0  0  0  0  0  0  0  0  0
   63.0180   31.9030   47.5940 C   0  0  0  0  0  0  0  0  0  0  0  0
   63.7280   32.5550   46.7280 N   0  0  0  0  0  0  0  0  0  0  0  0
   61.9460   31.1820   47.1700 N   0  0  0  0  0  0  0  0  0  0  0  0
   59.7510   29.7230   46.0930 C   0  0  0  0  0  0  0  0  0  0  0  0
   58.7210   28.9540   45.5220 C   0  0  0  0  0  0  0  0  0  0  0  0
   58.4240   29.0160   44.1470 O   0  0  0  0  0  0  0  0  0  0  0  0
   57.1180   29.1440   43.5820 C   0  0  0  0  0  0  0  0  0  0  0  0
   56.1450   29.7530   44.5970 C   0  0  0  0  0  0  0  0  0  0  0  0
   56.1340   31.2100   44.4950 N   0  0  0  0  0  0  0  0  0  0  0  0
   57.2270   32.0880   44.8010 C   0  0  0  0  0  0  0  0  0  0  0  0
   58.3570   31.8360   44.3010 O   0  0  0  0  0  0  0  0  0  0  0  0
   57.0440   33.3180   45.6570 C   0  0  0  0  0  0  0  0  0  0  0  0
   58.2210   33.5730   46.5610 C   0  0  0  0  0  0  0  0  0  0  0  0
   58.2560   33.0220   47.8520 C   0  0  0  0  0  0  0  0  0  0  0  0
   59.3500   33.2600   48.6910 C   0  0  0  0  0  0  0  0  0  0  0  0
   60.4190   34.0410   48.2420 C   0  0  0  0  0  0  0  0  0  0  0  0
   60.3980   34.5810   46.9530 C   0  0  0  0  0  0  0  0  0  0  0  0
   59.3060   34.3460   46.1120 C   0  0  0  0  0  0  0  0  0  0  0  0
   58.1155   23.1857   47.5720 H   0  0  0  0  0  0  0  0  0  0  0  0
   56.2595   23.6098   47.4984 H   0  0  0  0  0  0  0  0  0  0  0  0
   58.6463   25.2671   46.4753 H   0  0  0  0  0  0  0  0  0  0  0  0
   57.5314   27.5095   48.3902 H   0  0  0  0  0  0  0  0  0  0  0  0
   59.3794   28.8515   49.3750 H   0  0  0  0  0  0  0  0  0  0  0  0
   60.8498   29.8914   50.1024 H   0  0  0  0  0  0  0  0  0  0  0  0
   62.8041   31.2123   50.9273 H   0  0  0  0  0  0  0  0  0  0  0  0
   64.2029   32.5135   49.3127 H   0  0  0  0  0  0  0  0  0  0  0  0
   64.6920   32.2580   46.4540 H   0  0  0  0  0  0  0  0  0  0  0  0
   60.3547   30.3782   45.4478 H   0  0  0  0  0  0  0  0  0  0  0  0
   57.1700   29.7947   42.6966 H   0  0  0  0  0  0  0  0  0  0  0  0
   56.7552   28.1443   43.3008 H   0  0  0  0  0  0  0  0  0  0  0  0
   55.1327   29.3701   44.4008 H   0  0  0  0  0  0  0  0  0  0  0  0
   56.4706   29.4728   45.6096 H   0  0  0  0  0  0  0  0  0  0  0  0
   56.9099   34.1890   44.9986 H   0  0  0  0  0  0  0  0  0  0  0  0
   56.1630   33.1529   46.2946 H   0  0  0  0  0  0  0  0  0  0  0  0
   57.4198   32.4006   48.2052 H   0  0  0  0  0  0  0  0  0  0  0  0
   59.3690   32.8324   49.7043 H   0  0  0  0  0  0  0  0  0  0  0  0
   61.2771   34.2307   48.9035 H   0  0  0  0  0  0  0  0  0  0  0  0
   61.2418   35.1918   46.5996 H   0  0  0  0  0  0  0  0  0  0  0  0
   59.2958   34.7673   45.0959 H   0  0  0  0  0  0  0  0  0  0  0  0
  1  2  2  0
  2  3  1  0
  3  4  2  0
  3  5  1  0
  5  6  1  0
  6  7  2  0
  7  8  1  0
  8  9  2  0
  9 10  1  0
 10 11  2  0
 11 12  1  0
 12 13  2  0
 13 14  1  0
 14 15  2  3
 14 16  1  0
  9 17  1  0
 17 18  2  0
 18 19  1  0
 19 20  1  0
 20 21  1  0
 21 22  1  0
 22 23  1  0
 23 24  2  0
 23 25  1  0
 25 26  1  0
 26 27  2  0
 27 28  1  0
 28 29  2  0
 29 30  1  0
 30 31  2  0
 18  6  1  0
 31 26  1  0
 16 10  1  0
  1 32  1  0
  1 33  1  0
  2 34  1  0
  7 35  1  0
  8 36  1  0
 11 37  1  0
 12 38  1  0
 13 39  1  0
 15 40  1  0
 17 41  1  0
 20 42  1  0
 20 43  1  0
 21 44  1  0
 21 45  1  0
 25 46  1  0
 25 47  1  0
 27 48  1  0
 28 49  1  0
 29 50  1  0
 30 51  1  0
 31 52  1  0
M  CHG  3   5  -1  16  -1  22  -1
M  END
>  <UniqueID>  (71) 
67

>  <SMILES>  (71) 
C=CC(=O)[N-]c1ccc(-c2cccc(=N)[n-]2)cc1OCC[N-]C(=O)Cc1ccccc1

>  <Energy>  (71) 
57.593117104346284

>  <Genealogy>  (71) 
C=CC(=O)[N-]c1ccc(-c2cccc(=N)[n-]2)cc1OCC[N-]C(=O)Cc1ccccc1 (protonated)
C=CC(=O)[N-]c1ccc(-c2cccc(=N)[n-]2)cc1OCC[N-]C(=O)Cc1ccccc1 (3D coordinates assigned)
C=CC(=O)[N-]c1ccc(-c2cccc(=N)[n-]2)cc1OCC[N-]C(=O)Cc1ccccc1 (optimized conformer: 57.593117104346284 kcal/mol)

>  <smiles>  (71) 
C=CC(=O)Nc1ccc(-c2cccc(=N)[nH]2)cc1OCCNC(=O)Cc1ccccc1

>  <score_type>  (71) 
oracle

>  <origin>  (71) 
adg

>  <m_score__min__energy>  (71) 
-12.35

>  <m_primary>  (71) 
energy

$$$$
71:0
     RDKit          3D

 61 64  0  0  0  0  0  0  0  0999 V2000
   57.0841   28.4612   43.4408 H   0  0  0  0  0  0  0  0  0  0  0  0
   57.1780   29.3960   44.0130 C   0  0  0  0  0  0  0  0  0  0  0  0
   56.8628   30.3496   43.5643 H   0  0  0  0  0  0  0  0  0  0  0  0
   57.6780   29.3730   45.2610 C   0  0  0  0  0  0  0  0  0  0  0  0
   57.7730   30.6050   45.9430 C   0  0  0  0  0  0  0  0  0  0  0  0
   57.2498   31.4867   45.5445 H   0  0  0  0  0  0  0  0  0  0  0  0
   58.5200   30.7210   47.1140 C   0  0  0  0  0  0  0  0  0  0  0  0
   58.5619   31.6840   47.6440 H   0  0  0  0  0  0  0  0  0  0  0  0
   59.2170   29.6170   47.6180 C   0  0  0  0  0  0  0  0  0  0  0  0
   60.0510   29.7540   48.8670 C   0  0  0  0  0  0  0  0  0  0  0  0
   60.3405   28.7527   49.2185 H   0  0  0  0  0  0  0  0  0  0  0  0
   60.9441   30.3508   48.6297 H   0  0  0  0  0  0  0  0  0  0  0  0
   59.2770   30.4560   49.9570 C   0  0  0  0  0  0  0  0  0  0  0  0
   58.4540   29.7090   50.8190 C   0  0  0  0  0  0  0  0  0  0  0  0
   58.3745   28.6195   50.6901 H   0  0  0  0  0  0  0  0  0  0  0  0
   57.7380   30.3400   51.8360 C   0  0  0  0  0  0  0  0  0  0  0  0
   57.0908   29.7490   52.5007 H   0  0  0  0  0  0  0  0  0  0  0  0
   57.8420   31.7210   52.0110 C   0  0  0  0  0  0  0  0  0  0  0  0
   57.2771   32.2160   52.8146 H   0  0  0  0  0  0  0  0  0  0  0  0
   58.6610   32.4760   51.1690 C   0  0  0  0  0  0  0  0  0  0  0  0
   58.7452   33.5626   51.3177 H   0  0  0  0  0  0  0  0  0  0  0  0
   59.3800   31.8530   50.1300 C   0  0  0  0  0  0  0  0  0  0  0  0
   60.2450   32.5770   49.2940 O   0  0  0  0  0  0  0  0  0  0  0  0
   61.6060   32.8070   49.5190 C   0  0  0  0  0  0  0  0  0  0  0  0
   61.9930   33.6470   50.3770 O   0  0  0  0  0  0  0  0  0  0  0  0
   62.6090   32.0480   48.7110 C   0  0  0  0  0  0  0  0  0  0  0  0
   63.6059   32.4869   48.8644 H   0  0  0  0  0  0  0  0  0  0  0  0
   62.6072   30.9964   49.0337 H   0  0  0  0  0  0  0  0  0  0  0  0
   62.2510   32.1140   47.2230 C   0  0  0  0  0  0  0  0  0  0  0  0
   63.1709   32.0101   46.6289 H   0  0  0  0  0  0  0  0  0  0  0  0
   61.5475   31.2983   47.0003 H   0  0  0  0  0  0  0  0  0  0  0  0
   61.5710   33.4520   46.8650 C   0  0  0  0  0  0  0  0  0  0  0  0
   61.9130   34.2207   47.5736 H   0  0  0  0  0  0  0  0  0  0  0  0
   61.8494   33.6985   45.8298 H   0  0  0  0  0  0  0  0  0  0  0  0
   60.0870   33.3780   46.9240 N   0  0  0  0  0  0  0  0  0  0  0  0
   59.8410   32.5410   47.5080 H   0  0  0  0  0  0  0  0  0  0  0  0
   59.4630   34.5610   47.5610 C   0  0  0  0  0  0  0  0  0  0  0  0
   58.3924   34.3601   47.7144 H   0  0  0  0  0  0  0  0  0  0  0  0
   59.9715   34.7424   48.5194 H   0  0  0  0  0  0  0  0  0  0  0  0
   59.6150   35.8290   46.6870 C   0  0  0  0  0  0  0  0  0  0  0  0
   58.6828   36.4096   46.7488 H   0  0  0  0  0  0  0  0  0  0  0  0
   60.4786   36.3900   47.0736 H   0  0  0  0  0  0  0  0  0  0  0  0
   59.8770   35.5410   45.3220 O   0  0  0  0  0  0  0  0  0  0  0  0
   59.0760   34.4670   44.8840 C   0  0  0  0  0  0  0  0  0  0  0  0
   58.0243   34.6769   45.1287 H   0  0  0  0  0  0  0  0  0  0  0  0
   59.1980   34.3536   43.7967 H   0  0  0  0  0  0  0  0  0  0  0  0
   59.5050   33.1540   45.5730 C   0  0  0  0  0  0  0  0  0  0  0  0
   58.6228   32.5046   45.6731 H   0  0  0  0  0  0  0  0  0  0  0  0
   60.2829   32.6901   44.9489 H   0  0  0  0  0  0  0  0  0  0  0  0
   59.0870   28.3710   46.9840 C   0  0  0  0  0  0  0  0  0  0  0  0
   59.6521   27.5095   47.3694 H   0  0  0  0  0  0  0  0  0  0  0  0
   58.2470   28.2000   45.8630 C   0  0  0  0  0  0  0  0  0  0  0  0
   58.0230   26.9220   45.4600 C   0  0  0  0  0  0  0  0  0  0  0  0
   58.3973   26.6413   44.4645 H   0  0  0  0  0  0  0  0  0  0  0  0
   57.3250   25.8740   46.2310 C   0  0  0  0  0  0  0  0  0  0  0  0
   57.9060   24.7650   46.7290 N   0  0  0  0  0  0  0  0  0  0  0  0
   56.8640   24.0720   47.2430 C   0  0  0  0  0  0  0  0  0  0  0  0
   57.0060   22.9620   47.8190 O   0  0  0  0  0  0  0  0  0  0  0  0
   55.6570   24.6550   47.0770 N   0  0  0  0  0  0  0  0  0  0  0  0
   55.9660   25.7860   46.4220 C   0  0  0  0  0  0  0  0  0  0  0  0
   55.0240   26.7120   45.9960 O   0  0  0  0  0  0  0  0  0  0  0  0
  1  2  1  0
  2  3  1  0
  2  4  2  0
  4  5  1  0
  5  6  1  0
  5  7  2  0
  7  8  1  0
  7  9  1  0
  9 10  1  0
 10 11  1  0
 10 12  1  0
 10 13  1  0
 13 14  2  0
 14 15  1  0
 14 16  1  0
 16 17  1  0
 16 18  2  0
 18 19  1  0
 18 20  1  0
 20 21  1  0
 20 22  2  0
 22 23  1  0
 23 24  1  0
 24 25  2  0
 24 26  1  0
 26 27  1  0
 26 28  1  0
 26 29  1  0
 29 30  1  0
 29 31  1  0
 29 32  1  0
 32 33  1  0
 32 34  1  0
 32 35  1  0
 35 36  1  0
 35 37  1  0
 37 38  1  0
 37 39  1  0
 37 40  1  0
 40 41  1  0
 40 42  1  0
 40 43  1  0
 43 44  1  0
 44 45  1  0
 44 46  1  0
 44 47  1  0
 47 48  1  0
 47 49  1  0
  9 50  2  0
 50 51  1  0
 50 52  1  0
 52 53  2  0
 53 54  1  0
 53 55  1  0
 55 56  1  0
 56 57  1  0
 57 58  2  0
 57 59  1  0
 59 60  1  0
 60 61  1  0
 52  4  1  0
 60 55  2  0
 22 13  1  0
 47 35  1  0
M  CHG  4  35   1  56  -1  59  -1  61  -1
M  END
>  <UniqueID>  (72) 
68

>  <SMILES>  (72) 
C=c1ccc(Cc2ccccc2OC(=O)CCC[NH+]2CCOCC2)c/c1=C/c1[n-]c(=O)[n-]c1[O-]

>  <Energy>  (72) 
122.05660149685134

>  <Genealogy>  (72) 
C=c1ccc(Cc2ccccc2OC(=O)CCC[NH+]2CCOCC2)cc1=Cc1[n-]c(=O)[n-]c1[O-] (protonated)
C=c1ccc(Cc2ccccc2OC(=O)CCC[NH+]2CCOCC2)c/c1=C/c1[n-]c(=O)[n-]c1[O-] (cis-trans isomerization)
C=c1ccc(Cc2ccccc2OC(=O)CCC[NH+]2CCOCC2)c/c1=C/c1[n-]c(=O)[n-]c1[O-] (3D coordinates assigned)
C=c1ccc(Cc2ccccc2OC(=O)CCC[NH+]2CCOCC2)c/c1=C/c1[n-]c(=O)[n-]c1[O-] (nonaromatic ring conformer: 122.05660149685134 kcal/mol)

>  <smiles>  (72) 
C=c1ccc(Cc2ccccc2OC(=O)CCCN2CCOCC2)cc1=Cc1[nH]c(=O)[nH]c1O

>  <score_type>  (72) 
oracle

>  <origin>  (72) 
adg

>  <m_score__min__energy>  (72) 
-16.510000000000002

>  <m_primary>  (72) 
energy

$$$$
72:0
     RDKit          3D

 40 42  0  0  0  0  0  0  0  0999 V2000
   56.1730   29.5740   43.6850 C   0  0  0  0  0  0  0  0  0  0  0  0
   57.0910   29.5900   44.6640 C   0  0  0  0  0  0  0  0  0  0  0  0
   57.6670   28.4760   45.2950 C   0  0  0  0  0  0  0  0  0  0  0  0
   57.6490   27.1680   44.9740 C   0  0  0  0  0  0  0  0  0  0  0  0
   57.1820   26.0770   45.8460 C   0  0  0  0  0  0  0  0  0  0  0  0
   57.9830   25.1680   46.4340 N   0  0  0  0  0  0  0  0  0  0  0  0
   57.1380   24.4780   47.2300 C   0  0  0  0  0  0  0  0  0  0  0  0
   57.5170   23.5140   47.9460 O   0  0  0  0  0  0  0  0  0  0  0  0
   55.8590   24.9080   47.2070 N   0  0  0  0  0  0  0  0  0  0  0  0
   55.9090   25.9290   46.3380 C   0  0  0  0  0  0  0  0  0  0  0  0
   54.8130   26.7150   46.0040 O   0  0  0  0  0  0  0  0  0  0  0  0
   58.3400   28.9650   46.4020 C   0  0  0  0  0  0  0  0  0  0  0  0
   58.2040   30.3380   46.3830 C   0  0  0  0  0  0  0  0  0  0  0  0
   58.7720   31.2290   47.4120 C   0  0  0  0  0  0  0  0  0  0  0  0
   58.8770   30.8070   48.5960 O   0  0  0  0  0  0  0  0  0  0  0  0
   59.1460   32.5780   47.0950 N   0  0  0  0  0  0  0  0  0  0  0  0
   59.7810   33.4640   48.0670 C   0  0  0  0  0  0  0  0  0  0  0  0
   61.2760   33.3280   47.9990 C   0  0  0  0  0  0  0  0  0  0  0  0
   62.0200   32.9950   49.1450 C   0  0  0  0  0  0  0  0  0  0  0  0
   63.4120   32.8910   49.0750 C   0  0  0  0  0  0  0  0  0  0  0  0
   64.0730   33.1200   47.8650 C   0  0  0  0  0  0  0  0  0  0  0  0
   63.3410   33.4560   46.7220 C   0  0  0  0  0  0  0  0  0  0  0  0
   61.9480   33.5620   46.7880 C   0  0  0  0  0  0  0  0  0  0  0  0
   57.4770   30.7240   45.3050 N   0  0  0  0  0  0  0  0  0  0  0  0
   57.1570   32.1020   44.9160 C   0  0  0  0  0  0  0  0  0  0  0  0
   55.7961   30.5200   43.2689 H   0  0  0  0  0  0  0  0  0  0  0  0
   55.7975   28.6149   43.2987 H   0  0  0  0  0  0  0  0  0  0  0  0
   58.0147   26.8908   43.9743 H   0  0  0  0  0  0  0  0  0  0  0  0
   58.8806   28.3714   47.1540 H   0  0  0  0  0  0  0  0  0  0  0  0
   58.9020   32.9710   46.1580 H   0  0  0  0  0  0  0  0  0  0  0  0
   59.5010   34.5046   47.8464 H   0  0  0  0  0  0  0  0  0  0  0  0
   59.4425   33.1883   49.0766 H   0  0  0  0  0  0  0  0  0  0  0  0
   61.5045   32.8157   50.1000 H   0  0  0  0  0  0  0  0  0  0  0  0
   63.9886   32.6283   49.9742 H   0  0  0  0  0  0  0  0  0  0  0  0
   65.1685   33.0359   47.8119 H   0  0  0  0  0  0  0  0  0  0  0  0
   63.8613   33.6371   45.7699 H   0  0  0  0  0  0  0  0  0  0  0  0
   61.3760   33.8299   45.8874 H   0  0  0  0  0  0  0  0  0  0  0  0
   57.0148   32.7142   45.8188 H   0  0  0  0  0  0  0  0  0  0  0  0
   57.9830   32.5156   44.3188 H   0  0  0  0  0  0  0  0  0  0  0  0
   56.2333   32.1093   44.3188 H   0  0  0  0  0  0  0  0  0  0  0  0
  1  2  2  0
  2  3  1  0
  3  4  2  3
  4  5  1  0
  5  6  1  0
  6  7  1  0
  7  8  2  0
  7  9  1  0
  9 10  1  0
 10 11  1  0
  3 12  1  0
 12 13  2  0
 13 14  1  0
 14 15  2  0
 14 16  1  0
 16 17  1  0
 17 18  1  0
 18 19  2  0
 19 20  1  0
 20 21  2  0
 21 22  1  0
 22 23  2  0
 13 24  1  0
 24 25  1  0
 24  2  1  0
 10  5  2  0
 23 18  1  0
  1 26  1  0
  1 27  1  0
  4 28  1  0
 12 29  1  0
 16 30  1  0
 17 31  1  0
 17 32  1  0
 19 33  1  0
 20 34  1  0
 21 35  1  0
 22 36  1  0
 23 37  1  0
 25 38  1  0
 25 39  1  0
 25 40  1  0
M  CHG  3   6  -1   9  -1  11  -1
M  END
>  <UniqueID>  (73) 
69

>  <SMILES>  (73) 
C=c1c(=Cc2[n-]c(=O)[n-]c2[O-])cc(C(=O)NCc2ccccc2)n1C

>  <Energy>  (73) 
113.00374465052334

>  <Genealogy>  (73) 
C=c1c(=Cc2[n-]c(=O)[n-]c2[O-])cc(C(=O)NCc2ccccc2)n1C (protonated)
C=c1c(=Cc2[n-]c(=O)[n-]c2[O-])cc(C(=O)NCc2ccccc2)n1C (3D coordinates assigned)
C=c1c(=Cc2[n-]c(=O)[n-]c2[O-])cc(C(=O)NCc2ccccc2)n1C (optimized conformer: 113.00374465052334 kcal/mol)

>  <smiles>  (73) 
C=c1c(=Cc2[nH]c(=O)[nH]c2O)cc(C(=O)NCc2ccccc2)n1C

>  <score_type>  (73) 
oracle

>  <origin>  (73) 
adg

>  <m_score__min__energy>  (73) 
-17.739999999999998

>  <m_primary>  (73) 
energy

$$$$
73:0
     RDKit          3D

 43 46  0  0  0  0  0  0  0  0999 V2000
   58.0710   32.3900   49.5720 O   0  0  0  0  0  0  0  0  0  0  0  0
   59.0740   32.5460   48.8250 C   0  0  0  0  0  0  0  0  0  0  0  0
   60.3940   32.2230   49.2980 N   0  0  0  0  0  0  0  0  0  0  0  0
   61.5250   32.3660   48.6680 C   0  0  0  0  0  0  0  0  0  0  0  0
   62.1070   31.3510   47.9930 N   0  0  0  0  0  0  0  0  0  0  0  0
   63.2790   31.7180   47.4100 C   0  0  0  0  0  0  0  0  0  0  0  0
   63.6460   33.0430   47.6200 C   0  0  0  0  0  0  0  0  0  0  0  0
   62.4570   33.7700   48.5650 S   0  0  0  0  0  0  0  0  0  0  0  0
   58.8970   33.0660   47.4440 C   0  0  0  0  0  0  0  0  0  0  0  0
   58.4570   32.2050   46.4190 C   0  0  0  0  0  0  0  0  0  0  0  0
   58.2650   32.6780   45.1100 C   0  0  0  0  0  0  0  0  0  0  0  0
   57.7980   31.7420   44.0210 C   0  0  0  0  0  0  0  0  0  0  0  0
   57.3340   30.4240   44.5890 C   0  0  0  0  0  0  0  0  0  0  0  0
   56.0120   30.1150   44.4900 N   0  0  0  0  0  0  0  0  0  0  0  0
   55.5170   28.9650   44.9450 N   0  0  0  0  0  0  0  0  0  0  0  0
   56.3070   28.0320   45.5310 C   0  0  0  0  0  0  0  0  0  0  0  0
   55.7920   26.9650   45.9600 O   0  0  0  0  0  0  0  0  0  0  0  0
   57.6820   28.2710   45.6500 C   0  0  0  0  0  0  0  0  0  0  0  0
   58.2100   29.4830   45.1770 C   0  0  0  0  0  0  0  0  0  0  0  0
   59.6890   29.7240   45.3790 C   0  0  0  0  0  0  0  0  0  0  0  0
   60.4960   28.4780   44.9800 C   0  0  0  0  0  0  0  0  0  0  0  0
   59.9300   27.1480   45.5420 C   0  0  0  0  0  0  0  0  0  0  0  0
   58.6140   27.2930   46.3270 C   0  0  0  0  0  0  0  0  0  0  0  0
   58.5530   34.0190   44.8160 C   0  0  0  0  0  0  0  0  0  0  0  0
   58.9910   34.8800   45.8210 C   0  0  0  0  0  0  0  0  0  0  0  0
   59.1610   34.4160   47.1290 C   0  0  0  0  0  0  0  0  0  0  0  0
   59.5840   35.2920   48.0750 F   0  0  0  0  0  0  0  0  0  0  0  0
   61.7050   30.3900   47.9230 H   0  0  0  0  0  0  0  0  0  0  0  0
   63.8899   31.0208   46.8178 H   0  0  0  0  0  0  0  0  0  0  0  0
   64.5541   33.5307   47.2359 H   0  0  0  0  0  0  0  0  0  0  0  0
   58.2609   31.1469   46.6470 H   0  0  0  0  0  0  0  0  0  0  0  0
   56.9639   32.2115   43.4790 H   0  0  0  0  0  0  0  0  0  0  0  0
   58.6437   31.5487   43.3447 H   0  0  0  0  0  0  0  0  0  0  0  0
   60.0055   30.5747   44.7577 H   0  0  0  0  0  0  0  0  0  0  0  0
   59.8725   29.9420   46.4415 H   0  0  0  0  0  0  0  0  0  0  0  0
   60.5078   28.4115   43.8821 H   0  0  0  0  0  0  0  0  0  0  0  0
   61.5010   28.6009   45.4100 H   0  0  0  0  0  0  0  0  0  0  0  0
   59.7523   26.4665   44.6971 H   0  0  0  0  0  0  0  0  0  0  0  0
   60.6773   26.7670   46.2536 H   0  0  0  0  0  0  0  0  0  0  0  0
   58.1219   26.3111   46.3880 H   0  0  0  0  0  0  0  0  0  0  0  0
   58.8471   27.6716   47.3331 H   0  0  0  0  0  0  0  0  0  0  0  0
   58.4328   34.3926   43.7884 H   0  0  0  0  0  0  0  0  0  0  0  0
   59.2045   35.9325   45.5832 H   0  0  0  0  0  0  0  0  0  0  0  0
  1  2  2  0
  2  3  1  0
  3  4  2  3
  4  5  1  0
  5  6  1  0
  6  7  2  0
  7  8  1  0
  2  9  1  0
  9 10  2  0
 10 11  1  0
 11 12  1  0
 12 13  1  0
 13 14  2  0
 14 15  1  0
 15 16  1  0
 16 17  2  0
 16 18  1  0
 18 19  2  0
 19 20  1  0
 20 21  1  0
 21 22  1  0
 22 23  1  0
 11 24  2  0
 24 25  1  0
 25 26  2  0
 26 27  1  0
  8  4  1  0
 26  9  1  0
 19 13  1  0
 23 18  1  0
  5 28  1  0
  6 29  1  0
  7 30  1  0
 10 31  1  0
 12 32  1  0
 12 33  1  0
 20 34  1  0
 20 35  1  0
 21 36  1  0
 21 37  1  0
 22 38  1  0
 22 39  1  0
 23 40  1  0
 23 41  1  0
 24 42  1  0
 25 43  1  0
M  CHG  1  15  -1
M  END
>  <UniqueID>  (74) 
70

>  <SMILES>  (74) 
O=C(N=c1[nH]ccs1)c1cc(Cc2n[n-]c(=O)c3c2CCCC3)ccc1F

>  <Energy>  (74) 
89.23706829681944

>  <Genealogy>  (74) 
O=C(N=c1[nH]ccs1)c1cc(Cc2n[n-]c(=O)c3c2CCCC3)ccc1F (protonated)
O=C(N=c1[nH]ccs1)c1cc(Cc2n[n-]c(=O)c3c2CCCC3)ccc1F (3D coordinates assigned)
O=C(N=c1[nH]ccs1)c1cc(Cc2n[n-]c(=O)c3c2CCCC3)ccc1F (nonaromatic ring conformer: 89.23706829681944 kcal/mol)

>  <smiles>  (74) 
O=C(N=c1[nH]ccs1)c1cc(Cc2n[nH]c(=O)c3c2CCCC3)ccc1F

>  <score_type>  (74) 
oracle

>  <origin>  (74) 
adg

>  <m_score__min__energy>  (74) 
-11.550000000000001

>  <m_primary>  (74) 
energy

$$$$
74:0
     RDKit          3D

 50 53  0  0  0  0  0  0  0  0999 V2000
   58.1470   28.8690   46.1630 C   0  0  0  0  0  0  0  0  0  0  0  0
   58.3770   30.1420   46.8340 N   0  0  0  0  0  0  0  0  0  0  0  0
   58.9050   30.2230   48.0510 N   0  0  0  0  0  0  0  0  0  0  0  0
   59.0370   31.5290   48.3730 C   0  0  0  0  0  0  0  0  0  0  0  0
   59.6920   32.0250   49.6270 C   0  0  0  0  0  0  0  0  0  0  0  0
   59.6300   30.9740   50.7060 C   0  0  0  0  0  0  0  0  0  0  0  0
   60.5970   30.1720   50.8170 O   0  0  0  0  0  0  0  0  0  0  0  0
   58.4770   30.8210   51.5630 N   0  0  0  0  0  0  0  0  0  0  0  0
   57.6390   31.9620   51.9430 C   0  0  0  0  0  0  0  0  0  0  0  0
   56.1840   31.5940   51.7040 C   0  0  0  0  0  0  0  0  0  0  0  0
   55.7750   30.4840   52.6850 C   0  0  0  0  0  0  0  0  0  0  0  0
   54.4010   29.9180   52.3760 C   0  0  0  0  0  0  0  0  0  0  0  0
   54.3150   28.6860   52.1190 O   0  0  0  0  0  0  0  0  0  0  0  0
   53.1540   30.7240   52.3810 C   0  0  0  0  0  0  0  0  0  0  0  0
   52.3910   30.8130   53.5600 C   0  0  0  0  0  0  0  0  0  0  0  0
   51.2030   31.5500   53.5830 C   0  0  0  0  0  0  0  0  0  0  0  0
   50.7500   32.1850   52.4240 C   0  0  0  0  0  0  0  0  0  0  0  0
   51.4890   32.0900   51.2420 C   0  0  0  0  0  0  0  0  0  0  0  0
   51.0240   32.6970   50.0830 O   0  0  0  0  0  0  0  0  0  0  0  0
   52.6900   31.3730   51.2220 C   0  0  0  0  0  0  0  0  0  0  0  0
   56.8590   29.3870   52.9030 C   0  0  0  0  0  0  0  0  0  0  0  0
   58.1140   29.4600   51.9940 C   0  0  0  0  0  0  0  0  0  0  0  0
   58.5800   32.2910   47.3160 C   0  0  0  0  0  0  0  0  0  0  0  0
   58.5220   33.6680   47.1250 C   0  0  0  0  0  0  0  0  0  0  0  0
   58.0040   34.1360   45.9080 C   0  0  0  0  0  0  0  0  0  0  0  0
   57.5640   33.2270   44.9210 C   0  0  0  0  0  0  0  0  0  0  0  0
   57.6430   31.8350   45.1330 C   0  0  0  0  0  0  0  0  0  0  0  0
   57.0360   30.6720   43.7380 Br  0  0  0  0  0  0  0  0  0  0  0  0
   58.1660   31.3940   46.3630 C   0  0  0  0  0  0  0  0  0  0  0  0
   58.0042   28.0788   46.9148 H   0  0  0  0  0  0  0  0  0  0  0  0
   57.2477   28.9433   45.5339 H   0  0  0  0  0  0  0  0  0  0  0  0
   59.0154   28.6240   45.5339 H   0  0  0  0  0  0  0  0  0  0  0  0
   60.7444   32.2648   49.4152 H   0  0  0  0  0  0  0  0  0  0  0  0
   59.1610   32.9235   49.9744 H   0  0  0  0  0  0  0  0  0  0  0  0
   57.7922   32.1967   53.0067 H   0  0  0  0  0  0  0  0  0  0  0  0
   57.9080   32.8432   51.3421 H   0  0  0  0  0  0  0  0  0  0  0  0
   55.5499   32.4784   51.8642 H   0  0  0  0  0  0  0  0  0  0  0  0
   56.0580   31.2384   50.6707 H   0  0  0  0  0  0  0  0  0  0  0  0
   55.6957   30.9791   53.6641 H   0  0  0  0  0  0  0  0  0  0  0  0
   52.7318   30.2987   54.4707 H   0  0  0  0  0  0  0  0  0  0  0  0
   50.6242   31.6299   54.5150 H   0  0  0  0  0  0  0  0  0  0  0  0
   49.8121   32.7594   52.4420 H   0  0  0  0  0  0  0  0  0  0  0  0
   53.2762   31.3161   50.2930 H   0  0  0  0  0  0  0  0  0  0  0  0
   57.1986   29.4563   53.9470 H   0  0  0  0  0  0  0  0  0  0  0  0
   56.3674   28.4379   52.6429 H   0  0  0  0  0  0  0  0  0  0  0  0
   58.9647   29.0366   52.5480 H   0  0  0  0  0  0  0  0  0  0  0  0
   57.8724   28.8963   51.0808 H   0  0  0  0  0  0  0  0  0  0  0  0
   58.8702   34.3654   47.9011 H   0  0  0  0  0  0  0  0  0  0  0  0
   57.9402   35.2182   45.7215 H   0  0  0  0  0  0  0  0  0  0  0  0
   57.1543   33.6096   43.9745 H   0  0  0  0  0  0  0  0  0  0  0  0
  1  2  1  0
  2  3  1  0
  3  4  2  0
  4  5  1  0
  5  6  1  0
  6  7  2  0
  6  8  1  0
  8  9  1  0
  9 10  1  0
 10 11  1  0
 11 12  1  0
 12 13  2  0
 12 14  1  0
 14 15  2  0
 15 16  1  0
 16 17  2  0
 17 18  1  0
 18 19  1  0
 18 20  2  0
 11 21  1  0
 21 22  1  0
  4 23  1  0
 23 24  2  0
 24 25  1  0
 25 26  2  0
 26 27  1  0
 27 28  1  0
 27 29  2  0
 29  2  1  0
 22  8  1  0
 29 23  1  0
 20 14  1  0
  1 30  1  0
  1 31  1  0
  1 32  1  0
  5 33  1  0
  5 34  1  0
  9 35  1  0
  9 36  1  0
 10 37  1  0
 10 38  1  0
 11 39  1  0
 15 40  1  0
 16 41  1  0
 17 42  1  0
 20 43  1  0
 21 44  1  0
 21 45  1  0
 22 46  1  0
 22 47  1  0
 24 48  1  0
 25 49  1  0
 26 50  1  0
M  CHG  1  19  -1
M  END
>  <UniqueID>  (75) 
71

>  <SMILES>  (75) 
Cn1nc(CC(=O)N2CCC(C(=O)c3cccc([O-])c3)CC2)c2cccc(Br)c21

>  <Energy>  (75) 
99.9442711319819

>  <Genealogy>  (75) 
Cn1nc(CC(=O)N2CCC(C(=O)c3cccc([O-])c3)CC2)c2cccc(Br)c21 (protonated)
Cn1nc(CC(=O)N2CCC(C(=O)c3cccc([O-])c3)CC2)c2cccc(Br)c21 (3D coordinates assigned)
Cn1nc(CC(=O)N2CCC(C(=O)c3cccc([O-])c3)CC2)c2cccc(Br)c21 (nonaromatic ring conformer: 99.9442711319819 kcal/mol)

>  <smiles>  (75) 
Cn1nc(CC(=O)N2CCC(C(=O)c3cccc(O)c3)CC2)c2cccc(Br)c21

>  <score_type>  (75) 
oracle

>  <origin>  (75) 
adg

>  <m_score__min__energy>  (75) 
-13.57

>  <m_primary>  (75) 
energy

$$$$
75:0
     RDKit          3D

 42 44  0  0  0  0  0  0  0  0999 V2000
   55.1550   29.3270   44.8760 O   0  0  0  0  0  0  0  0  0  0  0  0
   56.3980   29.1650   44.7360 C   0  0  0  0  0  0  0  0  0  0  0  0
   57.1480   28.3330   45.7250 C   0  0  0  0  0  0  0  0  0  0  0  0
   56.6610   26.9200   45.6860 C   0  0  0  0  0  0  0  0  0  0  0  0
   57.4150   25.8110   45.3820 C   0  0  0  0  0  0  0  0  0  0  0  0
   56.6390   24.7180   45.4790 N   0  0  0  0  0  0  0  0  0  0  0  0
   55.4320   25.2030   45.8430 C   0  0  0  0  0  0  0  0  0  0  0  0
   55.4050   26.5440   45.9880 N   0  0  0  0  0  0  0  0  0  0  0  0
   57.0890   29.7590   43.6320 N   0  0  0  0  0  0  0  0  0  0  0  0
   57.5750   31.1370   43.6330 C   0  0  0  0  0  0  0  0  0  0  0  0
   57.0140   31.9180   44.8270 C   0  0  0  0  0  0  0  0  0  0  0  0
   57.9670   32.9750   45.3260 C   0  0  0  0  0  0  0  0  0  0  0  0
   58.2950   34.0730   44.5140 C   0  0  0  0  0  0  0  0  0  0  0  0
   59.1670   35.0590   44.9800 C   0  0  0  0  0  0  0  0  0  0  0  0
   59.7030   34.9710   46.2670 C   0  0  0  0  0  0  0  0  0  0  0  0
   59.3860   33.8810   47.0910 C   0  0  0  0  0  0  0  0  0  0  0  0
   59.9160   33.8180   48.4970 C   0  0  0  0  0  0  0  0  0  0  0  0
   61.4040   33.6020   48.4810 C   0  0  0  0  0  0  0  0  0  0  0  0
   62.0100   32.8910   47.4340 C   0  0  0  0  0  0  0  0  0  0  0  0
   63.3860   32.6620   47.4510 C   0  0  0  0  0  0  0  0  0  0  0  0
   64.1460   33.1410   48.5200 C   0  0  0  0  0  0  0  0  0  0  0  0
   63.5450   33.8170   49.5340 N   0  0  0  0  0  0  0  0  0  0  0  0
   62.2060   34.0510   49.5420 C   0  0  0  0  0  0  0  0  0  0  0  0
   58.5170   32.8850   46.6150 C   0  0  0  0  0  0  0  0  0  0  0  0
   58.2200   28.3547   45.4793 H   0  0  0  0  0  0  0  0  0  0  0  0
   56.9854   28.7409   46.7336 H   0  0  0  0  0  0  0  0  0  0  0  0
   58.4795   25.8174   45.1047 H   0  0  0  0  0  0  0  0  0  0  0  0
   54.5521   24.5634   46.0062 H   0  0  0  0  0  0  0  0  0  0  0  0
   58.6734   31.1307   43.6916 H   0  0  0  0  0  0  0  0  0  0  0  0
   57.2407   31.6266   42.7064 H   0  0  0  0  0  0  0  0  0  0  0  0
   56.0764   32.4049   44.5207 H   0  0  0  0  0  0  0  0  0  0  0  0
   56.8499   31.2027   45.6464 H   0  0  0  0  0  0  0  0  0  0  0  0
   57.8628   34.1566   43.5059 H   0  0  0  0  0  0  0  0  0  0  0  0
   59.4326   35.9073   44.3320 H   0  0  0  0  0  0  0  0  0  0  0  0
   60.3760   35.7592   46.6355 H   0  0  0  0  0  0  0  0  0  0  0  0
   59.6914   34.7633   49.0128 H   0  0  0  0  0  0  0  0  0  0  0  0
   59.4370   32.9799   49.0243 H   0  0  0  0  0  0  0  0  0  0  0  0
   61.4000   32.5142   46.5998 H   0  0  0  0  0  0  0  0  0  0  0  0
   63.8674   32.1097   46.6306 H   0  0  0  0  0  0  0  0  0  0  0  0
   65.2326   32.9709   48.5413 H   0  0  0  0  0  0  0  0  0  0  0  0
   61.7494   34.5940   50.3826 H   0  0  0  0  0  0  0  0  0  0  0  0
   58.2654   32.0279   47.2570 H   0  0  0  0  0  0  0  0  0  0  0  0
  1  2  2  0
  2  3  1  0
  3  4  1  0
  4  5  2  0
  5  6  1  0
  6  7  1  0
  7  8  2  0
  2  9  1  0
  9 10  1  0
 10 11  1  0
 11 12  1  0
 12 13  2  0
 13 14  1  0
 14 15  2  0
 15 16  1  0
 16 17  1  0
 17 18  1  0
 18 19  2  0
 19 20  1  0
 20 21  2  0
 21 22  1  0
 22 23  2  0
 16 24  2  0
  8  4  1  0
 24 12  1  0
 23 18  1  0
  3 25  1  0
  3 26  1  0
  5 27  1  0
  7 28  1  0
 10 29  1  0
 10 30  1  0
 11 31  1  0
 11 32  1  0
 13 33  1  0
 14 34  1  0
 15 35  1  0
 17 36  1  0
 17 37  1  0
 19 38  1  0
 20 39  1  0
 21 40  1  0
 23 41  1  0
 24 42  1  0
M  CHG  2   6  -1   9  -1
M  END
>  <UniqueID>  (76) 
72

>  <SMILES>  (76) 
O=C(Cc1c[n-]cn1)[N-]CCc1cccc(Cc2cccnc2)c1

>  <Energy>  (76) 
60.17952736486752

>  <Genealogy>  (76) 
O=C(Cc1c[n-]cn1)[N-]CCc1cccc(Cc2cccnc2)c1 (protonated)
O=C(Cc1c[n-]cn1)[N-]CCc1cccc(Cc2cccnc2)c1 (3D coordinates assigned)
O=C(Cc1c[n-]cn1)[N-]CCc1cccc(Cc2cccnc2)c1 (optimized conformer: 60.17952736486752 kcal/mol)

>  <smiles>  (76) 
O=C(Cc1c[nH]cn1)NCCc1cccc(Cc2cccnc2)c1

>  <score_type>  (76) 
oracle

>  <origin>  (76) 
adg

>  <m_score__min__energy>  (76) 
-11.57

>  <m_primary>  (76) 
energy

$$$$
76:0
     RDKit          3D

 45 47  0  0  0  0  0  0  0  0999 V2000
   57.6749   32.3662   43.9219 H   0  0  0  0  0  0  0  0  0  0  0  0
   57.8830   31.3140   44.1660 C   0  0  0  0  0  0  0  0  0  0  0  0
   57.8772   30.5535   43.3713 H   0  0  0  0  0  0  0  0  0  0  0  0
   58.1440   30.9580   45.4340 C   0  0  0  0  0  0  0  0  0  0  0  0
   58.4280   29.6670   45.9120 C   0  0  0  0  0  0  0  0  0  0  0  0
   58.3710   28.4630   45.3080 C   0  0  0  0  0  0  0  0  0  0  0  0
   59.0216   28.3080   44.4346 H   0  0  0  0  0  0  0  0  0  0  0  0
   57.5110   27.3340   45.7170 C   0  0  0  0  0  0  0  0  0  0  0  0
   56.1170   27.4350   45.6160 C   0  0  0  0  0  0  0  0  0  0  0  0
   55.5210   28.6120   45.1790 O   0  0  0  0  0  0  0  0  0  0  0  0
   55.3340   26.3770   45.9550 N   0  0  0  0  0  0  0  0  0  0  0  0
   55.8800   25.2080   46.3780 C   0  0  0  0  0  0  0  0  0  0  0  0
   55.1360   24.2440   46.6910 O   0  0  0  0  0  0  0  0  0  0  0  0
   57.2290   25.0770   46.4570 N   0  0  0  0  0  0  0  0  0  0  0  0
   58.0540   26.1040   46.1290 C   0  0  0  0  0  0  0  0  0  0  0  0
   59.3020   25.9410   46.1940 O   0  0  0  0  0  0  0  0  0  0  0  0
   58.7900   29.8170   47.2400 C   0  0  0  0  0  0  0  0  0  0  0  0
   59.1093   29.0185   47.9258 H   0  0  0  0  0  0  0  0  0  0  0  0
   58.6740   31.1580   47.5390 C   0  0  0  0  0  0  0  0  0  0  0  0
   58.9170   31.7440   48.8980 C   0  0  0  0  0  0  0  0  0  0  0  0
   58.6164   31.0192   49.6689 H   0  0  0  0  0  0  0  0  0  0  0  0
   59.9860   31.9773   49.0109 H   0  0  0  0  0  0  0  0  0  0  0  0
   58.3268   32.6653   49.0109 H   0  0  0  0  0  0  0  0  0  0  0  0
   58.2720   31.8530   46.4500 N   0  0  0  0  0  0  0  0  0  0  0  0
   58.0700   33.3090   46.3830 C   0  0  0  0  0  0  0  0  0  0  0  0
   57.5657   33.5583   45.4377 H   0  0  0  0  0  0  0  0  0  0  0  0
   57.4558   33.6157   47.2424 H   0  0  0  0  0  0  0  0  0  0  0  0
   59.3800   34.0420   46.4480 C   0  0  0  0  0  0  0  0  0  0  0  0
   59.3890   35.2510   46.8060 O   0  0  0  0  0  0  0  0  0  0  0  0
   60.6140   33.3630   46.1700 N   0  0  0  0  0  0  0  0  0  0  0  0
   60.5940   32.3700   45.8430 H   0  0  0  0  0  0  0  0  0  0  0  0
   61.9170   33.9970   46.3570 C   0  0  0  0  0  0  0  0  0  0  0  0
   62.5997   33.6688   45.5594 H   0  0  0  0  0  0  0  0  0  0  0  0
   61.7961   35.0896   46.3180 H   0  0  0  0  0  0  0  0  0  0  0  0
   62.4890   33.6110   47.6920 C   0  0  0  0  0  0  0  0  0  0  0  0
   61.8850   34.0470   48.8840 C   0  0  0  0  0  0  0  0  0  0  0  0
   61.0000   34.6990   48.8433 H   0  0  0  0  0  0  0  0  0  0  0  0
   62.4050   33.6550   50.1210 C   0  0  0  0  0  0  0  0  0  0  0  0
   61.9319   34.0035   51.0509 H   0  0  0  0  0  0  0  0  0  0  0  0
   63.5250   32.8210   50.1780 C   0  0  0  0  0  0  0  0  0  0  0  0
   63.9336   32.5147   51.1523 H   0  0  0  0  0  0  0  0  0  0  0  0
   64.1260   32.3760   48.9970 C   0  0  0  0  0  0  0  0  0  0  0  0
   65.0066   31.7183   49.0426 H   0  0  0  0  0  0  0  0  0  0  0  0
   63.6090   32.7660   47.7580 C   0  0  0  0  0  0  0  0  0  0  0  0
   64.0814   32.4095   46.8308 H   0  0  0  0  0  0  0  0  0  0  0  0
  1  2  1  0
  2  3  1  0
  2  4  2  0
  4  5  1  0
  5  6  2  0
  6  7  1  0
  6  8  1  0
  8  9  2  0
  9 10  1  0
  9 11  1  0
 11 12  1  0
 12 13  2  0
 12 14  1  0
 14 15  1  0
 15 16  2  0
  5 17  1  0
 17 18  1  0
 17 19  2  0
 19 20  1  0
 20 21  1  0
 20 22  1  0
 20 23  1  0
 19 24  1  0
 24 25  1  0
 25 26  1  0
 25 27  1  0
 25 28  1  0
 28 29  2  0
 28 30  1  0
 30 31  1  0
 30 32  1  0
 32 33  1  0
 32 34  1  0
 32 35  1  0
 35 36  2  0
 36 37  1  0
 36 38  1  0
 38 39  1  0
 38 40  2  0
 40 41  1  0
 40 42  1  0
 42 43  1  0
 42 44  2  0
 44 45  1  0
 24  4  1  0
 44 35  1  0
 15  8  1  0
M  CHG  3  10  -1  11  -1  14  -1
M  END
>  <UniqueID>  (77) 
73

>  <SMILES>  (77) 
C=c1/c(=C\c2c([O-])[n-]c(=O)[n-]c2=O)cc(C)n1CC(=O)NCc1ccccc1

>  <Energy>  (77) 
86.1563250521952

>  <Genealogy>  (77) 
C=c1c(=Cc2c([O-])[n-]c(=O)[n-]c2=O)cc(C)n1CC(=O)NCc1ccccc1 (protonated)
C=c1/c(=C\c2c([O-])[n-]c(=O)[n-]c2=O)cc(C)n1CC(=O)NCc1ccccc1 (cis-trans isomerization)
C=c1/c(=C\c2c([O-])[n-]c(=O)[n-]c2=O)cc(C)n1CC(=O)NCc1ccccc1 (3D coordinates assigned)
C=c1/c(=C\c2c([O-])[n-]c(=O)[n-]c2=O)cc(C)n1CC(=O)NCc1ccccc1 (optimized conformer: 86.1563250521952 kcal/mol)

>  <smiles>  (77) 
C=c1c(=Cc2c(O)[nH]c(=O)[nH]c2=O)cc(C)n1CC(=O)NCc1ccccc1

>  <score_type>  (77) 
oracle

>  <origin>  (77) 
adg

>  <m_score__min__energy>  (77) 
-16.390000000000001

>  <m_primary>  (77) 
energy

$$$$
77:0
     RDKit          3D

 43 44  0  0  0  0  0  0  0  0999 V2000
   62.8240   33.2900   47.0880 C   0  0  0  0  0  0  0  0  0  0  0  0
   62.3910   32.4430   48.2800 C   0  0  0  0  0  0  0  0  0  0  0  0
   61.0380   31.9040   48.0620 N   0  0  0  0  0  0  0  0  0  0  0  0
   59.9190   32.4830   48.8230 C   0  0  0  0  0  0  0  0  0  0  0  0
   60.2680   33.8850   49.3150 C   0  0  0  0  0  0  0  0  0  0  0  0
   60.8510   30.8040   47.1360 C   0  0  0  0  0  0  0  0  0  0  0  0
   61.8170   30.4430   46.4080 O   0  0  0  0  0  0  0  0  0  0  0  0
   59.5870   30.1180   47.0250 N   0  0  0  0  0  0  0  0  0  0  0  0
   59.3950   28.9340   46.2300 C   0  0  0  0  0  0  0  0  0  0  0  0
   60.3890   28.2840   45.8050 O   0  0  0  0  0  0  0  0  0  0  0  0
   58.0390   28.4230   45.9570 C   0  0  0  0  0  0  0  0  0  0  0  0
   57.5550   27.2840   46.4780 N   0  0  0  0  0  0  0  0  0  0  0  0
   56.3000   27.1960   46.0020 C   0  0  0  0  0  0  0  0  0  0  0  0
   55.5220   26.2480   46.2820 O   0  0  0  0  0  0  0  0  0  0  0  0
   55.9520   28.2140   45.1880 N   0  0  0  0  0  0  0  0  0  0  0  0
   57.0520   28.9960   45.1670 C   0  0  0  0  0  0  0  0  0  0  0  0
   57.2110   30.1650   44.2790 C   0  0  0  0  0  0  0  0  0  0  0  0
   56.7130   31.3850   44.5270 C   0  0  0  0  0  0  0  0  0  0  0  0
   57.5070   32.5500   44.9730 C   0  0  0  0  0  0  0  0  0  0  0  0
   58.4570   33.1090   44.1030 C   0  0  0  0  0  0  0  0  0  0  0  0
   59.2400   34.1920   44.5170 C   0  0  0  0  0  0  0  0  0  0  0  0
   59.0950   34.7090   45.8090 C   0  0  0  0  0  0  0  0  0  0  0  0
   58.1760   34.1370   46.6910 C   0  0  0  0  0  0  0  0  0  0  0  0
   57.3890   33.0560   46.2800 C   0  0  0  0  0  0  0  0  0  0  0  0
   63.2971   34.2154   47.4483 H   0  0  0  0  0  0  0  0  0  0  0  0
   63.5433   32.7239   46.4780 H   0  0  0  0  0  0  0  0  0  0  0  0
   61.9439   33.5416   46.4780 H   0  0  0  0  0  0  0  0  0  0  0  0
   63.0971   31.6093   48.4078 H   0  0  0  0  0  0  0  0  0  0  0  0
   62.3832   33.0732   49.1816 H   0  0  0  0  0  0  0  0  0  0  0  0
   59.0321   32.5384   48.1747 H   0  0  0  0  0  0  0  0  0  0  0  0
   59.7160   31.8432   49.6945 H   0  0  0  0  0  0  0  0  0  0  0  0
   60.2711   33.8974   50.4149 H   0  0  0  0  0  0  0  0  0  0  0  0
   61.2638   34.1671   48.9423 H   0  0  0  0  0  0  0  0  0  0  0  0
   59.5207   34.6010   48.9423 H   0  0  0  0  0  0  0  0  0  0  0  0
   58.7670   30.4550   47.5680 H   0  0  0  0  0  0  0  0  0  0  0  0
   58.0390   26.6170   47.1200 H   0  0  0  0  0  0  0  0  0  0  0  0
   57.7787   30.0250   43.3473 H   0  0  0  0  0  0  0  0  0  0  0  0
   55.6315   31.5303   44.3881 H   0  0  0  0  0  0  0  0  0  0  0  0
   58.5860   32.6940   43.0925 H   0  0  0  0  0  0  0  0  0  0  0  0
   59.9706   34.6376   43.8258 H   0  0  0  0  0  0  0  0  0  0  0  0
   59.7051   35.5662   46.1300 H   0  0  0  0  0  0  0  0  0  0  0  0
   58.0707   34.5369   47.7103 H   0  0  0  0  0  0  0  0  0  0  0  0
   56.6751   32.5999   46.9817 H   0  0  0  0  0  0  0  0  0  0  0  0
  1  2  1  0
  2  3  1  0
  3  4  1  0
  4  5  1  0
  3  6  1  0
  6  7  2  0
  6  8  1  0
  8  9  1  0
  9 10  2  0
  9 11  1  0
 11 12  1  0
 12 13  1  0
 13 14  2  0
 13 15  1  0
 15 16  1  0
 16 17  1  0
 17 18  2  3
 18 19  1  0
 19 20  2  0
 20 21  1  0
 21 22  2  0
 22 23  1  0
 23 24  2  0
 16 11  2  0
 24 19  1  0
  1 25  1  0
  1 26  1  0
  1 27  1  0
  2 28  1  0
  2 29  1  0
  4 30  1  0
  4 31  1  0
  5 32  1  0
  5 33  1  0
  5 34  1  0
  8 35  1  0
 12 36  1  0
 17 37  1  0
 18 38  1  0
 20 39  1  0
 21 40  1  0
 22 41  1  0
 23 42  1  0
 24 43  1  0
M  CHG  1  15  -1
M  END
>  <UniqueID>  (78) 
74

>  <SMILES>  (78) 
CCN(CC)C(=O)NC(=O)c1[nH]c(=O)[n-]c1C=Cc1ccccc1

>  <Energy>  (78) 
76.32086960887877

>  <Genealogy>  (78) 
CCN(CC)C(=O)NC(=O)c1[nH]c(=O)[n-]c1C=Cc1ccccc1 (protonated)
CCN(CC)C(=O)NC(=O)c1[nH]c(=O)[n-]c1C=Cc1ccccc1 (3D coordinates assigned)
CCN(CC)C(=O)NC(=O)c1[nH]c(=O)[n-]c1C=Cc1ccccc1 (optimized conformer: 76.32086960887877 kcal/mol)

>  <smiles>  (78) 
CCN(CC)C(=O)NC(=O)c1[nH]c(=O)[nH]c1C=Cc1ccccc1

>  <score_type>  (78) 
oracle

>  <origin>  (78) 
adg

>  <m_score__min__energy>  (78) 
-9.0299999999999994

>  <m_primary>  (78) 
energy

$$$$
78:0
     RDKit          3D

 33 35  0  0  0  0  0  0  0  0999 V2000
   56.1070   31.2280   44.1440 O   0  0  0  0  0  0  0  0  0  0  0  0
   57.2790   30.9010   44.4770 C   0  0  0  0  0  0  0  0  0  0  0  0
   58.3170   31.8310   44.3460 O   0  0  0  0  0  0  0  0  0  0  0  0
   58.1580   33.2150   44.6400 C   0  0  0  0  0  0  0  0  0  0  0  0
   58.9720   33.5590   45.8540 C   0  0  0  0  0  0  0  0  0  0  0  0
   60.3390   33.8560   45.7240 C   0  0  0  0  0  0  0  0  0  0  0  0
   61.1090   34.1410   46.8570 C   0  0  0  0  0  0  0  0  0  0  0  0
   60.5230   34.1200   48.1250 C   0  0  0  0  0  0  0  0  0  0  0  0
   59.1690   33.8080   48.2650 C   0  0  0  0  0  0  0  0  0  0  0  0
   58.3930   33.5220   47.1360 C   0  0  0  0  0  0  0  0  0  0  0  0
   57.0830   33.2040   47.2940 F   0  0  0  0  0  0  0  0  0  0  0  0
   57.5610   29.5370   45.0060 C   0  0  0  0  0  0  0  0  0  0  0  0
   56.5170   28.6180   45.2520 C   0  0  0  0  0  0  0  0  0  0  0  0
   55.1900   28.9710   45.0180 O   0  0  0  0  0  0  0  0  0  0  0  0
   56.8170   27.3410   45.7480 C   0  0  0  0  0  0  0  0  0  0  0  0
   55.8160   26.3870   46.0100 C   0  0  0  0  0  0  0  0  0  0  0  0
   56.1610   25.1250   46.5080 C   0  0  0  0  0  0  0  0  0  0  0  0
   55.1700   24.1870   46.7650 O   0  0  0  0  0  0  0  0  0  0  0  0
   57.5010   24.8090   46.7480 C   0  0  0  0  0  0  0  0  0  0  0  0
   58.5020   25.7500   46.4910 C   0  0  0  0  0  0  0  0  0  0  0  0
   58.1670   27.0140   45.9930 C   0  0  0  0  0  0  0  0  0  0  0  0
   59.1240   27.9000   45.7530 O   0  0  0  0  0  0  0  0  0  0  0  0
   58.8830   29.1180   45.2810 C   0  0  0  0  0  0  0  0  0  0  0  0
   59.8610   29.8850   45.0730 O   0  0  0  0  0  0  0  0  0  0  0  0
   58.5021   33.8147   43.7844 H   0  0  0  0  0  0  0  0  0  0  0  0
   57.0970   33.4321   44.8330 H   0  0  0  0  0  0  0  0  0  0  0  0
   60.8056   33.8645   44.7279 H   0  0  0  0  0  0  0  0  0  0  0  0
   62.1769   34.3818   46.7492 H   0  0  0  0  0  0  0  0  0  0  0  0
   61.1287   34.3495   49.0141 H   0  0  0  0  0  0  0  0  0  0  0  0
   58.7113   33.7870   49.2650 H   0  0  0  0  0  0  0  0  0  0  0  0
   54.7604   26.6335   45.8231 H   0  0  0  0  0  0  0  0  0  0  0  0
   57.7687   23.8168   47.1403 H   0  0  0  0  0  0  0  0  0  0  0  0
   59.5554   25.4964   46.6806 H   0  0  0  0  0  0  0  0  0  0  0  0
  1  2  2  0
  2  3  1  0
  3  4  1  0
  4  5  1  0
  5  6  2  0
  6  7  1  0
  7  8  2  0
  8  9  1  0
  9 10  2  0
 10 11  1  0
  2 12  1  0
 12 13  2  0
 13 14  1  0
 13 15  1  0
 15 16  2  0
 16 17  1  0
 17 18  1  0
 17 19  2  0
 19 20  1  0
 20 21  2  0
 21 22  1  0
 22 23  1  0
 23 24  2  0
 10  5  1  0
 23 12  1  0
 21 15  1  0
  4 25  1  0
  4 26  1  0
  6 27  1  0
  7 28  1  0
  8 29  1  0
  9 30  1  0
 16 31  1  0
 19 32  1  0
 20 33  1  0
M  CHG  2  14  -1  18  -1
M  END
>  <UniqueID>  (79) 
75

>  <SMILES>  (79) 
O=C(OCc1ccccc1F)c1c([O-])c2cc([O-])ccc2oc1=O

>  <Energy>  (79) 
43.183074554780994

>  <Genealogy>  (79) 
O=C(OCc1ccccc1F)c1c([O-])c2cc([O-])ccc2oc1=O (protonated)
O=C(OCc1ccccc1F)c1c([O-])c2cc([O-])ccc2oc1=O (3D coordinates assigned)
O=C(OCc1ccccc1F)c1c([O-])c2cc([O-])ccc2oc1=O (optimized conformer: 43.183074554780994 kcal/mol)

>  <smiles>  (79) 
O=C(OCc1ccccc1F)c1c(O)c2cc(O)ccc2oc1=O

>  <score_type>  (79) 
oracle

>  <origin>  (79) 
adg

>  <m_score__min__energy>  (79) 
-12.93

>  <m_primary>  (79) 
energy

$$$$
79:0
     RDKit          3D

 46 49  0  0  0  0  0  0  0  0999 V2000
   62.5290   30.3270   51.4130 H   0  0  0  0  0  0  0  0  0  0  0  0
   61.6380   29.8870   51.2100 O   0  0  0  0  0  0  0  0  0  0  0  0
   60.9760   30.0940   50.0010 C   0  0  0  0  0  0  0  0  0  0  0  0
   59.7650   29.4320   49.7580 C   0  0  0  0  0  0  0  0  0  0  0  0
   59.3301   28.7867   50.5355 H   0  0  0  0  0  0  0  0  0  0  0  0
   59.1070   29.5850   48.5380 C   0  0  0  0  0  0  0  0  0  0  0  0
   58.1519   29.0682   48.3624 H   0  0  0  0  0  0  0  0  0  0  0  0
   59.6570   30.3940   47.5350 C   0  0  0  0  0  0  0  0  0  0  0  0
   58.9770   30.5320   46.2240 C   0  0  0  0  0  0  0  0  0  0  0  0
   58.2260   31.6930   45.9800 C   0  0  0  0  0  0  0  0  0  0  0  0
   58.2160   32.5011   46.7262 H   0  0  0  0  0  0  0  0  0  0  0  0
   57.4920   31.8330   44.8010 C   0  0  0  0  0  0  0  0  0  0  0  0
   56.9046   32.7466   44.6270 H   0  0  0  0  0  0  0  0  0  0  0  0
   57.5000   30.8160   43.8390 C   0  0  0  0  0  0  0  0  0  0  0  0
   56.6680   30.9440   42.5980 C   0  0  0  0  0  0  0  0  0  0  0  0
   55.6163   31.1058   42.8767 H   0  0  0  0  0  0  0  0  0  0  0  0
   57.0253   31.7977   42.0035 H   0  0  0  0  0  0  0  0  0  0  0  0
   56.7521   30.0223   42.0035 H   0  0  0  0  0  0  0  0  0  0  0  0
   58.2410   29.6500   44.0740 C   0  0  0  0  0  0  0  0  0  0  0  0
   58.2204   28.8358   43.3346 H   0  0  0  0  0  0  0  0  0  0  0  0
   59.0090   29.5070   45.2400 C   0  0  0  0  0  0  0  0  0  0  0  0
   59.8190   28.2750   45.3840 C   0  0  0  0  0  0  0  0  0  0  0  0
   60.6203   28.0775   44.6567 H   0  0  0  0  0  0  0  0  0  0  0  0
   59.6080   27.3930   46.3710 C   0  0  0  0  0  0  0  0  0  0  0  0
   60.3423   27.3461   47.1887 H   0  0  0  0  0  0  0  0  0  0  0  0
   58.4450   26.4780   46.4260 C   0  0  0  0  0  0  0  0  0  0  0  0
   58.5730   25.1050   46.7230 C   0  0  0  0  0  0  0  0  0  0  0  0
   59.5671   24.6780   46.9216 H   0  0  0  0  0  0  0  0  0  0  0  0
   57.4410   24.2840   46.7660 C   0  0  0  0  0  0  0  0  0  0  0  0
   57.5760   22.9320   47.0590 O   0  0  0  0  0  0  0  0  0  0  0  0
   56.1740   24.8210   46.5190 C   0  0  0  0  0  0  0  0  0  0  0  0
   55.2862   24.1721   46.5473 H   0  0  0  0  0  0  0  0  0  0  0  0
   56.0360   26.1830   46.2360 C   0  0  0  0  0  0  0  0  0  0  0  0
   54.7760   26.7160   45.9960 O   0  0  0  0  0  0  0  0  0  0  0  0
   57.1640   27.0070   46.1950 C   0  0  0  0  0  0  0  0  0  0  0  0
   57.0479   28.0795   45.9799 H   0  0  0  0  0  0  0  0  0  0  0  0
   60.8570   31.0760   47.7820 C   0  0  0  0  0  0  0  0  0  0  0  0
   61.2833   31.7233   47.0015 H   0  0  0  0  0  0  0  0  0  0  0  0
   61.5240   30.9440   49.0150 C   0  0  0  0  0  0  0  0  0  0  0  0
   62.7940   31.6820   49.2240 C   0  0  0  0  0  0  0  0  0  0  0  0
   63.6640   31.4000   50.2140 N   0  0  0  0  0  0  0  0  0  0  0  0
   64.7050   32.2110   50.1040 N   0  0  0  0  0  0  0  0  0  0  0  0
   64.5110   33.0120   49.0390 C   0  0  0  0  0  0  0  0  0  0  0  0
   65.2069   33.7914   48.6951 H   0  0  0  0  0  0  0  0  0  0  0  0
   63.3060   32.7040   48.4470 C   0  0  0  0  0  0  0  0  0  0  0  0
   62.8537   33.1666   47.5574 H   0  0  0  0  0  0  0  0  0  0  0  0
  1  2  1  0
  2  3  1  0
  3  4  2  0
  4  5  1  0
  4  6  1  0
  6  7  1  0
  6  8  2  0
  8  9  1  0
  9 10  2  0
 10 11  1  0
 10 12  1  0
 12 13  1  0
 12 14  2  0
 14 15  1  0
 15 16  1  0
 15 17  1  0
 15 18  1  0
 14 19  1  0
 19 20  1  0
 19 21  2  0
 21 22  1  0
 22 23  1  0
 22 24  2  0
 24 25  1  0
 24 26  1  0
 26 27  2  0
 27 28  1  0
 27 29  1  0
 29 30  1  0
 29 31  2  0
 31 32  1  0
 31 33  1  0
 33 34  1  0
 33 35  2  0
 35 36  1  0
  8 37  1  0
 37 38  1  0
 37 39  2  0
 39 40  1  0
 40 41  2  0
 41 42  1  0
 42 43  1  0
 43 44  1  0
 43 45  2  0
 45 46  1  0
 39  3  1  0
 45 40  1  0
 21  9  1  0
 35 26  1  0
M  CHG  3  30  -1  34  -1  42  -1
M  END
>  <UniqueID>  (80) 
76

>  <SMILES>  (80) 
Cc1ccc(-c2ccc(O)c(-c3cc[n-]n3)c2)c(/C=C/c2cc([O-])cc([O-])c2)c1

>  <Energy>  (80) 
96.28166964356183

>  <Genealogy>  (80) 
Cc1ccc(-c2ccc(O)c(-c3cc[n-]n3)c2)c(C=Cc2cc([O-])cc([O-])c2)c1 (protonated)
Cc1ccc(-c2ccc(O)c(-c3cc[n-]n3)c2)c(/C=C/c2cc([O-])cc([O-])c2)c1 (cis-trans isomerization)
Cc1ccc(-c2ccc(O)c(-c3cc[n-]n3)c2)c(/C=C/c2cc([O-])cc([O-])c2)c1 (3D coordinates assigned)
Cc1ccc(-c2ccc(O)c(-c3cc[n-]n3)c2)c(/C=C/c2cc([O-])cc([O-])c2)c1 (optimized conformer: 96.28166964356183 kcal/mol)

>  <smiles>  (80) 
Cc1ccc(-c2ccc(O)c(-c3cc[nH]n3)c2)c(C=Cc2cc(O)cc(O)c2)c1

>  <score_type>  (80) 
oracle

>  <origin>  (80) 
adg

>  <m_score__min__energy>  (80) 
-15.449999999999999

>  <m_primary>  (80) 
energy

$$$$
80:0
     RDKit          3D

 58 61  0  0  1  0  0  0  0  0999 V2000
   59.8860   32.4760   49.9270 O   0  0  0  0  0  0  0  0  0  0  0  0
   59.7170   33.7330   50.0340 C   0  0  0  0  0  0  0  0  0  0  0  0
   60.2640   34.5590   49.0120 N   0  0  0  0  0  0  0  0  0  0  0  0
   59.6890   34.4500   47.8420 C   0  0  0  0  0  0  0  0  0  0  0  0
   59.2610   33.2710   47.2260 C   0  0  0  0  0  0  0  0  0  0  0  0
   58.7160   33.6190   46.0080 C   0  0  0  0  0  0  0  0  0  0  0  0
   58.1560   32.6510   45.0700 C   0  0  0  0  0  0  0  0  0  0  0  0
   57.9890   33.0030   43.8760 O   0  0  0  0  0  0  0  0  0  0  0  0
   57.7940   31.3390   45.4400 N   0  0  0  0  0  0  0  0  0  0  0  0
   57.2480   30.4780   44.4070 C   0  0  0  0  0  0  0  0  0  0  0  0
   57.5400   29.0510   44.6260 C   0  0  0  0  0  0  0  0  0  0  0  0
   58.6780   28.4230   44.1580 C   0  0  0  0  0  0  0  0  0  0  0  0
   58.8370   27.0740   44.4320 C   0  0  0  0  0  0  0  0  0  0  0  0
   57.9060   26.3500   45.1500 C   0  0  0  0  0  0  0  0  0  0  0  0
   58.1630   24.6470   45.4650 S   0  0  0  0  0  0  0  0  0  0  0  0
   59.5610   24.3670   45.9560 O   0  0  0  0  0  0  0  0  0  0  0  0
   57.2270   24.1540   46.5410 O   0  0  0  0  0  0  0  0  0  0  0  0
   57.9450   23.7000   44.0480 N   0  0  0  0  0  0  0  0  0  0  0  0
   56.6410   23.8870   43.4440 C   0  0  0  0  0  0  0  0  0  0  0  0
   56.3400   22.5920   42.6950 C   0  0  0  0  0  0  0  0  0  0  0  0
   56.0650   21.5490   43.5710 O   0  0  0  0  0  0  0  0  0  0  0  0
   56.7300   21.7490   44.7910 C   0  0  0  0  0  0  0  0  0  0  0  0
   58.1010   22.3050   44.4390 C   0  0  0  0  0  0  0  0  0  0  0  0
   56.7650   26.9760   45.6210 C   0  0  0  0  0  0  0  0  0  0  0  0
   56.5940   28.3220   45.3550 C   0  0  0  0  0  0  0  0  0  0  0  0
   58.8080   34.9510   45.8910 N   0  0  0  0  0  0  0  0  0  0  0  0
   59.3880   35.4470   46.9840 N   0  0  0  0  0  0  0  0  0  0  0  0
   59.0020   34.2470   51.1510 N   0  0  0  0  0  0  0  0  0  0  0  0
   58.5130   33.3030   52.0940 C   0  0  0  0  0  0  0  0  0  0  0  0
   59.0910   33.0930   53.3280 C   0  0  0  0  0  0  0  0  0  0  0  0
   58.5130   32.1370   54.1560 C   0  0  0  0  0  0  0  0  0  0  0  0
   57.4010   31.4200   53.7630 C   0  0  0  0  0  0  0  0  0  0  0  0
   56.8190   31.6220   52.5330 C   0  0  0  0  0  0  0  0  0  0  0  0
   55.4080   30.7370   51.9900 Cl  0  0  0  0  0  0  0  0  0  0  0  0
   57.3950   32.5720   51.7130 C   0  0  0  0  0  0  0  0  0  0  0  0
   59.3435   32.2538   47.6366 H   0  0  0  0  0  0  0  0  0  0  0  0
   57.9280   31.0410   46.4180 H   0  0  0  0  0  0  0  0  0  0  0  0
   56.1564   30.6115   44.3817 H   0  0  0  0  0  0  0  0  0  0  0  0
   57.7220   30.7664   43.4572 H   0  0  0  0  0  0  0  0  0  0  0  0
   59.4356   28.9775   43.5847 H   0  0  0  0  0  0  0  0  0  0  0  0
   59.7379   26.5612   44.0640 H   0  0  0  0  0  0  0  0  0  0  0  0
   55.8818   24.0662   44.2196 H   0  0  0  0  0  0  0  0  0  0  0  0
   56.6278   24.7566   42.7705 H   0  0  0  0  0  0  0  0  0  0  0  0
   55.4683   22.7505   42.0431 H   0  0  0  0  0  0  0  0  0  0  0  0
   57.2272   22.3212   42.1037 H   0  0  0  0  0  0  0  0  0  0  0  0
   56.1760   22.4662   45.4145 H   0  0  0  0  0  0  0  0  0  0  0  0
   56.8112   20.8125   45.3622 H   0  0  0  0  0  0  0  0  0  0  0  0
   58.7654   22.2362   45.3130 H   0  0  0  0  0  0  0  0  0  0  0  0
   58.5422   21.7280   43.6129 H   0  0  0  0  0  0  0  0  0  0  0  0
   56.0115   26.4155   46.1938 H   0  0  0  0  0  0  0  0  0  0  0  0
   55.6925   28.8320   45.7254 H   0  0  0  0  0  0  0  0  0  0  0  0
   58.4800   35.5230   45.0750 H   0  0  0  0  0  0  0  0  0  0  0  0
   59.5850   36.4720   47.1560 H   0  0  0  0  0  0  0  0  0  0  0  0
   58.8620   35.2820   51.2420 H   0  0  0  0  0  0  0  0  0  0  0  0
   59.9775   33.6613   53.6461 H   0  0  0  0  0  0  0  0  0  0  0  0
   58.9520   31.9479   55.1467 H   0  0  0  0  0  0  0  0  0  0  0  0
   56.9719   30.6726   54.4465 H   0  0  0  0  0  0  0  0  0  0  0  0
   56.9528   32.7565   50.7228 H   0  0  0  0  0  0  0  0  0  0  0  0
  1  2  2  0
  2  3  1  0
  3  4  2  0
  4  5  1  0
  5  6  2  0
  6  7  1  0
  7  8  2  0
  7  9  1  0
  9 10  1  0
 10 11  1  0
 11 12  2  0
 12 13  1  0
 13 14  2  0
 14 15  1  0
 15 16  2  0
 15 17  2  0
 15 18  1  0
 18 19  1  0
 19 20  1  0
 20 21  1  0
 21 22  1  0
 22 23  1  0
 14 24  1  0
 24 25  2  0
  6 26  1  0
 26 27  1  0
  2 28  1  0
 28 29  1  0
 29 30  2  0
 30 31  1  0
 31 32  2  0
 32 33  1  0
 33 34  1  0
 33 35  2  0
 27  4  1  0
 35 29  1  0
 25 11  1  0
 23 18  1  0
  5 36  1  0
  9 37  1  0
 10 38  1  0
 10 39  1  0
 12 40  1  0
 13 41  1  0
 19 42  1  0
 19 43  1  0
 20 44  1  0
 20 45  1  0
 22 46  1  0
 22 47  1  0
 23 48  1  0
 23 49  1  0
 24 50  1  0
 25 51  1  0
 26 52  1  0
 27 53  1  0
 28 54  1  0
 30 55  1  0
 31 56  1  0
 32 57  1  0
 35 58  1  0
M  END
>  <smiles>  (81) 
O=C(N=c1cc(C(=O)NCc2ccc(S(=O)(=O)N3CCOCC3)cc2)[nH][nH]1)Nc1cccc(Cl)c1

>  <score_type>  (81) 
oracle

>  <origin>  (81) 
adg

>  <m_score__min__energy>  (81) 
-9.6899999999999995

>  <m_primary>  (81) 
energy

$$$$
81:0
     RDKit          3D

 42 45  0  0  0  0  0  0  0  0999 V2000
   57.7924   33.0725   43.5836 H   0  0  0  0  0  0  0  0  0  0  0  0
   57.9830   33.5870   44.5370 C   0  0  0  0  0  0  0  0  0  0  0  0
   58.1291   34.6771   44.5541 H   0  0  0  0  0  0  0  0  0  0  0  0
   58.0370   32.8880   45.6740 C   0  0  0  0  0  0  0  0  0  0  0  0
   58.2680   33.4840   46.8580 N   0  0  0  0  0  0  0  0  0  0  0  0
   58.3510   32.4580   47.7240 C   0  0  0  0  0  0  0  0  0  0  0  0
   58.5680   32.6200   48.9530 O   0  0  0  0  0  0  0  0  0  0  0  0
   58.1830   31.2420   47.1700 N   0  0  0  0  0  0  0  0  0  0  0  0
   57.9640   31.5030   45.8660 C   0  0  0  0  0  0  0  0  0  0  0  0
   57.6960   30.5090   44.9980 C   0  0  0  0  0  0  0  0  0  0  0  0
   57.8094   30.7346   43.9274 H   0  0  0  0  0  0  0  0  0  0  0  0
   57.2650   29.1480   45.3540 C   0  0  0  0  0  0  0  0  0  0  0  0
   55.9870   28.6400   45.1820 C   0  0  0  0  0  0  0  0  0  0  0  0
   54.9190   29.3510   44.6500 O   0  0  0  0  0  0  0  0  0  0  0  0
   55.8800   27.3640   45.6110 N   0  0  0  0  0  0  0  0  0  0  0  0
   57.1180   27.0560   46.0430 C   0  0  0  0  0  0  0  0  0  0  0  0
   57.5060   25.8470   46.6130 C   0  0  0  0  0  0  0  0  0  0  0  0
   56.7877   25.0224   46.7319 H   0  0  0  0  0  0  0  0  0  0  0  0
   58.8380   25.7080   47.0320 C   0  0  0  0  0  0  0  0  0  0  0  0
   59.1680   24.7684   47.4990 H   0  0  0  0  0  0  0  0  0  0  0  0
   59.7560   26.7630   46.8590 C   0  0  0  0  0  0  0  0  0  0  0  0
   60.7964   26.6383   47.1936 H   0  0  0  0  0  0  0  0  0  0  0  0
   59.3570   27.9770   46.2620 C   0  0  0  0  0  0  0  0  0  0  0  0
   60.3540   29.0330   46.0250 C   0  0  0  0  0  0  0  0  0  0  0  0
   61.0660   28.9970   44.9850 O   0  0  0  0  0  0  0  0  0  0  0  0
   60.5300   30.0870   46.9830 N   0  0  0  0  0  0  0  0  0  0  0  0
   59.9120   30.1160   47.8260 H   0  0  0  0  0  0  0  0  0  0  0  0
   61.4810   31.1760   46.7820 C   0  0  0  0  0  0  0  0  0  0  0  0
   62.4125   30.7709   46.3598 H   0  0  0  0  0  0  0  0  0  0  0  0
   61.0422   31.9110   46.0912 H   0  0  0  0  0  0  0  0  0  0  0  0
   61.7830   31.8540   48.0900 C   0  0  0  0  0  0  0  0  0  0  0  0
   61.7860   31.1100   49.2810 C   0  0  0  0  0  0  0  0  0  0  0  0
   61.5508   30.0357   49.2567 H   0  0  0  0  0  0  0  0  0  0  0  0
   62.0870   31.7300   50.4980 C   0  0  0  0  0  0  0  0  0  0  0  0
   62.0860   31.1431   51.4283 H   0  0  0  0  0  0  0  0  0  0  0  0
   62.3890   33.0940   50.5340 C   0  0  0  0  0  0  0  0  0  0  0  0
   62.6242   33.5806   51.4921 H   0  0  0  0  0  0  0  0  0  0  0  0
   62.3920   33.8400   49.3510 C   0  0  0  0  0  0  0  0  0  0  0  0
   62.6890   35.1630   49.3860 F   0  0  0  0  0  0  0  0  0  0  0  0
   62.0920   33.2240   48.1320 C   0  0  0  0  0  0  0  0  0  0  0  0
   62.0979   33.8136   47.2034 H   0  0  0  0  0  0  0  0  0  0  0  0
   58.0050   28.1000   45.8840 C   0  0  0  0  0  0  0  0  0  0  0  0
  1  2  1  0
  2  3  1  0
  2  4  2  0
  4  5  1  0
  5  6  1  0
  6  7  2  0
  6  8  1  0
  8  9  1  0
  9 10  2  0
 10 11  1  0
 10 12  1  0
 12 13  2  0
 13 14  1  0
 13 15  1  0
 15 16  1  0
 16 17  2  0
 17 18  1  0
 17 19  1  0
 19 20  1  0
 19 21  2  0
 21 22  1  0
 21 23  1  0
 23 24  1  0
 24 25  2  0
 24 26  1  0
 26 27  1  0
 26 28  1  0
 28 29  1  0
 28 30  1  0
 28 31  1  0
 31 32  2  0
 32 33  1  0
 32 34  1  0
 34 35  1  0
 34 36  2  0
 36 37  1  0
 36 38  1  0
 38 39  1  0
 38 40  2  0
 40 41  1  0
 23 42  2  0
  9  4  1  0
 42 12  1  0
 42 16  1  0
 40 31  1  0
M  CHG  4   5  -1   8  -1  14  -1  15  -1
M  END
>  <UniqueID>  (82) 
77

>  <SMILES>  (82) 
C=c1[n-]c(=O)[n-]/c1=C/c1c([O-])[n-]c2cccc(C(=O)NCc3cccc(F)c3)c12

>  <Energy>  (82) 
121.65214376087283

>  <Genealogy>  (82) 
C=c1[n-]c(=O)[n-]c1=Cc1c([O-])[n-]c2cccc(C(=O)NCc3cccc(F)c3)c12 (protonated)
C=c1[n-]c(=O)[n-]/c1=C/c1c([O-])[n-]c2cccc(C(=O)NCc3cccc(F)c3)c12 (cis-trans isomerization)
C=c1[n-]c(=O)[n-]/c1=C/c1c([O-])[n-]c2cccc(C(=O)NCc3cccc(F)c3)c12 (3D coordinates assigned)
C=c1[n-]c(=O)[n-]/c1=C/c1c([O-])[n-]c2cccc(C(=O)NCc3cccc(F)c3)c12 (optimized conformer: 121.65214376087283 kcal/mol)

>  <smiles>  (82) 
C=c1[nH]c(=O)[nH]c1=Cc1c(O)[nH]c2cccc(C(=O)NCc3cccc(F)c3)c12

>  <score_type>  (82) 
oracle

>  <origin>  (82) 
adg

>  <m_score__min__energy>  (82) 
-15.93

>  <m_primary>  (82) 
energy

$$$$
82:0
     RDKit          3D

 41 43  0  0  0  0  0  0  0  0999 V2000
   60.7230   31.8740   46.7170 O   0  0  0  0  0  0  0  0  0  0  0  0
   60.3870   30.9340   47.4860 C   0  0  0  0  0  0  0  0  0  0  0  0
   59.9820   29.6160   46.9110 C   0  0  0  0  0  0  0  0  0  0  0  0
   58.8140   29.8010   45.9810 C   0  0  0  0  0  0  0  0  0  0  0  0
   58.8560   30.7810   44.9770 C   0  0  0  0  0  0  0  0  0  0  0  0
   57.7870   30.9260   44.0890 C   0  0  0  0  0  0  0  0  0  0  0  0
   56.6700   30.0880   44.1840 C   0  0  0  0  0  0  0  0  0  0  0  0
   55.6190   30.2520   43.2830 O   0  0  0  0  0  0  0  0  0  0  0  0
   56.6270   29.0970   45.1790 C   0  0  0  0  0  0  0  0  0  0  0  0
   55.5300   28.2510   45.2850 O   0  0  0  0  0  0  0  0  0  0  0  0
   57.6970   28.9530   46.0700 C   0  0  0  0  0  0  0  0  0  0  0  0
   60.3790   31.1140   48.9080 N   0  0  0  0  0  0  0  0  0  0  0  0
   59.2240   31.2520   49.7480 C   0  0  0  0  0  0  0  0  0  0  0  0
   58.5430   30.0960   50.1470 C   0  0  0  0  0  0  0  0  0  0  0  0
   57.4240   30.1840   50.9790 C   0  0  0  0  0  0  0  0  0  0  0  0
   56.9860   31.4260   51.4500 C   0  0  0  0  0  0  0  0  0  0  0  0
   55.8180   31.4730   52.2840 N   0  0  0  0  0  0  0  0  0  0  0  0
   54.6410   30.6670   52.1530 C   0  0  0  0  0  0  0  0  0  0  0  0
   54.4970   29.6150   52.8340 O   0  0  0  0  0  0  0  0  0  0  0  0
   53.5750   31.0740   51.1890 C   0  0  0  0  0  0  0  0  0  0  0  0
   52.3820   31.5840   51.9320 C   0  0  0  0  0  0  0  0  0  0  0  0
   52.0620   31.2990   53.5620 S   0  0  0  0  0  0  0  0  0  0  0  0
   50.6850   32.2640   53.5420 C   0  0  0  0  0  0  0  0  0  0  0  0
   49.9450   32.4640   54.5400 O   0  0  0  0  0  0  0  0  0  0  0  0
   50.4550   32.8200   52.3340 N   0  0  0  0  0  0  0  0  0  0  0  0
   51.4060   32.4460   51.4390 C   0  0  0  0  0  0  0  0  0  0  0  0
   51.3940   32.9040   50.1270 O   0  0  0  0  0  0  0  0  0  0  0  0
   57.6660   32.5910   51.0520 C   0  0  0  0  0  0  0  0  0  0  0  0
   58.7860   32.5030   50.2200 C   0  0  0  0  0  0  0  0  0  0  0  0
   60.8273   29.1857   46.3540 H   0  0  0  0  0  0  0  0  0  0  0  0
   59.6915   28.9383   47.7273 H   0  0  0  0  0  0  0  0  0  0  0  0
   59.7341   31.4376   44.8889 H   0  0  0  0  0  0  0  0  0  0  0  0
   57.8235   31.7029   43.3111 H   0  0  0  0  0  0  0  0  0  0  0  0
   55.3870   29.5470   42.5930 H   0  0  0  0  0  0  0  0  0  0  0  0
   57.6633   28.1720   46.8439 H   0  0  0  0  0  0  0  0  0  0  0  0
   58.8914   29.1110   49.8030 H   0  0  0  0  0  0  0  0  0  0  0  0
   56.8835   29.2698   51.2657 H   0  0  0  0  0  0  0  0  0  0  0  0
   53.9614   31.8670   50.5319 H   0  0  0  0  0  0  0  0  0  0  0  0
   53.2801   30.2018   50.5871 H   0  0  0  0  0  0  0  0  0  0  0  0
   57.3153   33.5750   51.3966 H   0  0  0  0  0  0  0  0  0  0  0  0
   59.3276   33.4164   49.9329 H   0  0  0  0  0  0  0  0  0  0  0  0
  1  2  2  0
  2  3  1  0
  3  4  1  0
  4  5  2  0
  5  6  1  0
  6  7  2  0
  7  8  1  0
  7  9  1  0
  9 10  1  0
  9 11  2  0
  2 12  1  0
 12 13  1  0
 13 14  2  0
 14 15  1  0
 15 16  2  0
 16 17  1  0
 17 18  1  0
 18 19  2  0
 18 20  1  0
 20 21  1  0
 21 22  1  0
 22 23  1  0
 23 24  2  0
 23 25  1  0
 25 26  1  0
 26 27  1  0
 16 28  1  0
 28 29  2  0
 11  4  1  0
 29 13  1  0
 26 21  2  0
  3 30  1  0
  3 31  1  0
  5 32  1  0
  6 33  1  0
  8 34  1  0
 11 35  1  0
 14 36  1  0
 15 37  1  0
 20 38  1  0
 20 39  1  0
 28 40  1  0
 29 41  1  0
M  CHG  5  10  -1  12  -1  17  -1  25  -1  27  -1
M  END
>  <UniqueID>  (83) 
78

>  <SMILES>  (83) 
O=C(Cc1ccc(O)c([O-])c1)[N-]c1ccc([N-]C(=O)Cc2sc(=O)[n-]c2[O-])cc1

>  <Energy>  (83) 
77.19969697357675

>  <Genealogy>  (83) 
O=C(Cc1ccc(O)c([O-])c1)[N-]c1ccc([N-]C(=O)Cc2sc(=O)[n-]c2[O-])cc1 (protonated)
O=C(Cc1ccc(O)c([O-])c1)[N-]c1ccc([N-]C(=O)Cc2sc(=O)[n-]c2[O-])cc1 (3D coordinates assigned)
O=C(Cc1ccc(O)c([O-])c1)[N-]c1ccc([N-]C(=O)Cc2sc(=O)[n-]c2[O-])cc1 (optimized conformer: 77.19969697357675 kcal/mol)

>  <smiles>  (83) 
O=C(Cc1ccc(O)c(O)c1)Nc1ccc(NC(=O)Cc2sc(=O)[nH]c2O)cc1

>  <score_type>  (83) 
oracle

>  <origin>  (83) 
adg

>  <m_score__min__energy>  (83) 
-20.609999999999999

>  <m_primary>  (83) 
energy

$$$$
83:0
     RDKit          3D

 33 35  0  0  0  0  0  0  0  0999 V2000
   55.6400   29.2500   44.8670 N   0  0  0  0  0  0  0  0  0  0  0  0
   56.6290   29.7330   45.2220 C   0  0  0  0  0  0  0  0  0  0  0  0
   57.8680   30.3370   45.6660 C   0  0  0  0  0  0  0  0  0  0  0  0
   58.9410   29.5500   46.1390 C   0  0  0  0  0  0  0  0  0  0  0  0
   58.8810   28.0670   46.1520 C   0  0  0  0  0  0  0  0  0  0  0  0
   60.0660   27.3130   46.1330 C   0  0  0  0  0  0  0  0  0  0  0  0
   60.0120   25.9170   46.1290 C   0  0  0  0  0  0  0  0  0  0  0  0
   58.7780   25.2610   46.1420 C   0  0  0  0  0  0  0  0  0  0  0  0
   57.5890   26.0010   46.1580 C   0  0  0  0  0  0  0  0  0  0  0  0
   56.0330   25.1770   46.1500 S   0  0  0  0  0  0  0  0  0  0  0  0
   54.7640   26.3390   45.9980 N   0  0  0  0  0  0  0  0  0  0  0  0
   55.8590   24.4110   47.4310 O   0  0  0  0  0  0  0  0  0  0  0  0
   55.9720   24.2110   45.0000 O   0  0  0  0  0  0  0  0  0  0  0  0
   57.6430   27.4020   46.1510 C   0  0  0  0  0  0  0  0  0  0  0  0
   60.0970   30.1870   46.6160 C   0  0  0  0  0  0  0  0  0  0  0  0
   60.1830   31.5870   46.6030 C   0  0  0  0  0  0  0  0  0  0  0  0
   61.3800   32.3040   47.0850 C   0  0  0  0  0  0  0  0  0  0  0  0
   61.5530   33.6430   47.0660 N   0  0  0  0  0  0  0  0  0  0  0  0
   62.7740   33.8380   47.5940 C   0  0  0  0  0  0  0  0  0  0  0  0
   63.3060   32.6080   47.9170 C   0  0  0  0  0  0  0  0  0  0  0  0
   62.4270   31.6880   47.5920 O   0  0  0  0  0  0  0  0  0  0  0  0
   59.1370   32.3130   46.1300 N   0  0  0  0  0  0  0  0  0  0  0  0
   57.9960   31.7360   45.6700 C   0  0  0  0  0  0  0  0  0  0  0  0
   57.0590   32.4700   45.2540 O   0  0  0  0  0  0  0  0  0  0  0  0
   61.0402   27.8237   46.1212 H   0  0  0  0  0  0  0  0  0  0  0  0
   60.9436   25.3323   46.1156 H   0  0  0  0  0  0  0  0  0  0  0  0
   58.7405   24.1616   46.1397 H   0  0  0  0  0  0  0  0  0  0  0  0
   55.2130   27.2820   46.0080 H   0  0  0  0  0  0  0  0  0  0  0  0
   56.7100   27.9846   46.1447 H   0  0  0  0  0  0  0  0  0  0  0  0
   60.9359   29.5882   47.0002 H   0  0  0  0  0  0  0  0  0  0  0  0
   60.9030   34.3830   46.7250 H   0  0  0  0  0  0  0  0  0  0  0  0
   63.2641   34.8115   47.7427 H   0  0  0  0  0  0  0  0  0  0  0  0
   64.2932   32.4286   48.3677 H   0  0  0  0  0  0  0  0  0  0  0  0
  1  2  3  0
  2  3  1  0
  3  4  2  0
  4  5  1  0
  5  6  2  0
  6  7  1  0
  7  8  2  0
  8  9  1  0
  9 10  1  0
 10 11  1  0
 10 12  2  0
 10 13  2  0
  9 14  2  0
  4 15  1  0
 15 16  2  0
 16 17  1  0
 17 18  2  0
 18 19  1  0
 19 20  2  0
 20 21  1  0
 16 22  1  0
 22 23  1  0
 23 24  2  0
 23  3  1  0
 14  5  1  0
 21 17  1  0
  6 25  1  0
  7 26  1  0
  8 27  1  0
 11 28  1  0
 14 29  1  0
 15 30  1  0
 18 31  1  0
 19 32  1  0
 20 33  1  0
M  CHG  3  11  -1  18   1  22  -1
M  END
>  <UniqueID>  (84) 
79

>  <SMILES>  (84) 
N#Cc1c(-c2cccc(S([NH-])(=O)=O)c2)cc(-c2[nH+]cco2)[n-]c1=O

>  <Energy>  (84) 
74.8446275988239

>  <Genealogy>  (84) 
N#Cc1c(-c2cccc(S([NH-])(=O)=O)c2)cc(-c2[nH+]cco2)[n-]c1=O (protonated)
N#Cc1c(-c2cccc(S([NH-])(=O)=O)c2)cc(-c2[nH+]cco2)[n-]c1=O (3D coordinates assigned)
N#Cc1c(-c2cccc(S([NH-])(=O)=O)c2)cc(-c2[nH+]cco2)[n-]c1=O (optimized conformer: 74.8446275988239 kcal/mol)

>  <smiles>  (84) 
N#Cc1c(-c2cccc(S(N)(=O)=O)c2)cc(-c2ncco2)[nH]c1=O

>  <score_type>  (84) 
oracle

>  <origin>  (84) 
adg

>  <m_score__min__energy>  (84) 
-10.51

>  <m_primary>  (84) 
energy

$$$$
84:0
     RDKit          3D

 51 54  0  0  1  0  0  0  0  0999 V2000
   57.5230   30.3990   43.7470 N   0  0  0  0  0  0  0  0  0  0  0  0
   57.9130   31.5070   44.5830 C   0  0  0  0  0  0  0  0  0  0  0  0
   57.9960   32.7700   44.0060 C   0  0  0  0  0  0  0  0  0  0  0  0
   58.3730   33.8210   44.8260 C   0  0  0  0  0  0  0  0  0  0  0  0
   58.6620   33.6560   46.1680 C   0  0  0  0  0  0  0  0  0  0  0  0
   59.0600   34.7820   47.0210 C   0  0  0  0  0  0  0  0  0  0  0  0
   60.0830   34.4770   47.9780 N   0  0  0  0  0  0  0  0  0  0  0  0
   60.0350   34.5010   49.3090 N   0  0  0  0  0  0  0  0  0  0  0  0
   61.2260   34.1410   49.8350 C   0  0  0  0  0  0  0  0  0  0  0  0
   62.0810   33.8740   48.7870 C   0  0  0  0  0  0  0  0  0  0  0  0
   63.3940   33.4750   48.7530 C   0  0  0  0  0  0  0  0  0  0  0  0
   64.1040   33.2660   49.8100 N   0  0  0  0  0  0  0  0  0  0  0  0
   64.8970   32.0640   49.9610 C   0  0  0  0  0  0  0  0  0  0  0  0
   64.3100   31.2420   51.0640 C   0  0  0  0  0  0  0  0  0  0  0  0
   62.8440   31.2460   51.0190 C   0  0  0  0  0  0  0  0  0  0  0  0
   62.0840   30.6780   50.0210 C   0  0  0  0  0  0  0  0  0  0  0  0
   60.7020   30.7310   50.0620 C   0  0  0  0  0  0  0  0  0  0  0  0
   60.0580   31.3590   51.1100 C   0  0  0  0  0  0  0  0  0  0  0  0
   58.3020   31.4510   51.2020 S   0  0  0  0  0  0  0  0  0  0  0  0
   57.7640   32.3180   49.7980 N   0  0  0  0  0  0  0  0  0  0  0  0
   57.7050   30.0690   51.0840 O   0  0  0  0  0  0  0  0  0  0  0  0
   57.8710   32.1260   52.4570 O   0  0  0  0  0  0  0  0  0  0  0  0
   60.8010   31.9420   52.1310 C   0  0  0  0  0  0  0  0  0  0  0  0
   62.1700   31.8730   52.0640 C   0  0  0  0  0  0  0  0  0  0  0  0
   63.9400   33.2990   47.5230 N   0  0  0  0  0  0  0  0  0  0  0  0
   63.2180   33.5110   46.3930 C   0  0  0  0  0  0  0  0  0  0  0  0
   61.9320   33.9030   46.4400 N   0  0  0  0  0  0  0  0  0  0  0  0
   61.3410   34.0910   47.6430 C   0  0  0  0  0  0  0  0  0  0  0  0
   58.5700   32.3910   46.7070 C   0  0  0  0  0  0  0  0  0  0  0  0
   58.1970   31.3110   45.9260 C   0  0  0  0  0  0  0  0  0  0  0  0
   56.5920   29.9250   43.9370 H   0  0  0  0  0  0  0  0  0  0  0  0
   58.1530   30.0680   42.9610 H   0  0  0  0  0  0  0  0  0  0  0  0
   57.7712   32.9280   42.9409 H   0  0  0  0  0  0  0  0  0  0  0  0
   58.4455   34.8289   44.3913 H   0  0  0  0  0  0  0  0  0  0  0  0
   59.4282   35.5901   46.3718 H   0  0  0  0  0  0  0  0  0  0  0  0
   58.1678   35.0637   47.5995 H   0  0  0  0  0  0  0  0  0  0  0  0
   61.4695   34.0732   50.9056 H   0  0  0  0  0  0  0  0  0  0  0  0
   64.8826   31.4900   49.0228 H   0  0  0  0  0  0  0  0  0  0  0  0
   65.9377   32.3274   50.2009 H   0  0  0  0  0  0  0  0  0  0  0  0
   64.6673   30.2062   50.9663 H   0  0  0  0  0  0  0  0  0  0  0  0
   64.6259   31.6777   52.0233 H   0  0  0  0  0  0  0  0  0  0  0  0
   62.5826   30.1751   49.1793 H   0  0  0  0  0  0  0  0  0  0  0  0
   60.1129   30.2703   49.2553 H   0  0  0  0  0  0  0  0  0  0  0  0
   56.8080   32.6980   50.0240 H   0  0  0  0  0  0  0  0  0  0  0  0
   58.3830   33.1480   49.6680 H   0  0  0  0  0  0  0  0  0  0  0  0
   60.3032   32.4464   52.9723 H   0  0  0  0  0  0  0  0  0  0  0  0
   62.7603   32.3327   52.8704 H   0  0  0  0  0  0  0  0  0  0  0  0
   64.9120   33.0020   47.4010 H   0  0  0  0  0  0  0  0  0  0  0  0
   63.6966   33.3584   45.4144 H   0  0  0  0  0  0  0  0  0  0  0  0
   58.7961   32.2376   47.7725 H   0  0  0  0  0  0  0  0  0  0  0  0
   58.1264   30.3057   46.3669 H   0  0  0  0  0  0  0  0  0  0  0  0
  1  2  1  0
  2  3  2  0
  3  4  1  0
  4  5  2  0
  5  6  1  0
  6  7  1  0
  7  8  1  0
  8  9  2  0
  9 10  1  0
 10 11  1  0
 11 12  2  0
 12 13  1  0
 13 14  1  0
 14 15  1  0
 15 16  2  0
 16 17  1  0
 17 18  2  0
 18 19  1  0
 19 20  1  0
 19 21  2  0
 19 22  2  0
 18 23  1  0
 23 24  2  0
 11 25  1  0
 25 26  1  0
 26 27  2  0
 27 28  1  0
  5 29  1  0
 29 30  2  0
 30  2  1  0
 28  7  1  0
 28 10  2  0
 24 15  1  0
  1 31  1  0
  1 32  1  0
  3 33  1  0
  4 34  1  0
  6 35  1  0
  6 36  1  0
  9 37  1  0
 13 38  1  0
 13 39  1  0
 14 40  1  0
 14 41  1  0
 16 42  1  0
 17 43  1  0
 20 44  1  0
 20 45  1  0
 23 46  1  0
 24 47  1  0
 25 48  1  0
 26 49  1  0
 29 50  1  0
 30 51  1  0
M  END
>  <smiles>  (85) 
Nc1ccc(Cn2ncc3c(=NCCc4ccc(S(N)(=O)=O)cc4)[nH]cnc32)cc1

>  <score_type>  (85) 
oracle

>  <origin>  (85) 
adg

>  <m_score__min__energy>  (85) 
-8.8900000000000006

>  <m_primary>  (85) 
energy

$$$$
85:0
     RDKit          3D

 64 67  0  0  0  0  0  0  0  0999 V2000
   58.2290   21.7080   50.8750 N   0  0  0  0  0  0  0  0  0  0  0  0
   57.1770   21.7950   50.4010 C   0  0  0  0  0  0  0  0  0  0  0  0
   55.8430   21.9010   49.8040 C   0  0  0  0  0  0  0  0  0  0  0  0
   55.8430   22.9120   48.7500 N   0  0  0  0  0  0  0  0  0  0  0  0
   56.5890   22.7520   47.5310 C   0  0  0  0  0  0  0  0  0  0  0  0
   57.2870   21.7130   47.3630 O   0  0  0  0  0  0  0  0  0  0  0  0
   56.5940   23.8530   46.4750 C   0  0  0  0  0  0  0  0  0  0  0  0
   56.5460   25.1750   47.1250 N   0  0  0  0  0  0  0  0  0  0  0  0
   56.2660   26.4430   46.5120 C   0  0  0  0  0  0  0  0  0  0  0  0
   55.1410   26.6690   45.9940 O   0  0  0  0  0  0  0  0  0  0  0  0
   57.3140   27.4790   46.4940 C   0  0  0  0  0  0  0  0  0  0  0  0
   58.6020   27.2230   46.9830 C   0  0  0  0  0  0  0  0  0  0  0  0
   59.5670   28.2280   46.9340 C   0  0  0  0  0  0  0  0  0  0  0  0
   59.2450   29.4930   46.4170 C   0  0  0  0  0  0  0  0  0  0  0  0
   60.2170   30.4970   46.3060 O   0  0  0  0  0  0  0  0  0  0  0  0
   61.0330   30.9600   47.3510 C   0  0  0  0  0  0  0  0  0  0  0  0
   62.3140   31.5000   47.1190 C   0  0  0  0  0  0  0  0  0  0  0  0
   63.1130   31.9040   48.1930 C   0  0  0  0  0  0  0  0  0  0  0  0
   62.6470   31.7640   49.5020 C   0  0  0  0  0  0  0  0  0  0  0  0
   61.3840   31.2160   49.7400 C   0  0  0  0  0  0  0  0  0  0  0  0
   60.5790   30.8150   48.6690 C   0  0  0  0  0  0  0  0  0  0  0  0
   59.3560   30.2790   48.9120 F   0  0  0  0  0  0  0  0  0  0  0  0
   57.9370   29.7200   45.9460 C   0  0  0  0  0  0  0  0  0  0  0  0
   57.5240   31.0230   45.3860 C   0  0  0  0  0  0  0  0  0  0  0  0
   56.6440   31.0480   44.4840 O   0  0  0  0  0  0  0  0  0  0  0  0
   58.0960   32.2600   45.8470 N   0  0  0  0  0  0  0  0  0  0  0  0
   58.4750   33.2650   44.8460 C   0  0  0  0  0  0  0  0  0  0  0  0
   59.1170   34.4820   45.5030 C   0  0  0  0  0  0  0  0  0  0  0  0
   59.9460   34.0590   46.5630 O   0  0  0  0  0  0  0  0  0  0  0  0
   59.1360   33.6670   47.6550 C   0  0  0  0  0  0  0  0  0  0  0  0
   58.1310   32.5490   47.2930 C   0  0  0  0  0  0  0  0  0  0  0  0
   57.0260   28.7090   45.9880 N   0  0  0  0  0  0  0  0  0  0  0  0
   55.3000   23.7260   45.5990 C   0  0  0  0  0  0  0  0  0  0  0  0
   55.5720   23.3040   44.1490 C   0  0  0  0  0  0  0  0  0  0  0  0
   56.5650   24.2560   43.4640 C   0  0  0  0  0  0  0  0  0  0  0  0
   57.7740   24.6310   44.3490 C   0  0  0  0  0  0  0  0  0  0  0  0
   57.8820   23.7540   45.6030 C   0  0  0  0  0  0  0  0  0  0  0  0
   55.5580   20.9288   49.3754 H   0  0  0  0  0  0  0  0  0  0  0  0
   55.1227   22.1929   50.5824 H   0  0  0  0  0  0  0  0  0  0  0  0
   55.2960   23.7830   48.9140 H   0  0  0  0  0  0  0  0  0  0  0  0
   58.8498   26.2367   47.4023 H   0  0  0  0  0  0  0  0  0  0  0  0
   60.5845   28.0291   47.3018 H   0  0  0  0  0  0  0  0  0  0  0  0
   62.6866   31.6040   46.0893 H   0  0  0  0  0  0  0  0  0  0  0  0
   64.1090   32.3322   48.0068 H   0  0  0  0  0  0  0  0  0  0  0  0
   63.2747   32.0854   50.3462 H   0  0  0  0  0  0  0  0  0  0  0  0
   61.0220   31.0997   50.7722 H   0  0  0  0  0  0  0  0  0  0  0  0
   59.1917   32.8175   44.1416 H   0  0  0  0  0  0  0  0  0  0  0  0
   57.5665   33.5920   44.3191 H   0  0  0  0  0  0  0  0  0  0  0  0
   59.7195   35.0251   44.7600 H   0  0  0  0  0  0  0  0  0  0  0  0
   58.3317   35.1462   45.8930 H   0  0  0  0  0  0  0  0  0  0  0  0
   59.7886   33.3034   48.4624 H   0  0  0  0  0  0  0  0  0  0  0  0
   58.5518   34.5467   47.9629 H   0  0  0  0  0  0  0  0  0  0  0  0
   58.4175   31.6317   47.8282 H   0  0  0  0  0  0  0  0  0  0  0  0
   57.1291   32.8957   47.5864 H   0  0  0  0  0  0  0  0  0  0  0  0
   54.6411   22.9758   46.0606 H   0  0  0  0  0  0  0  0  0  0  0  0
   54.8400   24.7245   45.5609 H   0  0  0  0  0  0  0  0  0  0  0  0
   55.9908   22.2868   44.1450 H   0  0  0  0  0  0  0  0  0  0  0  0
   54.6223   23.3377   43.5950 H   0  0  0  0  0  0  0  0  0  0  0  0
   56.9398   23.7695   42.5514 H   0  0  0  0  0  0  0  0  0  0  0  0
   56.0218   25.1880   43.2488 H   0  0  0  0  0  0  0  0  0  0  0  0
   58.6937   24.5139   43.7570 H   0  0  0  0  0  0  0  0  0  0  0  0
   57.6344   25.6705   44.6806 H   0  0  0  0  0  0  0  0  0  0  0  0
   58.0282   22.7076   45.2971 H   0  0  0  0  0  0  0  0  0  0  0  0
   58.7348   24.1069   46.2015 H   0  0  0  0  0  0  0  0  0  0  0  0
  1  2  3  0
  2  3  1  0
  3  4  1  0
  4  5  1  0
  5  6  2  0
  5  7  1  0
  7  8  1  0
  8  9  1  0
  9 10  2  0
  9 11  1  0
 11 12  2  0
 12 13  1  0
 13 14  2  0
 14 15  1  0
 15 16  1  0
 16 17  2  0
 17 18  1  0
 18 19  2  0
 19 20  1  0
 20 21  2  0
 21 22  1  0
 14 23  1  0
 23 24  1  0
 24 25  2  0
 24 26  1  0
 26 27  1  0
 27 28  1  0
 28 29  1  0
 29 30  1  0
 30 31  1  0
 23 32  2  0
  7 33  1  0
 33 34  1  0
 34 35  1  0
 35 36  1  0
 36 37  1  0
 37  7  1  0
 32 11  1  0
 21 16  1  0
 31 26  1  0
  3 38  1  0
  3 39  1  0
  4 40  1  0
 12 41  1  0
 13 42  1  0
 17 43  1  0
 18 44  1  0
 19 45  1  0
 20 46  1  0
 27 47  1  0
 27 48  1  0
 28 49  1  0
 28 50  1  0
 30 51  1  0
 30 52  1  0
 31 53  1  0
 31 54  1  0
 33 55  1  0
 33 56  1  0
 34 57  1  0
 34 58  1  0
 35 59  1  0
 35 60  1  0
 36 61  1  0
 36 62  1  0
 37 63  1  0
 37 64  1  0
M  CHG  1   8  -1
M  END
>  <UniqueID>  (86) 
80

>  <SMILES>  (86) 
N#CCNC(=O)C1([N-]C(=O)c2ccc(Oc3ccccc3F)c(C(=O)N3CCOCC3)n2)CCCCC1

>  <Energy>  (86) 
84.47758273699286

>  <Genealogy>  (86) 
N#CCNC(=O)C1([N-]C(=O)c2ccc(Oc3ccccc3F)c(C(=O)N3CCOCC3)n2)CCCCC1 (protonated)
N#CCNC(=O)C1([N-]C(=O)c2ccc(Oc3ccccc3F)c(C(=O)N3CCOCC3)n2)CCCCC1 (3D coordinates assigned)
N#CCNC(=O)C1([N-]C(=O)c2ccc(Oc3ccccc3F)c(C(=O)N3CCOCC3)n2)CCCCC1 (nonaromatic ring conformer: 84.47758273699286 kcal/mol)

>  <smiles>  (86) 
N#CCNC(=O)C1(NC(=O)c2ccc(Oc3ccccc3F)c(C(=O)N3CCOCC3)n2)CCCCC1

>  <score_type>  (86) 
oracle

>  <origin>  (86) 
adg

>  <m_score__min__energy>  (86) 
-11.630000000000001

>  <m_primary>  (86) 
energy

$$$$
86:0
     RDKit          3D

 55 58  0  0  0  0  0  0  0  0999 V2000
   57.4010   31.3030   42.9640 O   0  0  0  0  0  0  0  0  0  0  0  0
   57.1930   31.4660   44.1950 C   0  0  0  0  0  0  0  0  0  0  0  0
   56.2550   30.6050   44.8580 N   0  0  0  0  0  0  0  0  0  0  0  0
   56.4950   29.2180   45.2570 C   0  0  0  0  0  0  0  0  0  0  0  0
   57.9690   28.9590   45.4270 C   0  0  0  0  0  0  0  0  0  0  0  0
   58.7200   28.4520   44.3550 C   0  0  0  0  0  0  0  0  0  0  0  0
   60.0940   28.2410   44.4960 C   0  0  0  0  0  0  0  0  0  0  0  0
   60.7290   28.5380   45.7040 C   0  0  0  0  0  0  0  0  0  0  0  0
   59.9890   29.0340   46.7900 C   0  0  0  0  0  0  0  0  0  0  0  0
   60.6610   29.3970   48.0510 C   0  0  0  0  0  0  0  0  0  0  0  0
   60.6230   28.5800   49.0150 O   0  0  0  0  0  0  0  0  0  0  0  0
   61.3410   30.6560   48.2090 N   0  0  0  0  0  0  0  0  0  0  0  0
   61.9000   31.0880   49.4790 C   0  0  0  0  0  0  0  0  0  0  0  0
   62.8170   32.2610   49.1530 C   0  0  0  0  0  0  0  0  0  0  0  0
   62.4800   32.6860   47.7250 C   0  0  0  0  0  0  0  0  0  0  0  0
   61.7140   31.5250   47.1040 C   0  0  0  0  0  0  0  0  0  0  0  0
   58.6110   29.2510   46.6440 C   0  0  0  0  0  0  0  0  0  0  0  0
   57.9420   32.5150   44.9140 C   0  0  0  0  0  0  0  0  0  0  0  0
   58.5670   33.5440   44.1930 C   0  0  0  0  0  0  0  0  0  0  0  0
   59.2830   34.5370   44.8650 C   0  0  0  0  0  0  0  0  0  0  0  0
   59.3830   34.5100   46.2570 C   0  0  0  0  0  0  0  0  0  0  0  0
   58.7690   33.4860   46.9950 C   0  0  0  0  0  0  0  0  0  0  0  0
   58.8910   33.4780   48.4270 N   0  0  0  0  0  0  0  0  0  0  0  0
   58.6390   32.3190   49.2420 C   0  0  0  0  0  0  0  0  0  0  0  0
   58.5560   31.1810   48.7030 O   0  0  0  0  0  0  0  0  0  0  0  0
   58.5370   32.4320   50.7190 C   0  0  0  0  0  0  0  0  0  0  0  0
   59.2590   33.4260   51.4050 C   0  0  0  0  0  0  0  0  0  0  0  0
   59.1490   33.5320   52.7940 C   0  0  0  0  0  0  0  0  0  0  0  0
   58.3540   32.6720   53.4820 N   0  0  0  0  0  0  0  0  0  0  0  0
   57.6540   31.6900   52.8520 C   0  0  0  0  0  0  0  0  0  0  0  0
   57.7360   31.5480   51.4640 C   0  0  0  0  0  0  0  0  0  0  0  0
   58.0180   32.5100   46.3170 C   0  0  0  0  0  0  0  0  0  0  0  0
   55.9820   29.0228   46.2103 H   0  0  0  0  0  0  0  0  0  0  0  0
   56.1079   28.5525   44.4713 H   0  0  0  0  0  0  0  0  0  0  0  0
   58.2250   28.2200   43.4004 H   0  0  0  0  0  0  0  0  0  0  0  0
   60.6769   27.8401   43.6537 H   0  0  0  0  0  0  0  0  0  0  0  0
   61.8133   28.3828   45.8054 H   0  0  0  0  0  0  0  0  0  0  0  0
   61.0984   31.4069   50.1614 H   0  0  0  0  0  0  0  0  0  0  0  0
   62.4464   30.2741   49.9780 H   0  0  0  0  0  0  0  0  0  0  0  0
   62.6349   33.0919   49.8505 H   0  0  0  0  0  0  0  0  0  0  0  0
   63.8759   31.9780   49.2461 H   0  0  0  0  0  0  0  0  0  0  0  0
   61.8567   33.5923   47.7342 H   0  0  0  0  0  0  0  0  0  0  0  0
   63.3894   32.9179   47.1513 H   0  0  0  0  0  0  0  0  0  0  0  0
   60.8157   31.8927   46.5865 H   0  0  0  0  0  0  0  0  0  0  0  0
   62.3233   30.9919   46.3593 H   0  0  0  0  0  0  0  0  0  0  0  0
   58.0286   29.6521   47.4866 H   0  0  0  0  0  0  0  0  0  0  0  0
   58.4928   33.5685   43.0958 H   0  0  0  0  0  0  0  0  0  0  0  0
   59.7696   35.3427   44.2957 H   0  0  0  0  0  0  0  0  0  0  0  0
   59.9470   35.2968   46.7793 H   0  0  0  0  0  0  0  0  0  0  0  0
   59.3300   34.3130   48.8800 H   0  0  0  0  0  0  0  0  0  0  0  0
   59.9086   34.1181   50.8491 H   0  0  0  0  0  0  0  0  0  0  0  0
   59.7071   34.3131   53.3311 H   0  0  0  0  0  0  0  0  0  0  0  0
   57.0216   31.0058   53.4368 H   0  0  0  0  0  0  0  0  0  0  0  0
   57.1765   30.7484   50.9565 H   0  0  0  0  0  0  0  0  0  0  0  0
   57.4856   31.7362   46.8895 H   0  0  0  0  0  0  0  0  0  0  0  0
  1  2  2  0
  2  3  1  0
  3  4  1  0
  4  5  1  0
  5  6  2  0
  6  7  1  0
  7  8  2  0
  8  9  1  0
  9 10  1  0
 10 11  2  0
 10 12  1  0
 12 13  1  0
 13 14  1  0
 14 15  1  0
 15 16  1  0
  9 17  2  0
  2 18  1  0
 18 19  2  0
 19 20  1  0
 20 21  2  0
 21 22  1  0
 22 23  1  0
 23 24  1  0
 24 25  2  0
 24 26  1  0
 26 27  2  0
 27 28  1  0
 28 29  2  0
 29 30  1  0
 30 31  2  0
 22 32  2  0
 17  5  1  0
 32 18  1  0
 16 12  1  0
 31 26  1  0
  4 33  1  0
  4 34  1  0
  6 35  1  0
  7 36  1  0
  8 37  1  0
 13 38  1  0
 13 39  1  0
 14 40  1  0
 14 41  1  0
 15 42  1  0
 15 43  1  0
 16 44  1  0
 16 45  1  0
 17 46  1  0
 19 47  1  0
 20 48  1  0
 21 49  1  0
 23 50  1  0
 27 51  1  0
 28 52  1  0
 30 53  1  0
 31 54  1  0
 32 55  1  0
M  CHG  1   3  -1
M  END
>  <UniqueID>  (87) 
81

>  <SMILES>  (87) 
O=C([N-]Cc1cccc(C(=O)N2CCCC2)c1)c1cccc(NC(=O)c2ccncc2)c1

>  <Energy>  (87) 
70.10370285331616

>  <Genealogy>  (87) 
O=C([N-]Cc1cccc(C(=O)N2CCCC2)c1)c1cccc(NC(=O)c2ccncc2)c1 (protonated)
O=C([N-]Cc1cccc(C(=O)N2CCCC2)c1)c1cccc(NC(=O)c2ccncc2)c1 (3D coordinates assigned)
O=C([N-]Cc1cccc(C(=O)N2CCCC2)c1)c1cccc(NC(=O)c2ccncc2)c1 (nonaromatic ring conformer: 70.10370285331616 kcal/mol)

>  <smiles>  (87) 
O=C(NCc1cccc(C(=O)N2CCCC2)c1)c1cccc(NC(=O)c2ccncc2)c1

>  <score_type>  (87) 
oracle

>  <origin>  (87) 
adg

>  <m_score__min__energy>  (87) 
-10.98

>  <m_primary>  (87) 
energy

$$$$
87:0
     RDKit          3D

 47 50  0  0  0  0  0  0  0  0999 V2000
   56.7040   28.5780   53.0680 C   0  0  0  0  0  0  0  0  0  0  0  0
   55.7580   29.3980   52.6080 C   0  0  0  0  0  0  0  0  0  0  0  0
   54.4810   29.0120   52.4060 N   0  0  0  0  0  0  0  0  0  0  0  0
   53.7950   30.1170   52.0380 C   0  0  0  0  0  0  0  0  0  0  0  0
   52.4790   30.1630   51.7820 C   0  0  0  0  0  0  0  0  0  0  0  0
   51.5870   31.2440   52.2340 C   0  0  0  0  0  0  0  0  0  0  0  0
   51.1830   31.3850   53.5080 N   0  0  0  0  0  0  0  0  0  0  0  0
   50.4670   32.5290   53.4880 C   0  0  0  0  0  0  0  0  0  0  0  0
   49.9040   32.9950   54.5120 O   0  0  0  0  0  0  0  0  0  0  0  0
   50.4110   33.1410   52.2860 N   0  0  0  0  0  0  0  0  0  0  0  0
   51.1360   32.3230   51.5050 C   0  0  0  0  0  0  0  0  0  0  0  0
   51.4150   32.5800   50.1650 O   0  0  0  0  0  0  0  0  0  0  0  0
   54.6320   31.2190   52.0130 C   0  0  0  0  0  0  0  0  0  0  0  0
   55.8910   30.7580   52.3490 C   0  0  0  0  0  0  0  0  0  0  0  0
   57.1040   31.5940   52.4370 C   0  0  0  0  0  0  0  0  0  0  0  0
   57.1730   32.4700   53.3410 O   0  0  0  0  0  0  0  0  0  0  0  0
   58.1780   31.4640   51.4880 N   0  0  0  0  0  0  0  0  0  0  0  0
   58.4010   30.1910   50.7730 C   0  0  0  0  0  0  0  0  0  0  0  0
   58.7770   30.4180   49.2930 C   0  0  0  0  0  0  0  0  0  0  0  0
   59.8550   31.4680   49.1500 C   0  0  0  0  0  0  0  0  0  0  0  0
   59.9450   32.4930   50.0720 C   0  0  0  0  0  0  0  0  0  0  0  0
   61.0980   33.6030   49.5840 S   0  0  0  0  0  0  0  0  0  0  0  0
   61.5100   32.8040   48.1550 C   0  0  0  0  0  0  0  0  0  0  0  0
   62.4920   33.3480   47.1930 C   0  0  0  0  0  0  0  0  0  0  0  0
   63.8780   33.3510   47.5280 N   0  0  0  0  0  0  0  0  0  0  0  0
   62.1280   33.8260   46.0870 O   0  0  0  0  0  0  0  0  0  0  0  0
   60.7350   31.6290   48.0520 C   0  0  0  0  0  0  0  0  0  0  0  0
   60.7660   30.6860   46.8720 C   0  0  0  0  0  0  0  0  0  0  0  0
   59.4890   30.8060   46.0470 C   0  0  0  0  0  0  0  0  0  0  0  0
   59.0760   32.5620   51.2440 C   0  0  0  0  0  0  0  0  0  0  0  0
   59.1140   33.5600   52.0150 O   0  0  0  0  0  0  0  0  0  0  0  0
   57.7296   28.9481   53.2134 H   0  0  0  0  0  0  0  0  0  0  0  0
   56.4586   27.5316   53.3020 H   0  0  0  0  0  0  0  0  0  0  0  0
   54.0980   28.0560   52.5820 H   0  0  0  0  0  0  0  0  0  0  0  0
   52.0385   29.3416   51.1978 H   0  0  0  0  0  0  0  0  0  0  0  0
   52.3420   32.4200   49.7920 H   0  0  0  0  0  0  0  0  0  0  0  0
   54.3512   32.2552   51.7735 H   0  0  0  0  0  0  0  0  0  0  0  0
   59.2176   29.6443   51.2672 H   0  0  0  0  0  0  0  0  0  0  0  0
   57.4635   29.6162   50.8014 H   0  0  0  0  0  0  0  0  0  0  0  0
   59.1414   29.4713   48.8676 H   0  0  0  0  0  0  0  0  0  0  0  0
   57.8812   30.7681   48.7591 H   0  0  0  0  0  0  0  0  0  0  0  0
   64.5470   32.7040   47.0540 H   0  0  0  0  0  0  0  0  0  0  0  0
   61.6298   30.9319   46.2368 H   0  0  0  0  0  0  0  0  0  0  0  0
   60.8468   29.6552   47.2474 H   0  0  0  0  0  0  0  0  0  0  0  0
   58.6234   30.8873   46.7209 H   0  0  0  0  0  0  0  0  0  0  0  0
   59.5453   31.7028   45.4125 H   0  0  0  0  0  0  0  0  0  0  0  0
   59.3772   29.9144   45.4125 H   0  0  0  0  0  0  0  0  0  0  0  0
  1  2  2  0
  2  3  1  0
  3  4  1  0
  4  5  2  3
  5  6  1  0
  6  7  1  0
  7  8  1  0
  8  9  2  0
  8 10  1  0
 10 11  1  0
 11 12  1  0
  4 13  1  0
 13 14  2  0
 14 15  1  0
 15 16  2  0
 15 17  1  0
 17 18  1  0
 18 19  1  0
 19 20  1  0
 20 21  2  0
 21 22  1  0
 22 23  1  0
 23 24  1  0
 24 25  1  0
 24 26  2  0
 23 27  2  0
 27 28  1  0
 28 29  1  0
 21 30  1  0
 30 31  2  0
 14  2  1  0
 30 17  1  0
 11  6  2  0
 27 20  1  0
  1 32  1  0
  1 33  1  0
  3 34  1  0
  5 35  1  0
 12 36  1  0
 13 37  1  0
 18 38  1  0
 18 39  1  0
 19 40  1  0
 19 41  1  0
 25 42  1  0
 28 43  1  0
 28 44  1  0
 29 45  1  0
 29 46  1  0
 29 47  1  0
M  CHG  3   7  -1  10  -1  25  -1
M  END
>  <UniqueID>  (88) 
82

>  <SMILES>  (88) 
C=c1[nH]c(=Cc2[n-]c(=O)[n-]c2O)cc1C(=O)N1CCc2c(sc(C([NH-])=O)c2CC)C1=O

>  <Energy>  (88) 
144.484082397019

>  <Genealogy>  (88) 
C=c1[nH]c(=Cc2[n-]c(=O)[n-]c2O)cc1C(=O)N1CCc2c(sc(C([NH-])=O)c2CC)C1=O (protonated)
C=c1[nH]c(=Cc2[n-]c(=O)[n-]c2O)cc1C(=O)N1CCc2c(sc(C([NH-])=O)c2CC)C1=O (3D coordinates assigned)
C=c1[nH]c(=Cc2[n-]c(=O)[n-]c2O)cc1C(=O)N1CCc2c(sc(C([NH-])=O)c2CC)C1=O (nonaromatic ring conformer: 144.484082397019 kcal/mol)

>  <smiles>  (88) 
C=c1[nH]c(=Cc2[nH]c(=O)[nH]c2O)cc1C(=O)N1CCc2c(sc(C(N)=O)c2CC)C1=O

>  <score_type>  (88) 
oracle

>  <origin>  (88) 
adg

>  <m_score__min__energy>  (88) 
-14.25

>  <m_primary>  (88) 
energy

$$$$
