0:0
     RDKit          3D

 52 55  0  0  0  0  0  0  0  0999 V2000
   56.2640   32.2630   44.9220 O   0  0  0  0  0  0  0  0  0  0  0  0
   57.4740   31.9110   44.8790 C   0  0  0  0  0  0  0  0  0  0  0  0
   57.8920   30.8240   43.9250 C   0  0  0  0  0  0  0  0  0  0  0  0
   57.7850   29.5060   44.5500 N   0  0  0  0  0  0  0  0  0  0  0  0
   56.6120   28.9300   45.1020 C   0  0  0  0  0  0  0  0  0  0  0  0
   55.4520   29.3610   44.8690 O   0  0  0  0  0  0  0  0  0  0  0  0
   56.8680   27.8300   45.9680 N   0  0  0  0  0  0  0  0  0  0  0  0
   58.3220   27.6650   46.0350 C   0  0  0  0  0  0  0  0  0  0  0  0
   58.8340   27.7920   47.4660 C   0  0  0  0  0  0  0  0  0  0  0  0
   60.0910   26.9310   47.5270 C   0  0  0  0  0  0  0  0  0  0  0  0
   60.0330   25.9670   46.3410 C   0  0  0  0  0  0  0  0  0  0  0  0
   58.7540   26.2800   45.5690 C   0  0  0  0  0  0  0  0  0  0  0  0
   58.8400   28.7620   45.1400 C   0  0  0  0  0  0  0  0  0  0  0  0
   60.0600   29.0140   44.9440 O   0  0  0  0  0  0  0  0  0  0  0  0
   58.4310   32.5330   45.7610 N   0  0  0  0  0  0  0  0  0  0  0  0
   58.1310   33.8440   46.3390 C   0  0  0  0  0  0  0  0  0  0  0  0
   59.4180   34.6530   46.5610 C   0  0  0  0  0  0  0  0  0  0  0  0
   60.5070   33.8760   47.1840 N   0  0  0  0  0  0  0  0  0  0  0  0
   60.4680   33.8590   48.9360 S   0  0  0  0  0  0  0  0  0  0  0  0
   59.5580   34.9620   49.3980 O   0  0  0  0  0  0  0  0  0  0  0  0
   61.8400   34.1460   49.4810 O   0  0  0  0  0  0  0  0  0  0  0  0
   59.8870   32.3410   49.6260 C   0  0  0  0  0  0  0  0  0  0  0  0
   58.6180   32.2690   50.2180 C   0  0  0  0  0  0  0  0  0  0  0  0
   58.1590   31.0620   50.7540 C   0  0  0  0  0  0  0  0  0  0  0  0
   58.9590   29.9180   50.6890 C   0  0  0  0  0  0  0  0  0  0  0  0
   60.2160   29.9770   50.0810 C   0  0  0  0  0  0  0  0  0  0  0  0
   60.6770   31.1840   49.5440 C   0  0  0  0  0  0  0  0  0  0  0  0
   60.7460   32.5620   46.5600 C   0  0  0  0  0  0  0  0  0  0  0  0
   59.4690   31.7360   46.4180 C   0  0  0  0  0  0  0  0  0  0  0  0
   57.2422   30.8549   43.0379 H   0  0  0  0  0  0  0  0  0  0  0  0
   58.9414   30.9923   43.6412 H   0  0  0  0  0  0  0  0  0  0  0  0
   59.0746   28.8403   47.6966 H   0  0  0  0  0  0  0  0  0  0  0  0
   58.0810   27.4672   48.1991 H   0  0  0  0  0  0  0  0  0  0  0  0
   60.9868   27.5652   47.4544 H   0  0  0  0  0  0  0  0  0  0  0  0
   60.1427   26.3799   48.4776 H   0  0  0  0  0  0  0  0  0  0  0  0
   60.9099   26.1130   45.6931 H   0  0  0  0  0  0  0  0  0  0  0  0
   60.0361   24.9224   46.6856 H   0  0  0  0  0  0  0  0  0  0  0  0
   58.9499   26.2829   44.4866 H   0  0  0  0  0  0  0  0  0  0  0  0
   57.9734   25.5271   45.7527 H   0  0  0  0  0  0  0  0  0  0  0  0
   57.4716   34.3972   45.6540 H   0  0  0  0  0  0  0  0  0  0  0  0
   57.6377   33.6950   47.3108 H   0  0  0  0  0  0  0  0  0  0  0  0
   59.7686   35.0222   45.5860 H   0  0  0  0  0  0  0  0  0  0  0  0
   59.1687   35.4699   47.2542 H   0  0  0  0  0  0  0  0  0  0  0  0
   57.9815   33.1651   50.2609 H   0  0  0  0  0  0  0  0  0  0  0  0
   57.1673   31.0128   51.2273 H   0  0  0  0  0  0  0  0  0  0  0  0
   58.5991   28.9706   51.1166 H   0  0  0  0  0  0  0  0  0  0  0  0
   60.8428   29.0748   50.0246 H   0  0  0  0  0  0  0  0  0  0  0  0
   61.6619   31.2262   49.0559 H   0  0  0  0  0  0  0  0  0  0  0  0
   61.1758   32.7203   45.5599 H   0  0  0  0  0  0  0  0  0  0  0  0
   61.4320   32.0035   47.2138 H   0  0  0  0  0  0  0  0  0  0  0  0
   59.6787   30.8409   45.8140 H   0  0  0  0  0  0  0  0  0  0  0  0
   59.1182   31.4365   47.4166 H   0  0  0  0  0  0  0  0  0  0  0  0
  1  2  2  0
  2  3  1  0
  3  4  1  0
  4  5  1  0
  5  6  2  0
  5  7  1  0
  7  8  1  0
  8  9  1  0
  9 10  1  0
 10 11  1  0
 11 12  1  0
  8 13  1  0
 13 14  2  0
  2 15  1  0
 15 16  1  0
 16 17  1  0
 17 18  1  0
 18 19  1  0
 19 20  2  0
 19 21  2  0
 19 22  1  0
 22 23  2  0
 23 24  1  0
 24 25  2  0
 25 26  1  0
 26 27  2  0
 18 28  1  0
 28 29  1  0
 13  4  1  0
 29 15  1  0
 12  8  1  0
 27 22  1  0
  3 30  1  0
  3 31  1  0
  9 32  1  0
  9 33  1  0
 10 34  1  0
 10 35  1  0
 11 36  1  0
 11 37  1  0
 12 38  1  0
 12 39  1  0
 16 40  1  0
 16 41  1  0
 17 42  1  0
 17 43  1  0
 23 44  1  0
 24 45  1  0
 25 46  1  0
 26 47  1  0
 27 48  1  0
 28 49  1  0
 28 50  1  0
 29 51  1  0
 29 52  1  0
M  CHG  1   7  -1
M  END
>  <UniqueID>  (1) 
1

>  <SMILES>  (1) 
O=C(CN1C(=O)[N-]C2(CCCC2)C1=O)N1CCN(S(=O)(=O)c2ccccc2)CC1

>  <Energy>  (1) 
80.27651400866594

>  <Genealogy>  (1) 
O=C(CN1C(=O)[N-]C2(CCCC2)C1=O)N1CCN(S(=O)(=O)c2ccccc2)CC1 (protonated)
O=C(CN1C(=O)[N-]C2(CCCC2)C1=O)N1CCN(S(=O)(=O)c2ccccc2)CC1 (3D coordinates assigned)
O=C(CN1C(=O)[N-]C2(CCCC2)C1=O)N1CCN(S(=O)(=O)c2ccccc2)CC1 (nonaromatic ring conformer: 80.27651400866594 kcal/mol)

>  <smiles>  (1) 
O=C(CN1C(=O)NC2(CCCC2)C1=O)N1CCN(S(=O)(=O)c2ccccc2)CC1

>  <score_type>  (1) 
oracle

>  <origin>  (1) 
adg

>  <m_score__min__energy>  (1) 
-11.27

>  <m_primary>  (1) 
energy

$$$$
1:0
     RDKit          3D

 63 66  0  0  0  0  0  0  0  0999 V2000
   57.7170   32.0590   41.8350 C   0  0  0  0  0  0  0  0  0  0  0  0
   57.7300   32.4970   43.1900 O   0  0  0  0  0  0  0  0  0  0  0  0
   58.1200   31.7030   44.2820 C   0  0  0  0  0  0  0  0  0  0  0  0
   58.4350   30.3390   44.1300 C   0  0  0  0  0  0  0  0  0  0  0  0
   58.8330   29.5660   45.2320 C   0  0  0  0  0  0  0  0  0  0  0  0
   59.1230   28.1620   45.0750 N   0  0  0  0  0  0  0  0  0  0  0  0
   58.9400   27.4870   43.7860 C   0  0  0  0  0  0  0  0  0  0  0  0
   57.7920   26.4540   43.8750 C   0  0  0  0  0  0  0  0  0  0  0  0
   57.3510   26.2260   45.2750 N   0  0  0  0  0  0  0  0  0  0  0  0
   56.4090   25.1230   45.4210 C   0  0  0  0  0  0  0  0  0  0  0  0
   55.3480   25.3270   45.9980 O   0  0  0  0  0  0  0  0  0  0  0  0
   56.6410   23.7560   44.8170 C   0  0  0  0  0  0  0  0  0  0  0  0
   55.3790   23.0380   44.3590 C   0  0  0  0  0  0  0  0  0  0  0  0
   56.3240   23.6330   43.3320 C   0  0  0  0  0  0  0  0  0  0  0  0
   58.5160   26.0280   46.1650 C   0  0  0  0  0  0  0  0  0  0  0  0
   59.3580   27.3190   46.2540 C   0  0  0  0  0  0  0  0  0  0  0  0
   58.9030   30.1610   46.4970 C   0  0  0  0  0  0  0  0  0  0  0  0
   58.5880   31.5120   46.6620 C   0  0  0  0  0  0  0  0  0  0  0  0
   58.6250   32.0470   47.9100 F   0  0  0  0  0  0  0  0  0  0  0  0
   58.2060   32.2930   45.5580 C   0  0  0  0  0  0  0  0  0  0  0  0
   57.8540   33.7180   45.7460 C   0  0  0  0  0  0  0  0  0  0  0  0
   56.6450   34.0620   45.6710 O   0  0  0  0  0  0  0  0  0  0  0  0
   58.8670   34.7150   46.0000 N   0  0  0  0  0  0  0  0  0  0  0  0
   59.3370   35.5720   44.9060 C   0  0  0  0  0  0  0  0  0  0  0  0
   59.2810   34.9960   47.3810 C   0  0  0  0  0  0  0  0  0  0  0  0
   60.5180   34.2200   47.7300 C   0  0  0  0  0  0  0  0  0  0  0  0
   61.5540   33.8870   46.8810 C   0  0  0  0  0  0  0  0  0  0  0  0
   62.4580   33.1790   47.5860 N   0  0  0  0  0  0  0  0  0  0  0  0
   63.7300   32.6850   47.0790 C   0  0  0  0  0  0  0  0  0  0  0  0
   62.0620   33.0510   48.8420 N   0  0  0  0  0  0  0  0  0  0  0  0
   60.8720   33.6730   48.9540 C   0  0  0  0  0  0  0  0  0  0  0  0
   60.0870   33.7430   50.2240 C   0  0  0  0  0  0  0  0  0  0  0  0
   57.6844   30.9599   41.8052 H   0  0  0  0  0  0  0  0  0  0  0  0
   56.8305   32.4660   41.3266 H   0  0  0  0  0  0  0  0  0  0  0  0
   58.6260   32.4127   41.3266 H   0  0  0  0  0  0  0  0  0  0  0  0
   58.3684   29.8736   43.1356 H   0  0  0  0  0  0  0  0  0  0  0  0
   58.6957   28.2347   43.0171 H   0  0  0  0  0  0  0  0  0  0  0  0
   59.8709   26.9634   43.5227 H   0  0  0  0  0  0  0  0  0  0  0  0
   56.9369   26.8231   43.2897 H   0  0  0  0  0  0  0  0  0  0  0  0
   58.1654   25.4984   43.4782 H   0  0  0  0  0  0  0  0  0  0  0  0
   56.8410   27.0890   45.5870 H   0  0  0  0  0  0  0  0  0  0  0  0
   57.5028   23.5015   45.4514 H   0  0  0  0  0  0  0  0  0  0  0  0
   55.2990   21.9460   44.4646 H   0  0  0  0  0  0  0  0  0  0  0  0
   54.3055   23.1384   44.5771 H   0  0  0  0  0  0  0  0  0  0  0  0
   56.9289   22.9722   42.6936 H   0  0  0  0  0  0  0  0  0  0  0  0
   56.2189   24.3428   42.4983 H   0  0  0  0  0  0  0  0  0  0  0  0
   58.1609   25.7580   47.1705 H   0  0  0  0  0  0  0  0  0  0  0  0
   59.1433   25.2233   45.7540 H   0  0  0  0  0  0  0  0  0  0  0  0
   59.0753   27.8750   47.1600 H   0  0  0  0  0  0  0  0  0  0  0  0
   60.4237   27.0495   46.2949 H   0  0  0  0  0  0  0  0  0  0  0  0
   59.2080   29.5609   47.3669 H   0  0  0  0  0  0  0  0  0  0  0  0
   59.8264   36.4643   45.3235 H   0  0  0  0  0  0  0  0  0  0  0  0
   60.0560   35.0153   44.2871 H   0  0  0  0  0  0  0  0  0  0  0  0
   58.4810   35.8790   44.2871 H   0  0  0  0  0  0  0  0  0  0  0  0
   59.4876   36.0714   47.4848 H   0  0  0  0  0  0  0  0  0  0  0  0
   58.4707   34.6968   48.0620 H   0  0  0  0  0  0  0  0  0  0  0  0
   61.6285   34.1528   45.8162 H   0  0  0  0  0  0  0  0  0  0  0  0
   64.3871   32.4298   47.9235 H   0  0  0  0  0  0  0  0  0  0  0  0
   63.5569   31.7887   46.4652 H   0  0  0  0  0  0  0  0  0  0  0  0
   64.2072   33.4632   46.4652 H   0  0  0  0  0  0  0  0  0  0  0  0
   60.7722   33.6819   51.0824 H   0  0  0  0  0  0  0  0  0  0  0  0
   59.5353   34.6939   50.2621 H   0  0  0  0  0  0  0  0  0  0  0  0
   59.3758   32.9047   50.2621 H   0  0  0  0  0  0  0  0  0  0  0  0
  1  2  1  0
  2  3  1  0
  3  4  2  0
  4  5  1  0
  5  6  1  0
  6  7  1  0
  7  8  1  0
  8  9  1  0
  9 10  1  0
 10 11  2  0
 10 12  1  0
 12 13  1  0
 13 14  1  0
  9 15  1  0
 15 16  1  0
  5 17  2  0
 17 18  1  0
 18 19  1  0
 18 20  2  0
 20 21  1  0
 21 22  2  0
 21 23  1  0
 23 24  1  0
 23 25  1  0
 25 26  1  0
 26 27  2  0
 27 28  1  0
 28 29  1  0
 28 30  1  0
 30 31  2  0
 31 32  1  0
 20  3  1  0
 31 26  1  0
 16  6  1  0
 14 12  1  0
  1 33  1  0
  1 34  1  0
  1 35  1  0
  4 36  1  0
  7 37  1  0
  7 38  1  0
  8 39  1  0
  8 40  1  0
  9 41  1  0
 12 42  1  0
 13 43  1  0
 13 44  1  0
 14 45  1  0
 14 46  1  0
 15 47  1  0
 15 48  1  0
 16 49  1  0
 16 50  1  0
 17 51  1  0
 24 52  1  0
 24 53  1  0
 24 54  1  0
 25 55  1  0
 25 56  1  0
 27 57  1  0
 29 58  1  0
 29 59  1  0
 29 60  1  0
 32 61  1  0
 32 62  1  0
 32 63  1  0
M  CHG  1   9   1
M  END
>  <UniqueID>  (2) 
2

>  <SMILES>  (2) 
COc1cc(N2CC[NH+](C(=O)C3CC3)CC2)cc(F)c1C(=O)N(C)Cc1cn(C)nc1C

>  <Energy>  (2) 
373.9762127320783

>  <Genealogy>  (2) 
COc1cc(N2CC[NH+](C(=O)C3CC3)CC2)cc(F)c1C(=O)N(C)Cc1cn(C)nc1C (protonated)
COc1cc(N2CC[NH+](C(=O)C3CC3)CC2)cc(F)c1C(=O)N(C)Cc1cn(C)nc1C (3D coordinates assigned)
COc1cc(N2CC[NH+](C(=O)C3CC3)CC2)cc(F)c1C(=O)N(C)Cc1cn(C)nc1C (nonaromatic ring conformer: 373.9762127320783 kcal/mol)

>  <smiles>  (2) 
COc1cc(N2CCN(C(=O)C3CC3)CC2)cc(F)c1C(=O)N(C)Cc1cn(C)nc1C

>  <score_type>  (2) 
oracle

>  <origin>  (2) 
adg

>  <m_score__min__energy>  (2) 
-7.0700000000000003

>  <m_primary>  (2) 
energy

$$$$
2:0
     RDKit          3D

 59 62  0  0  0  0  0  0  0  0999 V2000
   54.3800   24.7500   45.6200 C   0  0  0  0  0  0  0  0  0  0  0  0
   55.5300   25.4240   45.5540 C   0  0  0  0  0  0  0  0  0  0  0  0
   55.7060   26.6060   46.1900 N   0  0  0  0  0  0  0  0  0  0  0  0
   56.9720   26.9690   45.9000 C   0  0  0  0  0  0  0  0  0  0  0  0
   57.5260   28.0970   46.3690 C   0  0  0  0  0  0  0  0  0  0  0  0
   57.2680   29.4400   45.8200 C   0  0  0  0  0  0  0  0  0  0  0  0
   56.2290   29.8060   44.9700 C   0  0  0  0  0  0  0  0  0  0  0  0
   55.1870   28.9730   44.5720 O   0  0  0  0  0  0  0  0  0  0  0  0
   56.3360   31.0900   44.5570 N   0  0  0  0  0  0  0  0  0  0  0  0
   57.4690   31.5310   45.1370 C   0  0  0  0  0  0  0  0  0  0  0  0
   58.0410   32.7920   44.9870 C   0  0  0  0  0  0  0  0  0  0  0  0
   59.2630   33.0470   45.6340 C   0  0  0  0  0  0  0  0  0  0  0  0
   59.8900   32.0430   46.4090 C   0  0  0  0  0  0  0  0  0  0  0  0
   61.4380   32.3660   47.1810 S   0  0  0  0  0  0  0  0  0  0  0  0
   62.1560   33.4610   46.4390 O   0  0  0  0  0  0  0  0  0  0  0  0
   62.2840   31.1230   47.1340 O   0  0  0  0  0  0  0  0  0  0  0  0
   61.1680   32.8230   48.8440 N   0  0  0  0  0  0  0  0  0  0  0  0
   60.5060   31.7520   49.5900 C   0  0  0  0  0  0  0  0  0  0  0  0
   59.7440   32.4230   50.7200 C   0  0  0  0  0  0  0  0  0  0  0  0
   59.5760   33.8730   50.2890 C   0  0  0  0  0  0  0  0  0  0  0  0
   60.2720   33.9750   48.9390 C   0  0  0  0  0  0  0  0  0  0  0  0
   59.2950   30.7710   46.5300 C   0  0  0  0  0  0  0  0  0  0  0  0
   58.0690   30.5580   45.8970 C   0  0  0  0  0  0  0  0  0  0  0  0
   57.5420   25.9860   45.1090 C   0  0  0  0  0  0  0  0  0  0  0  0
   58.7330   25.9490   44.6960 O   0  0  0  0  0  0  0  0  0  0  0  0
   56.6360   25.0200   44.8760 N   0  0  0  0  0  0  0  0  0  0  0  0
   56.8640   23.7910   44.1040 C   0  0  0  0  0  0  0  0  0  0  0  0
   56.7990   22.5450   45.0000 C   0  0  0  0  0  0  0  0  0  0  0  0
   57.7470   22.6410   46.2040 C   0  0  0  0  0  0  0  0  0  0  0  0
   57.0570   22.2000   47.4370 N   0  0  0  0  0  0  0  0  0  0  0  0
   55.9450   21.2850   47.1230 C   0  0  0  0  0  0  0  0  0  0  0  0
   56.5400   23.3610   48.1800 C   0  0  0  0  0  0  0  0  0  0  0  0
   54.2728   23.7920   45.0901 H   0  0  0  0  0  0  0  0  0  0  0  0
   53.5394   25.1524   46.2043 H   0  0  0  0  0  0  0  0  0  0  0  0
   58.2186   28.0141   47.2195 H   0  0  0  0  0  0  0  0  0  0  0  0
   55.1280   28.0140   44.8910 H   0  0  0  0  0  0  0  0  0  0  0  0
   57.5505   33.5667   44.3794 H   0  0  0  0  0  0  0  0  0  0  0  0
   59.7356   34.0355   45.5368 H   0  0  0  0  0  0  0  0  0  0  0  0
   59.8116   31.2054   48.9351 H   0  0  0  0  0  0  0  0  0  0  0  0
   61.2361   31.0262   49.9776 H   0  0  0  0  0  0  0  0  0  0  0  0
   58.7623   31.9464   50.8584 H   0  0  0  0  0  0  0  0  0  0  0  0
   60.2771   32.3403   51.6786 H   0  0  0  0  0  0  0  0  0  0  0  0
   58.5096   34.1250   50.1925 H   0  0  0  0  0  0  0  0  0  0  0  0
   60.0032   34.5710   51.0240 H   0  0  0  0  0  0  0  0  0  0  0  0
   59.5309   33.9476   48.1266 H   0  0  0  0  0  0  0  0  0  0  0  0
   60.8286   34.9195   48.8495 H   0  0  0  0  0  0  0  0  0  0  0  0
   59.7820   29.9702   47.1058 H   0  0  0  0  0  0  0  0  0  0  0  0
   56.0932   23.7108   43.3233 H   0  0  0  0  0  0  0  0  0  0  0  0
   57.8681   23.8441   43.6579 H   0  0  0  0  0  0  0  0  0  0  0  0
   55.7694   22.4285   45.3692 H   0  0  0  0  0  0  0  0  0  0  0  0
   57.1102   21.6802   44.3957 H   0  0  0  0  0  0  0  0  0  0  0  0
   58.6227   21.9988   46.0286 H   0  0  0  0  0  0  0  0  0  0  0  0
   58.0654   23.6868   46.3265 H   0  0  0  0  0  0  0  0  0  0  0  0
   55.4978   20.9170   48.0582 H   0  0  0  0  0  0  0  0  0  0  0  0
   55.1830   21.8211   46.5382 H   0  0  0  0  0  0  0  0  0  0  0  0
   56.3243   20.4340   46.5382 H   0  0  0  0  0  0  0  0  0  0  0  0
   56.6242   23.1720   49.2604 H   0  0  0  0  0  0  0  0  0  0  0  0
   57.1252   24.2546   47.9174 H   0  0  0  0  0  0  0  0  0  0  0  0
   55.4843   23.5239   47.9174 H   0  0  0  0  0  0  0  0  0  0  0  0
  1  2  2  0
  2  3  1  0
  3  4  1  0
  4  5  2  3
  5  6  1  0
  6  7  2  0
  7  8  1  0
  7  9  1  0
  9 10  1  0
 10 11  2  0
 11 12  1  0
 12 13  2  0
 13 14  1  0
 14 15  2  0
 14 16  2  0
 14 17  1  0
 17 18  1  0
 18 19  1  0
 19 20  1  0
 20 21  1  0
 13 22  1  0
 22 23  2  0
  4 24  1  0
 24 25  2  0
 24 26  1  0
 26 27  1  0
 27 28  1  0
 28 29  1  0
 29 30  1  0
 30 31  1  0
 30 32  1  0
 26  2  1  0
 23  6  1  0
 23 10  1  0
 21 17  1  0
  1 33  1  0
  1 34  1  0
  5 35  1  0
  8 36  1  0
 11 37  1  0
 12 38  1  0
 18 39  1  0
 18 40  1  0
 19 41  1  0
 19 42  1  0
 20 43  1  0
 20 44  1  0
 21 45  1  0
 21 46  1  0
 22 47  1  0
 27 48  1  0
 27 49  1  0
 28 50  1  0
 28 51  1  0
 29 52  1  0
 29 53  1  0
 31 54  1  0
 31 55  1  0
 31 56  1  0
 32 57  1  0
 32 58  1  0
 32 59  1  0
M  CHG  2   3  -1   9  -1
M  END
>  <UniqueID>  (3) 
3

>  <SMILES>  (3) 
C=c1[n-]c(=Cc2c(O)[n-]c3ccc(S(=O)(=O)N4CCCC4)cc23)c(=O)n1CCCN(C)C

>  <Energy>  (3) 
130.45944197606718

>  <Genealogy>  (3) 
C=c1[n-]c(=Cc2c(O)[n-]c3ccc(S(=O)(=O)N4CCCC4)cc23)c(=O)n1CCCN(C)C (protonated)
C=c1[n-]c(=Cc2c(O)[n-]c3ccc(S(=O)(=O)N4CCCC4)cc23)c(=O)n1CCCN(C)C (3D coordinates assigned)
C=c1[n-]c(=Cc2c(O)[n-]c3ccc(S(=O)(=O)N4CCCC4)cc23)c(=O)n1CCCN(C)C (nonaromatic ring conformer: 130.45944197606718 kcal/mol)

>  <smiles>  (3) 
C=c1[nH]c(=Cc2c(O)[nH]c3ccc(S(=O)(=O)N4CCCC4)cc23)c(=O)n1CCCN(C)C

>  <score_type>  (3) 
oracle

>  <origin>  (3) 
adg

>  <m_score__min__energy>  (3) 
-12.77

>  <m_primary>  (3) 
energy

$$$$
3:0
     RDKit          3D

 60 63  0  0  1  0  0  0  0  0999 V2000
   50.6360   31.4230   48.5860 C   0  0  0  0  0  0  0  0  0  0  0  0
   50.8790   32.3220   49.6560 O   0  0  0  0  0  0  0  0  0  0  0  0
   51.2850   31.8290   50.8880 C   0  0  0  0  0  0  0  0  0  0  0  0
   52.0570   30.6650   50.9970 C   0  0  0  0  0  0  0  0  0  0  0  0
   52.4290   30.2280   52.2500 C   0  0  0  0  0  0  0  0  0  0  0  0
   53.1320   29.1720   52.4050 N   0  0  0  0  0  0  0  0  0  0  0  0
   54.5500   29.0040   53.3260 S   0  0  0  0  0  0  0  0  0  0  0  0
   54.2550   29.6570   54.6780 O   0  0  0  0  0  0  0  0  0  0  0  0
   54.9160   27.5910   53.6660 O   0  0  0  0  0  0  0  0  0  0  0  0
   55.9290   29.8650   52.6910 C   0  0  0  0  0  0  0  0  0  0  0  0
   55.8280   30.8860   51.7690 C   0  0  0  0  0  0  0  0  0  0  0  0
   56.9550   31.5520   51.2900 C   0  0  0  0  0  0  0  0  0  0  0  0
   58.2240   31.2220   51.7150 C   0  0  0  0  0  0  0  0  0  0  0  0
   59.3980   31.8740   51.2480 N   0  0  0  0  0  0  0  0  0  0  0  0
   60.2180   31.3340   50.1620 C   0  0  0  0  0  0  0  0  0  0  0  0
   59.5430   30.0540   49.7080 C   0  0  0  0  0  0  0  0  0  0  0  0
   60.1230   29.5040   48.4320 C   0  0  0  0  0  0  0  0  0  0  0  0
   60.2010   30.5390   47.4600 N   0  0  0  0  0  0  0  0  0  0  0  0
   60.0810   30.1330   46.1030 C   0  0  0  0  0  0  0  0  0  0  0  0
   58.7980   30.3990   45.4540 C   0  0  0  0  0  0  0  0  0  0  0  0
   58.4770   31.5500   44.7670 C   0  0  0  0  0  0  0  0  0  0  0  0
   57.2210   31.7110   44.1760 C   0  0  0  0  0  0  0  0  0  0  0  0
   56.2590   30.7360   44.2550 C   0  0  0  0  0  0  0  0  0  0  0  0
   56.5780   29.5800   44.9450 C   0  0  0  0  0  0  0  0  0  0  0  0
   55.6560   28.5500   45.0670 O   0  0  0  0  0  0  0  0  0  0  0  0
   57.8200   29.4060   45.5360 C   0  0  0  0  0  0  0  0  0  0  0  0
   59.5990   31.7820   47.8130 C   0  0  0  0  0  0  0  0  0  0  0  0
   60.3390   32.3360   49.0340 C   0  0  0  0  0  0  0  0  0  0  0  0
   58.3160   30.1970   52.6410 C   0  0  0  0  0  0  0  0  0  0  0  0
   59.9090   29.7190   53.2330 Cl  0  0  0  0  0  0  0  0  0  0  0  0
   57.2010   29.5380   53.1140 C   0  0  0  0  0  0  0  0  0  0  0  0
   52.0630   30.8970   53.3540 N   0  0  0  0  0  0  0  0  0  0  0  0
   51.3230   32.0140   53.2520 C   0  0  0  0  0  0  0  0  0  0  0  0
   50.9450   32.4670   52.0440 N   0  0  0  0  0  0  0  0  0  0  0  0
   50.3691   30.4354   48.9903 H   0  0  0  0  0  0  0  0  0  0  0  0
   49.8082   31.8026   47.9690 H   0  0  0  0  0  0  0  0  0  0  0  0
   51.5423   31.3339   47.9690 H   0  0  0  0  0  0  0  0  0  0  0  0
   52.3611   30.1093   50.0977 H   0  0  0  0  0  0  0  0  0  0  0  0
   54.8338   31.1819   51.4028 H   0  0  0  0  0  0  0  0  0  0  0  0
   56.8285   32.3606   50.5550 H   0  0  0  0  0  0  0  0  0  0  0  0
   59.6600   32.7870   51.7280 H   0  0  0  0  0  0  0  0  0  0  0  0
   61.2447   31.1267   50.4980 H   0  0  0  0  0  0  0  0  0  0  0  0
   59.6565   29.2982   50.4991 H   0  0  0  0  0  0  0  0  0  0  0  0
   58.4862   30.2900   49.5143 H   0  0  0  0  0  0  0  0  0  0  0  0
   61.1307   29.1089   48.6281 H   0  0  0  0  0  0  0  0  0  0  0  0
   59.4783   28.6962   48.0554 H   0  0  0  0  0  0  0  0  0  0  0  0
   60.8608   30.6538   45.5280 H   0  0  0  0  0  0  0  0  0  0  0  0
   60.1789   29.0375   46.1169 H   0  0  0  0  0  0  0  0  0  0  0  0
   59.2218   32.3551   44.6826 H   0  0  0  0  0  0  0  0  0  0  0  0
   56.9982   32.6421   43.6343 H   0  0  0  0  0  0  0  0  0  0  0  0
   55.2720   30.8683   43.7877 H   0  0  0  0  0  0  0  0  0  0  0  0
   54.7830   28.5480   44.5390 H   0  0  0  0  0  0  0  0  0  0  0  0
   58.0378   28.4732   46.0767 H   0  0  0  0  0  0  0  0  0  0  0  0
   59.6818   32.4885   46.9740 H   0  0  0  0  0  0  0  0  0  0  0  0
   58.5333   31.6385   48.0446 H   0  0  0  0  0  0  0  0  0  0  0  0
   61.3997   32.4907   48.7868 H   0  0  0  0  0  0  0  0  0  0  0  0
   59.9016   33.2991   49.3358 H   0  0  0  0  0  0  0  0  0  0  0  0
   57.3291   28.7294   53.8487 H   0  0  0  0  0  0  0  0  0  0  0  0
   52.3470   30.5580   54.2780 H   0  0  0  0  0  0  0  0  0  0  0  0
   51.0256   32.5594   54.1598 H   0  0  0  0  0  0  0  0  0  0  0  0
  1  2  1  0
  2  3  1  0
  3  4  2  0
  4  5  1  0
  5  6  2  0
  6  7  1  0
  7  8  2  0
  7  9  2  0
  7 10  1  0
 10 11  2  0
 11 12  1  0
 12 13  2  0
 13 14  1  0
 14 15  1  0
 15 16  1  0
 16 17  1  0
 17 18  1  0
 18 19  1  0
 19 20  1  0
 20 21  2  0
 21 22  1  0
 22 23  2  0
 23 24  1  0
 24 25  1  0
 24 26  2  0
 18 27  1  0
 27 28  1  0
 13 29  1  0
 29 30  1  0
 29 31  2  0
  5 32  1  0
 32 33  1  0
 33 34  2  0
 34  3  1  0
 31 10  1  0
 28 15  1  0
 26 20  1  0
  1 35  1  0
  1 36  1  0
  1 37  1  0
  4 38  1  0
 11 39  1  0
 12 40  1  0
 14 41  1  0
 15 42  1  0
 16 43  1  0
 16 44  1  0
 17 45  1  0
 17 46  1  0
 19 47  1  0
 19 48  1  0
 21 49  1  0
 22 50  1  0
 23 51  1  0
 25 52  1  0
 26 53  1  0
 27 54  1  0
 27 55  1  0
 28 56  1  0
 28 57  1  0
 31 58  1  0
 32 59  1  0
 33 60  1  0
M  END
>  <smiles>  (4) 
COc1cc(=NS(=O)(=O)c2ccc(NC3CCN(Cc4cccc(O)c4)CC3)c(Cl)c2)[nH]cn1

>  <score_type>  (4) 
oracle

>  <origin>  (4) 
adg

>  <m_score__min__energy>  (4) 
-9.7200000000000006

>  <m_primary>  (4) 
energy

$$$$
4:0
     RDKit          3D

 54 56  0  0  0  0  0  0  0  0999 V2000
   55.9310   28.6810   43.9630 H   0  0  0  0  0  0  0  0  0  0  0  0
   55.8440   28.6020   44.9690 O   0  0  0  0  0  0  0  0  0  0  0  0
   56.2500   27.4460   45.6270 C   0  0  0  0  0  0  0  0  0  0  0  0
   55.4210   26.4440   45.9640 N   0  0  0  0  0  0  0  0  0  0  0  0
   56.2410   25.5880   46.6120 C   0  0  0  0  0  0  0  0  0  0  0  0
   55.8360   24.5020   47.1010 O   0  0  0  0  0  0  0  0  0  0  0  0
   57.5260   25.9930   46.7050 N   0  0  0  0  0  0  0  0  0  0  0  0
   57.5300   27.1650   46.0480 C   0  0  0  0  0  0  0  0  0  0  0  0
   58.6990   28.0550   45.9790 C   0  0  0  0  0  0  0  0  0  0  0  0
   59.3063   28.0154   45.0627 H   0  0  0  0  0  0  0  0  0  0  0  0
   59.0910   28.9140   46.9390 C   0  0  0  0  0  0  0  0  0  0  0  0
   58.7440   30.2540   46.9300 C   0  0  0  0  0  0  0  0  0  0  0  0
   58.0817   30.7545   46.2083 H   0  0  0  0  0  0  0  0  0  0  0  0
   59.3870   30.8410   47.9980 C   0  0  0  0  0  0  0  0  0  0  0  0
   59.3090   32.2800   48.3140 C   0  0  0  0  0  0  0  0  0  0  0  0
   58.9930   32.6110   49.4880 O   0  0  0  0  0  0  0  0  0  0  0  0
   59.5700   33.2980   47.3190 N   0  0  0  0  0  0  0  0  0  0  0  0
   60.8790   33.3990   46.6500 C   0  0  0  0  0  0  0  0  0  0  0  0
   61.0211   32.5255   45.9967 H   0  0  0  0  0  0  0  0  0  0  0  0
   60.9063   34.3233   46.0542 H   0  0  0  0  0  0  0  0  0  0  0  0
   61.9830   33.4410   47.6690 C   0  0  0  0  0  0  0  0  0  0  0  0
   63.1410   32.6670   47.5010 C   0  0  0  0  0  0  0  0  0  0  0  0
   63.2683   32.0489   46.6001 H   0  0  0  0  0  0  0  0  0  0  0  0
   64.1310   32.6870   48.4860 C   0  0  0  0  0  0  0  0  0  0  0  0
   65.0431   32.0850   48.3610 H   0  0  0  0  0  0  0  0  0  0  0  0
   63.9680   33.4500   49.5990 N   0  0  0  0  0  0  0  0  0  0  0  0
   62.8550   34.2050   49.7910 C   0  0  0  0  0  0  0  0  0  0  0  0
   62.7533   34.8121   50.7026 H   0  0  0  0  0  0  0  0  0  0  0  0
   61.8400   34.2110   48.8320 C   0  0  0  0  0  0  0  0  0  0  0  0
   60.9344   34.8157   48.9879 H   0  0  0  0  0  0  0  0  0  0  0  0
   58.4920   34.2120   46.9060 C   0  0  0  0  0  0  0  0  0  0  0  0
   58.1267   34.7577   47.7885 H   0  0  0  0  0  0  0  0  0  0  0  0
   58.8952   34.9099   46.1574 H   0  0  0  0  0  0  0  0  0  0  0  0
   57.3150   33.4380   46.2690 C   0  0  0  0  0  0  0  0  0  0  0  0
   57.2320   32.4631   46.7716 H   0  0  0  0  0  0  0  0  0  0  0  0
   56.4201   34.0643   46.3987 H   0  0  0  0  0  0  0  0  0  0  0  0
   57.4570   33.1990   44.8150 N   0  0  0  0  0  0  0  0  0  0  0  0
   57.3550   31.7760   44.4560 C   0  0  0  0  0  0  0  0  0  0  0  0
   57.3115   31.1689   45.3723 H   0  0  0  0  0  0  0  0  0  0  0  0
   56.4428   31.6118   43.8637 H   0  0  0  0  0  0  0  0  0  0  0  0
   58.2345   31.4833   43.8637 H   0  0  0  0  0  0  0  0  0  0  0  0
   58.6680   33.8090   44.2480 C   0  0  0  0  0  0  0  0  0  0  0  0
   59.3274   34.1412   45.0634 H   0  0  0  0  0  0  0  0  0  0  0  0
   59.1955   33.0691   43.6281 H   0  0  0  0  0  0  0  0  0  0  0  0
   58.3874   34.6733   43.6281 H   0  0  0  0  0  0  0  0  0  0  0  0
   60.0740   29.9150   48.7070 N   0  0  0  0  0  0  0  0  0  0  0  0
   60.7680   30.1290   49.9820 C   0  0  0  0  0  0  0  0  0  0  0  0
   60.0803   29.9169   50.8139 H   0  0  0  0  0  0  0  0  0  0  0  0
   61.6366   29.4570   50.0440 H   0  0  0  0  0  0  0  0  0  0  0  0
   61.1073   31.1735   50.0440 H   0  0  0  0  0  0  0  0  0  0  0  0
   59.8840   28.7220   48.0830 C   0  0  0  0  0  0  0  0  0  0  0  0
   60.3000   27.5520   48.5930 C   0  0  0  0  0  0  0  0  0  0  0  0
   60.9212   27.5375   49.5007 H   0  0  0  0  0  0  0  0  0  0  0  0
   60.0196   26.6078   48.1032 H   0  0  0  0  0  0  0  0  0  0  0  0
  1  2  1  0
  2  3  1  0
  3  4  1  0
  4  5  1  0
  5  6  2  0
  5  7  1  0
  7  8  1  0
  8  9  1  0
  9 10  1  0
  9 11  2  0
 11 12  1  0
 12 13  1  0
 12 14  2  0
 14 15  1  0
 15 16  2  0
 15 17  1  0
 17 18  1  0
 18 19  1  0
 18 20  1  0
 18 21  1  0
 21 22  2  0
 22 23  1  0
 22 24  1  0
 24 25  1  0
 24 26  2  0
 26 27  1  0
 27 28  1  0
 27 29  2  0
 29 30  1  0
 17 31  1  0
 31 32  1  0
 31 33  1  0
 31 34  1  0
 34 35  1  0
 34 36  1  0
 34 37  1  0
 37 38  1  0
 38 39  1  0
 38 40  1  0
 38 41  1  0
 37 42  1  0
 42 43  1  0
 42 44  1  0
 42 45  1  0
 14 46  1  0
 46 47  1  0
 47 48  1  0
 47 49  1  0
 47 50  1  0
 46 51  1  0
 51 52  2  0
 52 53  1  0
 52 54  1  0
  8  3  2  0
 51 11  1  0
 29 21  1  0
M  CHG  2   4  -1   7  -1
M  END
>  <UniqueID>  (5) 
4

>  <SMILES>  (5) 
C=c1/c(=C\c2[n-]c(=O)[n-]c2O)cc(C(=O)N(CCN(C)C)Cc2ccncc2)n1C

>  <Energy>  (5) 
129.95611742186725

>  <Genealogy>  (5) 
C=c1c(=Cc2[n-]c(=O)[n-]c2O)cc(C(=O)N(CCN(C)C)Cc2ccncc2)n1C (protonated)
C=c1/c(=C\c2[n-]c(=O)[n-]c2O)cc(C(=O)N(CCN(C)C)Cc2ccncc2)n1C (cis-trans isomerization)
C=c1/c(=C\c2[n-]c(=O)[n-]c2O)cc(C(=O)N(CCN(C)C)Cc2ccncc2)n1C (3D coordinates assigned)
C=c1/c(=C\c2[n-]c(=O)[n-]c2O)cc(C(=O)N(CCN(C)C)Cc2ccncc2)n1C (optimized conformer: 129.95611742186725 kcal/mol)

>  <smiles>  (5) 
C=c1c(=Cc2[nH]c(=O)[nH]c2O)cc(C(=O)N(CCN(C)C)Cc2ccncc2)n1C

>  <score_type>  (5) 
oracle

>  <origin>  (5) 
adg

>  <m_score__min__energy>  (5) 
-12.699999999999999

>  <m_primary>  (5) 
energy

$$$$
5:0
     RDKit          3D

 55 58  0  0  0  0  0  0  0  0999 V2000
   60.3100   29.5820   46.8660 O   0  0  0  0  0  0  0  0  0  0  0  0
   59.5980   29.2670   47.8560 C   0  0  0  0  0  0  0  0  0  0  0  0
   58.9080   30.3660   48.6250 C   0  0  0  0  0  0  0  0  0  0  0  0
   58.4890   31.4770   47.7660 N   0  0  0  0  0  0  0  0  0  0  0  0
   59.1570   32.4450   47.1970 C   0  0  0  0  0  0  0  0  0  0  0  0
   60.4480   32.6130   47.5920 N   0  0  0  0  0  0  0  0  0  0  0  0
   61.2140   33.6480   47.1680 C   0  0  0  0  0  0  0  0  0  0  0  0
   60.6680   34.5890   46.3030 C   0  0  0  0  0  0  0  0  0  0  0  0
   59.3940   34.4260   45.8680 N   0  0  0  0  0  0  0  0  0  0  0  0
   58.6180   33.3820   46.2660 C   0  0  0  0  0  0  0  0  0  0  0  0
   57.3130   33.2570   45.6100 C   0  0  0  0  0  0  0  0  0  0  0  0
   56.6860   34.2960   45.2680 O   0  0  0  0  0  0  0  0  0  0  0  0
   56.8150   31.9620   45.2630 N   0  0  0  0  0  0  0  0  0  0  0  0
   57.1710   31.2670   44.0270 C   0  0  0  0  0  0  0  0  0  0  0  0
   58.5220   30.5770   44.1690 C   0  0  0  0  0  0  0  0  0  0  0  0
   58.2300   29.1960   44.7430 C   0  0  0  0  0  0  0  0  0  0  0  0
   56.7460   28.9230   44.5090 C   0  0  0  0  0  0  0  0  0  0  0  0
   56.1870   30.1350   43.7740 C   0  0  0  0  0  0  0  0  0  0  0  0
   59.4570   27.8780   48.1870 N   0  0  0  0  0  0  0  0  0  0  0  0
   58.9630   26.8450   47.3260 C   0  0  0  0  0  0  0  0  0  0  0  0
   59.8740   25.9770   46.7120 C   0  0  0  0  0  0  0  0  0  0  0  0
   59.4220   24.9780   45.8460 C   0  0  0  0  0  0  0  0  0  0  0  0
   58.0490   24.8160   45.6060 C   0  0  0  0  0  0  0  0  0  0  0  0
   57.5890   23.8090   44.6890 N   0  0  0  0  0  0  0  0  0  0  0  0
   56.3830   24.0720   43.8950 C   0  0  0  0  0  0  0  0  0  0  0  0
   56.1780   22.9910   42.8280 C   0  0  0  0  0  0  0  0  0  0  0  0
   56.2770   21.7070   43.4110 O   0  0  0  0  0  0  0  0  0  0  0  0
   57.6200   21.4400   43.7630 C   0  0  0  0  0  0  0  0  0  0  0  0
   58.1630   22.4880   44.6930 C   0  0  0  0  0  0  0  0  0  0  0  0
   59.1670   22.2240   45.4100 O   0  0  0  0  0  0  0  0  0  0  0  0
   57.1340   25.6630   46.2500 C   0  0  0  0  0  0  0  0  0  0  0  0
   57.5880   26.6670   47.1110 C   0  0  0  0  0  0  0  0  0  0  0  0
   58.0184   29.9465   49.1175 H   0  0  0  0  0  0  0  0  0  0  0  0
   59.6271   30.7631   49.3565 H   0  0  0  0  0  0  0  0  0  0  0  0
   62.2569   33.7421   47.5050 H   0  0  0  0  0  0  0  0  0  0  0  0
   61.2618   35.4550   45.9754 H   0  0  0  0  0  0  0  0  0  0  0  0
   57.1749   32.0180   43.2233 H   0  0  0  0  0  0  0  0  0  0  0  0
   59.0105   30.4875   43.1875 H   0  0  0  0  0  0  0  0  0  0  0  0
   59.2000   31.1487   44.8198 H   0  0  0  0  0  0  0  0  0  0  0  0
   58.8396   28.4369   44.2309 H   0  0  0  0  0  0  0  0  0  0  0  0
   58.4735   29.1557   45.8150 H   0  0  0  0  0  0  0  0  0  0  0  0
   56.6192   28.0174   43.8976 H   0  0  0  0  0  0  0  0  0  0  0  0
   56.2192   28.7606   45.4609 H   0  0  0  0  0  0  0  0  0  0  0  0
   56.1114   29.9275   42.6964 H   0  0  0  0  0  0  0  0  0  0  0  0
   55.1774   30.3912   44.1275 H   0  0  0  0  0  0  0  0  0  0  0  0
   60.9505   26.0820   46.9123 H   0  0  0  0  0  0  0  0  0  0  0  0
   60.1462   24.3151   45.3498 H   0  0  0  0  0  0  0  0  0  0  0  0
   55.5093   24.0875   44.5632 H   0  0  0  0  0  0  0  0  0  0  0  0
   56.5015   25.0424   43.3908 H   0  0  0  0  0  0  0  0  0  0  0  0
   55.1819   23.1097   42.3767 H   0  0  0  0  0  0  0  0  0  0  0  0
   56.9542   23.0962   42.0557 H   0  0  0  0  0  0  0  0  0  0  0  0
   57.6715   20.4598   44.2596 H   0  0  0  0  0  0  0  0  0  0  0  0
   58.2256   21.4454   42.8448 H   0  0  0  0  0  0  0  0  0  0  0  0
   56.0551   25.5366   46.0768 H   0  0  0  0  0  0  0  0  0  0  0  0
   56.8645   27.3196   47.6216 H   0  0  0  0  0  0  0  0  0  0  0  0
  1  2  2  0
  2  3  1  0
  3  4  1  0
  4  5  2  3
  5  6  1  0
  6  7  1  0
  7  8  2  0
  8  9  1  0
  9 10  2  0
 10 11  1  0
 11 12  2  0
 11 13  1  0
 13 14  1  0
 14 15  1  0
 15 16  1  0
 16 17  1  0
 17 18  1  0
  2 19  1  0
 19 20  1  0
 20 21  2  0
 21 22  1  0
 22 23  2  0
 23 24  1  0
 24 25  1  0
 25 26  1  0
 26 27  1  0
 27 28  1  0
 28 29  1  0
 29 30  2  0
 23 31  1  0
 31 32  2  0
 10  5  1  0
 18 14  1  0
 32 20  1  0
 29 24  1  0
  3 33  1  0
  3 34  1  0
  7 35  1  0
  8 36  1  0
 14 37  1  0
 15 38  1  0
 15 39  1  0
 16 40  1  0
 16 41  1  0
 17 42  1  0
 17 43  1  0
 18 44  1  0
 18 45  1  0
 21 46  1  0
 22 47  1  0
 25 48  1  0
 25 49  1  0
 26 50  1  0
 26 51  1  0
 28 52  1  0
 28 53  1  0
 31 54  1  0
 32 55  1  0
M  CHG  3   6  -1  13  -1  19  -1
M  END
>  <UniqueID>  (6) 
5

>  <SMILES>  (6) 
O=C(CN=c1[n-]ccnc1C(=O)[N-]C1CCCC1)[N-]c1ccc(N2CCOCC2=O)cc1

>  <Energy>  (6) 
85.59673814347666

>  <Genealogy>  (6) 
O=C(CN=c1[n-]ccnc1C(=O)[N-]C1CCCC1)[N-]c1ccc(N2CCOCC2=O)cc1 (protonated)
O=C(CN=c1[n-]ccnc1C(=O)[N-]C1CCCC1)[N-]c1ccc(N2CCOCC2=O)cc1 (3D coordinates assigned)
O=C(CN=c1[n-]ccnc1C(=O)[N-]C1CCCC1)[N-]c1ccc(N2CCOCC2=O)cc1 (nonaromatic ring conformer: 85.59673814347666 kcal/mol)

>  <smiles>  (6) 
O=C(CN=c1[nH]ccnc1C(=O)NC1CCCC1)Nc1ccc(N2CCOCC2=O)cc1

>  <score_type>  (6) 
oracle

>  <origin>  (6) 
adg

>  <m_score__min__energy>  (6) 
-14.19

>  <m_primary>  (6) 
energy

$$$$
6:0
     RDKit          3D

 47 49  0  0  0  0  0  0  0  0999 V2000
   63.7700   33.1170   46.7090 C   0  0  0  0  0  0  0  0  0  0  0  0
   63.2350   32.8730   47.9110 C   0  0  0  0  0  0  0  0  0  0  0  0
   63.6410   33.6780   49.0260 N   0  0  0  0  0  0  0  0  0  0  0  0
   62.7770   33.8530   50.1530 C   0  0  0  0  0  0  0  0  0  0  0  0
   63.1610   34.5630   51.1210 O   0  0  0  0  0  0  0  0  0  0  0  0
   61.4720   33.2390   50.1690 N   0  0  0  0  0  0  0  0  0  0  0  0
   60.5480   33.5040   51.2780 C   0  0  0  0  0  0  0  0  0  0  0  0
   61.1490   32.2410   49.1820 C   0  0  0  0  0  0  0  0  0  0  0  0
   60.0640   31.6010   49.2560 O   0  0  0  0  0  0  0  0  0  0  0  0
   62.1030   31.9280   48.1040 C   0  0  0  0  0  0  0  0  0  0  0  0
   61.9310   30.8260   47.4220 N   0  0  0  0  0  0  0  0  0  0  0  0
   60.7010   30.2570   46.9480 C   0  0  0  0  0  0  0  0  0  0  0  0
   60.3510   28.9300   47.2470 C   0  0  0  0  0  0  0  0  0  0  0  0
   59.1250   28.4000   46.8120 C   0  0  0  0  0  0  0  0  0  0  0  0
   58.7880   26.9510   47.0660 C   0  0  0  0  0  0  0  0  0  0  0  0
   59.3640   26.5540   48.2580 F   0  0  0  0  0  0  0  0  0  0  0  0
   57.4180   26.7750   47.1460 F   0  0  0  0  0  0  0  0  0  0  0  0
   59.2670   26.1510   46.0440 F   0  0  0  0  0  0  0  0  0  0  0  0
   58.2590   29.2100   46.0560 C   0  0  0  0  0  0  0  0  0  0  0  0
   58.5870   30.5470   45.7920 C   0  0  0  0  0  0  0  0  0  0  0  0
   57.5060   31.5720   44.8500 S   0  0  0  0  0  0  0  0  0  0  0  0
   56.2750   30.7790   44.5110 O   0  0  0  0  0  0  0  0  0  0  0  0
   58.1790   31.9880   43.5700 O   0  0  0  0  0  0  0  0  0  0  0  0
   57.0780   32.9760   45.8040 N   0  0  0  0  0  0  0  0  0  0  0  0
   57.7690   32.9880   47.1130 C   0  0  0  0  0  0  0  0  0  0  0  0
   58.9960   33.9160   47.1300 C   0  0  0  0  0  0  0  0  0  0  0  0
   59.6090   33.9380   45.8600 O   0  0  0  0  0  0  0  0  0  0  0  0
   58.7750   34.6050   44.9270 C   0  0  0  0  0  0  0  0  0  0  0  0
   57.2800   34.2260   45.0510 C   0  0  0  0  0  0  0  0  0  0  0  0
   59.8010   31.0680   46.2510 C   0  0  0  0  0  0  0  0  0  0  0  0
   63.4718   32.5107   45.8409 H   0  0  0  0  0  0  0  0  0  0  0  0
   64.5080   33.9238   46.5890 H   0  0  0  0  0  0  0  0  0  0  0  0
   64.5380   34.2130   48.9890 H   0  0  0  0  0  0  0  0  0  0  0  0
   61.0705   33.3542   52.2343 H   0  0  0  0  0  0  0  0  0  0  0  0
   60.1881   34.5416   51.2154 H   0  0  0  0  0  0  0  0  0  0  0  0
   59.6929   32.8149   51.2154 H   0  0  0  0  0  0  0  0  0  0  0  0
   61.0425   28.3007   47.8265 H   0  0  0  0  0  0  0  0  0  0  0  0
   57.3180   28.7916   45.6693 H   0  0  0  0  0  0  0  0  0  0  0  0
   57.0599   33.3286   47.8818 H   0  0  0  0  0  0  0  0  0  0  0  0
   58.1238   31.9656   47.3100 H   0  0  0  0  0  0  0  0  0  0  0  0
   58.6774   34.9344   47.3971 H   0  0  0  0  0  0  0  0  0  0  0  0
   59.7184   33.5416   47.8702 H   0  0  0  0  0  0  0  0  0  0  0  0
   58.8733   35.6891   45.0856 H   0  0  0  0  0  0  0  0  0  0  0  0
   59.1035   34.2976   43.9232 H   0  0  0  0  0  0  0  0  0  0  0  0
   56.7511   35.0397   45.5688 H   0  0  0  0  0  0  0  0  0  0  0  0
   56.8876   34.0725   44.0349 H   0  0  0  0  0  0  0  0  0  0  0  0
   60.0491   32.1229   46.0622 H   0  0  0  0  0  0  0  0  0  0  0  0
  1  2  2  0
  2  3  1  0
  3  4  1  0
  4  5  2  0
  4  6  1  0
  6  7  1  0
  6  8  1  0
  8  9  2  0
  8 10  1  0
 10 11  2  3
 11 12  1  0
 12 13  2  0
 13 14  1  0
 14 15  1  0
 15 16  1  0
 15 17  1  0
 15 18  1  0
 14 19  2  0
 19 20  1  0
 20 21  1  0
 21 22  2  0
 21 23  2  0
 21 24  1  0
 24 25  1  0
 25 26  1  0
 26 27  1  0
 27 28  1  0
 28 29  1  0
 20 30  2  0
 10  2  1  0
 30 12  1  0
 29 24  1  0
  1 31  1  0
  1 32  1  0
  3 33  1  0
  7 34  1  0
  7 35  1  0
  7 36  1  0
 13 37  1  0
 19 38  1  0
 25 39  1  0
 25 40  1  0
 26 41  1  0
 26 42  1  0
 28 43  1  0
 28 44  1  0
 29 45  1  0
 29 46  1  0
 30 47  1  0
M  END
>  <UniqueID>  (7) 
6

>  <SMILES>  (7) 
C=C1NC(=O)N(C)C(=O)C1=Nc1cc(C(F)(F)F)cc(S(=O)(=O)N2CCOCC2)c1

>  <Energy>  (7) 
70.56388192146602

>  <Genealogy>  (7) 
C=C1NC(=O)N(C)C(=O)C1=Nc1cc(C(F)(F)F)cc(S(=O)(=O)N2CCOCC2)c1 (3D coordinates assigned)
C=C1NC(=O)N(C)C(=O)C1=Nc1cc(C(F)(F)F)cc(S(=O)(=O)N2CCOCC2)c1 (nonaromatic ring conformer: 70.56388192146602 kcal/mol)

>  <smiles>  (7) 
C=C1NC(=O)N(C)C(=O)C1=Nc1cc(C(F)(F)F)cc(S(=O)(=O)N2CCOCC2)c1

>  <score_type>  (7) 
oracle

>  <origin>  (7) 
adg

>  <m_score__min__energy>  (7) 
-8.8300000000000001

>  <m_primary>  (7) 
energy

$$$$
7:0
     RDKit          3D

 56 59  0  0  0  0  0  0  0  0999 V2000
   67.6500   33.2910   50.9690 C   0  0  0  0  0  0  0  0  0  0  0  0
   66.4550   34.1420   51.2750 C   0  0  0  0  0  0  0  0  0  0  0  0
   66.6170   35.1630   51.9980 O   0  0  0  0  0  0  0  0  0  0  0  0
   65.1440   33.8250   50.7570 N   0  0  0  0  0  0  0  0  0  0  0  0
   64.9890   33.0760   49.4970 C   0  0  0  0  0  0  0  0  0  0  0  0
   63.7590   32.1680   49.5590 C   0  0  0  0  0  0  0  0  0  0  0  0
   62.6070   32.9380   50.0380 N   0  0  0  0  0  0  0  0  0  0  0  0
   61.5220   33.2740   49.1520 C   0  0  0  0  0  0  0  0  0  0  0  0
   61.1230   34.4690   49.0910 O   0  0  0  0  0  0  0  0  0  0  0  0
   60.8540   32.2410   48.3240 C   0  0  0  0  0  0  0  0  0  0  0  0
   60.9860   30.8800   48.6470 C   0  0  0  0  0  0  0  0  0  0  0  0
   60.3730   29.9010   47.8600 C   0  0  0  0  0  0  0  0  0  0  0  0
   59.6190   30.2620   46.7300 C   0  0  0  0  0  0  0  0  0  0  0  0
   58.9680   29.2240   45.8930 C   0  0  0  0  0  0  0  0  0  0  0  0
   59.5370   28.8350   44.6660 C   0  0  0  0  0  0  0  0  0  0  0  0
   58.9210   27.8590   43.8790 C   0  0  0  0  0  0  0  0  0  0  0  0
   57.7300   27.2640   44.3010 C   0  0  0  0  0  0  0  0  0  0  0  0
   57.1390   27.6540   45.5140 C   0  0  0  0  0  0  0  0  0  0  0  0
   55.9300   27.0430   45.9880 N   0  0  0  0  0  0  0  0  0  0  0  0
   55.6020   25.6510   45.8890 C   0  0  0  0  0  0  0  0  0  0  0  0
   54.3960   25.3070   45.9920 O   0  0  0  0  0  0  0  0  0  0  0  0
   56.6330   24.6340   45.5920 C   0  0  0  0  0  0  0  0  0  0  0  0
   58.0780   24.4520   46.4360 S   0  0  0  0  0  0  0  0  0  0  0  0
   58.7030   23.2050   45.5040 C   0  0  0  0  0  0  0  0  0  0  0  0
   57.7870   22.9140   44.5030 C   0  0  0  0  0  0  0  0  0  0  0  0
   56.6290   23.7060   44.5440 C   0  0  0  0  0  0  0  0  0  0  0  0
   55.5170   23.5580   43.5500 C   0  0  0  0  0  0  0  0  0  0  0  0
   57.7690   28.6170   46.3110 C   0  0  0  0  0  0  0  0  0  0  0  0
   59.4970   31.6230   46.4020 C   0  0  0  0  0  0  0  0  0  0  0  0
   60.1130   32.6010   47.1860 C   0  0  0  0  0  0  0  0  0  0  0  0
   62.7550   33.6210   51.3240 C   0  0  0  0  0  0  0  0  0  0  0  0
   63.9700   34.5480   51.2710 C   0  0  0  0  0  0  0  0  0  0  0  0
   68.1149   32.9600   51.9094 H   0  0  0  0  0  0  0  0  0  0  0  0
   67.3351   32.4126   50.3865 H   0  0  0  0  0  0  0  0  0  0  0  0
   68.3771   33.8758   50.3865 H   0  0  0  0  0  0  0  0  0  0  0  0
   64.8722   33.7869   48.6657 H   0  0  0  0  0  0  0  0  0  0  0  0
   65.8824   32.4533   49.3420 H   0  0  0  0  0  0  0  0  0  0  0  0
   63.5441   31.7727   48.5552 H   0  0  0  0  0  0  0  0  0  0  0  0
   63.9540   31.3329   50.2479 H   0  0  0  0  0  0  0  0  0  0  0  0
   61.5764   30.5826   49.5262 H   0  0  0  0  0  0  0  0  0  0  0  0
   60.4815   28.8395   48.1271 H   0  0  0  0  0  0  0  0  0  0  0  0
   60.4725   29.3023   44.3246 H   0  0  0  0  0  0  0  0  0  0  0  0
   59.3756   27.5580   42.9236 H   0  0  0  0  0  0  0  0  0  0  0  0
   57.2541   26.4888   43.6825 H   0  0  0  0  0  0  0  0  0  0  0  0
   59.6704   22.7051   45.6593 H   0  0  0  0  0  0  0  0  0  0  0  0
   57.9534   22.1334   43.7460 H   0  0  0  0  0  0  0  0  0  0  0  0
   54.5632   23.4311   44.0831 H   0  0  0  0  0  0  0  0  0  0  0  0
   55.4674   24.4575   42.9187 H   0  0  0  0  0  0  0  0  0  0  0  0
   55.7043   22.6769   42.9187 H   0  0  0  0  0  0  0  0  0  0  0  0
   57.3220   28.9025   47.2747 H   0  0  0  0  0  0  0  0  0  0  0  0
   58.9111   31.9207   45.5199 H   0  0  0  0  0  0  0  0  0  0  0  0
   60.0172   33.6616   46.9103 H   0  0  0  0  0  0  0  0  0  0  0  0
   61.8511   34.2125   51.5314 H   0  0  0  0  0  0  0  0  0  0  0  0
   62.8961   32.8762   52.1211 H   0  0  0  0  0  0  0  0  0  0  0  0
   63.7490   35.3979   50.6086 H   0  0  0  0  0  0  0  0  0  0  0  0
   64.1890   34.9081   52.2871 H   0  0  0  0  0  0  0  0  0  0  0  0
  1  2  1  0
  2  3  2  0
  2  4  1  0
  4  5  1  0
  5  6  1  0
  6  7  1  0
  7  8  1  0
  8  9  2  0
  8 10  1  0
 10 11  2  0
 11 12  1  0
 12 13  2  0
 13 14  1  0
 14 15  2  0
 15 16  1  0
 16 17  2  0
 17 18  1  0
 18 19  1  0
 19 20  1  0
 20 21  2  0
 20 22  1  0
 22 23  1  0
 23 24  1  0
 24 25  2  0
 25 26  1  0
 26 27  1  0
 18 28  2  0
 13 29  1  0
 29 30  2  0
  7 31  1  0
 31 32  1  0
 32  4  1  0
 30 10  1  0
 28 14  1  0
 26 22  2  0
  1 33  1  0
  1 34  1  0
  1 35  1  0
  5 36  1  0
  5 37  1  0
  6 38  1  0
  6 39  1  0
 11 40  1  0
 12 41  1  0
 15 42  1  0
 16 43  1  0
 17 44  1  0
 24 45  1  0
 25 46  1  0
 27 47  1  0
 27 48  1  0
 27 49  1  0
 28 50  1  0
 29 51  1  0
 30 52  1  0
 31 53  1  0
 31 54  1  0
 32 55  1  0
 32 56  1  0
M  CHG  1  19  -1
M  END
>  <UniqueID>  (8) 
7

>  <SMILES>  (8) 
CC(=O)N1CCN(C(=O)c2ccc(-c3cccc([N-]C(=O)c4sccc4C)c3)cc2)CC1

>  <Energy>  (8) 
100.31446107906841

>  <Genealogy>  (8) 
CC(=O)N1CCN(C(=O)c2ccc(-c3cccc([N-]C(=O)c4sccc4C)c3)cc2)CC1 (protonated)
CC(=O)N1CCN(C(=O)c2ccc(-c3cccc([N-]C(=O)c4sccc4C)c3)cc2)CC1 (3D coordinates assigned)
CC(=O)N1CCN(C(=O)c2ccc(-c3cccc([N-]C(=O)c4sccc4C)c3)cc2)CC1 (nonaromatic ring conformer: 100.31446107906841 kcal/mol)

>  <smiles>  (8) 
CC(=O)N1CCN(C(=O)c2ccc(-c3cccc(NC(=O)c4sccc4C)c3)cc2)CC1

>  <score_type>  (8) 
oracle

>  <origin>  (8) 
adg

>  <m_score__min__energy>  (8) 
-11.44

>  <m_primary>  (8) 
energy

$$$$
8:0
     RDKit          3D

 54 57  0  0  1  0  0  0  0  0999 V2000
   62.5770   31.3240   47.4880 C   0  0  0  0  0  0  0  0  0  0  0  0
   62.6840   32.7990   47.6820 C   0  0  0  0  0  0  0  0  0  0  0  0
   63.7390   33.3900   46.7450 C   0  0  0  0  0  0  0  0  0  0  0  0
   61.3890   33.4960   47.5000 C   0  0  0  0  0  0  0  0  0  0  0  0
   60.7960   33.7130   46.2750 C   0  0  0  0  0  0  0  0  0  0  0  0
   59.6130   34.3760   46.1440 C   0  0  0  0  0  0  0  0  0  0  0  0
   58.9890   34.6030   45.0210 N   0  0  0  0  0  0  0  0  0  0  0  0
   58.3250   33.4080   44.5010 C   0  0  0  0  0  0  0  0  0  0  0  0
   58.4890   33.0300   43.2110 C   0  0  0  0  0  0  0  0  0  0  0  0
   57.9360   31.8780   42.7340 C   0  0  0  0  0  0  0  0  0  0  0  0
   57.2030   31.1110   43.6080 C   0  0  0  0  0  0  0  0  0  0  0  0
   56.6280   29.8350   43.2560 C   0  0  0  0  0  0  0  0  0  0  0  0
   55.3740   29.8130   43.0730 O   0  0  0  0  0  0  0  0  0  0  0  0
   57.3960   28.6010   43.1040 N   0  0  0  0  0  0  0  0  0  0  0  0
   57.8750   28.2070   44.2190 C   0  0  0  0  0  0  0  0  0  0  0  0
   58.3350   28.6060   45.3240 N   0  0  0  0  0  0  0  0  0  0  0  0
   58.8310   27.8950   46.2910 C   0  0  0  0  0  0  0  0  0  0  0  0
   59.4080   28.3150   47.5640 C   0  0  0  0  0  0  0  0  0  0  0  0
   60.1550   27.4320   48.3210 C   0  0  0  0  0  0  0  0  0  0  0  0
   60.7290   27.8300   49.5330 C   0  0  0  0  0  0  0  0  0  0  0  0
   60.5560   29.1050   49.9830 C   0  0  0  0  0  0  0  0  0  0  0  0
   59.8340   29.9650   49.2570 N   0  0  0  0  0  0  0  0  0  0  0  0
   59.6900   31.3090   49.7920 C   0  0  0  0  0  0  0  0  0  0  0  0
   59.2750   29.5910   48.0840 C   0  0  0  0  0  0  0  0  0  0  0  0
   58.6230   30.4730   47.4850 O   0  0  0  0  0  0  0  0  0  0  0  0
   58.8240   26.4680   46.0050 C   0  0  0  0  0  0  0  0  0  0  0  0
   58.0820   26.4340   44.3500 S   0  0  0  0  0  0  0  0  0  0  0  0
   57.0240   31.4990   44.9500 C   0  0  0  0  0  0  0  0  0  0  0  0
   57.5840   32.6690   45.4440 C   0  0  0  0  0  0  0  0  0  0  0  0
   59.0330   34.8220   47.2810 N   0  0  0  0  0  0  0  0  0  0  0  0
   59.6290   34.5990   48.4520 C   0  0  0  0  0  0  0  0  0  0  0  0
   60.7770   33.9610   48.6470 N   0  0  0  0  0  0  0  0  0  0  0  0
   62.5409   30.8269   48.4686 H   0  0  0  0  0  0  0  0  0  0  0  0
   61.6598   31.0936   46.9262 H   0  0  0  0  0  0  0  0  0  0  0  0
   63.4514   30.9637   46.9262 H   0  0  0  0  0  0  0  0  0  0  0  0
   62.9927   32.9585   48.7257 H   0  0  0  0  0  0  0  0  0  0  0  0
   64.5460   33.8421   47.3402 H   0  0  0  0  0  0  0  0  0  0  0  0
   64.1537   32.5929   46.1105 H   0  0  0  0  0  0  0  0  0  0  0  0
   63.2758   34.1600   46.1105 H   0  0  0  0  0  0  0  0  0  0  0  0
   61.2960   33.3373   45.3701 H   0  0  0  0  0  0  0  0  0  0  0  0
   59.0800   33.6647   42.5343 H   0  0  0  0  0  0  0  0  0  0  0  0
   58.0719   31.5732   41.6859 H   0  0  0  0  0  0  0  0  0  0  0  0
   58.2860   29.7150   45.5030 H   0  0  0  0  0  0  0  0  0  0  0  0
   60.3002   26.4013   47.9652 H   0  0  0  0  0  0  0  0  0  0  0  0
   61.3200   27.1140   50.1230 H   0  0  0  0  0  0  0  0  0  0  0  0
   61.0063   29.4235   50.9347 H   0  0  0  0  0  0  0  0  0  0  0  0
   59.6943   31.2685   50.8912 H   0  0  0  0  0  0  0  0  0  0  0  0
   60.5264   31.9334   49.4448 H   0  0  0  0  0  0  0  0  0  0  0  0
   58.7403   31.7421   49.4448 H   0  0  0  0  0  0  0  0  0  0  0  0
   59.1754   25.6318   46.6273 H   0  0  0  0  0  0  0  0  0  0  0  0
   56.4283   30.8619   45.6202 H   0  0  0  0  0  0  0  0  0  0  0  0
   57.4592   32.9931   46.4878 H   0  0  0  0  0  0  0  0  0  0  0  0
   59.1181   34.9823   49.3476 H   0  0  0  0  0  0  0  0  0  0  0  0
   61.2210   33.8020   49.5870 H   0  0  0  0  0  0  0  0  0  0  0  0
  1  2  1  0
  2  3  1  0
  2  4  1  0
  4  5  2  0
  5  6  1  0
  6  7  2  0
  7  8  1  0
  8  9  2  0
  9 10  1  0
 10 11  2  0
 11 12  1  0
 12 13  2  0
 12 14  1  0
 14 15  2  0
 15 16  1  0
 16 17  1  0
 17 18  1  0
 18 19  2  0
 19 20  1  0
 20 21  2  0
 21 22  1  0
 22 23  1  0
 22 24  1  0
 24 25  2  0
 17 26  2  0
 26 27  1  0
 11 28  1  0
 28 29  2  0
  6 30  1  0
 30 31  2  0
 31 32  1  0
 32  4  1  0
 29  8  1  0
 27 15  1  0
 24 18  1  0
  1 33  1  0
  1 34  1  0
  1 35  1  0
  2 36  1  0
  3 37  1  0
  3 38  1  0
  3 39  1  0
  5 40  1  0
  9 41  1  0
 10 42  1  0
 16 43  1  0
 19 44  1  0
 20 45  1  0
 21 46  1  0
 23 47  1  0
 23 48  1  0
 23 49  1  0
 26 50  1  0
 28 51  1  0
 29 52  1  0
 31 53  1  0
 32 54  1  0
M  END
>  <smiles>  (9) 
CC(C)c1cc(=Nc2ccc(C(=O)N=c3[nH]c(-c4cccn(C)c4=O)cs3)cc2)nc[nH]1

>  <score_type>  (9) 
oracle

>  <origin>  (9) 
adg

>  <m_score__min__energy>  (9) 
-11.15

>  <m_primary>  (9) 
energy

$$$$
9:0
     RDKit          3D

 57 60  0  0  0  0  0  0  0  0999 V2000
   60.5498   29.6401   49.8609 H   0  0  0  0  0  0  0  0  0  0  0  0
   60.5670   29.9480   48.8050 C   0  0  0  0  0  0  0  0  0  0  0  0
   60.0150   29.1340   47.8980 C   0  0  0  0  0  0  0  0  0  0  0  0
   60.6849   28.5135   47.2847 H   0  0  0  0  0  0  0  0  0  0  0  0
   58.5300   29.0160   47.6660 C   0  0  0  0  0  0  0  0  0  0  0  0
   58.1122   30.0195   47.4972 H   0  0  0  0  0  0  0  0  0  0  0  0
   58.0744   28.5508   48.5526 H   0  0  0  0  0  0  0  0  0  0  0  0
   58.2330   28.1500   46.4650 C   0  0  0  0  0  0  0  0  0  0  0  0
   57.9340   26.8010   46.5230 C   0  0  0  0  0  0  0  0  0  0  0  0
   57.9314   26.1693   47.4235 H   0  0  0  0  0  0  0  0  0  0  0  0
   57.6380   26.3960   45.2300 C   0  0  0  0  0  0  0  0  0  0  0  0
   57.2110   25.1500   44.9340 C   0  0  0  0  0  0  0  0  0  0  0  0
   57.9478   24.4504   44.5125 H   0  0  0  0  0  0  0  0  0  0  0  0
   55.8420   24.6520   45.1290 C   0  0  0  0  0  0  0  0  0  0  0  0
   55.4820   23.3670   44.9660 N   0  0  0  0  0  0  0  0  0  0  0  0
   54.1850   23.3560   45.3420 C   0  0  0  0  0  0  0  0  0  0  0  0
   53.4810   22.3140   45.3140 O   0  0  0  0  0  0  0  0  0  0  0  0
   53.7060   24.5440   45.7640 N   0  0  0  0  0  0  0  0  0  0  0  0
   54.7710   25.3520   45.6350 C   0  0  0  0  0  0  0  0  0  0  0  0
   54.7730   26.6940   45.9970 O   0  0  0  0  0  0  0  0  0  0  0  0
   57.8490   27.5160   44.4090 C   0  0  0  0  0  0  0  0  0  0  0  0
   57.8540   27.5490   43.0660 C   0  0  0  0  0  0  0  0  0  0  0  0
   58.0330   28.4983   42.5398 H   0  0  0  0  0  0  0  0  0  0  0  0
   57.6791   26.6268   42.4925 H   0  0  0  0  0  0  0  0  0  0  0  0
   58.2010   28.5770   45.1810 N   0  0  0  0  0  0  0  0  0  0  0  0
   58.5110   29.9030   44.7190 C   0  0  0  0  0  0  0  0  0  0  0  0
   59.6860   30.3430   44.8650 O   0  0  0  0  0  0  0  0  0  0  0  0
   57.4940   30.7310   44.1130 N   0  0  0  0  0  0  0  0  0  0  0  0
   56.1070   30.2560   44.0420 C   0  0  0  0  0  0  0  0  0  0  0  0
   55.7131   30.1211   45.0601 H   0  0  0  0  0  0  0  0  0  0  0  0
   55.4933   30.9952   43.5063 H   0  0  0  0  0  0  0  0  0  0  0  0
   56.0752   29.2958   43.5063 H   0  0  0  0  0  0  0  0  0  0  0  0
   57.8400   32.0810   43.6430 C   0  0  0  0  0  0  0  0  0  0  0  0
   58.6967   32.0188   42.9558 H   0  0  0  0  0  0  0  0  0  0  0  0
   56.9737   32.5145   43.1218 H   0  0  0  0  0  0  0  0  0  0  0  0
   58.2020   32.9580   44.8130 C   0  0  0  0  0  0  0  0  0  0  0  0
   57.7360   32.6610   46.1070 C   0  0  0  0  0  0  0  0  0  0  0  0
   57.1189   31.7658   46.2740 H   0  0  0  0  0  0  0  0  0  0  0  0
   58.0520   33.4950   47.1790 C   0  0  0  0  0  0  0  0  0  0  0  0
   57.6761   33.2626   48.1863 H   0  0  0  0  0  0  0  0  0  0  0  0
   58.8470   34.6270   46.9730 C   0  0  0  0  0  0  0  0  0  0  0  0
   59.0900   35.2879   47.8181 H   0  0  0  0  0  0  0  0  0  0  0  0
   59.3340   34.9210   45.6950 C   0  0  0  0  0  0  0  0  0  0  0  0
   59.9688   35.8055   45.5380 H   0  0  0  0  0  0  0  0  0  0  0  0
   59.0130   34.0890   44.6160 C   0  0  0  0  0  0  0  0  0  0  0  0
   59.3964   34.3209   43.6114 H   0  0  0  0  0  0  0  0  0  0  0  0
   61.1970   31.2360   48.4630 C   0  0  0  0  0  0  0  0  0  0  0  0
   62.1530   31.2960   47.4380 C   0  0  0  0  0  0  0  0  0  0  0  0
   62.4348   30.3804   46.8973 H   0  0  0  0  0  0  0  0  0  0  0  0
   62.7490   32.5150   47.1010 C   0  0  0  0  0  0  0  0  0  0  0  0
   63.5091   32.5553   46.3069 H   0  0  0  0  0  0  0  0  0  0  0  0
   62.3780   33.6820   47.7740 C   0  0  0  0  0  0  0  0  0  0  0  0
   62.8462   34.6417   47.5098 H   0  0  0  0  0  0  0  0  0  0  0  0
   61.4110   33.6300   48.7840 C   0  0  0  0  0  0  0  0  0  0  0  0
   61.1130   34.5515   49.3056 H   0  0  0  0  0  0  0  0  0  0  0  0
   60.8230   32.4120   49.1320 C   0  0  0  0  0  0  0  0  0  0  0  0
   60.0670   32.3742   49.9301 H   0  0  0  0  0  0  0  0  0  0  0  0
  1  2  1  0
  2  3  2  3
  3  4  1  0
  3  5  1  0
  5  6  1  0
  5  7  1  0
  5  8  1  0
  8  9  2  0
  9 10  1  0
  9 11  1  0
 11 12  2  0
 12 13  1  0
 12 14  1  0
 14 15  1  0
 15 16  1  0
 16 17  2  0
 16 18  1  0
 18 19  1  0
 19 20  1  0
 11 21  1  0
 21 22  2  0
 22 23  1  0
 22 24  1  0
 21 25  1  0
 25 26  1  0
 26 27  2  0
 26 28  1  0
 28 29  1  0
 29 30  1  0
 29 31  1  0
 29 32  1  0
 28 33  1  0
 33 34  1  0
 33 35  1  0
 33 36  1  0
 36 37  2  0
 37 38  1  0
 37 39  1  0
 39 40  1  0
 39 41  2  0
 41 42  1  0
 41 43  1  0
 43 44  1  0
 43 45  2  0
 45 46  1  0
  2 47  1  0
 47 48  2  0
 48 49  1  0
 48 50  1  0
 50 51  1  0
 50 52  2  0
 52 53  1  0
 52 54  1  0
 54 55  1  0
 54 56  2  0
 56 57  1  0
 25  8  1  0
 45 36  1  0
 56 47  1  0
 19 14  2  0
M  CHG  3  15  -1  18  -1  20  -1
M  END
>  <UniqueID>  (10) 
8

>  <SMILES>  (10) 
C=c1/c(=C\c2[n-]c(=O)[n-]c2[O-])cc(CC=Cc2ccccc2)n1C(=O)N(C)Cc1ccccc1

>  <Energy>  (10) 
134.43883340306277

>  <Genealogy>  (10) 
C=c1c(=Cc2[n-]c(=O)[n-]c2[O-])cc(CC=Cc2ccccc2)n1C(=O)N(C)Cc1ccccc1 (protonated)
C=c1/c(=C\c2[n-]c(=O)[n-]c2[O-])cc(CC=Cc2ccccc2)n1C(=O)N(C)Cc1ccccc1 (cis-trans isomerization)
C=c1/c(=C\c2[n-]c(=O)[n-]c2[O-])cc(CC=Cc2ccccc2)n1C(=O)N(C)Cc1ccccc1 (3D coordinates assigned)
C=c1/c(=C\c2[n-]c(=O)[n-]c2[O-])cc(CC=Cc2ccccc2)n1C(=O)N(C)Cc1ccccc1 (optimized conformer: 134.43883340306277 kcal/mol)

>  <smiles>  (10) 
C=c1c(=Cc2[nH]c(=O)[nH]c2O)cc(CC=Cc2ccccc2)n1C(=O)N(C)Cc1ccccc1

>  <score_type>  (10) 
oracle

>  <origin>  (10) 
adg

>  <m_score__min__energy>  (10) 
-16.93

>  <m_primary>  (10) 
energy

$$$$
10:0
     RDKit          3D

 53 56  0  0  0  0  0  0  0  0999 V2000
   57.6320   27.8030   48.0080 H   0  0  0  0  0  0  0  0  0  0  0  0
   58.5400   28.3180   47.9890 N   0  0  0  0  0  0  0  0  0  0  0  0
   59.6930   27.2840   47.2210 S   0  0  0  0  0  0  0  0  0  0  0  0
   60.4300   26.4850   48.2590 O   0  0  0  0  0  0  0  0  0  0  0  0
   60.6760   28.1440   46.4770 O   0  0  0  0  0  0  0  0  0  0  0  0
   58.8740   26.1890   46.0940 C   0  0  0  0  0  0  0  0  0  0  0  0
   59.0990   24.8060   46.2120 C   0  0  0  0  0  0  0  0  0  0  0  0
   59.7414   24.4254   47.0198 H   0  0  0  0  0  0  0  0  0  0  0  0
   58.5150   23.9120   45.3140 C   0  0  0  0  0  0  0  0  0  0  0  0
   58.6986   22.8323   45.4170 H   0  0  0  0  0  0  0  0  0  0  0  0
   57.6990   24.3840   44.2860 C   0  0  0  0  0  0  0  0  0  0  0  0
   57.2471   23.6777   43.5740 H   0  0  0  0  0  0  0  0  0  0  0  0
   57.4560   25.7530   44.1610 C   0  0  0  0  0  0  0  0  0  0  0  0
   56.8120   26.1200   43.3483 H   0  0  0  0  0  0  0  0  0  0  0  0
   58.0260   26.6660   45.0630 C   0  0  0  0  0  0  0  0  0  0  0  0
   57.7150   28.0990   44.9010 C   0  0  0  0  0  0  0  0  0  0  0  0
   56.4300   28.5810   45.1820 C   0  0  0  0  0  0  0  0  0  0  0  0
   55.6455   27.8882   45.5205 H   0  0  0  0  0  0  0  0  0  0  0  0
   56.1510   29.9040   45.0370 N   0  0  0  0  0  0  0  0  0  0  0  0
   57.0860   30.8060   44.6330 C   0  0  0  0  0  0  0  0  0  0  0  0
   56.7340   32.0580   44.5280 N   0  0  0  0  0  0  0  0  0  0  0  0
   56.6850   33.0570   45.5980 C   0  0  0  0  0  0  0  0  0  0  0  0
   56.2006   33.9686   45.2181 H   0  0  0  0  0  0  0  0  0  0  0  0
   56.1134   32.6422   46.4413 H   0  0  0  0  0  0  0  0  0  0  0  0
   58.0730   33.3980   46.0770 C   0  0  0  0  0  0  0  0  0  0  0  0
   58.7060   32.5880   47.0320 C   0  0  0  0  0  0  0  0  0  0  0  0
   58.1771   31.7189   47.4503 H   0  0  0  0  0  0  0  0  0  0  0  0
   60.0060   32.8810   47.4540 C   0  0  0  0  0  0  0  0  0  0  0  0
   60.4932   32.2399   48.2034 H   0  0  0  0  0  0  0  0  0  0  0  0
   60.6930   33.9820   46.9320 C   0  0  0  0  0  0  0  0  0  0  0  0
   62.0120   34.2060   47.3570 O   0  0  0  0  0  0  0  0  0  0  0  0
   63.1100   33.3210   47.1330 C   0  0  0  0  0  0  0  0  0  0  0  0
   62.7961   32.5259   46.4407 H   0  0  0  0  0  0  0  0  0  0  0  0
   63.9435   33.8970   46.7047 H   0  0  0  0  0  0  0  0  0  0  0  0
   63.5710   32.6960   48.4260 C   0  0  0  0  0  0  0  0  0  0  0  0
   62.7830   31.7270   49.0690 C   0  0  0  0  0  0  0  0  0  0  0  0
   61.8248   31.4179   48.6259 H   0  0  0  0  0  0  0  0  0  0  0  0
   63.2120   31.1540   50.2700 C   0  0  0  0  0  0  0  0  0  0  0  0
   62.5874   30.4013   50.7733 H   0  0  0  0  0  0  0  0  0  0  0  0
   64.4330   31.5360   50.8320 C   0  0  0  0  0  0  0  0  0  0  0  0
   64.7661   31.0879   51.7798 H   0  0  0  0  0  0  0  0  0  0  0  0
   65.2320   32.4880   50.1900 C   0  0  0  0  0  0  0  0  0  0  0  0
   66.7660   32.9650   50.8960 Cl  0  0  0  0  0  0  0  0  0  0  0  0
   64.8070   33.0600   48.9860 C   0  0  0  0  0  0  0  0  0  0  0  0
   65.4434   33.7979   48.4756 H   0  0  0  0  0  0  0  0  0  0  0  0
   60.0450   34.8150   46.0010 C   0  0  0  0  0  0  0  0  0  0  0  0
   60.5649   35.6987   45.6026 H   0  0  0  0  0  0  0  0  0  0  0  0
   58.7440   34.5250   45.5800 C   0  0  0  0  0  0  0  0  0  0  0  0
   58.2438   35.1841   44.8551 H   0  0  0  0  0  0  0  0  0  0  0  0
   58.3910   30.3580   44.3500 C   0  0  0  0  0  0  0  0  0  0  0  0
   59.1608   31.0700   44.0176 H   0  0  0  0  0  0  0  0  0  0  0  0
   58.7010   29.0050   44.4940 C   0  0  0  0  0  0  0  0  0  0  0  0
   59.7215   28.6502   44.2874 H   0  0  0  0  0  0  0  0  0  0  0  0
  1  2  1  0
  2  3  1  0
  3  4  2  0
  3  5  2  0
  3  6  1  0
  6  7  2  0
  7  8  1  0
  7  9  1  0
  9 10  1  0
  9 11  2  0
 11 12  1  0
 11 13  1  0
 13 14  1  0
 13 15  2  0
 15 16  1  0
 16 17  2  0
 17 18  1  0
 17 19  1  0
 19 20  1  0
 20 21  2  0
 21 22  1  0
 22 23  1  0
 22 24  1  0
 22 25  1  0
 25 26  2  0
 26 27  1  0
 26 28  1  0
 28 29  1  0
 28 30  2  0
 30 31  1  0
 31 32  1  0
 32 33  1  0
 32 34  1  0
 32 35  1  0
 35 36  2  0
 36 37  1  0
 36 38  1  0
 38 39  1  0
 38 40  2  0
 40 41  1  0
 40 42  1  0
 42 43  1  0
 42 44  2  0
 44 45  1  0
 30 46  1  0
 46 47  1  0
 46 48  2  0
 48 49  1  0
 20 50  1  0
 50 51  1  0
 50 52  2  0
 52 53  1  0
 15  6  1  0
 52 16  1  0
 48 25  1  0
 44 35  1  0
M  CHG  2   2  -1  19  -1
M  END
>  <UniqueID>  (11) 
9

>  <SMILES>  (11) 
[NH-]S(=O)(=O)c1ccccc1-c1cc/c(=N\Cc2ccc(OCc3cccc(Cl)c3)cc2)[n-]c1

>  <Energy>  (11) 
67.63238762101264

>  <Genealogy>  (11) 
[NH-]S(=O)(=O)c1ccccc1-c1ccc(=NCc2ccc(OCc3cccc(Cl)c3)cc2)[n-]c1 (protonated)
[NH-]S(=O)(=O)c1ccccc1-c1cc/c(=N\Cc2ccc(OCc3cccc(Cl)c3)cc2)[n-]c1 (cis-trans isomerization)
[NH-]S(=O)(=O)c1ccccc1-c1cc/c(=N\Cc2ccc(OCc3cccc(Cl)c3)cc2)[n-]c1 (3D coordinates assigned)
[NH-]S(=O)(=O)c1ccccc1-c1cc/c(=N\Cc2ccc(OCc3cccc(Cl)c3)cc2)[n-]c1 (optimized conformer: 67.63238762101264 kcal/mol)

>  <smiles>  (11) 
NS(=O)(=O)c1ccccc1-c1ccc(=NCc2ccc(OCc3cccc(Cl)c3)cc2)[nH]c1

>  <score_type>  (11) 
oracle

>  <origin>  (11) 
adg

>  <m_score__min__energy>  (11) 
-13.470000000000001

>  <m_primary>  (11) 
energy

$$$$
11:0
     RDKit          3D

 48 49  0  0  0  0  0  0  0  0999 V2000
   57.5150   33.8550   45.5670 C   0  0  0  0  0  0  0  0  0  0  0  0
   58.8130   34.5870   45.2370 C   0  0  0  0  0  0  0  0  0  0  0  0
   59.5530   35.0030   46.5180 C   0  0  0  0  0  0  0  0  0  0  0  0
   59.2850   34.0480   47.6940 C   0  0  0  0  0  0  0  0  0  0  0  0
   60.4480   33.9200   48.6980 C   0  0  0  0  0  0  0  0  0  0  0  0
   60.7140   32.4700   49.1560 C   0  0  0  0  0  0  0  0  0  0  0  0
   60.0910   32.1720   50.5260 C   0  0  0  0  0  0  0  0  0  0  0  0
   59.0780   31.1300   50.4130 N   0  0  0  0  0  0  0  0  0  0  0  0
   59.0660   29.9400   51.2090 C   0  0  0  0  0  0  0  0  0  0  0  0
   59.7870   28.9570   50.8910 O   0  0  0  0  0  0  0  0  0  0  0  0
   58.2790   29.8660   52.4030 N   0  0  0  0  0  0  0  0  0  0  0  0
   56.8590   30.0470   52.4980 C   0  0  0  0  0  0  0  0  0  0  0  0
   56.2360   30.9460   51.6250 C   0  0  0  0  0  0  0  0  0  0  0  0
   54.8580   31.1700   51.7000 C   0  0  0  0  0  0  0  0  0  0  0  0
   54.0860   30.5120   52.6700 C   0  0  0  0  0  0  0  0  0  0  0  0
   52.6000   30.7300   52.7310 C   0  0  0  0  0  0  0  0  0  0  0  0
   52.0480   30.9230   51.3510 C   0  0  0  0  0  0  0  0  0  0  0  0
   52.0910   30.0130   50.3160 C   0  0  0  0  0  0  0  0  0  0  0  0
   51.3920   30.6030   49.2800 C   0  0  0  0  0  0  0  0  0  0  0  0
   51.1900   30.0300   48.0290 O   0  0  0  0  0  0  0  0  0  0  0  0
   50.9100   31.8170   49.6180 N   0  0  0  0  0  0  0  0  0  0  0  0
   51.3120   31.9980   50.8910 C   0  0  0  0  0  0  0  0  0  0  0  0
   51.0070   33.1320   51.6330 O   0  0  0  0  0  0  0  0  0  0  0  0
   54.7110   29.6190   53.5540 C   0  0  0  0  0  0  0  0  0  0  0  0
   56.0890   29.3970   53.4790 C   0  0  0  0  0  0  0  0  0  0  0  0
   57.3985   33.7893   46.6588 H   0  0  0  0  0  0  0  0  0  0  0  0
   56.6643   34.4064   45.1400 H   0  0  0  0  0  0  0  0  0  0  0  0
   57.5467   32.8418   45.1400 H   0  0  0  0  0  0  0  0  0  0  0  0
   59.4610   33.9218   44.6474 H   0  0  0  0  0  0  0  0  0  0  0  0
   58.5677   35.4936   44.6645 H   0  0  0  0  0  0  0  0  0  0  0  0
   60.6336   35.0140   46.3126 H   0  0  0  0  0  0  0  0  0  0  0  0
   59.1842   35.9982   46.8069 H   0  0  0  0  0  0  0  0  0  0  0  0
   58.4016   34.4137   48.2379 H   0  0  0  0  0  0  0  0  0  0  0  0
   59.1410   33.0491   47.2564 H   0  0  0  0  0  0  0  0  0  0  0  0
   61.3614   34.3075   48.2230 H   0  0  0  0  0  0  0  0  0  0  0  0
   60.1654   34.4937   49.5930 H   0  0  0  0  0  0  0  0  0  0  0  0
   60.2856   31.7799   48.4142 H   0  0  0  0  0  0  0  0  0  0  0  0
   61.8025   32.3377   49.2438 H   0  0  0  0  0  0  0  0  0  0  0  0
   60.8791   31.8368   51.2163 H   0  0  0  0  0  0  0  0  0  0  0  0
   59.6163   33.0884   50.9067 H   0  0  0  0  0  0  0  0  0  0  0  0
   56.8354   31.4808   50.8736 H   0  0  0  0  0  0  0  0  0  0  0  0
   54.3769   31.8648   50.9959 H   0  0  0  0  0  0  0  0  0  0  0  0
   52.1229   29.8536   53.1939 H   0  0  0  0  0  0  0  0  0  0  0  0
   52.3935   31.6297   53.3292 H   0  0  0  0  0  0  0  0  0  0  0  0
   52.5782   29.0268   50.3151 H   0  0  0  0  0  0  0  0  0  0  0  0
   50.2720   29.7080   47.7460 H   0  0  0  0  0  0  0  0  0  0  0  0
   54.1127   29.0904   54.3107 H   0  0  0  0  0  0  0  0  0  0  0  0
   56.5730   28.7113   54.1900 H   0  0  0  0  0  0  0  0  0  0  0  0
  1  2  1  0
  2  3  1  0
  3  4  1  0
  4  5  1  0
  5  6  1  0
  6  7  1  0
  7  8  1  0
  8  9  1  0
  9 10  2  0
  9 11  1  0
 11 12  1  0
 12 13  2  0
 13 14  1  0
 14 15  2  0
 15 16  1  0
 16 17  1  0
 17 18  1  0
 18 19  2  0
 19 20  1  0
 19 21  1  0
 21 22  1  0
 22 23  1  0
 15 24  1  0
 24 25  2  0
 25 12  1  0
 22 17  2  0
  1 26  1  0
  1 27  1  0
  1 28  1  0
  2 29  1  0
  2 30  1  0
  3 31  1  0
  3 32  1  0
  4 33  1  0
  4 34  1  0
  5 35  1  0
  5 36  1  0
  6 37  1  0
  6 38  1  0
  7 39  1  0
  7 40  1  0
 13 41  1  0
 14 42  1  0
 16 43  1  0
 16 44  1  0
 18 45  1  0
 20 46  1  0
 24 47  1  0
 25 48  1  0
M  CHG  4   8  -1  11  -1  21  -1  23  -1
M  END
>  <UniqueID>  (12) 
10

>  <SMILES>  (12) 
CCCCCCC[N-]C(=O)[N-]c1ccc(Cc2cc(O)[n-]c2[O-])cc1

>  <Energy>  (12) 
64.29659097780373

>  <Genealogy>  (12) 
CCCCCCC[N-]C(=O)[N-]c1ccc(Cc2cc(O)[n-]c2[O-])cc1 (protonated)
CCCCCCC[N-]C(=O)[N-]c1ccc(Cc2cc(O)[n-]c2[O-])cc1 (3D coordinates assigned)
CCCCCCC[N-]C(=O)[N-]c1ccc(Cc2cc(O)[n-]c2[O-])cc1 (optimized conformer: 64.29659097780373 kcal/mol)

>  <smiles>  (12) 
CCCCCCCNC(=O)Nc1ccc(Cc2cc(O)[nH]c2O)cc1

>  <score_type>  (12) 
oracle

>  <origin>  (12) 
adg

>  <m_score__min__energy>  (12) 
-15.449999999999999

>  <m_primary>  (12) 
energy

$$$$
12:0
     RDKit          3D

 63 67  0  0  0  0  0  0  0  0999 V2000
   57.2876   32.1685   52.6320 H   0  0  0  0  0  0  0  0  0  0  0  0
   56.2050   32.0090   52.5200 C   0  0  0  0  0  0  0  0  0  0  0  0
   55.5682   32.8148   52.1261 H   0  0  0  0  0  0  0  0  0  0  0  0
   55.6610   30.8310   52.8640 C   0  0  0  0  0  0  0  0  0  0  0  0
   54.3010   30.4860   52.7760 C   0  0  0  0  0  0  0  0  0  0  0  0
   53.2070   31.2290   52.5110 C   0  0  0  0  0  0  0  0  0  0  0  0
   52.9345   31.9987   53.2480 H   0  0  0  0  0  0  0  0  0  0  0  0
   52.3450   31.1030   51.3250 C   0  0  0  0  0  0  0  0  0  0  0  0
   52.4780   30.1570   50.3760 N   0  0  0  0  0  0  0  0  0  0  0  0
   51.5670   30.5220   49.4460 C   0  0  0  0  0  0  0  0  0  0  0  0
   51.3750   29.8630   48.3920 O   0  0  0  0  0  0  0  0  0  0  0  0
   50.8860   31.6530   49.7310 N   0  0  0  0  0  0  0  0  0  0  0  0
   51.4020   32.0150   50.9180 C   0  0  0  0  0  0  0  0  0  0  0  0
   51.0250   33.1580   51.6100 O   0  0  0  0  0  0  0  0  0  0  0  0
   54.2280   29.1340   53.0470 C   0  0  0  0  0  0  0  0  0  0  0  0
   53.3229   28.5094   53.0191 H   0  0  0  0  0  0  0  0  0  0  0  0
   55.5030   28.7150   53.3590 C   0  0  0  0  0  0  0  0  0  0  0  0
   55.8360   27.2910   53.6910 C   0  0  0  0  0  0  0  0  0  0  0  0
   55.8651   27.1664   54.7835 H   0  0  0  0  0  0  0  0  0  0  0  0
   55.0690   26.6265   53.2665 H   0  0  0  0  0  0  0  0  0  0  0  0
   56.8181   27.0356   53.2665 H   0  0  0  0  0  0  0  0  0  0  0  0
   56.3870   29.7380   53.2400 N   0  0  0  0  0  0  0  0  0  0  0  0
   57.8540   29.6300   53.3580 C   0  0  0  0  0  0  0  0  0  0  0  0
   58.1818   30.1564   54.2665 H   0  0  0  0  0  0  0  0  0  0  0  0
   58.1245   28.5651   53.4118 H   0  0  0  0  0  0  0  0  0  0  0  0
   58.5380   30.2410   52.1590 C   0  0  0  0  0  0  0  0  0  0  0  0
   58.3290   29.7120   50.8770 C   0  0  0  0  0  0  0  0  0  0  0  0
   57.7132   28.8089   50.7537 H   0  0  0  0  0  0  0  0  0  0  0  0
   58.8960   30.3220   49.7550 C   0  0  0  0  0  0  0  0  0  0  0  0
   58.7074   29.9076   48.7537 H   0  0  0  0  0  0  0  0  0  0  0  0
   59.7060   31.4620   49.8980 C   0  0  0  0  0  0  0  0  0  0  0  0
   60.2500   32.1290   48.7410 N   0  0  0  0  0  0  0  0  0  0  0  0
   59.8710   33.5160   48.4460 C   0  0  0  0  0  0  0  0  0  0  0  0
   58.8364   33.6869   48.7782 H   0  0  0  0  0  0  0  0  0  0  0  0
   60.5568   34.1925   48.9771 H   0  0  0  0  0  0  0  0  0  0  0  0
   59.9700   33.7930   46.9350 C   0  0  0  0  0  0  0  0  0  0  0  0
   59.3101   34.6361   46.6825 H   0  0  0  0  0  0  0  0  0  0  0  0
   61.0175   34.0292   46.6962 H   0  0  0  0  0  0  0  0  0  0  0  0
   59.5680   32.6130   46.1380 N   0  0  0  0  0  0  0  0  0  0  0  0
   58.1320   32.2970   46.3060 C   0  0  0  0  0  0  0  0  0  0  0  0
   57.9846   31.7781   47.2647 H   0  0  0  0  0  0  0  0  0  0  0  0
   57.5559   33.2339   46.2915 H   0  0  0  0  0  0  0  0  0  0  0  0
   57.6560   31.4130   45.1850 C   0  0  0  0  0  0  0  0  0  0  0  0
   57.3950   30.0540   45.4230 C   0  0  0  0  0  0  0  0  0  0  0  0
   57.5499   29.6346   46.4281 H   0  0  0  0  0  0  0  0  0  0  0  0
   56.9390   29.2310   44.3880 C   0  0  0  0  0  0  0  0  0  0  0  0
   56.7393   28.1664   44.5798 H   0  0  0  0  0  0  0  0  0  0  0  0
   56.7370   29.7600   43.1110 C   0  0  0  0  0  0  0  0  0  0  0  0
   56.3780   29.1120   42.2979 H   0  0  0  0  0  0  0  0  0  0  0  0
   56.9910   31.1130   42.8660 C   0  0  0  0  0  0  0  0  0  0  0  0
   56.8285   31.5288   41.8607 H   0  0  0  0  0  0  0  0  0  0  0  0
   57.4510   31.9380   43.8960 C   0  0  0  0  0  0  0  0  0  0  0  0
   57.6534   33.0010   43.6983 H   0  0  0  0  0  0  0  0  0  0  0  0
   60.4440   31.4350   46.3820 C   0  0  0  0  0  0  0  0  0  0  0  0
   59.8363   30.5238   46.2799 H   0  0  0  0  0  0  0  0  0  0  0  0
   61.2582   31.4828   45.6439 H   0  0  0  0  0  0  0  0  0  0  0  0
   61.1020   31.4270   47.7770 C   0  0  0  0  0  0  0  0  0  0  0  0
   61.2433   30.3870   48.1064 H   0  0  0  0  0  0  0  0  0  0  0  0
   62.0748   31.9372   47.7186 H   0  0  0  0  0  0  0  0  0  0  0  0
   59.9430   31.9710   51.1850 C   0  0  0  0  0  0  0  0  0  0  0  0
   60.5879   32.8529   51.3130 H   0  0  0  0  0  0  0  0  0  0  0  0
   59.3660   31.3660   52.3040 C   0  0  0  0  0  0  0  0  0  0  0  0
   59.5617   31.7739   53.3066 H   0  0  0  0  0  0  0  0  0  0  0  0
  1  2  1  0
  2  3  1  0
  2  4  2  0
  4  5  1  0
  5  6  2  0
  6  7  1  0
  6  8  1  0
  8  9  1  0
  9 10  1  0
 10 11  2  0
 10 12  1  0
 12 13  1  0
 13 14  1  0
  5 15  1  0
 15 16  1  0
 15 17  2  0
 17 18  1  0
 18 19  1  0
 18 20  1  0
 18 21  1  0
 17 22  1  0
 22 23  1  0
 23 24  1  0
 23 25  1  0
 23 26  1  0
 26 27  2  0
 27 28  1  0
 27 29  1  0
 29 30  1  0
 29 31  2  0
 31 32  1  0
 32 33  1  0
 33 34  1  0
 33 35  1  0
 33 36  1  0
 36 37  1  0
 36 38  1  0
 36 39  1  0
 39 40  1  0
 40 41  1  0
 40 42  1  0
 40 43  1  0
 43 44  2  0
 44 45  1  0
 44 46  1  0
 46 47  1  0
 46 48  2  0
 48 49  1  0
 48 50  1  0
 50 51  1  0
 50 52  2  0
 52 53  1  0
 39 54  1  0
 54 55  1  0
 54 56  1  0
 54 57  1  0
 57 58  1  0
 57 59  1  0
 31 60  1  0
 60 61  1  0
 60 62  2  0
 62 63  1  0
 22  4  1  0
 62 26  1  0
 13  8  2  0
 57 32  1  0
 52 43  1  0
M  CHG  3   9  -1  12  -1  14  -1
M  END
>  <UniqueID>  (13) 
11

>  <SMILES>  (13) 
C=c1/c(=C\c2[n-]c(=O)[n-]c2[O-])cc(C)n1Cc1ccc(N2CCN(Cc3ccccc3)CC2)cc1

>  <Energy>  (13) 
148.97842732640686

>  <Genealogy>  (13) 
C=c1c(=Cc2[n-]c(=O)[n-]c2[O-])cc(C)n1Cc1ccc(N2CCN(Cc3ccccc3)CC2)cc1 (protonated)
C=c1/c(=C\c2[n-]c(=O)[n-]c2[O-])cc(C)n1Cc1ccc(N2CCN(Cc3ccccc3)CC2)cc1 (cis-trans isomerization)
C=c1/c(=C\c2[n-]c(=O)[n-]c2[O-])cc(C)n1Cc1ccc(N2CCN(Cc3ccccc3)CC2)cc1 (3D coordinates assigned)
C=c1/c(=C\c2[n-]c(=O)[n-]c2[O-])cc(C)n1Cc1ccc(N2CCN(Cc3ccccc3)CC2)cc1 (nonaromatic ring conformer: 148.97842732640686 kcal/mol)

>  <smiles>  (13) 
C=c1c(=Cc2[nH]c(=O)[nH]c2O)cc(C)n1Cc1ccc(N2CCN(Cc3ccccc3)CC2)cc1

>  <score_type>  (13) 
oracle

>  <origin>  (13) 
adg

>  <m_score__min__energy>  (13) 
-19.34

>  <m_primary>  (13) 
energy

$$$$
13:0
     RDKit          3D

 47 50  0  0  0  0  0  0  0  0999 V2000
   55.1440   26.7040   45.9980 N   0  0  0  0  0  0  0  0  0  0  0  0
   56.4800   25.6640   46.3420 S   0  0  0  0  0  0  0  0  0  0  0  0
   56.6240   24.6480   45.2440 O   0  0  0  0  0  0  0  0  0  0  0  0
   56.2300   24.9410   47.6360 O   0  0  0  0  0  0  0  0  0  0  0  0
   57.9540   26.6190   46.4650 C   0  0  0  0  0  0  0  0  0  0  0  0
   59.2070   26.0110   46.3120 C   0  0  0  0  0  0  0  0  0  0  0  0
   60.3730   26.7720   46.4180 C   0  0  0  0  0  0  0  0  0  0  0  0
   60.2970   28.1400   46.6850 C   0  0  0  0  0  0  0  0  0  0  0  0
   59.0490   28.7590   46.8560 C   0  0  0  0  0  0  0  0  0  0  0  0
   58.9650   30.1700   47.1200 N   0  0  0  0  0  0  0  0  0  0  0  0
   59.3530   30.8290   48.2450 C   0  0  0  0  0  0  0  0  0  0  0  0
   59.8670   30.2220   49.2770 N   0  0  0  0  0  0  0  0  0  0  0  0
   61.2880   30.1870   49.6210 C   0  0  0  0  0  0  0  0  0  0  0  0
   62.0230   31.4210   49.1200 C   0  0  0  0  0  0  0  0  0  0  0  0
   62.3930   31.4920   47.7560 C   0  0  0  0  0  0  0  0  0  0  0  0
   62.0690   30.4960   46.8920 F   0  0  0  0  0  0  0  0  0  0  0  0
   63.0930   32.5930   47.2650 C   0  0  0  0  0  0  0  0  0  0  0  0
   63.4200   33.6490   48.1090 C   0  0  0  0  0  0  0  0  0  0  0  0
   63.0180   33.6290   49.4430 C   0  0  0  0  0  0  0  0  0  0  0  0
   62.2890   32.5400   49.9650 C   0  0  0  0  0  0  0  0  0  0  0  0
   61.8130   32.5950   51.4060 C   0  0  0  0  0  0  0  0  0  0  0  0
   62.3180   31.5170   52.1090 F   0  0  0  0  0  0  0  0  0  0  0  0
   60.4300   32.5670   51.4500 F   0  0  0  0  0  0  0  0  0  0  0  0
   62.2270   33.7540   52.0400 F   0  0  0  0  0  0  0  0  0  0  0  0
   59.1120   32.1650   48.1900 N   0  0  0  0  0  0  0  0  0  0  0  0
   58.5540   32.3420   46.9800 C   0  0  0  0  0  0  0  0  0  0  0  0
   58.1260   33.5330   46.4000 C   0  0  0  0  0  0  0  0  0  0  0  0
   57.5950   33.4730   45.0990 C   0  0  0  0  0  0  0  0  0  0  0  0
   57.1670   34.6100   44.4950 F   0  0  0  0  0  0  0  0  0  0  0  0
   57.5130   32.2370   44.4150 C   0  0  0  0  0  0  0  0  0  0  0  0
   57.0120   32.1940   43.1560 F   0  0  0  0  0  0  0  0  0  0  0  0
   57.9570   31.0500   45.0300 C   0  0  0  0  0  0  0  0  0  0  0  0
   58.4620   31.1420   46.3300 C   0  0  0  0  0  0  0  0  0  0  0  0
   57.8790   27.9910   46.7410 C   0  0  0  0  0  0  0  0  0  0  0  0
   54.7910   27.0590   46.9150 H   0  0  0  0  0  0  0  0  0  0  0  0
   59.2723   24.9321   46.1080 H   0  0  0  0  0  0  0  0  0  0  0  0
   61.3545   26.2919   46.2907 H   0  0  0  0  0  0  0  0  0  0  0  0
   61.2188   28.7352   46.7617 H   0  0  0  0  0  0  0  0  0  0  0  0
   61.3879   30.1332   50.7151 H   0  0  0  0  0  0  0  0  0  0  0  0
   61.7341   29.3049   49.1385 H   0  0  0  0  0  0  0  0  0  0  0  0
   63.3879   32.6267   46.2058 H   0  0  0  0  0  0  0  0  0  0  0  0
   63.9973   34.5019   47.7225 H   0  0  0  0  0  0  0  0  0  0  0  0
   63.2728   34.4747   50.0986 H   0  0  0  0  0  0  0  0  0  0  0  0
   59.3050   32.8970   48.9070 H   0  0  0  0  0  0  0  0  0  0  0  0
   58.2005   34.4881   46.9406 H   0  0  0  0  0  0  0  0  0  0  0  0
   57.9080   30.0844   44.5054 H   0  0  0  0  0  0  0  0  0  0  0  0
   56.8968   28.4696   46.8684 H   0  0  0  0  0  0  0  0  0  0  0  0
  1  2  1  0
  2  3  2  0
  2  4  2  0
  2  5  1  0
  5  6  2  0
  6  7  1  0
  7  8  2  0
  8  9  1  0
  9 10  1  0
 10 11  1  0
 11 12  2  3
 12 13  1  0
 13 14  1  0
 14 15  2  0
 15 16  1  0
 15 17  1  0
 17 18  2  0
 18 19  1  0
 19 20  2  0
 20 21  1  0
 21 22  1  0
 21 23  1  0
 21 24  1  0
 11 25  1  0
 25 26  1  0
 26 27  2  0
 27 28  1  0
 28 29  1  0
 28 30  2  0
 30 31  1  0
 30 32  1  0
 32 33  2  0
  9 34  2  0
 34  5  1  0
 33 10  1  0
 20 14  1  0
 33 26  1  0
  1 35  1  0
  6 36  1  0
  7 37  1  0
  8 38  1  0
 13 39  1  0
 13 40  1  0
 17 41  1  0
 18 42  1  0
 19 43  1  0
 25 44  1  0
 27 45  1  0
 32 46  1  0
 34 47  1  0
M  CHG  1   1  -1
M  END
>  <UniqueID>  (14) 
12

>  <SMILES>  (14) 
[NH-]S(=O)(=O)c1cccc(-n2c(=NCc3c(F)cccc3C(F)(F)F)[nH]c3cc(F)c(F)cc32)c1

>  <Energy>  (14) 
101.88848581973834

>  <Genealogy>  (14) 
[NH-]S(=O)(=O)c1cccc(-n2c(=NCc3c(F)cccc3C(F)(F)F)[nH]c3cc(F)c(F)cc32)c1 (protonated)
[NH-]S(=O)(=O)c1cccc(-n2c(=NCc3c(F)cccc3C(F)(F)F)[nH]c3cc(F)c(F)cc32)c1 (3D coordinates assigned)
[NH-]S(=O)(=O)c1cccc(-n2c(=NCc3c(F)cccc3C(F)(F)F)[nH]c3cc(F)c(F)cc32)c1 (optimized conformer: 101.88848581973834 kcal/mol)

>  <smiles>  (14) 
NS(=O)(=O)c1cccc(-n2c(=NCc3c(F)cccc3C(F)(F)F)[nH]c3cc(F)c(F)cc32)c1

>  <score_type>  (14) 
oracle

>  <origin>  (14) 
adg

>  <m_score__min__energy>  (14) 
-11.23

>  <m_primary>  (14) 
energy

$$$$
14:0
     RDKit          3D

 61 64  0  0  0  0  0  0  0  0999 V2000
   57.1788   25.9251   48.4311 H   0  0  0  0  0  0  0  0  0  0  0  0
   57.2520   25.6560   47.3670 C   0  0  0  0  0  0  0  0  0  0  0  0
   56.0350   25.7830   46.5360 C   0  0  0  0  0  0  0  0  0  0  0  0
   55.3070   24.7770   46.3290 O   0  0  0  0  0  0  0  0  0  0  0  0
   55.6380   27.0460   45.9890 N   0  0  0  0  0  0  0  0  0  0  0  0
   56.5740   28.0370   45.5620 C   0  0  0  0  0  0  0  0  0  0  0  0
   57.9370   27.8790   45.8400 C   0  0  0  0  0  0  0  0  0  0  0  0
   58.2850   26.9953   46.3949 H   0  0  0  0  0  0  0  0  0  0  0  0
   58.8590   28.8440   45.4130 C   0  0  0  0  0  0  0  0  0  0  0  0
   60.5740   28.6600   45.7630 S   0  0  0  0  0  0  0  0  0  0  0  0
   60.8530   27.2460   46.1920 O   0  0  0  0  0  0  0  0  0  0  0  0
   61.3470   28.9560   44.5070 O   0  0  0  0  0  0  0  0  0  0  0  0
   61.0330   29.7800   47.0290 N   0  0  0  0  0  0  0  0  0  0  0  0
   60.4140   31.1120   46.8440 C   0  0  0  0  0  0  0  0  0  0  0  0
   61.1589   31.8831   47.0901 H   0  0  0  0  0  0  0  0  0  0  0  0
   60.0853   31.1823   45.7966 H   0  0  0  0  0  0  0  0  0  0  0  0
   59.1770   31.3220   47.7330 C   0  0  0  0  0  0  0  0  0  0  0  0
   59.4933   31.7297   48.7044 H   0  0  0  0  0  0  0  0  0  0  0  0
   58.4930   32.0243   47.2341 H   0  0  0  0  0  0  0  0  0  0  0  0
   58.5080   30.0980   47.9380 O   0  0  0  0  0  0  0  0  0  0  0  0
   59.2870   29.2550   48.7620 C   0  0  0  0  0  0  0  0  0  0  0  0
   59.2085   29.6131   49.7991 H   0  0  0  0  0  0  0  0  0  0  0  0
   58.8954   28.2341   48.6416 H   0  0  0  0  0  0  0  0  0  0  0  0
   60.7840   29.2170   48.3690 C   0  0  0  0  0  0  0  0  0  0  0  0
   61.3568   29.7976   49.1071 H   0  0  0  0  0  0  0  0  0  0  0  0
   61.0970   28.1626   48.3508 H   0  0  0  0  0  0  0  0  0  0  0  0
   58.4120   29.9620   44.6950 C   0  0  0  0  0  0  0  0  0  0  0  0
   59.1339   30.7167   44.3496 H   0  0  0  0  0  0  0  0  0  0  0  0
   57.0520   30.1200   44.4170 C   0  0  0  0  0  0  0  0  0  0  0  0
   56.7048   31.0022   43.8591 H   0  0  0  0  0  0  0  0  0  0  0  0
   56.1320   29.1600   44.8460 C   0  0  0  0  0  0  0  0  0  0  0  0
   54.7820   29.3190   44.5520 O   0  0  0  0  0  0  0  0  0  0  0  0
   58.4360   25.2350   46.9080 C   0  0  0  0  0  0  0  0  0  0  0  0
   59.3324   25.7820   47.2355 H   0  0  0  0  0  0  0  0  0  0  0  0
   58.6300   24.0890   45.9930 C   0  0  0  0  0  0  0  0  0  0  0  0
   59.9190   23.6540   45.6360 C   0  0  0  0  0  0  0  0  0  0  0  0
   60.8026   24.1851   46.0197 H   0  0  0  0  0  0  0  0  0  0  0  0
   60.0810   22.5500   44.7960 C   0  0  0  0  0  0  0  0  0  0  0  0
   61.0913   22.2189   44.5139 H   0  0  0  0  0  0  0  0  0  0  0  0
   58.9630   21.8650   44.3130 C   0  0  0  0  0  0  0  0  0  0  0  0
   59.0941   21.0027   43.6428 H   0  0  0  0  0  0  0  0  0  0  0  0
   57.6740   22.2760   44.6820 C   0  0  0  0  0  0  0  0  0  0  0  0
   56.2650   21.3920   44.1090 S   0  0  0  0  0  0  0  0  0  0  0  0
   55.0320   22.2110   44.3770 O   0  0  0  0  0  0  0  0  0  0  0  0
   56.3790   21.1930   42.6230 O   0  0  0  0  0  0  0  0  0  0  0  0
   56.2110   19.8520   44.9510 N   0  0  0  0  0  0  0  0  0  0  0  0
   54.8840   19.5780   45.5330 C   0  0  0  0  0  0  0  0  0  0  0  0
   54.1109   19.9074   44.8232 H   0  0  0  0  0  0  0  0  0  0  0  0
   54.8160   18.4971   45.7254 H   0  0  0  0  0  0  0  0  0  0  0  0
   54.6730   20.3130   46.8750 C   0  0  0  0  0  0  0  0  0  0  0  0
   53.7227   20.8654   46.8331 H   0  0  0  0  0  0  0  0  0  0  0  0
   54.6577   19.5617   47.6783 H   0  0  0  0  0  0  0  0  0  0  0  0
   55.7210   21.2240   47.1440 O   0  0  0  0  0  0  0  0  0  0  0  0
   56.9410   20.5210   47.2530 C   0  0  0  0  0  0  0  0  0  0  0  0
   57.7497   21.2411   47.4464 H   0  0  0  0  0  0  0  0  0  0  0  0
   56.8449   19.7996   48.0778 H   0  0  0  0  0  0  0  0  0  0  0  0
   57.2720   19.7330   45.9660 C   0  0  0  0  0  0  0  0  0  0  0  0
   58.2106   20.1219   45.5443 H   0  0  0  0  0  0  0  0  0  0  0  0
   57.3634   18.6704   46.2353 H   0  0  0  0  0  0  0  0  0  0  0  0
   57.5120   23.3750   45.5360 C   0  0  0  0  0  0  0  0  0  0  0  0
   56.5027   23.6797   45.8499 H   0  0  0  0  0  0  0  0  0  0  0  0
  1  2  1  0
  2  3  1  0
  3  4  2  0
  3  5  1  0
  5  6  1  0
  6  7  2  0
  7  8  1  0
  7  9  1  0
  9 10  1  0
 10 11  2  0
 10 12  2  0
 10 13  1  0
 13 14  1  0
 14 15  1  0
 14 16  1  0
 14 17  1  0
 17 18  1  0
 17 19  1  0
 17 20  1  0
 20 21  1  0
 21 22  1  0
 21 23  1  0
 21 24  1  0
 24 25  1  0
 24 26  1  0
  9 27  2  0
 27 28  1  0
 27 29  1  0
 29 30  1  0
 29 31  2  0
 31 32  1  0
  2 33  2  0
 33 34  1  0
 33 35  1  0
 35 36  2  0
 36 37  1  0
 36 38  1  0
 38 39  1  0
 38 40  2  0
 40 41  1  0
 40 42  1  0
 42 43  1  0
 43 44  2  0
 43 45  2  0
 43 46  1  0
 46 47  1  0
 47 48  1  0
 47 49  1  0
 47 50  1  0
 50 51  1  0
 50 52  1  0
 50 53  1  0
 53 54  1  0
 54 55  1  0
 54 56  1  0
 54 57  1  0
 57 58  1  0
 57 59  1  0
 42 60  2  0
 60 61  1  0
 31  6  1  0
 60 35  1  0
 24 13  1  0
 57 46  1  0
M  CHG  2   5  -1  32  -1
M  END
>  <UniqueID>  (15) 
13

>  <SMILES>  (15) 
O=C(/C=C\c1cccc(S(=O)(=O)N2CCOCC2)c1)[N-]c1cc(S(=O)(=O)N2CCOCC2)ccc1[O-]

>  <Energy>  (15) 
103.08178647804121

>  <Genealogy>  (15) 
O=C(C=Cc1cccc(S(=O)(=O)N2CCOCC2)c1)[N-]c1cc(S(=O)(=O)N2CCOCC2)ccc1[O-] (protonated)
O=C(/C=C\c1cccc(S(=O)(=O)N2CCOCC2)c1)[N-]c1cc(S(=O)(=O)N2CCOCC2)ccc1[O-] (cis-trans isomerization)
O=C(/C=C\c1cccc(S(=O)(=O)N2CCOCC2)c1)[N-]c1cc(S(=O)(=O)N2CCOCC2)ccc1[O-] (3D coordinates assigned)
O=C(/C=C\c1cccc(S(=O)(=O)N2CCOCC2)c1)[N-]c1cc(S(=O)(=O)N2CCOCC2)ccc1[O-] (nonaromatic ring conformer: 103.08178647804121 kcal/mol)

>  <smiles>  (15) 
O=C(C=Cc1cccc(S(=O)(=O)N2CCOCC2)c1)Nc1cc(S(=O)(=O)N2CCOCC2)ccc1O

>  <score_type>  (15) 
oracle

>  <origin>  (15) 
adg

>  <m_score__min__energy>  (15) 
-16.129999999999999

>  <m_primary>  (15) 
energy

$$$$
15:0
     RDKit          3D

 57 60  0  0  0  0  0  0  0  0999 V2000
   57.7880   28.3900   53.6980 C   0  0  0  0  0  0  0  0  0  0  0  0
   57.9920   29.4240   52.6300 C   0  0  0  0  0  0  0  0  0  0  0  0
   56.9670   30.3270   52.3220 C   0  0  0  0  0  0  0  0  0  0  0  0
   57.1370   31.2710   51.3050 C   0  0  0  0  0  0  0  0  0  0  0  0
   58.3350   31.3220   50.5710 C   0  0  0  0  0  0  0  0  0  0  0  0
   58.4710   32.3050   49.4380 C   0  0  0  0  0  0  0  0  0  0  0  0
   59.3760   30.4160   50.8820 C   0  0  0  0  0  0  0  0  0  0  0  0
   60.6190   30.4290   50.1570 N   0  0  0  0  0  0  0  0  0  0  0  0
   60.7640   29.6720   48.9150 C   0  0  0  0  0  0  0  0  0  0  0  0
   61.2350   30.6220   47.8140 C   0  0  0  0  0  0  0  0  0  0  0  0
   62.4830   31.3560   48.1630 N   0  0  0  0  0  0  0  0  0  0  0  0
   62.4500   32.9990   47.5400 S   0  0  0  0  0  0  0  0  0  0  0  0
   62.9940   33.9540   48.5640 O   0  0  0  0  0  0  0  0  0  0  0  0
   63.3450   33.0700   46.3350 O   0  0  0  0  0  0  0  0  0  0  0  0
   60.8310   33.5250   47.0690 C   0  0  0  0  0  0  0  0  0  0  0  0
   60.2220   34.6060   47.7200 C   0  0  0  0  0  0  0  0  0  0  0  0
   58.9050   34.9590   47.4120 C   0  0  0  0  0  0  0  0  0  0  0  0
   58.1980   34.2540   46.4330 C   0  0  0  0  0  0  0  0  0  0  0  0
   58.8220   33.2130   45.7270 C   0  0  0  0  0  0  0  0  0  0  0  0
   58.0940   32.5100   44.6530 C   0  0  0  0  0  0  0  0  0  0  0  0
   58.2840   32.8410   43.4540 O   0  0  0  0  0  0  0  0  0  0  0  0
   57.1120   31.5140   44.9620 N   0  0  0  0  0  0  0  0  0  0  0  0
   57.4010   30.2940   45.3090 C   0  0  0  0  0  0  0  0  0  0  0  0
   58.6520   29.9640   45.7410 N   0  0  0  0  0  0  0  0  0  0  0  0
   58.9640   28.6890   46.0780 C   0  0  0  0  0  0  0  0  0  0  0  0
   57.9940   27.6940   45.9950 C   0  0  0  0  0  0  0  0  0  0  0  0
   56.7210   28.0440   45.5490 C   0  0  0  0  0  0  0  0  0  0  0  0
   56.4500   29.3300   45.2090 N   0  0  0  0  0  0  0  0  0  0  0  0
   60.1430   32.8600   46.0420 C   0  0  0  0  0  0  0  0  0  0  0  0
   62.8700   31.3010   49.5990 C   0  0  0  0  0  0  0  0  0  0  0  0
   61.6770   31.3550   50.5620 C   0  0  0  0  0  0  0  0  0  0  0  0
   59.1930   29.4740   51.9090 C   0  0  0  0  0  0  0  0  0  0  0  0
   57.8810   28.8615   54.6874 H   0  0  0  0  0  0  0  0  0  0  0  0
   56.7855   27.9491   53.5948 H   0  0  0  0  0  0  0  0  0  0  0  0
   58.5479   27.6014   53.5948 H   0  0  0  0  0  0  0  0  0  0  0  0
   56.0220   30.2933   52.8839 H   0  0  0  0  0  0  0  0  0  0  0  0
   56.3270   31.9795   51.0773 H   0  0  0  0  0  0  0  0  0  0  0  0
   58.6110   33.3171   49.8455 H   0  0  0  0  0  0  0  0  0  0  0  0
   59.3403   32.0348   48.8205 H   0  0  0  0  0  0  0  0  0  0  0  0
   57.5610   32.2810   48.8205 H   0  0  0  0  0  0  0  0  0  0  0  0
   61.5046   28.8707   49.0543 H   0  0  0  0  0  0  0  0  0  0  0  0
   59.7997   29.2228   48.6352 H   0  0  0  0  0  0  0  0  0  0  0  0
   61.4185   30.0354   46.9017 H   0  0  0  0  0  0  0  0  0  0  0  0
   60.4442   31.3733   47.6718 H   0  0  0  0  0  0  0  0  0  0  0  0
   63.2630   30.8910   47.6400 H   0  0  0  0  0  0  0  0  0  0  0  0
   60.7814   35.1780   48.4749 H   0  0  0  0  0  0  0  0  0  0  0  0
   58.4232   35.7941   47.9415 H   0  0  0  0  0  0  0  0  0  0  0  0
   57.1518   34.5152   46.2157 H   0  0  0  0  0  0  0  0  0  0  0  0
   59.9809   28.4410   46.4162 H   0  0  0  0  0  0  0  0  0  0  0  0
   58.2269   26.6560   46.2749 H   0  0  0  0  0  0  0  0  0  0  0  0
   55.9354   27.2779   45.4724 H   0  0  0  0  0  0  0  0  0  0  0  0
   60.6427   32.0569   45.4805 H   0  0  0  0  0  0  0  0  0  0  0  0
   63.4166   30.3629   49.7756 H   0  0  0  0  0  0  0  0  0  0  0  0
   63.4858   32.1900   49.8001 H   0  0  0  0  0  0  0  0  0  0  0  0
   62.0203   31.0860   51.5719 H   0  0  0  0  0  0  0  0  0  0  0  0
   61.2670   32.3756   50.5469 H   0  0  0  0  0  0  0  0  0  0  0  0
   60.0015   28.7680   52.1497 H   0  0  0  0  0  0  0  0  0  0  0  0
  1  2  1  0
  2  3  2  0
  3  4  1  0
  4  5  2  0
  5  6  1  0
  5  7  1  0
  7  8  1  0
  8  9  1  0
  9 10  1  0
 10 11  1  0
 11 12  1  0
 12 13  2  0
 12 14  2  0
 12 15  1  0
 15 16  2  0
 16 17  1  0
 17 18  2  0
 18 19  1  0
 19 20  1  0
 20 21  2  0
 20 22  1  0
 22 23  2  3
 23 24  1  0
 24 25  2  0
 25 26  1  0
 26 27  2  0
 27 28  1  0
 19 29  2  0
 11 30  1  0
 30 31  1  0
  7 32  2  0
 32  2  1  0
 31  8  1  0
 29 15  1  0
 28 23  1  0
  1 33  1  0
  1 34  1  0
  1 35  1  0
  3 36  1  0
  4 37  1  0
  6 38  1  0
  6 39  1  0
  6 40  1  0
  9 41  1  0
  9 42  1  0
 10 43  1  0
 10 44  1  0
 11 45  1  0
 16 46  1  0
 17 47  1  0
 18 48  1  0
 25 49  1  0
 26 50  1  0
 27 51  1  0
 29 52  1  0
 30 53  1  0
 30 54  1  0
 31 55  1  0
 31 56  1  0
 32 57  1  0
M  CHG  2  11   1  28  -1
M  END
>  <UniqueID>  (16) 
14

>  <SMILES>  (16) 
Cc1ccc(C)c(N2CC[NH+](S(=O)(=O)c3cccc(C(=O)N=c4nccc[n-]4)c3)CC2)c1

>  <Energy>  (16) 
77.70730792874674

>  <Genealogy>  (16) 
Cc1ccc(C)c(N2CC[NH+](S(=O)(=O)c3cccc(C(=O)N=c4nccc[n-]4)c3)CC2)c1 (protonated)
Cc1ccc(C)c(N2CC[NH+](S(=O)(=O)c3cccc(C(=O)N=c4nccc[n-]4)c3)CC2)c1 (3D coordinates assigned)
Cc1ccc(C)c(N2CC[NH+](S(=O)(=O)c3cccc(C(=O)N=c4nccc[n-]4)c3)CC2)c1 (nonaromatic ring conformer: 77.70730792874674 kcal/mol)

>  <smiles>  (16) 
Cc1ccc(C)c(N2CCN(S(=O)(=O)c3cccc(C(=O)N=c4nccc[nH]4)c3)CC2)c1

>  <score_type>  (16) 
oracle

>  <origin>  (16) 
adg

>  <m_score__min__energy>  (16) 
-10.18

>  <m_primary>  (16) 
energy

$$$$
16:0
     RDKit          3D

 74 77  0  0  0  0  0  0  0  0999 V2000
   57.8751   34.3885   44.8120 H   0  0  0  0  0  0  0  0  0  0  0  0
   57.6570   33.5390   44.1480 C   0  0  0  0  0  0  0  0  0  0  0  0
   57.3829   33.7180   43.0978 H   0  0  0  0  0  0  0  0  0  0  0  0
   57.7250   32.2900   44.6170 C   0  0  0  0  0  0  0  0  0  0  0  0
   57.4040   30.9470   43.6560 S   0  0  0  0  0  0  0  0  0  0  0  0
   57.7120   29.8320   44.8730 C   0  0  0  0  0  0  0  0  0  0  0  0
   57.6580   28.5010   44.6950 C   0  0  0  0  0  0  0  0  0  0  0  0
   56.8409   28.0954   44.0804 H   0  0  0  0  0  0  0  0  0  0  0  0
   58.6270   27.5500   45.2730 C   0  0  0  0  0  0  0  0  0  0  0  0
   59.8520   28.0120   45.7720 C   0  0  0  0  0  0  0  0  0  0  0  0
   60.0988   29.0825   45.7166 H   0  0  0  0  0  0  0  0  0  0  0  0
   60.7610   27.1150   46.3400 C   0  0  0  0  0  0  0  0  0  0  0  0
   61.7200   27.4818   46.7346 H   0  0  0  0  0  0  0  0  0  0  0  0
   60.4540   25.7510   46.4080 C   0  0  0  0  0  0  0  0  0  0  0  0
   61.1777   25.0485   46.8470 H   0  0  0  0  0  0  0  0  0  0  0  0
   59.2300   25.2760   45.9200 C   0  0  0  0  0  0  0  0  0  0  0  0
   58.9540   23.8690   45.9840 N   0  0  0  0  0  0  0  0  0  0  0  0
   58.0960   23.1340   45.0990 C   0  0  0  0  0  0  0  0  0  0  0  0
   58.5690   22.5620   44.0790 O   0  0  0  0  0  0  0  0  0  0  0  0
   56.6320   23.0320   45.4280 C   0  0  0  0  0  0  0  0  0  0  0  0
   56.0596   23.3245   44.5354 H   0  0  0  0  0  0  0  0  0  0  0  0
   56.4557   21.9905   45.7351 H   0  0  0  0  0  0  0  0  0  0  0  0
   56.1690   23.9170   46.6070 C   0  0  0  0  0  0  0  0  0  0  0  0
   56.5597   23.4934   47.5440 H   0  0  0  0  0  0  0  0  0  0  0  0
   56.5530   24.9342   46.4399 H   0  0  0  0  0  0  0  0  0  0  0  0
   54.6910   23.9940   46.6960 N   0  0  0  0  0  0  0  0  0  0  0  0
   54.1010   24.6970   45.5250 C   0  0  0  0  0  0  0  0  0  0  0  0
   53.3496   25.4144   45.8866 H   0  0  0  0  0  0  0  0  0  0  0  0
   54.9201   25.2019   44.9918 H   0  0  0  0  0  0  0  0  0  0  0  0
   53.4250   23.7320   44.5350 C   0  0  0  0  0  0  0  0  0  0  0  0
   52.9981   24.3161   43.7064 H   0  0  0  0  0  0  0  0  0  0  0  0
   54.1889   23.0268   44.1756 H   0  0  0  0  0  0  0  0  0  0  0  0
   52.3400   22.9430   45.1730 N   0  0  0  0  0  0  0  0  0  0  0  0
   51.0160   23.5660   44.9500 C   0  0  0  0  0  0  0  0  0  0  0  0
   50.2640   22.7729   44.8252 H   0  0  0  0  0  0  0  0  0  0  0  0
   50.7794   24.1958   45.8203 H   0  0  0  0  0  0  0  0  0  0  0  0
   51.0170   24.4500   43.7040 C   0  0  0  0  0  0  0  0  0  0  0  0
   51.0182   25.5080   44.0051 H   0  0  0  0  0  0  0  0  0  0  0  0
   51.9149   24.2382   43.1049 H   0  0  0  0  0  0  0  0  0  0  0  0
   50.1186   24.2403   43.1049 H   0  0  0  0  0  0  0  0  0  0  0  0
   52.5840   22.6800   46.6140 C   0  0  0  0  0  0  0  0  0  0  0  0
   52.0969   23.4677   47.2076 H   0  0  0  0  0  0  0  0  0  0  0  0
   52.1698   21.6903   46.8569 H   0  0  0  0  0  0  0  0  0  0  0  0
   54.0820   22.6650   46.9420 C   0  0  0  0  0  0  0  0  0  0  0  0
   54.2162   22.3978   48.0006 H   0  0  0  0  0  0  0  0  0  0  0  0
   54.5763   21.9266   46.2936 H   0  0  0  0  0  0  0  0  0  0  0  0
   58.2990   26.1920   45.4040 C   0  0  0  0  0  0  0  0  0  0  0  0
   57.3020   25.8412   45.0993 H   0  0  0  0  0  0  0  0  0  0  0  0
   58.0190   30.5550   46.0350 C   0  0  0  0  0  0  0  0  0  0  0  0
   58.2030   30.0070   47.1560 O   0  0  0  0  0  0  0  0  0  0  0  0
   58.0530   31.9170   45.8900 N   0  0  0  0  0  0  0  0  0  0  0  0
   58.3940   32.8180   47.0090 C   0  0  0  0  0  0  0  0  0  0  0  0
   57.4968   33.3883   47.2914 H   0  0  0  0  0  0  0  0  0  0  0  0
   58.7530   32.1996   47.8449 H   0  0  0  0  0  0  0  0  0  0  0  0
   59.5140   33.8070   46.6350 C   0  0  0  0  0  0  0  0  0  0  0  0
   60.2210   33.2931   45.9671 H   0  0  0  0  0  0  0  0  0  0  0  0
   59.0303   34.6702   46.1546 H   0  0  0  0  0  0  0  0  0  0  0  0
   60.2960   34.3490   47.8430 C   0  0  0  0  0  0  0  0  0  0  0  0
   60.4302   35.4340   47.7216 H   0  0  0  0  0  0  0  0  0  0  0  0
   59.7205   34.1189   48.7517 H   0  0  0  0  0  0  0  0  0  0  0  0
   61.6250   33.7150   47.9710 N   0  0  0  0  0  0  0  0  0  0  0  0
   62.3600   33.8160   46.6960 C   0  0  0  0  0  0  0  0  0  0  0  0
   61.7748   33.3346   45.8986 H   0  0  0  0  0  0  0  0  0  0  0  0
   62.5184   34.8770   46.4527 H   0  0  0  0  0  0  0  0  0  0  0  0
   63.7190   33.1190   46.8200 C   0  0  0  0  0  0  0  0  0  0  0  0
   64.2434   33.1774   45.8548 H   0  0  0  0  0  0  0  0  0  0  0  0
   64.3027   33.6226   47.6046 H   0  0  0  0  0  0  0  0  0  0  0  0
   63.5570   31.7600   47.1780 O   0  0  0  0  0  0  0  0  0  0  0  0
   62.9110   31.6730   48.4340 C   0  0  0  0  0  0  0  0  0  0  0  0
   62.8196   30.6149   48.7203 H   0  0  0  0  0  0  0  0  0  0  0  0
   63.5094   32.2197   49.1777 H   0  0  0  0  0  0  0  0  0  0  0  0
   61.5140   32.2990   48.3700 C   0  0  0  0  0  0  0  0  0  0  0  0
   60.9034   31.7575   47.6325 H   0  0  0  0  0  0  0  0  0  0  0  0
   61.0385   32.2342   49.3598 H   0  0  0  0  0  0  0  0  0  0  0  0
  1  2  1  0
  2  3  1  0
  2  4  2  0
  4  5  1  0
  5  6  1  0
  6  7  2  0
  7  8  1  0
  7  9  1  0
  9 10  2  0
 10 11  1  0
 10 12  1  0
 12 13  1  0
 12 14  2  0
 14 15  1  0
 14 16  1  0
 16 17  1  0
 17 18  1  0
 18 19  2  0
 18 20  1  0
 20 21  1  0
 20 22  1  0
 20 23  1  0
 23 24  1  0
 23 25  1  0
 23 26  1  0
 26 27  1  0
 27 28  1  0
 27 29  1  0
 27 30  1  0
 30 31  1  0
 30 32  1  0
 30 33  1  0
 33 34  1  0
 34 35  1  0
 34 36  1  0
 34 37  1  0
 37 38  1  0
 37 39  1  0
 37 40  1  0
 33 41  1  0
 41 42  1  0
 41 43  1  0
 41 44  1  0
 44 45  1  0
 44 46  1  0
 16 47  2  0
 47 48  1  0
  6 49  1  0
 49 50  2  0
 49 51  1  0
 51 52  1  0
 52 53  1  0
 52 54  1  0
 52 55  1  0
 55 56  1  0
 55 57  1  0
 55 58  1  0
 58 59  1  0
 58 60  1  0
 58 61  1  0
 61 62  1  0
 62 63  1  0
 62 64  1  0
 62 65  1  0
 65 66  1  0
 65 67  1  0
 65 68  1  0
 68 69  1  0
 69 70  1  0
 69 71  1  0
 69 72  1  0
 72 73  1  0
 72 74  1  0
 51  4  1  0
 72 61  1  0
 47  9  1  0
 44 26  1  0
M  CHG  1  17  -1
M  END
>  <UniqueID>  (17) 
15

>  <SMILES>  (17) 
C=c1s/c(=C/c2cccc([N-]C(=O)CCN3CCN(CC)CC3)c2)c(=O)n1CCCN1CCOCC1

>  <Energy>  (17) 
130.044507816009

>  <Genealogy>  (17) 
C=c1sc(=Cc2cccc([N-]C(=O)CCN3CCN(CC)CC3)c2)c(=O)n1CCCN1CCOCC1 (protonated)
C=c1s/c(=C/c2cccc([N-]C(=O)CCN3CCN(CC)CC3)c2)c(=O)n1CCCN1CCOCC1 (cis-trans isomerization)
C=c1s/c(=C/c2cccc([N-]C(=O)CCN3CCN(CC)CC3)c2)c(=O)n1CCCN1CCOCC1 (3D coordinates assigned)
C=c1s/c(=C/c2cccc([N-]C(=O)CCN3CCN(CC)CC3)c2)c(=O)n1CCCN1CCOCC1 (nonaromatic ring conformer: 130.044507816009 kcal/mol)

>  <smiles>  (17) 
C=c1sc(=Cc2cccc(NC(=O)CCN3CCN(CC)CC3)c2)c(=O)n1CCCN1CCOCC1

>  <score_type>  (17) 
oracle

>  <origin>  (17) 
adg

>  <m_score__min__energy>  (17) 
-11.15

>  <m_primary>  (17) 
energy

$$$$
17:0
     RDKit          3D

 49 52  0  0  0  0  0  0  0  0999 V2000
   55.1400   26.5500   46.1380 O   0  0  0  0  0  0  0  0  0  0  0  0
   56.3970   26.4580   46.1480 C   0  0  0  0  0  0  0  0  0  0  0  0
   57.1690   26.6990   44.8860 C   0  0  0  0  0  0  0  0  0  0  0  0
   57.4430   28.1260   44.7200 N   0  0  0  0  0  0  0  0  0  0  0  0
   56.5600   29.1350   44.7790 C   0  0  0  0  0  0  0  0  0  0  0  0
   55.1830   28.9740   44.9010 O   0  0  0  0  0  0  0  0  0  0  0  0
   57.2390   30.3320   44.7310 C   0  0  0  0  0  0  0  0  0  0  0  0
   56.6410   31.6950   44.8710 C   0  0  0  0  0  0  0  0  0  0  0  0
   57.7180   32.7230   45.0710 C   0  0  0  0  0  0  0  0  0  0  0  0
   58.3410   33.4740   44.0760 C   0  0  0  0  0  0  0  0  0  0  0  0
   59.3030   34.2600   44.6080 N   0  0  0  0  0  0  0  0  0  0  0  0
   59.2990   34.0100   45.9280 C   0  0  0  0  0  0  0  0  0  0  0  0
   60.1270   34.5790   46.8950 C   0  0  0  0  0  0  0  0  0  0  0  0
   59.9560   34.1700   48.2300 C   0  0  0  0  0  0  0  0  0  0  0  0
   58.9730   33.2150   48.5650 C   0  0  0  0  0  0  0  0  0  0  0  0
   58.1510   32.6570   47.5680 C   0  0  0  0  0  0  0  0  0  0  0  0
   58.3440   33.0800   46.2530 C   0  0  0  0  0  0  0  0  0  0  0  0
   58.5670   30.0900   44.6620 N   0  0  0  0  0  0  0  0  0  0  0  0
   58.6430   28.7400   44.6540 C   0  0  0  0  0  0  0  0  0  0  0  0
   59.7390   28.1200   44.6110 O   0  0  0  0  0  0  0  0  0  0  0  0
   57.0930   26.1820   47.3700 N   0  0  0  0  0  0  0  0  0  0  0  0
   57.8680   24.9710   47.6190 C   0  0  0  0  0  0  0  0  0  0  0  0
   56.9570   23.7630   47.8650 C   0  0  0  0  0  0  0  0  0  0  0  0
   56.7910   22.9250   46.6230 C   0  0  0  0  0  0  0  0  0  0  0  0
   57.5660   23.1900   45.4820 C   0  0  0  0  0  0  0  0  0  0  0  0
   57.4200   22.4070   44.3330 C   0  0  0  0  0  0  0  0  0  0  0  0
   56.4950   21.3600   44.3080 C   0  0  0  0  0  0  0  0  0  0  0  0
   56.3480   20.6020   43.1480 O   0  0  0  0  0  0  0  0  0  0  0  0
   55.7240   21.0860   45.4450 C   0  0  0  0  0  0  0  0  0  0  0  0
   55.8790   21.8570   46.6020 C   0  0  0  0  0  0  0  0  0  0  0  0
   58.1212   26.1503   44.9333 H   0  0  0  0  0  0  0  0  0  0  0  0
   56.5726   26.3485   44.0307 H   0  0  0  0  0  0  0  0  0  0  0  0
   56.0740   31.9370   43.9600 H   0  0  0  0  0  0  0  0  0  0  0  0
   55.9740   31.7032   45.7456 H   0  0  0  0  0  0  0  0  0  0  0  0
   58.0854   33.4328   43.0069 H   0  0  0  0  0  0  0  0  0  0  0  0
   59.9250   34.9220   44.0920 H   0  0  0  0  0  0  0  0  0  0  0  0
   60.8894   35.3237   46.6226 H   0  0  0  0  0  0  0  0  0  0  0  0
   60.5931   34.5977   49.0182 H   0  0  0  0  0  0  0  0  0  0  0  0
   58.8481   32.9043   49.6128 H   0  0  0  0  0  0  0  0  0  0  0  0
   57.3815   31.9117   47.8177 H   0  0  0  0  0  0  0  0  0  0  0  0
   58.5039   24.7673   46.7448 H   0  0  0  0  0  0  0  0  0  0  0  0
   58.4800   25.1313   48.5189 H   0  0  0  0  0  0  0  0  0  0  0  0
   57.3971   23.1408   48.6582 H   0  0  0  0  0  0  0  0  0  0  0  0
   55.9655   24.1369   48.1602 H   0  0  0  0  0  0  0  0  0  0  0  0
   58.2910   24.0172   45.4925 H   0  0  0  0  0  0  0  0  0  0  0  0
   58.0355   22.6159   43.4456 H   0  0  0  0  0  0  0  0  0  0  0  0
   56.9050   19.7720   42.9850 H   0  0  0  0  0  0  0  0  0  0  0  0
   54.9949   20.2625   45.4281 H   0  0  0  0  0  0  0  0  0  0  0  0
   55.2846   21.6260   47.4983 H   0  0  0  0  0  0  0  0  0  0  0  0
  1  2  2  0
  2  3  1  0
  3  4  1  0
  4  5  1  0
  5  6  1  0
  5  7  2  0
  7  8  1  0
  8  9  1  0
  9 10  2  0
 10 11  1  0
 11 12  1  0
 12 13  2  0
 13 14  1  0
 14 15  2  0
 15 16  1  0
 16 17  2  0
  7 18  1  0
 18 19  1  0
 19 20  2  0
  2 21  1  0
 21 22  1  0
 22 23  1  0
 23 24  1  0
 24 25  2  0
 25 26  1  0
 26 27  2  0
 27 28  1  0
 27 29  1  0
 29 30  2  0
 19  4  1  0
 30 24  1  0
 17  9  1  0
 17 12  1  0
  3 31  1  0
  3 32  1  0
  8 33  1  0
  8 34  1  0
 10 35  1  0
 11 36  1  0
 13 37  1  0
 14 38  1  0
 15 39  1  0
 16 40  1  0
 22 41  1  0
 22 42  1  0
 23 43  1  0
 23 44  1  0
 25 45  1  0
 26 46  1  0
 28 47  1  0
 29 48  1  0
 30 49  1  0
M  CHG  3   6  -1  18  -1  21  -1
M  END
>  <UniqueID>  (18) 
16

>  <SMILES>  (18) 
O=C(Cn1c([O-])c(Cc2c[nH]c3ccccc23)[n-]c1=O)[N-]CCc1ccc(O)cc1

>  <Energy>  (18) 
102.94463459881574

>  <Genealogy>  (18) 
O=C(Cn1c([O-])c(Cc2c[nH]c3ccccc23)[n-]c1=O)[N-]CCc1ccc(O)cc1 (protonated)
O=C(Cn1c([O-])c(Cc2c[nH]c3ccccc23)[n-]c1=O)[N-]CCc1ccc(O)cc1 (3D coordinates assigned)
O=C(Cn1c([O-])c(Cc2c[nH]c3ccccc23)[n-]c1=O)[N-]CCc1ccc(O)cc1 (optimized conformer: 102.94463459881574 kcal/mol)

>  <smiles>  (18) 
O=C(Cn1c(O)c(Cc2c[nH]c3ccccc23)[nH]c1=O)NCCc1ccc(O)cc1

>  <score_type>  (18) 
oracle

>  <origin>  (18) 
adg

>  <m_score__min__energy>  (18) 
-15.210000000000001

>  <m_primary>  (18) 
energy

$$$$
18:0
     RDKit          3D

 51 52  0  0  0  0  0  0  0  0999 V2000
   63.0660   32.1887   46.3450 H   0  0  0  0  0  0  0  0  0  0  0  0
   62.7030   31.8820   47.3370 C   0  0  0  0  0  0  0  0  0  0  0  0
   63.2088   32.2445   48.2440 H   0  0  0  0  0  0  0  0  0  0  0  0
   61.6500   31.0710   47.4400 C   0  0  0  0  0  0  0  0  0  0  0  0
   61.1671   30.7267   46.5136 H   0  0  0  0  0  0  0  0  0  0  0  0
   61.0920   30.6060   48.7370 C   0  0  0  0  0  0  0  0  0  0  0  0
   60.1470   29.6450   48.7080 C   0  0  0  0  0  0  0  0  0  0  0  0
   59.2911   29.7499   49.3910 H   0  0  0  0  0  0  0  0  0  0  0  0
   60.1790   28.4360   47.8060 C   0  0  0  0  0  0  0  0  0  0  0  0
   61.0797   28.4912   47.1769 H   0  0  0  0  0  0  0  0  0  0  0  0
   60.1832   27.5441   48.4498 H   0  0  0  0  0  0  0  0  0  0  0  0
   58.9750   28.3410   46.9120 C   0  0  0  0  0  0  0  0  0  0  0  0
   57.9910   29.1080   47.0800 O   0  0  0  0  0  0  0  0  0  0  0  0
   59.0010   27.3760   45.8480 N   0  0  0  0  0  0  0  0  0  0  0  0
   58.2340   27.2430   44.7980 C   0  0  0  0  0  0  0  0  0  0  0  0
   57.6490   25.9230   44.3430 C   0  0  0  0  0  0  0  0  0  0  0  0
   56.8913   26.1126   43.5684 H   0  0  0  0  0  0  0  0  0  0  0  0
   58.4604   25.2983   43.9414 H   0  0  0  0  0  0  0  0  0  0  0  0
   57.0080   25.1980   45.4910 C   0  0  0  0  0  0  0  0  0  0  0  0
   55.8610   25.5660   46.1640 C   0  0  0  0  0  0  0  0  0  0  0  0
   55.1220   26.7150   45.9140 O   0  0  0  0  0  0  0  0  0  0  0  0
   55.5290   24.6680   47.1100 N   0  0  0  0  0  0  0  0  0  0  0  0
   56.4790   23.7130   47.0380 C   0  0  0  0  0  0  0  0  0  0  0  0
   56.5126   22.8199   47.6793 H   0  0  0  0  0  0  0  0  0  0  0  0
   57.4050   24.0030   46.0530 C   0  0  0  0  0  0  0  0  0  0  0  0
   58.2824   23.4012   45.7737 H   0  0  0  0  0  0  0  0  0  0  0  0
   57.9780   28.4810   43.9710 C   0  0  0  0  0  0  0  0  0  0  0  0
   58.8528   29.1433   44.0491 H   0  0  0  0  0  0  0  0  0  0  0  0
   57.8034   28.1573   42.9343 H   0  0  0  0  0  0  0  0  0  0  0  0
   56.7320   29.2560   44.4310 C   0  0  0  0  0  0  0  0  0  0  0  0
   55.9749   29.2146   43.6341 H   0  0  0  0  0  0  0  0  0  0  0  0
   56.3656   28.7874   45.3563 H   0  0  0  0  0  0  0  0  0  0  0  0
   57.0380   30.6950   44.7330 C   0  0  0  0  0  0  0  0  0  0  0  0
   56.1420   31.5630   44.5470 O   0  0  0  0  0  0  0  0  0  0  0  0
   58.3040   31.0500   45.3140 N   0  0  0  0  0  0  0  0  0  0  0  0
   58.9580   30.2700   45.5510 H   0  0  0  0  0  0  0  0  0  0  0  0
   58.6510   32.3640   45.7830 C   0  0  0  0  0  0  0  0  0  0  0  0
   58.8670   33.3890   44.8460 C   0  0  0  0  0  0  0  0  0  0  0  0
   58.7763   33.1737   43.7711 H   0  0  0  0  0  0  0  0  0  0  0  0
   59.1960   34.6790   45.2690 C   0  0  0  0  0  0  0  0  0  0  0  0
   59.3748   35.4720   44.5279 H   0  0  0  0  0  0  0  0  0  0  0  0
   59.2980   34.9620   46.6330 C   0  0  0  0  0  0  0  0  0  0  0  0
   59.5684   35.9751   46.9653 H   0  0  0  0  0  0  0  0  0  0  0  0
   59.0570   33.9600   47.5750 C   0  0  0  0  0  0  0  0  0  0  0  0
   59.1277   34.1876   48.6489 H   0  0  0  0  0  0  0  0  0  0  0  0
   58.7260   32.6680   47.1560 C   0  0  0  0  0  0  0  0  0  0  0  0
   58.5233   31.8855   47.9020 H   0  0  0  0  0  0  0  0  0  0  0  0
   61.6340   31.1560   50.0370 C   0  0  0  0  0  0  0  0  0  0  0  0
   61.1396   30.6543   50.8819 H   0  0  0  0  0  0  0  0  0  0  0  0
   62.7181   30.9765   50.0874 H   0  0  0  0  0  0  0  0  0  0  0  0
   61.4386   32.2373   50.0874 H   0  0  0  0  0  0  0  0  0  0  0  0
  1  2  1  0
  2  3  1  0
  2  4  2  0
  4  5  1  0
  4  6  1  0
  6  7  2  0
  7  8  1  0
  7  9  1  0
  9 10  1  0
  9 11  1  0
  9 12  1  0
 12 13  2  0
 12 14  1  0
 14 15  2  3
 15 16  1  0
 16 17  1  0
 16 18  1  0
 16 19  1  0
 19 20  2  0
 20 21  1  0
 20 22  1  0
 22 23  1  0
 23 24  1  0
 23 25  2  0
 25 26  1  0
 15 27  1  0
 27 28  1  0
 27 29  1  0
 27 30  1  0
 30 31  1  0
 30 32  1  0
 30 33  1  0
 33 34  2  0
 33 35  1  0
 35 36  1  0
 35 37  1  0
 37 38  2  0
 38 39  1  0
 38 40  1  0
 40 41  1  0
 40 42  2  0
 42 43  1  0
 42 44  1  0
 44 45  1  0
 44 46  2  0
 46 47  1  0
  6 48  1  0
 48 49  1  0
 48 50  1  0
 48 51  1  0
 25 19  1  0
 46 37  1  0
M  CHG  2  21  -1  22  -1
M  END
>  <UniqueID>  (19) 
17

>  <SMILES>  (19) 
C=C/C(C)=C/CC(=O)N=C(CCC(=O)Nc1ccccc1)Cc1cc[n-]c1[O-]

>  <Energy>  (19) 
74.2883652642735

>  <Genealogy>  (19) 
C=CC(C)=CCC(=O)N=C(CCC(=O)Nc1ccccc1)Cc1cc[n-]c1[O-] (protonated)
C=C/C(C)=C/CC(=O)N=C(CCC(=O)Nc1ccccc1)Cc1cc[n-]c1[O-] (cis-trans isomerization)
C=C/C(C)=C/CC(=O)N=C(CCC(=O)Nc1ccccc1)Cc1cc[n-]c1[O-] (3D coordinates assigned)
C=C/C(C)=C/CC(=O)N=C(CCC(=O)Nc1ccccc1)Cc1cc[n-]c1[O-] (optimized conformer: 74.2883652642735 kcal/mol)

>  <smiles>  (19) 
C=CC(C)=CCC(=O)N=C(CCC(=O)Nc1ccccc1)Cc1cc[nH]c1O

>  <score_type>  (19) 
oracle

>  <origin>  (19) 
adg

>  <m_score__min__energy>  (19) 
-14.119999999999999

>  <m_primary>  (19) 
energy

$$$$
19:0
     RDKit          3D

 59 63  0  0  0  0  0  0  0  0999 V2000
   56.8422   23.3350   45.8909 H   0  0  0  0  0  0  0  0  0  0  0  0
   56.9660   24.4100   45.6930 C   0  0  0  0  0  0  0  0  0  0  0  0
   56.4780   25.3490   46.6060 C   0  0  0  0  0  0  0  0  0  0  0  0
   55.9670   25.0126   47.5202 H   0  0  0  0  0  0  0  0  0  0  0  0
   56.6390   26.7170   46.3580 C   0  0  0  0  0  0  0  0  0  0  0  0
   56.2505   27.4523   47.0780 H   0  0  0  0  0  0  0  0  0  0  0  0
   57.2950   27.1580   45.1930 C   0  0  0  0  0  0  0  0  0  0  0  0
   57.4550   28.6110   44.9260 C   0  0  0  0  0  0  0  0  0  0  0  0
   58.7350   29.1680   44.8010 C   0  0  0  0  0  0  0  0  0  0  0  0
   59.6219   28.5227   44.8841 H   0  0  0  0  0  0  0  0  0  0  0  0
   58.8880   30.4990   44.5780 N   0  0  0  0  0  0  0  0  0  0  0  0
   59.8560   30.8770   44.5490 H   0  0  0  0  0  0  0  0  0  0  0  0
   57.8050   31.3220   44.4560 C   0  0  0  0  0  0  0  0  0  0  0  0
   57.9300   32.6040   44.2560 N   0  0  0  0  0  0  0  0  0  0  0  0
   57.8870   33.6360   45.2500 C   0  0  0  0  0  0  0  0  0  0  0  0
   56.7990   34.2470   45.4350 O   0  0  0  0  0  0  0  0  0  0  0  0
   59.1710   34.1120   45.9000 C   0  0  1  0  0  0  0  0  0  0  0  0
   59.7175   34.0964   44.9455 H   0  0  0  0  0  0  0  0  0  0  0  0
   58.9770   35.0650   47.0830 C   0  0  0  0  0  0  0  0  0  0  0  0
   59.6223   35.9498   47.1863 H   0  0  0  0  0  0  0  0  0  0  0  0
   58.1277   35.6347   47.4881 H   0  0  0  0  0  0  0  0  0  0  0  0
   59.5520   33.6690   47.3260 C   0  0  2  0  0  0  0  0  0  0  0  0
   61.0390   33.6120   47.5890 C   0  0  0  0  0  0  0  0  0  0  0  0
   61.5340   33.5580   48.9050 C   0  0  0  0  0  0  0  0  0  0  0  0
   60.8351   33.5764   49.7542 H   0  0  0  0  0  0  0  0  0  0  0  0
   62.9110   33.4810   49.1380 C   0  0  0  0  0  0  0  0  0  0  0  0
   63.2926   33.4534   50.1693 H   0  0  0  0  0  0  0  0  0  0  0  0
   63.8030   33.4390   48.0630 C   0  0  0  0  0  0  0  0  0  0  0  0
   64.8857   33.3800   48.2483 H   0  0  0  0  0  0  0  0  0  0  0  0
   63.3190   33.4720   46.7530 C   0  0  0  0  0  0  0  0  0  0  0  0
   64.0212   33.4342   45.9071 H   0  0  0  0  0  0  0  0  0  0  0  0
   61.9430   33.5530   46.5150 C   0  0  0  0  0  0  0  0  0  0  0  0
   61.5666   33.5706   45.4815 H   0  0  0  0  0  0  0  0  0  0  0  0
   58.6500   32.6720   48.0880 C   0  0  0  0  0  0  0  0  0  0  0  0
   58.9007   32.7105   49.1584 H   0  0  0  0  0  0  0  0  0  0  0  0
   57.6017   32.9589   47.9184 H   0  0  0  0  0  0  0  0  0  0  0  0
   58.8410   31.2330   47.5830 C   0  0  0  0  0  0  0  0  0  0  0  0
   57.8629   30.7321   47.5336 H   0  0  0  0  0  0  0  0  0  0  0  0
   59.2988   31.2604   46.5832 H   0  0  0  0  0  0  0  0  0  0  0  0
   59.7290   30.4840   48.5020 N   0  0  0  0  0  0  0  0  0  0  0  0
   60.8390   29.8480   47.7740 C   0  0  0  0  0  0  0  0  0  0  0  0
   61.1091   30.4556   46.8977 H   0  0  0  0  0  0  0  0  0  0  0  0
   61.7243   29.7614   48.4211 H   0  0  0  0  0  0  0  0  0  0  0  0
   60.3710   28.4730   47.3260 C   0  0  0  0  0  0  0  0  0  0  0  0
   60.0354   28.5018   46.2788 H   0  0  0  0  0  0  0  0  0  0  0  0
   61.1768   27.7262   47.3798 H   0  0  0  0  0  0  0  0  0  0  0  0
   59.2140   28.1280   48.2470 C   0  0  0  0  0  0  0  0  0  0  0  0
   58.3051   27.9225   47.6624 H   0  0  0  0  0  0  0  0  0  0  0  0
   59.4212   27.2273   48.8436 H   0  0  0  0  0  0  0  0  0  0  0  0
   59.0150   29.3580   49.1280 C   0  0  0  0  0  0  0  0  0  0  0  0
   57.9431   29.5923   49.2060 H   0  0  0  0  0  0  0  0  0  0  0  0
   59.4052   29.1719   50.1395 H   0  0  0  0  0  0  0  0  0  0  0  0
   56.5570   30.8030   44.5820 N   0  0  0  0  0  0  0  0  0  0  0  0
   56.3540   29.4790   44.8030 C   0  0  0  0  0  0  0  0  0  0  0  0
   55.1740   29.0420   44.8770 O   0  0  0  0  0  0  0  0  0  0  0  0
   57.7730   26.2030   44.2770 C   0  0  0  0  0  0  0  0  0  0  0  0
   58.2773   26.5330   43.3568 H   0  0  0  0  0  0  0  0  0  0  0  0
   57.6110   24.8360   44.5290 C   0  0  0  0  0  0  0  0  0  0  0  0
   57.9919   24.0959   43.8098 H   0  0  0  0  0  0  0  0  0  0  0  0
  1  2  1  0
  2  3  2  0
  3  4  1  0
  3  5  1  0
  5  6  1  0
  5  7  2  0
  7  8  1  0
  8  9  2  0
  9 10  1  0
  9 11  1  0
 11 12  1  0
 11 13  1  0
 13 14  2  0
 14 15  1  0
 15 16  2  0
 15 17  1  0
 17 18  1  6
 17 19  1  0
 19 20  1  0
 19 21  1  0
 19 22  1  0
 22 23  1  0
 23 24  2  0
 24 25  1  0
 24 26  1  0
 26 27  1  0
 26 28  2  0
 28 29  1  0
 28 30  1  0
 30 31  1  0
 30 32  2  0
 32 33  1  0
 22 34  1  1
 34 35  1  0
 34 36  1  0
 34 37  1  0
 37 38  1  0
 37 39  1  0
 37 40  1  0
 40 41  1  0
 41 42  1  0
 41 43  1  0
 41 44  1  0
 44 45  1  0
 44 46  1  0
 44 47  1  0
 47 48  1  0
 47 49  1  0
 47 50  1  0
 50 51  1  0
 50 52  1  0
 13 53  1  0
 53 54  1  0
 54 55  2  0
  7 56  1  0
 56 57  1  0
 56 58  2  0
 58 59  1  0
 58  2  1  0
 54  8  1  0
 22 17  1  0
 32 23  1  0
 50 40  1  0
M  CHG  1  53  -1
M  END
>  <UniqueID>  (20) 
18

>  <SMILES>  (20) 
O=C(/N=c1/[n-]c(=O)c(-c2ccccc2)c[nH]1)[C@H]1C[C@]1(CCN1CCCC1)c1ccccc1

>  <Energy>  (20) 
351.2538793035812

>  <Genealogy>  (20) 
O=C(N=c1[n-]c(=O)c(-c2ccccc2)c[nH]1)C1CC1(CCN1CCCC1)c1ccccc1 (protonated)
O=C(N=c1[n-]c(=O)c(-c2ccccc2)c[nH]1)[C@H]1C[C@]1(CCN1CCCC1)c1ccccc1 (chirality)
O=C(/N=c1/[n-]c(=O)c(-c2ccccc2)c[nH]1)[C@H]1C[C@]1(CCN1CCCC1)c1ccccc1 (cis-trans isomerization)
O=C(/N=c1/[n-]c(=O)c(-c2ccccc2)c[nH]1)[C@H]1C[C@]1(CCN1CCCC1)c1ccccc1 (3D coordinates assigned)
O=C(/N=c1/[n-]c(=O)c(-c2ccccc2)c[nH]1)[C@H]1C[C@]1(CCN1CCCC1)c1ccccc1 (nonaromatic ring conformer: 351.2538793035812 kcal/mol)

>  <smiles>  (20) 
O=C(N=c1[nH]cc(-c2ccccc2)c(=O)[nH]1)C1CC1(CCN1CCCC1)c1ccccc1

>  <score_type>  (20) 
oracle

>  <origin>  (20) 
adg

>  <m_score__min__energy>  (20) 
-11.42

>  <m_primary>  (20) 
energy

$$$$
20:0
     RDKit          3D

 66 70  0  0  0  0  0  0  0  0999 V2000
   61.8826   33.0889   53.5623 H   0  0  0  0  0  0  0  0  0  0  0  0
   61.0130   33.0690   52.8890 C   0  0  0  0  0  0  0  0  0  0  0  0
   60.0371   32.7237   53.2611 H   0  0  0  0  0  0  0  0  0  0  0  0
   61.1420   33.4640   51.6200 C   0  0  0  0  0  0  0  0  0  0  0  0
   59.8590   33.4620   50.5310 S   0  0  0  0  0  0  0  0  0  0  0  0
   60.7670   34.0700   49.2560 C   0  0  0  0  0  0  0  0  0  0  0  0
   60.2730   34.2790   48.0260 C   0  0  0  0  0  0  0  0  0  0  0  0
   60.3375   35.2936   47.6059 H   0  0  0  0  0  0  0  0  0  0  0  0
   59.6500   33.2270   47.2080 C   0  0  0  0  0  0  0  0  0  0  0  0
   59.5610   31.9110   47.6900 C   0  0  0  0  0  0  0  0  0  0  0  0
   59.9617   31.6607   48.6834 H   0  0  0  0  0  0  0  0  0  0  0  0
   58.9630   30.9190   46.9070 C   0  0  0  0  0  0  0  0  0  0  0  0
   58.8859   29.8905   47.2893 H   0  0  0  0  0  0  0  0  0  0  0  0
   58.4610   31.2320   45.6350 C   0  0  0  0  0  0  0  0  0  0  0  0
   57.8000   30.1940   44.8230 C   0  0  0  0  0  0  0  0  0  0  0  0
   56.5440   30.1100   44.8900 O   0  0  0  0  0  0  0  0  0  0  0  0
   58.5350   29.2360   44.0150 N   0  0  0  0  0  0  0  0  0  0  0  0
   58.6600   29.6970   43.0820 H   0  0  0  0  0  0  0  0  0  0  0  0
   59.9110   28.9790   44.5070 C   0  0  0  0  0  0  0  0  0  0  0  0
   60.5027   28.5648   43.6774 H   0  0  0  0  0  0  0  0  0  0  0  0
   60.3028   29.9407   44.8698 H   0  0  0  0  0  0  0  0  0  0  0  0
   59.9830   27.9900   45.6970 C   0  0  0  0  0  0  0  0  0  0  0  0
   60.7814   27.2593   45.5007 H   0  0  0  0  0  0  0  0  0  0  0  0
   60.1852   28.5750   46.6064 H   0  0  0  0  0  0  0  0  0  0  0  0
   58.7150   27.2620   45.9040 N   0  0  0  0  0  0  0  0  0  0  0  0
   58.9160   26.1310   46.8210 C   0  0  0  0  0  0  0  0  0  0  0  0
   58.8529   26.4859   47.8603 H   0  0  0  0  0  0  0  0  0  0  0  0
   58.1385   25.3732   46.6445 H   0  0  0  0  0  0  0  0  0  0  0  0
   59.9070   25.6875   46.6445 H   0  0  0  0  0  0  0  0  0  0  0  0
   58.1880   26.7960   44.6140 C   0  0  0  0  0  0  0  0  0  0  0  0
   58.9727   26.2417   44.0782 H   0  0  0  0  0  0  0  0  0  0  0  0
   57.3240   26.1388   44.7918 H   0  0  0  0  0  0  0  0  0  0  0  0
   57.7430   27.9990   43.7650 C   0  0  0  0  0  0  0  0  0  0  0  0
   57.8444   27.7307   42.7030 H   0  0  0  0  0  0  0  0  0  0  0  0
   56.7028   28.2220   44.0449 H   0  0  0  0  0  0  0  0  0  0  0  0
   58.5460   32.5480   45.1590 C   0  0  0  0  0  0  0  0  0  0  0  0
   58.1337   32.8018   44.1713 H   0  0  0  0  0  0  0  0  0  0  0  0
   59.1530   33.5380   45.9360 C   0  0  0  0  0  0  0  0  0  0  0  0
   59.2407   34.5636   45.5480 H   0  0  0  0  0  0  0  0  0  0  0  0
   62.0770   34.2550   49.7190 C   0  0  0  0  0  0  0  0  0  0  0  0
   63.0110   34.6770   48.9840 O   0  0  0  0  0  0  0  0  0  0  0  0
   62.2870   33.9210   51.0320 N   0  0  0  0  0  0  0  0  0  0  0  0
   63.6220   33.9580   51.6540 C   0  0  0  0  0  0  0  0  0  0  0  0
   64.2271   34.7382   51.1691 H   0  0  0  0  0  0  0  0  0  0  0  0
   63.5122   34.1793   52.7259 H   0  0  0  0  0  0  0  0  0  0  0  0
   64.3090   32.6240   51.4950 C   0  0  0  0  0  0  0  0  0  0  0  0
   65.6460   32.5570   51.0750 C   0  0  0  0  0  0  0  0  0  0  0  0
   66.1832   33.4807   50.8139 H   0  0  0  0  0  0  0  0  0  0  0  0
   66.3000   31.3260   50.9860 C   0  0  0  0  0  0  0  0  0  0  0  0
   67.3475   31.2885   50.6523 H   0  0  0  0  0  0  0  0  0  0  0  0
   65.6320   30.1340   51.3190 C   0  0  0  0  0  0  0  0  0  0  0  0
   66.3360   28.8270   51.2450 C   0  0  0  0  0  0  0  0  0  0  0  0
   67.5650   28.7110   50.5650 C   0  0  0  0  0  0  0  0  0  0  0  0
   68.0168   29.5985   50.0980 H   0  0  0  0  0  0  0  0  0  0  0  0
   68.2140   27.4750   50.4800 C   0  0  0  0  0  0  0  0  0  0  0  0
   69.1736   27.3942   49.9483 H   0  0  0  0  0  0  0  0  0  0  0  0
   67.6460   26.3430   51.0690 C   0  0  0  0  0  0  0  0  0  0  0  0
   68.1566   25.3712   50.9990 H   0  0  0  0  0  0  0  0  0  0  0  0
   66.4290   26.4460   51.7470 C   0  0  0  0  0  0  0  0  0  0  0  0
   65.9832   25.5541   52.2116 H   0  0  0  0  0  0  0  0  0  0  0  0
   65.7760   27.6780   51.8370 C   0  0  0  0  0  0  0  0  0  0  0  0
   64.8185   27.7511   52.3736 H   0  0  0  0  0  0  0  0  0  0  0  0
   64.2910   30.2050   51.7370 C   0  0  0  0  0  0  0  0  0  0  0  0
   63.7514   29.2822   51.9962 H   0  0  0  0  0  0  0  0  0  0  0  0
   63.6380   31.4370   51.8260 C   0  0  0  0  0  0  0  0  0  0  0  0
   62.5901   31.4767   52.1580 H   0  0  0  0  0  0  0  0  0  0  0  0
  1  2  1  0
  2  3  1  0
  2  4  2  0
  4  5  1  0
  5  6  1  0
  6  7  2  0
  7  8  1  0
  7  9  1  0
  9 10  2  0
 10 11  1  0
 10 12  1  0
 12 13  1  0
 12 14  2  0
 14 15  1  0
 15 16  2  0
 15 17  1  0
 17 18  1  0
 17 19  1  0
 19 20  1  0
 19 21  1  0
 19 22  1  0
 22 23  1  0
 22 24  1  0
 22 25  1  0
 25 26  1  0
 26 27  1  0
 26 28  1  0
 26 29  1  0
 25 30  1  0
 30 31  1  0
 30 32  1  0
 30 33  1  0
 33 34  1  0
 33 35  1  0
 14 36  1  0
 36 37  1  0
 36 38  2  0
 38 39  1  0
  6 40  1  0
 40 41  2  0
 40 42  1  0
 42 43  1  0
 43 44  1  0
 43 45  1  0
 43 46  1  0
 46 47  2  0
 47 48  1  0
 47 49  1  0
 49 50  1  0
 49 51  2  0
 51 52  1  0
 52 53  2  0
 53 54  1  0
 53 55  1  0
 55 56  1  0
 55 57  2  0
 57 58  1  0
 57 59  1  0
 59 60  1  0
 59 61  2  0
 61 62  1  0
 51 63  1  0
 63 64  1  0
 63 65  2  0
 65 66  1  0
 42  4  1  0
 65 46  1  0
 38  9  1  0
 61 52  1  0
 33 17  1  0
M  CHG  1  17   1
M  END
>  <UniqueID>  (21) 
19

>  <SMILES>  (21) 
C=c1s/c(=C/c2ccc(C(=O)[NH+]3CCN(C)CC3)cc2)c(=O)n1Cc1ccc(-c2ccccc2)cc1

>  <Energy>  (21) 
138.14948473484907

>  <Genealogy>  (21) 
C=c1sc(=Cc2ccc(C(=O)[NH+]3CCN(C)CC3)cc2)c(=O)n1Cc1ccc(-c2ccccc2)cc1 (protonated)
C=c1s/c(=C/c2ccc(C(=O)[NH+]3CCN(C)CC3)cc2)c(=O)n1Cc1ccc(-c2ccccc2)cc1 (cis-trans isomerization)
C=c1s/c(=C/c2ccc(C(=O)[NH+]3CCN(C)CC3)cc2)c(=O)n1Cc1ccc(-c2ccccc2)cc1 (3D coordinates assigned)
C=c1s/c(=C/c2ccc(C(=O)[NH+]3CCN(C)CC3)cc2)c(=O)n1Cc1ccc(-c2ccccc2)cc1 (nonaromatic ring conformer: 138.14948473484907 kcal/mol)

>  <smiles>  (21) 
C=c1sc(=Cc2ccc(C(=O)N3CCN(C)CC3)cc2)c(=O)n1Cc1ccc(-c2ccccc2)cc1

>  <score_type>  (21) 
oracle

>  <origin>  (21) 
adg

>  <m_score__min__energy>  (21) 
-8.9399999999999995

>  <m_primary>  (21) 
energy

$$$$
21:0
     RDKit          3D

 77 82  0  0  0  0  0  0  0  0999 V2000
   58.2867   31.3493   48.1472 H   0  0  0  0  0  0  0  0  0  0  0  0
   58.1020   31.0430   47.1070 C   0  0  0  0  0  0  0  0  0  0  0  0
   57.8273   30.0022   46.8807 H   0  0  0  0  0  0  0  0  0  0  0  0
   58.2120   31.9400   46.1130 C   0  0  0  0  0  0  0  0  0  0  0  0
   58.0070   31.6930   44.7480 C   0  0  0  0  0  0  0  0  0  0  0  0
   57.6900   30.5120   44.1750 C   0  0  0  0  0  0  0  0  0  0  0  0
   57.4534   30.5191   43.1008 H   0  0  0  0  0  0  0  0  0  0  0  0
   57.6350   29.2100   44.8740 C   0  0  0  0  0  0  0  0  0  0  0  0
   58.7020   28.4960   45.2960 N   0  0  0  0  0  0  0  0  0  0  0  0
   58.1560   27.3820   45.8320 C   0  0  0  0  0  0  0  0  0  0  0  0
   58.8460   26.4670   46.3570 O   0  0  0  0  0  0  0  0  0  0  0  0
   56.8110   27.3450   45.7480 N   0  0  0  0  0  0  0  0  0  0  0  0
   55.9070   26.3400   46.2980 C   0  0  0  0  0  0  0  0  0  0  0  0
   55.9413   26.3781   47.3968 H   0  0  0  0  0  0  0  0  0  0  0  0
   54.8814   26.5428   45.9559 H   0  0  0  0  0  0  0  0  0  0  0  0
   56.2169   25.3416   45.9559 H   0  0  0  0  0  0  0  0  0  0  0  0
   56.4840   28.5030   45.1510 C   0  0  0  0  0  0  0  0  0  0  0  0
   55.1840   28.9080   44.8750 O   0  0  0  0  0  0  0  0  0  0  0  0
   58.2400   32.9010   44.1020 C   0  0  0  0  0  0  0  0  0  0  0  0
   58.1787   33.0879   43.0197 H   0  0  0  0  0  0  0  0  0  0  0  0
   58.5630   33.8210   45.0780 C   0  0  0  0  0  0  0  0  0  0  0  0
   58.9480   35.2440   44.8030 C   0  0  0  0  0  0  0  0  0  0  0  0
   59.0918   35.7755   45.7553 H   0  0  0  0  0  0  0  0  0  0  0  0
   59.8843   35.2656   44.2260 H   0  0  0  0  0  0  0  0  0  0  0  0
   58.1503   35.7347   44.2260 H   0  0  0  0  0  0  0  0  0  0  0  0
   58.5530   33.2420   46.3010 N   0  0  0  0  0  0  0  0  0  0  0  0
   58.8600   33.9050   47.5780 C   0  0  0  0  0  0  0  0  0  0  0  0
   59.1151   34.9573   47.3841 H   0  0  0  0  0  0  0  0  0  0  0  0
   57.9762   33.8348   48.2291 H   0  0  0  0  0  0  0  0  0  0  0  0
   60.0200   33.2370   48.2720 C   0  0  0  0  0  0  0  0  0  0  0  0
   59.8030   32.3670   49.3490 C   0  0  0  0  0  0  0  0  0  0  0  0
   58.7756   32.1476   49.6750 H   0  0  0  0  0  0  0  0  0  0  0  0
   60.8820   31.7760   50.0120 C   0  0  0  0  0  0  0  0  0  0  0  0
   60.6940   31.0891   50.8504 H   0  0  0  0  0  0  0  0  0  0  0  0
   62.2080   32.0490   49.6200 C   0  0  0  0  0  0  0  0  0  0  0  0
   63.3310   31.4540   50.3220 N   0  0  0  0  0  0  0  0  0  0  0  0
   63.1680   30.0880   50.8690 C   0  0  0  0  0  0  0  0  0  0  0  0
   62.2552   30.0857   51.4828 H   0  0  0  0  0  0  0  0  0  0  0  0
   63.1426   29.4335   49.9852 H   0  0  0  0  0  0  0  0  0  0  0  0
   64.3160   29.5260   51.7430 C   0  0  0  0  0  0  0  0  0  0  0  0
   63.9424   28.6061   52.2165 H   0  0  0  0  0  0  0  0  0  0  0  0
   65.1535   29.4053   51.0402 H   0  0  0  0  0  0  0  0  0  0  0  0
   64.8970   30.4210   52.8750 C   0  0  1  0  0  0  0  0  0  0  0  0
   65.3587   29.6867   53.5515 H   0  0  0  0  0  0  0  0  0  0  0  0
   65.8470   31.4140   52.3910 N   0  0  0  0  0  0  0  0  0  0  0  0
   67.3550   30.9520   51.6290 S   0  0  0  0  0  0  0  0  0  0  0  0
   67.1900   30.6150   50.1750 O   0  0  0  0  0  0  0  0  0  0  0  0
   68.3330   32.0890   51.7460 O   0  0  0  0  0  0  0  0  0  0  0  0
   68.0240   29.5330   52.4800 C   0  0  0  0  0  0  0  0  0  0  0  0
   69.1204   29.6145   52.5160 H   0  0  0  0  0  0  0  0  0  0  0  0
   67.6160   29.5016   53.5011 H   0  0  0  0  0  0  0  0  0  0  0  0
   67.6430   28.2680   51.7600 C   0  0  0  0  0  0  0  0  0  0  0  0
   66.6320   27.4400   52.2760 C   0  0  0  0  0  0  0  0  0  0  0  0
   66.1467   27.6972   53.2290 H   0  0  0  0  0  0  0  0  0  0  0  0
   66.2400   26.2900   51.5830 C   0  0  0  0  0  0  0  0  0  0  0  0
   65.4520   25.6419   51.9942 H   0  0  0  0  0  0  0  0  0  0  0  0
   66.8500   25.9640   50.3670 C   0  0  0  0  0  0  0  0  0  0  0  0
   66.5407   25.0602   49.8216 H   0  0  0  0  0  0  0  0  0  0  0  0
   67.8520   26.7860   49.8450 C   0  0  0  0  0  0  0  0  0  0  0  0
   68.3301   26.5290   48.8883 H   0  0  0  0  0  0  0  0  0  0  0  0
   68.2480   27.9350   50.5370 C   0  0  0  0  0  0  0  0  0  0  0  0
   69.0362   28.5803   50.1219 H   0  0  0  0  0  0  0  0  0  0  0  0
   65.0670   32.5060   51.8420 C   0  0  1  0  0  0  0  0  0  0  0  0
   65.6261   33.4470   51.7325 H   0  0  0  0  0  0  0  0  0  0  0  0
   64.6020   32.1980   50.3920 C   0  0  0  0  0  0  0  0  0  0  0  0
   64.4761   33.1514   49.8579 H   0  0  0  0  0  0  0  0  0  0  0  0
   65.3733   31.5598   49.9361 H   0  0  0  0  0  0  0  0  0  0  0  0
   63.9110   32.6450   52.8510 C   0  0  0  0  0  0  0  0  0  0  0  0
   62.9683   32.8680   52.3298 H   0  0  0  0  0  0  0  0  0  0  0  0
   64.0814   33.4668   53.5620 H   0  0  0  0  0  0  0  0  0  0  0  0
   63.8280   31.2800   53.5570 C   0  0  0  0  0  0  0  0  0  0  0  0
   62.8308   30.8351   53.4243 H   0  0  0  0  0  0  0  0  0  0  0  0
   63.9917   31.3629   54.6416 H   0  0  0  0  0  0  0  0  0  0  0  0
   62.4160   32.9270   48.5380 C   0  0  0  0  0  0  0  0  0  0  0  0
   63.4417   33.1513   48.2098 H   0  0  0  0  0  0  0  0  0  0  0  0
   61.3360   33.5160   47.8770 C   0  0  0  0  0  0  0  0  0  0  0  0
   61.5194   34.2048   47.0392 H   0  0  0  0  0  0  0  0  0  0  0  0
  1  2  1  0
  2  3  1  0
  2  4  2  0
  4  5  1  0
  5  6  2  0
  6  7  1  0
  6  8  1  0
  8  9  1  0
  9 10  1  0
 10 11  2  0
 10 12  1  0
 12 13  1  0
 13 14  1  0
 13 15  1  0
 13 16  1  0
 12 17  1  0
 17 18  1  0
  5 19  1  0
 19 20  1  0
 19 21  2  0
 21 22  1  0
 22 23  1  0
 22 24  1  0
 22 25  1  0
 21 26  1  0
 26 27  1  0
 27 28  1  0
 27 29  1  0
 27 30  1  0
 30 31  2  0
 31 32  1  0
 31 33  1  0
 33 34  1  0
 33 35  2  0
 35 36  1  0
 36 37  1  0
 37 38  1  0
 37 39  1  0
 37 40  1  0
 40 41  1  0
 40 42  1  0
 40 43  1  0
 43 44  1  1
 43 45  1  0
 45 46  1  0
 46 47  2  0
 46 48  2  0
 46 49  1  0
 49 50  1  0
 49 51  1  0
 49 52  1  0
 52 53  2  0
 53 54  1  0
 53 55  1  0
 55 56  1  0
 55 57  2  0
 57 58  1  0
 57 59  1  0
 59 60  1  0
 59 61  2  0
 61 62  1  0
 45 63  1  0
 63 64  1  6
 63 65  1  0
 65 66  1  0
 65 67  1  0
 63 68  1  0
 68 69  1  0
 68 70  1  0
 68 71  1  0
 71 72  1  0
 71 73  1  0
 35 74  1  0
 74 75  1  0
 74 76  2  0
 76 77  1  0
 26  4  1  0
 76 30  1  0
 17  8  2  0
 65 36  1  0
 71 43  1  0
 61 52  1  0
M  CHG  2   9  -1  18  -1
M  END
>  <UniqueID>  (22) 
20

>  <SMILES>  (22) 
C=c1/c(=C/c2[n-]c(=O)n(C)c2[O-])cc(C)n1Cc1ccc(N2CC[C@@H]3CC[C@H](C2)N3S(=O)(=O)Cc2ccccc2)cc1

>  <Energy>  (22) 
175.78296971827703

>  <Genealogy>  (22) 
C=c1c(=Cc2[n-]c(=O)n(C)c2[O-])cc(C)n1Cc1ccc(N2CCC3CCC(C2)N3S(=O)(=O)Cc2ccccc2)cc1 (protonated)
C=c1c(=Cc2[n-]c(=O)n(C)c2[O-])cc(C)n1Cc1ccc(N2CC[C@@H]3CC[C@H](C2)N3S(=O)(=O)Cc2ccccc2)cc1 (chirality)
C=c1/c(=C/c2[n-]c(=O)n(C)c2[O-])cc(C)n1Cc1ccc(N2CC[C@@H]3CC[C@H](C2)N3S(=O)(=O)Cc2ccccc2)cc1 (cis-trans isomerization)
C=c1/c(=C/c2[n-]c(=O)n(C)c2[O-])cc(C)n1Cc1ccc(N2CC[C@@H]3CC[C@H](C2)N3S(=O)(=O)Cc2ccccc2)cc1 (3D coordinates assigned)
C=c1/c(=C/c2[n-]c(=O)n(C)c2[O-])cc(C)n1Cc1ccc(N2CC[C@@H]3CC[C@H](C2)N3S(=O)(=O)Cc2ccccc2)cc1 (nonaromatic ring conformer: 175.78296971827703 kcal/mol)

>  <smiles>  (22) 
C=c1c(=Cc2[nH]c(=O)n(C)c2O)cc(C)n1Cc1ccc(N2CCC3CCC(C2)N3S(=O)(=O)Cc2ccccc2)cc1

>  <score_type>  (22) 
oracle

>  <origin>  (22) 
adg

>  <m_score__min__energy>  (22) 
-16.760000000000002

>  <m_primary>  (22) 
energy

$$$$
22:0
     RDKit          3D

 48 51  0  0  0  0  0  0  0  0999 V2000
   58.2190   25.7920   47.5020 C   0  0  0  0  0  0  0  0  0  0  0  0
   58.0360   26.6810   46.5220 C   0  0  0  0  0  0  0  0  0  0  0  0
   58.2790   27.9600   46.6980 O   0  0  0  0  0  0  0  0  0  0  0  0
   57.9590   28.6180   45.6100 C   0  0  0  0  0  0  0  0  0  0  0  0
   58.0820   30.0820   45.4330 C   0  0  0  0  0  0  0  0  0  0  0  0
   57.9480   30.5510   44.2700 O   0  0  0  0  0  0  0  0  0  0  0  0
   58.3530   30.9790   46.5380 N   0  0  0  0  0  0  0  0  0  0  0  0
   58.9130   30.4740   47.8060 C   0  0  0  0  0  0  0  0  0  0  0  0
   59.4070   31.6150   48.7040 C   0  0  0  0  0  0  0  0  0  0  0  0
   60.1240   32.6090   47.8940 N   0  0  0  0  0  0  0  0  0  0  0  0
   61.4750   32.9930   48.2180 C   0  0  0  0  0  0  0  0  0  0  0  0
   62.5130   32.7940   47.2900 C   0  0  0  0  0  0  0  0  0  0  0  0
   63.8210   33.1810   47.5990 C   0  0  0  0  0  0  0  0  0  0  0  0
   64.1030   33.7720   48.8340 C   0  0  0  0  0  0  0  0  0  0  0  0
   63.0780   33.9790   49.7590 C   0  0  0  0  0  0  0  0  0  0  0  0
   61.7680   33.5940   49.4540 C   0  0  0  0  0  0  0  0  0  0  0  0
   59.4780   33.1620   46.6930 C   0  0  0  0  0  0  0  0  0  0  0  0
   58.1670   32.4310   46.3770 C   0  0  0  0  0  0  0  0  0  0  0  0
   57.4750   27.7390   44.6590 C   0  0  0  0  0  0  0  0  0  0  0  0
   57.5440   26.4780   45.2250 C   0  0  0  0  0  0  0  0  0  0  0  0
   57.1920   25.3550   44.5700 C   0  0  0  0  0  0  0  0  0  0  0  0
   55.9870   24.5510   44.8460 C   0  0  0  0  0  0  0  0  0  0  0  0
   54.9470   25.0780   45.6250 C   0  0  0  0  0  0  0  0  0  0  0  0
   55.0620   26.3460   46.1900 O   0  0  0  0  0  0  0  0  0  0  0  0
   53.8220   24.3450   45.8360 N   0  0  0  0  0  0  0  0  0  0  0  0
   53.6770   23.1090   45.2930 C   0  0  0  0  0  0  0  0  0  0  0  0
   52.6290   22.4480   45.5060 O   0  0  0  0  0  0  0  0  0  0  0  0
   54.6620   22.5880   44.5160 N   0  0  0  0  0  0  0  0  0  0  0  0
   55.8040   23.2800   44.2730 C   0  0  0  0  0  0  0  0  0  0  0  0
   56.6900   22.7750   43.5330 O   0  0  0  0  0  0  0  0  0  0  0  0
   58.0071   24.7272   47.3253 H   0  0  0  0  0  0  0  0  0  0  0  0
   58.5817   26.1247   48.4858 H   0  0  0  0  0  0  0  0  0  0  0  0
   58.1333   29.9118   48.3409 H   0  0  0  0  0  0  0  0  0  0  0  0
   59.7719   29.8293   47.5681 H   0  0  0  0  0  0  0  0  0  0  0  0
   58.5460   32.0943   49.1928 H   0  0  0  0  0  0  0  0  0  0  0  0
   60.0869   31.2089   49.4674 H   0  0  0  0  0  0  0  0  0  0  0  0
   62.2949   32.3315   46.3161 H   0  0  0  0  0  0  0  0  0  0  0  0
   64.6285   33.0202   46.8696 H   0  0  0  0  0  0  0  0  0  0  0  0
   65.1324   34.0739   49.0770 H   0  0  0  0  0  0  0  0  0  0  0  0
   63.3009   34.4458   50.7298 H   0  0  0  0  0  0  0  0  0  0  0  0
   60.9636   33.7625   50.1851 H   0  0  0  0  0  0  0  0  0  0  0  0
   59.2624   34.2275   46.8609 H   0  0  0  0  0  0  0  0  0  0  0  0
   60.1614   33.0321   45.8409 H   0  0  0  0  0  0  0  0  0  0  0  0
   57.3813   32.7768   47.0648 H   0  0  0  0  0  0  0  0  0  0  0  0
   57.8727   32.6462   45.3392 H   0  0  0  0  0  0  0  0  0  0  0  0
   57.1082   27.9915   43.6532 H   0  0  0  0  0  0  0  0  0  0  0  0
   57.8568   25.0098   43.7644 H   0  0  0  0  0  0  0  0  0  0  0  0
   54.3310   26.7180   46.7850 H   0  0  0  0  0  0  0  0  0  0  0  0
  1  2  2  0
  2  3  1  0
  3  4  1  0
  4  5  1  0
  5  6  2  0
  5  7  1  0
  7  8  1  0
  8  9  1  0
  9 10  1  0
 10 11  1  0
 11 12  2  0
 12 13  1  0
 13 14  2  0
 14 15  1  0
 15 16  2  0
 10 17  1  0
 17 18  1  0
  4 19  2  0
 19 20  1  0
 20 21  2  3
 21 22  1  0
 22 23  2  0
 23 24  1  0
 23 25  1  0
 25 26  1  0
 26 27  2  0
 26 28  1  0
 28 29  1  0
 29 30  2  0
 20  2  1  0
 29 22  1  0
 18  7  1  0
 16 11  1  0
  1 31  1  0
  1 32  1  0
  8 33  1  0
  8 34  1  0
  9 35  1  0
  9 36  1  0
 12 37  1  0
 13 38  1  0
 14 39  1  0
 15 40  1  0
 16 41  1  0
 17 42  1  0
 17 43  1  0
 18 44  1  0
 18 45  1  0
 19 46  1  0
 21 47  1  0
 24 48  1  0
M  CHG  2  25  -1  28  -1
M  END
>  <UniqueID>  (23) 
21

>  <SMILES>  (23) 
C=c1oc(C(=O)N2CCN(c3ccccc3)CC2)cc1=Cc1c(O)[n-]c(=O)[n-]c1=O

>  <Energy>  (23) 
99.40570404890919

>  <Genealogy>  (23) 
C=c1oc(C(=O)N2CCN(c3ccccc3)CC2)cc1=Cc1c(O)[n-]c(=O)[n-]c1=O (protonated)
C=c1oc(C(=O)N2CCN(c3ccccc3)CC2)cc1=Cc1c(O)[n-]c(=O)[n-]c1=O (3D coordinates assigned)
C=c1oc(C(=O)N2CCN(c3ccccc3)CC2)cc1=Cc1c(O)[n-]c(=O)[n-]c1=O (nonaromatic ring conformer: 99.40570404890919 kcal/mol)

>  <smiles>  (23) 
C=c1oc(C(=O)N2CCN(c3ccccc3)CC2)cc1=Cc1c(O)[nH]c(=O)[nH]c1=O

>  <score_type>  (23) 
oracle

>  <origin>  (23) 
adg

>  <m_score__min__energy>  (23) 
-13.5

>  <m_primary>  (23) 
energy

$$$$
23:0
     RDKit          3D

 82 87  0  0  1  0  0  0  0  0999 V2000
   59.9540   34.9750   46.0360 C   0  0  0  0  0  0  0  0  0  0  0  0
   59.7220   33.8830   47.1010 C   0  0  1  0  0  0  0  0  0  0  0  0
   59.2780   34.6370   48.3040 C   0  0  0  0  0  0  0  0  0  0  0  0
   59.7170   34.2200   49.5800 N   0  0  0  0  0  0  0  0  0  0  0  0
   61.0320   34.1820   50.0870 C   0  0  0  0  0  0  0  0  0  0  0  0
   62.0380   34.5290   49.4340 O   0  0  0  0  0  0  0  0  0  0  0  0
   61.2790   33.7150   51.4610 C   0  0  0  0  0  0  0  0  0  0  0  0
   62.4890   33.6180   52.0770 N   0  0  0  0  0  0  0  0  0  0  0  0
   62.3700   33.1620   53.3170 C   0  0  0  0  0  0  0  0  0  0  0  0
   61.0490   32.9530   53.5220 N   0  0  0  0  0  0  0  0  0  0  0  0
   60.3750   33.2870   52.3990 C   0  0  0  0  0  0  0  0  0  0  0  0
   58.9300   33.2100   52.2230 C   0  0  0  0  0  0  0  0  0  0  0  0
   58.1350   34.0350   52.7300 O   0  0  0  0  0  0  0  0  0  0  0  0
   58.4490   32.1160   51.4200 N   0  0  0  0  0  0  0  0  0  0  0  0
   57.0270   31.9240   51.1690 C   0  0  0  0  0  0  0  0  0  0  0  0
   56.6480   30.5730   51.7290 C   0  0  0  0  0  0  0  0  0  0  0  0
   57.7150   29.7030   51.8250 O   0  0  0  0  0  0  0  0  0  0  0  0
   58.6220   29.8230   50.7840 C   0  0  0  0  0  0  0  0  0  0  0  0
   59.3480   31.1550   50.8200 C   0  0  0  0  0  0  0  0  0  0  0  0
   58.6790   33.0240   46.4710 C   0  0  0  0  0  0  0  0  0  0  0  0
   57.8010   32.4780   47.1880 O   0  0  0  0  0  0  0  0  0  0  0  0
   58.6870   32.8330   45.1080 O   0  0  0  0  0  0  0  0  0  0  0  0
   57.9550   31.9500   44.3400 C   0  0  0  0  0  0  0  0  0  0  0  0
   58.1180   30.5490   44.6420 N   0  0  0  0  0  0  0  0  0  0  0  0
   59.1740   29.8320   45.2290 C   0  0  0  0  0  0  0  0  0  0  0  0
   60.2520   30.4190   45.6080 O   0  0  0  0  0  0  0  0  0  0  0  0
   58.9550   28.4350   45.3640 C   0  0  0  0  0  0  0  0  0  0  0  0
   59.7870   27.4420   45.9050 C   0  0  0  0  0  0  0  0  0  0  0  0
   59.3760   26.1280   45.9470 C   0  0  0  0  0  0  0  0  0  0  0  0
   58.1510   25.7250   45.4700 C   0  0  0  0  0  0  0  0  0  0  0  0
   57.3280   26.6790   44.9390 C   0  0  0  0  0  0  0  0  0  0  0  0
   57.7430   27.9950   44.8980 C   0  0  0  0  0  0  0  0  0  0  0  0
   56.8780   29.3780   44.2630 S   0  0  0  0  0  0  0  0  0  0  0  0
   56.7420   29.3320   42.7840 O   0  0  0  0  0  0  0  0  0  0  0  0
   55.6170   29.6620   44.9960 O   0  0  0  0  0  0  0  0  0  0  0  0
   60.9090   33.1360   47.2570 N   0  0  0  0  0  0  0  0  0  0  0  0
   61.9960   33.4570   46.4030 C   0  0  0  0  0  0  0  0  0  0  0  0
   63.3350   33.4670   47.1420 C   0  0  0  0  0  0  0  0  0  0  0  0
   63.2640   32.3000   48.0450 N   0  0  0  0  0  0  0  0  0  0  0  0
   64.1110   32.2510   49.1750 C   0  0  0  0  0  0  0  0  0  0  0  0
   65.1960   33.0730   49.3700 C   0  0  0  0  0  0  0  0  0  0  0  0
   66.0080   33.0020   50.4970 C   0  0  0  0  0  0  0  0  0  0  0  0
   65.7470   32.0770   51.4930 C   0  0  0  0  0  0  0  0  0  0  0  0
   64.6580   31.2380   51.3170 C   0  0  0  0  0  0  0  0  0  0  0  0
   63.8530   31.3250   50.1760 C   0  0  0  0  0  0  0  0  0  0  0  0
   62.3140   31.2890   47.6750 C   0  0  0  0  0  0  0  0  0  0  0  0
   60.8760   31.8300   47.7650 C   0  0  0  0  0  0  0  0  0  0  0  0
   60.1579   35.9347   46.5333 H   0  0  0  0  0  0  0  0  0  0  0  0
   60.8133   34.6977   45.4077 H   0  0  0  0  0  0  0  0  0  0  0  0
   59.0562   35.0710   45.4077 H   0  0  0  0  0  0  0  0  0  0  0  0
   59.6125   35.6767   48.1731 H   0  0  0  0  0  0  0  0  0  0  0  0
   58.1916   34.4669   48.3329 H   0  0  0  0  0  0  0  0  0  0  0  0
   58.9620   33.8840   50.2650 H   0  0  0  0  0  0  0  0  0  0  0  0
   63.1840   32.9882   54.0361 H   0  0  0  0  0  0  0  0  0  0  0  0
   60.5920   32.5930   54.3960 H   0  0  0  0  0  0  0  0  0  0  0  0
   56.4470   32.7141   51.6683 H   0  0  0  0  0  0  0  0  0  0  0  0
   56.8129   31.9717   50.0911 H   0  0  0  0  0  0  0  0  0  0  0  0
   56.2242   30.7179   52.7337 H   0  0  0  0  0  0  0  0  0  0  0  0
   55.9230   30.1240   51.0341 H   0  0  0  0  0  0  0  0  0  0  0  0
   59.3615   29.0122   50.8608 H   0  0  0  0  0  0  0  0  0  0  0  0
   58.0657   29.7623   49.8370 H   0  0  0  0  0  0  0  0  0  0  0  0
   60.2642   31.0687   51.4226 H   0  0  0  0  0  0  0  0  0  0  0  0
   59.6364   31.4700   49.8063 H   0  0  0  0  0  0  0  0  0  0  0  0
   56.8910   32.1982   44.4675 H   0  0  0  0  0  0  0  0  0  0  0  0
   58.3320   32.0733   43.3140 H   0  0  0  0  0  0  0  0  0  0  0  0
   60.7767   27.7160   46.2992 H   0  0  0  0  0  0  0  0  0  0  0  0
   60.0518   25.3743   46.3774 H   0  0  0  0  0  0  0  0  0  0  0  0
   57.8433   24.6698   45.5141 H   0  0  0  0  0  0  0  0  0  0  0  0
   56.3394   26.3991   44.5461 H   0  0  0  0  0  0  0  0  0  0  0  0
   62.0435   32.7110   45.5960 H   0  0  0  0  0  0  0  0  0  0  0  0
   61.8239   34.4688   46.0071 H   0  0  0  0  0  0  0  0  0  0  0  0
   64.1709   33.3618   46.4347 H   0  0  0  0  0  0  0  0  0  0  0  0
   63.5076   34.4079   47.6850 H   0  0  0  0  0  0  0  0  0  0  0  0
   65.4326   33.8212   48.5991 H   0  0  0  0  0  0  0  0  0  0  0  0
   66.8637   33.6858   50.5975 H   0  0  0  0  0  0  0  0  0  0  0  0
   66.3799   32.0103   52.3902 H   0  0  0  0  0  0  0  0  0  0  0  0
   64.4223   30.4901   52.0884 H   0  0  0  0  0  0  0  0  0  0  0  0
   62.9959   30.6438   50.0699 H   0  0  0  0  0  0  0  0  0  0  0  0
   62.5140   30.9670   46.6424 H   0  0  0  0  0  0  0  0  0  0  0  0
   62.4151   30.4404   48.3675 H   0  0  0  0  0  0  0  0  0  0  0  0
   60.1971   31.2061   47.1651 H   0  0  0  0  0  0  0  0  0  0  0  0
   60.5102   31.8160   48.8023 H   0  0  0  0  0  0  0  0  0  0  0  0
  2  1  1  6
  2  3  1  0
  3  4  1  0
  4  5  1  0
  5  6  2  0
  5  7  1  0
  7  8  1  0
  8  9  2  0
  9 10  1  0
 10 11  1  0
 11 12  1  0
 12 13  2  0
 12 14  1  0
 14 15  1  0
 15 16  1  0
 16 17  1  0
 17 18  1  0
 18 19  1  0
  2 20  1  0
 20 21  2  0
 20 22  1  0
 22 23  1  0
 23 24  1  0
 24 25  1  0
 25 26  2  0
 25 27  1  0
 27 28  2  0
 28 29  1  0
 29 30  2  0
 30 31  1  0
 31 32  2  0
 32 33  1  0
 33 34  2  0
 33 35  2  0
  2 36  1  0
 36 37  1  0
 37 38  1  0
 38 39  1  0
 39 40  1  0
 40 41  2  0
 41 42  1  0
 42 43  2  0
 43 44  1  0
 44 45  2  0
 39 46  1  0
 46 47  1  0
 11  7  2  0
 19 14  1  0
 33 24  1  0
 47 36  1  0
 32 27  1  0
 45 40  1  0
  1 48  1  0
  1 49  1  0
  1 50  1  0
  3 51  1  0
  3 52  1  0
  4 53  1  0
  9 54  1  0
 10 55  1  0
 15 56  1  0
 15 57  1  0
 16 58  1  0
 16 59  1  0
 18 60  1  0
 18 61  1  0
 19 62  1  0
 19 63  1  0
 23 64  1  0
 23 65  1  0
 28 66  1  0
 29 67  1  0
 30 68  1  0
 31 69  1  0
 37 70  1  0
 37 71  1  0
 38 72  1  0
 38 73  1  0
 41 74  1  0
 42 75  1  0
 43 76  1  0
 44 77  1  0
 45 78  1  0
 46 79  1  0
 46 80  1  0
 47 81  1  0
 47 82  1  0
M  END
>  <smiles>  (24) 
CC(CNC(=O)c1nc[nH]c1C(=O)N1CCOCC1)(C(=O)OCN1C(=O)c2ccccc2S1(=O)=O)N1CCN(c2ccccc2)CC1

>  <score_type>  (24) 
oracle

>  <origin>  (24) 
adg

>  <m_score__min__energy>  (24) 
-10.390000000000001

>  <m_primary>  (24) 
energy

$$$$
24:0
     RDKit          3D

 39 41  0  0  0  0  0  0  0  0999 V2000
   55.1350   28.0200   44.8970 H   0  0  0  0  0  0  0  0  0  0  0  0
   55.2050   28.9620   44.5350 O   0  0  0  0  0  0  0  0  0  0  0  0
   56.2250   29.8250   44.9300 C   0  0  0  0  0  0  0  0  0  0  0  0
   56.2660   31.1210   44.5370 N   0  0  0  0  0  0  0  0  0  0  0  0
   57.4190   31.5880   45.0520 C   0  0  0  0  0  0  0  0  0  0  0  0
   57.9250   32.8790   44.9170 C   0  0  0  0  0  0  0  0  0  0  0  0
   57.3759   33.6462   44.3514 H   0  0  0  0  0  0  0  0  0  0  0  0
   59.1580   33.1720   45.5250 C   0  0  0  0  0  0  0  0  0  0  0  0
   59.5836   34.1822   45.4337 H   0  0  0  0  0  0  0  0  0  0  0  0
   59.8570   32.1810   46.2530 C   0  0  0  0  0  0  0  0  0  0  0  0
   61.4090   32.5780   46.9870 S   0  0  0  0  0  0  0  0  0  0  0  0
   62.1880   31.2980   47.1160 O   0  0  0  0  0  0  0  0  0  0  0  0
   62.1720   33.5280   46.1060 O   0  0  0  0  0  0  0  0  0  0  0  0
   61.1770   33.3090   48.5530 N   0  0  0  0  0  0  0  0  0  0  0  0
   59.8770   33.7450   49.0000 C   0  0  0  0  0  0  0  0  0  0  0  0
   59.2850   34.6770   48.3870 O   0  0  0  0  0  0  0  0  0  0  0  0
   59.1890   33.1160   50.1730 C   0  0  0  0  0  0  0  0  0  0  0  0
   59.6199   33.5099   51.1053 H   0  0  0  0  0  0  0  0  0  0  0  0
   58.1150   33.3510   50.1374 H   0  0  0  0  0  0  0  0  0  0  0  0
   59.3270   32.0253   50.1374 H   0  0  0  0  0  0  0  0  0  0  0  0
   62.3180   33.4450   49.4600 C   0  0  0  0  0  0  0  0  0  0  0  0
   61.9657   33.4030   50.5012 H   0  0  0  0  0  0  0  0  0  0  0  0
   63.0291   32.6253   49.2802 H   0  0  0  0  0  0  0  0  0  0  0  0
   62.8165   34.4089   49.2802 H   0  0  0  0  0  0  0  0  0  0  0  0
   59.3200   30.8820   46.3700 C   0  0  0  0  0  0  0  0  0  0  0  0
   59.8495   30.0981   46.9314 H   0  0  0  0  0  0  0  0  0  0  0  0
   58.0970   30.6220   45.7520 C   0  0  0  0  0  0  0  0  0  0  0  0
   57.3330   29.4800   45.7050 C   0  0  0  0  0  0  0  0  0  0  0  0
   57.6700   28.1790   46.3130 C   0  0  0  0  0  0  0  0  0  0  0  0
   58.5051   28.1363   47.0276 H   0  0  0  0  0  0  0  0  0  0  0  0
   57.0100   27.0490   46.0380 C   0  0  0  0  0  0  0  0  0  0  0  0
   55.6580   26.9800   46.0520 N   0  0  0  0  0  0  0  0  0  0  0  0
   55.4140   25.7070   45.7000 C   0  0  0  0  0  0  0  0  0  0  0  0
   54.2570   25.2210   45.5950 O   0  0  0  0  0  0  0  0  0  0  0  0
   56.5950   25.0420   45.4790 C   0  0  0  0  0  0  0  0  0  0  0  0
   56.7440   23.7700   45.1150 C   0  0  0  0  0  0  0  0  0  0  0  0
   55.8593   23.1342   44.9630 H   0  0  0  0  0  0  0  0  0  0  0  0
   57.7518   23.3549   44.9662 H   0  0  0  0  0  0  0  0  0  0  0  0
   57.6180   25.8880   45.6860 N   0  0  0  0  0  0  0  0  0  0  0  0
  1  2  1  0
  2  3  1  0
  3  4  1  0
  4  5  1  0
  5  6  2  0
  6  7  1  0
  6  8  1  0
  8  9  1  0
  8 10  2  0
 10 11  1  0
 11 12  2  0
 11 13  2  0
 11 14  1  0
 14 15  1  0
 15 16  2  0
 15 17  1  0
 17 18  1  0
 17 19  1  0
 17 20  1  0
 14 21  1  0
 21 22  1  0
 21 23  1  0
 21 24  1  0
 10 25  1  0
 25 26  1  0
 25 27  2  0
 27 28  1  0
 28 29  1  0
 29 30  1  0
 29 31  2  0
 31 32  1  0
 32 33  1  0
 33 34  2  0
 33 35  1  0
 35 36  2  0
 36 37  1  0
 36 38  1  0
 35 39  1  0
 28  3  2  0
 39 31  1  0
 27  5  1  0
M  CHG  3   4  -1  32  -1  39  -1
M  END
>  <UniqueID>  (25) 
22

>  <SMILES>  (25) 
C=c1[n-]/c(=C\c2c(O)[n-]c3ccc(S(=O)(=O)N(C)C(C)=O)cc23)[n-]c1=O

>  <Energy>  (25) 
108.71290016611927

>  <Genealogy>  (25) 
C=c1[n-]c(=Cc2c(O)[n-]c3ccc(S(=O)(=O)N(C)C(C)=O)cc23)[n-]c1=O (protonated)
C=c1[n-]/c(=C\c2c(O)[n-]c3ccc(S(=O)(=O)N(C)C(C)=O)cc23)[n-]c1=O (cis-trans isomerization)
C=c1[n-]/c(=C\c2c(O)[n-]c3ccc(S(=O)(=O)N(C)C(C)=O)cc23)[n-]c1=O (3D coordinates assigned)
C=c1[n-]/c(=C\c2c(O)[n-]c3ccc(S(=O)(=O)N(C)C(C)=O)cc23)[n-]c1=O (optimized conformer: 108.71290016611927 kcal/mol)

>  <smiles>  (25) 
C=c1[nH]c(=Cc2c(O)[nH]c3ccc(S(=O)(=O)N(C)C(C)=O)cc23)[nH]c1=O

>  <score_type>  (25) 
oracle

>  <origin>  (25) 
adg

>  <m_score__min__energy>  (25) 
-14.01

>  <m_primary>  (25) 
energy

$$$$
25:0
     RDKit          3D

 44 46  0  0  0  0  0  0  0  0999 V2000
   63.0610   33.4850   48.4870 C   0  0  0  0  0  0  0  0  0  0  0  0
   61.7570   33.5020   47.7470 C   0  0  0  0  0  0  0  0  0  0  0  0
   61.7200   33.8070   46.3760 C   0  0  0  0  0  0  0  0  0  0  0  0
   60.4970   33.8650   45.6990 C   0  0  0  0  0  0  0  0  0  0  0  0
   59.2970   33.6250   46.3850 C   0  0  0  0  0  0  0  0  0  0  0  0
   57.7610   33.6220   45.5240 S   0  0  0  0  0  0  0  0  0  0  0  0
   57.5480   34.9340   44.8230 O   0  0  0  0  0  0  0  0  0  0  0  0
   56.6480   33.4030   46.5090 O   0  0  0  0  0  0  0  0  0  0  0  0
   57.7470   32.3430   44.3530 N   0  0  0  0  0  0  0  0  0  0  0  0
   57.7730   30.9450   44.6680 C   0  0  0  0  0  0  0  0  0  0  0  0
   56.9200   30.0200   44.0390 C   0  0  0  0  0  0  0  0  0  0  0  0
   57.0000   28.6610   44.3540 C   0  0  0  0  0  0  0  0  0  0  0  0
   57.9320   28.2020   45.2920 C   0  0  0  0  0  0  0  0  0  0  0  0
   58.0030   26.7940   45.5600 N   0  0  0  0  0  0  0  0  0  0  0  0
   56.6860   25.8240   46.1390 S   0  0  0  0  0  0  0  0  0  0  0  0
   56.9040   25.5220   47.5960 O   0  0  0  0  0  0  0  0  0  0  0  0
   55.4040   26.5930   45.9780 O   0  0  0  0  0  0  0  0  0  0  0  0
   56.5750   24.3370   45.2000 C   0  0  0  0  0  0  0  0  0  0  0  0
   56.3740   23.1110   45.8500 C   0  0  0  0  0  0  0  0  0  0  0  0
   56.2980   21.9270   45.1110 C   0  0  0  0  0  0  0  0  0  0  0  0
   56.4210   21.9590   43.7180 C   0  0  0  0  0  0  0  0  0  0  0  0
   56.3510   20.7710   42.9940 O   0  0  0  0  0  0  0  0  0  0  0  0
   56.6190   23.1840   43.0650 C   0  0  0  0  0  0  0  0  0  0  0  0
   56.6990   24.3700   43.8040 C   0  0  0  0  0  0  0  0  0  0  0  0
   58.7710   29.1290   45.9360 C   0  0  0  0  0  0  0  0  0  0  0  0
   58.6860   30.4890   45.6270 C   0  0  0  0  0  0  0  0  0  0  0  0
   59.3290   33.3490   47.7600 C   0  0  0  0  0  0  0  0  0  0  0  0
   60.5510   33.2890   48.4370 C   0  0  0  0  0  0  0  0  0  0  0  0
   62.8681   33.4875   49.5699 H   0  0  0  0  0  0  0  0  0  0  0  0
   63.6241   32.5794   48.2170 H   0  0  0  0  0  0  0  0  0  0  0  0
   63.6475   34.3756   48.2170 H   0  0  0  0  0  0  0  0  0  0  0  0
   62.6565   34.0010   45.8326 H   0  0  0  0  0  0  0  0  0  0  0  0
   60.4762   34.0997   44.6245 H   0  0  0  0  0  0  0  0  0  0  0  0
   56.1871   30.3679   43.2962 H   0  0  0  0  0  0  0  0  0  0  0  0
   56.3250   27.9461   43.8608 H   0  0  0  0  0  0  0  0  0  0  0  0
   56.2758   23.0808   46.9452 H   0  0  0  0  0  0  0  0  0  0  0  0
   56.1411   20.9678   45.6261 H   0  0  0  0  0  0  0  0  0  0  0  0
   56.9670   19.9910   43.1920 H   0  0  0  0  0  0  0  0  0  0  0  0
   56.7117   23.2130   41.9693 H   0  0  0  0  0  0  0  0  0  0  0  0
   56.8593   25.3287   43.2890 H   0  0  0  0  0  0  0  0  0  0  0  0
   59.4970   28.7820   46.6860 H   0  0  0  0  0  0  0  0  0  0  0  0
   59.3415   31.2073   46.1412 H   0  0  0  0  0  0  0  0  0  0  0  0
   58.3900   33.1793   48.3072 H   0  0  0  0  0  0  0  0  0  0  0  0
   60.5687   33.0739   49.5156 H   0  0  0  0  0  0  0  0  0  0  0  0
  1  2  1  0
  2  3  2  0
  3  4  1  0
  4  5  2  0
  5  6  1  0
  6  7  2  0
  6  8  2  0
  6  9  1  0
  9 10  1  0
 10 11  2  0
 11 12  1  0
 12 13  2  0
 13 14  1  0
 14 15  1  0
 15 16  2  0
 15 17  2  0
 15 18  1  0
 18 19  2  0
 19 20  1  0
 20 21  2  0
 21 22  1  0
 21 23  1  0
 23 24  2  0
 13 25  1  0
 25 26  2  0
  5 27  1  0
 27 28  2  0
 28  2  1  0
 26 10  1  0
 24 18  1  0
  1 29  1  0
  1 30  1  0
  1 31  1  0
  3 32  1  0
  4 33  1  0
 11 34  1  0
 12 35  1  0
 19 36  1  0
 20 37  1  0
 22 38  1  0
 23 39  1  0
 24 40  1  0
 25 41  1  0
 26 42  1  0
 27 43  1  0
 28 44  1  0
M  CHG  2   9  -1  14  -1
M  END
>  <UniqueID>  (26) 
23

>  <SMILES>  (26) 
Cc1ccc(S(=O)(=O)[N-]c2ccc([N-]S(=O)(=O)c3ccc(O)cc3)cc2)cc1

>  <Energy>  (26) 
51.567298500152916

>  <Genealogy>  (26) 
Cc1ccc(S(=O)(=O)[N-]c2ccc([N-]S(=O)(=O)c3ccc(O)cc3)cc2)cc1 (protonated)
Cc1ccc(S(=O)(=O)[N-]c2ccc([N-]S(=O)(=O)c3ccc(O)cc3)cc2)cc1 (3D coordinates assigned)
Cc1ccc(S(=O)(=O)[N-]c2ccc([N-]S(=O)(=O)c3ccc(O)cc3)cc2)cc1 (optimized conformer: 51.567298500152916 kcal/mol)

>  <smiles>  (26) 
Cc1ccc(S(=O)(=O)Nc2ccc(NS(=O)(=O)c3ccc(O)cc3)cc2)cc1

>  <score_type>  (26) 
oracle

>  <origin>  (26) 
adg

>  <m_score__min__energy>  (26) 
-11.960000000000001

>  <m_primary>  (26) 
energy

$$$$
26:0
     RDKit          3D

 63 66  0  0  0  0  0  0  0  0999 V2000
   57.0270   29.3940   43.8960 C   0  0  0  0  0  0  0  0  0  0  0  0
   57.7710   30.7030   44.0050 C   0  0  0  0  0  0  0  0  0  0  0  0
   57.7450   31.6750   42.8540 C   0  0  0  0  0  0  0  0  0  0  0  0
   58.4540   31.0370   45.1220 C   0  0  0  0  0  0  0  0  0  0  0  0
   59.4510   30.1200   45.7960 C   0  0  0  0  0  0  0  0  0  0  0  0
   58.7620   29.1290   46.7710 C   0  0  2  0  0  0  0  0  0  0  0  0
   58.6850   29.7480   48.1830 C   0  0  0  0  0  0  0  0  0  0  0  0
   59.9830   29.6430   48.8610 N   0  0  0  0  0  0  0  0  0  0  0  0
   60.6250   30.8220   49.3770 C   0  0  0  0  0  0  0  0  0  0  0  0
   61.8030   31.0970   49.0150 O   0  0  0  0  0  0  0  0  0  0  0  0
   59.9380   31.6930   50.3960 C   0  0  0  0  0  0  0  0  0  0  0  0
   58.8360   32.5500   49.7570 C   0  0  0  0  0  0  0  0  0  0  0  0
   59.3720   33.3160   48.5830 C   0  0  0  0  0  0  0  0  0  0  0  0
   60.6680   33.8040   48.4330 C   0  0  0  0  0  0  0  0  0  0  0  0
   60.8110   34.4040   47.2280 N   0  0  0  0  0  0  0  0  0  0  0  0
   59.6180   34.2860   46.6120 C   0  0  0  0  0  0  0  0  0  0  0  0
   59.2780   34.7440   45.3400 C   0  0  0  0  0  0  0  0  0  0  0  0
   57.9680   34.5030   44.8820 C   0  0  0  0  0  0  0  0  0  0  0  0
   57.0390   33.8240   45.6990 C   0  0  0  0  0  0  0  0  0  0  0  0
   57.4110   33.3710   46.9790 C   0  0  0  0  0  0  0  0  0  0  0  0
   58.7160   33.6230   47.4040 C   0  0  0  0  0  0  0  0  0  0  0  0
   60.6540   28.3350   48.9450 C   0  0  0  0  0  0  0  0  0  0  0  0
   59.8470   27.2370   48.2290 C   0  0  0  0  0  0  0  0  0  0  0  0
   59.3960   27.6660   46.7960 C   0  0  2  0  0  0  0  0  0  0  0  0
   60.5170   27.5960   45.9340 O   0  0  0  0  0  0  0  0  0  0  0  0
   58.3560   26.6390   46.3120 C   0  0  0  0  0  0  0  0  0  0  0  0
   58.7390   25.3670   45.8330 C   0  0  0  0  0  0  0  0  0  0  0  0
   57.7800   24.4430   45.4100 C   0  0  0  0  0  0  0  0  0  0  0  0
   56.4260   24.7650   45.4550 C   0  0  0  0  0  0  0  0  0  0  0  0
   56.0240   26.0130   45.9370 C   0  0  0  0  0  0  0  0  0  0  0  0
   54.6730   26.3370   45.9840 O   0  0  0  0  0  0  0  0  0  0  0  0
   56.9780   26.9390   46.3710 C   0  0  0  0  0  0  0  0  0  0  0  0
   56.8093   29.0110   44.9039 H   0  0  0  0  0  0  0  0  0  0  0  0
   56.0840   29.5524   43.3523 H   0  0  0  0  0  0  0  0  0  0  0  0
   57.6456   28.6648   43.3523 H   0  0  0  0  0  0  0  0  0  0  0  0
   57.7175   32.7035   43.2432 H   0  0  0  0  0  0  0  0  0  0  0  0
   58.6471   31.5396   42.2393 H   0  0  0  0  0  0  0  0  0  0  0  0
   56.8514   31.4915   42.2393 H   0  0  0  0  0  0  0  0  0  0  0  0
   58.2757   32.0281   45.5648 H   0  0  0  0  0  0  0  0  0  0  0  0
   59.9840   29.5458   45.0238 H   0  0  0  0  0  0  0  0  0  0  0  0
   60.1455   30.7428   46.3789 H   0  0  0  0  0  0  0  0  0  0  0  0
   57.7448   28.9719   46.3830 H   0  0  0  0  0  0  0  0  0  0  0  0
   58.4052   30.8085   48.0988 H   0  0  0  0  0  0  0  0  0  0  0  0
   57.9313   29.2029   48.7702 H   0  0  0  0  0  0  0  0  0  0  0  0
   59.4885   31.0518   51.1686 H   0  0  0  0  0  0  0  0  0  0  0  0
   60.6885   32.3681   50.8331 H   0  0  0  0  0  0  0  0  0  0  0  0
   58.0200   31.8947   49.4182 H   0  0  0  0  0  0  0  0  0  0  0  0
   58.4657   33.2653   50.5062 H   0  0  0  0  0  0  0  0  0  0  0  0
   61.4634   33.7144   49.1876 H   0  0  0  0  0  0  0  0  0  0  0  0
   61.6740   34.8610   46.8540 H   0  0  0  0  0  0  0  0  0  0  0  0
   60.0092   35.2765   44.7141 H   0  0  0  0  0  0  0  0  0  0  0  0
   57.6672   34.8462   43.8812 H   0  0  0  0  0  0  0  0  0  0  0  0
   56.0168   33.6474   45.3330 H   0  0  0  0  0  0  0  0  0  0  0  0
   56.6969   32.8363   47.6225 H   0  0  0  0  0  0  0  0  0  0  0  0
   61.6461   28.4120   48.4762 H   0  0  0  0  0  0  0  0  0  0  0  0
   60.7414   28.0607   50.0067 H   0  0  0  0  0  0  0  0  0  0  0  0
   60.4724   26.3358   48.1472 H   0  0  0  0  0  0  0  0  0  0  0  0
   58.9405   27.0469   48.8224 H   0  0  0  0  0  0  0  0  0  0  0  0
   60.9300   26.6990   46.0060 H   0  0  0  0  0  0  0  0  0  0  0  0
   59.8054   25.1003   45.7924 H   0  0  0  0  0  0  0  0  0  0  0  0
   58.0961   23.4566   45.0397 H   0  0  0  0  0  0  0  0  0  0  0  0
   55.6748   24.0384   45.1118 H   0  0  0  0  0  0  0  0  0  0  0  0
   56.6504   27.9131   46.7632 H   0  0  0  0  0  0  0  0  0  0  0  0
  1  2  1  0
  2  3  1  0
  2  4  2  3
  4  5  1  0
  5  6  1  0
  6  7  1  0
  7  8  1  0
  8  9  1  0
  9 10  2  0
  9 11  1  0
 11 12  1  0
 12 13  1  0
 13 14  2  0
 14 15  1  0
 15 16  1  0
 16 17  2  0
 17 18  1  0
 18 19  2  0
 19 20  1  0
 20 21  2  0
  8 22  1  0
 22 23  1  0
 23 24  1  0
 24 25  1  6
 24 26  1  0
 26 27  2  0
 27 28  1  0
 28 29  2  0
 29 30  1  0
 30 31  1  0
 30 32  2  0
 24  6  1  0
 32 26  1  0
 21 13  1  0
 21 16  1  0
  1 33  1  0
  1 34  1  0
  1 35  1  0
  3 36  1  0
  3 37  1  0
  3 38  1  0
  4 39  1  0
  5 40  1  0
  5 41  1  0
  6 42  1  6
  7 43  1  0
  7 44  1  0
 11 45  1  0
 11 46  1  0
 12 47  1  0
 12 48  1  0
 14 49  1  0
 15 50  1  0
 17 51  1  0
 18 52  1  0
 19 53  1  0
 20 54  1  0
 22 55  1  0
 22 56  1  0
 23 57  1  0
 23 58  1  0
 25 59  1  0
 27 60  1  0
 28 61  1  0
 29 62  1  0
 32 63  1  0
M  CHG  1  31  -1
M  END
>  <UniqueID>  (27) 
24

>  <SMILES>  (27) 
CC(C)=CC[C@@H]1CN(C(=O)CCc2c[nH]c3ccccc23)CC[C@@]1(O)c1cccc([O-])c1

>  <Energy>  (27) 
105.40873465763471

>  <Genealogy>  (27) 
CC(C)=CCC1CN(C(=O)CCc2c[nH]c3ccccc23)CCC1(O)c1cccc([O-])c1 (protonated)
CC(C)=CC[C@@H]1CN(C(=O)CCc2c[nH]c3ccccc23)CC[C@@]1(O)c1cccc([O-])c1 (chirality)
CC(C)=CC[C@@H]1CN(C(=O)CCc2c[nH]c3ccccc23)CC[C@@]1(O)c1cccc([O-])c1 (3D coordinates assigned)
CC(C)=CC[C@@H]1CN(C(=O)CCc2c[nH]c3ccccc23)CC[C@@]1(O)c1cccc([O-])c1 (nonaromatic ring conformer: 105.40873465763471 kcal/mol)

>  <smiles>  (27) 
CC(C)=CCC1CN(C(=O)CCc2c[nH]c3ccccc23)CCC1(O)c1cccc(O)c1

>  <score_type>  (27) 
oracle

>  <origin>  (27) 
adg

>  <m_score__min__energy>  (27) 
-13.119999999999999

>  <m_primary>  (27) 
energy

$$$$
27:0
     RDKit          3D

 20 21  0  0  0  0  0  0  0  0999 V2000
   56.1010   29.3360   42.8480 N   0  0  0  0  0  0  0  0  0  0  0  0
   56.7160   30.5780   43.1880 C   0  0  0  0  0  0  0  0  0  0  0  0
   56.9710   31.4180   42.2840 O   0  0  0  0  0  0  0  0  0  0  0  0
   57.0380   30.8970   44.6150 C   0  0  0  0  0  0  0  0  0  0  0  0
   58.7000   30.2810   45.0510 S   0  0  0  0  0  0  0  0  0  0  0  0
   58.1380   28.6380   45.4860 C   0  0  0  0  0  0  0  0  0  0  0  0
   59.0560   27.6530   45.7530 N   0  0  0  0  0  0  0  0  0  0  0  0
   58.6610   26.3890   46.0850 C   0  0  0  0  0  0  0  0  0  0  0  0
   59.5120   25.4910   46.3260 O   0  0  0  0  0  0  0  0  0  0  0  0
   57.3000   26.1330   46.1460 C   0  0  0  0  0  0  0  0  0  0  0  0
   56.5390   25.0270   46.4340 C   0  0  0  0  0  0  0  0  0  0  0  0
   55.2340   25.3850   46.3370 N   0  0  0  0  0  0  0  0  0  0  0  0
   55.1510   26.6700   45.9970 N   0  0  0  0  0  0  0  0  0  0  0  0
   56.4100   27.1190   45.8830 C   0  0  0  0  0  0  0  0  0  0  0  0
   56.7970   28.3750   45.5530 N   0  0  0  0  0  0  0  0  0  0  0  0
   55.8750   28.6340   43.5870 H   0  0  0  0  0  0  0  0  0  0  0  0
   55.8670   29.1190   41.8530 H   0  0  0  0  0  0  0  0  0  0  0  0
   57.0076   31.9873   44.7576 H   0  0  0  0  0  0  0  0  0  0  0  0
   56.2967   30.4078   45.2640 H   0  0  0  0  0  0  0  0  0  0  0  0
   56.9195   24.0289   46.6965 H   0  0  0  0  0  0  0  0  0  0  0  0
  1  2  1  0
  2  3  2  0
  2  4  1  0
  4  5  1  0
  5  6  1  0
  6  7  2  0
  7  8  1  0
  8  9  2  0
  8 10  1  0
 10 11  2  0
 11 12  1  0
 12 13  1  0
 13 14  2  0
 14 15  1  0
 15  6  1  0
 14 10  1  0
  1 16  1  0
  1 17  1  0
  4 18  1  0
  4 19  1  0
 11 20  1  0
M  CHG  2  12  -1  15  -1
M  END
>  <UniqueID>  (28) 
25

>  <SMILES>  (28) 
NC(=O)CSc1nc(=O)c2c[n-]nc2[n-]1

>  <Energy>  (28) 
55.92790581779242

>  <Genealogy>  (28) 
NC(=O)CSc1nc(=O)c2c[n-]nc2[n-]1 (protonated)
NC(=O)CSc1nc(=O)c2c[n-]nc2[n-]1 (3D coordinates assigned)
NC(=O)CSc1nc(=O)c2c[n-]nc2[n-]1 (optimized conformer: 55.92790581779242 kcal/mol)

>  <smiles>  (28) 
NC(=O)CSc1nc(=O)c2c[nH]nc2[nH]1

>  <score_type>  (28) 
oracle

>  <origin>  (28) 
adg

>  <m_score__min__energy>  (28) 
-10.15

>  <m_primary>  (28) 
energy

$$$$
28:0
     RDKit          3D

 63 65  0  0  0  0  0  0  0  0999 V2000
   58.9970   26.3380   47.4700 O   0  0  0  0  0  0  0  0  0  0  0  0
   58.6940   27.5090   47.1100 C   0  0  0  0  0  0  0  0  0  0  0  0
   58.6290   28.5530   48.0850 N   0  0  0  0  0  0  0  0  0  0  0  0
   59.5350   28.6270   49.2230 C   0  0  0  0  0  0  0  0  0  0  0  0
   59.6940   30.0820   49.6620 C   0  0  0  0  0  0  0  0  0  0  0  0
   59.2990   31.0450   48.5330 C   0  0  0  0  0  0  0  0  0  0  0  0
   60.3900   31.1680   47.4610 C   0  0  0  0  0  0  0  0  0  0  0  0
   61.4110   32.2200   47.8080 C   0  0  0  0  0  0  0  0  0  0  0  0
   62.6450   32.2650   47.1360 C   0  0  0  0  0  0  0  0  0  0  0  0
   63.5970   33.2320   47.4750 C   0  0  0  0  0  0  0  0  0  0  0  0
   63.3270   34.1570   48.4880 C   0  0  0  0  0  0  0  0  0  0  0  0
   62.1050   34.1150   49.1650 C   0  0  0  0  0  0  0  0  0  0  0  0
   61.1510   33.1500   48.8290 C   0  0  0  0  0  0  0  0  0  0  0  0
   58.4630   27.8240   45.6800 C   0  0  0  0  0  0  0  0  0  0  0  0
   57.6800   27.0840   44.8680 C   0  0  0  0  0  0  0  0  0  0  0  0
   57.1850   25.7250   45.1730 C   0  0  0  0  0  0  0  0  0  0  0  0
   58.0070   24.6020   44.9710 C   0  0  0  0  0  0  0  0  0  0  0  0
   57.5460   23.3240   45.2990 C   0  0  0  0  0  0  0  0  0  0  0  0
   56.2720   23.1580   45.8460 C   0  0  0  0  0  0  0  0  0  0  0  0
   55.4570   24.2690   46.0740 C   0  0  0  0  0  0  0  0  0  0  0  0
   55.9100   25.5570   45.7460 C   0  0  0  0  0  0  0  0  0  0  0  0
   55.0960   26.6660   45.9790 O   0  0  0  0  0  0  0  0  0  0  0  0
   59.1780   28.9780   45.1020 C   0  0  0  0  0  0  0  0  0  0  0  0
   60.4100   29.1140   45.3270 O   0  0  0  0  0  0  0  0  0  0  0  0
   58.5110   29.9440   44.2770 N   0  0  0  0  0  0  0  0  0  0  0  0
   57.2750   30.6410   44.6320 C   0  0  1  0  0  0  0  0  0  0  0  0
   57.3230   32.0720   44.0710 C   0  0  0  0  0  0  0  0  0  0  0  0
   58.0120   33.0180   45.0230 C   0  0  0  0  0  0  0  0  0  0  0  0
   57.6680   33.0250   46.3850 C   0  0  0  0  0  0  0  0  0  0  0  0
   58.2770   33.9270   47.2620 C   0  0  0  0  0  0  0  0  0  0  0  0
   59.2280   34.8330   46.7840 C   0  0  0  0  0  0  0  0  0  0  0  0
   59.5710   34.8380   45.4290 C   0  0  0  0  0  0  0  0  0  0  0  0
   58.9640   33.9370   44.5490 C   0  0  0  0  0  0  0  0  0  0  0  0
   56.0880   29.8900   44.0940 C   0  0  0  0  0  0  0  0  0  0  0  0
   55.8870   29.8190   42.8530 O   0  0  0  0  0  0  0  0  0  0  0  0
   55.1910   29.2920   44.9700 O   0  0  0  0  0  0  0  0  0  0  0  0
   59.1249   28.0367   50.0557 H   0  0  0  0  0  0  0  0  0  0  0  0
   60.5170   28.2249   48.9331 H   0  0  0  0  0  0  0  0  0  0  0  0
   59.0496   30.2669   50.5341 H   0  0  0  0  0  0  0  0  0  0  0  0
   60.7494   30.2570   49.9180 H   0  0  0  0  0  0  0  0  0  0  0  0
   58.3780   30.6748   48.0589 H   0  0  0  0  0  0  0  0  0  0  0  0
   59.1515   32.0404   48.9773 H   0  0  0  0  0  0  0  0  0  0  0  0
   60.8999   30.1984   47.3613 H   0  0  0  0  0  0  0  0  0  0  0  0
   59.9062   31.4640   46.5185 H   0  0  0  0  0  0  0  0  0  0  0  0
   62.8627   31.5370   46.3406 H   0  0  0  0  0  0  0  0  0  0  0  0
   64.5597   33.2648   46.9438 H   0  0  0  0  0  0  0  0  0  0  0  0
   64.0763   34.9178   48.7522 H   0  0  0  0  0  0  0  0  0  0  0  0
   61.8937   34.8420   49.9630 H   0  0  0  0  0  0  0  0  0  0  0  0
   60.1918   33.1185   49.3666 H   0  0  0  0  0  0  0  0  0  0  0  0
   57.3873   27.5262   43.9043 H   0  0  0  0  0  0  0  0  0  0  0  0
   59.0165   24.7299   44.5533 H   0  0  0  0  0  0  0  0  0  0  0  0
   58.1878   22.4475   45.1260 H   0  0  0  0  0  0  0  0  0  0  0  0
   55.9097   22.1504   46.0978 H   0  0  0  0  0  0  0  0  0  0  0  0
   54.4569   24.1346   46.5120 H   0  0  0  0  0  0  0  0  0  0  0  0
   55.1380   27.4890   45.3900 H   0  0  0  0  0  0  0  0  0  0  0  0
   57.1763   30.6923   45.7264 H   0  0  0  0  0  0  0  0  0  0  0  0
   57.8708   32.0635   43.1171 H   0  0  0  0  0  0  0  0  0  0  0  0
   56.2896   32.4203   43.9270 H   0  0  0  0  0  0  0  0  0  0  0  0
   56.9157   32.3172   46.7631 H   0  0  0  0  0  0  0  0  0  0  0  0
   58.0078   33.9239   48.3286 H   0  0  0  0  0  0  0  0  0  0  0  0
   59.7069   35.5426   47.4747 H   0  0  0  0  0  0  0  0  0  0  0  0
   60.3195   35.5518   45.0545 H   0  0  0  0  0  0  0  0  0  0  0  0
   59.2323   33.9474   43.4823 H   0  0  0  0  0  0  0  0  0  0  0  0
  1  2  2  0
  2  3  1  0
  3  4  1  0
  4  5  1  0
  5  6  1  0
  6  7  1  0
  7  8  1  0
  8  9  2  0
  9 10  1  0
 10 11  2  0
 11 12  1  0
 12 13  2  0
  2 14  1  0
 14 15  2  3
 15 16  1  0
 16 17  2  0
 17 18  1  0
 18 19  2  0
 19 20  1  0
 20 21  2  0
 21 22  1  0
 14 23  1  0
 23 24  2  0
 23 25  1  0
 25 26  1  0
 26 27  1  0
 27 28  1  0
 28 29  2  0
 29 30  1  0
 30 31  2  0
 31 32  1  0
 32 33  2  0
 26 34  1  0
 34 35  2  0
 34 36  1  0
 13  8  1  0
 21 16  1  0
 33 28  1  0
  4 37  1  0
  4 38  1  0
  5 39  1  0
  5 40  1  0
  6 41  1  0
  6 42  1  0
  7 43  1  0
  7 44  1  0
  9 45  1  0
 10 46  1  0
 11 47  1  0
 12 48  1  0
 13 49  1  0
 15 50  1  0
 17 51  1  0
 18 52  1  0
 19 53  1  0
 20 54  1  0
 22 55  1  0
 26 56  1  1
 27 57  1  0
 27 58  1  0
 29 59  1  0
 30 60  1  0
 31 61  1  0
 32 62  1  0
 33 63  1  0
M  CHG  3   3  -1  25  -1  36  -1
M  END
>  <UniqueID>  (29) 
26

>  <SMILES>  (29) 
O=C([N-]CCCCc1ccccc1)C(=Cc1ccccc1O)C(=O)[N-][C@@H](Cc1ccccc1)C(=O)[O-]

>  <Energy>  (29) 
66.07116347533689

>  <Genealogy>  (29) 
O=C([N-]CCCCc1ccccc1)C(=Cc1ccccc1O)C(=O)[N-]C(Cc1ccccc1)C(=O)[O-] (protonated)
O=C([N-]CCCCc1ccccc1)C(=Cc1ccccc1O)C(=O)[N-][C@@H](Cc1ccccc1)C(=O)[O-] (chirality)
O=C([N-]CCCCc1ccccc1)C(=Cc1ccccc1O)C(=O)[N-][C@@H](Cc1ccccc1)C(=O)[O-] (3D coordinates assigned)
O=C([N-]CCCCc1ccccc1)C(=Cc1ccccc1O)C(=O)[N-][C@@H](Cc1ccccc1)C(=O)[O-] (optimized conformer: 66.07116347533689 kcal/mol)

>  <smiles>  (29) 
O=C(NCCCCc1ccccc1)C(=Cc1ccccc1O)C(=O)NC(Cc1ccccc1)C(=O)O

>  <score_type>  (29) 
oracle

>  <origin>  (29) 
adg

>  <m_score__min__energy>  (29) 
-15.17

>  <m_primary>  (29) 
energy

$$$$
29:0
     RDKit          3D

 31 33  0  0  0  0  0  0  0  0999 V2000
   57.5946   21.9102   42.5360 H   0  0  0  0  0  0  0  0  0  0  0  0
   56.6150   21.7830   43.0200 C   0  0  0  0  0  0  0  0  0  0  0  0
   56.0170   20.8811   42.8227 H   0  0  0  0  0  0  0  0  0  0  0  0
   56.1540   22.7190   43.8430 C   0  0  0  0  0  0  0  0  0  0  0  0
   54.9620   22.6330   44.4730 N   0  0  0  0  0  0  0  0  0  0  0  0
   54.7320   23.7210   45.2570 C   0  0  0  0  0  0  0  0  0  0  0  0
   53.6740   23.8290   45.9320 O   0  0  0  0  0  0  0  0  0  0  0  0
   55.7410   24.6880   45.2520 C   0  0  0  0  0  0  0  0  0  0  0  0
   55.7410   25.8240   45.9670 C   0  0  0  0  0  0  0  0  0  0  0  0
   54.8420   26.0763   46.5485 H   0  0  0  0  0  0  0  0  0  0  0  0
   56.8910   26.7530   46.0110 C   0  0  0  0  0  0  0  0  0  0  0  0
   56.7650   28.0980   45.6210 C   0  0  0  0  0  0  0  0  0  0  0  0
   55.5230   28.5850   45.2150 O   0  0  0  0  0  0  0  0  0  0  0  0
   57.8470   28.9370   45.6730 N   0  0  0  0  0  0  0  0  0  0  0  0
   57.7130   30.3050   45.2390 C   0  0  0  0  0  0  0  0  0  0  0  0
   57.7950   31.3560   46.1690 C   0  0  0  0  0  0  0  0  0  0  0  0
   57.9636   31.1343   47.2332 H   0  0  0  0  0  0  0  0  0  0  0  0
   57.6630   32.6820   45.7460 C   0  0  0  0  0  0  0  0  0  0  0  0
   57.7291   33.5012   46.4772 H   0  0  0  0  0  0  0  0  0  0  0  0
   57.4470   32.9680   44.3940 C   0  0  0  0  0  0  0  0  0  0  0  0
   57.3424   34.0117   44.0626 H   0  0  0  0  0  0  0  0  0  0  0  0
   57.3640   31.9280   43.4640 C   0  0  0  0  0  0  0  0  0  0  0  0
   57.1946   32.1542   42.4009 H   0  0  0  0  0  0  0  0  0  0  0  0
   57.4960   30.6000   43.8830 C   0  0  0  0  0  0  0  0  0  0  0  0
   57.4296   29.7841   43.1482 H   0  0  0  0  0  0  0  0  0  0  0  0
   59.0500   28.4730   46.1400 C   0  0  0  0  0  0  0  0  0  0  0  0
   60.0590   29.2280   46.1840 O   0  0  0  0  0  0  0  0  0  0  0  0
   59.1700   27.1880   46.5570 N   0  0  0  0  0  0  0  0  0  0  0  0
   58.1270   26.3260   46.5090 C   0  0  0  0  0  0  0  0  0  0  0  0
   58.2860   25.1400   46.9060 O   0  0  0  0  0  0  0  0  0  0  0  0
   56.9690   24.1390   44.2310 S   0  0  0  0  0  0  0  0  0  0  0  0
  1  2  1  0
  2  3  1  0
  2  4  2  0
  4  5  1  0
  5  6  1  0
  6  7  2  0
  6  8  1  0
  8  9  2  0
  9 10  1  0
  9 11  1  0
 11 12  2  0
 12 13  1  0
 12 14  1  0
 14 15  1  0
 15 16  2  0
 16 17  1  0
 16 18  1  0
 18 19  1  0
 18 20  2  0
 20 21  1  0
 20 22  1  0
 22 23  1  0
 22 24  2  0
 24 25  1  0
 14 26  1  0
 26 27  2  0
 26 28  1  0
 28 29  1  0
 29 30  2  0
  8 31  1  0
 31  4  1  0
 29 11  1  0
 24 15  1  0
M  CHG  3   5  -1  13  -1  28  -1
M  END
>  <UniqueID>  (30) 
27

>  <SMILES>  (30) 
C=c1[n-]c(=O)/c(=C/c2c([O-])n(-c3ccccc3)c(=O)[n-]c2=O)s1

>  <Energy>  (30) 
82.36427090812508

>  <Genealogy>  (30) 
C=c1[n-]c(=O)c(=Cc2c([O-])n(-c3ccccc3)c(=O)[n-]c2=O)s1 (protonated)
C=c1[n-]c(=O)/c(=C/c2c([O-])n(-c3ccccc3)c(=O)[n-]c2=O)s1 (cis-trans isomerization)
C=c1[n-]c(=O)/c(=C/c2c([O-])n(-c3ccccc3)c(=O)[n-]c2=O)s1 (3D coordinates assigned)
C=c1[n-]c(=O)/c(=C/c2c([O-])n(-c3ccccc3)c(=O)[n-]c2=O)s1 (optimized conformer: 82.36427090812508 kcal/mol)

>  <smiles>  (30) 
C=c1[nH]c(=O)c(=Cc2c(O)n(-c3ccccc3)c(=O)[nH]c2=O)s1

>  <score_type>  (30) 
oracle

>  <origin>  (30) 
adg

>  <m_score__min__energy>  (30) 
-12.960000000000001

>  <m_primary>  (30) 
energy

$$$$
30:0
     RDKit          3D

 53 56  0  0  0  0  0  0  0  0999 V2000
   57.0050   31.0920   43.9210 C   0  0  0  0  0  0  0  0  0  0  0  0
   57.0530   31.5310   45.2720 O   0  0  0  0  0  0  0  0  0  0  0  0
   58.1620   32.1620   45.8570 C   0  0  0  0  0  0  0  0  0  0  0  0
   59.3300   31.4170   46.0400 C   0  0  0  0  0  0  0  0  0  0  0  0
   60.4570   31.9900   46.6380 C   0  0  0  0  0  0  0  0  0  0  0  0
   60.4430   33.3400   47.0490 C   0  0  0  0  0  0  0  0  0  0  0  0
   61.5940   33.9610   47.6930 N   0  0  2  0  0  0  0  0  0  0  0  0
   62.8140   33.4470   47.1440 C   0  0  0  0  0  0  0  0  0  0  0  0
   63.1810   33.7190   46.0080 O   0  0  0  0  0  0  0  0  0  0  0  0
   63.6360   32.6320   48.0680 C   0  0  0  0  0  0  0  0  0  0  0  0
   62.7780   32.5730   49.3220 C   0  0  0  0  0  0  0  0  0  0  0  0
   61.7320   33.6920   49.1460 C   0  0  2  0  0  0  0  0  0  0  0  0
   60.4300   33.4290   49.8780 C   0  0  0  0  0  0  0  0  0  0  0  0
   59.6290   34.3700   50.1300 O   0  0  0  0  0  0  0  0  0  0  0  0
   60.0990   32.0990   50.2920 N   0  0  0  0  0  0  0  0  0  0  0  0
   59.2240   31.2740   49.4580 C   0  0  0  0  0  0  0  0  0  0  0  0
   58.1420   30.6160   50.3230 C   0  0  0  0  0  0  0  0  0  0  0  0
   58.6810   30.1590   51.6120 N   0  0  0  0  0  0  0  0  0  0  0  0
   57.7590   29.7630   52.6390 C   0  0  0  0  0  0  0  0  0  0  0  0
   56.8170   28.9720   52.3600 O   0  0  0  0  0  0  0  0  0  0  0  0
   57.8990   30.2650   54.0470 C   0  0  0  0  0  0  0  0  0  0  0  0
   56.6220   30.8730   54.6110 C   0  0  0  0  0  0  0  0  0  0  0  0
   57.7770   31.7730   54.2170 C   0  0  0  0  0  0  0  0  0  0  0  0
   60.1270   30.1820   51.8600 C   0  0  0  0  0  0  0  0  0  0  0  0
   60.6990   31.5610   51.5170 C   0  0  0  0  0  0  0  0  0  0  0  0
   59.2720   34.0930   46.8350 C   0  0  0  0  0  0  0  0  0  0  0  0
   58.1400   33.5090   46.2590 C   0  0  0  0  0  0  0  0  0  0  0  0
   56.8855   29.9988   43.8947 H   0  0  0  0  0  0  0  0  0  0  0  0
   56.1534   31.5663   43.4114 H   0  0  0  0  0  0  0  0  0  0  0  0
   57.9390   31.3711   43.4114 H   0  0  0  0  0  0  0  0  0  0  0  0
   59.3634   30.3682   45.7100 H   0  0  0  0  0  0  0  0  0  0  0  0
   61.3620   31.3833   46.7893 H   0  0  0  0  0  0  0  0  0  0  0  0
   61.5860   34.9980   47.5380 H   0  0  0  0  0  0  0  0  0  0  0  0
   63.8103   31.6255   47.6598 H   0  0  0  0  0  0  0  0  0  0  0  0
   64.6369   33.0524   48.2454 H   0  0  0  0  0  0  0  0  0  0  0  0
   62.2849   31.5934   49.4068 H   0  0  0  0  0  0  0  0  0  0  0  0
   63.3747   32.7067   50.2363 H   0  0  0  0  0  0  0  0  0  0  0  0
   62.0821   34.6125   49.6361 H   0  0  0  0  0  0  0  0  0  0  0  0
   58.7460   31.9061   48.6952 H   0  0  0  0  0  0  0  0  0  0  0  0
   59.8231   30.4903   48.9714 H   0  0  0  0  0  0  0  0  0  0  0  0
   57.3416   31.3470   50.5101 H   0  0  0  0  0  0  0  0  0  0  0  0
   57.7561   29.7394   49.7821 H   0  0  0  0  0  0  0  0  0  0  0  0
   58.6258   29.5070   54.3743 H   0  0  0  0  0  0  0  0  0  0  0  0
   55.6996   30.8683   54.0116 H   0  0  0  0  0  0  0  0  0  0  0  0
   56.0290   30.7252   55.5256 H   0  0  0  0  0  0  0  0  0  0  0  0
   57.6919   32.4208   53.3320 H   0  0  0  0  0  0  0  0  0  0  0  0
   58.3677   32.5476   54.7279 H   0  0  0  0  0  0  0  0  0  0  0  0
   60.3175   29.9629   52.9210 H   0  0  0  0  0  0  0  0  0  0  0  0
   60.6124   29.4239   51.2278 H   0  0  0  0  0  0  0  0  0  0  0  0
   60.4937   32.2507   52.3489 H   0  0  0  0  0  0  0  0  0  0  0  0
   61.7820   31.4563   51.3552 H   0  0  0  0  0  0  0  0  0  0  0  0
   59.2480   35.1539   47.1247 H   0  0  0  0  0  0  0  0  0  0  0  0
   57.2271   34.1066   46.1195 H   0  0  0  0  0  0  0  0  0  0  0  0
  1  2  1  0
  2  3  1  0
  3  4  2  0
  4  5  1  0
  5  6  2  0
  6  7  1  0
  7  8  1  0
  8  9  2  0
  8 10  1  0
 10 11  1  0
 11 12  1  0
 12 13  1  0
 13 14  2  0
 13 15  1  0
 15 16  1  0
 16 17  1  0
 17 18  1  0
 18 19  1  0
 19 20  2  0
 19 21  1  0
 21 22  1  0
 22 23  1  0
 18 24  1  0
 24 25  1  0
  6 26  1  0
 26 27  2  0
 27  3  1  0
 12  7  1  0
 25 15  1  0
 23 21  1  0
  1 28  1  0
  1 29  1  0
  1 30  1  0
  4 31  1  0
  5 32  1  0
  7 33  1  1
 10 34  1  0
 10 35  1  0
 11 36  1  0
 11 37  1  0
 12 38  1  1
 16 39  1  0
 16 40  1  0
 17 41  1  0
 17 42  1  0
 21 43  1  0
 22 44  1  0
 22 45  1  0
 23 46  1  0
 23 47  1  0
 24 48  1  0
 24 49  1  0
 25 50  1  0
 25 51  1  0
 26 52  1  0
 27 53  1  0
M  CHG  1   7   1
M  END
>  <UniqueID>  (31) 
28

>  <SMILES>  (31) 
COc1ccc([N@@H+]2C(=O)CC[C@@H]2C(=O)N2CCN(C(=O)C3CC3)CC2)cc1

>  <Energy>  (31) 
334.15750672298117

>  <Genealogy>  (31) 
COc1ccc([NH+]2C(=O)CCC2C(=O)N2CCN(C(=O)C3CC3)CC2)cc1 (protonated)
COc1ccc([N@@H+]2C(=O)CC[C@@H]2C(=O)N2CCN(C(=O)C3CC3)CC2)cc1 (chirality)
COc1ccc([N@@H+]2C(=O)CC[C@@H]2C(=O)N2CCN(C(=O)C3CC3)CC2)cc1 (3D coordinates assigned)
COc1ccc([N@@H+]2C(=O)CC[C@@H]2C(=O)N2CCN(C(=O)C3CC3)CC2)cc1 (nonaromatic ring conformer: 334.15750672298117 kcal/mol)

>  <smiles>  (31) 
COc1ccc(N2C(=O)CCC2C(=O)N2CCN(C(=O)C3CC3)CC2)cc1

>  <score_type>  (31) 
oracle

>  <origin>  (31) 
adg

>  <m_score__min__energy>  (31) 
-5.6600000000000001

>  <m_primary>  (31) 
energy

$$$$
31:0
     RDKit          3D

 53 57  0  0  0  0  0  0  0  0999 V2000
   57.0000   31.5890   51.3680 C   0  0  0  0  0  0  0  0  0  0  0  0
   58.2120   30.8680   51.0070 N   0  0  0  0  0  0  0  0  0  0  0  0
   59.2880   31.3960   50.3950 C   0  0  0  0  0  0  0  0  0  0  0  0
   60.1870   30.3760   50.1680 C   0  0  0  0  0  0  0  0  0  0  0  0
   61.5370   30.4780   49.5040 C   0  0  0  0  0  0  0  0  0  0  0  0
   61.7200   31.7060   48.6860 N   0  0  2  0  0  0  0  0  0  0  0  0
   62.8340   31.5320   47.7200 C   0  0  0  0  0  0  0  0  0  0  0  0
   63.5350   32.8440   47.3030 C   0  0  0  0  0  0  0  0  0  0  0  0
   62.6040   33.8590   46.6210 C   0  0  0  0  0  0  0  0  0  0  0  0
   61.3950   34.1780   47.4050 N   0  0  0  0  0  0  0  0  0  0  0  0
   60.2300   34.6410   46.6870 C   0  0  0  0  0  0  0  0  0  0  0  0
   60.0560   35.8790   46.5220 O   0  0  0  0  0  0  0  0  0  0  0  0
   59.2240   33.7050   46.1330 C   0  0  0  0  0  0  0  0  0  0  0  0
   58.2100   34.1900   45.2910 C   0  0  0  0  0  0  0  0  0  0  0  0
   57.2500   33.3240   44.7640 C   0  0  0  0  0  0  0  0  0  0  0  0
   57.2920   31.9600   45.0610 C   0  0  0  0  0  0  0  0  0  0  0  0
   56.3410   31.1250   44.5440 N   0  0  0  0  0  0  0  0  0  0  0  0
   56.3380   29.7880   44.8000 C   0  0  0  0  0  0  0  0  0  0  0  0
   55.4450   29.0510   44.3070 O   0  0  0  0  0  0  0  0  0  0  0  0
   57.3360   29.2610   45.6130 C   0  0  0  0  0  0  0  0  0  0  0  0
   57.5670   27.6660   46.0860 S   0  0  0  0  0  0  0  0  0  0  0  0
   58.9470   27.9780   47.0070 C   0  0  0  0  0  0  0  0  0  0  0  0
   59.2370   29.3390   46.9480 C   0  0  0  0  0  0  0  0  0  0  0  0
   58.3250   30.0650   46.1600 C   0  0  0  0  0  0  0  0  0  0  0  0
   58.3240   31.4480   45.8950 C   0  0  0  0  0  0  0  0  0  0  0  0
   59.2880   32.3300   46.4160 C   0  0  0  0  0  0  0  0  0  0  0  0
   61.4350   34.2400   48.8790 C   0  0  0  0  0  0  0  0  0  0  0  0
   61.8760   32.9100   49.5440 C   0  0  0  0  0  0  0  0  0  0  0  0
   59.5770   29.2360   50.6580 C   0  0  0  0  0  0  0  0  0  0  0  0
   58.3690   29.5610   51.1580 N   0  0  0  0  0  0  0  0  0  0  0  0
   56.9158   31.6391   52.4636 H   0  0  0  0  0  0  0  0  0  0  0  0
   57.0434   32.6082   50.9566 H   0  0  0  0  0  0  0  0  0  0  0  0
   56.1250   31.0645   50.9566 H   0  0  0  0  0  0  0  0  0  0  0  0
   59.4256   32.4532   50.1242 H   0  0  0  0  0  0  0  0  0  0  0  0
   62.3090   30.4666   50.2875 H   0  0  0  0  0  0  0  0  0  0  0  0
   61.6173   29.6236   48.8158 H   0  0  0  0  0  0  0  0  0  0  0  0
   60.8280   31.7870   48.1460 H   0  0  0  0  0  0  0  0  0  0  0  0
   63.5855   30.8722   48.1782 H   0  0  0  0  0  0  0  0  0  0  0  0
   62.3905   31.1114   46.8054 H   0  0  0  0  0  0  0  0  0  0  0  0
   63.9571   33.3126   48.2043 H   0  0  0  0  0  0  0  0  0  0  0  0
   64.3060   32.5735   46.5665 H   0  0  0  0  0  0  0  0  0  0  0  0
   63.1665   34.7899   46.4567 H   0  0  0  0  0  0  0  0  0  0  0  0
   62.2645   33.4010   45.6803 H   0  0  0  0  0  0  0  0  0  0  0  0
   58.1718   35.2614   45.0446 H   0  0  0  0  0  0  0  0  0  0  0  0
   56.4567   33.7179   44.1117 H   0  0  0  0  0  0  0  0  0  0  0  0
   59.5249   27.2264   47.5647 H   0  0  0  0  0  0  0  0  0  0  0  0
   60.0919   29.7994   47.4648 H   0  0  0  0  0  0  0  0  0  0  0  0
   60.0982   31.9404   47.0499 H   0  0  0  0  0  0  0  0  0  0  0  0
   62.1428   35.0283   49.1750 H   0  0  0  0  0  0  0  0  0  0  0  0
   60.4105   34.4480   49.2213 H   0  0  0  0  0  0  0  0  0  0  0  0
   62.9372   32.9997   49.8192 H   0  0  0  0  0  0  0  0  0  0  0  0
   61.2156   32.7618   50.4111 H   0  0  0  0  0  0  0  0  0  0  0  0
   60.0093   28.2246   50.6421 H   0  0  0  0  0  0  0  0  0  0  0  0
  1  2  1  0
  2  3  1  0
  3  4  2  0
  4  5  1  0
  5  6  1  0
  6  7  1  0
  7  8  1  0
  8  9  1  0
  9 10  1  0
 10 11  1  0
 11 12  2  0
 11 13  1  0
 13 14  2  0
 14 15  1  0
 15 16  2  0
 16 17  1  0
 17 18  1  0
 18 19  2  0
 18 20  1  0
 20 21  1  0
 21 22  1  0
 22 23  2  0
 23 24  1  0
 24 25  1  0
 25 26  2  0
 10 27  1  0
 27 28  1  0
  4 29  1  0
 29 30  2  0
 30  2  1  0
 28  6  1  0
 26 13  1  0
 25 16  1  0
 24 20  2  0
  1 31  1  0
  1 32  1  0
  1 33  1  0
  3 34  1  0
  5 35  1  0
  5 36  1  0
  6 37  1  6
  7 38  1  0
  7 39  1  0
  8 40  1  0
  8 41  1  0
  9 42  1  0
  9 43  1  0
 14 44  1  0
 15 45  1  0
 22 46  1  0
 23 47  1  0
 26 48  1  0
 27 49  1  0
 27 50  1  0
 28 51  1  0
 28 52  1  0
 29 53  1  0
M  CHG  2   6   1  17  -1
M  END
>  <UniqueID>  (32) 
29

>  <SMILES>  (32) 
Cn1cc(C[N@@H+]2CCCN(C(=O)c3ccc4[n-]c(=O)c5sccc5c4c3)CC2)cn1

>  <Energy>  (32) 
139.354829007013

>  <Genealogy>  (32) 
Cn1cc(C[NH+]2CCCN(C(=O)c3ccc4[n-]c(=O)c5sccc5c4c3)CC2)cn1 (protonated)
Cn1cc(C[N@@H+]2CCCN(C(=O)c3ccc4[n-]c(=O)c5sccc5c4c3)CC2)cn1 (chirality)
Cn1cc(C[N@@H+]2CCCN(C(=O)c3ccc4[n-]c(=O)c5sccc5c4c3)CC2)cn1 (3D coordinates assigned)
Cn1cc(C[N@@H+]2CCCN(C(=O)c3ccc4[n-]c(=O)c5sccc5c4c3)CC2)cn1 (nonaromatic ring conformer: 139.354829007013 kcal/mol)

>  <smiles>  (32) 
Cn1cc(CN2CCCN(C(=O)c3ccc4[nH]c(=O)c5sccc5c4c3)CC2)cn1

>  <score_type>  (32) 
oracle

>  <origin>  (32) 
adg

>  <m_score__min__energy>  (32) 
-8.3900000000000006

>  <m_primary>  (32) 
energy

$$$$
32:0
     RDKit          3D

 55 58  0  0  0  0  0  0  0  0999 V2000
   60.3600   26.6030   46.8020 C   0  0  0  0  0  0  0  0  0  0  0  0
   59.2440   27.2140   46.3730 C   0  0  0  0  0  0  0  0  0  0  0  0
   57.9430   26.6840   46.3440 C   0  0  0  0  0  0  0  0  0  0  0  0
   57.4860   25.4350   46.5660 C   0  0  0  0  0  0  0  0  0  0  0  0
   56.5720   24.6860   45.6940 C   0  0  0  0  0  0  0  0  0  0  0  0
   56.8910   23.5100   45.1240 N   0  0  0  0  0  0  0  0  0  0  0  0
   55.7480   23.1420   44.5060 C   0  0  0  0  0  0  0  0  0  0  0  0
   55.6510   22.0800   43.8360 O   0  0  0  0  0  0  0  0  0  0  0  0
   54.7150   23.9960   44.6670 N   0  0  0  0  0  0  0  0  0  0  0  0
   55.2440   24.9620   45.4350 C   0  0  0  0  0  0  0  0  0  0  0  0
   54.5160   26.0530   45.9050 O   0  0  0  0  0  0  0  0  0  0  0  0
   57.1070   27.7350   46.0080 C   0  0  0  0  0  0  0  0  0  0  0  0
   57.9070   28.8400   45.8100 C   0  0  0  0  0  0  0  0  0  0  0  0
   57.3890   30.1710   45.4320 C   0  0  0  0  0  0  0  0  0  0  0  0
   56.3660   30.2340   44.7000 O   0  0  0  0  0  0  0  0  0  0  0  0
   58.0080   31.3850   45.9010 N   0  0  0  0  0  0  0  0  0  0  0  0
   57.8560   32.6060   45.0970 C   0  0  0  0  0  0  0  0  0  0  0  0
   58.6240   33.7760   45.7130 C   0  0  0  0  0  0  0  0  0  0  0  0
   59.9170   33.2790   46.2080 N   0  0  0  0  0  0  0  0  0  0  0  0
   60.9240   34.3430   46.4220 C   0  0  0  0  0  0  0  0  0  0  0  0
   62.3880   33.8540   46.3700 C   0  0  0  0  0  0  0  0  0  0  0  0
   62.8770   33.5260   47.7510 C   0  0  0  0  0  0  0  0  0  0  0  0
   63.7040   32.4160   47.9750 C   0  0  0  0  0  0  0  0  0  0  0  0
   64.1140   32.1170   49.2760 C   0  0  0  0  0  0  0  0  0  0  0  0
   63.6920   32.9180   50.3380 C   0  0  0  0  0  0  0  0  0  0  0  0
   62.8590   34.0100   50.0800 C   0  0  0  0  0  0  0  0  0  0  0  0
   62.4710   34.2850   48.8060 N   0  0  0  0  0  0  0  0  0  0  0  0
   59.7700   32.3780   47.3720 C   0  0  0  0  0  0  0  0  0  0  0  0
   58.5160   31.4800   47.2790 C   0  0  0  0  0  0  0  0  0  0  0  0
   59.2090   28.5200   46.0000 N   0  0  0  0  0  0  0  0  0  0  0  0
   60.3650   29.4080   45.8270 C   0  0  0  0  0  0  0  0  0  0  0  0
   61.3235   27.1328   46.7714 H   0  0  0  0  0  0  0  0  0  0  0  0
   60.3108   25.5726   47.1840 H   0  0  0  0  0  0  0  0  0  0  0  0
   57.8285   24.9320   47.4824 H   0  0  0  0  0  0  0  0  0  0  0  0
   53.6380   25.9310   46.3930 H   0  0  0  0  0  0  0  0  0  0  0  0
   56.0115   27.6958   45.9163 H   0  0  0  0  0  0  0  0  0  0  0  0
   58.2412   32.4182   44.0839 H   0  0  0  0  0  0  0  0  0  0  0  0
   56.7886   32.8699   45.0648 H   0  0  0  0  0  0  0  0  0  0  0  0
   58.7920   34.5514   44.9511 H   0  0  0  0  0  0  0  0  0  0  0  0
   58.0459   34.2107   46.5418 H   0  0  0  0  0  0  0  0  0  0  0  0
   60.7884   35.1071   45.6425 H   0  0  0  0  0  0  0  0  0  0  0  0
   60.7586   34.7329   47.4372 H   0  0  0  0  0  0  0  0  0  0  0  0
   62.4478   32.9539   45.7405 H   0  0  0  0  0  0  0  0  0  0  0  0
   63.0169   34.6516   45.9477 H   0  0  0  0  0  0  0  0  0  0  0  0
   64.0271   31.7861   47.1331 H   0  0  0  0  0  0  0  0  0  0  0  0
   64.7678   31.2524   49.4632 H   0  0  0  0  0  0  0  0  0  0  0  0
   64.0113   32.6924   51.3662 H   0  0  0  0  0  0  0  0  0  0  0  0
   62.5168   34.6478   50.9083 H   0  0  0  0  0  0  0  0  0  0  0  0
   60.6598   31.7341   47.4327 H   0  0  0  0  0  0  0  0  0  0  0  0
   59.6607   33.0081   48.2670 H   0  0  0  0  0  0  0  0  0  0  0  0
   58.7745   30.4710   47.6327 H   0  0  0  0  0  0  0  0  0  0  0  0
   57.7286   31.9298   47.9016 H   0  0  0  0  0  0  0  0  0  0  0  0
   60.7507   29.7043   46.8137 H   0  0  0  0  0  0  0  0  0  0  0  0
   61.1524   28.8803   45.2689 H   0  0  0  0  0  0  0  0  0  0  0  0
   60.0582   30.3048   45.2689 H   0  0  0  0  0  0  0  0  0  0  0  0
  1  2  2  0
  2  3  1  0
  3  4  2  3
  4  5  1  0
  5  6  1  0
  6  7  1  0
  7  8  2  0
  7  9  1  0
  9 10  1  0
 10 11  1  0
  3 12  1  0
 12 13  2  0
 13 14  1  0
 14 15  2  0
 14 16  1  0
 16 17  1  0
 17 18  1  0
 18 19  1  0
 19 20  1  0
 20 21  1  0
 21 22  1  0
 22 23  2  0
 23 24  1  0
 24 25  2  0
 25 26  1  0
 26 27  2  0
 19 28  1  0
 28 29  1  0
 13 30  1  0
 30 31  1  0
 30  2  1  0
 10  5  2  0
 29 16  1  0
 27 22  1  0
  1 32  1  0
  1 33  1  0
  4 34  1  0
 11 35  1  0
 12 36  1  0
 17 37  1  0
 17 38  1  0
 18 39  1  0
 18 40  1  0
 20 41  1  0
 20 42  1  0
 21 43  1  0
 21 44  1  0
 23 45  1  0
 24 46  1  0
 25 47  1  0
 26 48  1  0
 28 49  1  0
 28 50  1  0
 29 51  1  0
 29 52  1  0
 31 53  1  0
 31 54  1  0
 31 55  1  0
M  CHG  2   6  -1   9  -1
M  END
>  <UniqueID>  (33) 
30

>  <SMILES>  (33) 
C=c1c(=Cc2[n-]c(=O)[n-]c2O)cc(C(=O)N2CCN(CCc3ccccn3)CC2)n1C

>  <Energy>  (33) 
139.59647769407277

>  <Genealogy>  (33) 
C=c1c(=Cc2[n-]c(=O)[n-]c2O)cc(C(=O)N2CCN(CCc3ccccn3)CC2)n1C (protonated)
C=c1c(=Cc2[n-]c(=O)[n-]c2O)cc(C(=O)N2CCN(CCc3ccccn3)CC2)n1C (3D coordinates assigned)
C=c1c(=Cc2[n-]c(=O)[n-]c2O)cc(C(=O)N2CCN(CCc3ccccn3)CC2)n1C (nonaromatic ring conformer: 139.59647769407277 kcal/mol)

>  <smiles>  (33) 
C=c1c(=Cc2[nH]c(=O)[nH]c2O)cc(C(=O)N2CCN(CCc3ccccn3)CC2)n1C

>  <score_type>  (33) 
oracle

>  <origin>  (33) 
adg

>  <m_score__min__energy>  (33) 
-14.44

>  <m_primary>  (33) 
energy

$$$$
33:0
     RDKit          3D

 46 49  0  0  0  0  0  0  0  0999 V2000
   54.7380   26.3110   45.9910 N   0  0  0  0  0  0  0  0  0  0  0  0
   56.3060   25.5930   46.0960 S   0  0  0  0  0  0  0  0  0  0  0  0
   56.3970   24.4480   45.1260 O   0  0  0  0  0  0  0  0  0  0  0  0
   56.5250   25.0660   47.4860 O   0  0  0  0  0  0  0  0  0  0  0  0
   57.5310   26.7990   45.7130 C   0  0  0  0  0  0  0  0  0  0  0  0
   58.1320   26.8140   44.4490 C   0  0  0  0  0  0  0  0  0  0  0  0
   59.0900   27.7790   44.1410 C   0  0  0  0  0  0  0  0  0  0  0  0
   59.4540   28.7390   45.0890 C   0  0  0  0  0  0  0  0  0  0  0  0
   58.8580   28.7440   46.3670 C   0  0  0  0  0  0  0  0  0  0  0  0
   59.2290   29.7660   47.3870 C   0  0  0  0  0  0  0  0  0  0  0  0
   60.1060   29.4540   48.2980 N   0  0  0  0  0  0  0  0  0  0  0  0
   60.5260   30.3550   49.3240 C   0  0  0  0  0  0  0  0  0  0  0  0
   60.1000   31.6820   49.3020 C   0  0  0  0  0  0  0  0  0  0  0  0
   60.5010   32.5310   50.2880 N   0  0  0  0  0  0  0  0  0  0  0  0
   61.3220   32.1100   51.2860 C   0  0  0  0  0  0  0  0  0  0  0  0
   61.7560   30.8230   51.3120 N   0  0  0  0  0  0  0  0  0  0  0  0
   61.3770   29.9390   50.3530 C   0  0  0  0  0  0  0  0  0  0  0  0
   61.7920   28.7500   50.3980 O   0  0  0  0  0  0  0  0  0  0  0  0
   59.2350   32.1200   48.2360 N   0  0  0  0  0  0  0  0  0  0  0  0
   58.9400   33.5170   48.0300 C   0  0  0  0  0  0  0  0  0  0  0  0
   59.3820   34.3790   48.8390 O   0  0  0  0  0  0  0  0  0  0  0  0
   58.1250   33.9320   46.9320 N   0  0  0  0  0  0  0  0  0  0  0  0
   58.7080   34.0160   45.3060 S   0  0  0  0  0  0  0  0  0  0  0  0
   60.1960   33.8000   45.2850 O   0  0  0  0  0  0  0  0  0  0  0  0
   58.3800   35.3680   44.7360 O   0  0  0  0  0  0  0  0  0  0  0  0
   57.9310   32.7600   44.3480 C   0  0  0  0  0  0  0  0  0  0  0  0
   57.0980   31.8190   44.9700 C   0  0  0  0  0  0  0  0  0  0  0  0
   56.4820   30.8180   44.2110 C   0  0  0  0  0  0  0  0  0  0  0  0
   56.6990   30.7500   42.8320 C   0  0  0  0  0  0  0  0  0  0  0  0
   57.5340   31.6830   42.2100 C   0  0  0  0  0  0  0  0  0  0  0  0
   58.1520   32.6850   42.9650 C   0  0  0  0  0  0  0  0  0  0  0  0
   58.5300   31.1170   47.4160 C   0  0  0  0  0  0  0  0  0  0  0  0
   57.8880   27.7660   46.6640 C   0  0  0  0  0  0  0  0  0  0  0  0
   54.7170   27.0980   46.6760 H   0  0  0  0  0  0  0  0  0  0  0  0
   57.8479   26.0630   43.6972 H   0  0  0  0  0  0  0  0  0  0  0  0
   59.5615   27.7847   43.1472 H   0  0  0  0  0  0  0  0  0  0  0  0
   60.2109   29.4962   44.8365 H   0  0  0  0  0  0  0  0  0  0  0  0
   61.6352   32.8118   52.0730 H   0  0  0  0  0  0  0  0  0  0  0  0
   56.9287   31.8679   46.0558 H   0  0  0  0  0  0  0  0  0  0  0  0
   55.8258   30.0833   44.7004 H   0  0  0  0  0  0  0  0  0  0  0  0
   56.2132   29.9630   42.2365 H   0  0  0  0  0  0  0  0  0  0  0  0
   57.7052   31.6289   41.1248 H   0  0  0  0  0  0  0  0  0  0  0  0
   58.8121   33.4150   42.4737 H   0  0  0  0  0  0  0  0  0  0  0  0
   57.5189   30.9784   47.8264 H   0  0  0  0  0  0  0  0  0  0  0  0
   58.5093   31.4959   46.3835 H   0  0  0  0  0  0  0  0  0  0  0  0
   57.4055   27.7609   47.6525 H   0  0  0  0  0  0  0  0  0  0  0  0
  1  2  1  0
  2  3  2  0
  2  4  2  0
  2  5  1  0
  5  6  2  0
  6  7  1  0
  7  8  2  0
  8  9  1  0
  9 10  1  0
 10 11  2  0
 11 12  1  0
 12 13  2  0
 13 14  1  0
 14 15  1  0
 15 16  2  0
 16 17  1  0
 17 18  2  0
 13 19  1  0
 19 20  1  0
 20 21  2  0
 20 22  1  0
 22 23  1  0
 23 24  2  0
 23 25  2  0
 23 26  1  0
 26 27  2  0
 27 28  1  0
 28 29  2  0
 29 30  1  0
 30 31  2  0
 19 32  1  0
  9 33  2  0
 33  5  1  0
 32 10  1  0
 17 12  1  0
 31 26  1  0
  1 34  1  0
  6 35  1  0
  7 36  1  0
  8 37  1  0
 15 38  1  0
 27 39  1  0
 28 40  1  0
 29 41  1  0
 30 42  1  0
 31 43  1  0
 32 44  1  0
 32 45  1  0
 33 46  1  0
M  CHG  3   1  -1  14  -1  22  -1
M  END
>  <UniqueID>  (34) 
31

>  <SMILES>  (34) 
[NH-]S(=O)(=O)c1cccc(C2=Nc3c([n-]cnc3=O)N(C(=O)[N-]S(=O)(=O)c3ccccc3)C2)c1

>  <Energy>  (34) 
61.79923268931791

>  <Genealogy>  (34) 
[NH-]S(=O)(=O)c1cccc(C2=Nc3c([n-]cnc3=O)N(C(=O)[N-]S(=O)(=O)c3ccccc3)C2)c1 (protonated)
[NH-]S(=O)(=O)c1cccc(C2=Nc3c([n-]cnc3=O)N(C(=O)[N-]S(=O)(=O)c3ccccc3)C2)c1 (3D coordinates assigned)
[NH-]S(=O)(=O)c1cccc(C2=Nc3c([n-]cnc3=O)N(C(=O)[N-]S(=O)(=O)c3ccccc3)C2)c1 (nonaromatic ring conformer: 61.79923268931791 kcal/mol)

>  <smiles>  (34) 
NS(=O)(=O)c1cccc(C2=Nc3c([nH]cnc3=O)N(C(=O)NS(=O)(=O)c3ccccc3)C2)c1

>  <score_type>  (34) 
oracle

>  <origin>  (34) 
adg

>  <m_score__min__energy>  (34) 
-14.529999999999999

>  <m_primary>  (34) 
energy

$$$$
34:0
     RDKit          3D

 53 57  0  0  0  0  0  0  0  0999 V2000
   55.6216   26.0669   46.4688 H   0  0  0  0  0  0  0  0  0  0  0  0
   56.4170   26.0640   45.7090 C   0  0  0  0  0  0  0  0  0  0  0  0
   56.3395   25.4016   44.8342 H   0  0  0  0  0  0  0  0  0  0  0  0
   57.4720   26.8610   45.8480 C   0  0  0  0  0  0  0  0  0  0  0  0
   57.6420   27.6820   46.8570 O   0  0  0  0  0  0  0  0  0  0  0  0
   58.7800   28.3180   46.6870 C   0  0  0  0  0  0  0  0  0  0  0  0
   59.2620   29.2370   47.5370 C   0  0  0  0  0  0  0  0  0  0  0  0
   58.6910   29.5300   49.0980 S   0  0  0  0  0  0  0  0  0  0  0  0
   59.8030   30.7540   49.4100 C   0  0  0  0  0  0  0  0  0  0  0  0
   59.8740   31.4110   50.5700 C   0  0  0  0  0  0  0  0  0  0  0  0
   60.6257   32.2019   50.7090 H   0  0  0  0  0  0  0  0  0  0  0  0
   59.1808   31.1614   51.3868 H   0  0  0  0  0  0  0  0  0  0  0  0
   60.6210   30.9550   48.3400 N   0  0  0  0  0  0  0  0  0  0  0  0
   61.6740   31.9340   48.2830 C   0  0  0  0  0  0  0  0  0  0  0  0
   63.0100   31.5060   48.3110 C   0  0  0  0  0  0  0  0  0  0  0  0
   63.2383   30.4308   48.3545 H   0  0  0  0  0  0  0  0  0  0  0  0
   64.0510   32.4350   48.2840 C   0  0  0  0  0  0  0  0  0  0  0  0
   65.0956   32.0911   48.3092 H   0  0  0  0  0  0  0  0  0  0  0  0
   63.7670   33.8020   48.2250 C   0  0  0  0  0  0  0  0  0  0  0  0
   64.5886   34.5330   48.2014 H   0  0  0  0  0  0  0  0  0  0  0  0
   62.4430   34.2410   48.1960 C   0  0  0  0  0  0  0  0  0  0  0  0
   62.2266   35.3182   48.1430 H   0  0  0  0  0  0  0  0  0  0  0  0
   61.3830   33.3180   48.2340 C   0  0  0  0  0  0  0  0  0  0  0  0
   59.9880   33.8100   48.1630 C   0  0  0  0  0  0  0  0  0  0  0  0
   59.4550   34.2970   49.1980 O   0  0  0  0  0  0  0  0  0  0  0  0
   59.2270   33.7300   46.9420 N   0  0  0  0  0  0  0  0  0  0  0  0
   57.7600   33.7030   46.9990 C   0  0  0  0  0  0  0  0  0  0  0  0
   57.4412   33.2759   47.9613 H   0  0  0  0  0  0  0  0  0  0  0  0
   57.3772   34.7294   46.8995 H   0  0  0  0  0  0  0  0  0  0  0  0
   57.2030   32.8470   45.8550 C   0  0  0  0  0  0  0  0  0  0  0  0
   57.3953   31.7884   46.0840 H   0  0  0  0  0  0  0  0  0  0  0  0
   56.1271   33.0625   45.7776 H   0  0  0  0  0  0  0  0  0  0  0  0
   57.8130   33.1640   44.5420 N   0  0  0  0  0  0  0  0  0  0  0  0
   57.8940   32.0190   43.6000 C   0  0  0  0  0  0  0  0  0  0  0  0
   58.1864   32.6520   42.7492 H   0  0  0  0  0  0  0  0  0  0  0  0
   56.8970   30.8940   43.8690 C   0  0  0  0  0  0  0  0  0  0  0  0
   56.2033   30.9674   44.7196 H   0  0  0  0  0  0  0  0  0  0  0  0
   56.1200   30.3890   43.2764 H   0  0  0  0  0  0  0  0  0  0  0  0
   58.3740   30.6580   44.1160 C   0  0  0  0  0  0  0  0  0  0  0  0
   58.7508   30.5620   45.1450 H   0  0  0  0  0  0  0  0  0  0  0  0
   59.1094   29.9136   43.7768 H   0  0  0  0  0  0  0  0  0  0  0  0
   58.8770   34.1890   44.5310 C   0  0  0  0  0  0  0  0  0  0  0  0
   59.3948   34.1576   43.5610 H   0  0  0  0  0  0  0  0  0  0  0  0
   58.4129   35.1731   44.6926 H   0  0  0  0  0  0  0  0  0  0  0  0
   59.8970   33.9450   45.6500 C   0  0  0  0  0  0  0  0  0  0  0  0
   60.4947   33.0551   45.4031 H   0  0  0  0  0  0  0  0  0  0  0  0
   60.5408   34.8329   45.7346 H   0  0  0  0  0  0  0  0  0  0  0  0
   60.3190   30.1210   47.3010 C   0  0  0  0  0  0  0  0  0  0  0  0
   60.9510   30.1590   46.2090 O   0  0  0  0  0  0  0  0  0  0  0  0
   59.3830   27.8960   45.5110 C   0  0  0  0  0  0  0  0  0  0  0  0
   60.3409   28.2428   45.0960 H   0  0  0  0  0  0  0  0  0  0  0  0
   58.5360   26.9530   44.9690 C   0  0  0  0  0  0  0  0  0  0  0  0
   58.6768   26.3915   44.0337 H   0  0  0  0  0  0  0  0  0  0  0  0
  1  2  1  0
  2  3  1  0
  2  4  2  0
  4  5  1  0
  5  6  1  0
  6  7  2  0
  7  8  1  0
  8  9  1  0
  9 10  2  0
 10 11  1  0
 10 12  1  0
  9 13  1  0
 13 14  1  0
 14 15  2  0
 15 16  1  0
 15 17  1  0
 17 18  1  0
 17 19  2  0
 19 20  1  0
 19 21  1  0
 21 22  1  0
 21 23  2  0
 23 24  1  0
 24 25  2  0
 24 26  1  0
 26 27  1  0
 27 28  1  0
 27 29  1  0
 27 30  1  0
 30 31  1  0
 30 32  1  0
 30 33  1  0
 33 34  1  0
 34 35  1  0
 34 36  1  0
 36 37  1  0
 36 38  1  0
 36 39  1  0
 39 40  1  0
 39 41  1  0
 33 42  1  0
 42 43  1  0
 42 44  1  0
 42 45  1  0
 45 46  1  0
 45 47  1  0
 13 48  1  0
 48 49  2  0
  6 50  1  0
 50 51  1  0
 50 52  2  0
 52 53  1  0
 52  4  1  0
 48  7  1  0
 23 14  1  0
 45 26  1  0
 39 34  1  0
M  END
>  <UniqueID>  (35) 
32

>  <SMILES>  (35) 
C=c1cc/c(=c2\sc(=C)n(-c3ccccc3C(=O)N3CCN(C4CC4)CC3)c2=O)o1

>  <Energy>  (35) 
410.94532498140967

>  <Genealogy>  (35) 
C=c1cc/c(=c2\sc(=C)n(-c3ccccc3C(=O)N3CCN(C4CC4)CC3)c2=O)o1 (cis-trans isomerization)
C=c1cc/c(=c2\sc(=C)n(-c3ccccc3C(=O)N3CCN(C4CC4)CC3)c2=O)o1 (3D coordinates assigned)
C=c1cc/c(=c2\sc(=C)n(-c3ccccc3C(=O)N3CCN(C4CC4)CC3)c2=O)o1 (nonaromatic ring conformer: 410.94532498140967 kcal/mol)

>  <smiles>  (35) 
C=c1ccc(=c2sc(=C)n(-c3ccccc3C(=O)N3CCN(C4CC4)CC3)c2=O)o1

>  <score_type>  (35) 
oracle

>  <origin>  (35) 
adg

>  <m_score__min__energy>  (35) 
-8.7599999999999998

>  <m_primary>  (35) 
energy

$$$$
35:0
     RDKit          3D

 50 53  0  0  0  0  0  0  0  0999 V2000
   55.5990   26.5300   46.0590 N   0  0  0  0  0  0  0  0  0  0  0  0
   57.3050   26.8020   46.0520 S   0  0  0  0  0  0  0  0  0  0  0  0
   57.9320   26.0210   44.9320 O   0  0  0  0  0  0  0  0  0  0  0  0
   57.8920   26.3360   47.3540 O   0  0  0  0  0  0  0  0  0  0  0  0
   57.6250   28.5190   45.8270 C   0  0  0  0  0  0  0  0  0  0  0  0
   58.7210   29.1240   46.4560 C   0  0  0  0  0  0  0  0  0  0  0  0
   58.9640   30.4900   46.2870 C   0  0  0  0  0  0  0  0  0  0  0  0
   58.1040   31.2730   45.4990 C   0  0  0  0  0  0  0  0  0  0  0  0
   58.3690   32.7180   45.3220 C   0  0  0  0  0  0  0  0  0  0  0  0
   57.7380   33.5460   44.4070 C   0  0  0  0  0  0  0  0  0  0  0  0
   58.1620   34.7810   44.5580 O   0  0  0  0  0  0  0  0  0  0  0  0
   59.0430   34.8010   45.5300 C   0  0  0  0  0  0  0  0  0  0  0  0
   59.7150   35.9480   45.9320 O   0  0  0  0  0  0  0  0  0  0  0  0
   59.2230   33.5350   46.0550 C   0  0  0  0  0  0  0  0  0  0  0  0
   60.2000   33.1480   47.0950 C   0  0  0  0  0  0  0  0  0  0  0  0
   59.9190   33.3710   48.4520 C   0  0  0  0  0  0  0  0  0  0  0  0
   60.8410   33.0070   49.4370 C   0  0  0  0  0  0  0  0  0  0  0  0
   62.0660   32.4180   49.0770 C   0  0  0  0  0  0  0  0  0  0  0  0
   63.0410   32.0280   50.0530 N   0  0  0  0  0  0  0  0  0  0  0  0
   62.7520   31.8990   51.7570 S   0  0  0  0  0  0  0  0  0  0  0  0
   61.7860   32.9680   52.1890 O   0  0  0  0  0  0  0  0  0  0  0  0
   64.0480   32.0470   52.5040 O   0  0  0  0  0  0  0  0  0  0  0  0
   62.0510   30.2950   52.0980 C   0  0  0  0  0  0  0  0  0  0  0  0
   60.8050   30.0830   51.2850 C   0  0  0  0  0  0  0  0  0  0  0  0
   59.6350   30.8040   51.5780 C   0  0  0  0  0  0  0  0  0  0  0  0
   58.4860   30.6290   50.8010 C   0  0  0  0  0  0  0  0  0  0  0  0
   58.4980   29.7410   49.7220 C   0  0  0  0  0  0  0  0  0  0  0  0
   59.6620   29.0270   49.4170 C   0  0  0  0  0  0  0  0  0  0  0  0
   60.8130   29.2000   50.1920 C   0  0  0  0  0  0  0  0  0  0  0  0
   62.3510   32.2050   47.7230 C   0  0  0  0  0  0  0  0  0  0  0  0
   61.4290   32.5690   46.7390 C   0  0  0  0  0  0  0  0  0  0  0  0
   57.0120   30.6590   44.8630 C   0  0  0  0  0  0  0  0  0  0  0  0
   56.7710   29.2930   45.0320 C   0  0  0  0  0  0  0  0  0  0  0  0
   55.1400   27.4690   46.0170 H   0  0  0  0  0  0  0  0  0  0  0  0
   59.3928   28.5217   47.0852 H   0  0  0  0  0  0  0  0  0  0  0  0
   59.8339   30.9548   46.7740 H   0  0  0  0  0  0  0  0  0  0  0  0
   56.9941   33.2188   43.6657 H   0  0  0  0  0  0  0  0  0  0  0  0
   58.9654   33.8360   48.7424 H   0  0  0  0  0  0  0  0  0  0  0  0
   60.6076   33.1819   50.4976 H   0  0  0  0  0  0  0  0  0  0  0  0
   62.7860   29.5170   51.8440 H   0  0  0  0  0  0  0  0  0  0  0  0
   61.7936   30.2384   53.1660 H   0  0  0  0  0  0  0  0  0  0  0  0
   59.6231   31.5091   52.4223 H   0  0  0  0  0  0  0  0  0  0  0  0
   57.5710   31.1912   51.0393 H   0  0  0  0  0  0  0  0  0  0  0  0
   57.5926   29.6034   49.1126 H   0  0  0  0  0  0  0  0  0  0  0  0
   59.6717   28.3290   48.5669 H   0  0  0  0  0  0  0  0  0  0  0  0
   61.7285   28.6425   49.9450 H   0  0  0  0  0  0  0  0  0  0  0  0
   63.3081   31.7476   47.4319 H   0  0  0  0  0  0  0  0  0  0  0  0
   61.6670   32.4011   45.6783 H   0  0  0  0  0  0  0  0  0  0  0  0
   56.3424   31.2575   44.2279 H   0  0  0  0  0  0  0  0  0  0  0  0
   55.9070   28.8239   44.5386 H   0  0  0  0  0  0  0  0  0  0  0  0
  1  2  1  0
  2  3  2  0
  2  4  2  0
  2  5  1  0
  5  6  2  0
  6  7  1  0
  7  8  2  0
  8  9  1  0
  9 10  2  0
 10 11  1  0
 11 12  1  0
 12 13  1  0
 12 14  2  0
 14 15  1  0
 15 16  2  0
 16 17  1  0
 17 18  2  0
 18 19  1  0
 19 20  1  0
 20 21  2  0
 20 22  2  0
 20 23  1  0
 23 24  1  0
 24 25  2  0
 25 26  1  0
 26 27  2  0
 27 28  1  0
 28 29  2  0
 18 30  1  0
 30 31  2  0
  8 32  1  0
 32 33  2  0
 33  5  1  0
 14  9  1  0
 31 15  1  0
 29 24  1  0
  1 34  1  0
  6 35  1  0
  7 36  1  0
 10 37  1  0
 16 38  1  0
 17 39  1  0
 23 40  1  0
 23 41  1  0
 25 42  1  0
 26 43  1  0
 27 44  1  0
 28 45  1  0
 29 46  1  0
 30 47  1  0
 31 48  1  0
 32 49  1  0
 33 50  1  0
M  CHG  3   1  -1  13  -1  19  -1
M  END
>  <UniqueID>  (36) 
33

>  <SMILES>  (36) 
[NH-]S(=O)(=O)c1ccc(-c2coc([O-])c2-c2ccc([N-]S(=O)(=O)Cc3ccccc3)cc2)cc1

>  <Energy>  (36) 
89.31584899467096

>  <Genealogy>  (36) 
[NH-]S(=O)(=O)c1ccc(-c2coc([O-])c2-c2ccc([N-]S(=O)(=O)Cc3ccccc3)cc2)cc1 (protonated)
[NH-]S(=O)(=O)c1ccc(-c2coc([O-])c2-c2ccc([N-]S(=O)(=O)Cc3ccccc3)cc2)cc1 (3D coordinates assigned)
[NH-]S(=O)(=O)c1ccc(-c2coc([O-])c2-c2ccc([N-]S(=O)(=O)Cc3ccccc3)cc2)cc1 (optimized conformer: 89.31584899467096 kcal/mol)

>  <smiles>  (36) 
NS(=O)(=O)c1ccc(-c2coc(O)c2-c2ccc(NS(=O)(=O)Cc3ccccc3)cc2)cc1

>  <score_type>  (36) 
oracle

>  <origin>  (36) 
adg

>  <m_score__min__energy>  (36) 
-13.699999999999999

>  <m_primary>  (36) 
energy

$$$$
36:0
     RDKit          3D

 55 58  0  0  0  0  0  0  0  0999 V2000
   53.8180   28.0910   53.5610 C   0  0  0  0  0  0  0  0  0  0  0  0
   54.5220   29.1460   53.1250 C   0  0  0  0  0  0  0  0  0  0  0  0
   54.0230   30.4190   52.8010 C   0  0  0  0  0  0  0  0  0  0  0  0
   52.7600   30.8610   52.6420 C   0  0  0  0  0  0  0  0  0  0  0  0
   52.0240   30.9250   51.3690 C   0  0  0  0  0  0  0  0  0  0  0  0
   52.1270   30.0200   50.3770 N   0  0  0  0  0  0  0  0  0  0  0  0
   51.4200   30.5790   49.3700 C   0  0  0  0  0  0  0  0  0  0  0  0
   51.2690   30.0170   48.2530 O   0  0  0  0  0  0  0  0  0  0  0  0
   50.8950   31.7920   49.6500 N   0  0  0  0  0  0  0  0  0  0  0  0
   51.3010   32.0010   50.9130 C   0  0  0  0  0  0  0  0  0  0  0  0
   51.0240   33.1590   51.6320 O   0  0  0  0  0  0  0  0  0  0  0  0
   55.1270   31.2350   52.6300 C   0  0  0  0  0  0  0  0  0  0  0  0
   56.2410   30.4360   52.7700 C   0  0  0  0  0  0  0  0  0  0  0  0
   57.6210   30.9150   52.5700 C   0  0  0  0  0  0  0  0  0  0  0  0
   58.2470   31.3720   53.5710 O   0  0  0  0  0  0  0  0  0  0  0  0
   58.2390   30.9300   51.2620 N   0  0  0  0  0  0  0  0  0  0  0  0
   58.8350   29.7230   50.6780 C   0  0  0  0  0  0  0  0  0  0  0  0
   58.5790   29.7010   49.1690 C   0  0  0  0  0  0  0  0  0  0  0  0
   59.0100   30.9080   48.5720 O   0  0  0  0  0  0  0  0  0  0  0  0
   58.2170   31.9870   49.0380 C   0  0  2  0  0  0  0  0  0  0  0  0
   58.5820   33.2470   48.2350 C   0  0  0  0  0  0  0  0  0  0  0  0
   58.1650   33.1290   46.7960 C   0  0  0  0  0  0  0  0  0  0  0  0
   57.7110   34.1450   46.2010 O   0  0  0  0  0  0  0  0  0  0  0  0
   58.3590   31.8910   46.0910 N   0  0  0  0  0  0  0  0  0  0  0  0
   57.9200   31.6550   44.7410 C   0  0  0  0  0  0  0  0  0  0  0  0
   58.2350   32.5480   43.6990 C   0  0  0  0  0  0  0  0  0  0  0  0
   57.7840   32.3000   42.3980 C   0  0  0  0  0  0  0  0  0  0  0  0
   56.9960   31.1780   42.1290 C   0  0  0  0  0  0  0  0  0  0  0  0
   56.6580   30.3000   43.1630 C   0  0  0  0  0  0  0  0  0  0  0  0
   57.1120   30.5380   44.4650 C   0  0  0  0  0  0  0  0  0  0  0  0
   58.4440   32.1970   50.5500 C   0  0  0  0  0  0  0  0  0  0  0  0
   55.8810   29.1680   53.0780 N   0  0  0  0  0  0  0  0  0  0  0  0
   56.7800   28.0800   53.4760 C   0  0  0  0  0  0  0  0  0  0  0  0
   54.3288   27.1421   53.7817 H   0  0  0  0  0  0  0  0  0  0  0  0
   52.7298   28.1746   53.6979 H   0  0  0  0  0  0  0  0  0  0  0  0
   52.2321   31.2045   53.5438 H   0  0  0  0  0  0  0  0  0  0  0  0
   55.1174   32.3151   52.4220 H   0  0  0  0  0  0  0  0  0  0  0  0
   59.9189   29.7229   50.8652 H   0  0  0  0  0  0  0  0  0  0  0  0
   58.3811   28.8328   51.1380 H   0  0  0  0  0  0  0  0  0  0  0  0
   59.1291   28.8601   48.7215 H   0  0  0  0  0  0  0  0  0  0  0  0
   57.4990   29.5859   48.9949 H   0  0  0  0  0  0  0  0  0  0  0  0
   57.1491   31.7672   48.8921 H   0  0  0  0  0  0  0  0  0  0  0  0
   58.0753   34.1145   48.6830 H   0  0  0  0  0  0  0  0  0  0  0  0
   59.6747   33.3692   48.2665 H   0  0  0  0  0  0  0  0  0  0  0  0
   58.9370   31.1520   46.5520 H   0  0  0  0  0  0  0  0  0  0  0  0
   58.8379   33.4439   43.9086 H   0  0  0  0  0  0  0  0  0  0  0  0
   58.0506   32.9905   41.5843 H   0  0  0  0  0  0  0  0  0  0  0  0
   56.6422   30.9859   41.1053 H   0  0  0  0  0  0  0  0  0  0  0  0
   56.0333   29.4194   42.9525 H   0  0  0  0  0  0  0  0  0  0  0  0
   56.8356   29.8482   45.2761 H   0  0  0  0  0  0  0  0  0  0  0  0
   59.4720   32.5496   50.7198 H   0  0  0  0  0  0  0  0  0  0  0  0
   57.7300   32.9451   50.9250 H   0  0  0  0  0  0  0  0  0  0  0  0
   56.8255   28.0249   54.5737 H   0  0  0  0  0  0  0  0  0  0  0  0
   56.4021   27.1274   53.0764 H   0  0  0  0  0  0  0  0  0  0  0  0
   57.7868   28.2715   53.0764 H   0  0  0  0  0  0  0  0  0  0  0  0
  1  2  2  0
  2  3  1  0
  3  4  2  3
  4  5  1  0
  5  6  1  0
  6  7  1  0
  7  8  2  0
  7  9  1  0
  9 10  1  0
 10 11  1  0
  3 12  1  0
 12 13  2  0
 13 14  1  0
 14 15  2  0
 14 16  1  0
 16 17  1  0
 17 18  1  0
 18 19  1  0
 19 20  1  0
 20 21  1  0
 21 22  1  0
 22 23  2  0
 22 24  1  0
 24 25  1  0
 25 26  2  0
 26 27  1  0
 27 28  2  0
 28 29  1  0
 29 30  2  0
 20 31  1  0
 13 32  1  0
 32 33  1  0
 32  2  1  0
 10  5  2  0
 31 16  1  0
 30 25  1  0
  1 34  1  0
  1 35  1  0
  4 36  1  0
 12 37  1  0
 17 38  1  0
 17 39  1  0
 18 40  1  0
 18 41  1  0
 20 42  1  1
 21 43  1  0
 21 44  1  0
 24 45  1  0
 26 46  1  0
 27 47  1  0
 28 48  1  0
 29 49  1  0
 30 50  1  0
 31 51  1  0
 31 52  1  0
 33 53  1  0
 33 54  1  0
 33 55  1  0
M  CHG  3   6  -1   9  -1  11  -1
M  END
>  <UniqueID>  (37) 
34

>  <SMILES>  (37) 
C=c1c(=Cc2[n-]c(=O)[n-]c2[O-])cc(C(=O)N2CCO[C@H](CC(=O)Nc3ccccc3)C2)n1C

>  <Energy>  (37) 
136.27019056683642

>  <Genealogy>  (37) 
C=c1c(=Cc2[n-]c(=O)[n-]c2[O-])cc(C(=O)N2CCOC(CC(=O)Nc3ccccc3)C2)n1C (protonated)
C=c1c(=Cc2[n-]c(=O)[n-]c2[O-])cc(C(=O)N2CCO[C@H](CC(=O)Nc3ccccc3)C2)n1C (chirality)
C=c1c(=Cc2[n-]c(=O)[n-]c2[O-])cc(C(=O)N2CCO[C@H](CC(=O)Nc3ccccc3)C2)n1C (3D coordinates assigned)
C=c1c(=Cc2[n-]c(=O)[n-]c2[O-])cc(C(=O)N2CCO[C@H](CC(=O)Nc3ccccc3)C2)n1C (nonaromatic ring conformer: 136.27019056683642 kcal/mol)

>  <smiles>  (37) 
C=c1c(=Cc2[nH]c(=O)[nH]c2O)cc(C(=O)N2CCOC(CC(=O)Nc3ccccc3)C2)n1C

>  <score_type>  (37) 
oracle

>  <origin>  (37) 
adg

>  <m_score__min__energy>  (37) 
-18.280000000000001

>  <m_primary>  (37) 
energy

$$$$
37:0
     RDKit          3D

 53 56  0  0  1  0  0  0  0  0999 V2000
   59.5620   34.1330   49.4570 O   0  0  0  0  0  0  0  0  0  0  0  0
   59.7000   33.4160   48.4580 C   0  0  0  0  0  0  0  0  0  0  0  0
   60.5090   32.2550   48.5590 N   0  0  0  0  0  0  0  0  0  0  0  0
   60.1410   31.2060   47.9060 C   0  0  0  0  0  0  0  0  0  0  0  0
   59.2690   31.2350   46.8860 N   0  0  0  0  0  0  0  0  0  0  0  0
   58.8780   30.1430   46.2060 C   0  0  0  0  0  0  0  0  0  0  0  0
   57.9230   30.2820   45.1130 C   0  0  0  0  0  0  0  0  0  0  0  0
   58.1970   30.9660   43.9540 C   0  0  0  0  0  0  0  0  0  0  0  0
   57.2690   31.0800   42.9300 C   0  0  0  0  0  0  0  0  0  0  0  0
   56.0500   30.4700   43.1320 C   0  0  0  0  0  0  0  0  0  0  0  0
   55.7500   29.7810   44.2770 C   0  0  0  0  0  0  0  0  0  0  0  0
   56.6940   29.7010   45.2450 N   0  0  0  0  0  0  0  0  0  0  0  0
   59.4040   28.9690   46.5900 N   0  0  0  0  0  0  0  0  0  0  0  0
   60.2790   28.8530   47.5970 C   0  0  0  0  0  0  0  0  0  0  0  0
   60.8300   27.6440   48.0070 O   0  0  0  0  0  0  0  0  0  0  0  0
   60.0250   26.7650   48.7670 C   0  0  0  0  0  0  0  0  0  0  0  0
   58.8790   26.3260   47.8590 C   0  0  0  0  0  0  0  0  0  0  0  0
   59.4580   26.0300   46.5760 N   0  0  0  0  0  0  0  0  0  0  0  0
   58.2940   26.3490   45.3490 S   0  0  0  0  0  0  0  0  0  0  0  0
   57.1120   27.1010   45.9060 O   0  0  0  0  0  0  0  0  0  0  0  0
   58.9920   27.1560   44.2910 O   0  0  0  0  0  0  0  0  0  0  0  0
   57.7700   24.8080   44.6930 C   0  0  0  0  0  0  0  0  0  0  0  0
   56.8150   24.5320   43.7310 C   0  0  0  0  0  0  0  0  0  0  0  0
   56.5740   23.2810   43.3890 C   0  0  0  0  0  0  0  0  0  0  0  0
   57.2970   22.2480   44.0120 C   0  0  0  0  0  0  0  0  0  0  0  0
   58.4180   23.1890   45.1930 S   0  0  0  0  0  0  0  0  0  0  0  0
   60.6880   29.9840   48.3070 C   0  0  0  0  0  0  0  0  0  0  0  0
   61.5890   29.9200   49.3540 O   0  0  0  0  0  0  0  0  0  0  0  0
   59.0150   33.8110   47.2310 C   0  0  0  0  0  0  0  0  0  0  0  0
   59.7200   34.4730   46.2360 C   0  0  0  0  0  0  0  0  0  0  0  0
   59.1100   34.8640   45.0600 C   0  0  0  0  0  0  0  0  0  0  0  0
   57.7640   34.5860   44.8760 C   0  0  0  0  0  0  0  0  0  0  0  0
   57.0230   33.9260   45.8450 C   0  0  0  0  0  0  0  0  0  0  0  0
   57.6860   33.5660   46.9880 C   0  0  0  0  0  0  0  0  0  0  0  0
   59.1833   31.4381   43.8343 H   0  0  0  0  0  0  0  0  0  0  0  0
   57.4944   31.6292   42.0039 H   0  0  0  0  0  0  0  0  0  0  0  0
   55.2875   30.5392   42.3422 H   0  0  0  0  0  0  0  0  0  0  0  0
   54.7671   29.3046   44.4072 H   0  0  0  0  0  0  0  0  0  0  0  0
   59.1350   28.1000   46.0960 H   0  0  0  0  0  0  0  0  0  0  0  0
   60.6130   25.8914   49.0850 H   0  0  0  0  0  0  0  0  0  0  0  0
   59.6453   27.2593   49.6734 H   0  0  0  0  0  0  0  0  0  0  0  0
   58.3912   25.4301   48.2705 H   0  0  0  0  0  0  0  0  0  0  0  0
   58.1158   27.1138   47.7763 H   0  0  0  0  0  0  0  0  0  0  0  0
   60.2600   26.7130   46.4250 H   0  0  0  0  0  0  0  0  0  0  0  0
   56.2590   25.3522   43.2533 H   0  0  0  0  0  0  0  0  0  0  0  0
   55.8167   23.0486   42.6258 H   0  0  0  0  0  0  0  0  0  0  0  0
   57.2249   21.1625   43.8494 H   0  0  0  0  0  0  0  0  0  0  0  0
   61.9460   29.0640   49.7240 H   0  0  0  0  0  0  0  0  0  0  0  0
   60.7875   34.6911   46.3869 H   0  0  0  0  0  0  0  0  0  0  0  0
   59.6834   35.3880   44.2811 H   0  0  0  0  0  0  0  0  0  0  0  0
   57.2734   34.8956   43.9414 H   0  0  0  0  0  0  0  0  0  0  0  0
   55.9554   33.7027   45.7025 H   0  0  0  0  0  0  0  0  0  0  0  0
   57.1126   33.0429   47.7675 H   0  0  0  0  0  0  0  0  0  0  0  0
  1  2  2  0
  2  3  1  0
  3  4  2  0
  4  5  1  0
  5  6  2  0
  6  7  1  0
  7  8  2  0
  8  9  1  0
  9 10  2  0
 10 11  1  0
 11 12  2  0
  6 13  1  0
 13 14  1  0
 14 15  1  0
 15 16  1  0
 16 17  1  0
 17 18  1  0
 18 19  1  0
 19 20  2  0
 19 21  2  0
 19 22  1  0
 22 23  2  0
 23 24  1  0
 24 25  2  0
 25 26  1  0
 14 27  2  0
 27 28  1  0
  2 29  1  0
 29 30  2  0
 30 31  1  0
 31 32  2  0
 32 33  1  0
 33 34  2  0
 27  4  1  0
 34 29  1  0
 12  7  1  0
 26 22  1  0
  8 35  1  0
  9 36  1  0
 10 37  1  0
 11 38  1  0
 13 39  1  0
 16 40  1  0
 16 41  1  0
 17 42  1  0
 17 43  1  0
 18 44  1  0
 23 45  1  0
 24 46  1  0
 25 47  1  0
 28 48  1  0
 30 49  1  0
 31 50  1  0
 32 51  1  0
 33 52  1  0
 34 53  1  0
M  END
>  <smiles>  (38) 
O=C(N=c1nc(-c2ccccn2)[nH]c(OCCNS(=O)(=O)c2cccs2)c1O)c1ccccc1

>  <score_type>  (38) 
oracle

>  <origin>  (38) 
adg

>  <m_score__min__energy>  (38) 
-8.8399999999999999

>  <m_primary>  (38) 
energy

$$$$
38:0
     RDKit          3D

 78 81  0  0  0  0  0  0  0  0999 V2000
   64.7970   33.0740   48.9760 C   0  0  0  0  0  0  0  0  0  0  0  0
   63.3480   33.0800   48.7180 N   0  0  0  0  0  0  0  0  0  0  0  0
   62.8890   31.7340   48.3440 C   0  0  0  0  0  0  0  0  0  0  0  0
   61.4740   31.8440   47.7800 C   0  0  0  0  0  0  0  0  0  0  0  0
   60.6400   32.7310   48.6050 N   0  0  0  0  0  0  0  0  0  0  0  0
   59.2330   32.8240   48.3130 C   0  0  0  0  0  0  0  0  0  0  0  0
   58.3970   32.7450   49.2540 O   0  0  0  0  0  0  0  0  0  0  0  0
   58.7410   33.0030   46.9310 C   0  0  0  0  0  0  0  0  0  0  0  0
   59.2110   34.0710   46.1510 C   0  0  0  0  0  0  0  0  0  0  0  0
   58.7540   34.2420   44.8430 C   0  0  0  0  0  0  0  0  0  0  0  0
   57.8460   33.3330   44.2920 C   0  0  0  0  0  0  0  0  0  0  0  0
   57.4010   32.2340   45.0460 C   0  0  0  0  0  0  0  0  0  0  0  0
   56.4700   31.2850   44.5080 N   0  0  0  0  0  0  0  0  0  0  0  0
   56.3990   29.8920   44.8460 C   0  0  0  0  0  0  0  0  0  0  0  0
   55.2710   29.3320   44.8490 O   0  0  0  0  0  0  0  0  0  0  0  0
   57.5980   29.1160   45.2440 C   0  0  0  0  0  0  0  0  0  0  0  0
   58.2360   28.2600   44.3300 C   0  0  0  0  0  0  0  0  0  0  0  0
   59.3560   27.5210   44.7180 C   0  0  0  0  0  0  0  0  0  0  0  0
   59.8670   27.6460   46.0120 C   0  0  0  0  0  0  0  0  0  0  0  0
   59.2760   28.5360   46.9250 C   0  0  0  0  0  0  0  0  0  0  0  0
   59.7810   28.6850   48.2640 N   0  0  0  0  0  0  0  0  0  0  0  0
   60.1210   27.5820   49.1230 C   0  0  0  0  0  0  0  0  0  0  0  0
   60.1690   26.4080   48.6650 O   0  0  0  0  0  0  0  0  0  0  0  0
   60.4060   27.8240   50.5880 C   0  0  0  0  0  0  0  0  0  0  0  0
   61.5980   26.9460   51.0520 C   0  0  0  0  0  0  0  0  0  0  0  0
   62.4740   27.6540   52.0870 C   0  0  0  0  0  0  0  0  0  0  0  0
   62.9670   28.9190   51.5250 N   0  0  0  0  0  0  0  0  0  0  0  0
   64.3330   29.3270   51.7280 C   0  0  0  0  0  0  0  0  0  0  0  0
   64.7730   30.3520   51.1380 O   0  0  0  0  0  0  0  0  0  0  0  0
   65.1640   28.5830   52.5800 O   0  0  0  0  0  0  0  0  0  0  0  0
   66.2420   27.7230   52.1820 C   0  0  0  0  0  0  0  0  0  0  0  0
   67.0740   27.4280   53.4400 C   0  0  0  0  0  0  0  0  0  0  0  0
   65.6950   26.3940   51.6250 C   0  0  0  0  0  0  0  0  0  0  0  0
   67.1420   28.4200   51.1430 C   0  0  0  0  0  0  0  0  0  0  0  0
   62.0580   29.7860   50.7590 C   0  0  0  0  0  0  0  0  0  0  0  0
   60.5970   29.3330   50.8870 C   0  0  0  0  0  0  0  0  0  0  0  0
   58.1330   29.2540   46.5380 C   0  0  0  0  0  0  0  0  0  0  0  0
   57.8340   32.0870   46.3690 C   0  0  0  0  0  0  0  0  0  0  0  0
   61.1200   33.1880   49.9190 C   0  0  0  0  0  0  0  0  0  0  0  0
   62.6150   33.5830   49.9010 C   0  0  0  0  0  0  0  0  0  0  0  0
   64.9762   33.0733   50.0613 H   0  0  0  0  0  0  0  0  0  0  0  0
   65.2452   32.1740   48.5298 H   0  0  0  0  0  0  0  0  0  0  0  0
   65.2526   33.9703   48.5298 H   0  0  0  0  0  0  0  0  0  0  0  0
   63.5604   31.3114   47.5820 H   0  0  0  0  0  0  0  0  0  0  0  0
   62.8934   31.0758   49.2253 H   0  0  0  0  0  0  0  0  0  0  0  0
   61.5255   32.2479   46.7581 H   0  0  0  0  0  0  0  0  0  0  0  0
   61.0208   30.8417   47.7786 H   0  0  0  0  0  0  0  0  0  0  0  0
   59.9426   34.7763   46.5721 H   0  0  0  0  0  0  0  0  0  0  0  0
   59.1092   35.0939   44.2446 H   0  0  0  0  0  0  0  0  0  0  0  0
   57.4789   33.4785   43.2653 H   0  0  0  0  0  0  0  0  0  0  0  0
   57.8512   28.1715   43.3033 H   0  0  0  0  0  0  0  0  0  0  0  0
   59.8372   26.8383   44.0022 H   0  0  0  0  0  0  0  0  0  0  0  0
   60.7361   27.0450   46.3178 H   0  0  0  0  0  0  0  0  0  0  0  0
   60.0290   29.6470   48.5890 H   0  0  0  0  0  0  0  0  0  0  0  0
   59.5321   27.5164   51.1810 H   0  0  0  0  0  0  0  0  0  0  0  0
   61.2033   26.0205   51.4967 H   0  0  0  0  0  0  0  0  0  0  0  0
   62.2225   26.7349   50.1714 H   0  0  0  0  0  0  0  0  0  0  0  0
   61.8812   27.8600   52.9904 H   0  0  0  0  0  0  0  0  0  0  0  0
   63.3271   27.0106   52.3484 H   0  0  0  0  0  0  0  0  0  0  0  0
   66.4724   27.6413   54.3358 H   0  0  0  0  0  0  0  0  0  0  0  0
   67.3724   26.3693   53.4423 H   0  0  0  0  0  0  0  0  0  0  0  0
   67.9727   28.0623   53.4423 H   0  0  0  0  0  0  0  0  0  0  0  0
   65.4222   25.7313   52.4595 H   0  0  0  0  0  0  0  0  0  0  0  0
   64.8056   26.5930   51.0090 H   0  0  0  0  0  0  0  0  0  0  0  0
   66.4667   25.9093   51.0090 H   0  0  0  0  0  0  0  0  0  0  0  0
   67.9089   29.0139   51.6618 H   0  0  0  0  0  0  0  0  0  0  0  0
   67.6297   27.6617   50.5128 H   0  0  0  0  0  0  0  0  0  0  0  0
   66.5298   29.0819   50.5128 H   0  0  0  0  0  0  0  0  0  0  0  0
   62.1460   30.8157   51.1358 H   0  0  0  0  0  0  0  0  0  0  0  0
   62.3427   29.7281   49.6981 H   0  0  0  0  0  0  0  0  0  0  0  0
   60.2558   29.5336   51.9133 H   0  0  0  0  0  0  0  0  0  0  0  0
   60.0107   29.8939   50.1443 H   0  0  0  0  0  0  0  0  0  0  0  0
   57.6496   29.9331   47.2557 H   0  0  0  0  0  0  0  0  0  0  0  0
   57.4615   31.2475   46.9744 H   0  0  0  0  0  0  0  0  0  0  0  0
   60.5280   34.0629   50.2256 H   0  0  0  0  0  0  0  0  0  0  0  0
   61.0044   32.3526   50.6252 H   0  0  0  0  0  0  0  0  0  0  0  0
   62.6845   34.6807   49.9119 H   0  0  0  0  0  0  0  0  0  0  0  0
   63.0797   33.1247   50.7864 H   0  0  0  0  0  0  0  0  0  0  0  0
  1  2  1  0
  2  3  1  0
  3  4  1  0
  4  5  1  0
  5  6  1  0
  6  7  2  0
  6  8  1  0
  8  9  2  0
  9 10  1  0
 10 11  2  0
 11 12  1  0
 12 13  1  0
 13 14  1  0
 14 15  2  0
 14 16  1  0
 16 17  2  0
 17 18  1  0
 18 19  2  0
 19 20  1  0
 20 21  1  0
 21 22  1  0
 22 23  2  0
 22 24  1  0
 24 25  1  0
 25 26  1  0
 26 27  1  0
 27 28  1  0
 28 29  2  0
 28 30  1  0
 30 31  1  0
 31 32  1  0
 31 33  1  0
 31 34  1  0
 27 35  1  0
 35 36  1  0
 20 37  2  0
 12 38  2  0
  5 39  1  0
 39 40  1  0
 40  2  1  0
 38  8  1  0
 37 16  1  0
 36 24  1  0
  1 41  1  0
  1 42  1  0
  1 43  1  0
  3 44  1  0
  3 45  1  0
  4 46  1  0
  4 47  1  0
  9 48  1  0
 10 49  1  0
 11 50  1  0
 17 51  1  0
 18 52  1  0
 19 53  1  0
 21 54  1  0
 24 55  1  0
 25 56  1  0
 25 57  1  0
 26 58  1  0
 26 59  1  0
 32 60  1  0
 32 61  1  0
 32 62  1  0
 33 63  1  0
 33 64  1  0
 33 65  1  0
 34 66  1  0
 34 67  1  0
 34 68  1  0
 35 69  1  0
 35 70  1  0
 36 71  1  0
 36 72  1  0
 37 73  1  0
 38 74  1  0
 39 75  1  0
 39 76  1  0
 40 77  1  0
 40 78  1  0
M  CHG  1  13  -1
M  END
>  <UniqueID>  (39) 
35

>  <SMILES>  (39) 
CN1CCN(C(=O)c2cccc([N-]C(=O)c3cccc(NC(=O)C4CCN(C(=O)OC(C)(C)C)CC4)c3)c2)CC1

>  <Energy>  (39) 
96.7939584128663

>  <Genealogy>  (39) 
CN1CCN(C(=O)c2cccc([N-]C(=O)c3cccc(NC(=O)C4CCN(C(=O)OC(C)(C)C)CC4)c3)c2)CC1 (protonated)
CN1CCN(C(=O)c2cccc([N-]C(=O)c3cccc(NC(=O)C4CCN(C(=O)OC(C)(C)C)CC4)c3)c2)CC1 (3D coordinates assigned)
CN1CCN(C(=O)c2cccc([N-]C(=O)c3cccc(NC(=O)C4CCN(C(=O)OC(C)(C)C)CC4)c3)c2)CC1 (nonaromatic ring conformer: 96.7939584128663 kcal/mol)

>  <smiles>  (39) 
CN1CCN(C(=O)c2cccc(NC(=O)c3cccc(NC(=O)C4CCN(C(=O)OC(C)(C)C)CC4)c3)c2)CC1

>  <score_type>  (39) 
oracle

>  <origin>  (39) 
adg

>  <m_score__min__energy>  (39) 
-11.890000000000001

>  <m_primary>  (39) 
energy

$$$$
39:0
     RDKit          3D

 41 43  0  0  0  0  0  0  0  0999 V2000
   54.2560   26.7170   46.7510 H   0  0  0  0  0  0  0  0  0  0  0  0
   54.9730   26.7110   46.0350 O   0  0  0  0  0  0  0  0  0  0  0  0
   56.0890   25.8880   46.1550 C   0  0  0  0  0  0  0  0  0  0  0  0
   56.0840   24.7110   46.8000 N   0  0  0  0  0  0  0  0  0  0  0  0
   57.3410   24.2600   46.6040 C   0  0  0  0  0  0  0  0  0  0  0  0
   57.7460   23.1580   47.0570 O   0  0  0  0  0  0  0  0  0  0  0  0
   58.1300   25.0790   45.8750 N   0  0  0  0  0  0  0  0  0  0  0  0
   57.3340   26.1300   45.6140 C   0  0  0  0  0  0  0  0  0  0  0  0
   57.7330   27.2580   44.7480 C   0  0  0  0  0  0  0  0  0  0  0  0
   57.9111   27.0408   43.6845 H   0  0  0  0  0  0  0  0  0  0  0  0
   57.8980   28.5440   45.1600 C   0  0  0  0  0  0  0  0  0  0  0  0
   59.0010   28.8920   45.9740 C   0  0  0  0  0  0  0  0  0  0  0  0
   59.7064   28.1069   46.2838 H   0  0  0  0  0  0  0  0  0  0  0  0
   59.2190   30.2090   46.3960 C   0  0  0  0  0  0  0  0  0  0  0  0
   60.4110   30.5120   47.2740 C   0  0  0  0  0  0  0  0  0  0  0  0
   61.3228   30.5045   46.6587 H   0  0  0  0  0  0  0  0  0  0  0  0
   60.2665   31.5006   47.7342 H   0  0  0  0  0  0  0  0  0  0  0  0
   60.5480   29.4730   48.3830 C   0  0  0  0  0  0  0  0  0  0  0  0
   60.4824   29.9706   49.3618 H   0  0  0  0  0  0  0  0  0  0  0  0
   59.7398   28.7323   48.2933 H   0  0  0  0  0  0  0  0  0  0  0  0
   61.5206   28.9671   48.2933 H   0  0  0  0  0  0  0  0  0  0  0  0
   58.3120   31.2010   45.9910 C   0  0  0  0  0  0  0  0  0  0  0  0
   58.4680   32.5720   46.3810 N   0  0  0  0  0  0  0  0  0  0  0  0
   58.4290   32.9400   47.7960 C   0  0  0  0  0  0  0  0  0  0  0  0
   57.4155   33.2763   48.0603 H   0  0  0  0  0  0  0  0  0  0  0  0
   58.6961   32.0677   48.4107 H   0  0  0  0  0  0  0  0  0  0  0  0
   59.4270   34.0730   48.0530 C   0  0  0  0  0  0  0  0  0  0  0  0
   59.2930   34.4455   49.0793 H   0  0  0  0  0  0  0  0  0  0  0  0
   60.4462   33.6821   47.9170 H   0  0  0  0  0  0  0  0  0  0  0  0
   59.2250   35.1380   47.1430 O   0  0  0  0  0  0  0  0  0  0  0  0
   59.5130   34.7090   45.8250 C   0  0  0  0  0  0  0  0  0  0  0  0
   59.4457   35.5690   45.1424 H   0  0  0  0  0  0  0  0  0  0  0  0
   60.5276   34.2845   45.8048 H   0  0  0  0  0  0  0  0  0  0  0  0
   58.5190   33.6320   45.3770 C   0  0  0  0  0  0  0  0  0  0  0  0
   57.5202   34.0786   45.2636 H   0  0  0  0  0  0  0  0  0  0  0  0
   58.8425   33.2108   44.4137 H   0  0  0  0  0  0  0  0  0  0  0  0
   57.2700   30.8690   45.1900 N   0  0  0  0  0  0  0  0  0  0  0  0
   57.0210   29.6020   44.7610 C   0  0  0  0  0  0  0  0  0  0  0  0
   55.9260   29.4320   44.0030 C   0  0  0  0  0  0  0  0  0  0  0  0
   55.6690   28.4317   43.6244 H   0  0  0  0  0  0  0  0  0  0  0  0
   55.2858   30.2930   43.7605 H   0  0  0  0  0  0  0  0  0  0  0  0
  1  2  1  0
  2  3  1  0
  3  4  1  0
  4  5  1  0
  5  6  2  0
  5  7  1  0
  7  8  1  0
  8  9  1  0
  9 10  1  0
  9 11  2  0
 11 12  1  0
 12 13  1  0
 12 14  2  0
 14 15  1  0
 15 16  1  0
 15 17  1  0
 15 18  1  0
 18 19  1  0
 18 20  1  0
 18 21  1  0
 14 22  1  0
 22 23  1  0
 23 24  1  0
 24 25  1  0
 24 26  1  0
 24 27  1  0
 27 28  1  0
 27 29  1  0
 27 30  1  0
 30 31  1  0
 31 32  1  0
 31 33  1  0
 31 34  1  0
 34 35  1  0
 34 36  1  0
 22 37  2  0
 37 38  1  0
 38 39  2  0
 39 40  1  0
 39 41  1  0
  8  3  2  0
 38 11  1  0
 34 23  1  0
M  CHG  2   4  -1   7  -1
M  END
>  <UniqueID>  (40) 
36

>  <SMILES>  (40) 
C=c1nc(N2CCOCC2)c(CC)c/c1=C\c1[n-]c(=O)[n-]c1O

>  <Energy>  (40) 
90.70136780862535

>  <Genealogy>  (40) 
C=c1nc(N2CCOCC2)c(CC)cc1=Cc1[n-]c(=O)[n-]c1O (protonated)
C=c1nc(N2CCOCC2)c(CC)c/c1=C\c1[n-]c(=O)[n-]c1O (cis-trans isomerization)
C=c1nc(N2CCOCC2)c(CC)c/c1=C\c1[n-]c(=O)[n-]c1O (3D coordinates assigned)
C=c1nc(N2CCOCC2)c(CC)c/c1=C\c1[n-]c(=O)[n-]c1O (nonaromatic ring conformer: 90.70136780862535 kcal/mol)

>  <smiles>  (40) 
C=c1nc(N2CCOCC2)c(CC)cc1=Cc1[nH]c(=O)[nH]c1O

>  <score_type>  (40) 
oracle

>  <origin>  (40) 
adg

>  <m_score__min__energy>  (40) 
-12.609999999999999

>  <m_primary>  (40) 
energy

$$$$
40:0
     RDKit          3D

 54 55  0  0  0  0  0  0  0  0999 V2000
   57.7040   24.0560   45.5150 C   0  0  0  0  0  0  0  0  0  0  0  0
   57.0540   25.1330   45.9700 C   0  0  0  0  0  0  0  0  0  0  0  0
   57.8240   26.3170   46.4220 C   0  0  0  0  0  0  0  0  0  0  0  0
   58.9330   26.1460   46.9980 O   0  0  0  0  0  0  0  0  0  0  0  0
   57.3170   27.6480   46.2130 N   0  0  0  0  0  0  0  0  0  0  0  0
   58.0740   28.8460   46.4540 C   0  0  0  0  0  0  0  0  0  0  0  0
   58.5070   29.1320   47.7560 C   0  0  0  0  0  0  0  0  0  0  0  0
   59.2120   30.3090   48.0270 C   0  0  0  0  0  0  0  0  0  0  0  0
   59.4740   31.2260   47.0010 C   0  0  0  0  0  0  0  0  0  0  0  0
   60.3350   32.7260   47.3480 S   0  0  0  0  0  0  0  0  0  0  0  0
   61.4770   32.8750   46.3810 O   0  0  0  0  0  0  0  0  0  0  0  0
   60.9110   32.6550   48.7350 O   0  0  0  0  0  0  0  0  0  0  0  0
   59.2910   34.1280   47.2280 N   0  0  0  0  0  0  0  0  0  0  0  0
   59.6180   34.9330   46.0460 C   0  0  0  0  0  0  0  0  0  0  0  0
   58.6450   34.5730   44.9350 C   0  0  0  0  0  0  0  0  0  0  0  0
   57.5250   33.7990   45.6010 C   0  0  0  0  0  0  0  0  0  0  0  0
   57.8870   33.7320   47.0770 C   0  0  0  0  0  0  0  0  0  0  0  0
   59.0310   30.9510   45.7000 C   0  0  0  0  0  0  0  0  0  0  0  0
   58.3270   29.7750   45.4290 C   0  0  0  0  0  0  0  0  0  0  0  0
   55.5750   25.1250   46.0210 C   0  0  0  0  0  0  0  0  0  0  0  0
   54.9380   26.2130   45.9650 O   0  0  0  0  0  0  0  0  0  0  0  0
   54.8870   23.9120   46.1540 O   0  0  0  0  0  0  0  0  0  0  0  0
   54.8260   23.1730   47.3730 C   0  0  0  0  0  0  0  0  0  0  0  0
   53.4330   22.5680   47.5790 C   0  0  0  0  0  0  0  0  0  0  0  0
   53.0300   21.6620   46.4090 C   0  0  0  0  0  0  0  0  0  0  0  0
   52.5460   22.4590   45.2840 N   0  0  0  0  0  0  0  0  0  0  0  0
   51.8710   23.5730   45.3580 C   0  0  0  0  0  0  0  0  0  0  0  0
   52.4890   24.8500   45.1480 N   0  0  0  0  0  0  0  0  0  0  0  0
   50.4750   23.5150   45.6490 N   0  0  0  0  0  0  0  0  0  0  0  0
   57.1391   23.1743   45.1781 H   0  0  0  0  0  0  0  0  0  0  0  0
   58.8034   24.0521   45.4777 H   0  0  0  0  0  0  0  0  0  0  0  0
   56.3300   27.7680   45.8960 H   0  0  0  0  0  0  0  0  0  0  0  0
   58.2907   28.4254   48.5708 H   0  0  0  0  0  0  0  0  0  0  0  0
   59.5619   30.5154   49.0492 H   0  0  0  0  0  0  0  0  0  0  0  0
   59.5263   36.0021   46.2879 H   0  0  0  0  0  0  0  0  0  0  0  0
   60.6501   34.7297   45.7245 H   0  0  0  0  0  0  0  0  0  0  0  0
   58.2515   35.4840   44.4605 H   0  0  0  0  0  0  0  0  0  0  0  0
   59.1325   33.9813   44.1462 H   0  0  0  0  0  0  0  0  0  0  0  0
   56.5659   34.3203   45.4653 H   0  0  0  0  0  0  0  0  0  0  0  0
   57.4129   32.7949   45.1660 H   0  0  0  0  0  0  0  0  0  0  0  0
   57.2442   34.4176   47.6486 H   0  0  0  0  0  0  0  0  0  0  0  0
   57.7398   32.7099   47.4561 H   0  0  0  0  0  0  0  0  0  0  0  0
   59.2385   31.6642   44.8887 H   0  0  0  0  0  0  0  0  0  0  0  0
   57.9687   29.5747   44.4085 H   0  0  0  0  0  0  0  0  0  0  0  0
   55.5690   22.3625   47.3399 H   0  0  0  0  0  0  0  0  0  0  0  0
   55.0384   23.8564   48.2083 H   0  0  0  0  0  0  0  0  0  0  0  0
   53.4354   21.9745   48.5052 H   0  0  0  0  0  0  0  0  0  0  0  0
   52.7068   23.3919   47.6410 H   0  0  0  0  0  0  0  0  0  0  0  0
   53.9040   21.0764   46.0876 H   0  0  0  0  0  0  0  0  0  0  0  0
   52.2238   20.9915   46.7413 H   0  0  0  0  0  0  0  0  0  0  0  0
   51.9220   25.7210   45.2330 H   0  0  0  0  0  0  0  0  0  0  0  0
   53.4950   24.9540   44.8940 H   0  0  0  0  0  0  0  0  0  0  0  0
   49.9090   24.3900   45.7130 H   0  0  0  0  0  0  0  0  0  0  0  0
   50.0020   22.5960   45.8020 H   0  0  0  0  0  0  0  0  0  0  0  0
  1  2  2  0
  2  3  1  0
  3  4  2  0
  3  5  1  0
  5  6  1  0
  6  7  2  0
  7  8  1  0
  8  9  2  0
  9 10  1  0
 10 11  2  0
 10 12  2  0
 10 13  1  0
 13 14  1  0
 14 15  1  0
 15 16  1  0
 16 17  1  0
  9 18  1  0
 18 19  2  0
  2 20  1  0
 20 21  2  0
 20 22  1  0
 22 23  1  0
 23 24  1  0
 24 25  1  0
 25 26  1  0
 26 27  2  3
 27 28  1  0
 27 29  1  0
 19  6  1  0
 17 13  1  0
  1 30  1  0
  1 31  1  0
  5 32  1  0
  7 33  1  0
  8 34  1  0
 14 35  1  0
 14 36  1  0
 15 37  1  0
 15 38  1  0
 16 39  1  0
 16 40  1  0
 17 41  1  0
 17 42  1  0
 18 43  1  0
 19 44  1  0
 23 45  1  0
 23 46  1  0
 24 47  1  0
 24 48  1  0
 25 49  1  0
 25 50  1  0
 28 51  1  0
 28 52  1  0
 29 53  1  0
 29 54  1  0
M  END
>  <UniqueID>  (41) 
37

>  <SMILES>  (41) 
C=C(C(=O)Nc1ccc(S(=O)(=O)N2CCCC2)cc1)C(=O)OCCCN=C(N)N

>  <Energy>  (41) 
50.58855288653801

>  <Genealogy>  (41) 
C=C(C(=O)Nc1ccc(S(=O)(=O)N2CCCC2)cc1)C(=O)OCCCN=C(N)N (3D coordinates assigned)
C=C(C(=O)Nc1ccc(S(=O)(=O)N2CCCC2)cc1)C(=O)OCCCN=C(N)N (nonaromatic ring conformer: 50.58855288653801 kcal/mol)

>  <smiles>  (41) 
C=C(C(=O)Nc1ccc(S(=O)(=O)N2CCCC2)cc1)C(=O)OCCCN=C(N)N

>  <score_type>  (41) 
oracle

>  <origin>  (41) 
adg

>  <m_score__min__energy>  (41) 
-8.9800000000000004

>  <m_primary>  (41) 
energy

$$$$
41:0
     RDKit          3D

 49 51  0  0  0  0  0  0  0  0999 V2000
   58.7150   32.2090   50.0850 H   0  0  0  0  0  0  0  0  0  0  0  0
   58.5170   33.0310   49.5250 O   0  0  0  0  0  0  0  0  0  0  0  0
   59.2720   33.3430   48.3970 C   0  0  0  0  0  0  0  0  0  0  0  0
   60.6540   33.5400   48.4960 C   0  0  0  0  0  0  0  0  0  0  0  0
   61.1475   33.4607   49.4759 H   0  0  0  0  0  0  0  0  0  0  0  0
   61.4130   33.8370   47.3590 C   0  0  0  0  0  0  0  0  0  0  0  0
   62.7970   34.0130   47.5100 O   0  0  0  0  0  0  0  0  0  0  0  0
   63.7760   33.0410   47.1580 C   0  0  0  0  0  0  0  0  0  0  0  0
   64.2101   32.6100   48.0722 H   0  0  0  0  0  0  0  0  0  0  0  0
   63.3043   32.2436   46.5649 H   0  0  0  0  0  0  0  0  0  0  0  0
   64.5700   33.5184   46.5649 H   0  0  0  0  0  0  0  0  0  0  0  0
   60.7710   33.9500   46.1100 C   0  0  0  0  0  0  0  0  0  0  0  0
   61.3628   34.1697   45.2092 H   0  0  0  0  0  0  0  0  0  0  0  0
   59.3810   33.7840   46.0080 C   0  0  0  0  0  0  0  0  0  0  0  0
   58.7390   33.8860   44.6780 C   0  0  0  0  0  0  0  0  0  0  0  0
   58.9270   34.7995   44.0948 H   0  0  0  0  0  0  0  0  0  0  0  0
   57.9460   32.9540   44.1260 C   0  0  0  0  0  0  0  0  0  0  0  0
   57.3909   33.2355   43.2190 H   0  0  0  0  0  0  0  0  0  0  0  0
   57.7580   31.5780   44.6390 C   0  0  0  0  0  0  0  0  0  0  0  0
   58.8500   30.9040   45.1990 C   0  0  0  0  0  0  0  0  0  0  0  0
   59.8263   31.4064   45.2656 H   0  0  0  0  0  0  0  0  0  0  0  0
   58.7080   29.5970   45.6740 C   0  0  0  0  0  0  0  0  0  0  0  0
   59.5682   29.0837   46.1284 H   0  0  0  0  0  0  0  0  0  0  0  0
   57.4700   28.9340   45.5740 C   0  0  0  0  0  0  0  0  0  0  0  0
   57.2760   27.6200   46.0360 O   0  0  0  0  0  0  0  0  0  0  0  0
   57.0050   26.4910   45.2050 C   0  0  0  0  0  0  0  0  0  0  0  0
   56.6590   26.8403   44.2210 H   0  0  0  0  0  0  0  0  0  0  0  0
   57.9265   25.9005   45.0947 H   0  0  0  0  0  0  0  0  0  0  0  0
   55.9440   25.6260   45.8240 C   0  0  0  0  0  0  0  0  0  0  0  0
   54.7890   26.1040   45.9950 O   0  0  0  0  0  0  0  0  0  0  0  0
   56.2100   24.2600   46.1880 N   0  0  0  0  0  0  0  0  0  0  0  0
   57.1830   23.4860   45.4050 C   0  0  0  0  0  0  0  0  0  0  0  0
   57.9871   24.1578   45.0701 H   0  0  0  0  0  0  0  0  0  0  0  0
   56.6586   23.0424   44.5458 H   0  0  0  0  0  0  0  0  0  0  0  0
   57.7850   22.3700   46.2170 C   0  0  0  0  0  0  0  0  0  0  0  0
   58.7190   21.6820   45.7290 O   0  0  0  0  0  0  0  0  0  0  0  0
   57.2720   22.0430   47.5130 N   0  0  0  0  0  0  0  0  0  0  0  0
   56.3140   22.8990   48.2020 C   0  0  0  0  0  0  0  0  0  0  0  0
   56.8563   23.6713   48.7673 H   0  0  0  0  0  0  0  0  0  0  0  0
   55.7121   22.2868   48.8898 H   0  0  0  0  0  0  0  0  0  0  0  0
   55.3920   23.5680   47.1910 C   0  0  0  0  0  0  0  0  0  0  0  0
   54.7451   24.2942   47.7050 H   0  0  0  0  0  0  0  0  0  0  0  0
   54.7631   22.8101   46.7011 H   0  0  0  0  0  0  0  0  0  0  0  0
   56.3850   29.6010   44.9880 C   0  0  0  0  0  0  0  0  0  0  0  0
   55.1570   28.9600   44.8690 O   0  0  0  0  0  0  0  0  0  0  0  0
   56.5290   30.9080   44.5150 C   0  0  0  0  0  0  0  0  0  0  0  0
   55.6750   31.4155   44.0427 H   0  0  0  0  0  0  0  0  0  0  0  0
   58.6400   33.4540   47.1550 C   0  0  0  0  0  0  0  0  0  0  0  0
   57.5565   33.2820   47.0754 H   0  0  0  0  0  0  0  0  0  0  0  0
  1  2  1  0
  2  3  1  0
  3  4  2  0
  4  5  1  0
  4  6  1  0
  6  7  1  0
  7  8  1  0
  8  9  1  0
  8 10  1  0
  8 11  1  0
  6 12  2  0
 12 13  1  0
 12 14  1  0
 14 15  1  0
 15 16  1  0
 15 17  2  0
 17 18  1  0
 17 19  1  0
 19 20  2  0
 20 21  1  0
 20 22  1  0
 22 23  1  0
 22 24  2  0
 24 25  1  0
 25 26  1  0
 26 27  1  0
 26 28  1  0
 26 29  1  0
 29 30  2  0
 29 31  1  0
 31 32  1  0
 32 33  1  0
 32 34  1  0
 32 35  1  0
 35 36  2  0
 35 37  1  0
 37 38  1  0
 38 39  1  0
 38 40  1  0
 38 41  1  0
 41 42  1  0
 41 43  1  0
 24 44  1  0
 44 45  1  0
 44 46  2  0
 46 47  1  0
 14 48  2  0
 48 49  1  0
 48  3  1  0
 46 19  1  0
 41 31  1  0
M  CHG  2  37  -1  45  -1
M  END
>  <UniqueID>  (42) 
38

>  <SMILES>  (42) 
COc1cc(O)cc(/C=C\c2ccc(OCC(=O)N3CC[N-]C(=O)C3)c([O-])c2)c1

>  <Energy>  (42) 
59.66007356783304

>  <Genealogy>  (42) 
COc1cc(O)cc(C=Cc2ccc(OCC(=O)N3CC[N-]C(=O)C3)c([O-])c2)c1 (protonated)
COc1cc(O)cc(/C=C\c2ccc(OCC(=O)N3CC[N-]C(=O)C3)c([O-])c2)c1 (cis-trans isomerization)
COc1cc(O)cc(/C=C\c2ccc(OCC(=O)N3CC[N-]C(=O)C3)c([O-])c2)c1 (3D coordinates assigned)
COc1cc(O)cc(/C=C\c2ccc(OCC(=O)N3CC[N-]C(=O)C3)c([O-])c2)c1 (nonaromatic ring conformer: 59.66007356783304 kcal/mol)

>  <smiles>  (42) 
COc1cc(O)cc(C=Cc2ccc(OCC(=O)N3CCNC(=O)C3)c(O)c2)c1

>  <score_type>  (42) 
oracle

>  <origin>  (42) 
adg

>  <m_score__min__energy>  (42) 
-13.869999999999999

>  <m_primary>  (42) 
energy

$$$$
42:0
     RDKit          3D

 48 50  0  0  0  0  0  0  0  0999 V2000
   57.4160   21.1580   43.0030 C   0  0  0  0  0  0  0  0  0  0  0  0
   56.4760   22.3610   43.0750 C   0  0  0  0  0  0  0  0  0  0  0  0
   56.1840   22.7910   44.5190 C   0  0  0  0  0  0  0  0  0  0  0  0
   57.1460   23.8490   44.9980 C   0  0  0  0  0  0  0  0  0  0  0  0
   58.3990   23.4890   45.5170 C   0  0  0  0  0  0  0  0  0  0  0  0
   59.2980   24.4740   45.9280 C   0  0  0  0  0  0  0  0  0  0  0  0
   58.9560   25.8250   45.8290 C   0  0  0  0  0  0  0  0  0  0  0  0
   57.6990   26.2030   45.3250 C   0  0  0  0  0  0  0  0  0  0  0  0
   57.3330   27.5870   45.1830 N   0  0  0  0  0  0  0  0  0  0  0  0
   57.8230   28.6380   46.0320 C   0  0  0  0  0  0  0  0  0  0  0  0
   58.4140   28.3630   47.1120 O   0  0  0  0  0  0  0  0  0  0  0  0
   57.6020   30.0470   45.6700 C   0  0  0  0  0  0  0  0  0  0  0  0
   58.3650   31.1210   46.0810 C   0  0  0  0  0  0  0  0  0  0  0  0
   57.7510   32.1980   45.4780 C   0  0  0  0  0  0  0  0  0  0  0  0
   58.1710   33.6300   45.5740 C   0  0  0  0  0  0  0  0  0  0  0  0
   58.6850   33.9130   46.8750 O   0  0  0  0  0  0  0  0  0  0  0  0
   60.0300   33.7900   47.2610 C   0  0  0  0  0  0  0  0  0  0  0  0
   61.0860   33.7540   46.3280 C   0  0  0  0  0  0  0  0  0  0  0  0
   62.4080   33.6280   46.7640 C   0  0  0  0  0  0  0  0  0  0  0  0
   62.6980   33.5510   48.1340 C   0  0  0  0  0  0  0  0  0  0  0  0
   64.1140   33.3740   48.5980 C   0  0  0  0  0  0  0  0  0  0  0  0
   61.6480   33.5710   49.0620 C   0  0  0  0  0  0  0  0  0  0  0  0
   60.3240   33.6980   48.6280 C   0  0  0  0  0  0  0  0  0  0  0  0
   59.3210   33.7240   49.5400 F   0  0  0  0  0  0  0  0  0  0  0  0
   56.7290   31.7680   44.7740 O   0  0  0  0  0  0  0  0  0  0  0  0
   56.6070   30.4760   44.8680 N   0  0  0  0  0  0  0  0  0  0  0  0
   56.8090   25.2090   44.8920 C   0  0  0  0  0  0  0  0  0  0  0  0
   57.6716   20.8309   44.0217 H   0  0  0  0  0  0  0  0  0  0  0  0
   56.9188   20.3357   42.4678 H   0  0  0  0  0  0  0  0  0  0  0  0
   58.3342   21.4416   42.4678 H   0  0  0  0  0  0  0  0  0  0  0  0
   56.9403   23.2042   42.5426 H   0  0  0  0  0  0  0  0  0  0  0  0
   55.5215   22.0684   42.6131 H   0  0  0  0  0  0  0  0  0  0  0  0
   55.1608   23.1916   44.5704 H   0  0  0  0  0  0  0  0  0  0  0  0
   56.2985   21.9090   45.1663 H   0  0  0  0  0  0  0  0  0  0  0  0
   58.6735   22.4270   45.6001 H   0  0  0  0  0  0  0  0  0  0  0  0
   60.2798   24.1856   46.3315 H   0  0  0  0  0  0  0  0  0  0  0  0
   59.6732   26.5962   46.1467 H   0  0  0  0  0  0  0  0  0  0  0  0
   56.6000   27.8270   44.4780 H   0  0  0  0  0  0  0  0  0  0  0  0
   59.2507   31.1183   46.7333 H   0  0  0  0  0  0  0  0  0  0  0  0
   58.9515   33.8295   44.8249 H   0  0  0  0  0  0  0  0  0  0  0  0
   57.2963   34.2709   45.3894 H   0  0  0  0  0  0  0  0  0  0  0  0
   60.8687   33.8254   45.2520 H   0  0  0  0  0  0  0  0  0  0  0  0
   63.2252   33.5890   46.0287 H   0  0  0  0  0  0  0  0  0  0  0  0
   64.1418   33.3705   49.6976 H   0  0  0  0  0  0  0  0  0  0  0  0
   64.5077   32.4197   48.2182 H   0  0  0  0  0  0  0  0  0  0  0  0
   64.7305   34.2021   48.2182 H   0  0  0  0  0  0  0  0  0  0  0  0
   61.8659   33.4864   50.1369 H   0  0  0  0  0  0  0  0  0  0  0  0
   55.8371   25.4972   44.4650 H   0  0  0  0  0  0  0  0  0  0  0  0
  1  2  1  0
  2  3  1  0
  3  4  1  0
  4  5  2  0
  5  6  1  0
  6  7  2  0
  7  8  1  0
  8  9  1  0
  9 10  1  0
 10 11  2  0
 10 12  1  0
 12 13  1  0
 13 14  2  0
 14 15  1  0
 15 16  1  0
 16 17  1  0
 17 18  2  0
 18 19  1  0
 19 20  2  0
 20 21  1  0
 20 22  1  0
 22 23  2  0
 23 24  1  0
 14 25  1  0
 25 26  1  0
  8 27  2  0
 27  4  1  0
 26 12  2  0
 23 17  1  0
  1 28  1  0
  1 29  1  0
  1 30  1  0
  2 31  1  0
  2 32  1  0
  3 33  1  0
  3 34  1  0
  5 35  1  0
  6 36  1  0
  7 37  1  0
  9 38  1  0
 13 39  1  0
 15 40  1  0
 15 41  1  0
 18 42  1  0
 19 43  1  0
 21 44  1  0
 21 45  1  0
 21 46  1  0
 22 47  1  0
 27 48  1  0
M  END
>  <UniqueID>  (43) 
39

>  <SMILES>  (43) 
CCCc1cccc(NC(=O)c2cc(COc3ccc(C)cc3F)on2)c1

>  <Energy>  (43) 
76.4897433318207

>  <Genealogy>  (43) 
CCCc1cccc(NC(=O)c2cc(COc3ccc(C)cc3F)on2)c1 (3D coordinates assigned)
CCCc1cccc(NC(=O)c2cc(COc3ccc(C)cc3F)on2)c1 (optimized conformer: 76.4897433318207 kcal/mol)

>  <smiles>  (43) 
CCCc1cccc(NC(=O)c2cc(COc3ccc(C)cc3F)on2)c1

>  <score_type>  (43) 
oracle

>  <origin>  (43) 
adg

>  <m_score__min__energy>  (43) 
-8.6300000000000008

>  <m_primary>  (43) 
energy

$$$$
43:0
     RDKit          3D

 59 61  0  0  1  0  0  0  0  0999 V2000
   56.1680   25.0910   47.1170 O   0  0  0  0  0  0  0  0  0  0  0  0
   56.3310   26.0840   46.3180 C   0  0  0  0  0  0  0  0  0  0  0  0
   55.1790   26.7280   45.9920 O   0  0  0  0  0  0  0  0  0  0  0  0
   57.6860   26.3310   45.9260 C   0  0  0  0  0  0  0  0  0  0  0  0
   58.1390   27.1140   44.9970 C   0  0  0  0  0  0  0  0  0  0  0  0
   57.7730   28.4530   44.6700 C   0  0  0  0  0  0  0  0  0  0  0  0
   56.6570   28.9420   44.0680 C   0  0  0  0  0  0  0  0  0  0  0  0
   56.3510   30.2930   43.9480 C   0  0  0  0  0  0  0  0  0  0  0  0
   57.2120   31.2410   44.4550 C   0  0  0  0  0  0  0  0  0  0  0  0
   58.3520   30.7770   45.0660 C   0  0  0  0  0  0  0  0  0  0  0  0
   58.6470   29.4430   45.1840 C   0  0  0  0  0  0  0  0  0  0  0  0
   60.1320   29.0050   45.9840 S   0  0  0  0  0  0  0  0  0  0  0  0
   60.9010   30.3110   46.1180 O   0  0  0  0  0  0  0  0  0  0  0  0
   61.0300   28.1390   45.1840 O   0  0  0  0  0  0  0  0  0  0  0  0
   59.9250   28.5170   47.6100 N   0  0  0  0  0  0  0  0  0  0  0  0
   59.8000   29.3900   48.5530 C   0  0  0  0  0  0  0  0  0  0  0  0
   58.6690   29.3400   49.3300 C   0  0  0  0  0  0  0  0  0  0  0  0
   58.5390   30.2850   50.3480 C   0  0  0  0  0  0  0  0  0  0  0  0
   57.4130   30.2460   51.1300 O   0  0  0  0  0  0  0  0  0  0  0  0
   57.4850   30.5160   52.5070 C   0  0  0  0  0  0  0  0  0  0  0  0
   57.4360   32.0210   52.7760 C   0  0  0  0  0  0  0  0  0  0  0  0
   57.3820   32.7460   51.6120 O   0  0  0  0  0  0  0  0  0  0  0  0
   59.5030   31.2090   50.5480 N   0  0  0  0  0  0  0  0  0  0  0  0
   60.6160   31.2430   49.7710 C   0  0  0  0  0  0  0  0  0  0  0  0
   61.5100   32.1220   49.9770 N   0  0  0  0  0  0  0  0  0  0  0  0
   61.6280   33.3020   49.1790 C   0  0  0  0  0  0  0  0  0  0  0  0
   60.3880   34.1900   49.3150 C   0  0  0  0  0  0  0  0  0  0  0  0
   59.6230   34.2170   48.0400 C   0  0  0  0  0  0  0  0  0  0  0  0
   58.4680   33.4410   47.9730 C   0  0  0  0  0  0  0  0  0  0  0  0
   57.7140   33.4280   46.8080 C   0  0  0  0  0  0  0  0  0  0  0  0
   58.1040   34.1770   45.7230 C   0  0  0  0  0  0  0  0  0  0  0  0
   57.3630   34.1830   44.5330 O   0  0  0  0  0  0  0  0  0  0  0  0
   59.2580   34.9630   45.7640 C   0  0  0  0  0  0  0  0  0  0  0  0
   60.0070   34.9650   46.9440 C   0  0  0  0  0  0  0  0  0  0  0  0
   60.7370   30.3320   48.7900 N   0  0  0  0  0  0  0  0  0  0  0  0
   55.1470   27.5130   45.3450 H   0  0  0  0  0  0  0  0  0  0  0  0
   58.4501   25.7788   46.4928 H   0  0  0  0  0  0  0  0  0  0  0  0
   58.9263   26.6787   44.3641 H   0  0  0  0  0  0  0  0  0  0  0  0
   55.9452   28.2175   43.6457 H   0  0  0  0  0  0  0  0  0  0  0  0
   55.4218   30.6045   43.4484 H   0  0  0  0  0  0  0  0  0  0  0  0
   56.9975   32.3169   44.3747 H   0  0  0  0  0  0  0  0  0  0  0  0
   59.0608   31.5095   45.4796 H   0  0  0  0  0  0  0  0  0  0  0  0
   57.8922   28.5809   49.1558 H   0  0  0  0  0  0  0  0  0  0  0  0
   56.6361   30.0328   53.0128 H   0  0  0  0  0  0  0  0  0  0  0  0
   58.4381   30.1232   52.8908 H   0  0  0  0  0  0  0  0  0  0  0  0
   56.5429   32.2462   53.3773 H   0  0  0  0  0  0  0  0  0  0  0  0
   58.3548   32.3024   53.3114 H   0  0  0  0  0  0  0  0  0  0  0  0
   56.7850   32.3230   50.9200 H   0  0  0  0  0  0  0  0  0  0  0  0
   59.3920   31.9090   51.3130 H   0  0  0  0  0  0  0  0  0  0  0  0
   62.5125   33.8687   49.5054 H   0  0  0  0  0  0  0  0  0  0  0  0
   61.7266   33.0011   48.1256 H   0  0  0  0  0  0  0  0  0  0  0  0
   59.7449   33.7934   50.1144 H   0  0  0  0  0  0  0  0  0  0  0  0
   60.7090   35.2136   49.5585 H   0  0  0  0  0  0  0  0  0  0  0  0
   58.1549   32.8409   48.8401 H   0  0  0  0  0  0  0  0  0  0  0  0
   56.8014   32.8165   46.7525 H   0  0  0  0  0  0  0  0  0  0  0  0
   56.4400   34.5570   44.4840 H   0  0  0  0  0  0  0  0  0  0  0  0
   59.5676   35.5617   44.8947 H   0  0  0  0  0  0  0  0  0  0  0  0
   60.9208   35.5746   47.0011 H   0  0  0  0  0  0  0  0  0  0  0  0
   61.5690   30.3460   48.1980 H   0  0  0  0  0  0  0  0  0  0  0  0
  1  2  2  0
  2  3  1  0
  2  4  1  0
  4  5  2  0
  5  6  1  0
  6  7  2  0
  7  8  1  0
  8  9  2  0
  9 10  1  0
 10 11  2  0
 11 12  1  0
 12 13  2  0
 12 14  2  0
 12 15  1  0
 15 16  2  0
 16 17  1  0
 17 18  2  0
 18 19  1  0
 19 20  1  0
 20 21  1  0
 21 22  1  0
 18 23  1  0
 23 24  1  0
 24 25  2  0
 25 26  1  0
 26 27  1  0
 27 28  1  0
 28 29  2  0
 29 30  1  0
 30 31  2  0
 31 32  1  0
 31 33  1  0
 33 34  2  0
 24 35  1  0
 11  6  1  0
 35 16  1  0
 34 28  1  0
  3 36  1  0
  4 37  1  0
  5 38  1  0
  7 39  1  0
  8 40  1  0
  9 41  1  0
 10 42  1  0
 17 43  1  0
 20 44  1  0
 20 45  1  0
 21 46  1  0
 21 47  1  0
 22 48  1  0
 23 49  1  0
 26 50  1  0
 26 51  1  0
 27 52  1  0
 27 53  1  0
 29 54  1  0
 30 55  1  0
 32 56  1  0
 33 57  1  0
 34 58  1  0
 35 59  1  0
M  END
>  <smiles>  (44) 
O=C(O)C=Cc1ccccc1S(=O)(=O)N=c1cc(OCCO)[nH]c(=NCCc2ccc(O)cc2)[nH]1

>  <score_type>  (44) 
oracle

>  <origin>  (44) 
adg

>  <m_score__min__energy>  (44) 
-9.2699999999999996

>  <m_primary>  (44) 
energy

$$$$
44:0
     RDKit          3D

 49 52  0  0  0  0  0  0  0  0999 V2000
   56.6380   29.6800   43.2310 C   0  0  0  0  0  0  0  0  0  0  0  0
   57.1800   29.6460   44.4610 C   0  0  0  0  0  0  0  0  0  0  0  0
   57.5780   28.4940   45.1490 C   0  0  0  0  0  0  0  0  0  0  0  0
   57.5100   27.2180   44.7200 C   0  0  0  0  0  0  0  0  0  0  0  0
   57.1190   26.0790   45.5720 C   0  0  0  0  0  0  0  0  0  0  0  0
   57.9380   25.1040   46.0070 N   0  0  0  0  0  0  0  0  0  0  0  0
   57.1700   24.3560   46.8240 C   0  0  0  0  0  0  0  0  0  0  0  0
   57.6000   23.3380   47.4270 O   0  0  0  0  0  0  0  0  0  0  0  0
   55.9030   24.8030   46.9530 N   0  0  0  0  0  0  0  0  0  0  0  0
   55.8910   25.8960   46.1670 C   0  0  0  0  0  0  0  0  0  0  0  0
   54.7800   26.7130   45.9980 O   0  0  0  0  0  0  0  0  0  0  0  0
   58.1320   28.9280   46.3420 C   0  0  0  0  0  0  0  0  0  0  0  0
   58.0540   30.3080   46.3450 C   0  0  0  0  0  0  0  0  0  0  0  0
   58.6030   31.1770   47.4500 C   0  0  0  0  0  0  0  0  0  0  0  0
   60.0820   31.3720   47.2870 C   0  0  0  0  0  0  0  0  0  0  0  0
   60.8630   32.3020   47.8240 C   0  0  0  0  0  0  0  0  0  0  0  0
   60.5160   33.3970   48.6230 C   0  0  0  0  0  0  0  0  0  0  0  0
   61.5440   34.2380   49.0820 C   0  0  0  0  0  0  0  0  0  0  0  0
   62.8870   33.9760   48.7420 C   0  0  0  0  0  0  0  0  0  0  0  0
   63.2170   32.8690   47.9420 C   0  0  0  0  0  0  0  0  0  0  0  0
   62.1880   32.0420   47.4950 C   0  0  0  0  0  0  0  0  0  0  0  0
   62.3510   30.9770   46.7740 N   0  0  0  0  0  0  0  0  0  0  0  0
   61.0230   30.4920   46.6100 C   0  0  0  0  0  0  0  0  0  0  0  0
   60.7300   29.4460   45.9730 O   0  0  0  0  0  0  0  0  0  0  0  0
   57.4430   30.7470   45.2160 N   0  0  0  0  0  0  0  0  0  0  0  0
   57.1760   32.1520   44.8690 C   0  0  0  0  0  0  0  0  0  0  0  0
   58.2640   32.6890   43.9950 C   0  0  0  0  0  0  0  0  0  0  0  0
   58.4120   32.2320   42.8290 O   0  0  0  0  0  0  0  0  0  0  0  0
   59.1250   33.6750   44.4930 O   0  0  0  0  0  0  0  0  0  0  0  0
   58.7660   34.5720   45.5420 C   0  0  0  0  0  0  0  0  0  0  0  0
   59.9870   35.3430   46.0290 C   0  0  0  0  0  0  0  0  0  0  0  0
   56.3593   30.6434   42.7792 H   0  0  0  0  0  0  0  0  0  0  0  0
   56.4733   28.7444   42.6765 H   0  0  0  0  0  0  0  0  0  0  0  0
   57.7618   27.0132   43.6690 H   0  0  0  0  0  0  0  0  0  0  0  0
   58.9560   24.9790   45.8140 H   0  0  0  0  0  0  0  0  0  0  0  0
   58.5539   28.2947   47.1363 H   0  0  0  0  0  0  0  0  0  0  0  0
   58.1042   32.1570   47.4202 H   0  0  0  0  0  0  0  0  0  0  0  0
   58.4159   30.6824   48.4146 H   0  0  0  0  0  0  0  0  0  0  0  0
   59.4660   33.5943   48.8850 H   0  0  0  0  0  0  0  0  0  0  0  0
   61.2992   35.1067   49.7109 H   0  0  0  0  0  0  0  0  0  0  0  0
   63.6824   34.6432   49.1057 H   0  0  0  0  0  0  0  0  0  0  0  0
   64.2633   32.6599   47.6747 H   0  0  0  0  0  0  0  0  0  0  0  0
   56.2166   32.2174   44.3349 H   0  0  0  0  0  0  0  0  0  0  0  0
   57.1352   32.7463   45.7937 H   0  0  0  0  0  0  0  0  0  0  0  0
   58.0146   35.2832   45.1683 H   0  0  0  0  0  0  0  0  0  0  0  0
   58.3554   33.9909   46.3809 H   0  0  0  0  0  0  0  0  0  0  0  0
   60.0005   35.3516   47.1289 H   0  0  0  0  0  0  0  0  0  0  0  0
   60.9004   34.8576   45.6548 H   0  0  0  0  0  0  0  0  0  0  0  0
   59.9414   36.3764   45.6548 H   0  0  0  0  0  0  0  0  0  0  0  0
  1  2  2  0
  2  3  1  0
  3  4  2  3
  4  5  1  0
  5  6  1  0
  6  7  1  0
  7  8  2  0
  7  9  1  0
  9 10  1  0
 10 11  1  0
  3 12  1  0
 12 13  2  0
 13 14  1  0
 14 15  1  0
 15 16  2  0
 16 17  1  0
 17 18  2  0
 18 19  1  0
 19 20  2  0
 20 21  1  0
 21 22  2  0
 22 23  1  0
 23 24  2  0
 13 25  1  0
 25 26  1  0
 26 27  1  0
 27 28  2  0
 27 29  1  0
 29 30  1  0
 30 31  1  0
 25  2  1  0
 10  5  2  0
 23 15  1  0
 21 16  1  0
  1 32  1  0
  1 33  1  0
  4 34  1  0
  6 35  1  0
 12 36  1  0
 14 37  1  0
 14 38  1  0
 17 39  1  0
 18 40  1  0
 19 41  1  0
 20 42  1  0
 26 43  1  0
 26 44  1  0
 30 45  1  0
 30 46  1  0
 31 47  1  0
 31 48  1  0
 31 49  1  0
M  CHG  2   9  -1  11  -1
M  END
>  <UniqueID>  (45) 
40

>  <SMILES>  (45) 
C=c1c(=Cc2[nH]c(=O)[n-]c2[O-])cc(CC2=c3ccccc3=NC2=O)n1CC(=O)OCC

>  <Energy>  (45) 
144.0136257380924

>  <Genealogy>  (45) 
C=c1c(=Cc2[nH]c(=O)[n-]c2[O-])cc(CC2=c3ccccc3=NC2=O)n1CC(=O)OCC (protonated)
C=c1c(=Cc2[nH]c(=O)[n-]c2[O-])cc(CC2=c3ccccc3=NC2=O)n1CC(=O)OCC (3D coordinates assigned)
C=c1c(=Cc2[nH]c(=O)[n-]c2[O-])cc(CC2=c3ccccc3=NC2=O)n1CC(=O)OCC (nonaromatic ring conformer: 144.0136257380924 kcal/mol)

>  <smiles>  (45) 
C=c1c(=Cc2[nH]c(=O)[nH]c2O)cc(CC2=c3ccccc3=NC2=O)n1CC(=O)OCC

>  <score_type>  (45) 
oracle

>  <origin>  (45) 
adg

>  <m_score__min__energy>  (45) 
-14.65

>  <m_primary>  (45) 
energy

$$$$
45:0
     RDKit          3D

 39 41  0  0  0  0  0  0  0  0999 V2000
   55.6260   28.6950   43.9890 H   0  0  0  0  0  0  0  0  0  0  0  0
   55.5690   28.5930   44.9950 O   0  0  0  0  0  0  0  0  0  0  0  0
   56.0770   27.4610   45.6230 C   0  0  0  0  0  0  0  0  0  0  0  0
   55.3250   26.4180   46.0150 N   0  0  0  0  0  0  0  0  0  0  0  0
   56.2340   25.5990   46.5860 C   0  0  0  0  0  0  0  0  0  0  0  0
   55.9220   24.4910   47.0950 O   0  0  0  0  0  0  0  0  0  0  0  0
   57.5010   26.0660   46.5820 N   0  0  0  0  0  0  0  0  0  0  0  0
   57.3950   27.2440   45.9380 C   0  0  0  0  0  0  0  0  0  0  0  0
   58.4890   28.2180   45.7890 C   0  0  0  0  0  0  0  0  0  0  0  0
   59.5155   27.8228   45.7932 H   0  0  0  0  0  0  0  0  0  0  0  0
   58.3450   29.5500   45.6480 C   0  0  0  0  0  0  0  0  0  0  0  0
   58.6480   30.4410   46.6610 C   0  0  0  0  0  0  0  0  0  0  0  0
   58.9489   30.1853   47.6877 H   0  0  0  0  0  0  0  0  0  0  0  0
   58.5020   31.7110   46.1420 C   0  0  0  0  0  0  0  0  0  0  0  0
   58.8570   32.9410   46.8830 C   0  0  0  0  0  0  0  0  0  0  0  0
   58.1170   33.9560   46.7740 O   0  0  0  0  0  0  0  0  0  0  0  0
   59.9410   32.9240   47.8260 N   0  0  0  0  0  0  0  0  0  0  0  0
   61.2260   33.0260   47.6110 C   0  0  0  0  0  0  0  0  0  0  0  0
   61.7660   33.8550   46.6030 C   0  0  0  0  0  0  0  0  0  0  0  0
   61.0996   34.4559   45.9668 H   0  0  0  0  0  0  0  0  0  0  0  0
   63.1480   33.9090   46.4170 C   0  0  0  0  0  0  0  0  0  0  0  0
   63.5708   34.5628   45.6400 H   0  0  0  0  0  0  0  0  0  0  0  0
   63.9720   33.1590   47.1900 N   0  0  0  0  0  0  0  0  0  0  0  0
   63.4910   32.3370   48.1570 C   0  0  0  0  0  0  0  0  0  0  0  0
   64.1878   31.7386   48.7624 H   0  0  0  0  0  0  0  0  0  0  0  0
   62.1100   32.2460   48.3890 C   0  0  0  0  0  0  0  0  0  0  0  0
   61.5910   31.3150   49.4530 C   0  0  0  0  0  0  0  0  0  0  0  0
   61.8214   31.7283   50.4460 H   0  0  0  0  0  0  0  0  0  0  0  0
   60.5018   31.2057   49.3451 H   0  0  0  0  0  0  0  0  0  0  0  0
   62.0707   30.3310   49.3451 H   0  0  0  0  0  0  0  0  0  0  0  0
   58.0440   31.6480   44.8660 N   0  0  0  0  0  0  0  0  0  0  0  0
   57.6820   32.7930   44.0190 C   0  0  0  0  0  0  0  0  0  0  0  0
   57.4115   33.6486   44.6552 H   0  0  0  0  0  0  0  0  0  0  0  0
   58.5381   33.0645   43.3839 H   0  0  0  0  0  0  0  0  0  0  0  0
   56.8254   32.5230   43.3839 H   0  0  0  0  0  0  0  0  0  0  0  0
   57.9400   30.3270   44.5500 C   0  0  0  0  0  0  0  0  0  0  0  0
   57.4150   29.8750   43.3990 C   0  0  0  0  0  0  0  0  0  0  0  0
   57.1344   30.5844   42.6065 H   0  0  0  0  0  0  0  0  0  0  0  0
   57.2657   28.7955   43.2491 H   0  0  0  0  0  0  0  0  0  0  0  0
  1  2  1  0
  2  3  1  0
  3  4  1  0
  4  5  1  0
  5  6  2  0
  5  7  1  0
  7  8  1  0
  8  9  1  0
  9 10  1  0
  9 11  2  0
 11 12  1  0
 12 13  1  0
 12 14  2  0
 14 15  1  0
 15 16  2  0
 15 17  1  0
 17 18  2  0
 18 19  1  0
 19 20  1  0
 19 21  2  0
 21 22  1  0
 21 23  1  0
 23 24  1  0
 24 25  1  0
 24 26  2  0
 26 27  1  0
 27 28  1  0
 27 29  1  0
 27 30  1  0
 14 31  1  0
 31 32  1  0
 32 33  1  0
 32 34  1  0
 32 35  1  0
 31 36  1  0
 36 37  2  0
 37 38  1  0
 37 39  1  0
  8  3  2  0
 36 11  1  0
 26 18  1  0
M  CHG  3   4  -1   7  -1  23  -1
M  END
>  <UniqueID>  (46) 
41

>  <SMILES>  (46) 
C=c1/c(=C\c2[n-]c(=O)[n-]c2O)cc(C(=O)/N=c2\cc[n-]cc2C)n1C

>  <Energy>  (46) 
121.58397123586495

>  <Genealogy>  (46) 
C=c1c(=Cc2[n-]c(=O)[n-]c2O)cc(C(=O)N=c2cc[n-]cc2C)n1C (protonated)
C=c1/c(=C\c2[n-]c(=O)[n-]c2O)cc(C(=O)/N=c2\cc[n-]cc2C)n1C (cis-trans isomerization)
C=c1/c(=C\c2[n-]c(=O)[n-]c2O)cc(C(=O)/N=c2\cc[n-]cc2C)n1C (3D coordinates assigned)
C=c1/c(=C\c2[n-]c(=O)[n-]c2O)cc(C(=O)/N=c2\cc[n-]cc2C)n1C (optimized conformer: 121.58397123586495 kcal/mol)

>  <smiles>  (46) 
C=c1c(=Cc2[nH]c(=O)[nH]c2O)cc(C(=O)N=c2cc[nH]cc2C)n1C

>  <score_type>  (46) 
oracle

>  <origin>  (46) 
adg

>  <m_score__min__energy>  (46) 
-13.300000000000001

>  <m_primary>  (46) 
energy

$$$$
46:0
     RDKit          3D

 71 75  0  0  0  0  0  0  0  0999 V2000
   59.6620   35.9560   46.3580 C   0  0  0  0  0  0  0  0  0  0  0  0
   59.2970   34.5390   46.0050 C   0  0  0  0  0  0  0  0  0  0  0  0
   58.4450   34.3160   44.9140 C   0  0  0  0  0  0  0  0  0  0  0  0
   58.0700   33.0220   44.5540 C   0  0  0  0  0  0  0  0  0  0  0  0
   58.5440   31.9110   45.2710 C   0  0  0  0  0  0  0  0  0  0  0  0
   58.1740   30.5700   44.8760 N   0  0  0  0  0  0  0  0  0  0  0  0
   56.9390   30.3180   44.1250 C   0  0  0  0  0  0  0  0  0  0  0  0
   56.3230   28.9930   44.5880 C   0  0  0  0  0  0  0  0  0  0  0  0
   57.2430   27.8380   44.4160 N   0  0  0  0  0  0  0  0  0  0  0  0
   56.9260   26.6400   45.6530 S   0  0  0  0  0  0  0  0  0  0  0  0
   57.7000   26.9670   46.9010 O   0  0  0  0  0  0  0  0  0  0  0  0
   55.4610   26.6360   45.9900 O   0  0  0  0  0  0  0  0  0  0  0  0
   57.3760   25.0350   45.0790 C   0  0  0  0  0  0  0  0  0  0  0  0
   58.4740   24.3720   45.6480 C   0  0  0  0  0  0  0  0  0  0  0  0
   58.8390   23.0990   45.1980 C   0  0  0  0  0  0  0  0  0  0  0  0
   58.1040   22.4790   44.1830 C   0  0  0  0  0  0  0  0  0  0  0  0
   57.0050   23.1340   43.6160 C   0  0  0  0  0  0  0  0  0  0  0  0
   56.6400   24.4080   44.0620 C   0  0  0  0  0  0  0  0  0  0  0  0
   58.6850   28.1980   44.3800 C   0  0  0  0  0  0  0  0  0  0  0  0
   59.0230   29.4250   45.2400 C   0  0  0  0  0  0  0  0  0  0  0  0
   59.3940   32.1300   46.3700 C   0  0  0  0  0  0  0  0  0  0  0  0
   59.7980   33.4290   46.7320 C   0  0  0  0  0  0  0  0  0  0  0  0
   60.7460   33.5880   47.8590 C   0  0  0  0  0  0  0  0  0  0  0  0
   61.9430   33.2140   47.7300 O   0  0  0  0  0  0  0  0  0  0  0  0
   60.2770   34.1020   49.1120 N   0  0  0  0  0  0  0  0  0  0  0  0
   59.4480   33.4270   50.0720 C   0  0  0  0  0  0  0  0  0  0  0  0
   58.8640   32.1730   49.8140 C   0  0  0  0  0  0  0  0  0  0  0  0
   58.1050   31.5300   50.7970 C   0  0  0  0  0  0  0  0  0  0  0  0
   57.9310   32.1170   52.0610 C   0  0  0  0  0  0  0  0  0  0  0  0
   57.1760   31.4120   53.1210 C   0  0  0  0  0  0  0  0  0  0  0  0
   57.5180   31.5460   54.3270 O   0  0  0  0  0  0  0  0  0  0  0  0
   56.0470   30.5820   52.8060 N   0  0  0  0  0  0  0  0  0  0  0  0
   56.1110   29.1460   53.0810 C   0  0  0  0  0  0  0  0  0  0  0  0
   54.7050   28.6010   53.3600 C   0  0  0  0  0  0  0  0  0  0  0  0
   53.7920   29.0090   52.3570 O   0  0  0  0  0  0  0  0  0  0  0  0
   53.6440   30.4160   52.3910 C   0  0  0  0  0  0  0  0  0  0  0  0
   54.9500   31.1040   51.9860 C   0  0  0  0  0  0  0  0  0  0  0  0
   58.5370   33.3570   52.3260 C   0  0  0  0  0  0  0  0  0  0  0  0
   59.2850   34.0050   51.3380 C   0  0  0  0  0  0  0  0  0  0  0  0
   59.6902   36.0656   47.4522 H   0  0  0  0  0  0  0  0  0  0  0  0
   60.6510   36.1949   45.9399 H   0  0  0  0  0  0  0  0  0  0  0  0
   58.9115   36.6430   45.9399 H   0  0  0  0  0  0  0  0  0  0  0  0
   58.0679   35.1720   44.3351 H   0  0  0  0  0  0  0  0  0  0  0  0
   57.3953   32.8696   43.6987 H   0  0  0  0  0  0  0  0  0  0  0  0
   56.2266   31.1366   44.3049 H   0  0  0  0  0  0  0  0  0  0  0  0
   57.1674   30.2614   43.0505 H   0  0  0  0  0  0  0  0  0  0  0  0
   56.0632   29.0796   45.6534 H   0  0  0  0  0  0  0  0  0  0  0  0
   55.4359   28.8050   43.9653 H   0  0  0  0  0  0  0  0  0  0  0  0
   57.0140   27.3800   43.5030 H   0  0  0  0  0  0  0  0  0  0  0  0
   59.0499   24.8553   46.4510 H   0  0  0  0  0  0  0  0  0  0  0  0
   59.7043   22.5856   45.6426 H   0  0  0  0  0  0  0  0  0  0  0  0
   58.3894   21.4769   43.8303 H   0  0  0  0  0  0  0  0  0  0  0  0
   56.4270   22.6456   42.8177 H   0  0  0  0  0  0  0  0  0  0  0  0
   55.7747   24.9194   43.6150 H   0  0  0  0  0  0  0  0  0  0  0  0
   59.2687   27.3414   44.7481 H   0  0  0  0  0  0  0  0  0  0  0  0
   58.9336   28.4498   43.3385 H   0  0  0  0  0  0  0  0  0  0  0  0
   58.8603   29.1782   46.2996 H   0  0  0  0  0  0  0  0  0  0  0  0
   60.0745   29.6974   45.0665 H   0  0  0  0  0  0  0  0  0  0  0  0
   59.7496   31.2706   46.9573 H   0  0  0  0  0  0  0  0  0  0  0  0
   59.0053   31.6956   48.8331 H   0  0  0  0  0  0  0  0  0  0  0  0
   57.6407   30.5570   50.5785 H   0  0  0  0  0  0  0  0  0  0  0  0
   56.5363   28.6270   52.2093 H   0  0  0  0  0  0  0  0  0  0  0  0
   56.7453   28.9758   53.9634 H   0  0  0  0  0  0  0  0  0  0  0  0
   54.7440   27.5020   53.3848 H   0  0  0  0  0  0  0  0  0  0  0  0
   54.3620   28.9975   54.3270 H   0  0  0  0  0  0  0  0  0  0  0  0
   52.8473   30.7129   51.6931 H   0  0  0  0  0  0  0  0  0  0  0  0
   53.3848   30.7211   53.4156 H   0  0  0  0  0  0  0  0  0  0  0  0
   55.1571   30.9035   50.9245 H   0  0  0  0  0  0  0  0  0  0  0  0
   54.8583   32.1892   52.1409 H   0  0  0  0  0  0  0  0  0  0  0  0
   58.4222   33.8208   53.3168 H   0  0  0  0  0  0  0  0  0  0  0  0
   59.7498   34.9777   51.5568 H   0  0  0  0  0  0  0  0  0  0  0  0
  1  2  1  0
  2  3  2  0
  3  4  1  0
  4  5  2  0
  5  6  1  0
  6  7  1  0
  7  8  1  0
  8  9  1  0
  9 10  1  0
 10 11  2  0
 10 12  2  0
 10 13  1  0
 13 14  2  0
 14 15  1  0
 15 16  2  0
 16 17  1  0
 17 18  2  0
  9 19  1  0
 19 20  1  0
  5 21  1  0
 21 22  2  0
 22 23  1  0
 23 24  2  0
 23 25  1  0
 25 26  1  0
 26 27  2  0
 27 28  1  0
 28 29  2  0
 29 30  1  0
 30 31  2  0
 30 32  1  0
 32 33  1  0
 33 34  1  0
 34 35  1  0
 35 36  1  0
 36 37  1  0
 29 38  1  0
 38 39  2  0
 22  2  1  0
 39 26  1  0
 20  6  1  0
 37 32  1  0
 18 13  1  0
  1 40  1  0
  1 41  1  0
  1 42  1  0
  3 43  1  0
  4 44  1  0
  7 45  1  0
  7 46  1  0
  8 47  1  0
  8 48  1  0
  9 49  1  0
 14 50  1  0
 15 51  1  0
 16 52  1  0
 17 53  1  0
 18 54  1  0
 19 55  1  0
 19 56  1  0
 20 57  1  0
 20 58  1  0
 21 59  1  0
 27 60  1  0
 28 61  1  0
 33 62  1  0
 33 63  1  0
 34 64  1  0
 34 65  1  0
 36 66  1  0
 36 67  1  0
 37 68  1  0
 37 69  1  0
 38 70  1  0
 39 71  1  0
M  CHG  2   9   1  25  -1
M  END
>  <UniqueID>  (47) 
42

>  <SMILES>  (47) 
Cc1ccc(N2CC[NH+](S(=O)(=O)c3ccccc3)CC2)cc1C(=O)[N-]c1ccc(C(=O)N2CCOCC2)cc1

>  <Energy>  (47) 
100.13723814239147

>  <Genealogy>  (47) 
Cc1ccc(N2CC[NH+](S(=O)(=O)c3ccccc3)CC2)cc1C(=O)[N-]c1ccc(C(=O)N2CCOCC2)cc1 (protonated)
Cc1ccc(N2CC[NH+](S(=O)(=O)c3ccccc3)CC2)cc1C(=O)[N-]c1ccc(C(=O)N2CCOCC2)cc1 (3D coordinates assigned)
Cc1ccc(N2CC[NH+](S(=O)(=O)c3ccccc3)CC2)cc1C(=O)[N-]c1ccc(C(=O)N2CCOCC2)cc1 (nonaromatic ring conformer: 100.13723814239147 kcal/mol)

>  <smiles>  (47) 
Cc1ccc(N2CCN(S(=O)(=O)c3ccccc3)CC2)cc1C(=O)Nc1ccc(C(=O)N2CCOCC2)cc1

>  <score_type>  (47) 
oracle

>  <origin>  (47) 
adg

>  <m_score__min__energy>  (47) 
-10.18

>  <m_primary>  (47) 
energy

$$$$
47:0
     RDKit          3D

 48 50  0  0  0  0  0  0  0  0999 V2000
   60.0140   28.9650   50.6410 C   0  0  0  0  0  0  0  0  0  0  0  0
   58.7950   29.6430   50.3510 O   0  0  0  0  0  0  0  0  0  0  0  0
   57.8960   30.1170   51.3210 C   0  0  0  0  0  0  0  0  0  0  0  0
   57.4280   29.2940   52.3660 C   0  0  0  0  0  0  0  0  0  0  0  0
   56.5700   29.8090   53.3420 C   0  0  0  0  0  0  0  0  0  0  0  0
   56.1740   31.1470   53.2930 C   0  0  0  0  0  0  0  0  0  0  0  0
   56.6270   31.9720   52.2620 C   0  0  0  0  0  0  0  0  0  0  0  0
   57.4690   31.4630   51.2610 C   0  0  0  0  0  0  0  0  0  0  0  0
   57.9180   32.3410   50.2180 N   0  0  0  0  0  0  0  0  0  0  0  0
   59.3050   32.5260   49.8960 C   0  0  0  0  0  0  0  0  0  0  0  0
   60.1990   31.9020   50.5320 O   0  0  0  0  0  0  0  0  0  0  0  0
   59.7060   33.4580   48.7910 C   0  0  0  0  0  0  0  0  0  0  0  0
   59.0210   33.0950   47.5380 N   0  0  0  0  0  0  0  0  0  0  0  0
   58.5610   34.0630   46.6660 C   0  0  0  0  0  0  0  0  0  0  0  0
   58.6970   35.2870   46.9340 O   0  0  0  0  0  0  0  0  0  0  0  0
   57.9350   33.7010   45.4510 C   0  0  0  0  0  0  0  0  0  0  0  0
   57.7880   32.3500   45.1090 C   0  0  0  0  0  0  0  0  0  0  0  0
   58.2700   31.4060   46.0080 C   0  0  0  0  0  0  0  0  0  0  0  0
   58.3210   30.0250   45.9430 C   0  0  0  0  0  0  0  0  0  0  0  0
   57.8910   29.1550   44.7970 C   0  0  0  0  0  0  0  0  0  0  0  0
   56.5080   29.5380   44.3420 C   0  0  0  0  0  0  0  0  0  0  0  0
   56.2620   30.0840   42.9670 C   0  0  0  0  0  0  0  0  0  0  0  0
   55.5640   29.4020   45.1090 O   0  0  0  0  0  0  0  0  0  0  0  0
   58.9840   29.6290   47.1060 C   0  0  0  0  0  0  0  0  0  0  0  0
   59.3660   28.2260   47.4590 C   0  0  0  0  0  0  0  0  0  0  0  0
   59.3120   30.7050   47.8610 N   0  0  0  0  0  0  0  0  0  0  0  0
   58.8680   31.7810   47.1820 C   0  0  0  0  0  0  0  0  0  0  0  0
   60.1432   28.8931   51.7310 H   0  0  0  0  0  0  0  0  0  0  0  0
   59.9834   27.9543   50.2079 H   0  0  0  0  0  0  0  0  0  0  0  0
   60.8565   29.5241   50.2079 H   0  0  0  0  0  0  0  0  0  0  0  0
   57.7400   28.2402   52.4134 H   0  0  0  0  0  0  0  0  0  0  0  0
   56.2058   29.1584   54.1508 H   0  0  0  0  0  0  0  0  0  0  0  0
   55.5049   31.5511   54.0670 H   0  0  0  0  0  0  0  0  0  0  0  0
   56.3219   33.0285   52.2339 H   0  0  0  0  0  0  0  0  0  0  0  0
   57.2000   32.7100   49.5520 H   0  0  0  0  0  0  0  0  0  0  0  0
   59.4333   34.4870   49.0681 H   0  0  0  0  0  0  0  0  0  0  0  0
   60.7927   33.3828   48.6379 H   0  0  0  0  0  0  0  0  0  0  0  0
   57.5623   34.4822   44.7722 H   0  0  0  0  0  0  0  0  0  0  0  0
   57.3096   32.0483   44.1655 H   0  0  0  0  0  0  0  0  0  0  0  0
   58.5957   29.2802   43.9617 H   0  0  0  0  0  0  0  0  0  0  0  0
   57.8818   28.1058   45.1274 H   0  0  0  0  0  0  0  0  0  0  0  0
   55.8113   31.0844   43.0450 H   0  0  0  0  0  0  0  0  0  0  0  0
   57.2160   30.1530   42.4238 H   0  0  0  0  0  0  0  0  0  0  0  0
   55.5783   29.4151   42.4238 H   0  0  0  0  0  0  0  0  0  0  0  0
   59.3953   28.1183   48.5533 H   0  0  0  0  0  0  0  0  0  0  0  0
   58.6252   27.5282   47.0416 H   0  0  0  0  0  0  0  0  0  0  0  0
   60.3583   28.0001   47.0416 H   0  0  0  0  0  0  0  0  0  0  0  0
   59.8330   30.6880   48.7660 H   0  0  0  0  0  0  0  0  0  0  0  0
  1  2  1  0
  2  3  1  0
  3  4  2  0
  4  5  1  0
  5  6  2  0
  6  7  1  0
  7  8  2  0
  8  9  1  0
  9 10  1  0
 10 11  2  0
 10 12  1  0
 12 13  1  0
 13 14  1  0
 14 15  2  0
 14 16  1  0
 16 17  2  0
 17 18  1  0
 18 19  1  0
 19 20  1  0
 20 21  1  0
 21 22  1  0
 21 23  2  0
 19 24  2  0
 24 25  1  0
 24 26  1  0
 26 27  1  0
  8  3  1  0
 27 13  1  0
 27 18  2  0
  1 28  1  0
  1 29  1  0
  1 30  1  0
  4 31  1  0
  5 32  1  0
  6 33  1  0
  7 34  1  0
  9 35  1  0
 12 36  1  0
 12 37  1  0
 16 38  1  0
 17 39  1  0
 20 40  1  0
 20 41  1  0
 22 42  1  0
 22 43  1  0
 22 44  1  0
 25 45  1  0
 25 46  1  0
 25 47  1  0
 26 48  1  0
M  END
>  <UniqueID>  (48) 
43

>  <SMILES>  (48) 
COc1ccccc1NC(=O)Cn1c(=O)ccc2c(CC(C)=O)c(C)[nH]c21

>  <Energy>  (48) 
83.74209849767165

>  <Genealogy>  (48) 
COc1ccccc1NC(=O)Cn1c(=O)ccc2c(CC(C)=O)c(C)[nH]c21 (3D coordinates assigned)
COc1ccccc1NC(=O)Cn1c(=O)ccc2c(CC(C)=O)c(C)[nH]c21 (optimized conformer: 83.74209849767165 kcal/mol)

>  <smiles>  (48) 
COc1ccccc1NC(=O)Cn1c(=O)ccc2c(CC(C)=O)c(C)[nH]c21

>  <score_type>  (48) 
oracle

>  <origin>  (48) 
adg

>  <m_score__min__energy>  (48) 
-7.46

>  <m_primary>  (48) 
energy

$$$$
48:0
     RDKit          3D

 61 64  0  0  0  0  0  0  0  0999 V2000
   56.2750   31.1840   52.7520 C   0  0  0  0  0  0  0  0  0  0  0  0
   57.3680   31.9600   52.0800 C   0  0  0  0  0  0  0  0  0  0  0  0
   57.8960   33.1100   52.6860 C   0  0  0  0  0  0  0  0  0  0  0  0
   58.9320   33.8170   52.0710 C   0  0  0  0  0  0  0  0  0  0  0  0
   59.4570   33.3750   50.8560 C   0  0  0  0  0  0  0  0  0  0  0  0
   58.9630   32.2070   50.2540 C   0  0  0  0  0  0  0  0  0  0  0  0
   59.5140   31.7450   48.9340 C   0  0  0  0  0  0  0  0  0  0  0  0
   61.0060   32.0700   48.8310 C   0  0  0  0  0  0  0  0  0  0  0  0
   61.7070   30.9980   48.1330 N   0  0  0  0  0  0  0  0  0  0  0  0
   61.0540   30.0600   47.2750 C   0  0  0  0  0  0  0  0  0  0  0  0
   61.1370   30.1740   46.0210 O   0  0  0  0  0  0  0  0  0  0  0  0
   60.2990   28.9150   47.8700 C   0  0  0  0  0  0  0  0  0  0  0  0
   59.1800   28.5070   46.9600 C   0  0  0  0  0  0  0  0  0  0  0  0
   58.6700   29.2440   45.8960 C   0  0  0  0  0  0  0  0  0  0  0  0
   57.7080   28.5360   45.2560 N   0  0  0  0  0  0  0  0  0  0  0  0
   56.9340   28.9900   44.1000 C   0  0  0  0  0  0  0  0  0  0  0  0
   56.8730   30.4880   44.0610 C   0  0  0  0  0  0  0  0  0  0  0  0
   55.8470   31.0760   44.4970 O   0  0  0  0  0  0  0  0  0  0  0  0
   57.9600   31.2420   43.5010 N   0  0  0  0  0  0  0  0  0  0  0  0
   57.9190   32.6950   43.3630 C   0  0  0  0  0  0  0  0  0  0  0  0
   58.2660   33.3420   44.6760 C   0  0  0  0  0  0  0  0  0  0  0  0
   57.5480   33.0130   45.8360 C   0  0  0  0  0  0  0  0  0  0  0  0
   57.8950   33.5850   47.0630 C   0  0  0  0  0  0  0  0  0  0  0  0
   58.9640   34.4790   47.1420 C   0  0  0  0  0  0  0  0  0  0  0  0
   59.6920   34.8010   45.9940 C   0  0  0  0  0  0  0  0  0  0  0  0
   59.3480   34.2320   44.7650 C   0  0  0  0  0  0  0  0  0  0  0  0
   57.6090   27.3570   45.9040 C   0  0  0  0  0  0  0  0  0  0  0  0
   56.7660   26.2820   45.6130 C   0  0  0  0  0  0  0  0  0  0  0  0
   56.8530   25.1370   46.4250 C   0  0  0  0  0  0  0  0  0  0  0  0
   57.7700   25.0870   47.4960 C   0  0  0  0  0  0  0  0  0  0  0  0
   58.6070   26.1820   47.7690 C   0  0  0  0  0  0  0  0  0  0  0  0
   58.4970   27.3050   46.9490 C   0  0  0  0  0  0  0  0  0  0  0  0
   57.9110   31.5080   50.8680 C   0  0  0  0  0  0  0  0  0  0  0  0
   56.3867   31.2633   53.8434 H   0  0  0  0  0  0  0  0  0  0  0  0
   55.2983   31.5921   52.4528 H   0  0  0  0  0  0  0  0  0  0  0  0
   56.3382   30.1274   52.4528 H   0  0  0  0  0  0  0  0  0  0  0  0
   57.4926   33.4562   53.6490 H   0  0  0  0  0  0  0  0  0  0  0  0
   59.3348   34.7240   52.5455 H   0  0  0  0  0  0  0  0  0  0  0  0
   60.2616   33.9444   50.3677 H   0  0  0  0  0  0  0  0  0  0  0  0
   59.3736   30.6577   48.8440 H   0  0  0  0  0  0  0  0  0  0  0  0
   58.9805   32.2652   48.1248 H   0  0  0  0  0  0  0  0  0  0  0  0
   61.1357   33.0108   48.2760 H   0  0  0  0  0  0  0  0  0  0  0  0
   61.4224   32.1717   49.8440 H   0  0  0  0  0  0  0  0  0  0  0  0
   60.9813   28.0639   48.0118 H   0  0  0  0  0  0  0  0  0  0  0  0
   59.8802   29.2247   48.8389 H   0  0  0  0  0  0  0  0  0  0  0  0
   58.9999   30.2550   45.6149 H   0  0  0  0  0  0  0  0  0  0  0  0
   57.4110   28.6235   43.1790 H   0  0  0  0  0  0  0  0  0  0  0  0
   55.9105   28.5954   44.1814 H   0  0  0  0  0  0  0  0  0  0  0  0
   58.7680   30.7300   43.0770 H   0  0  0  0  0  0  0  0  0  0  0  0
   58.6441   33.0097   42.5980 H   0  0  0  0  0  0  0  0  0  0  0  0
   56.9064   33.0027   43.0631 H   0  0  0  0  0  0  0  0  0  0  0  0
   56.7098   32.3029   45.7793 H   0  0  0  0  0  0  0  0  0  0  0  0
   57.3245   33.3302   47.9683 H   0  0  0  0  0  0  0  0  0  0  0  0
   59.2333   34.9301   48.1084 H   0  0  0  0  0  0  0  0  0  0  0  0
   60.5366   35.5029   46.0576 H   0  0  0  0  0  0  0  0  0  0  0  0
   59.9271   34.4824   43.8639 H   0  0  0  0  0  0  0  0  0  0  0  0
   56.0558   26.3295   44.7744 H   0  0  0  0  0  0  0  0  0  0  0  0
   56.2013   24.2741   46.2236 H   0  0  0  0  0  0  0  0  0  0  0  0
   57.8301   24.1843   48.1218 H   0  0  0  0  0  0  0  0  0  0  0  0
   59.3252   26.1546   48.6017 H   0  0  0  0  0  0  0  0  0  0  0  0
   57.5098   30.5994   50.3951 H   0  0  0  0  0  0  0  0  0  0  0  0
  1  2  1  0
  2  3  2  0
  3  4  1  0
  4  5  2  0
  5  6  1  0
  6  7  1  0
  7  8  1  0
  8  9  1  0
  9 10  1  0
 10 11  2  0
 10 12  1  0
 12 13  1  0
 13 14  2  0
 14 15  1  0
 15 16  1  0
 16 17  1  0
 17 18  2  0
 17 19  1  0
 19 20  1  0
 20 21  1  0
 21 22  2  0
 22 23  1  0
 23 24  2  0
 24 25  1  0
 25 26  2  0
 15 27  1  0
 27 28  2  0
 28 29  1  0
 29 30  2  0
 30 31  1  0
 31 32  2  0
  6 33  2  0
 33  2  1  0
 32 13  1  0
 26 21  1  0
 32 27  1  0
  1 34  1  0
  1 35  1  0
  1 36  1  0
  3 37  1  0
  4 38  1  0
  5 39  1  0
  7 40  1  0
  7 41  1  0
  8 42  1  0
  8 43  1  0
 12 44  1  0
 12 45  1  0
 14 46  1  0
 16 47  1  0
 16 48  1  0
 19 49  1  0
 20 50  1  0
 20 51  1  0
 22 52  1  0
 23 53  1  0
 24 54  1  0
 25 55  1  0
 26 56  1  0
 28 57  1  0
 29 58  1  0
 30 59  1  0
 31 60  1  0
 33 61  1  0
M  CHG  1   9  -1
M  END
>  <UniqueID>  (49) 
44

>  <SMILES>  (49) 
Cc1cccc(CC[N-]C(=O)Cc2cn(CC(=O)NCc3ccccc3)c3ccccc23)c1

>  <Energy>  (49) 
86.05897100368463

>  <Genealogy>  (49) 
Cc1cccc(CC[N-]C(=O)Cc2cn(CC(=O)NCc3ccccc3)c3ccccc23)c1 (protonated)
Cc1cccc(CC[N-]C(=O)Cc2cn(CC(=O)NCc3ccccc3)c3ccccc23)c1 (3D coordinates assigned)
Cc1cccc(CC[N-]C(=O)Cc2cn(CC(=O)NCc3ccccc3)c3ccccc23)c1 (optimized conformer: 86.05897100368463 kcal/mol)

>  <smiles>  (49) 
Cc1cccc(CCNC(=O)Cc2cn(CC(=O)NCc3ccccc3)c3ccccc23)c1

>  <score_type>  (49) 
oracle

>  <origin>  (49) 
adg

>  <m_score__min__energy>  (49) 
-11.32

>  <m_primary>  (49) 
energy

$$$$
49:0
     RDKit          3D

 19 19  0  0  0  0  0  0  0  0999 V2000
   54.0470   30.7940   51.7080 C   0  0  0  0  0  0  0  0  0  0  0  0
   53.1490   29.6370   52.1330 C   0  0  0  0  0  0  0  0  0  0  0  0
   51.6780   29.9340   51.8210 C   0  0  0  0  0  0  0  0  0  0  0  0
   51.2290   31.2020   52.5210 C   0  0  0  0  0  0  0  0  0  0  0  0
   50.9280   32.3540   51.7700 C   0  0  0  0  0  0  0  0  0  0  0  0
   51.0580   32.3530   50.3850 O   0  0  0  0  0  0  0  0  0  0  0  0
   50.5030   33.4830   52.3910 N   0  0  0  0  0  0  0  0  0  0  0  0
   50.3460   33.5270   53.7360 C   0  0  0  0  0  0  0  0  0  0  0  0
   49.9530   34.5860   54.2890 O   0  0  0  0  0  0  0  0  0  0  0  0
   50.6090   32.4280   54.4870 N   0  0  0  0  0  0  0  0  0  0  0  0
   51.0390   31.2700   53.9220 C   0  0  0  0  0  0  0  0  0  0  0  0
   51.3100   29.9850   54.9050 S   0  0  0  0  0  0  0  0  0  0  0  0
   54.4401   31.3005   52.6018 H   0  0  0  0  0  0  0  0  0  0  0  0
   54.8838   30.4073   51.1078 H   0  0  0  0  0  0  0  0  0  0  0  0
   53.4648   31.5087   51.1078 H   0  0  0  0  0  0  0  0  0  0  0  0
   53.4541   28.7287   51.5927 H   0  0  0  0  0  0  0  0  0  0  0  0
   53.2533   29.4956   53.2189 H   0  0  0  0  0  0  0  0  0  0  0  0
   51.5569   30.0585   50.7348 H   0  0  0  0  0  0  0  0  0  0  0  0
   51.0633   29.0949   52.1789 H   0  0  0  0  0  0  0  0  0  0  0  0
  1  2  1  0
  2  3  1  0
  3  4  1  0
  4  5  2  0
  5  6  1  0
  5  7  1  0
  7  8  1  0
  8  9  2  0
  8 10  1  0
 10 11  1  0
 11 12  2  0
 11  4  1  0
  1 13  1  0
  1 14  1  0
  1 15  1  0
  2 16  1  0
  2 17  1  0
  3 18  1  0
  3 19  1  0
M  CHG  3   6  -1   7  -1  10  -1
M  END
>  <UniqueID>  (50) 
45

>  <SMILES>  (50) 
CCCc1c([O-])[n-]c(=O)[n-]c1=S

>  <Energy>  (50) 
16.05461811001413

>  <Genealogy>  (50) 
CCCc1c([O-])[n-]c(=O)[n-]c1=S (protonated)
CCCc1c([O-])[n-]c(=O)[n-]c1=S (3D coordinates assigned)
CCCc1c([O-])[n-]c(=O)[n-]c1=S (optimized conformer: 16.05461811001413 kcal/mol)

>  <smiles>  (50) 
CCCc1c(O)[nH]c(=O)[nH]c1=S

>  <score_type>  (50) 
oracle

>  <origin>  (50) 
adg

>  <m_score__min__energy>  (50) 
-13.699999999999999

>  <m_primary>  (50) 
energy

$$$$
50:0
     RDKit          3D

 50 53  0  0  1  0  0  0  0  0999 V2000
   60.8850   33.6180   46.7100 C   0  0  0  0  0  0  0  0  0  0  0  0
   59.5260   33.5340   46.0740 C   0  0  0  0  0  0  0  0  0  0  0  0
   58.5740   34.5770   46.2180 C   0  0  0  0  0  0  0  0  0  0  0  0
   57.1280   33.9720   45.2630 S   0  0  0  0  0  0  0  0  0  0  0  0
   57.9820   32.4210   44.8030 C   0  0  0  0  0  0  0  0  0  0  0  0
   57.3820   31.3600   43.9710 C   0  0  0  0  0  0  0  0  0  0  0  0
   56.6700   30.4760   44.8220 N   0  0  0  0  0  0  0  0  0  0  0  0
   57.1900   29.5620   45.5220 C   0  0  0  0  0  0  0  0  0  0  0  0
   56.6860   28.3070   45.3870 N   0  0  0  0  0  0  0  0  0  0  0  0
   57.2260   27.3050   46.1300 C   0  0  0  0  0  0  0  0  0  0  0  0
   56.6260   25.9800   45.9170 C   0  0  0  0  0  0  0  0  0  0  0  0
   55.3690   25.9210   45.9810 O   0  0  0  0  0  0  0  0  0  0  0  0
   57.4600   24.8630   45.6550 N   0  0  0  0  0  0  0  0  0  0  0  0
   57.2040   23.9400   44.7950 C   0  0  0  0  0  0  0  0  0  0  0  0
   58.0430   22.8440   44.6820 C   0  0  0  0  0  0  0  0  0  0  0  0
   57.8320   21.8330   43.7890 C   0  0  0  0  0  0  0  0  0  0  0  0
   56.7050   21.9340   42.9610 C   0  0  0  0  0  0  0  0  0  0  0  0
   55.8890   23.0410   43.1010 C   0  0  0  0  0  0  0  0  0  0  0  0
   56.1410   24.0130   43.9970 N   0  0  0  0  0  0  0  0  0  0  0  0
   58.2580   27.5300   47.0050 C   0  0  0  0  0  0  0  0  0  0  0  0
   58.7210   28.8420   47.0870 C   0  0  0  0  0  0  0  0  0  0  0  0
   59.7920   29.1640   47.9770 N   0  0  0  0  0  0  0  0  0  0  0  0
   60.1390   28.1670   48.9700 C   0  0  0  0  0  0  0  0  0  0  0  0
   60.5940   28.9290   50.2190 C   0  0  0  0  0  0  0  0  0  0  0  0
   61.7010   29.6960   49.7860 O   0  0  0  0  0  0  0  0  0  0  0  0
   61.1860   30.8000   49.1280 C   0  0  0  0  0  0  0  0  0  0  0  0
   60.4610   30.4310   47.8520 C   0  0  0  0  0  0  0  0  0  0  0  0
   58.2000   29.8430   46.3610 N   0  0  0  0  0  0  0  0  0  0  0  0
   59.1090   32.5390   45.3570 N   0  0  0  0  0  0  0  0  0  0  0  0
   60.7785   33.6114   47.8048 H   0  0  0  0  0  0  0  0  0  0  0  0
   61.4910   32.7556   46.3954 H   0  0  0  0  0  0  0  0  0  0  0  0
   61.3802   34.5485   46.3954 H   0  0  0  0  0  0  0  0  0  0  0  0
   58.6781   35.5226   46.7703 H   0  0  0  0  0  0  0  0  0  0  0  0
   56.6934   31.8064   43.2385 H   0  0  0  0  0  0  0  0  0  0  0  0
   58.1678   30.8135   43.4288 H   0  0  0  0  0  0  0  0  0  0  0  0
   58.9205   22.7852   45.3427 H   0  0  0  0  0  0  0  0  0  0  0  0
   58.5174   20.9752   43.7219 H   0  0  0  0  0  0  0  0  0  0  0  0
   56.4764   21.1536   42.2202 H   0  0  0  0  0  0  0  0  0  0  0  0
   55.0018   23.1306   42.4569 H   0  0  0  0  0  0  0  0  0  0  0  0
   55.4660   24.8120   44.0280 H   0  0  0  0  0  0  0  0  0  0  0  0
   58.6955   26.7207   47.6080 H   0  0  0  0  0  0  0  0  0  0  0  0
   59.2630   27.5442   49.2041 H   0  0  0  0  0  0  0  0  0  0  0  0
   60.9334   27.5014   48.6014 H   0  0  0  0  0  0  0  0  0  0  0  0
   59.7902   29.5822   50.5896 H   0  0  0  0  0  0  0  0  0  0  0  0
   60.8531   28.2540   51.0480 H   0  0  0  0  0  0  0  0  0  0  0  0
   60.4804   31.3124   49.7986 H   0  0  0  0  0  0  0  0  0  0  0  0
   62.0309   31.4495   48.8553 H   0  0  0  0  0  0  0  0  0  0  0  0
   59.7163   31.2083   47.6258 H   0  0  0  0  0  0  0  0  0  0  0  0
   61.2018   30.3533   47.0426 H   0  0  0  0  0  0  0  0  0  0  0  0
   58.5610   30.8150   46.4400 H   0  0  0  0  0  0  0  0  0  0  0  0
  1  2  1  0
  2  3  2  0
  3  4  1  0
  4  5  1  0
  5  6  1  0
  6  7  1  0
  7  8  2  0
  8  9  1  0
  9 10  2  0
 10 11  1  0
 11 12  2  0
 11 13  1  0
 13 14  2  0
 14 15  1  0
 15 16  2  0
 16 17  1  0
 17 18  2  0
 18 19  1  0
 10 20  1  0
 20 21  2  0
 21 22  1  0
 22 23  1  0
 23 24  1  0
 24 25  1  0
 25 26  1  0
 26 27  1  0
 21 28  1  0
  5 29  2  0
 29  2  1  0
 28  8  1  0
 19 14  1  0
 27 22  1  0
  1 30  1  0
  1 31  1  0
  1 32  1  0
  3 33  1  0
  6 34  1  0
  6 35  1  0
 15 36  1  0
 16 37  1  0
 17 38  1  0
 18 39  1  0
 19 40  1  0
 20 41  1  0
 23 42  1  0
 23 43  1  0
 24 44  1  0
 24 45  1  0
 26 46  1  0
 26 47  1  0
 27 48  1  0
 27 49  1  0
 28 50  1  0
M  END
>  <smiles>  (51) 
Cc1csc(CN=c2nc(C(=O)N=c3cccc[nH]3)cc(N3CCOCC3)[nH]2)n1

>  <score_type>  (51) 
oracle

>  <origin>  (51) 
adg

>  <m_score__min__energy>  (51) 
-8.2400000000000002

>  <m_primary>  (51) 
energy

$$$$
51:0
     RDKit          3D

 40 42  0  0  0  0  0  0  0  0999 V2000
   57.7980   32.3520   41.3480 C   0  0  0  0  0  0  0  0  0  0  0  0
   57.7560   32.1180   42.6620 C   0  0  0  0  0  0  0  0  0  0  0  0
   58.4300   33.0020   43.5750 N   0  0  0  0  0  0  0  0  0  0  0  0
   58.4110   32.7960   45.0030 C   0  0  0  0  0  0  0  0  0  0  0  0
   59.1630   33.7600   45.8610 C   0  0  0  0  0  0  0  0  0  0  0  0
   58.8430   34.9790   45.7840 O   0  0  0  0  0  0  0  0  0  0  0  0
   60.2230   33.3790   46.7790 N   0  0  0  0  0  0  0  0  0  0  0  0
   59.8740   33.7020   48.1910 C   0  0  0  0  0  0  0  0  0  0  0  0
   61.0550   34.2460   49.0170 C   0  0  0  0  0  0  0  0  0  0  0  0
   62.3000   33.5440   48.6770 N   0  0  0  0  0  0  0  0  0  0  0  0
   63.2640   33.2310   49.7050 C   0  0  0  0  0  0  0  0  0  0  0  0
   63.1530   33.7470   50.8510 O   0  0  0  0  0  0  0  0  0  0  0  0
   64.4380   32.3360   49.4220 C   0  0  0  0  0  0  0  0  0  0  0  0
   65.7410   32.7480   50.0940 C   0  0  0  0  0  0  0  0  0  0  0  0
   64.9500   31.5710   50.6340 C   0  0  0  0  0  0  0  0  0  0  0  0
   62.6450   33.3330   47.2630 C   0  0  0  0  0  0  0  0  0  0  0  0
   61.5470   33.8740   46.3410 C   0  0  0  0  0  0  0  0  0  0  0  0
   57.7670   31.7330   45.5230 C   0  0  0  0  0  0  0  0  0  0  0  0
   57.0450   30.7750   44.6690 C   0  0  0  0  0  0  0  0  0  0  0  0
   56.4450   29.7980   45.1900 O   0  0  0  0  0  0  0  0  0  0  0  0
   57.0310   30.9630   43.2160 C   0  0  0  0  0  0  0  0  0  0  0  0
   56.4120   30.1520   42.4720 O   0  0  0  0  0  0  0  0  0  0  0  0
   57.2818   31.6745   40.6519 H   0  0  0  0  0  0  0  0  0  0  0  0
   58.3488   33.2222   40.9617 H   0  0  0  0  0  0  0  0  0  0  0  0
   58.9340   33.8340   43.1900 H   0  0  0  0  0  0  0  0  0  0  0  0
   60.2920   32.3330   46.7230 H   0  0  0  0  0  0  0  0  0  0  0  0
   59.0766   34.4598   48.1861 H   0  0  0  0  0  0  0  0  0  0  0  0
   59.5592   32.7608   48.6654 H   0  0  0  0  0  0  0  0  0  0  0  0
   61.1775   35.3188   48.8069 H   0  0  0  0  0  0  0  0  0  0  0  0
   60.8411   34.0854   50.0840 H   0  0  0  0  0  0  0  0  0  0  0  0
   64.1421   32.0744   48.3954 H   0  0  0  0  0  0  0  0  0  0  0  0
   66.7005   32.5779   49.5837 H   0  0  0  0  0  0  0  0  0  0  0  0
   66.1336   33.6824   50.5214 H   0  0  0  0  0  0  0  0  0  0  0  0
   65.3366   30.5481   50.5152 H   0  0  0  0  0  0  0  0  0  0  0  0
   64.5325   31.2999   51.6149 H   0  0  0  0  0  0  0  0  0  0  0  0
   63.5886   33.8533   47.0418 H   0  0  0  0  0  0  0  0  0  0  0  0
   62.7490   32.2523   47.0861 H   0  0  0  0  0  0  0  0  0  0  0  0
   61.5533   34.9735   46.3745 H   0  0  0  0  0  0  0  0  0  0  0  0
   61.7378   33.5288   45.3141 H   0  0  0  0  0  0  0  0  0  0  0  0
   57.7809   31.5770   46.6118 H   0  0  0  0  0  0  0  0  0  0  0  0
  1  2  2  0
  2  3  1  0
  3  4  1  0
  4  5  1  0
  5  6  2  0
  5  7  1  0
  7  8  1  0
  8  9  1  0
  9 10  1  0
 10 11  1  0
 11 12  2  0
 11 13  1  0
 13 14  1  0
 14 15  1  0
 10 16  1  0
 16 17  1  0
  4 18  2  0
 18 19  1  0
 19 20  2  0
 19 21  1  0
 21 22  2  0
 21  2  1  0
 17  7  1  0
 15 13  1  0
  1 23  1  0
  1 24  1  0
  3 25  1  0
  7 26  1  0
  8 27  1  0
  8 28  1  0
  9 29  1  0
  9 30  1  0
 13 31  1  0
 14 32  1  0
 14 33  1  0
 15 34  1  0
 15 35  1  0
 16 36  1  0
 16 37  1  0
 17 38  1  0
 17 39  1  0
 18 40  1  0
M  CHG  1   7   1
M  END
>  <UniqueID>  (52) 
46

>  <SMILES>  (52) 
C=C1NC(C(=O)[NH+]2CCN(C(=O)C3CC3)CC2)=CC(=O)C1=O

>  <Energy>  (52) 
314.4801031028369

>  <Genealogy>  (52) 
C=C1NC(C(=O)[NH+]2CCN(C(=O)C3CC3)CC2)=CC(=O)C1=O (protonated)
C=C1NC(C(=O)[NH+]2CCN(C(=O)C3CC3)CC2)=CC(=O)C1=O (3D coordinates assigned)
C=C1NC(C(=O)[NH+]2CCN(C(=O)C3CC3)CC2)=CC(=O)C1=O (nonaromatic ring conformer: 314.4801031028369 kcal/mol)

>  <smiles>  (52) 
C=C1NC(C(=O)N2CCN(C(=O)C3CC3)CC2)=CC(=O)C1=O

>  <score_type>  (52) 
oracle

>  <origin>  (52) 
adg

>  <m_score__min__energy>  (52) 
-6.46

>  <m_primary>  (52) 
energy

$$$$
52:0
     RDKit          3D

 54 56  0  0  0  0  0  0  0  0999 V2000
   56.1640   30.0370   44.7660 O   0  0  0  0  0  0  0  0  0  0  0  0
   57.3230   30.0830   44.2730 C   0  0  0  0  0  0  0  0  0  0  0  0
   57.9540   28.8200   43.7620 C   0  0  0  0  0  0  0  0  0  0  0  0
   57.3920   27.6590   44.4490 N   0  0  0  0  0  0  0  0  0  0  0  0
   57.4120   27.5220   45.8770 C   0  0  0  0  0  0  0  0  0  0  0  0
   56.9000   26.1250   46.5640 S   0  0  0  0  0  0  0  0  0  0  0  0
   57.7590   28.6370   46.7080 N   0  0  0  0  0  0  0  0  0  0  0  0
   58.8460   28.6240   47.6510 C   0  0  0  0  0  0  0  0  0  0  0  0
   59.5930   27.4570   47.9020 C   0  0  0  0  0  0  0  0  0  0  0  0
   60.6710   27.4860   48.7910 C   0  0  0  0  0  0  0  0  0  0  0  0
   61.0220   28.6770   49.4300 C   0  0  0  0  0  0  0  0  0  0  0  0
   60.2970   29.8500   49.1770 C   0  0  0  0  0  0  0  0  0  0  0  0
   60.7130   31.3610   49.9830 S   0  0  0  0  0  0  0  0  0  0  0  0
   59.4650   32.0650   50.4410 O   0  0  0  0  0  0  0  0  0  0  0  0
   61.5620   31.0470   51.1820 O   0  0  0  0  0  0  0  0  0  0  0  0
   61.6010   32.3810   48.8780 N   0  0  0  0  0  0  0  0  0  0  0  0
   62.4010   33.3600   49.6310 C   0  0  0  0  0  0  0  0  0  0  0  0
   63.2830   34.1870   48.6720 C   0  0  0  0  0  0  0  0  0  0  0  0
   63.0700   33.8260   47.3210 O   0  0  0  0  0  0  0  0  0  0  0  0
   63.3680   32.4540   47.1420 C   0  0  0  0  0  0  0  0  0  0  0  0
   62.4770   31.5570   48.0300 C   0  0  0  0  0  0  0  0  0  0  0  0
   59.2140   29.8180   48.2900 C   0  0  0  0  0  0  0  0  0  0  0  0
   58.0180   31.3340   44.1710 N   0  0  0  0  0  0  0  0  0  0  0  0
   57.3890   32.6100   44.5020 C   0  0  0  0  0  0  0  0  0  0  0  0
   58.1870   33.3290   45.5560 C   0  0  0  0  0  0  0  0  0  0  0  0
   58.1370   32.9130   46.8980 C   0  0  0  0  0  0  0  0  0  0  0  0
   58.8970   33.5750   47.8680 C   0  0  0  0  0  0  0  0  0  0  0  0
   59.7100   34.6540   47.5070 C   0  0  0  0  0  0  0  0  0  0  0  0
   59.7680   35.0700   46.1730 C   0  0  0  0  0  0  0  0  0  0  0  0
   59.0110   34.4090   45.2000 C   0  0  0  0  0  0  0  0  0  0  0  0
   57.7636   28.7302   42.6823 H   0  0  0  0  0  0  0  0  0  0  0  0
   59.0369   28.8587   43.9515 H   0  0  0  0  0  0  0  0  0  0  0  0
   57.0180   26.8730   43.8690 H   0  0  0  0  0  0  0  0  0  0  0  0
   57.2560   29.5380   46.5390 H   0  0  0  0  0  0  0  0  0  0  0  0
   59.3266   26.5175   47.3956 H   0  0  0  0  0  0  0  0  0  0  0  0
   61.2445   26.5682   48.9879 H   0  0  0  0  0  0  0  0  0  0  0  0
   61.8682   28.6949   50.1326 H   0  0  0  0  0  0  0  0  0  0  0  0
   61.7264   34.0362   50.1766 H   0  0  0  0  0  0  0  0  0  0  0  0
   63.0501   32.8219   50.3375 H   0  0  0  0  0  0  0  0  0  0  0  0
   63.0435   35.2532   48.7979 H   0  0  0  0  0  0  0  0  0  0  0  0
   64.3364   33.9873   48.9177 H   0  0  0  0  0  0  0  0  0  0  0  0
   63.2037   32.1878   46.0874 H   0  0  0  0  0  0  0  0  0  0  0  0
   64.4167   32.2896   47.4303 H   0  0  0  0  0  0  0  0  0  0  0  0
   61.8581   30.9126   47.3883 H   0  0  0  0  0  0  0  0  0  0  0  0
   63.1215   30.9419   48.6752 H   0  0  0  0  0  0  0  0  0  0  0  0
   58.6456   30.7387   48.0919 H   0  0  0  0  0  0  0  0  0  0  0  0
   58.9860   31.3490   43.7790 H   0  0  0  0  0  0  0  0  0  0  0  0
   57.3371   33.2341   43.5977 H   0  0  0  0  0  0  0  0  0  0  0  0
   56.3766   32.4199   44.8879 H   0  0  0  0  0  0  0  0  0  0  0  0
   57.4986   32.0648   47.1860 H   0  0  0  0  0  0  0  0  0  0  0  0
   58.8550   33.2462   48.9169 H   0  0  0  0  0  0  0  0  0  0  0  0
   60.3038   35.1755   48.2721 H   0  0  0  0  0  0  0  0  0  0  0  0
   60.4092   35.9174   45.8888 H   0  0  0  0  0  0  0  0  0  0  0  0
   59.0614   34.7367   44.1512 H   0  0  0  0  0  0  0  0  0  0  0  0
  1  2  2  0
  2  3  1  0
  3  4  1  0
  4  5  1  0
  5  6  2  0
  5  7  1  0
  7  8  1  0
  8  9  2  0
  9 10  1  0
 10 11  2  0
 11 12  1  0
 12 13  1  0
 13 14  2  0
 13 15  2  0
 13 16  1  0
 16 17  1  0
 17 18  1  0
 18 19  1  0
 19 20  1  0
 20 21  1  0
 12 22  2  0
  2 23  1  0
 23 24  1  0
 24 25  1  0
 25 26  2  0
 26 27  1  0
 27 28  2  0
 28 29  1  0
 29 30  2  0
 22  8  1  0
 30 25  1  0
 21 16  1  0
  3 31  1  0
  3 32  1  0
  4 33  1  0
  7 34  1  0
  9 35  1  0
 10 36  1  0
 11 37  1  0
 17 38  1  0
 17 39  1  0
 18 40  1  0
 18 41  1  0
 20 42  1  0
 20 43  1  0
 21 44  1  0
 21 45  1  0
 22 46  1  0
 23 47  1  0
 24 48  1  0
 24 49  1  0
 26 50  1  0
 27 51  1  0
 28 52  1  0
 29 53  1  0
 30 54  1  0
M  END
>  <UniqueID>  (53) 
47

>  <SMILES>  (53) 
O=C(CNC(=S)Nc1cccc(S(=O)(=O)N2CCOCC2)c1)NCc1ccccc1

>  <Energy>  (53) 
59.62720935893758

>  <Genealogy>  (53) 
O=C(CNC(=S)Nc1cccc(S(=O)(=O)N2CCOCC2)c1)NCc1ccccc1 (3D coordinates assigned)
O=C(CNC(=S)Nc1cccc(S(=O)(=O)N2CCOCC2)c1)NCc1ccccc1 (nonaromatic ring conformer: 59.62720935893758 kcal/mol)

>  <smiles>  (53) 
O=C(CNC(=S)Nc1cccc(S(=O)(=O)N2CCOCC2)c1)NCc1ccccc1

>  <score_type>  (53) 
oracle

>  <origin>  (53) 
adg

>  <m_score__min__energy>  (53) 
-9.7899999999999991

>  <m_primary>  (53) 
energy

$$$$
53:0
     RDKit          3D

 39 41  0  0  0  0  0  0  0  0999 V2000
   55.1410   29.3460   44.8560 N   0  0  0  0  0  0  0  0  0  0  0  0
   56.5200   29.5920   45.1230 C   0  0  0  0  0  0  0  0  0  0  0  0
   57.0000   30.7310   44.8790 O   0  0  0  0  0  0  0  0  0  0  0  0
   57.3850   28.5310   45.6810 C   0  0  0  0  0  0  0  0  0  0  0  0
   56.9880   27.1830   45.7400 C   0  0  0  0  0  0  0  0  0  0  0  0
   57.9500   26.3460   46.2950 C   0  0  0  0  0  0  0  0  0  0  0  0
   57.8590   24.8530   46.3920 C   0  0  0  0  0  0  0  0  0  0  0  0
   56.8090   24.4140   47.4220 C   0  0  0  0  0  0  0  0  0  0  0  0
   55.6250   23.7610   46.7680 C   0  0  0  0  0  0  0  0  0  0  0  0
   55.3650   22.4110   46.7080 C   0  0  0  0  0  0  0  0  0  0  0  0
   54.2280   22.2930   45.9340 C   0  0  0  0  0  0  0  0  0  0  0  0
   53.6150   21.0890   45.6150 O   0  0  0  0  0  0  0  0  0  0  0  0
   53.7740   23.4870   45.5040 N   0  0  0  0  0  0  0  0  0  0  0  0
   54.6430   24.3790   46.0200 C   0  0  0  0  0  0  0  0  0  0  0  0
   54.5520   25.7510   45.8010 O   0  0  0  0  0  0  0  0  0  0  0  0
   59.3010   27.2580   46.7060 S   0  0  0  0  0  0  0  0  0  0  0  0
   58.6650   28.7360   46.2040 C   0  0  0  0  0  0  0  0  0  0  0  0
   59.3490   29.9950   46.2290 N   0  0  0  0  0  0  0  0  0  0  0  0
   59.1030   31.0770   47.1370 C   0  0  0  0  0  0  0  0  0  0  0  0
   58.8240   30.8430   48.3450 O   0  0  0  0  0  0  0  0  0  0  0  0
   59.1570   32.4760   46.6500 C   0  0  0  0  0  0  0  0  0  0  0  0
   58.0490   33.0550   45.9980 C   0  0  0  0  0  0  0  0  0  0  0  0
   58.1100   34.3710   45.5280 C   0  0  0  0  0  0  0  0  0  0  0  0
   59.2720   35.1250   45.7060 C   0  0  0  0  0  0  0  0  0  0  0  0
   60.3740   34.5650   46.3560 C   0  0  0  0  0  0  0  0  0  0  0  0
   60.3220   33.2480   46.8240 C   0  0  0  0  0  0  0  0  0  0  0  0
   54.4260   29.4180   45.6140 H   0  0  0  0  0  0  0  0  0  0  0  0
   56.0113   26.8255   45.3819 H   0  0  0  0  0  0  0  0  0  0  0  0
   57.5834   24.4479   45.4071 H   0  0  0  0  0  0  0  0  0  0  0  0
   58.8380   24.4701   46.7158 H   0  0  0  0  0  0  0  0  0  0  0  0
   57.2707   23.6985   48.1183 H   0  0  0  0  0  0  0  0  0  0  0  0
   56.4553   25.3101   47.9528 H   0  0  0  0  0  0  0  0  0  0  0  0
   55.9404   21.5991   47.1768 H   0  0  0  0  0  0  0  0  0  0  0  0
   54.0120   26.3380   46.4240 H   0  0  0  0  0  0  0  0  0  0  0  0
   57.1297   32.4674   45.8579 H   0  0  0  0  0  0  0  0  0  0  0  0
   57.2415   34.8127   45.0175 H   0  0  0  0  0  0  0  0  0  0  0  0
   59.3192   36.1593   45.3345 H   0  0  0  0  0  0  0  0  0  0  0  0
   61.2865   35.1621   46.5005 H   0  0  0  0  0  0  0  0  0  0  0  0
   61.1959   32.8128   47.3308 H   0  0  0  0  0  0  0  0  0  0  0  0
  1  2  1  0
  2  3  2  0
  2  4  1  0
  4  5  1  0
  5  6  2  0
  6  7  1  0
  7  8  1  0
  8  9  1  0
  9 10  1  0
 10 11  2  0
 11 12  1  0
 11 13  1  0
 13 14  1  0
 14 15  1  0
  6 16  1  0
 16 17  1  0
 17 18  1  0
 18 19  1  0
 19 20  2  0
 19 21  1  0
 21 22  2  0
 22 23  1  0
 23 24  2  0
 24 25  1  0
 25 26  2  0
 17  4  2  0
 26 21  1  0
 14  9  2  0
  1 27  1  0
  5 28  1  0
  7 29  1  0
  7 30  1  0
  8 31  1  0
  8 32  1  0
 10 33  1  0
 15 34  1  0
 22 35  1  0
 23 36  1  0
 24 37  1  0
 25 38  1  0
 26 39  1  0
M  CHG  4   1  -1  12  -1  13  -1  18  -1
M  END
>  <UniqueID>  (54) 
48

>  <SMILES>  (54) 
[NH-]C(=O)c1cc(CCc2cc([O-])[n-]c2O)sc1[N-]C(=O)c1ccccc1

>  <Energy>  (54) 
90.35485006332726

>  <Genealogy>  (54) 
[NH-]C(=O)c1cc(CCc2cc([O-])[n-]c2O)sc1[N-]C(=O)c1ccccc1 (protonated)
[NH-]C(=O)c1cc(CCc2cc([O-])[n-]c2O)sc1[N-]C(=O)c1ccccc1 (3D coordinates assigned)
[NH-]C(=O)c1cc(CCc2cc([O-])[n-]c2O)sc1[N-]C(=O)c1ccccc1 (optimized conformer: 90.35485006332726 kcal/mol)

>  <smiles>  (54) 
NC(=O)c1cc(CCc2cc(O)[nH]c2O)sc1NC(=O)c1ccccc1

>  <score_type>  (54) 
oracle

>  <origin>  (54) 
adg

>  <m_score__min__energy>  (54) 
-16.620000000000001

>  <m_primary>  (54) 
energy

$$$$
54:0
     RDKit          3D

 34 36  0  0  0  0  0  0  0  0999 V2000
   56.3520   22.0840   41.4990 H   0  0  0  0  0  0  0  0  0  0  0  0
   56.2450   21.8950   42.5220 N   0  0  0  0  0  0  0  0  0  0  0  0
   56.0250   22.8520   43.3600 C   0  0  0  0  0  0  0  0  0  0  0  0
   54.8450   23.0100   43.9950 N   0  0  0  0  0  0  0  0  0  0  0  0
   54.8630   24.0900   44.8220 C   0  0  0  0  0  0  0  0  0  0  0  0
   53.6500   24.4740   45.6110 C   0  0  0  0  0  0  0  0  0  0  0  0
   53.8740   24.4031   46.6856 H   0  0  0  0  0  0  0  0  0  0  0  0
   53.3634   25.5068   45.3636 H   0  0  0  0  0  0  0  0  0  0  0  0
   52.8213   23.7943   45.3636 H   0  0  0  0  0  0  0  0  0  0  0  0
   56.0860   24.7780   44.8550 C   0  0  0  0  0  0  0  0  0  0  0  0
   56.4290   25.9670   45.6600 C   0  0  0  0  0  0  0  0  0  0  0  0
   55.8830   26.1130   46.7860 O   0  0  0  0  0  0  0  0  0  0  0  0
   57.3570   26.9650   45.2070 N   0  0  0  0  0  0  0  0  0  0  0  0
   57.1110   28.2400   45.1500 C   0  0  0  0  0  0  0  0  0  0  0  0
   55.8920   28.7480   44.8990 N   0  0  0  0  0  0  0  0  0  0  0  0
   56.0400   30.0650   44.9210 N   0  0  0  0  0  0  0  0  0  0  0  0
   57.3440   30.3010   45.1810 C   0  0  0  0  0  0  0  0  0  0  0  0
   57.9560   31.6370   45.3140 C   0  0  0  0  0  0  0  0  0  0  0  0
   57.3830   32.7100   44.7480 C   0  0  0  0  0  0  0  0  0  0  0  0
   56.4523   32.5830   44.1756 H   0  0  0  0  0  0  0  0  0  0  0  0
   57.9690   34.0480   44.8750 C   0  0  0  0  0  0  0  0  0  0  0  0
   57.4866   34.9035   44.3796 H   0  0  0  0  0  0  0  0  0  0  0  0
   59.0790   34.2370   45.5840 C   0  0  0  0  0  0  0  0  0  0  0  0
   59.5028   35.2482   45.6720 H   0  0  0  0  0  0  0  0  0  0  0  0
   59.7290   33.1360   46.2350 N   0  0  0  0  0  0  0  0  0  0  0  0
   60.9310   33.3990   47.0230 C   0  0  0  0  0  0  0  0  0  0  0  0
   60.6863   33.3454   48.0941 H   0  0  0  0  0  0  0  0  0  0  0  0
   61.6978   32.6474   46.7841 H   0  0  0  0  0  0  0  0  0  0  0  0
   61.3139   34.4022   46.7841 H   0  0  0  0  0  0  0  0  0  0  0  0
   59.2500   31.7520   46.0910 C   0  0  0  0  0  0  0  0  0  0  0  0
   60.0226   31.1691   45.5683 H   0  0  0  0  0  0  0  0  0  0  0  0
   59.0532   31.3714   47.1041 H   0  0  0  0  0  0  0  0  0  0  0  0
   58.0090   29.1800   45.3160 O   0  0  0  0  0  0  0  0  0  0  0  0
   57.1470   24.0300   43.7820 S   0  0  0  0  0  0  0  0  0  0  0  0
  1  2  1  0
  2  3  2  3
  3  4  1  0
  4  5  1  0
  5  6  1  0
  6  7  1  0
  6  8  1  0
  6  9  1  0
  5 10  2  0
 10 11  1  0
 11 12  2  0
 11 13  1  0
 13 14  2  0
 14 15  1  0
 15 16  1  0
 16 17  2  0
 17 18  1  0
 18 19  2  0
 19 20  1  0
 19 21  1  0
 21 22  1  0
 21 23  2  0
 23 24  1  0
 23 25  1  0
 25 26  1  0
 26 27  1  0
 26 28  1  0
 26 29  1  0
 25 30  1  0
 30 31  1  0
 30 32  1  0
 17 33  1  0
 10 34  1  0
 34  3  1  0
 33 14  1  0
 30 18  1  0
M  CHG  2   4  -1  15  -1
M  END
>  <UniqueID>  (55) 
49

>  <SMILES>  (55) 
Cc1[n-]c(=N)sc1C(=O)/N=c1/[n-]nc(C2=CC=CN(C)C2)o1

>  <Energy>  (55) 
102.82199179792914

>  <Genealogy>  (55) 
Cc1[n-]c(=N)sc1C(=O)N=c1[n-]nc(C2=CC=CN(C)C2)o1 (protonated)
Cc1[n-]c(=N)sc1C(=O)/N=c1/[n-]nc(C2=CC=CN(C)C2)o1 (cis-trans isomerization)
Cc1[n-]c(=N)sc1C(=O)/N=c1/[n-]nc(C2=CC=CN(C)C2)o1 (3D coordinates assigned)
Cc1[n-]c(=N)sc1C(=O)/N=c1/[n-]nc(C2=CC=CN(C)C2)o1 (nonaromatic ring conformer: 102.82199179792914 kcal/mol)

>  <smiles>  (55) 
Cc1[nH]c(=N)sc1C(=O)N=c1[nH]nc(C2=CC=CN(C)C2)o1

>  <score_type>  (55) 
oracle

>  <origin>  (55) 
adg

>  <m_score__min__energy>  (55) 
-11.220000000000001

>  <m_primary>  (55) 
energy

$$$$
55:0
     RDKit          3D

 39 41  0  0  0  0  0  0  0  0999 V2000
   55.2490   30.0900   45.6120 H   0  0  0  0  0  0  0  0  0  0  0  0
   55.5550   29.4090   44.9280 O   0  0  0  0  0  0  0  0  0  0  0  0
   56.2590   28.2550   45.2700 C   0  0  0  0  0  0  0  0  0  0  0  0
   55.5600   27.1680   45.6920 N   0  0  0  0  0  0  0  0  0  0  0  0
   56.1870   26.0140   46.0360 C   0  0  0  0  0  0  0  0  0  0  0  0
   55.5120   25.0230   46.4180 O   0  0  0  0  0  0  0  0  0  0  0  0
   57.5390   25.9310   45.9760 N   0  0  0  0  0  0  0  0  0  0  0  0
   58.2900   26.9860   45.5660 C   0  0  0  0  0  0  0  0  0  0  0  0
   59.5450   26.8780   45.5510 O   0  0  0  0  0  0  0  0  0  0  0  0
   57.6640   28.1860   45.1770 C   0  0  0  0  0  0  0  0  0  0  0  0
   58.4570   29.3680   44.7670 C   0  0  0  0  0  0  0  0  0  0  0  0
   59.3860   29.1731   44.2111 H   0  0  0  0  0  0  0  0  0  0  0  0
   58.1500   30.6700   45.0100 C   0  0  0  0  0  0  0  0  0  0  0  0
   58.4330   31.1530   46.3070 C   0  0  0  0  0  0  0  0  0  0  0  0
   58.7286   30.4405   47.0912 H   0  0  0  0  0  0  0  0  0  0  0  0
   58.3470   32.5170   46.6210 C   0  0  0  0  0  0  0  0  0  0  0  0
   58.7240   33.0260   47.9640 C   0  0  0  0  0  0  0  0  0  0  0  0
   58.3050   32.4240   48.9900 O   0  0  0  0  0  0  0  0  0  0  0  0
   59.5620   34.2660   48.1490 C   0  0  0  0  0  0  0  0  0  0  0  0
   59.2491   35.0232   47.4150 H   0  0  0  0  0  0  0  0  0  0  0  0
   59.4151   34.6357   49.1745 H   0  0  0  0  0  0  0  0  0  0  0  0
   60.9990   33.9740   47.9580 N   0  0  0  0  0  0  0  0  0  0  0  0
   61.5320   33.8240   46.6990 C   0  0  0  0  0  0  0  0  0  0  0  0
   60.8050   33.9070   45.6720 O   0  0  0  0  0  0  0  0  0  0  0  0
   62.8580   33.5750   46.5390 N   0  0  0  0  0  0  0  0  0  0  0  0
   63.6880   33.4540   47.6030 C   0  0  0  0  0  0  0  0  0  0  0  0
   64.7605   33.2653   47.4477 H   0  0  0  0  0  0  0  0  0  0  0  0
   63.1800   33.5690   48.8900 C   0  0  0  0  0  0  0  0  0  0  0  0
   63.9980   33.4310   49.9640 F   0  0  0  0  0  0  0  0  0  0  0  0
   61.8160   33.8250   49.0540 C   0  0  0  0  0  0  0  0  0  0  0  0
   61.3490   33.9130   50.2230 O   0  0  0  0  0  0  0  0  0  0  0  0
   57.9200   33.4130   45.6370 C   0  0  0  0  0  0  0  0  0  0  0  0
   57.8761   34.4889   45.8618 H   0  0  0  0  0  0  0  0  0  0  0  0
   57.5500   32.9570   44.3760 C   0  0  0  0  0  0  0  0  0  0  0  0
   57.2114   33.6793   43.6186 H   0  0  0  0  0  0  0  0  0  0  0  0
   57.6010   31.5870   44.0510 C   0  0  0  0  0  0  0  0  0  0  0  0
   57.0250   31.2100   42.8960 C   0  0  0  0  0  0  0  0  0  0  0  0
   57.0368   30.1520   42.5952 H   0  0  0  0  0  0  0  0  0  0  0  0
   56.5420   31.9596   42.2519 H   0  0  0  0  0  0  0  0  0  0  0  0
  1  2  1  0
  2  3  1  0
  3  4  1  0
  4  5  1  0
  5  6  2  0
  5  7  1  0
  7  8  1  0
  8  9  2  0
  8 10  1  0
 10 11  1  0
 11 12  1  0
 11 13  2  0
 13 14  1  0
 14 15  1  0
 14 16  2  0
 16 17  1  0
 17 18  2  0
 17 19  1  0
 19 20  1  0
 19 21  1  0
 19 22  1  0
 22 23  1  0
 23 24  2  0
 23 25  1  0
 25 26  1  0
 26 27  1  0
 26 28  2  0
 28 29  1  0
 28 30  1  0
 30 31  2  0
 16 32  1  0
 32 33  1  0
 32 34  2  0
 34 35  1  0
 34 36  1  0
 36 37  2  0
 37 38  1  0
 37 39  1  0
 10  3  2  0
 36 13  1  0
 30 22  1  0
M  CHG  3   4  -1   7  -1  25  -1
M  END
>  <UniqueID>  (56) 
50

>  <SMILES>  (56) 
C=c1ccc(C(=O)Cn2c(=O)[n-]cc(F)c2=O)c/c1=C/c1c(O)[n-]c(=O)[n-]c1=O

>  <Energy>  (56) 
73.97165780941901

>  <Genealogy>  (56) 
C=c1ccc(C(=O)Cn2c(=O)[n-]cc(F)c2=O)cc1=Cc1c(O)[n-]c(=O)[n-]c1=O (protonated)
C=c1ccc(C(=O)Cn2c(=O)[n-]cc(F)c2=O)c/c1=C/c1c(O)[n-]c(=O)[n-]c1=O (cis-trans isomerization)
C=c1ccc(C(=O)Cn2c(=O)[n-]cc(F)c2=O)c/c1=C/c1c(O)[n-]c(=O)[n-]c1=O (3D coordinates assigned)
C=c1ccc(C(=O)Cn2c(=O)[n-]cc(F)c2=O)c/c1=C/c1c(O)[n-]c(=O)[n-]c1=O (optimized conformer: 73.97165780941901 kcal/mol)

>  <smiles>  (56) 
C=c1ccc(C(=O)Cn2c(=O)[nH]cc(F)c2=O)cc1=Cc1c(O)[nH]c(=O)[nH]c1=O

>  <score_type>  (56) 
oracle

>  <origin>  (56) 
adg

>  <m_score__min__energy>  (56) 
-14.380000000000001

>  <m_primary>  (56) 
energy

$$$$
56:0
     RDKit          3D

 44 46  0  0  0  0  0  0  0  0999 V2000
   60.4100   29.7240   48.2110 C   0  0  0  0  0  0  0  0  0  0  0  0
   59.9360   30.9460   47.4870 C   0  0  0  0  0  0  0  0  0  0  0  0
   58.8490   30.9500   46.6810 N   0  0  0  0  0  0  0  0  0  0  0  0
   58.7380   32.2060   46.2130 C   0  0  0  0  0  0  0  0  0  0  0  0
   57.7680   32.6970   45.3330 C   0  0  0  0  0  0  0  0  0  0  0  0
   56.7370   31.8220   44.8520 N   0  0  0  0  0  0  0  0  0  0  0  0
   56.9360   30.1400   44.4820 S   0  0  0  0  0  0  0  0  0  0  0  0
   56.0370   29.7290   43.0020 C   0  0  0  0  0  0  0  0  0  0  0  0
   58.3940   29.8180   44.3180 O   0  0  0  0  0  0  0  0  0  0  0  0
   56.3870   29.3280   45.6210 O   0  0  0  0  0  0  0  0  0  0  0  0
   57.8610   34.0560   44.9540 C   0  0  0  0  0  0  0  0  0  0  0  0
   58.9030   34.8680   45.4490 C   0  0  0  0  0  0  0  0  0  0  0  0
   59.8620   34.3420   46.3310 C   0  0  0  0  0  0  0  0  0  0  0  0
   59.7420   33.0030   46.7040 C   0  0  0  0  0  0  0  0  0  0  0  0
   60.5300   32.2100   47.5210 C   0  0  0  0  0  0  0  0  0  0  0  0
   61.7330   32.6220   48.2770 C   0  0  0  0  0  0  0  0  0  0  0  0
   63.0130   32.4120   47.7450 C   0  0  0  0  0  0  0  0  0  0  0  0
   64.1500   32.8000   48.4600 C   0  0  0  0  0  0  0  0  0  0  0  0
   64.0250   33.4020   49.7260 C   0  0  0  0  0  0  0  0  0  0  0  0
   65.1710   33.8160   50.4930 N   0  0  0  0  0  0  0  0  0  0  0  0
   66.5830   32.8420   50.7580 S   0  0  0  0  0  0  0  0  0  0  0  0
   66.9380   32.7330   52.4990 C   0  0  0  0  0  0  0  0  0  0  0  0
   67.7530   33.4880   50.0730 O   0  0  0  0  0  0  0  0  0  0  0  0
   66.3810   31.4720   50.1750 O   0  0  0  0  0  0  0  0  0  0  0  0
   62.7410   33.6160   50.2510 C   0  0  0  0  0  0  0  0  0  0  0  0
   61.6050   33.2280   49.5340 C   0  0  0  0  0  0  0  0  0  0  0  0
   60.3447   29.8923   49.2961 H   0  0  0  0  0  0  0  0  0  0  0  0
   59.7794   28.8662   47.9344 H   0  0  0  0  0  0  0  0  0  0  0  0
   61.4541   29.5158   47.9344 H   0  0  0  0  0  0  0  0  0  0  0  0
   58.2250   30.1400   46.4680 H   0  0  0  0  0  0  0  0  0  0  0  0
   55.0674   29.2857   43.2731 H   0  0  0  0  0  0  0  0  0  0  0  0
   55.8705   30.6404   42.4091 H   0  0  0  0  0  0  0  0  0  0  0  0
   56.6174   29.0068   42.4091 H   0  0  0  0  0  0  0  0  0  0  0  0
   57.1150   34.4835   44.2678 H   0  0  0  0  0  0  0  0  0  0  0  0
   58.9653   35.9224   45.1417 H   0  0  0  0  0  0  0  0  0  0  0  0
   60.6819   34.9665   46.7154 H   0  0  0  0  0  0  0  0  0  0  0  0
   63.1235   31.9387   46.7582 H   0  0  0  0  0  0  0  0  0  0  0  0
   65.1488   32.6337   48.0303 H   0  0  0  0  0  0  0  0  0  0  0  0
   65.1400   34.7370   50.9860 H   0  0  0  0  0  0  0  0  0  0  0  0
   66.0415   33.0083   53.0739 H   0  0  0  0  0  0  0  0  0  0  0  0
   67.2323   31.7031   52.7494 H   0  0  0  0  0  0  0  0  0  0  0  0
   67.7595   33.4203   52.7494 H   0  0  0  0  0  0  0  0  0  0  0  0
   62.6274   34.0933   51.2355 H   0  0  0  0  0  0  0  0  0  0  0  0
   60.6051   33.3995   49.9591 H   0  0  0  0  0  0  0  0  0  0  0  0
  1  2  1  0
  2  3  1  0
  3  4  1  0
  4  5  2  0
  5  6  1  0
  6  7  1  0
  7  8  1  0
  7  9  2  0
  7 10  2  0
  5 11  1  0
 11 12  2  0
 12 13  1  0
 13 14  2  0
 14 15  1  0
 15 16  1  0
 16 17  2  0
 17 18  1  0
 18 19  2  0
 19 20  1  0
 20 21  1  0
 21 22  1  0
 21 23  2  0
 21 24  2  0
 19 25  1  0
 25 26  2  0
 15  2  2  0
 26 16  1  0
 14  4  1  0
  1 27  1  0
  1 28  1  0
  1 29  1  0
  3 30  1  0
  8 31  1  0
  8 32  1  0
  8 33  1  0
 11 34  1  0
 12 35  1  0
 13 36  1  0
 17 37  1  0
 18 38  1  0
 20 39  1  0
 22 40  1  0
 22 41  1  0
 22 42  1  0
 25 43  1  0
 26 44  1  0
M  CHG  1   6  -1
M  END
>  <UniqueID>  (57) 
51

>  <SMILES>  (57) 
Cc1[nH]c2c([N-]S(C)(=O)=O)cccc2c1-c1ccc(NS(C)(=O)=O)cc1

>  <Energy>  (57) 
80.65171336216173

>  <Genealogy>  (57) 
Cc1[nH]c2c([N-]S(C)(=O)=O)cccc2c1-c1ccc(NS(C)(=O)=O)cc1 (protonated)
Cc1[nH]c2c([N-]S(C)(=O)=O)cccc2c1-c1ccc(NS(C)(=O)=O)cc1 (3D coordinates assigned)
Cc1[nH]c2c([N-]S(C)(=O)=O)cccc2c1-c1ccc(NS(C)(=O)=O)cc1 (optimized conformer: 80.65171336216173 kcal/mol)

>  <smiles>  (57) 
Cc1[nH]c2c(NS(C)(=O)=O)cccc2c1-c1ccc(NS(C)(=O)=O)cc1

>  <score_type>  (57) 
oracle

>  <origin>  (57) 
adg

>  <m_score__min__energy>  (57) 
-9.7699999999999996

>  <m_primary>  (57) 
energy

$$$$
57:0
     RDKit          3D

 37 39  0  0  0  0  0  0  0  0999 V2000
   57.7880   28.8490   48.3790 H   0  0  0  0  0  0  0  0  0  0  0  0
   58.1610   29.2370   47.4840 N   0  0  0  0  0  0  0  0  0  0  0  0
   58.9450   30.4270   47.4740 C   0  0  0  0  0  0  0  0  0  0  0  0
   58.5870   31.4100   46.7720 O   0  0  0  0  0  0  0  0  0  0  0  0
   60.1640   30.5260   48.3360 C   0  0  0  0  0  0  0  0  0  0  0  0
   60.9586   31.0498   47.7844 H   0  0  0  0  0  0  0  0  0  0  0  0
   60.5005   29.5134   48.6032 H   0  0  0  0  0  0  0  0  0  0  0  0
   59.8540   31.2660   49.5570 N   0  0  0  0  0  0  0  0  0  0  0  0
   60.5490   32.4310   49.9960 C   0  0  0  0  0  0  0  0  0  0  0  0
   61.5410   32.8940   49.3740 O   0  0  0  0  0  0  0  0  0  0  0  0
   59.8920   33.2270   51.4650 S   0  0  0  0  0  0  0  0  0  0  0  0
   58.4790   32.1200   51.3500 C   0  0  0  0  0  0  0  0  0  0  0  0
   57.4070   32.2860   52.1390 C   0  0  0  0  0  0  0  0  0  0  0  0
   57.2521   33.2781   52.5881 H   0  0  0  0  0  0  0  0  0  0  0  0
   56.4190   31.2310   52.4480 C   0  0  0  0  0  0  0  0  0  0  0  0
   56.8300   29.9300   52.7340 C   0  0  0  0  0  0  0  0  0  0  0  0
   57.9031   29.6921   52.7765 H   0  0  0  0  0  0  0  0  0  0  0  0
   55.8900   28.9310   52.9660 C   0  0  0  0  0  0  0  0  0  0  0  0
   56.2323   27.9114   53.1968 H   0  0  0  0  0  0  0  0  0  0  0  0
   54.5080   29.2000   52.9110 C   0  0  0  0  0  0  0  0  0  0  0  0
   53.6740   28.1860   53.2180 C   0  0  0  0  0  0  0  0  0  0  0  0
   52.5854   28.3418   53.1909 H   0  0  0  0  0  0  0  0  0  0  0  0
   54.0822   27.2030   53.4956 H   0  0  0  0  0  0  0  0  0  0  0  0
   54.0670   30.5250   52.5730 C   0  0  0  0  0  0  0  0  0  0  0  0
   52.7510   30.8360   52.4190 C   0  0  0  0  0  0  0  0  0  0  0  0
   52.1337   30.8842   53.3282 H   0  0  0  0  0  0  0  0  0  0  0  0
   52.0840   31.1140   51.1310 C   0  0  0  0  0  0  0  0  0  0  0  0
   52.0370   30.2340   50.1160 N   0  0  0  0  0  0  0  0  0  0  0  0
   51.2540   30.8480   49.2030 C   0  0  0  0  0  0  0  0  0  0  0  0
   50.9800   30.3320   48.0880 O   0  0  0  0  0  0  0  0  0  0  0  0
   50.7780   32.0520   49.5830 N   0  0  0  0  0  0  0  0  0  0  0  0
   51.3000   32.2020   50.8110 C   0  0  0  0  0  0  0  0  0  0  0  0
   51.0360   33.2890   51.6340 O   0  0  0  0  0  0  0  0  0  0  0  0
   55.0540   31.5130   52.3340 C   0  0  0  0  0  0  0  0  0  0  0  0
   54.7384   32.5282   52.0515 H   0  0  0  0  0  0  0  0  0  0  0  0
   58.6760   31.0830   50.3290 C   0  0  0  0  0  0  0  0  0  0  0  0
   57.9140   30.0920   50.1670 O   0  0  0  0  0  0  0  0  0  0  0  0
  1  2  1  0
  2  3  1  0
  3  4  2  0
  3  5  1  0
  5  6  1  0
  5  7  1  0
  5  8  1  0
  8  9  1  0
  9 10  2  0
  9 11  1  0
 11 12  1  0
 12 13  2  3
 13 14  1  0
 13 15  1  0
 15 16  1  0
 16 17  1  0
 16 18  2  0
 18 19  1  0
 18 20  1  0
 20 21  2  0
 21 22  1  0
 21 23  1  0
 20 24  1  0
 24 25  2  0
 25 26  1  0
 25 27  1  0
 27 28  1  0
 28 29  1  0
 29 30  2  0
 29 31  1  0
 31 32  1  0
 32 33  1  0
 24 34  1  0
 34 35  1  0
 12 36  1  0
 36 37  2  0
 36  8  1  0
 34 15  2  0
 32 27  2  0
M  CHG  4   2  -1  28  -1  31  -1  33  -1
M  END
>  <UniqueID>  (58) 
52

>  <SMILES>  (58) 
C=c1ccc(C=C2SC(=O)N(CC([NH-])=O)C2=O)c/c1=C\c1[n-]c(=O)[n-]c1[O-]

>  <Energy>  (58) 
109.78555286108475

>  <Genealogy>  (58) 
C=c1ccc(C=C2SC(=O)N(CC([NH-])=O)C2=O)cc1=Cc1[n-]c(=O)[n-]c1[O-] (protonated)
C=c1ccc(C=C2SC(=O)N(CC([NH-])=O)C2=O)c/c1=C\c1[n-]c(=O)[n-]c1[O-] (cis-trans isomerization)
C=c1ccc(C=C2SC(=O)N(CC([NH-])=O)C2=O)c/c1=C\c1[n-]c(=O)[n-]c1[O-] (3D coordinates assigned)
C=c1ccc(C=C2SC(=O)N(CC([NH-])=O)C2=O)c/c1=C\c1[n-]c(=O)[n-]c1[O-] (nonaromatic ring conformer: 109.78555286108475 kcal/mol)

>  <smiles>  (58) 
C=c1ccc(C=C2SC(=O)N(CC(N)=O)C2=O)cc1=Cc1[nH]c(=O)[nH]c1O

>  <score_type>  (58) 
oracle

>  <origin>  (58) 
adg

>  <m_score__min__energy>  (58) 
-17.550000000000001

>  <m_primary>  (58) 
energy

$$$$
58:0
     RDKit          3D

 69 73  0  0  0  0  0  0  0  0999 V2000
   60.8048   29.3728   50.6060 H   0  0  0  0  0  0  0  0  0  0  0  0
   59.7750   29.4780   50.2340 C   0  0  0  0  0  0  0  0  0  0  0  0
   58.7990   29.6220   51.1440 C   0  0  0  0  0  0  0  0  0  0  0  0
   57.3900   30.6900   50.8310 S   0  0  0  0  0  0  0  0  0  0  0  0
   56.8690   30.4170   52.5420 C   0  0  0  0  0  0  0  0  0  0  0  0
   55.7780   30.9120   53.0500 N   0  0  0  0  0  0  0  0  0  0  0  0
   54.4390   30.5990   52.6430 C   0  0  0  0  0  0  0  0  0  0  0  0
   53.9580   29.3000   52.8350 C   0  0  0  0  0  0  0  0  0  0  0  0
   54.6154   28.5318   53.2683 H   0  0  0  0  0  0  0  0  0  0  0  0
   52.6490   28.9730   52.4800 C   0  0  0  0  0  0  0  0  0  0  0  0
   52.2842   27.9444   52.6178 H   0  0  0  0  0  0  0  0  0  0  0  0
   51.8000   29.9480   51.9500 C   0  0  0  0  0  0  0  0  0  0  0  0
   50.7727   29.6809   51.6613 H   0  0  0  0  0  0  0  0  0  0  0  0
   52.2520   31.2680   51.7840 C   0  0  0  0  0  0  0  0  0  0  0  0
   51.3500   32.3110   51.2480 C   0  0  0  0  0  0  0  0  0  0  0  0
   50.8650   33.1890   52.0090 O   0  0  0  0  0  0  0  0  0  0  0  0
   51.0280   32.3390   49.8960 O   0  0  0  0  0  0  0  0  0  0  0  0
   53.5740   31.5890   52.1420 C   0  0  0  0  0  0  0  0  0  0  0  0
   53.9343   32.6222   52.0293 H   0  0  0  0  0  0  0  0  0  0  0  0
   57.6710   29.4920   53.2750 N   0  0  0  0  0  0  0  0  0  0  0  0
   57.3040   28.9330   54.5750 C   0  0  0  0  0  0  0  0  0  0  0  0
   57.7181   29.5637   55.3754 H   0  0  0  0  0  0  0  0  0  0  0  0
   56.2081   28.9002   54.6639 H   0  0  0  0  0  0  0  0  0  0  0  0
   57.7097   27.9144   54.6639 H   0  0  0  0  0  0  0  0  0  0  0  0
   58.7220   28.9880   52.4640 C   0  0  0  0  0  0  0  0  0  0  0  0
   59.4500   28.0280   52.8310 O   0  0  0  0  0  0  0  0  0  0  0  0
   59.5720   29.4500   48.7710 C   0  0  0  0  0  0  0  0  0  0  0  0
   60.4370   30.1780   47.9410 C   0  0  0  0  0  0  0  0  0  0  0  0
   61.2332   30.7924   48.3865 H   0  0  0  0  0  0  0  0  0  0  0  0
   60.2940   30.1280   46.5510 C   0  0  0  0  0  0  0  0  0  0  0  0
   60.9689   30.7133   45.9091 H   0  0  0  0  0  0  0  0  0  0  0  0
   59.2890   29.3310   45.9700 C   0  0  0  0  0  0  0  0  0  0  0  0
   59.0990   29.2470   44.5810 O   0  0  0  0  0  0  0  0  0  0  0  0
   57.9010   28.8140   43.9380 C   0  0  0  0  0  0  0  0  0  0  0  0
   57.9362   29.1018   42.8769 H   0  0  0  0  0  0  0  0  0  0  0  0
   57.8227   27.7210   44.0340 H   0  0  0  0  0  0  0  0  0  0  0  0
   56.7020   29.4410   44.5780 C   0  0  0  0  0  0  0  0  0  0  0  0
   55.8990   28.7240   45.2330 O   0  0  0  0  0  0  0  0  0  0  0  0
   56.4950   30.8520   44.4600 N   0  0  0  0  0  0  0  0  0  0  0  0
   57.4370   31.8750   44.8050 C   0  0  0  0  0  0  0  0  0  0  0  0
   57.8090   32.8040   43.8260 C   0  0  0  0  0  0  0  0  0  0  0  0
   57.4022   32.7178   42.8076 H   0  0  0  0  0  0  0  0  0  0  0  0
   58.6940   33.8400   44.1350 C   0  0  0  0  0  0  0  0  0  0  0  0
   58.9930   34.5571   43.3563 H   0  0  0  0  0  0  0  0  0  0  0  0
   59.2000   33.9670   45.4310 C   0  0  0  0  0  0  0  0  0  0  0  0
   59.9125   34.7717   45.6651 H   0  0  0  0  0  0  0  0  0  0  0  0
   58.8020   33.0710   46.4350 C   0  0  0  0  0  0  0  0  0  0  0  0
   59.3070   33.2350   47.8120 C   0  0  0  0  0  0  0  0  0  0  0  0
   58.5130   33.0510   48.7760 O   0  0  0  0  0  0  0  0  0  0  0  0
   60.6880   33.5570   48.0760 N   0  0  0  0  0  0  0  0  0  0  0  0
   61.7480   33.1180   47.1580 C   0  0  0  0  0  0  0  0  0  0  0  0
   61.5171   32.1060   46.7939 H   0  0  0  0  0  0  0  0  0  0  0  0
   61.8024   33.8186   46.3117 H   0  0  0  0  0  0  0  0  0  0  0  0
   63.0970   33.1000   47.8780 C   0  0  0  0  0  0  0  0  0  0  0  0
   63.7850   32.4230   47.3504 H   0  0  0  0  0  0  0  0  0  0  0  0
   63.5190   34.1158   47.8905 H   0  0  0  0  0  0  0  0  0  0  0  0
   62.9180   32.6490   49.2040 O   0  0  0  0  0  0  0  0  0  0  0  0
   62.2770   33.6480   49.9830 C   0  0  0  0  0  0  0  0  0  0  0  0
   61.9278   33.1870   50.9187 H   0  0  0  0  0  0  0  0  0  0  0  0
   63.0171   34.4432   50.1557 H   0  0  0  0  0  0  0  0  0  0  0  0
   61.0660   34.3050   49.2820 C   0  0  0  0  0  0  0  0  0  0  0  0
   60.2135   34.3220   49.9770 H   0  0  0  0  0  0  0  0  0  0  0  0
   61.3432   35.3281   48.9880 H   0  0  0  0  0  0  0  0  0  0  0  0
   57.9310   32.0150   46.1140 C   0  0  0  0  0  0  0  0  0  0  0  0
   57.6345   31.2948   46.8908 H   0  0  0  0  0  0  0  0  0  0  0  0
   58.4420   28.5880   46.7990 C   0  0  0  0  0  0  0  0  0  0  0  0
   57.6526   27.9643   46.3543 H   0  0  0  0  0  0  0  0  0  0  0  0
   58.5910   28.6320   48.1880 C   0  0  0  0  0  0  0  0  0  0  0  0
   57.9361   28.0224   48.8279 H   0  0  0  0  0  0  0  0  0  0  0  0
  1  2  1  0
  2  3  2  0
  3  4  1  0
  4  5  1  0
  5  6  2  3
  6  7  1  0
  7  8  2  0
  8  9  1  0
  8 10  1  0
 10 11  1  0
 10 12  2  0
 12 13  1  0
 12 14  1  0
 14 15  1  0
 15 16  2  0
 15 17  1  0
 14 18  2  0
 18 19  1  0
  5 20  1  0
 20 21  1  0
 21 22  1  0
 21 23  1  0
 21 24  1  0
 20 25  1  0
 25 26  2  0
  2 27  1  0
 27 28  2  0
 28 29  1  0
 28 30  1  0
 30 31  1  0
 30 32  2  0
 32 33  1  0
 33 34  1  0
 34 35  1  0
 34 36  1  0
 34 37  1  0
 37 38  2  0
 37 39  1  0
 39 40  1  0
 40 41  2  0
 41 42  1  0
 41 43  1  0
 43 44  1  0
 43 45  2  0
 45 46  1  0
 45 47  1  0
 47 48  1  0
 48 49  2  0
 48 50  1  0
 50 51  1  0
 51 52  1  0
 51 53  1  0
 51 54  1  0
 54 55  1  0
 54 56  1  0
 54 57  1  0
 57 58  1  0
 58 59  1  0
 58 60  1  0
 58 61  1  0
 61 62  1  0
 61 63  1  0
 47 64  2  0
 64 65  1  0
 32 66  1  0
 66 67  1  0
 66 68  2  0
 68 69  1  0
 25  3  1  0
 68 27  1  0
 18  7  1  0
 64 40  1  0
 61 50  1  0
M  CHG  2  17  -1  39  -1
M  END
>  <UniqueID>  (59) 
53

>  <SMILES>  (59) 
CN1C(=O)/C(=C\c2ccc(OCC(=O)[N-]c3cccc(C(=O)N4CCOCC4)c3)cc2)SC1=Nc1cccc(C(=O)[O-])c1

>  <Energy>  (59) 
122.9274076935953

>  <Genealogy>  (59) 
CN1C(=O)C(=Cc2ccc(OCC(=O)[N-]c3cccc(C(=O)N4CCOCC4)c3)cc2)SC1=Nc1cccc(C(=O)[O-])c1 (protonated)
CN1C(=O)/C(=C\c2ccc(OCC(=O)[N-]c3cccc(C(=O)N4CCOCC4)c3)cc2)SC1=Nc1cccc(C(=O)[O-])c1 (cis-trans isomerization)
CN1C(=O)/C(=C\c2ccc(OCC(=O)[N-]c3cccc(C(=O)N4CCOCC4)c3)cc2)SC1=Nc1cccc(C(=O)[O-])c1 (3D coordinates assigned)
CN1C(=O)/C(=C\c2ccc(OCC(=O)[N-]c3cccc(C(=O)N4CCOCC4)c3)cc2)SC1=Nc1cccc(C(=O)[O-])c1 (nonaromatic ring conformer: 122.9274076935953 kcal/mol)

>  <smiles>  (59) 
CN1C(=O)C(=Cc2ccc(OCC(=O)Nc3cccc(C(=O)N4CCOCC4)c3)cc2)SC1=Nc1cccc(C(=O)O)c1

>  <score_type>  (59) 
oracle

>  <origin>  (59) 
adg

>  <m_score__min__energy>  (59) 
-16.859999999999999

>  <m_primary>  (59) 
energy

$$$$
59:0
     RDKit          3D

 38 40  0  0  0  0  0  0  0  0999 V2000
   58.1440   21.1440   43.8090 N   0  0  0  0  0  0  0  0  0  0  0  0
   56.6200   21.8820   44.1590 S   0  0  0  0  0  0  0  0  0  0  0  0
   55.6950   20.8590   44.7570 O   0  0  0  0  0  0  0  0  0  0  0  0
   56.0070   22.3970   42.8870 O   0  0  0  0  0  0  0  0  0  0  0  0
   56.8520   23.2130   45.2890 C   0  0  0  0  0  0  0  0  0  0  0  0
   56.9570   22.9610   46.6610 C   0  0  0  0  0  0  0  0  0  0  0  0
   57.1550   24.0160   47.5540 C   0  0  0  0  0  0  0  0  0  0  0  0
   57.2550   25.3270   47.0820 C   0  0  0  0  0  0  0  0  0  0  0  0
   57.1610   25.5990   45.7040 C   0  0  0  0  0  0  0  0  0  0  0  0
   57.2720   26.9910   45.1990 C   0  0  0  0  0  0  0  0  0  0  0  0
   56.2020   27.8300   45.2550 N   0  0  0  0  0  0  0  0  0  0  0  0
   56.2770   29.1080   44.8010 C   0  0  0  0  0  0  0  0  0  0  0  0
   55.2590   29.8470   44.8690 O   0  0  0  0  0  0  0  0  0  0  0  0
   57.4810   29.5900   44.2630 C   0  0  0  0  0  0  0  0  0  0  0  0
   57.6070   30.9870   43.7090 C   0  0  0  0  0  0  0  0  0  0  0  0
   57.9260   31.9610   44.8120 C   0  0  0  0  0  0  0  0  0  0  0  0
   58.3910   31.4950   46.0530 C   0  0  0  0  0  0  0  0  0  0  0  0
   58.7180   32.4010   47.0670 C   0  0  0  0  0  0  0  0  0  0  0  0
   58.5920   33.7760   46.8480 C   0  0  0  0  0  0  0  0  0  0  0  0
   58.9120   34.6520   47.8320 F   0  0  0  0  0  0  0  0  0  0  0  0
   58.1380   34.2460   45.6120 C   0  0  0  0  0  0  0  0  0  0  0  0
   57.8100   33.3440   44.5950 C   0  0  0  0  0  0  0  0  0  0  0  0
   58.5670   28.7080   44.2030 C   0  0  0  0  0  0  0  0  0  0  0  0
   58.4420   27.4390   44.6720 N   0  0  0  0  0  0  0  0  0  0  0  0
   56.9600   24.5260   44.8130 C   0  0  0  0  0  0  0  0  0  0  0  0
   57.9530   20.3380   43.1730 H   0  0  0  0  0  0  0  0  0  0  0  0
   58.5010   20.7440   44.7050 H   0  0  0  0  0  0  0  0  0  0  0  0
   56.8835   21.9299   47.0370 H   0  0  0  0  0  0  0  0  0  0  0  0
   57.2325   23.8142   48.6325 H   0  0  0  0  0  0  0  0  0  0  0  0
   57.4083   26.1528   47.7923 H   0  0  0  0  0  0  0  0  0  0  0  0
   58.4133   31.0092   42.9611 H   0  0  0  0  0  0  0  0  0  0  0  0
   56.6526   31.2743   43.2436 H   0  0  0  0  0  0  0  0  0  0  0  0
   58.4982   30.4143   46.2277 H   0  0  0  0  0  0  0  0  0  0  0  0
   59.0752   32.0308   48.0393 H   0  0  0  0  0  0  0  0  0  0  0  0
   58.0386   35.3278   45.4391 H   0  0  0  0  0  0  0  0  0  0  0  0
   57.4600   33.7187   43.6218 H   0  0  0  0  0  0  0  0  0  0  0  0
   59.5233   29.0433   43.7752 H   0  0  0  0  0  0  0  0  0  0  0  0
   56.8872   24.7214   43.7329 H   0  0  0  0  0  0  0  0  0  0  0  0
  1  2  1  0
  2  3  2  0
  2  4  2  0
  2  5  1  0
  5  6  2  0
  6  7  1  0
  7  8  2  0
  8  9  1  0
  9 10  1  0
 10 11  2  0
 11 12  1  0
 12 13  2  0
 12 14  1  0
 14 15  1  0
 15 16  1  0
 16 17  2  0
 17 18  1  0
 18 19  2  0
 19 20  1  0
 19 21  1  0
 21 22  2  0
 14 23  2  0
 23 24  1  0
  9 25  2  0
 25  5  1  0
 24 10  1  0
 22 16  1  0
  1 26  1  0
  1 27  1  0
  6 28  1  0
  7 29  1  0
  8 30  1  0
 15 31  1  0
 15 32  1  0
 17 33  1  0
 18 34  1  0
 21 35  1  0
 22 36  1  0
 23 37  1  0
 25 38  1  0
M  CHG  1  24  -1
M  END
>  <UniqueID>  (60) 
54

>  <SMILES>  (60) 
NS(=O)(=O)c1cccc(-c2nc(=O)c(Cc3ccc(F)cc3)c[n-]2)c1

>  <Energy>  (60) 
41.483553029454754

>  <Genealogy>  (60) 
NS(=O)(=O)c1cccc(-c2nc(=O)c(Cc3ccc(F)cc3)c[n-]2)c1 (protonated)
NS(=O)(=O)c1cccc(-c2nc(=O)c(Cc3ccc(F)cc3)c[n-]2)c1 (3D coordinates assigned)
NS(=O)(=O)c1cccc(-c2nc(=O)c(Cc3ccc(F)cc3)c[n-]2)c1 (optimized conformer: 41.483553029454754 kcal/mol)

>  <smiles>  (60) 
NS(=O)(=O)c1cccc(-c2nc(=O)c(Cc3ccc(F)cc3)c[nH]2)c1

>  <score_type>  (60) 
oracle

>  <origin>  (60) 
adg

>  <m_score__min__energy>  (60) 
-10.609999999999999

>  <m_primary>  (60) 
energy

$$$$
60:0
     RDKit          3D

 28 29  0  0  0  0  0  0  0  0999 V2000
   57.0000   28.9090   43.0020 C   0  0  0  0  0  0  0  0  0  0  0  0
   56.6360   29.0330   44.7400 S   0  0  0  0  0  0  0  0  0  0  0  0
   57.1390   30.3440   45.2750 O   0  0  0  0  0  0  0  0  0  0  0  0
   55.1450   28.9730   44.9310 O   0  0  0  0  0  0  0  0  0  0  0  0
   57.4180   27.7000   45.5940 C   0  0  0  0  0  0  0  0  0  0  0  0
   58.8160   27.6530   45.6840 C   0  0  0  0  0  0  0  0  0  0  0  0
   59.4430   26.6100   46.3660 C   0  0  0  0  0  0  0  0  0  0  0  0
   58.6800   25.6240   46.9930 C   0  0  0  0  0  0  0  0  0  0  0  0
   57.2820   25.6760   46.9490 C   0  0  0  0  0  0  0  0  0  0  0  0
   56.5410   24.6830   47.6710 N   0  0  0  0  0  0  0  0  0  0  0  0
   56.1220   23.4110   47.1560 C   0  0  0  0  0  0  0  0  0  0  0  0
   56.8450   22.4030   47.3760 O   0  0  0  0  0  0  0  0  0  0  0  0
   54.8600   23.2410   46.4070 C   0  0  0  0  0  0  0  0  0  0  0  0
   54.3020   22.0380   46.0290 C   0  0  0  0  0  0  0  0  0  0  0  0
   53.1530   22.2710   45.3730 N   0  0  0  0  0  0  0  0  0  0  0  0
   53.0520   23.6150   45.3840 C   0  0  0  0  0  0  0  0  0  0  0  0
   52.0900   24.2290   44.8540 O   0  0  0  0  0  0  0  0  0  0  0  0
   54.0650   24.2490   46.0060 N   0  0  0  0  0  0  0  0  0  0  0  0
   56.6430   26.6930   46.2020 C   0  0  0  0  0  0  0  0  0  0  0  0
   55.2550   26.7110   46.0370 O   0  0  0  0  0  0  0  0  0  0  0  0
   58.0335   28.5569   42.8680 H   0  0  0  0  0  0  0  0  0  0  0  0
   56.3061   28.1966   42.5320 H   0  0  0  0  0  0  0  0  0  0  0  0
   56.8853   29.8969   42.5320 H   0  0  0  0  0  0  0  0  0  0  0  0
   59.4216   28.4423   45.2146 H   0  0  0  0  0  0  0  0  0  0  0  0
   60.5412   26.5647   46.4096 H   0  0  0  0  0  0  0  0  0  0  0  0
   59.1801   24.8012   47.5249 H   0  0  0  0  0  0  0  0  0  0  0  0
   54.7298   21.0452   46.2323 H   0  0  0  0  0  0  0  0  0  0  0  0
   54.6530   25.9680   46.3640 H   0  0  0  0  0  0  0  0  0  0  0  0
  1  2  1  0
  2  3  2  0
  2  4  2  0
  2  5  1  0
  5  6  2  0
  6  7  1  0
  7  8  2  0
  8  9  1  0
  9 10  1  0
 10 11  1  0
 11 12  2  0
 11 13  1  0
 13 14  2  0
 14 15  1  0
 15 16  1  0
 16 17  2  0
 16 18  1  0
  9 19  2  0
 19 20  1  0
 19  5  1  0
 18 13  1  0
  1 21  1  0
  1 22  1  0
  1 23  1  0
  6 24  1  0
  7 25  1  0
  8 26  1  0
 14 27  1  0
 20 28  1  0
M  CHG  3  10  -1  15  -1  18  -1
M  END
>  <UniqueID>  (61) 
55

>  <SMILES>  (61) 
CS(=O)(=O)c1cccc([N-]C(=O)c2c[n-]c(=O)[n-]2)c1O

>  <Energy>  (61) 
61.63669513753764

>  <Genealogy>  (61) 
CS(=O)(=O)c1cccc([N-]C(=O)c2c[n-]c(=O)[n-]2)c1O (protonated)
CS(=O)(=O)c1cccc([N-]C(=O)c2c[n-]c(=O)[n-]2)c1O (3D coordinates assigned)
CS(=O)(=O)c1cccc([N-]C(=O)c2c[n-]c(=O)[n-]2)c1O (optimized conformer: 61.63669513753764 kcal/mol)

>  <smiles>  (61) 
CS(=O)(=O)c1cccc(NC(=O)c2c[nH]c(=O)[nH]2)c1O

>  <score_type>  (61) 
oracle

>  <origin>  (61) 
adg

>  <m_score__min__energy>  (61) 
-13.31

>  <m_primary>  (61) 
energy

$$$$
61:0
     RDKit          3D

 37 39  0  0  0  0  0  0  0  0999 V2000
   55.1700   28.2160   44.9020 H   0  0  0  0  0  0  0  0  0  0  0  0
   55.1580   29.2290   44.9260 O   0  0  0  0  0  0  0  0  0  0  0  0
   56.1110   29.9870   44.2490 C   0  0  0  0  0  0  0  0  0  0  0  0
   55.9110   30.3830   42.9640 N   0  0  0  0  0  0  0  0  0  0  0  0
   56.9450   31.1280   42.5180 C   0  0  0  0  0  0  0  0  0  0  0  0
   56.9890   31.6140   41.3590 O   0  0  0  0  0  0  0  0  0  0  0  0
   58.1400   31.3400   43.6800 S   0  0  0  0  0  0  0  0  0  0  0  0
   57.3210   30.3930   44.8140 C   0  0  0  0  0  0  0  0  0  0  0  0
   57.7070   30.2380   46.2240 C   0  0  0  0  0  0  0  0  0  0  0  0
   57.4007   31.0314   46.9216 H   0  0  0  0  0  0  0  0  0  0  0  0
   58.4070   29.2010   46.7330 C   0  0  0  0  0  0  0  0  0  0  0  0
   58.1010   27.8490   46.5310 C   0  0  0  0  0  0  0  0  0  0  0  0
   57.0420   27.2720   45.6740 C   0  0  0  0  0  0  0  0  0  0  0  0
   57.1270   27.3500   44.4190 O   0  0  0  0  0  0  0  0  0  0  0  0
   55.9300   26.5990   46.2720 N   0  0  0  0  0  0  0  0  0  0  0  0
   55.8720   25.1560   46.4700 C   0  0  0  0  0  0  0  0  0  0  0  0
   56.7163   24.8411   47.1009 H   0  0  0  0  0  0  0  0  0  0  0  0
   54.9218   24.8977   46.9603 H   0  0  0  0  0  0  0  0  0  0  0  0
   55.9500   24.4530   45.1520 C   0  0  0  0  0  0  0  0  0  0  0  0
   57.3670   24.0730   44.3310 S   0  0  0  0  0  0  0  0  0  0  0  0
   56.6240   23.2860   43.0440 C   0  0  0  0  0  0  0  0  0  0  0  0
   57.1381   22.8311   42.1845 H   0  0  0  0  0  0  0  0  0  0  0  0
   55.2500   23.3080   43.2510 C   0  0  0  0  0  0  0  0  0  0  0  0
   54.5286   22.8581   42.5530 H   0  0  0  0  0  0  0  0  0  0  0  0
   54.8710   23.9570   44.4320 C   0  0  0  0  0  0  0  0  0  0  0  0
   53.8254   24.0633   44.7566 H   0  0  0  0  0  0  0  0  0  0  0  0
   58.9890   27.1220   47.3130 C   0  0  0  0  0  0  0  0  0  0  0  0
   59.0630   25.6290   47.4250 C   0  0  0  0  0  0  0  0  0  0  0  0
   59.0773   25.3412   48.4866 H   0  0  0  0  0  0  0  0  0  0  0  0
   58.1860   25.1806   46.9353 H   0  0  0  0  0  0  0  0  0  0  0  0
   59.9801   25.2696   46.9353 H   0  0  0  0  0  0  0  0  0  0  0  0
   59.8340   27.9480   47.9550 N   0  0  0  0  0  0  0  0  0  0  0  0
   60.6260   27.6560   48.5710 H   0  0  0  0  0  0  0  0  0  0  0  0
   59.5220   29.2080   47.5900 C   0  0  0  0  0  0  0  0  0  0  0  0
   60.2930   30.2450   47.9340 C   0  0  0  0  0  0  0  0  0  0  0  0
   60.0160   31.2632   47.6234 H   0  0  0  0  0  0  0  0  0  0  0  0
   61.2043   30.0798   48.5276 H   0  0  0  0  0  0  0  0  0  0  0  0
  1  2  1  0
  2  3  1  0
  3  4  1  0
  4  5  1  0
  5  6  2  0
  5  7  1  0
  7  8  1  0
  8  9  1  0
  9 10  1  0
  9 11  2  0
 11 12  1  0
 12 13  1  0
 13 14  2  0
 13 15  1  0
 15 16  1  0
 16 17  1  0
 16 18  1  0
 16 19  1  0
 19 20  1  0
 20 21  1  0
 21 22  1  0
 21 23  2  0
 23 24  1  0
 23 25  1  0
 25 26  1  0
 12 27  2  0
 27 28  1  0
 28 29  1  0
 28 30  1  0
 28 31  1  0
 27 32  1  0
 32 33  1  0
 32 34  1  0
 34 35  2  0
 35 36  1  0
 35 37  1  0
  8  3  2  0
 34 11  1  0
 25 19  2  0
M  CHG  2   4  -1  15  -1
M  END
>  <UniqueID>  (62) 
56

>  <SMILES>  (62) 
C=c1[nH]c(C)c(C(=O)[N-]Cc2cccs2)/c1=C/c1sc(=O)[n-]c1O

>  <Energy>  (62) 
134.6174795221449

>  <Genealogy>  (62) 
C=c1[nH]c(C)c(C(=O)[N-]Cc2cccs2)c1=Cc1sc(=O)[n-]c1O (protonated)
C=c1[nH]c(C)c(C(=O)[N-]Cc2cccs2)/c1=C/c1sc(=O)[n-]c1O (cis-trans isomerization)
C=c1[nH]c(C)c(C(=O)[N-]Cc2cccs2)/c1=C/c1sc(=O)[n-]c1O (3D coordinates assigned)
C=c1[nH]c(C)c(C(=O)[N-]Cc2cccs2)/c1=C/c1sc(=O)[n-]c1O (optimized conformer: 134.6174795221449 kcal/mol)

>  <smiles>  (62) 
C=c1[nH]c(C)c(C(=O)NCc2cccs2)c1=Cc1sc(=O)[nH]c1O

>  <score_type>  (62) 
oracle

>  <origin>  (62) 
adg

>  <m_score__min__energy>  (62) 
-12.529999999999999

>  <m_primary>  (62) 
energy

$$$$
62:0
     RDKit          3D

 65 68  0  0  0  0  0  0  0  0999 V2000
   55.1470   29.3870   45.0350 O   0  0  0  0  0  0  0  0  0  0  0  0
   56.3200   28.9690   44.8430 C   0  0  0  0  0  0  0  0  0  0  0  0
   57.0080   29.3220   43.5510 C   0  0  0  0  0  0  0  0  0  0  0  0
   57.1710   30.7700   43.4280 N   0  0  0  0  0  0  0  0  0  0  0  0
   57.8810   31.5770   44.3870 C   0  0  0  0  0  0  0  0  0  0  0  0
   57.7460   32.9780   44.4190 C   0  0  0  0  0  0  0  0  0  0  0  0
   58.4080   33.7320   45.3940 C   0  0  0  0  0  0  0  0  0  0  0  0
   59.2060   33.0960   46.3590 C   0  0  0  0  0  0  0  0  0  0  0  0
   59.8840   33.8810   47.4080 C   0  0  0  0  0  0  0  0  0  0  0  0
   59.2940   34.8830   47.8930 O   0  0  0  0  0  0  0  0  0  0  0  0
   61.2060   33.5430   47.8660 N   0  0  0  0  0  0  0  0  0  0  0  0
   61.9090   34.3320   48.8590 C   0  0  0  0  0  0  0  0  0  0  0  0
   63.3350   33.7910   48.9040 C   0  0  0  0  0  0  0  0  0  0  0  0
   63.3910   32.6000   47.9470 C   0  0  0  0  0  0  0  0  0  0  0  0
   62.0410   32.5280   47.2470 C   0  0  0  0  0  0  0  0  0  0  0  0
   59.3830   31.7070   46.2980 C   0  0  0  0  0  0  0  0  0  0  0  0
   58.7210   30.9540   45.3230 C   0  0  0  0  0  0  0  0  0  0  0  0
   56.9440   28.1800   45.8690 N   0  0  0  0  0  0  0  0  0  0  0  0
   57.3980   26.8170   45.8020 C   0  0  0  0  0  0  0  0  0  0  0  0
   56.5850   25.8100   45.2450 C   0  0  0  0  0  0  0  0  0  0  0  0
   57.0440   24.4970   45.1540 C   0  0  0  0  0  0  0  0  0  0  0  0
   58.3110   24.1660   45.6300 C   0  0  0  0  0  0  0  0  0  0  0  0
   59.1010   25.1350   46.2550 C   0  0  0  0  0  0  0  0  0  0  0  0
   58.6560   26.4680   46.3530 C   0  0  0  0  0  0  0  0  0  0  0  0
   59.4940   27.4720   47.0590 C   0  0  0  0  0  0  0  0  0  0  0  0
   60.7500   27.3560   47.0300 O   0  0  0  0  0  0  0  0  0  0  0  0
   58.8910   28.5820   47.7470 N   0  0  0  0  0  0  0  0  0  0  0  0
   59.6380   29.5890   48.4510 C   0  0  0  0  0  0  0  0  0  0  0  0
   60.9010   29.5640   48.4540 O   0  0  0  0  0  0  0  0  0  0  0  0
   58.9450   30.6210   49.1700 N   0  0  0  0  0  0  0  0  0  0  0  0
   59.6410   31.5360   50.0810 C   0  0  0  0  0  0  0  0  0  0  0  0
   58.8780   32.8380   50.2670 C   0  0  0  0  0  0  0  0  0  0  0  0
   59.2760   33.3550   51.6470 C   0  0  0  0  0  0  0  0  0  0  0  0
   59.9200   32.1840   52.3890 C   0  0  0  0  0  0  0  0  0  0  0  0
   59.7590   30.9670   51.4890 C   0  0  0  0  0  0  0  0  0  0  0  0
   57.9986   28.8444   43.5278 H   0  0  0  0  0  0  0  0  0  0  0  0
   56.3906   28.9644   42.7137 H   0  0  0  0  0  0  0  0  0  0  0  0
   56.8610   31.2130   42.5330 H   0  0  0  0  0  0  0  0  0  0  0  0
   57.1157   33.4833   43.6723 H   0  0  0  0  0  0  0  0  0  0  0  0
   58.3031   34.8269   45.4048 H   0  0  0  0  0  0  0  0  0  0  0  0
   61.9131   35.3932   48.5693 H   0  0  0  0  0  0  0  0  0  0  0  0
   61.4231   34.2613   49.8433 H   0  0  0  0  0  0  0  0  0  0  0  0
   64.0442   34.5679   48.5823 H   0  0  0  0  0  0  0  0  0  0  0  0
   63.6079   33.4873   49.9254 H   0  0  0  0  0  0  0  0  0  0  0  0
   64.1925   32.7465   47.2079 H   0  0  0  0  0  0  0  0  0  0  0  0
   63.6009   31.6679   48.4920 H   0  0  0  0  0  0  0  0  0  0  0  0
   62.1575   32.7339   46.1727 H   0  0  0  0  0  0  0  0  0  0  0  0
   61.5931   31.5280   47.3442 H   0  0  0  0  0  0  0  0  0  0  0  0
   60.0454   31.2070   47.0200 H   0  0  0  0  0  0  0  0  0  0  0  0
   58.8600   29.8633   45.2894 H   0  0  0  0  0  0  0  0  0  0  0  0
   55.5790   26.0623   44.8786 H   0  0  0  0  0  0  0  0  0  0  0  0
   56.4054   23.7214   44.7060 H   0  0  0  0  0  0  0  0  0  0  0  0
   58.6903   23.1400   45.5137 H   0  0  0  0  0  0  0  0  0  0  0  0
   60.0786   24.8543   46.6739 H   0  0  0  0  0  0  0  0  0  0  0  0
   57.8470   28.6360   47.8000 H   0  0  0  0  0  0  0  0  0  0  0  0
   57.9020   30.6490   49.0980 H   0  0  0  0  0  0  0  0  0  0  0  0
   60.6253   31.6905   49.6149 H   0  0  0  0  0  0  0  0  0  0  0  0
   59.1607   33.5629   49.4894 H   0  0  0  0  0  0  0  0  0  0  0  0
   57.7913   32.6873   50.1872 H   0  0  0  0  0  0  0  0  0  0  0  0
   59.9945   34.1821   51.5487 H   0  0  0  0  0  0  0  0  0  0  0  0
   58.4003   33.7347   52.1937 H   0  0  0  0  0  0  0  0  0  0  0  0
   60.9862   32.3868   52.5681 H   0  0  0  0  0  0  0  0  0  0  0  0
   59.4461   32.0223   53.3684 H   0  0  0  0  0  0  0  0  0  0  0  0
   60.6361   30.3079   51.5682 H   0  0  0  0  0  0  0  0  0  0  0  0
   58.8848   30.3593   51.7655 H   0  0  0  0  0  0  0  0  0  0  0  0
  1  2  2  0
  2  3  1  0
  3  4  1  0
  4  5  1  0
  5  6  2  0
  6  7  1  0
  7  8  2  0
  8  9  1  0
  9 10  2  0
  9 11  1  0
 11 12  1  0
 12 13  1  0
 13 14  1  0
 14 15  1  0
  8 16  1  0
 16 17  2  0
  2 18  1  0
 18 19  1  0
 19 20  2  0
 20 21  1  0
 21 22  2  0
 22 23  1  0
 23 24  2  0
 24 25  1  0
 25 26  2  0
 25 27  1  0
 27 28  1  0
 28 29  2  0
 28 30  1  0
 30 31  1  0
 31 32  1  0
 32 33  1  0
 33 34  1  0
 34 35  1  0
 17  5  1  0
 24 19  1  0
 35 31  1  0
 15 11  1  0
  3 36  1  0
  3 37  1  0
  4 38  1  0
  6 39  1  0
  7 40  1  0
 12 41  1  0
 12 42  1  0
 13 43  1  0
 13 44  1  0
 14 45  1  0
 14 46  1  0
 15 47  1  0
 15 48  1  0
 16 49  1  0
 17 50  1  0
 20 51  1  0
 21 52  1  0
 22 53  1  0
 23 54  1  0
 27 55  1  0
 30 56  1  0
 31 57  1  0
 32 58  1  0
 32 59  1  0
 33 60  1  0
 33 61  1  0
 34 62  1  0
 34 63  1  0
 35 64  1  0
 35 65  1  0
M  CHG  1  18  -1
M  END
>  <UniqueID>  (63) 
57

>  <SMILES>  (63) 
O=C(CNc1ccc(C(=O)N2CCCC2)cc1)[N-]c1ccccc1C(=O)NC(=O)NC1CCCC1

>  <Energy>  (63) 
79.27201929998287

>  <Genealogy>  (63) 
O=C(CNc1ccc(C(=O)N2CCCC2)cc1)[N-]c1ccccc1C(=O)NC(=O)NC1CCCC1 (protonated)
O=C(CNc1ccc(C(=O)N2CCCC2)cc1)[N-]c1ccccc1C(=O)NC(=O)NC1CCCC1 (3D coordinates assigned)
O=C(CNc1ccc(C(=O)N2CCCC2)cc1)[N-]c1ccccc1C(=O)NC(=O)NC1CCCC1 (nonaromatic ring conformer: 79.27201929998287 kcal/mol)

>  <smiles>  (63) 
O=C(CNc1ccc(C(=O)N2CCCC2)cc1)Nc1ccccc1C(=O)NC(=O)NC1CCCC1

>  <score_type>  (63) 
oracle

>  <origin>  (63) 
adg

>  <m_score__min__energy>  (63) 
-11.74

>  <m_primary>  (63) 
energy

$$$$
63:0
     RDKit          3D

 64 67  0  0  0  0  0  0  0  0999 V2000
   63.0112   34.6277   47.0176 H   0  0  0  0  0  0  0  0  0  0  0  0
   62.7980   33.8640   47.7800 C   0  0  0  0  0  0  0  0  0  0  0  0
   62.2560   34.2910   49.0800 C   0  0  0  0  0  0  0  0  0  0  0  0
   62.9750   34.9880   49.8470 O   0  0  0  0  0  0  0  0  0  0  0  0
   60.9210   33.9400   49.4670 N   0  0  0  0  0  0  0  0  0  0  0  0
   59.7340   34.6350   48.9810 C   0  0  0  0  0  0  0  0  0  0  0  0
   58.9118   34.4977   49.6987 H   0  0  0  0  0  0  0  0  0  0  0  0
   59.9603   35.7062   48.8745 H   0  0  0  0  0  0  0  0  0  0  0  0
   59.3260   34.0800   47.6430 C   0  0  0  0  0  0  0  0  0  0  0  0
   58.6050   32.8760   47.5570 C   0  0  0  0  0  0  0  0  0  0  0  0
   58.3619   32.3161   48.4721 H   0  0  0  0  0  0  0  0  0  0  0  0
   58.1960   32.3880   46.3120 C   0  0  0  0  0  0  0  0  0  0  0  0
   57.6377   31.4423   46.2495 H   0  0  0  0  0  0  0  0  0  0  0  0
   58.4950   33.0990   45.1480 C   0  0  0  0  0  0  0  0  0  0  0  0
   58.1738   32.7119   44.1697 H   0  0  0  0  0  0  0  0  0  0  0  0
   59.2020   34.3020   45.2250 C   0  0  0  0  0  0  0  0  0  0  0  0
   59.4361   34.8615   44.3073 H   0  0  0  0  0  0  0  0  0  0  0  0
   59.6120   34.7950   46.4670 C   0  0  0  0  0  0  0  0  0  0  0  0
   60.1608   35.7466   46.5244 H   0  0  0  0  0  0  0  0  0  0  0  0
   63.0410   32.5780   47.4920 C   0  0  0  0  0  0  0  0  0  0  0  0
   63.8157   32.3503   46.7449 H   0  0  0  0  0  0  0  0  0  0  0  0
   62.3230   31.4440   48.1250 C   0  0  0  0  0  0  0  0  0  0  0  0
   62.5380   31.1810   49.4880 C   0  0  0  0  0  0  0  0  0  0  0  0
   63.2783   31.7711   50.0481 H   0  0  0  0  0  0  0  0  0  0  0  0
   61.8180   30.1750   50.1370 C   0  0  0  0  0  0  0  0  0  0  0  0
   62.0035   29.9671   51.2011 H   0  0  0  0  0  0  0  0  0  0  0  0
   60.8640   29.4330   49.4390 C   0  0  0  0  0  0  0  0  0  0  0  0
   60.2863   28.6560   49.9611 H   0  0  0  0  0  0  0  0  0  0  0  0
   60.6380   29.6720   48.0780 C   0  0  0  0  0  0  0  0  0  0  0  0
   59.5990   28.9520   47.3940 N   0  0  0  0  0  0  0  0  0  0  0  0
   58.7440   29.4740   47.0930 H   0  0  0  0  0  0  0  0  0  0  0  0
   59.6890   27.5590   47.0690 C   0  0  0  0  0  0  0  0  0  0  0  0
   60.3550   26.7820   47.8060 O   0  0  0  0  0  0  0  0  0  0  0  0
   58.9530   27.0340   45.8690 C   0  0  0  0  0  0  0  0  0  0  0  0
   59.6415   27.0208   45.0112 H   0  0  0  0  0  0  0  0  0  0  0  0
   58.5920   26.0243   46.1145 H   0  0  0  0  0  0  0  0  0  0  0  0
   57.7580   27.8710   45.5140 C   0  0  0  0  0  0  0  0  0  0  0  0
   57.8670   29.1390   45.0770 N   0  0  0  0  0  0  0  0  0  0  0  0
   56.5880   29.5310   44.9250 C   0  0  0  0  0  0  0  0  0  0  0  0
   56.2740   30.6800   44.5200 O   0  0  0  0  0  0  0  0  0  0  0  0
   55.6720   28.5970   45.2430 N   0  0  0  0  0  0  0  0  0  0  0  0
   56.4130   27.5380   45.6220 C   0  0  0  0  0  0  0  0  0  0  0  0
   55.8030   26.2730   46.0780 C   0  0  0  0  0  0  0  0  0  0  0  0
   56.5430   25.3930   46.5980 O   0  0  0  0  0  0  0  0  0  0  0  0
   54.3990   26.0310   45.9500 N   0  0  0  0  0  0  0  0  0  0  0  0
   53.8760   24.7880   45.3880 C   0  0  0  0  0  0  0  0  0  0  0  0
   52.7897   24.7466   45.5563 H   0  0  0  0  0  0  0  0  0  0  0  0
   54.1012   24.7691   44.3115 H   0  0  0  0  0  0  0  0  0  0  0  0
   54.5310   23.5680   46.0440 C   0  0  0  0  0  0  0  0  0  0  0  0
   55.0624   23.8933   46.9505 H   0  0  0  0  0  0  0  0  0  0  0  0
   53.7394   22.8445   46.2886 H   0  0  0  0  0  0  0  0  0  0  0  0
   55.5120   22.8950   45.1180 C   0  0  0  0  0  0  0  0  0  0  0  0
   56.3690   21.8920   45.5990 C   0  0  0  0  0  0  0  0  0  0  0  0
   56.3064   21.5760   46.6508 H   0  0  0  0  0  0  0  0  0  0  0  0
   57.3020   21.2930   44.7460 C   0  0  0  0  0  0  0  0  0  0  0  0
   57.9725   20.5092   45.1284 H   0  0  0  0  0  0  0  0  0  0  0  0
   57.3830   21.6900   43.4070 C   0  0  0  0  0  0  0  0  0  0  0  0
   58.1140   21.2158   42.7357 H   0  0  0  0  0  0  0  0  0  0  0  0
   56.5350   22.6890   42.9230 C   0  0  0  0  0  0  0  0  0  0  0  0
   56.5990   23.0004   41.8700 H   0  0  0  0  0  0  0  0  0  0  0  0
   55.6050   23.2940   43.7740 C   0  0  0  0  0  0  0  0  0  0  0  0
   54.9440   24.0850   43.3900 H   0  0  0  0  0  0  0  0  0  0  0  0
   61.3690   30.6800   47.4260 C   0  0  0  0  0  0  0  0  0  0  0  0
   61.1938   30.8742   46.3575 H   0  0  0  0  0  0  0  0  0  0  0  0
  1  2  1  0
  2  3  1  0
  3  4  2  0
  3  5  1  0
  5  6  1  0
  6  7  1  0
  6  8  1  0
  6  9  1  0
  9 10  2  0
 10 11  1  0
 10 12  1  0
 12 13  1  0
 12 14  2  0
 14 15  1  0
 14 16  1  0
 16 17  1  0
 16 18  2  0
 18 19  1  0
  2 20  2  0
 20 21  1  0
 20 22  1  0
 22 23  2  0
 23 24  1  0
 23 25  1  0
 25 26  1  0
 25 27  2  0
 27 28  1  0
 27 29  1  0
 29 30  1  0
 30 31  1  0
 30 32  1  0
 32 33  2  0
 32 34  1  0
 34 35  1  0
 34 36  1  0
 34 37  1  0
 37 38  1  0
 38 39  1  0
 39 40  2  0
 39 41  1  0
 41 42  1  0
 42 43  1  0
 43 44  2  0
 43 45  1  0
 45 46  1  0
 46 47  1  0
 46 48  1  0
 46 49  1  0
 49 50  1  0
 49 51  1  0
 49 52  1  0
 52 53  2  0
 53 54  1  0
 53 55  1  0
 55 56  1  0
 55 57  2  0
 57 58  1  0
 57 59  1  0
 59 60  1  0
 59 61  2  0
 61 62  1  0
 29 63  2  0
 63 64  1  0
 18  9  1  0
 63 22  1  0
 42 37  2  0
 61 52  1  0
M  CHG  4   5  -1  38  -1  41  -1  45  -1
M  END
>  <UniqueID>  (64) 
58

>  <SMILES>  (64) 
O=C(/C=C/c1cccc(NC(=O)Cc2[n-]c(=O)[n-]c2C(=O)[N-]CCc2ccccc2)c1)[N-]Cc1ccccc1

>  <Energy>  (64) 
89.0672559729263

>  <Genealogy>  (64) 
O=C(C=Cc1cccc(NC(=O)Cc2[n-]c(=O)[n-]c2C(=O)[N-]CCc2ccccc2)c1)[N-]Cc1ccccc1 (protonated)
O=C(/C=C/c1cccc(NC(=O)Cc2[n-]c(=O)[n-]c2C(=O)[N-]CCc2ccccc2)c1)[N-]Cc1ccccc1 (cis-trans isomerization)
O=C(/C=C/c1cccc(NC(=O)Cc2[n-]c(=O)[n-]c2C(=O)[N-]CCc2ccccc2)c1)[N-]Cc1ccccc1 (3D coordinates assigned)
O=C(/C=C/c1cccc(NC(=O)Cc2[n-]c(=O)[n-]c2C(=O)[N-]CCc2ccccc2)c1)[N-]Cc1ccccc1 (optimized conformer: 89.0672559729263 kcal/mol)

>  <smiles>  (64) 
O=C(C=Cc1cccc(NC(=O)Cc2[nH]c(=O)[nH]c2C(=O)NCCc2ccccc2)c1)NCc1ccccc1

>  <score_type>  (64) 
oracle

>  <origin>  (64) 
adg

>  <m_score__min__energy>  (64) 
-16.539999999999999

>  <m_primary>  (64) 
energy

$$$$
64:0
     RDKit          3D

 51 53  0  0  0  0  0  0  0  0999 V2000
   60.7750   33.8000   49.4450 C   0  0  0  0  0  0  0  0  0  0  0  0
   60.9910   34.2060   47.9910 C   0  0  0  0  0  0  0  0  0  0  0  0
   59.6990   34.1640   47.2160 C   0  0  0  0  0  0  0  0  0  0  0  0
   58.9140   35.1480   47.3200 O   0  0  0  0  0  0  0  0  0  0  0  0
   59.3560   33.0770   46.3260 N   0  0  0  0  0  0  0  0  0  0  0  0
   60.0150   31.7630   46.4050 C   0  0  0  0  0  0  0  0  0  0  0  0
   59.0060   30.6350   46.1540 C   0  0  0  0  0  0  0  0  0  0  0  0
   58.1540   30.9150   44.9890 N   0  0  0  0  0  0  0  0  0  0  0  0
   57.0640   30.0290   44.6780 C   0  0  0  0  0  0  0  0  0  0  0  0
   55.9070   30.5060   44.5150 O   0  0  0  0  0  0  0  0  0  0  0  0
   57.2720   28.5710   44.5490 C   0  0  0  0  0  0  0  0  0  0  0  0
   57.7580   28.0280   43.3480 C   0  0  0  0  0  0  0  0  0  0  0  0
   57.9710   26.6520   43.2280 C   0  0  0  0  0  0  0  0  0  0  0  0
   57.7290   25.8000   44.3190 C   0  0  0  0  0  0  0  0  0  0  0  0
   57.9180   24.3810   44.2200 N   0  0  0  0  0  0  0  0  0  0  0  0
   56.8810   23.3950   44.1350 C   0  0  0  0  0  0  0  0  0  0  0  0
   57.0790   22.3720   43.4290 O   0  0  0  0  0  0  0  0  0  0  0  0
   55.5690   23.5930   44.7870 C   0  0  0  0  0  0  0  0  0  0  0  0
   54.4030   23.6280   44.1180 N   0  0  0  0  0  0  0  0  0  0  0  0
   53.4760   23.7980   45.0850 C   0  0  0  0  0  0  0  0  0  0  0  0
   52.0220   23.9570   44.7960 C   0  0  0  0  0  0  0  0  0  0  0  0
   53.9920   23.8880   46.3300 N   0  0  0  0  0  0  0  0  0  0  0  0
   55.3160   23.7490   46.1370 C   0  0  0  0  0  0  0  0  0  0  0  0
   56.3170   23.7750   47.2480 C   0  0  0  0  0  0  0  0  0  0  0  0
   57.2330   26.3360   45.5110 C   0  0  0  0  0  0  0  0  0  0  0  0
   57.0180   27.7130   45.6320 C   0  0  0  0  0  0  0  0  0  0  0  0
   58.3000   32.1790   44.2620 C   0  0  0  0  0  0  0  0  0  0  0  0
   58.3810   33.3410   45.2530 C   0  0  0  0  0  0  0  0  0  0  0  0
   61.1875   34.5753   50.1073 H   0  0  0  0  0  0  0  0  0  0  0  0
   59.6979   33.6877   49.6382 H   0  0  0  0  0  0  0  0  0  0  0  0
   61.2838   32.8441   49.6382 H   0  0  0  0  0  0  0  0  0  0  0  0
   61.3949   35.2287   47.9602 H   0  0  0  0  0  0  0  0  0  0  0  0
   61.6957   33.4969   47.5322 H   0  0  0  0  0  0  0  0  0  0  0  0
   60.8102   31.7116   45.6468 H   0  0  0  0  0  0  0  0  0  0  0  0
   60.4398   31.6402   47.4122 H   0  0  0  0  0  0  0  0  0  0  0  0
   59.5553   29.6986   45.9768 H   0  0  0  0  0  0  0  0  0  0  0  0
   58.3586   30.5515   47.0394 H   0  0  0  0  0  0  0  0  0  0  0  0
   57.9723   28.6903   42.4963 H   0  0  0  0  0  0  0  0  0  0  0  0
   58.3295   26.2342   42.2757 H   0  0  0  0  0  0  0  0  0  0  0  0
   51.4646   24.0180   45.7424 H   0  0  0  0  0  0  0  0  0  0  0  0
   51.8620   24.8780   44.2162 H   0  0  0  0  0  0  0  0  0  0  0  0
   51.6667   23.0924   44.2162 H   0  0  0  0  0  0  0  0  0  0  0  0
   55.7923   23.7614   48.2147 H   0  0  0  0  0  0  0  0  0  0  0  0
   56.9708   22.8935   47.1732 H   0  0  0  0  0  0  0  0  0  0  0  0
   56.9241   24.6892   47.1732 H   0  0  0  0  0  0  0  0  0  0  0  0
   57.0105   25.6712   46.3587 H   0  0  0  0  0  0  0  0  0  0  0  0
   56.6476   28.1267   46.5815 H   0  0  0  0  0  0  0  0  0  0  0  0
   59.2193   32.1490   43.6586 H   0  0  0  0  0  0  0  0  0  0  0  0
   57.4295   32.3224   43.6050 H   0  0  0  0  0  0  0  0  0  0  0  0
   58.6837   34.2499   44.7123 H   0  0  0  0  0  0  0  0  0  0  0  0
   57.3903   33.4673   45.7141 H   0  0  0  0  0  0  0  0  0  0  0  0
  1  2  1  0
  2  3  1  0
  3  4  2  0
  3  5  1  0
  5  6  1  0
  6  7  1  0
  7  8  1  0
  8  9  1  0
  9 10  2  0
  9 11  1  0
 11 12  2  0
 12 13  1  0
 13 14  2  0
 14 15  1  0
 15 16  1  0
 16 17  2  0
 16 18  1  0
 18 19  1  0
 19 20  2  0
 20 21  1  0
 20 22  1  0
 22 23  1  0
 23 24  1  0
 14 25  1  0
 25 26  2  0
  8 27  1  0
 27 28  1  0
 28  5  1  0
 26 11  1  0
 23 18  2  0
  1 29  1  0
  1 30  1  0
  1 31  1  0
  2 32  1  0
  2 33  1  0
  6 34  1  0
  6 35  1  0
  7 36  1  0
  7 37  1  0
 12 38  1  0
 13 39  1  0
 21 40  1  0
 21 41  1  0
 21 42  1  0
 24 43  1  0
 24 44  1  0
 24 45  1  0
 25 46  1  0
 26 47  1  0
 27 48  1  0
 27 49  1  0
 28 50  1  0
 28 51  1  0
M  CHG  2  15  -1  22  -1
M  END
>  <UniqueID>  (65) 
59

>  <SMILES>  (65) 
CCC(=O)N1CCN(C(=O)c2ccc([N-]C(=O)c3nc(C)[n-]c3C)cc2)CC1

>  <Energy>  (65) 
86.056409289866

>  <Genealogy>  (65) 
CCC(=O)N1CCN(C(=O)c2ccc([N-]C(=O)c3nc(C)[n-]c3C)cc2)CC1 (protonated)
CCC(=O)N1CCN(C(=O)c2ccc([N-]C(=O)c3nc(C)[n-]c3C)cc2)CC1 (3D coordinates assigned)
CCC(=O)N1CCN(C(=O)c2ccc([N-]C(=O)c3nc(C)[n-]c3C)cc2)CC1 (nonaromatic ring conformer: 86.056409289866 kcal/mol)

>  <smiles>  (65) 
CCC(=O)N1CCN(C(=O)c2ccc(NC(=O)c3nc(C)[nH]c3C)cc2)CC1

>  <score_type>  (65) 
oracle

>  <origin>  (65) 
adg

>  <m_score__min__energy>  (65) 
-10.949999999999999

>  <m_primary>  (65) 
energy

$$$$
65:0
     RDKit          3D

 53 55  0  0  0  0  0  0  0  0999 V2000
   58.1730   29.5940   49.2290 O   0  0  0  0  0  0  0  0  0  0  0  0
   59.3360   29.8840   48.8410 C   0  0  0  0  0  0  0  0  0  0  0  0
   60.3320   28.7690   48.6490 C   0  0  0  0  0  0  0  0  0  0  0  0
   59.9960   27.8950   47.5090 N   0  0  0  0  0  0  0  0  0  0  0  0
   59.5750   26.5050   47.7780 C   0  0  0  0  0  0  0  0  0  0  0  0
   58.5290   26.0660   46.7870 C   0  0  0  0  0  0  0  0  0  0  0  0
   58.8140   25.0640   45.8440 C   0  0  0  0  0  0  0  0  0  0  0  0
   57.8220   24.6170   44.9670 C   0  0  0  0  0  0  0  0  0  0  0  0
   56.5380   25.1660   45.0230 C   0  0  0  0  0  0  0  0  0  0  0  0
   56.2450   26.1630   45.9580 C   0  0  0  0  0  0  0  0  0  0  0  0
   54.9720   26.7110   46.0120 O   0  0  0  0  0  0  0  0  0  0  0  0
   57.2350   26.6090   46.8410 C   0  0  0  0  0  0  0  0  0  0  0  0
   60.1050   28.4150   46.1580 C   0  0  0  0  0  0  0  0  0  0  0  0
   59.9900   27.6260   45.1790 O   0  0  0  0  0  0  0  0  0  0  0  0
   60.3970   29.8420   45.8830 C   0  0  0  0  0  0  0  0  0  0  0  0
   59.4630   30.7690   45.6190 C   0  0  0  0  0  0  0  0  0  0  0  0
   58.2380   30.5240   44.8260 C   0  0  0  0  0  0  0  0  0  0  0  0
   57.2680   29.6340   45.3150 C   0  0  0  0  0  0  0  0  0  0  0  0
   56.1000   29.3890   44.5800 C   0  0  0  0  0  0  0  0  0  0  0  0
   55.9100   30.0120   43.3420 C   0  0  0  0  0  0  0  0  0  0  0  0
   56.8870   30.8720   42.8320 C   0  0  0  0  0  0  0  0  0  0  0  0
   58.0520   31.1240   43.5640 C   0  0  0  0  0  0  0  0  0  0  0  0
   59.7080   31.2590   48.6490 N   0  0  0  0  0  0  0  0  0  0  0  0
   58.7810   32.3710   48.8610 C   0  0  0  0  0  0  0  0  0  0  0  0
   58.6680   33.1790   47.5950 C   0  0  0  0  0  0  0  0  0  0  0  0
   57.4780   33.1630   46.8480 C   0  0  0  0  0  0  0  0  0  0  0  0
   57.3920   33.8710   45.6440 C   0  0  0  0  0  0  0  0  0  0  0  0
   58.4980   34.5850   45.1700 C   0  0  0  0  0  0  0  0  0  0  0  0
   59.6890   34.5940   45.9000 C   0  0  0  0  0  0  0  0  0  0  0  0
   59.7790   33.8860   47.1050 C   0  0  0  0  0  0  0  0  0  0  0  0
   61.3244   29.2100   48.4737 H   0  0  0  0  0  0  0  0  0  0  0  0
   60.3166   28.1498   49.5580 H   0  0  0  0  0  0  0  0  0  0  0  0
   60.4486   25.8412   47.6993 H   0  0  0  0  0  0  0  0  0  0  0  0
   59.1477   26.4538   48.7903 H   0  0  0  0  0  0  0  0  0  0  0  0
   59.8233   24.6292   45.7958 H   0  0  0  0  0  0  0  0  0  0  0  0
   58.0521   23.8320   44.2316 H   0  0  0  0  0  0  0  0  0  0  0  0
   55.7583   24.8137   44.3316 H   0  0  0  0  0  0  0  0  0  0  0  0
   56.9985   27.3882   47.5805 H   0  0  0  0  0  0  0  0  0  0  0  0
   61.4492   30.1625   45.8962 H   0  0  0  0  0  0  0  0  0  0  0  0
   59.6190   31.7813   46.0201 H   0  0  0  0  0  0  0  0  0  0  0  0
   57.4255   29.1272   46.2785 H   0  0  0  0  0  0  0  0  0  0  0  0
   55.3332   28.7072   44.9764 H   0  0  0  0  0  0  0  0  0  0  0  0
   54.9901   29.8248   42.7687 H   0  0  0  0  0  0  0  0  0  0  0  0
   56.7393   31.3515   41.8531 H   0  0  0  0  0  0  0  0  0  0  0  0
   58.8243   31.7915   43.1542 H   0  0  0  0  0  0  0  0  0  0  0  0
   60.6310   31.4860   48.2240 H   0  0  0  0  0  0  0  0  0  0  0  0
   57.7911   31.9762   49.1336 H   0  0  0  0  0  0  0  0  0  0  0  0
   59.1565   33.0117   49.6725 H   0  0  0  0  0  0  0  0  0  0  0  0
   56.6108   32.5918   47.2110 H   0  0  0  0  0  0  0  0  0  0  0  0
   56.4539   33.8662   45.0696 H   0  0  0  0  0  0  0  0  0  0  0  0
   58.4297   35.1393   44.2223 H   0  0  0  0  0  0  0  0  0  0  0  0
   60.5571   35.1578   45.5279 H   0  0  0  0  0  0  0  0  0  0  0  0
   60.7229   33.8834   47.6699 H   0  0  0  0  0  0  0  0  0  0  0  0
  1  2  2  0
  2  3  1  0
  3  4  1  0
  4  5  1  0
  5  6  1  0
  6  7  2  0
  7  8  1  0
  8  9  2  0
  9 10  1  0
 10 11  1  0
 10 12  2  0
  4 13  1  0
 13 14  2  0
 13 15  1  0
 15 16  2  3
 16 17  1  0
 17 18  2  0
 18 19  1  0
 19 20  2  0
 20 21  1  0
 21 22  2  0
  2 23  1  0
 23 24  1  0
 24 25  1  0
 25 26  2  0
 26 27  1  0
 27 28  2  0
 28 29  1  0
 29 30  2  0
 12  6  1  0
 22 17  1  0
 30 25  1  0
  3 31  1  0
  3 32  1  0
  5 33  1  0
  5 34  1  0
  7 35  1  0
  8 36  1  0
  9 37  1  0
 12 38  1  0
 15 39  1  0
 16 40  1  0
 18 41  1  0
 19 42  1  0
 20 43  1  0
 21 44  1  0
 22 45  1  0
 23 46  1  0
 24 47  1  0
 24 48  1  0
 26 49  1  0
 27 50  1  0
 28 51  1  0
 29 52  1  0
 30 53  1  0
M  CHG  1  11  -1
M  END
>  <UniqueID>  (66) 
60

>  <SMILES>  (66) 
O=C(CN(Cc1cccc([O-])c1)C(=O)C=Cc1ccccc1)NCc1ccccc1

>  <Energy>  (66) 
55.02558623231816

>  <Genealogy>  (66) 
O=C(CN(Cc1cccc([O-])c1)C(=O)C=Cc1ccccc1)NCc1ccccc1 (protonated)
O=C(CN(Cc1cccc([O-])c1)C(=O)C=Cc1ccccc1)NCc1ccccc1 (3D coordinates assigned)
O=C(CN(Cc1cccc([O-])c1)C(=O)C=Cc1ccccc1)NCc1ccccc1 (optimized conformer: 55.02558623231816 kcal/mol)

>  <smiles>  (66) 
O=C(CN(Cc1cccc(O)c1)C(=O)C=Cc1ccccc1)NCc1ccccc1

>  <score_type>  (66) 
oracle

>  <origin>  (66) 
adg

>  <m_score__min__energy>  (66) 
-13.92

>  <m_primary>  (66) 
energy

$$$$
66:0
     RDKit          3D

 66 70  0  0  0  0  0  0  0  0999 V2000
   58.2964   20.7461   46.4606 H   0  0  0  0  0  0  0  0  0  0  0  0
   57.8440   21.5760   45.8980 C   0  0  0  0  0  0  0  0  0  0  0  0
   57.4370   22.6980   46.5500 N   0  0  0  0  0  0  0  0  0  0  0  0
   56.8790   23.7540   45.8920 C   0  0  0  0  0  0  0  0  0  0  0  0
   56.5090   24.8310   46.5270 N   0  0  0  0  0  0  0  0  0  0  0  0
   56.3040   26.1380   45.9650 C   0  0  0  0  0  0  0  0  0  0  0  0
   55.1570   26.6520   46.0380 O   0  0  0  0  0  0  0  0  0  0  0  0
   57.3500   26.8740   45.3110 N   0  0  0  0  0  0  0  0  0  0  0  0
   57.4770   28.3000   45.2580 C   0  0  0  0  0  0  0  0  0  0  0  0
   56.9390   28.9860   44.1620 C   0  0  0  0  0  0  0  0  0  0  0  0
   56.5434   28.4243   43.3029 H   0  0  0  0  0  0  0  0  0  0  0  0
   56.9040   30.3830   44.1580 C   0  0  0  0  0  0  0  0  0  0  0  0
   56.4834   30.9183   43.2940 H   0  0  0  0  0  0  0  0  0  0  0  0
   57.4020   31.1030   45.2490 C   0  0  0  0  0  0  0  0  0  0  0  0
   57.2450   32.4950   45.2740 O   0  0  0  0  0  0  0  0  0  0  0  0
   58.1560   33.3910   45.8570 C   0  0  0  0  0  0  0  0  0  0  0  0
   58.7530   34.3610   45.0480 C   0  0  0  0  0  0  0  0  0  0  0  0
   58.5382   34.3910   43.9696 H   0  0  0  0  0  0  0  0  0  0  0  0
   59.6240   35.2920   45.6170 C   0  0  0  0  0  0  0  0  0  0  0  0
   60.0991   36.0560   44.9841 H   0  0  0  0  0  0  0  0  0  0  0  0
   59.8870   35.2580   46.9490 N   0  0  0  0  0  0  0  0  0  0  0  0
   59.3200   34.3280   47.7680 C   0  0  0  0  0  0  0  0  0  0  0  0
   59.5970   34.2990   49.0370 N   0  0  0  0  0  0  0  0  0  0  0  0
   59.1890   33.2590   49.9310 C   0  0  0  0  0  0  0  0  0  0  0  0
   58.8990   33.4800   51.5700 S   0  0  0  0  0  0  0  0  0  0  0  0
   58.6730   31.8340   51.8620 C   0  0  0  0  0  0  0  0  0  0  0  0
   58.4042   31.3787   52.8266 H   0  0  0  0  0  0  0  0  0  0  0  0
   58.8880   31.1500   50.6600 C   0  0  0  0  0  0  0  0  0  0  0  0
   58.8830   29.7540   50.5220 O   0  0  0  0  0  0  0  0  0  0  0  0
   59.3370   29.0460   49.3680 C   0  0  0  0  0  0  0  0  0  0  0  0
   59.1964   27.9681   49.5362 H   0  0  0  0  0  0  0  0  0  0  0  0
   58.7518   29.3974   48.5054 H   0  0  0  0  0  0  0  0  0  0  0  0
   60.8200   29.3100   49.0690 C   0  0  0  0  0  0  0  0  0  0  0  0
   61.2677   29.8182   49.9358 H   0  0  0  0  0  0  0  0  0  0  0  0
   61.2956   28.3375   48.8739 H   0  0  0  0  0  0  0  0  0  0  0  0
   61.0320   30.1830   47.8270 C   0  0  0  0  0  0  0  0  0  0  0  0
   61.7769   29.7115   47.1691 H   0  0  0  0  0  0  0  0  0  0  0  0
   60.0812   30.2887   47.2840 H   0  0  0  0  0  0  0  0  0  0  0  0
   61.5150   31.5160   48.2440 N   0  0  0  0  0  0  0  0  0  0  0  0
   62.4460   31.4340   49.3820 C   0  0  0  0  0  0  0  0  0  0  0  0
   61.9729   30.8757   50.2032 H   0  0  0  0  0  0  0  0  0  0  0  0
   63.3643   30.9163   49.0678 H   0  0  0  0  0  0  0  0  0  0  0  0
   62.7970   32.8570   49.8630 C   0  0  0  0  0  0  0  0  0  0  0  0
   62.2773   33.0449   50.8141 H   0  0  0  0  0  0  0  0  0  0  0  0
   63.8897   32.9079   49.9787 H   0  0  0  0  0  0  0  0  0  0  0  0
   62.4180   33.8600   48.9330 O   0  0  0  0  0  0  0  0  0  0  0  0
   62.8620   33.5150   47.6350 C   0  0  0  0  0  0  0  0  0  0  0  0
   62.6453   34.3461   46.9477 H   0  0  0  0  0  0  0  0  0  0  0  0
   63.9439   33.3204   47.6742 H   0  0  0  0  0  0  0  0  0  0  0  0
   62.1510   32.2430   47.1290 C   0  0  0  0  0  0  0  0  0  0  0  0
   61.3796   32.5281   46.3985 H   0  0  0  0  0  0  0  0  0  0  0  0
   62.8985   31.5851   46.6617 H   0  0  0  0  0  0  0  0  0  0  0  0
   59.1520   31.9520   49.5940 N   0  0  0  0  0  0  0  0  0  0  0  0
   59.3610   31.5890   48.6360 H   0  0  0  0  0  0  0  0  0  0  0  0
   58.4450   33.3770   47.2340 C   0  0  0  0  0  0  0  0  0  0  0  0
   57.9847   32.6213   47.8875 H   0  0  0  0  0  0  0  0  0  0  0  0
   58.0430   30.4210   46.2960 C   0  0  0  0  0  0  0  0  0  0  0  0
   58.5152   30.9864   47.1129 H   0  0  0  0  0  0  0  0  0  0  0  0
   58.0810   29.0240   46.3000 C   0  0  0  0  0  0  0  0  0  0  0  0
   58.5843   28.4905   47.1198 H   0  0  0  0  0  0  0  0  0  0  0  0
   56.6840   23.6760   44.5060 C   0  0  0  0  0  0  0  0  0  0  0  0
   56.2084   24.5080   43.9660 H   0  0  0  0  0  0  0  0  0  0  0  0
   57.0980   22.5340   43.8150 C   0  0  0  0  0  0  0  0  0  0  0  0
   56.9601   22.4677   42.7257 H   0  0  0  0  0  0  0  0  0  0  0  0
   57.6870   21.4780   44.5120 C   0  0  0  0  0  0  0  0  0  0  0  0
   58.0242   20.5781   43.9767 H   0  0  0  0  0  0  0  0  0  0  0  0
  1  2  1  0
  2  3  1  0
  3  4  1  0
  4  5  2  0
  5  6  1  0
  6  7  2  0
  6  8  1  0
  8  9  1  0
  9 10  2  0
 10 11  1  0
 10 12  1  0
 12 13  1  0
 12 14  2  0
 14 15  1  0
 15 16  1  0
 16 17  1  0
 17 18  1  0
 17 19  2  0
 19 20  1  0
 19 21  1  0
 21 22  1  0
 22 23  2  0
 23 24  1  0
 24 25  1  0
 25 26  1  0
 26 27  1  0
 26 28  2  0
 28 29  1  0
 29 30  1  0
 30 31  1  0
 30 32  1  0
 30 33  1  0
 33 34  1  0
 33 35  1  0
 33 36  1  0
 36 37  1  0
 36 38  1  0
 36 39  1  0
 39 40  1  0
 40 41  1  0
 40 42  1  0
 40 43  1  0
 43 44  1  0
 43 45  1  0
 43 46  1  0
 46 47  1  0
 47 48  1  0
 47 49  1  0
 47 50  1  0
 50 51  1  0
 50 52  1  0
 28 53  1  0
 53 54  1  0
 22 55  1  0
 55 56  1  0
 14 57  1  0
 57 58  1  0
 57 59  2  0
 59 60  1  0
  4 61  1  0
 61 62  1  0
 61 63  2  0
 63 64  1  0
 63 65  1  0
 65 66  1  0
 65  2  2  0
 59  9  1  0
 55 16  2  0
 53 24  2  0
 50 39  1  0
M  CHG  4   3  -1   8  -1  21  -1  53   1
M  END
>  <UniqueID>  (67) 
61

>  <SMILES>  (67) 
O=C(/N=c1/cccc[n-]1)[N-]c1ccc(Oc2cc[n-]/c(=N\c3[nH+]c(OCCCN4CCOCC4)cs3)c2)cc1

>  <Energy>  (67) 
129.78913273258794

>  <Genealogy>  (67) 
O=C(N=c1cccc[n-]1)[N-]c1ccc(Oc2cc[n-]c(=Nc3[nH+]c(OCCCN4CCOCC4)cs3)c2)cc1 (protonated)
O=C(/N=c1/cccc[n-]1)[N-]c1ccc(Oc2cc[n-]/c(=N\c3[nH+]c(OCCCN4CCOCC4)cs3)c2)cc1 (cis-trans isomerization)
O=C(/N=c1/cccc[n-]1)[N-]c1ccc(Oc2cc[n-]/c(=N\c3[nH+]c(OCCCN4CCOCC4)cs3)c2)cc1 (3D coordinates assigned)
O=C(/N=c1/cccc[n-]1)[N-]c1ccc(Oc2cc[n-]/c(=N\c3[nH+]c(OCCCN4CCOCC4)cs3)c2)cc1 (nonaromatic ring conformer: 129.78913273258794 kcal/mol)

>  <smiles>  (67) 
O=C(N=c1cccc[nH]1)Nc1ccc(Oc2cc[nH]c(=Nc3nc(OCCCN4CCOCC4)cs3)c2)cc1

>  <score_type>  (67) 
oracle

>  <origin>  (67) 
adg

>  <m_score__min__energy>  (67) 
-10.93

>  <m_primary>  (67) 
energy

$$$$
67:0
     RDKit          3D

 47 50  0  0  0  0  0  0  0  0999 V2000
   55.7470   30.0520   43.3780 O   0  0  0  0  0  0  0  0  0  0  0  0
   56.3040   29.7980   44.4810 C   0  0  0  0  0  0  0  0  0  0  0  0
   55.8960   28.6560   45.2470 N   0  0  0  0  0  0  0  0  0  0  0  0
   56.6880   27.4960   45.5430 C   0  0  0  0  0  0  0  0  0  0  0  0
   57.9520   27.3750   44.9500 C   0  0  0  0  0  0  0  0  0  0  0  0
   58.7450   26.2520   45.1960 C   0  0  0  0  0  0  0  0  0  0  0  0
   58.2750   25.2290   46.0240 C   0  0  0  0  0  0  0  0  0  0  0  0
   57.0040   25.3270   46.6010 C   0  0  0  0  0  0  0  0  0  0  0  0
   56.4040   24.0300   47.6180 Cl  0  0  0  0  0  0  0  0  0  0  0  0
   56.2080   26.4510   46.3570 C   0  0  0  0  0  0  0  0  0  0  0  0
   57.3450   30.7090   45.0080 C   0  0  0  0  0  0  0  0  0  0  0  0
   58.4310   30.1990   45.7630 C   0  0  0  0  0  0  0  0  0  0  0  0
   59.4200   31.0590   46.2670 C   0  0  0  0  0  0  0  0  0  0  0  0
   59.3070   32.4250   46.0070 C   0  0  0  0  0  0  0  0  0  0  0  0
   58.2670   32.9300   45.2800 C   0  0  0  0  0  0  0  0  0  0  0  0
   57.2690   32.1000   44.7670 C   0  0  0  0  0  0  0  0  0  0  0  0
   58.3890   34.4090   45.1460 C   0  0  0  0  0  0  0  0  0  0  0  0
   59.7070   34.7300   45.8950 C   0  0  0  0  0  0  0  0  0  0  0  0
   60.1880   33.4540   46.4160 N   0  0  0  0  0  0  0  0  0  0  0  0
   61.7030   33.2390   47.2280 S   0  0  0  0  0  0  0  0  0  0  0  0
   62.1860   31.8310   47.0150 O   0  0  0  0  0  0  0  0  0  0  0  0
   62.7170   34.1910   46.6590 O   0  0  0  0  0  0  0  0  0  0  0  0
   61.4840   33.5310   48.9740 C   0  0  0  0  0  0  0  0  0  0  0  0
   60.4220   32.6240   49.5280 C   0  0  0  0  0  0  0  0  0  0  0  0
   60.5620   31.2290   49.4310 C   0  0  0  0  0  0  0  0  0  0  0  0
   59.5590   30.3850   49.9180 C   0  0  0  0  0  0  0  0  0  0  0  0
   58.4070   30.9270   50.4960 C   0  0  0  0  0  0  0  0  0  0  0  0
   58.2560   32.3140   50.5840 C   0  0  0  0  0  0  0  0  0  0  0  0
   59.2570   33.1600   50.0980 C   0  0  0  0  0  0  0  0  0  0  0  0
   58.3222   28.1701   44.2861 H   0  0  0  0  0  0  0  0  0  0  0  0
   59.7415   26.1726   44.7371 H   0  0  0  0  0  0  0  0  0  0  0  0
   58.9033   24.3480   46.2218 H   0  0  0  0  0  0  0  0  0  0  0  0
   55.2043   26.5192   46.8019 H   0  0  0  0  0  0  0  0  0  0  0  0
   58.4997   29.1183   45.9561 H   0  0  0  0  0  0  0  0  0  0  0  0
   60.2636   30.6651   46.8528 H   0  0  0  0  0  0  0  0  0  0  0  0
   56.4365   32.5215   44.1844 H   0  0  0  0  0  0  0  0  0  0  0  0
   58.4553   34.7043   44.0884 H   0  0  0  0  0  0  0  0  0  0  0  0
   57.5216   34.9500   45.5521 H   0  0  0  0  0  0  0  0  0  0  0  0
   60.4445   35.1643   45.2040 H   0  0  0  0  0  0  0  0  0  0  0  0
   59.5476   35.4624   46.7001 H   0  0  0  0  0  0  0  0  0  0  0  0
   62.4332   33.3384   49.4955 H   0  0  0  0  0  0  0  0  0  0  0  0
   61.1749   34.5758   49.1248 H   0  0  0  0  0  0  0  0  0  0  0  0
   61.4638   30.7995   48.9703 H   0  0  0  0  0  0  0  0  0  0  0  0
   59.6764   29.2936   49.8463 H   0  0  0  0  0  0  0  0  0  0  0  0
   57.6198   30.2623   50.8813 H   0  0  0  0  0  0  0  0  0  0  0  0
   57.3483   32.7401   51.0363 H   0  0  0  0  0  0  0  0  0  0  0  0
   59.1310   34.2508   50.1626 H   0  0  0  0  0  0  0  0  0  0  0  0
  1  2  2  0
  2  3  1  0
  3  4  1  0
  4  5  2  0
  5  6  1  0
  6  7  2  0
  7  8  1  0
  8  9  1  0
  8 10  2  0
  2 11  1  0
 11 12  2  0
 12 13  1  0
 13 14  2  0
 14 15  1  0
 15 16  2  0
 15 17  1  0
 17 18  1  0
 18 19  1  0
 19 20  1  0
 20 21  2  0
 20 22  2  0
 20 23  1  0
 23 24  1  0
 24 25  2  0
 25 26  1  0
 26 27  2  0
 27 28  1  0
 28 29  2  0
 10  4  1  0
 16 11  1  0
 29 24  1  0
 19 14  1  0
  5 30  1  0
  6 31  1  0
  7 32  1  0
 10 33  1  0
 12 34  1  0
 13 35  1  0
 16 36  1  0
 17 37  1  0
 17 38  1  0
 18 39  1  0
 18 40  1  0
 23 41  1  0
 23 42  1  0
 25 43  1  0
 26 44  1  0
 27 45  1  0
 28 46  1  0
 29 47  1  0
M  CHG  1   3  -1
M  END
>  <UniqueID>  (68) 
62

>  <SMILES>  (68) 
O=C([N-]c1cccc(Cl)c1)c1ccc2c(c1)CCN2S(=O)(=O)Cc1ccccc1

>  <Energy>  (68) 
65.7569598482883

>  <Genealogy>  (68) 
O=C([N-]c1cccc(Cl)c1)c1ccc2c(c1)CCN2S(=O)(=O)Cc1ccccc1 (protonated)
O=C([N-]c1cccc(Cl)c1)c1ccc2c(c1)CCN2S(=O)(=O)Cc1ccccc1 (3D coordinates assigned)
O=C([N-]c1cccc(Cl)c1)c1ccc2c(c1)CCN2S(=O)(=O)Cc1ccccc1 (nonaromatic ring conformer: 65.7569598482883 kcal/mol)

>  <smiles>  (68) 
O=C(Nc1cccc(Cl)c1)c1ccc2c(c1)CCN2S(=O)(=O)Cc1ccccc1

>  <score_type>  (68) 
oracle

>  <origin>  (68) 
adg

>  <m_score__min__energy>  (68) 
-10.960000000000001

>  <m_primary>  (68) 
energy

$$$$
68:0
     RDKit          3D

 42 44  0  0  0  0  0  0  0  0999 V2000
   50.6700   29.8900   53.0700 C   0  0  0  0  0  0  0  0  0  0  0  0
   51.8930   30.2150   52.6450 C   0  0  0  0  0  0  0  0  0  0  0  0
   53.2620   29.3210   53.0340 S   0  0  0  0  0  0  0  0  0  0  0  0
   54.3600   30.2350   52.1410 C   0  0  0  0  0  0  0  0  0  0  0  0
   55.6850   30.0550   52.0220 C   0  0  0  0  0  0  0  0  0  0  0  0
   56.7020   31.1190   51.8480 C   0  0  0  0  0  0  0  0  0  0  0  0
   56.7350   32.6600   52.5480 S   0  0  0  0  0  0  0  0  0  0  0  0
   58.2030   33.0690   51.8450 C   0  0  0  0  0  0  0  0  0  0  0  0
   58.7760   34.1790   52.0020 O   0  0  0  0  0  0  0  0  0  0  0  0
   58.6990   32.0600   51.0910 N   0  0  0  0  0  0  0  0  0  0  0  0
   59.9440   32.1360   50.3200 C   0  0  0  0  0  0  0  0  0  0  0  0
   59.6500   32.5770   48.9190 C   0  0  0  0  0  0  0  0  0  0  0  0
   60.3230   33.5150   48.4140 O   0  0  0  0  0  0  0  0  0  0  0  0
   58.6680   31.8800   48.1380 N   0  0  0  0  0  0  0  0  0  0  0  0
   58.2830   32.2700   46.8070 C   0  0  0  0  0  0  0  0  0  0  0  0
   57.8590   33.5870   46.5500 C   0  0  0  0  0  0  0  0  0  0  0  0
   57.4490   33.9640   45.2700 C   0  0  0  0  0  0  0  0  0  0  0  0
   57.4420   33.0280   44.2350 C   0  0  0  0  0  0  0  0  0  0  0  0
   57.8470   31.7130   44.4760 C   0  0  0  0  0  0  0  0  0  0  0  0
   58.2730   31.3230   45.7570 C   0  0  0  0  0  0  0  0  0  0  0  0
   58.7010   29.9000   45.9920 C   0  0  0  0  0  0  0  0  0  0  0  0
   57.8650   30.9790   51.0880 C   0  0  0  0  0  0  0  0  0  0  0  0
   58.1550   29.8220   50.3690 O   0  0  0  0  0  0  0  0  0  0  0  0
   53.6550   31.2700   51.5270 C   0  0  0  0  0  0  0  0  0  0  0  0
   52.2740   31.2760   51.8030 C   0  0  0  0  0  0  0  0  0  0  0  0
   51.3850   32.3240   51.2480 C   0  0  0  0  0  0  0  0  0  0  0  0
   50.8980   33.2010   52.0090 O   0  0  0  0  0  0  0  0  0  0  0  0
   51.0400   32.3440   49.9030 O   0  0  0  0  0  0  0  0  0  0  0  0
   49.8065   30.5096   52.7864 H   0  0  0  0  0  0  0  0  0  0  0  0
   50.5257   29.0026   53.7038 H   0  0  0  0  0  0  0  0  0  0  0  0
   56.0510   29.0183   52.0570 H   0  0  0  0  0  0  0  0  0  0  0  0
   60.6235   32.8590   50.7949 H   0  0  0  0  0  0  0  0  0  0  0  0
   60.4160   31.1427   50.2955 H   0  0  0  0  0  0  0  0  0  0  0  0
   58.2560   31.0070   48.5400 H   0  0  0  0  0  0  0  0  0  0  0  0
   57.8506   34.3259   47.3649 H   0  0  0  0  0  0  0  0  0  0  0  0
   57.1313   34.9993   45.0771 H   0  0  0  0  0  0  0  0  0  0  0  0
   57.1169   33.3263   43.2274 H   0  0  0  0  0  0  0  0  0  0  0  0
   57.8323   30.9780   43.6577 H   0  0  0  0  0  0  0  0  0  0  0  0
   58.7587   29.7083   47.0736 H   0  0  0  0  0  0  0  0  0  0  0  0
   57.9686   29.2169   45.5371 H   0  0  0  0  0  0  0  0  0  0  0  0
   59.6887   29.7343   45.5371 H   0  0  0  0  0  0  0  0  0  0  0  0
   54.1372   32.0188   50.8814 H   0  0  0  0  0  0  0  0  0  0  0  0
  1  2  2  0
  2  3  1  0
  3  4  1  0
  4  5  2  3
  5  6  1  0
  6  7  1  0
  7  8  1  0
  8  9  2  0
  8 10  1  0
 10 11  1  0
 11 12  1  0
 12 13  2  0
 12 14  1  0
 14 15  1  0
 15 16  2  0
 16 17  1  0
 17 18  2  0
 18 19  1  0
 19 20  2  0
 20 21  1  0
 10 22  1  0
 22 23  1  0
  4 24  1  0
 24 25  2  0
 25 26  1  0
 26 27  2  0
 26 28  1  0
 25  2  1  0
 22  6  2  0
 20 15  1  0
  1 29  1  0
  1 30  1  0
  5 31  1  0
 11 32  1  0
 11 33  1  0
 14 34  1  0
 16 35  1  0
 17 36  1  0
 18 37  1  0
 19 38  1  0
 21 39  1  0
 21 40  1  0
 21 41  1  0
 24 42  1  0
M  CHG  2  23  -1  28  -1
M  END
>  <UniqueID>  (69) 
63

>  <SMILES>  (69) 
C=c1sc(=Cc2sc(=O)n(CC(=O)Nc3ccccc3C)c2[O-])cc1C(=O)[O-]

>  <Energy>  (69) 
111.4993604899588

>  <Genealogy>  (69) 
C=c1sc(=Cc2sc(=O)n(CC(=O)Nc3ccccc3C)c2[O-])cc1C(=O)[O-] (protonated)
C=c1sc(=Cc2sc(=O)n(CC(=O)Nc3ccccc3C)c2[O-])cc1C(=O)[O-] (3D coordinates assigned)
C=c1sc(=Cc2sc(=O)n(CC(=O)Nc3ccccc3C)c2[O-])cc1C(=O)[O-] (optimized conformer: 111.4993604899588 kcal/mol)

>  <smiles>  (69) 
C=c1sc(=Cc2sc(=O)n(CC(=O)Nc3ccccc3C)c2O)cc1C(=O)O

>  <score_type>  (69) 
oracle

>  <origin>  (69) 
adg

>  <m_score__min__energy>  (69) 
-13.49

>  <m_primary>  (69) 
energy

$$$$
69:0
     RDKit          3D

 55 58  0  0  1  0  0  0  0  0999 V2000
   56.0480   23.4930   43.6880 C   0  0  0  0  0  0  0  0  0  0  0  0
   55.6900   23.9150   44.9130 C   0  0  0  0  0  0  0  0  0  0  0  0
   56.1800   25.2480   45.2820 C   0  0  0  0  0  0  0  0  0  0  0  0
   55.4730   25.9150   46.0830 O   0  0  0  0  0  0  0  0  0  0  0  0
   57.4000   25.7110   44.7310 N   0  0  0  0  0  0  0  0  0  0  0  0
   57.9440   26.9900   45.0380 C   0  0  0  0  0  0  0  0  0  0  0  0
   59.2770   27.0720   45.4460 C   0  0  0  0  0  0  0  0  0  0  0  0
   59.8580   28.3000   45.7590 C   0  0  0  0  0  0  0  0  0  0  0  0
   59.0940   29.4690   45.6610 C   0  0  0  0  0  0  0  0  0  0  0  0
   57.7530   29.4030   45.2520 C   0  0  0  0  0  0  0  0  0  0  0  0
   58.8950   33.9860   47.5570 N   0  0  0  0  0  0  0  0  0  0  0  0
   58.5440   33.4700   46.4280 C   0  0  0  0  0  0  0  0  0  0  0  0
   57.9440   32.2710   46.3120 N   0  0  0  0  0  0  0  0  0  0  0  0
   57.5830   31.7470   45.1150 C   0  0  0  0  0  0  0  0  0  0  0  0
   57.0220   30.6060   45.1280 N   0  0  0  0  0  0  0  0  0  0  0  0
   60.1410   33.5650   48.1010 C   0  0  0  0  0  0  0  0  0  0  0  0
   60.6110   32.2820   47.8980 C   0  0  0  0  0  0  0  0  0  0  0  0
   61.8220   31.8870   48.4300 C   0  0  0  0  0  0  0  0  0  0  0  0
   62.6080   32.7400   49.1800 C   0  0  0  0  0  0  0  0  0  0  0  0
   63.8560   32.3410   49.7320 N   0  0  0  0  0  0  0  0  0  0  0  0
   63.8890   31.2050   50.6310 C   0  0  0  0  0  0  0  0  0  0  0  0
   65.2270   31.0260   51.2770 C   0  0  0  0  0  0  0  0  0  0  0  0
   66.2960   31.4400   50.4630 O   0  0  0  0  0  0  0  0  0  0  0  0
   66.1760   32.8290   50.3760 C   0  0  0  0  0  0  0  0  0  0  0  0
   65.0440   33.0890   49.3730 C   0  0  0  0  0  0  0  0  0  0  0  0
   62.1160   34.0200   49.3700 C   0  0  0  0  0  0  0  0  0  0  0  0
   60.9110   34.4440   48.8500 C   0  0  0  0  0  0  0  0  0  0  0  0
   58.7980   34.1810   45.3250 N   0  0  0  0  0  0  0  0  0  0  0  0
   58.4530   33.6900   44.1210 C   0  0  0  0  0  0  0  0  0  0  0  0
   57.8380   32.4670   43.9760 C   0  0  0  0  0  0  0  0  0  0  0  0
   57.4000   31.8520   42.4070 Cl  0  0  0  0  0  0  0  0  0  0  0  0
   57.1840   28.1590   44.9410 C   0  0  0  0  0  0  0  0  0  0  0  0
   55.7237   22.5047   43.3302 H   0  0  0  0  0  0  0  0  0  0  0  0
   56.6653   24.1360   43.0434 H   0  0  0  0  0  0  0  0  0  0  0  0
   55.0740   23.3050   45.5901 H   0  0  0  0  0  0  0  0  0  0  0  0
   57.9280   25.0840   44.0660 H   0  0  0  0  0  0  0  0  0  0  0  0
   59.8778   26.1536   45.5216 H   0  0  0  0  0  0  0  0  0  0  0  0
   60.9088   28.3500   46.0805 H   0  0  0  0  0  0  0  0  0  0  0  0
   59.5458   30.4417   45.9052 H   0  0  0  0  0  0  0  0  0  0  0  0
   57.7550   31.7320   47.1890 H   0  0  0  0  0  0  0  0  0  0  0  0
   60.0157   31.5697   47.3079 H   0  0  0  0  0  0  0  0  0  0  0  0
   62.1724   30.8598   48.2509 H   0  0  0  0  0  0  0  0  0  0  0  0
   63.1345   31.3550   51.4173 H   0  0  0  0  0  0  0  0  0  0  0  0
   63.6800   30.3024   50.0380 H   0  0  0  0  0  0  0  0  0  0  0  0
   65.2476   31.6138   52.2066 H   0  0  0  0  0  0  0  0  0  0  0  0
   65.3574   29.9500   51.4648 H   0  0  0  0  0  0  0  0  0  0  0  0
   65.9223   33.2538   51.3584 H   0  0  0  0  0  0  0  0  0  0  0  0
   67.1178   33.2973   50.0538 H   0  0  0  0  0  0  0  0  0  0  0  0
   64.8061   34.1630   49.3682 H   0  0  0  0  0  0  0  0  0  0  0  0
   65.3759   32.7657   48.3754 H   0  0  0  0  0  0  0  0  0  0  0  0
   62.7124   34.7301   49.9617 H   0  0  0  0  0  0  0  0  0  0  0  0
   60.5624   35.4721   49.0277 H   0  0  0  0  0  0  0  0  0  0  0  0
   59.2610   35.1210   45.3300 H   0  0  0  0  0  0  0  0  0  0  0  0
   58.6696   34.2859   43.2221 H   0  0  0  0  0  0  0  0  0  0  0  0
   56.1337   28.1033   44.6190 H   0  0  0  0  0  0  0  0  0  0  0  0
  1  2  2  0
  2  3  1  0
  3  4  2  0
  3  5  1  0
  5  6  1  0
  6  7  2  0
  7  8  1  0
  8  9  2  0
  9 10  1  0
 10 11  1  0
 11 12  2  0
 12 13  1  0
 13 14  1  0
 14 15  2  0
 15 16  1  0
 16 17  2  0
 17 18  1  0
 18 19  2  0
 19 20  1  0
 20 21  1  0
 21 22  1  0
 22 23  1  0
 23 24  1  0
 24 25  1  0
 19 26  1  0
 26 27  2  0
 14 28  1  0
 28 29  1  0
 29 30  2  0
 30 31  1  0
 10 32  2  0
 32  6  1  0
 30 12  1  0
 27 16  1  0
 25 20  1  0
  1 33  1  0
  1 34  1  0
  2 35  1  0
  5 36  1  0
  7 37  1  0
  8 38  1  0
  9 39  1  0
 13 40  1  0
 17 41  1  0
 18 42  1  0
 21 43  1  0
 21 44  1  0
 22 45  1  0
 22 46  1  0
 24 47  1  0
 24 48  1  0
 25 49  1  0
 25 50  1  0
 26 51  1  0
 27 52  1  0
 28 53  1  0
 29 54  1  0
 32 55  1  0
M  END
>  <smiles>  (70) 
C=CC(=O)Nc1cccc(N=c2[nH]c(=Nc3ccc(N4CCOCC4)cc3)[nH]cc2Cl)c1

>  <score_type>  (70) 
oracle

>  <origin>  (70) 
adg

>  <m_score__min__energy>  (70) 
-9.5099999999999998

>  <m_primary>  (70) 
energy

$$$$
70:0
     RDKit          3D

 58 61  0  0  0  0  0  0  0  0999 V2000
   55.2050   29.3150   45.0240 O   0  0  0  0  0  0  0  0  0  0  0  0
   55.9060   30.0310   44.2610 C   0  0  0  0  0  0  0  0  0  0  0  0
   56.6610   29.3920   43.1370 C   0  0  0  0  0  0  0  0  0  0  0  0
   57.3930   28.2140   43.6040 N   0  0  0  0  0  0  0  0  0  0  0  0
   58.1470   28.1920   44.8320 C   0  0  0  0  0  0  0  0  0  0  0  0
   57.5810   27.7500   46.0430 C   0  0  0  0  0  0  0  0  0  0  0  0
   58.3460   27.7160   47.2120 C   0  0  0  0  0  0  0  0  0  0  0  0
   59.6920   28.1200   47.2000 C   0  0  0  0  0  0  0  0  0  0  0  0
   60.4930   28.0820   48.4470 C   0  0  0  0  0  0  0  0  0  0  0  0
   60.8900   26.9720   48.8960 O   0  0  0  0  0  0  0  0  0  0  0  0
   60.8150   29.2830   49.1680 N   0  0  0  0  0  0  0  0  0  0  0  0
   61.5580   30.3570   48.4900 C   0  0  0  0  0  0  0  0  0  0  0  0
   61.2040   31.7140   49.1030 C   0  0  0  0  0  0  0  0  0  0  0  0
   61.3190   31.6290   50.5580 N   0  0  0  0  0  0  0  0  0  0  0  0
   62.4950   32.1330   51.1960 C   0  0  0  0  0  0  0  0  0  0  0  0
   63.4630   31.3580   51.4320 O   0  0  0  0  0  0  0  0  0  0  0  0
   62.6070   33.5940   51.5100 C   0  0  0  0  0  0  0  0  0  0  0  0
   63.9720   34.1860   51.1980 C   0  0  0  0  0  0  0  0  0  0  0  0
   62.7870   34.5000   50.3020 C   0  0  0  0  0  0  0  0  0  0  0  0
   60.5210   30.6030   51.2260 C   0  0  0  0  0  0  0  0  0  0  0  0
   60.8570   29.2310   50.6380 C   0  0  0  0  0  0  0  0  0  0  0  0
   60.2470   28.5880   45.9970 C   0  0  0  0  0  0  0  0  0  0  0  0
   59.4840   28.6130   44.8250 C   0  0  0  0  0  0  0  0  0  0  0  0
   56.0270   31.4440   44.4800 N   0  0  0  0  0  0  0  0  0  0  0  0
   57.1240   32.1250   45.1070 C   0  0  0  0  0  0  0  0  0  0  0  0
   57.2270   33.5130   44.9460 C   0  0  0  0  0  0  0  0  0  0  0  0
   58.2820   34.2170   45.5350 C   0  0  0  0  0  0  0  0  0  0  0  0
   59.2420   33.5470   46.3140 C   0  0  0  0  0  0  0  0  0  0  0  0
   60.4030   34.3160   46.8980 C   0  0  0  0  0  0  0  0  0  0  0  0
   61.6140   33.7180   46.5880 F   0  0  0  0  0  0  0  0  0  0  0  0
   60.3950   35.6020   46.3910 F   0  0  0  0  0  0  0  0  0  0  0  0
   60.2870   34.3720   48.2780 F   0  0  0  0  0  0  0  0  0  0  0  0
   59.1340   32.1540   46.4810 C   0  0  0  0  0  0  0  0  0  0  0  0
   58.0730   31.4530   45.8980 C   0  0  0  0  0  0  0  0  0  0  0  0
   55.9515   29.0881   42.3533 H   0  0  0  0  0  0  0  0  0  0  0  0
   57.3832   30.1203   42.7394 H   0  0  0  0  0  0  0  0  0  0  0  0
   57.3700   27.3420   43.0230 H   0  0  0  0  0  0  0  0  0  0  0  0
   56.5292   27.4292   46.0692 H   0  0  0  0  0  0  0  0  0  0  0  0
   57.8900   27.3695   48.1511 H   0  0  0  0  0  0  0  0  0  0  0  0
   62.6376   30.1784   48.6019 H   0  0  0  0  0  0  0  0  0  0  0  0
   61.2865   30.3632   47.4240 H   0  0  0  0  0  0  0  0  0  0  0  0
   61.8954   32.4808   48.7235 H   0  0  0  0  0  0  0  0  0  0  0  0
   60.1740   31.9859   48.8290 H   0  0  0  0  0  0  0  0  0  0  0  0
   61.9312   33.5866   52.3779 H   0  0  0  0  0  0  0  0  0  0  0  0
   64.3934   34.9682   51.8466 H   0  0  0  0  0  0  0  0  0  0  0  0
   64.9798   33.7749   51.0387 H   0  0  0  0  0  0  0  0  0  0  0  0
   62.3500   35.5095   50.3017 H   0  0  0  0  0  0  0  0  0  0  0  0
   62.5810   34.4104   49.2252 H   0  0  0  0  0  0  0  0  0  0  0  0
   60.7473   30.6058   52.3025 H   0  0  0  0  0  0  0  0  0  0  0  0
   59.4521   30.8144   51.0750 H   0  0  0  0  0  0  0  0  0  0  0  0
   61.8653   28.9339   50.9622 H   0  0  0  0  0  0  0  0  0  0  0  0
   60.1170   28.4982   50.9921 H   0  0  0  0  0  0  0  0  0  0  0  0
   61.2898   28.9375   45.9768 H   0  0  0  0  0  0  0  0  0  0  0  0
   59.9381   28.9669   43.8877 H   0  0  0  0  0  0  0  0  0  0  0  0
   56.4736   34.0521   44.3528 H   0  0  0  0  0  0  0  0  0  0  0  0
   58.3616   35.3042   45.3877 H   0  0  0  0  0  0  0  0  0  0  0  0
   59.8875   31.6136   47.0728 H   0  0  0  0  0  0  0  0  0  0  0  0
   57.9804   30.3688   46.0594 H   0  0  0  0  0  0  0  0  0  0  0  0
  1  2  2  0
  2  3  1  0
  3  4  1  0
  4  5  1  0
  5  6  2  0
  6  7  1  0
  7  8  2  0
  8  9  1  0
  9 10  2  0
  9 11  1  0
 11 12  1  0
 12 13  1  0
 13 14  1  0
 14 15  1  0
 15 16  2  0
 15 17  1  0
 17 18  1  0
 18 19  1  0
 14 20  1  0
 20 21  1  0
  8 22  1  0
 22 23  2  0
  2 24  1  0
 24 25  1  0
 25 26  2  0
 26 27  1  0
 27 28  2  0
 28 29  1  0
 29 30  1  0
 29 31  1  0
 29 32  1  0
 28 33  1  0
 33 34  2  0
 23  5  1  0
 34 25  1  0
 21 11  1  0
 19 17  1  0
  3 35  1  0
  3 36  1  0
  4 37  1  0
  6 38  1  0
  7 39  1  0
 12 40  1  0
 12 41  1  0
 13 42  1  0
 13 43  1  0
 17 44  1  0
 18 45  1  0
 18 46  1  0
 19 47  1  0
 19 48  1  0
 20 49  1  0
 20 50  1  0
 21 51  1  0
 21 52  1  0
 22 53  1  0
 23 54  1  0
 26 55  1  0
 27 56  1  0
 33 57  1  0
 34 58  1  0
M  CHG  1  24  -1
M  END
>  <UniqueID>  (71) 
64

>  <SMILES>  (71) 
O=C(CNc1ccc(C(=O)N2CCN(C(=O)C3CC3)CC2)cc1)[N-]c1ccc(C(F)(F)F)cc1

>  <Energy>  (71) 
335.27768331927473

>  <Genealogy>  (71) 
O=C(CNc1ccc(C(=O)N2CCN(C(=O)C3CC3)CC2)cc1)[N-]c1ccc(C(F)(F)F)cc1 (protonated)
O=C(CNc1ccc(C(=O)N2CCN(C(=O)C3CC3)CC2)cc1)[N-]c1ccc(C(F)(F)F)cc1 (3D coordinates assigned)
O=C(CNc1ccc(C(=O)N2CCN(C(=O)C3CC3)CC2)cc1)[N-]c1ccc(C(F)(F)F)cc1 (nonaromatic ring conformer: 335.27768331927473 kcal/mol)

>  <smiles>  (71) 
O=C(CNc1ccc(C(=O)N2CCN(C(=O)C3CC3)CC2)cc1)Nc1ccc(C(F)(F)F)cc1

>  <score_type>  (71) 
oracle

>  <origin>  (71) 
adg

>  <m_score__min__energy>  (71) 
-9.9399999999999995

>  <m_primary>  (71) 
energy

$$$$
71:0
     RDKit          3D

 36 38  0  0  0  0  0  0  0  0999 V2000
   52.6260   30.5340   49.1490 H   0  0  0  0  0  0  0  0  0  0  0  0
   52.5410   30.1300   50.0710 O   0  0  0  0  0  0  0  0  0  0  0  0
   51.9060   30.8060   51.1100 C   0  0  0  0  0  0  0  0  0  0  0  0
   52.0850   30.6320   52.4750 C   0  0  0  0  0  0  0  0  0  0  0  0
   52.9450   29.6500   53.1570 C   0  0  0  0  0  0  0  0  0  0  0  0
   52.4682   28.8885   53.7917 H   0  0  0  0  0  0  0  0  0  0  0  0
   54.2790   29.6390   53.0420 C   0  0  0  0  0  0  0  0  0  0  0  0
   55.1000   28.7710   53.6720 N   0  0  0  0  0  0  0  0  0  0  0  0
   56.3450   29.1500   53.2960 C   0  0  0  0  0  0  0  0  0  0  0  0
   57.4350   28.4850   53.6820 C   0  0  0  0  0  0  0  0  0  0  0  0
   58.4297   28.8232   53.3562 H   0  0  0  0  0  0  0  0  0  0  0  0
   57.3391   27.5985   54.3261 H   0  0  0  0  0  0  0  0  0  0  0  0
   56.3430   30.2250   52.4650 N   0  0  0  0  0  0  0  0  0  0  0  0
   57.4590   30.9280   51.8870 C   0  0  0  0  0  0  0  0  0  0  0  0
   58.2900   30.2960   50.9520 C   0  0  0  0  0  0  0  0  0  0  0  0
   58.0811   29.2600   50.6471 H   0  0  0  0  0  0  0  0  0  0  0  0
   59.3820   30.9740   50.4050 C   0  0  0  0  0  0  0  0  0  0  0  0
   60.0223   30.4684   49.6672 H   0  0  0  0  0  0  0  0  0  0  0  0
   59.6720   32.2980   50.7880 C   0  0  0  0  0  0  0  0  0  0  0  0
   60.8380   33.0070   50.1970 C   0  0  0  0  0  0  0  0  0  0  0  0
   61.3840   33.9510   50.8330 O   0  0  0  0  0  0  0  0  0  0  0  0
   61.3950   32.6360   48.8560 C   0  0  0  0  0  0  0  0  0  0  0  0
   62.3036   32.0308   48.9910 H   0  0  0  0  0  0  0  0  0  0  0  0
   60.6472   32.0549   48.2964 H   0  0  0  0  0  0  0  0  0  0  0  0
   61.6430   33.5500   48.2964 H   0  0  0  0  0  0  0  0  0  0  0  0
   58.8390   32.9210   51.7390 C   0  0  0  0  0  0  0  0  0  0  0  0
   59.0504   33.9532   52.0550 H   0  0  0  0  0  0  0  0  0  0  0  0
   57.7480   32.2410   52.2840 C   0  0  0  0  0  0  0  0  0  0  0  0
   57.1110   32.7389   53.0299 H   0  0  0  0  0  0  0  0  0  0  0  0
   55.0410   30.5240   52.3110 C   0  0  0  0  0  0  0  0  0  0  0  0
   54.6060   31.4850   51.6180 O   0  0  0  0  0  0  0  0  0  0  0  0
   51.3640   31.5640   53.1430 N   0  0  0  0  0  0  0  0  0  0  0  0
   50.7440   32.2550   52.1620 C   0  0  0  0  0  0  0  0  0  0  0  0
   49.9710   33.2240   52.3830 O   0  0  0  0  0  0  0  0  0  0  0  0
   51.0430   31.8120   50.9310 N   0  0  0  0  0  0  0  0  0  0  0  0
   50.6280   32.3440   49.7320 O   0  0  0  0  0  0  0  0  0  0  0  0
  1  2  1  0
  2  3  1  0
  3  4  2  0
  4  5  1  0
  5  6  1  0
  5  7  2  0
  7  8  1  0
  8  9  1  0
  9 10  2  0
 10 11  1  0
 10 12  1  0
  9 13  1  0
 13 14  1  0
 14 15  2  0
 15 16  1  0
 15 17  1  0
 17 18  1  0
 17 19  2  0
 19 20  1  0
 20 21  2  0
 20 22  1  0
 22 23  1  0
 22 24  1  0
 22 25  1  0
 19 26  1  0
 26 27  1  0
 26 28  2  0
 28 29  1  0
 13 30  1  0
 30 31  2  0
  4 32  1  0
 32 33  1  0
 33 34  2  0
 33 35  1  0
 35 36  1  0
 35  3  1  0
 30  7  1  0
 28 14  1  0
M  CHG  3   8  -1  32  -1  36  -1
M  END
>  <UniqueID>  (72) 
65

>  <SMILES>  (72) 
C=c1[n-]/c(=C\c2[n-]c(=O)n([O-])c2O)c(=O)n1-c1ccc(C(C)=O)cc1

>  <Energy>  (72) 
116.59493625906578

>  <Genealogy>  (72) 
C=c1[n-]c(=Cc2[n-]c(=O)n([O-])c2O)c(=O)n1-c1ccc(C(C)=O)cc1 (protonated)
C=c1[n-]/c(=C\c2[n-]c(=O)n([O-])c2O)c(=O)n1-c1ccc(C(C)=O)cc1 (cis-trans isomerization)
C=c1[n-]/c(=C\c2[n-]c(=O)n([O-])c2O)c(=O)n1-c1ccc(C(C)=O)cc1 (3D coordinates assigned)
C=c1[n-]/c(=C\c2[n-]c(=O)n([O-])c2O)c(=O)n1-c1ccc(C(C)=O)cc1 (optimized conformer: 116.59493625906578 kcal/mol)

>  <smiles>  (72) 
C=c1[nH]c(=Cc2[nH]c(=O)n(O)c2O)c(=O)n1-c1ccc(C(C)=O)cc1

>  <score_type>  (72) 
oracle

>  <origin>  (72) 
adg

>  <m_score__min__energy>  (72) 
-15.279999999999999

>  <m_primary>  (72) 
energy

$$$$
72:0
     RDKit          3D

 29 30  0  0  0  0  0  0  0  0999 V2000
   61.6660   32.3510   47.3350 C   0  0  0  0  0  0  0  0  0  0  0  0
   60.4260   32.9680   46.7440 C   0  0  0  0  0  0  0  0  0  0  0  0
   60.4180   34.3430   46.4550 C   0  0  0  0  0  0  0  0  0  0  0  0
   59.2880   34.9450   45.8990 C   0  0  0  0  0  0  0  0  0  0  0  0
   58.1520   34.1840   45.6330 C   0  0  0  0  0  0  0  0  0  0  0  0
   58.1400   32.8180   45.9220 C   0  0  0  0  0  0  0  0  0  0  0  0
   59.2720   32.1890   46.4740 C   0  0  0  0  0  0  0  0  0  0  0  0
   59.2510   30.7800   46.7720 N   0  0  0  0  0  0  0  0  0  0  0  0
   59.3370   29.5480   45.5520 S   0  0  0  0  0  0  0  0  0  0  0  0
   59.2160   30.1790   44.1950 O   0  0  0  0  0  0  0  0  0  0  0  0
   60.6620   28.8470   45.6480 O   0  0  0  0  0  0  0  0  0  0  0  0
   58.0260   28.3930   45.7570 C   0  0  0  0  0  0  0  0  0  0  0  0
   58.1600   26.9430   46.5990 S   0  0  0  0  0  0  0  0  0  0  0  0
   56.5490   26.5500   46.3340 C   0  0  0  0  0  0  0  0  0  0  0  0
   55.9970   25.5000   46.7540 O   0  0  0  0  0  0  0  0  0  0  0  0
   55.8950   27.4900   45.6220 N   0  0  0  0  0  0  0  0  0  0  0  0
   56.7160   28.5210   45.2860 C   0  0  0  0  0  0  0  0  0  0  0  0
   56.2020   29.7100   44.5380 C   0  0  0  0  0  0  0  0  0  0  0  0
   61.6035   32.3821   48.4328 H   0  0  0  0  0  0  0  0  0  0  0  0
   61.7500   31.3060   47.0020 H   0  0  0  0  0  0  0  0  0  0  0  0
   62.5502   32.9142   47.0020 H   0  0  0  0  0  0  0  0  0  0  0  0
   61.3099   34.9503   46.6687 H   0  0  0  0  0  0  0  0  0  0  0  0
   59.2946   36.0210   45.6708 H   0  0  0  0  0  0  0  0  0  0  0  0
   57.2626   34.6601   45.1944 H   0  0  0  0  0  0  0  0  0  0  0  0
   57.2357   32.2266   45.7160 H   0  0  0  0  0  0  0  0  0  0  0  0
   59.2810   30.4520   47.7630 H   0  0  0  0  0  0  0  0  0  0  0  0
   55.8702   30.4775   45.2527 H   0  0  0  0  0  0  0  0  0  0  0  0
   57.0033   30.1198   43.9056 H   0  0  0  0  0  0  0  0  0  0  0  0
   55.3545   29.4071   43.9056 H   0  0  0  0  0  0  0  0  0  0  0  0
  1  2  1  0
  2  3  2  0
  3  4  1  0
  4  5  2  0
  5  6  1  0
  6  7  2  0
  7  8  1  0
  8  9  1  0
  9 10  2  0
  9 11  2  0
  9 12  1  0
 12 13  1  0
 13 14  1  0
 14 15  2  0
 14 16  1  0
 16 17  1  0
 17 18  1  0
  7  2  1  0
 17 12  2  0
  1 19  1  0
  1 20  1  0
  1 21  1  0
  3 22  1  0
  4 23  1  0
  5 24  1  0
  6 25  1  0
  8 26  1  0
 18 27  1  0
 18 28  1  0
 18 29  1  0
M  CHG  1  16  -1
M  END
>  <UniqueID>  (73) 
66

>  <SMILES>  (73) 
Cc1ccccc1NS(=O)(=O)c1sc(=O)[n-]c1C

>  <Energy>  (73) 
61.94134613368686

>  <Genealogy>  (73) 
Cc1ccccc1NS(=O)(=O)c1sc(=O)[n-]c1C (protonated)
Cc1ccccc1NS(=O)(=O)c1sc(=O)[n-]c1C (3D coordinates assigned)
Cc1ccccc1NS(=O)(=O)c1sc(=O)[n-]c1C (optimized conformer: 61.94134613368686 kcal/mol)

>  <smiles>  (73) 
Cc1ccccc1NS(=O)(=O)c1sc(=O)[nH]c1C

>  <score_type>  (73) 
oracle

>  <origin>  (73) 
adg

>  <m_score__min__energy>  (73) 
-9.3599999999999994

>  <m_primary>  (73) 
energy

$$$$
73:0
     RDKit          3D

 41 43  0  0  0  0  0  0  0  0999 V2000
   57.6180   32.6160   52.3770 C   0  0  0  0  0  0  0  0  0  0  0  0
   58.3760   32.0910   51.2280 N   0  0  0  0  0  0  0  0  0  0  0  0
   58.1840   30.8040   50.8130 C   0  0  0  0  0  0  0  0  0  0  0  0
   57.3570   30.0530   51.3980 O   0  0  0  0  0  0  0  0  0  0  0  0
   58.8980   30.3060   49.7360 C   0  0  0  0  0  0  0  0  0  0  0  0
   59.8350   31.1170   49.0780 C   0  0  0  0  0  0  0  0  0  0  0  0
   60.5810   30.5660   47.9540 N   0  0  0  0  0  0  0  0  0  0  0  0
   59.8980   30.7980   46.6620 C   0  0  0  0  0  0  0  0  0  0  0  0
   60.0100   29.6570   45.6550 C   0  0  0  0  0  0  0  0  0  0  0  0
   58.7000   29.8990   46.3910 C   0  0  0  0  0  0  0  0  0  0  0  0
   59.9280   32.4510   49.4400 N   0  0  0  0  0  0  0  0  0  0  0  0
   60.7730   33.4080   48.6830 C   0  0  0  0  0  0  0  0  0  0  0  0
   59.9540   34.5890   48.1310 C   0  0  0  0  0  0  0  0  0  0  0  0
   59.1370   34.1950   46.9300 C   0  0  0  0  0  0  0  0  0  0  0  0
   57.9110   33.5260   47.0930 C   0  0  0  0  0  0  0  0  0  0  0  0
   57.1780   33.1170   45.9750 C   0  0  0  0  0  0  0  0  0  0  0  0
   57.6620   33.3700   44.6890 C   0  0  0  0  0  0  0  0  0  0  0  0
   58.8830   34.0290   44.5190 C   0  0  0  0  0  0  0  0  0  0  0  0
   59.6210   34.4380   45.6340 C   0  0  0  0  0  0  0  0  0  0  0  0
   59.2050   32.9210   50.5170 C   0  0  0  0  0  0  0  0  0  0  0  0
   59.2980   34.1360   50.8570 O   0  0  0  0  0  0  0  0  0  0  0  0
   58.0943   32.2861   53.3121 H   0  0  0  0  0  0  0  0  0  0  0  0
   57.6083   33.7153   52.3384 H   0  0  0  0  0  0  0  0  0  0  0  0
   56.5855   32.2386   52.3384 H   0  0  0  0  0  0  0  0  0  0  0  0
   58.7304   29.2734   49.3960 H   0  0  0  0  0  0  0  0  0  0  0  0
   60.7670   29.5490   48.0670 H   0  0  0  0  0  0  0  0  0  0  0  0
   61.5070   31.0470   47.9180 H   0  0  0  0  0  0  0  0  0  0  0  0
   60.0808   31.8824   46.6365 H   0  0  0  0  0  0  0  0  0  0  0  0
   60.0860   29.8774   44.5800 H   0  0  0  0  0  0  0  0  0  0  0  0
   60.6826   28.7962   45.5258 H   0  0  0  0  0  0  0  0  0  0  0  0
   57.8289   30.2933   45.8472 H   0  0  0  0  0  0  0  0  0  0  0  0
   58.0337   29.2839   47.0137 H   0  0  0  0  0  0  0  0  0  0  0  0
   61.5534   33.7991   49.3523 H   0  0  0  0  0  0  0  0  0  0  0  0
   61.2130   32.8713   47.8296 H   0  0  0  0  0  0  0  0  0  0  0  0
   59.2764   34.9504   48.9186 H   0  0  0  0  0  0  0  0  0  0  0  0
   60.6578   35.3753   47.8205 H   0  0  0  0  0  0  0  0  0  0  0  0
   57.5273   33.3237   48.1039 H   0  0  0  0  0  0  0  0  0  0  0  0
   56.2188   32.5952   46.1080 H   0  0  0  0  0  0  0  0  0  0  0  0
   57.0823   33.0506   43.8104 H   0  0  0  0  0  0  0  0  0  0  0  0
   59.2640   34.2262   43.5061 H   0  0  0  0  0  0  0  0  0  0  0  0
   60.5838   34.9517   45.4958 H   0  0  0  0  0  0  0  0  0  0  0  0
  1  2  1  0
  2  3  1  0
  3  4  2  0
  3  5  1  0
  5  6  2  0
  6  7  1  0
  7  8  1  0
  8  9  1  0
  9 10  1  0
  6 11  1  0
 11 12  1  0
 12 13  1  0
 13 14  1  0
 14 15  2  0
 15 16  1  0
 16 17  2  0
 17 18  1  0
 18 19  2  0
 11 20  1  0
 20 21  2  0
 20  2  1  0
 10  8  1  0
 19 14  1  0
  1 22  1  0
  1 23  1  0
  1 24  1  0
  5 25  1  0
  7 26  1  0
  7 27  1  0
  8 28  1  0
  9 29  1  0
  9 30  1  0
 10 31  1  0
 10 32  1  0
 12 33  1  0
 12 34  1  0
 13 35  1  0
 13 36  1  0
 15 37  1  0
 16 38  1  0
 17 39  1  0
 18 40  1  0
 19 41  1  0
M  CHG  1   7   1
M  END
>  <UniqueID>  (74) 
67

>  <SMILES>  (74) 
Cn1c(=O)cc([NH2+]C2CC2)n(CCc2ccccc2)c1=O

>  <Energy>  (74) 
318.84775433316685

>  <Genealogy>  (74) 
Cn1c(=O)cc([NH2+]C2CC2)n(CCc2ccccc2)c1=O (protonated)
Cn1c(=O)cc([NH2+]C2CC2)n(CCc2ccccc2)c1=O (3D coordinates assigned)
Cn1c(=O)cc([NH2+]C2CC2)n(CCc2ccccc2)c1=O (nonaromatic ring conformer: 318.84775433316685 kcal/mol)

>  <smiles>  (74) 
Cn1c(=O)cc(NC2CC2)n(CCc2ccccc2)c1=O

>  <score_type>  (74) 
oracle

>  <origin>  (74) 
adg

>  <m_score__min__energy>  (74) 
-4.79

>  <m_primary>  (74) 
energy

$$$$
74:0
     RDKit          3D

 62 65  0  0  0  0  0  0  0  0999 V2000
   61.2000   33.4700   47.0060 C   0  0  0  0  0  0  0  0  0  0  0  0
   60.2270   33.8660   47.8460 C   0  0  0  0  0  0  0  0  0  0  0  0
   58.9940   34.4580   47.2650 C   0  0  0  0  0  0  0  0  0  0  0  0
   58.5350   33.6460   46.1120 C   0  0  0  0  0  0  0  0  0  0  0  0
   58.6710   34.0270   44.7990 C   0  0  0  0  0  0  0  0  0  0  0  0
   59.2710   35.2220   44.5010 O   0  0  0  0  0  0  0  0  0  0  0  0
   58.2130   33.2140   43.8230 N   0  0  0  0  0  0  0  0  0  0  0  0
   57.6200   32.0370   44.0450 C   0  0  0  0  0  0  0  0  0  0  0  0
   56.9980   30.9250   42.8490 S   0  0  0  0  0  0  0  0  0  0  0  0
   57.0000   29.2030   43.2190 C   0  0  0  0  0  0  0  0  0  0  0  0
   57.8220   28.8310   44.3850 C   0  0  0  0  0  0  0  0  0  0  0  0
   57.1680   28.2820   45.4810 C   0  0  0  0  0  0  0  0  0  0  0  0
   57.8340   27.9510   46.6520 C   0  0  0  0  0  0  0  0  0  0  0  0
   59.1820   28.1550   46.7700 C   0  0  0  0  0  0  0  0  0  0  0  0
   59.9700   27.8820   47.9590 C   0  0  0  0  0  0  0  0  0  0  0  0
   60.3960   26.6940   48.1080 O   0  0  0  0  0  0  0  0  0  0  0  0
   60.2440   28.9180   48.8970 N   0  0  0  0  0  0  0  0  0  0  0  0
   61.0340   28.7470   50.0840 C   0  0  0  0  0  0  0  0  0  0  0  0
   60.3110   29.2730   51.2920 C   0  0  0  0  0  0  0  0  0  0  0  0
   59.7150   30.5270   51.0630 N   0  0  0  0  0  0  0  0  0  0  0  0
   59.1360   31.1220   52.2080 C   0  0  0  0  0  0  0  0  0  0  0  0
   57.6730   30.8000   52.2830 C   0  0  0  0  0  0  0  0  0  0  0  0
   57.3860   29.5290   52.7740 C   0  0  0  0  0  0  0  0  0  0  0  0
   56.1010   29.0540   52.9100 C   0  0  0  0  0  0  0  0  0  0  0  0
   55.0650   29.9130   52.5270 C   0  0  0  0  0  0  0  0  0  0  0  0
   55.3690   31.1850   52.0360 C   0  0  0  0  0  0  0  0  0  0  0  0
   56.6710   31.6250   51.9170 C   0  0  0  0  0  0  0  0  0  0  0  0
   58.8950   30.6330   49.9180 C   0  0  0  0  0  0  0  0  0  0  0  0
   59.6920   30.2520   48.6580 C   0  0  0  0  0  0  0  0  0  0  0  0
   59.8410   28.6980   45.6890 C   0  0  0  0  0  0  0  0  0  0  0  0
   59.1710   29.0310   44.5110 C   0  0  0  0  0  0  0  0  0  0  0  0
   57.4870   31.6640   45.3590 N   0  0  0  0  0  0  0  0  0  0  0  0
   57.9280   32.4370   46.3560 C   0  0  0  0  0  0  0  0  0  0  0  0
   57.7780   32.0390   47.5420 O   0  0  0  0  0  0  0  0  0  0  0  0
   62.1249   33.0280   47.4050 H   0  0  0  0  0  0  0  0  0  0  0  0
   61.0709   33.5882   45.9200 H   0  0  0  0  0  0  0  0  0  0  0  0
   60.3410   33.7546   48.9344 H   0  0  0  0  0  0  0  0  0  0  0  0
   58.2051   34.4809   48.0312 H   0  0  0  0  0  0  0  0  0  0  0  0
   59.2117   35.4803   46.9223 H   0  0  0  0  0  0  0  0  0  0  0  0
   59.9600   35.2880   43.7590 H   0  0  0  0  0  0  0  0  0  0  0  0
   58.3350   33.5260   42.8590 H   0  0  0  0  0  0  0  0  0  0  0  0
   55.9633   28.8923   43.4159 H   0  0  0  0  0  0  0  0  0  0  0  0
   57.4421   28.6957   42.3488 H   0  0  0  0  0  0  0  0  0  0  0  0
   56.0844   28.1036   45.4180 H   0  0  0  0  0  0  0  0  0  0  0  0
   57.2728   27.5202   47.4943 H   0  0  0  0  0  0  0  0  0  0  0  0
   61.2416   27.6763   50.2269 H   0  0  0  0  0  0  0  0  0  0  0  0
   61.9722   29.3087   49.9647 H   0  0  0  0  0  0  0  0  0  0  0  0
   59.5256   28.5557   51.5725 H   0  0  0  0  0  0  0  0  0  0  0  0
   61.0520   29.3982   52.0952 H   0  0  0  0  0  0  0  0  0  0  0  0
   59.6379   30.7384   53.1085 H   0  0  0  0  0  0  0  0  0  0  0  0
   59.2577   32.2133   52.1425 H   0  0  0  0  0  0  0  0  0  0  0  0
   58.2220   28.8763   53.0658 H   0  0  0  0  0  0  0  0  0  0  0  0
   55.8982   28.0462   53.3015 H   0  0  0  0  0  0  0  0  0  0  0  0
   54.0174   29.5886   52.6120 H   0  0  0  0  0  0  0  0  0  0  0  0
   54.5484   31.8535   51.7363 H   0  0  0  0  0  0  0  0  0  0  0  0
   56.8882   32.6316   51.5302 H   0  0  0  0  0  0  0  0  0  0  0  0
   58.0348   29.9554   50.0228 H   0  0  0  0  0  0  0  0  0  0  0  0
   58.5448   31.6713   49.8215 H   0  0  0  0  0  0  0  0  0  0  0  0
   59.0290   30.2363   47.7804 H   0  0  0  0  0  0  0  0  0  0  0  0
   60.4913   30.9813   48.4598 H   0  0  0  0  0  0  0  0  0  0  0  0
   60.9248   28.8739   45.7562 H   0  0  0  0  0  0  0  0  0  0  0  0
   59.7353   29.4609   43.6703 H   0  0  0  0  0  0  0  0  0  0  0  0
  1  2  2  0
  2  3  1  0
  3  4  1  0
  4  5  2  0
  5  6  1  0
  5  7  1  0
  7  8  1  0
  8  9  1  0
  9 10  1  0
 10 11  1  0
 11 12  2  0
 12 13  1  0
 13 14  2  0
 14 15  1  0
 15 16  2  0
 15 17  1  0
 17 18  1  0
 18 19  1  0
 19 20  1  0
 20 21  1  0
 21 22  1  0
 22 23  2  0
 23 24  1  0
 24 25  2  0
 25 26  1  0
 26 27  2  0
 20 28  1  0
 28 29  1  0
 14 30  1  0
 30 31  2  0
  8 32  2  0
 32 33  1  0
 33 34  2  0
 33  4  1  0
 31 11  1  0
 29 17  1  0
 27 22  1  0
  1 35  1  0
  1 36  1  0
  2 37  1  0
  3 38  1  0
  3 39  1  0
  6 40  1  0
  7 41  1  0
 10 42  1  0
 10 43  1  0
 12 44  1  0
 13 45  1  0
 18 46  1  0
 18 47  1  0
 19 48  1  0
 19 49  1  0
 21 50  1  0
 21 51  1  0
 23 52  1  0
 24 53  1  0
 25 54  1  0
 26 55  1  0
 27 56  1  0
 28 57  1  0
 28 58  1  0
 29 59  1  0
 29 60  1  0
 30 61  1  0
 31 62  1  0
M  END
>  <smiles>  (75) 
C=CCc1c(O)[nH]c(SCc2ccc(C(=O)N3CCN(Cc4ccccc4)CC3)cc2)nc1=O

>  <score_type>  (75) 
oracle

>  <origin>  (75) 
adg

>  <m_score__min__energy>  (75) 
-10.4

>  <m_primary>  (75) 
energy

$$$$
75:0
     RDKit          3D

 38 39  0  0  0  0  0  0  0  0999 V2000
   59.8160   34.1570   49.5380 C   0  0  0  0  0  0  0  0  0  0  0  0
   60.0700   33.1890   48.3710 C   0  0  1  0  0  0  0  0  0  0  0  0
   59.9440   31.7100   48.7930 C   0  0  0  0  0  0  0  0  0  0  0  0
   59.7450   30.8240   47.6460 N   0  0  0  0  0  0  0  0  0  0  0  0
   60.8020   30.4620   46.7450 C   0  0  0  0  0  0  0  0  0  0  0  0
   61.9410   30.9890   46.8500 O   0  0  0  0  0  0  0  0  0  0  0  0
   60.5410   29.4820   45.6410 C   0  0  0  0  0  0  0  0  0  0  0  0
   59.1070   29.4390   45.3340 N   0  0  0  0  0  0  0  0  0  0  0  0
   58.3550   28.3680   45.7360 C   0  0  0  0  0  0  0  0  0  0  0  0
   56.9830   28.3270   45.4760 C   0  0  0  0  0  0  0  0  0  0  0  0
   56.3800   29.3920   44.8070 C   0  0  0  0  0  0  0  0  0  0  0  0
   55.1440   29.3700   44.5660 O   0  0  0  0  0  0  0  0  0  0  0  0
   57.1520   30.4840   44.4110 C   0  0  0  0  0  0  0  0  0  0  0  0
   58.5220   30.4930   44.6870 C   0  0  0  0  0  0  0  0  0  0  0  0
   59.2140   33.5050   47.1560 C   0  0  0  0  0  0  0  0  0  0  0  0
   57.8330   33.2200   47.1260 C   0  0  0  0  0  0  0  0  0  0  0  0
   57.0760   33.4920   45.9830 C   0  0  0  0  0  0  0  0  0  0  0  0
   57.6860   34.0430   44.8540 C   0  0  0  0  0  0  0  0  0  0  0  0
   59.0540   34.3170   44.8640 C   0  0  0  0  0  0  0  0  0  0  0  0
   59.8160   34.0460   46.0040 C   0  0  0  0  0  0  0  0  0  0  0  0
   59.9552   33.6264   50.4915 H   0  0  0  0  0  0  0  0  0  0  0  0
   60.5243   34.9966   49.4788 H   0  0  0  0  0  0  0  0  0  0  0  0
   58.7868   34.5407   49.4788 H   0  0  0  0  0  0  0  0  0  0  0  0
   61.1165   33.3450   48.0701 H   0  0  0  0  0  0  0  0  0  0  0  0
   60.8643   31.4111   49.3163 H   0  0  0  0  0  0  0  0  0  0  0  0
   59.0644   31.6188   49.4472 H   0  0  0  0  0  0  0  0  0  0  0  0
   58.7950   30.4170   47.4960 H   0  0  0  0  0  0  0  0  0  0  0  0
   61.0964   29.7895   44.7427 H   0  0  0  0  0  0  0  0  0  0  0  0
   60.8709   28.4826   45.9610 H   0  0  0  0  0  0  0  0  0  0  0  0
   58.8348   27.5332   46.2679 H   0  0  0  0  0  0  0  0  0  0  0  0
   56.3834   27.4622   45.7962 H   0  0  0  0  0  0  0  0  0  0  0  0
   56.6865   31.3310   43.8859 H   0  0  0  0  0  0  0  0  0  0  0  0
   59.1346   31.3541   44.3817 H   0  0  0  0  0  0  0  0  0  0  0  0
   57.3476   32.7800   48.0096 H   0  0  0  0  0  0  0  0  0  0  0  0
   55.9983   33.2718   45.9727 H   0  0  0  0  0  0  0  0  0  0  0  0
   57.0879   34.2610   43.9569 H   0  0  0  0  0  0  0  0  0  0  0  0
   59.5340   34.7473   43.9727 H   0  0  0  0  0  0  0  0  0  0  0  0
   60.8955   34.2573   46.0011 H   0  0  0  0  0  0  0  0  0  0  0  0
  1  2  1  0
  2  3  1  0
  3  4  1  0
  4  5  1  0
  5  6  2  0
  5  7  1  0
  7  8  1  0
  8  9  1  0
  9 10  2  0
 10 11  1  0
 11 12  2  0
 11 13  1  0
 13 14  2  0
  2 15  1  0
 15 16  2  0
 16 17  1  0
 17 18  2  0
 18 19  1  0
 19 20  2  0
 14  8  1  0
 20 15  1  0
  1 21  1  0
  1 22  1  0
  1 23  1  0
  2 24  1  6
  3 25  1  0
  3 26  1  0
  4 27  1  0
  7 28  1  0
  7 29  1  0
  9 30  1  0
 10 31  1  0
 13 32  1  0
 14 33  1  0
 16 34  1  0
 17 35  1  0
 18 36  1  0
 19 37  1  0
 20 38  1  0
M  END
>  <UniqueID>  (76) 
68

>  <SMILES>  (76) 
C[C@@H](CNC(=O)Cn1ccc(=O)cc1)c1ccccc1

>  <Energy>  (76) 
34.29770112785173

>  <Genealogy>  (76) 
C[C@@H](CNC(=O)Cn1ccc(=O)cc1)c1ccccc1 (chirality)
C[C@@H](CNC(=O)Cn1ccc(=O)cc1)c1ccccc1 (3D coordinates assigned)
C[C@@H](CNC(=O)Cn1ccc(=O)cc1)c1ccccc1 (optimized conformer: 34.29770112785173 kcal/mol)

>  <smiles>  (76) 
CC(CNC(=O)Cn1ccc(=O)cc1)c1ccccc1

>  <score_type>  (76) 
oracle

>  <origin>  (76) 
adg

>  <m_score__min__energy>  (76) 
-6.75

>  <m_primary>  (76) 
energy

$$$$
76:0
     RDKit          3D

 48 51  0  0  0  0  0  0  0  0999 V2000
   65.1930   32.5780   51.5340 C   0  0  0  0  0  0  0  0  0  0  0  0
   64.2240   32.7070   50.4380 N   0  0  0  0  0  0  0  0  0  0  0  0
   64.6720   32.8740   49.1590 C   0  0  0  0  0  0  0  0  0  0  0  0
   63.7960   32.9930   48.1330 N   0  0  0  0  0  0  0  0  0  0  0  0
   62.4570   32.9520   48.3380 C   0  0  0  0  0  0  0  0  0  0  0  0
   61.5910   33.0780   47.2490 C   0  0  0  0  0  0  0  0  0  0  0  0
   60.2050   33.0330   47.4560 C   0  0  0  0  0  0  0  0  0  0  0  0
   59.2420   33.1650   46.3330 C   0  0  0  0  0  0  0  0  0  0  0  0
   58.8230   34.4430   45.9190 C   0  0  0  0  0  0  0  0  0  0  0  0
   57.9070   34.5850   44.8720 C   0  0  0  0  0  0  0  0  0  0  0  0
   57.3970   33.4560   44.2290 C   0  0  0  0  0  0  0  0  0  0  0  0
   57.7990   32.1770   44.6280 C   0  0  0  0  0  0  0  0  0  0  0  0
   57.1290   30.7520   43.8390 S   0  0  0  0  0  0  0  0  0  0  0  0
   58.3180   29.4980   43.8010 N   0  0  0  0  0  0  0  0  0  0  0  0
   56.7180   31.0950   42.4350 O   0  0  0  0  0  0  0  0  0  0  0  0
   55.9200   30.2730   44.5920 O   0  0  0  0  0  0  0  0  0  0  0  0
   58.7100   32.0330   45.6840 C   0  0  0  0  0  0  0  0  0  0  0  0
   59.7310   32.8870   48.7220 N   0  0  0  0  0  0  0  0  0  0  0  0
   60.5390   32.7640   49.8090 C   0  0  0  0  0  0  0  0  0  0  0  0
   59.9270   32.6240   51.0960 N   0  0  0  0  0  0  0  0  0  0  0  0
   59.7800   33.7930   51.9670 C   0  0  0  0  0  0  0  0  0  0  0  0
   58.3460   33.8960   52.5340 C   0  0  0  0  0  0  0  0  0  0  0  0
   57.6170   32.6130   52.5570 N   0  0  0  0  0  0  0  0  0  0  0  0
   58.5110   31.4650   52.7370 C   0  0  0  0  0  0  0  0  0  0  0  0
   59.3860   31.3210   51.4930 C   0  0  0  0  0  0  0  0  0  0  0  0
   61.9470   32.7890   49.6400 C   0  0  0  0  0  0  0  0  0  0  0  0
   62.8780   32.6620   50.6980 C   0  0  0  0  0  0  0  0  0  0  0  0
   62.4810   32.5030   51.8850 O   0  0  0  0  0  0  0  0  0  0  0  0
   64.6677   32.6479   52.4980 H   0  0  0  0  0  0  0  0  0  0  0  0
   65.7000   31.6044   51.4625 H   0  0  0  0  0  0  0  0  0  0  0  0
   65.9371   33.3850   51.4625 H   0  0  0  0  0  0  0  0  0  0  0  0
   65.7532   32.9122   48.9603 H   0  0  0  0  0  0  0  0  0  0  0  0
   61.9944   33.2118   46.2344 H   0  0  0  0  0  0  0  0  0  0  0  0
   59.2190   35.3371   46.4228 H   0  0  0  0  0  0  0  0  0  0  0  0
   57.5877   35.5886   44.5545 H   0  0  0  0  0  0  0  0  0  0  0  0
   56.6766   33.5724   43.4059 H   0  0  0  0  0  0  0  0  0  0  0  0
   59.2210   29.9420   43.5190 H   0  0  0  0  0  0  0  0  0  0  0  0
   58.0510   28.8470   43.0280 H   0  0  0  0  0  0  0  0  0  0  0  0
   59.0124   31.0266   46.0090 H   0  0  0  0  0  0  0  0  0  0  0  0
   60.4902   33.7084   52.8027 H   0  0  0  0  0  0  0  0  0  0  0  0
   59.9832   34.6959   51.3724 H   0  0  0  0  0  0  0  0  0  0  0  0
   58.4076   34.2775   53.5639 H   0  0  0  0  0  0  0  0  0  0  0  0
   57.7869   34.5683   51.8665 H   0  0  0  0  0  0  0  0  0  0  0  0
   56.9430   32.6300   53.3580 H   0  0  0  0  0  0  0  0  0  0  0  0
   59.1473   31.6270   53.6195 H   0  0  0  0  0  0  0  0  0  0  0  0
   57.9185   30.5500   52.8845 H   0  0  0  0  0  0  0  0  0  0  0  0
   60.2173   30.6347   51.7119 H   0  0  0  0  0  0  0  0  0  0  0  0
   58.7741   30.9227   50.6702 H   0  0  0  0  0  0  0  0  0  0  0  0
  1  2  1  0
  2  3  1  0
  3  4  2  0
  4  5  1  0
  5  6  2  0
  6  7  1  0
  7  8  1  0
  8  9  2  0
  9 10  1  0
 10 11  2  0
 11 12  1  0
 12 13  1  0
 13 14  1  0
 13 15  2  0
 13 16  2  0
 12 17  2  0
  7 18  2  0
 18 19  1  0
 19 20  1  0
 20 21  1  0
 21 22  1  0
 22 23  1  0
 23 24  1  0
 24 25  1  0
 19 26  2  0
 26 27  1  0
 27 28  2  0
 27  2  1  0
 26  5  1  0
 17  8  1  0
 25 20  1  0
  1 29  1  0
  1 30  1  0
  1 31  1  0
  3 32  1  0
  6 33  1  0
  9 34  1  0
 10 35  1  0
 11 36  1  0
 14 37  1  0
 14 38  1  0
 17 39  1  0
 21 40  1  0
 21 41  1  0
 22 42  1  0
 22 43  1  0
 23 44  1  0
 24 45  1  0
 24 46  1  0
 25 47  1  0
 25 48  1  0
M  END
>  <UniqueID>  (77) 
69

>  <SMILES>  (77) 
Cn1cnc2cc(-c3cccc(S(N)(=O)=O)c3)nc(N3CCNCC3)c2c1=O

>  <Energy>  (77) 
71.94612856125666

>  <Genealogy>  (77) 
Cn1cnc2cc(-c3cccc(S(N)(=O)=O)c3)nc(N3CCNCC3)c2c1=O (3D coordinates assigned)
Cn1cnc2cc(-c3cccc(S(N)(=O)=O)c3)nc(N3CCNCC3)c2c1=O (nonaromatic ring conformer: 71.94612856125666 kcal/mol)

>  <smiles>  (77) 
Cn1cnc2cc(-c3cccc(S(N)(=O)=O)c3)nc(N3CCNCC3)c2c1=O

>  <score_type>  (77) 
oracle

>  <origin>  (77) 
adg

>  <m_score__min__energy>  (77) 
-9.0700000000000003

>  <m_primary>  (77) 
energy

$$$$
77:0
     RDKit          3D

 57 60  0  0  0  0  0  0  0  0999 V2000
   57.2840   30.7590   44.2130 C   0  0  0  0  0  0  0  0  0  0  0  0
   57.2840   31.6140   45.3520 O   0  0  0  0  0  0  0  0  0  0  0  0
   58.0720   32.7700   45.4810 C   0  0  0  0  0  0  0  0  0  0  0  0
   58.5170   33.4950   44.3570 C   0  0  0  0  0  0  0  0  0  0  0  0
   59.3050   34.6390   44.5210 C   0  0  0  0  0  0  0  0  0  0  0  0
   59.6570   35.0700   45.8000 C   0  0  0  0  0  0  0  0  0  0  0  0
   59.2210   34.3610   46.9220 C   0  0  0  0  0  0  0  0  0  0  0  0
   58.4270   33.2130   46.7730 C   0  0  0  0  0  0  0  0  0  0  0  0
   57.9790   32.4460   47.9930 C   0  0  0  0  0  0  0  0  0  0  0  0
   59.1290   31.8230   48.6870 N   0  0  0  0  0  0  0  0  0  0  0  0
   58.8080   30.4740   49.2130 C   0  0  0  0  0  0  0  0  0  0  0  0
   58.5170   30.4260   50.7290 C   0  0  0  0  0  0  0  0  0  0  0  0
   58.0340   31.7200   51.2320 N   0  0  0  0  0  0  0  0  0  0  0  0
   57.0560   31.7830   52.2920 C   0  0  0  0  0  0  0  0  0  0  0  0
   57.0610   32.7570   53.0940 O   0  0  0  0  0  0  0  0  0  0  0  0
   56.0420   30.7250   52.4800 C   0  0  0  0  0  0  0  0  0  0  0  0
   54.7840   30.8880   51.8800 C   0  0  0  0  0  0  0  0  0  0  0  0
   53.7760   29.9290   52.0540 C   0  0  0  0  0  0  0  0  0  0  0  0
   52.4400   30.1070   51.3880 C   0  0  0  0  0  0  0  0  0  0  0  0
   51.6430   31.1560   52.1010 C   0  0  0  0  0  0  0  0  0  0  0  0
   51.4470   31.2550   53.7710 S   0  0  0  0  0  0  0  0  0  0  0  0
   50.5630   32.6810   53.6630 C   0  0  0  0  0  0  0  0  0  0  0  0
   50.0890   33.2990   54.6520 O   0  0  0  0  0  0  0  0  0  0  0  0
   50.4140   33.1070   52.3910 N   0  0  0  0  0  0  0  0  0  0  0  0
   51.0230   32.2600   51.5200 C   0  0  0  0  0  0  0  0  0  0  0  0
   51.0190   32.4950   50.1510 O   0  0  0  0  0  0  0  0  0  0  0  0
   54.0420   28.7830   52.8150 C   0  0  0  0  0  0  0  0  0  0  0  0
   55.2950   28.6010   53.4010 C   0  0  0  0  0  0  0  0  0  0  0  0
   56.3120   29.5540   53.2270 C   0  0  0  0  0  0  0  0  0  0  0  0
   57.6560   29.3070   53.8590 C   0  0  0  0  0  0  0  0  0  0  0  0
   58.7860   32.9350   50.8960 C   0  0  0  0  0  0  0  0  0  0  0  0
   59.7360   32.6950   49.7160 C   0  0  0  0  0  0  0  0  0  0  0  0
   58.3211   30.5389   43.9198 H   0  0  0  0  0  0  0  0  0  0  0  0
   56.7655   29.8206   44.4589 H   0  0  0  0  0  0  0  0  0  0  0  0
   56.7655   31.2572   43.3806 H   0  0  0  0  0  0  0  0  0  0  0  0
   58.2432   33.1594   43.3458 H   0  0  0  0  0  0  0  0  0  0  0  0
   59.6479   35.2001   43.6392 H   0  0  0  0  0  0  0  0  0  0  0  0
   60.2784   35.9689   45.9253 H   0  0  0  0  0  0  0  0  0  0  0  0
   59.5017   34.7045   47.9286 H   0  0  0  0  0  0  0  0  0  0  0  0
   57.4735   33.1359   48.6848 H   0  0  0  0  0  0  0  0  0  0  0  0
   57.2937   31.6484   47.6703 H   0  0  0  0  0  0  0  0  0  0  0  0
   57.9200   30.1011   48.6815 H   0  0  0  0  0  0  0  0  0  0  0  0
   59.7021   29.8549   49.0481 H   0  0  0  0  0  0  0  0  0  0  0  0
   57.7505   29.6606   50.9206 H   0  0  0  0  0  0  0  0  0  0  0  0
   59.4550   30.1844   51.2503 H   0  0  0  0  0  0  0  0  0  0  0  0
   54.5863   31.7789   51.2658 H   0  0  0  0  0  0  0  0  0  0  0  0
   52.5929   30.4144   50.3430 H   0  0  0  0  0  0  0  0  0  0  0  0
   51.8917   29.1540   51.4224 H   0  0  0  0  0  0  0  0  0  0  0  0
   53.2588   28.0227   52.9511 H   0  0  0  0  0  0  0  0  0  0  0  0
   55.4883   27.7024   54.0052 H   0  0  0  0  0  0  0  0  0  0  0  0
   57.5551   29.3255   54.9542 H   0  0  0  0  0  0  0  0  0  0  0  0
   58.0351   28.3241   53.5423 H   0  0  0  0  0  0  0  0  0  0  0  0
   58.3597   30.0909   53.5423 H   0  0  0  0  0  0  0  0  0  0  0  0
   58.0771   33.7325   50.6286 H   0  0  0  0  0  0  0  0  0  0  0  0
   59.3862   33.2245   51.7712 H   0  0  0  0  0  0  0  0  0  0  0  0
   59.9864   33.6635   49.2585 H   0  0  0  0  0  0  0  0  0  0  0  0
   60.6362   32.1929   50.1001 H   0  0  0  0  0  0  0  0  0  0  0  0
  1  2  1  0
  2  3  1  0
  3  4  2  0
  4  5  1  0
  5  6  2  0
  6  7  1  0
  7  8  2  0
  8  9  1  0
  9 10  1  0
 10 11  1  0
 11 12  1  0
 12 13  1  0
 13 14  1  0
 14 15  2  0
 14 16  1  0
 16 17  2  0
 17 18  1  0
 18 19  1  0
 19 20  1  0
 20 21  1  0
 21 22  1  0
 22 23  2  0
 22 24  1  0
 24 25  1  0
 25 26  1  0
 18 27  2  0
 27 28  1  0
 28 29  2  0
 29 30  1  0
 13 31  1  0
 31 32  1  0
  8  3  1  0
 32 10  1  0
 29 16  1  0
 25 20  2  0
  1 33  1  0
  1 34  1  0
  1 35  1  0
  4 36  1  0
  5 37  1  0
  6 38  1  0
  7 39  1  0
  9 40  1  0
  9 41  1  0
 11 42  1  0
 11 43  1  0
 12 44  1  0
 12 45  1  0
 17 46  1  0
 19 47  1  0
 19 48  1  0
 27 49  1  0
 28 50  1  0
 30 51  1  0
 30 52  1  0
 30 53  1  0
 31 54  1  0
 31 55  1  0
 32 56  1  0
 32 57  1  0
M  CHG  2  24  -1  26  -1
M  END
>  <UniqueID>  (78) 
70

>  <SMILES>  (78) 
COc1ccccc1CN1CCN(C(=O)c2cc(Cc3sc(=O)[n-]c3[O-])ccc2C)CC1

>  <Energy>  (78) 
103.60243114556498

>  <Genealogy>  (78) 
COc1ccccc1CN1CCN(C(=O)c2cc(Cc3sc(=O)[n-]c3[O-])ccc2C)CC1 (protonated)
COc1ccccc1CN1CCN(C(=O)c2cc(Cc3sc(=O)[n-]c3[O-])ccc2C)CC1 (3D coordinates assigned)
COc1ccccc1CN1CCN(C(=O)c2cc(Cc3sc(=O)[n-]c3[O-])ccc2C)CC1 (nonaromatic ring conformer: 103.60243114556498 kcal/mol)

>  <smiles>  (78) 
COc1ccccc1CN1CCN(C(=O)c2cc(Cc3sc(=O)[nH]c3O)ccc2C)CC1

>  <score_type>  (78) 
oracle

>  <origin>  (78) 
adg

>  <m_score__min__energy>  (78) 
-17.370000000000001

>  <m_primary>  (78) 
energy

$$$$
78:0
     RDKit          3D

 60 63  0  0  0  0  0  0  0  0999 V2000
   56.2870   19.8130   45.9100 C   0  0  0  0  0  0  0  0  0  0  0  0
   57.0580   20.3780   47.4610 S   0  0  0  0  0  0  0  0  0  0  0  0
   55.9490   21.8090   47.7100 C   0  0  0  0  0  0  0  0  0  0  0  0
   56.7500   23.0280   48.1790 C   0  0  0  0  0  0  0  0  0  0  0  0
   57.0520   24.0100   47.0250 C   0  0  2  0  0  0  0  0  0  0  0  0
   56.3190   25.2710   47.1850 N   0  0  0  0  0  0  0  0  0  0  0  0
   55.9910   26.2390   46.1800 C   0  0  0  0  0  0  0  0  0  0  0  0
   54.7970   26.3230   45.7850 O   0  0  0  0  0  0  0  0  0  0  0  0
   56.9960   27.1260   45.5820 C   0  0  0  0  0  0  0  0  0  0  0  0
   58.2730   26.6330   45.2850 C   0  0  0  0  0  0  0  0  0  0  0  0
   59.2310   27.4700   44.7050 C   0  0  0  0  0  0  0  0  0  0  0  0
   58.9080   28.7920   44.3940 C   0  0  0  0  0  0  0  0  0  0  0  0
   57.6190   29.2830   44.6500 C   0  0  0  0  0  0  0  0  0  0  0  0
   57.2020   30.9310   44.1800 S   0  0  0  0  0  0  0  0  0  0  0  0
   57.4250   31.1070   42.7030 O   0  0  0  0  0  0  0  0  0  0  0  0
   55.7450   31.1470   44.4870 O   0  0  0  0  0  0  0  0  0  0  0  0
   58.1730   32.0910   45.0500 N   0  0  0  0  0  0  0  0  0  0  0  0
   58.4290   33.3810   44.3930 C   0  0  0  0  0  0  0  0  0  0  0  0
   59.0350   34.4060   45.3520 C   0  0  0  0  0  0  0  0  0  0  0  0
   60.2670   33.8220   46.0370 C   0  0  0  0  0  0  0  0  0  0  0  0
   59.9110   32.5520   46.7570 C   0  0  0  0  0  0  0  0  0  0  0  0
   60.6310   32.1760   47.9010 C   0  0  0  0  0  0  0  0  0  0  0  0
   60.3030   31.0050   48.5860 C   0  0  0  0  0  0  0  0  0  0  0  0
   59.2550   30.2050   48.1380 C   0  0  0  0  0  0  0  0  0  0  0  0
   58.5450   30.5550   46.9850 C   0  0  0  0  0  0  0  0  0  0  0  0
   58.8820   31.7170   46.2580 C   0  0  0  0  0  0  0  0  0  0  0  0
   56.6620   28.4440   45.2380 C   0  0  0  0  0  0  0  0  0  0  0  0
   56.8610   23.4500   45.6230 C   0  0  0  0  0  0  0  0  0  0  0  0
   57.9310   22.7520   45.0330 C   0  0  0  0  0  0  0  0  0  0  0  0
   57.8090   22.2040   43.7530 C   0  0  0  0  0  0  0  0  0  0  0  0
   56.6140   22.3370   43.0470 C   0  0  0  0  0  0  0  0  0  0  0  0
   55.5400   23.0220   43.6170 C   0  0  0  0  0  0  0  0  0  0  0  0
   55.6560   23.5750   44.8960 C   0  0  0  0  0  0  0  0  0  0  0  0
   55.4197   19.1774   46.1420 H   0  0  0  0  0  0  0  0  0  0  0  0
   55.9570   20.6847   45.3258 H   0  0  0  0  0  0  0  0  0  0  0  0
   57.0188   19.2358   45.3258 H   0  0  0  0  0  0  0  0  0  0  0  0
   55.4468   22.0482   46.7610 H   0  0  0  0  0  0  0  0  0  0  0  0
   55.2034   21.5542   48.4776 H   0  0  0  0  0  0  0  0  0  0  0  0
   56.1709   23.5563   48.9507 H   0  0  0  0  0  0  0  0  0  0  0  0
   57.7110   22.6675   48.5746 H   0  0  0  0  0  0  0  0  0  0  0  0
   58.1321   24.1998   47.1111 H   0  0  0  0  0  0  0  0  0  0  0  0
   58.5226   25.5853   45.5085 H   0  0  0  0  0  0  0  0  0  0  0  0
   60.2401   27.0865   44.4936 H   0  0  0  0  0  0  0  0  0  0  0  0
   59.6667   29.4510   43.9467 H   0  0  0  0  0  0  0  0  0  0  0  0
   59.1268   33.2211   43.5578 H   0  0  0  0  0  0  0  0  0  0  0  0
   57.4659   33.7772   44.0389 H   0  0  0  0  0  0  0  0  0  0  0  0
   59.3246   35.3048   44.7878 H   0  0  0  0  0  0  0  0  0  0  0  0
   58.2888   34.6672   46.1168 H   0  0  0  0  0  0  0  0  0  0  0  0
   61.0353   33.6066   45.2798 H   0  0  0  0  0  0  0  0  0  0  0  0
   60.6502   34.5511   46.7661 H   0  0  0  0  0  0  0  0  0  0  0  0
   61.4577   32.8069   48.2596 H   0  0  0  0  0  0  0  0  0  0  0  0
   60.8729   30.7138   49.4806 H   0  0  0  0  0  0  0  0  0  0  0  0
   58.9846   29.2945   48.6929 H   0  0  0  0  0  0  0  0  0  0  0  0
   57.7161   29.9187   46.6415 H   0  0  0  0  0  0  0  0  0  0  0  0
   55.6464   28.8205   45.4301 H   0  0  0  0  0  0  0  0  0  0  0  0
   58.8749   22.6362   45.5859 H   0  0  0  0  0  0  0  0  0  0  0  0
   58.6567   21.6672   43.3021 H   0  0  0  0  0  0  0  0  0  0  0  0
   56.5178   21.9022   42.0412 H   0  0  0  0  0  0  0  0  0  0  0  0
   54.5985   23.1273   43.0579 H   0  0  0  0  0  0  0  0  0  0  0  0
   54.8036   24.1108   45.3390 H   0  0  0  0  0  0  0  0  0  0  0  0
  1  2  1  0
  2  3  1  0
  3  4  1  0
  4  5  1  0
  5  6  1  0
  6  7  1  0
  7  8  2  0
  7  9  1  0
  9 10  2  0
 10 11  1  0
 11 12  2  0
 12 13  1  0
 13 14  1  0
 14 15  2  0
 14 16  2  0
 14 17  1  0
 17 18  1  0
 18 19  1  0
 19 20  1  0
 20 21  1  0
 21 22  2  0
 22 23  1  0
 23 24  2  0
 24 25  1  0
 25 26  2  0
 13 27  2  0
  5 28  1  0
 28 29  2  0
 29 30  1  0
 30 31  2  0
 31 32  1  0
 32 33  2  0
 27  9  1  0
 33 28  1  0
 26 17  1  0
 26 21  1  0
  1 34  1  0
  1 35  1  0
  1 36  1  0
  3 37  1  0
  3 38  1  0
  4 39  1  0
  4 40  1  0
  5 41  1  6
 10 42  1  0
 11 43  1  0
 12 44  1  0
 18 45  1  0
 18 46  1  0
 19 47  1  0
 19 48  1  0
 20 49  1  0
 20 50  1  0
 22 51  1  0
 23 52  1  0
 24 53  1  0
 25 54  1  0
 27 55  1  0
 29 56  1  0
 30 57  1  0
 31 58  1  0
 32 59  1  0
 33 60  1  0
M  CHG  1   6  -1
M  END
>  <UniqueID>  (79) 
71

>  <SMILES>  (79) 
CSCC[C@H]([N-]C(=O)c1cccc(S(=O)(=O)N2CCCc3ccccc32)c1)c1ccccc1

>  <Energy>  (79) 
68.15005600628454

>  <Genealogy>  (79) 
CSCCC([N-]C(=O)c1cccc(S(=O)(=O)N2CCCc3ccccc32)c1)c1ccccc1 (protonated)
CSCC[C@H]([N-]C(=O)c1cccc(S(=O)(=O)N2CCCc3ccccc32)c1)c1ccccc1 (chirality)
CSCC[C@H]([N-]C(=O)c1cccc(S(=O)(=O)N2CCCc3ccccc32)c1)c1ccccc1 (3D coordinates assigned)
CSCC[C@H]([N-]C(=O)c1cccc(S(=O)(=O)N2CCCc3ccccc32)c1)c1ccccc1 (nonaromatic ring conformer: 68.15005600628454 kcal/mol)

>  <smiles>  (79) 
CSCCC(NC(=O)c1cccc(S(=O)(=O)N2CCCc3ccccc32)c1)c1ccccc1

>  <score_type>  (79) 
oracle

>  <origin>  (79) 
adg

>  <m_score__min__energy>  (79) 
-11.77

>  <m_primary>  (79) 
energy

$$$$
79:0
     RDKit          3D

 57 60  0  0  0  0  0  0  0  0999 V2000
   59.9620   30.4880   46.8360 C   0  0  0  0  0  0  0  0  0  0  0  0
   59.3120   29.3640   46.4960 C   0  0  0  0  0  0  0  0  0  0  0  0
   58.8010   29.1320   45.2590 N   0  0  0  0  0  0  0  0  0  0  0  0
   58.7470   30.0260   44.0960 C   0  0  0  0  0  0  0  0  0  0  0  0
   57.6030   30.9850   44.2540 C   0  0  0  0  0  0  0  0  0  0  0  0
   56.5440   30.5770   44.8020 O   0  0  0  0  0  0  0  0  0  0  0  0
   57.7230   32.3720   43.8910 N   0  0  0  0  0  0  0  0  0  0  0  0
   58.1420   32.7390   42.5340 C   0  0  0  0  0  0  0  0  0  0  0  0
   57.3020   33.4020   44.8480 C   0  0  0  0  0  0  0  0  0  0  0  0
   58.3420   33.5570   45.9250 C   0  0  0  0  0  0  0  0  0  0  0  0
   59.5920   34.1250   45.6290 C   0  0  0  0  0  0  0  0  0  0  0  0
   60.5400   34.3110   46.6420 C   0  0  0  0  0  0  0  0  0  0  0  0
   60.2420   33.9450   47.9560 C   0  0  0  0  0  0  0  0  0  0  0  0
   58.9950   33.3930   48.2610 C   0  0  0  0  0  0  0  0  0  0  0  0
   58.0450   33.2040   47.2510 C   0  0  0  0  0  0  0  0  0  0  0  0
   58.2280   27.9190   45.3460 C   0  0  0  0  0  0  0  0  0  0  0  0
   57.6210   27.3560   44.3950 O   0  0  0  0  0  0  0  0  0  0  0  0
   58.3740   27.4170   46.6230 C   0  0  0  0  0  0  0  0  0  0  0  0
   57.8460   26.2450   47.0290 C   0  0  0  0  0  0  0  0  0  0  0  0
   56.5760   25.6730   46.5590 C   0  0  0  0  0  0  0  0  0  0  0  0
   56.1800   24.4040   46.7750 N   0  0  0  0  0  0  0  0  0  0  0  0
   54.9290   24.3810   46.2640 C   0  0  0  0  0  0  0  0  0  0  0  0
   54.2180   23.3420   46.2640 O   0  0  0  0  0  0  0  0  0  0  0  0
   54.4980   25.5600   45.7610 N   0  0  0  0  0  0  0  0  0  0  0  0
   55.5480   26.3700   45.9680 C   0  0  0  0  0  0  0  0  0  0  0  0
   55.5670   27.7170   45.6240 O   0  0  0  0  0  0  0  0  0  0  0  0
   59.0980   28.3180   47.3510 N   0  0  0  0  0  0  0  0  0  0  0  0
   59.8660   28.0800   48.5930 C   0  0  0  0  0  0  0  0  0  0  0  0
   59.7380   29.2590   49.5260 C   0  0  0  0  0  0  0  0  0  0  0  0
   60.8910   29.8870   50.0220 C   0  0  0  0  0  0  0  0  0  0  0  0
   60.7830   30.9880   50.8770 C   0  0  0  0  0  0  0  0  0  0  0  0
   59.5240   31.4660   51.2490 C   0  0  0  0  0  0  0  0  0  0  0  0
   58.3680   30.8400   50.7740 C   0  0  0  0  0  0  0  0  0  0  0  0
   57.1190   31.3220   51.1580 O   0  0  0  0  0  0  0  0  0  0  0  0
   58.4750   29.7350   49.9140 C   0  0  0  0  0  0  0  0  0  0  0  0
   60.3510   30.6108   47.8576 H   0  0  0  0  0  0  0  0  0  0  0  0
   60.1058   31.2864   46.0931 H   0  0  0  0  0  0  0  0  0  0  0  0
   59.6894   30.5886   44.0220 H   0  0  0  0  0  0  0  0  0  0  0  0
   58.6024   29.4305   43.1825 H   0  0  0  0  0  0  0  0  0  0  0  0
   58.9684   33.4629   42.5886 H   0  0  0  0  0  0  0  0  0  0  0  0
   58.4777   31.8390   41.9979 H   0  0  0  0  0  0  0  0  0  0  0  0
   57.2941   33.1903   41.9979 H   0  0  0  0  0  0  0  0  0  0  0  0
   57.1768   34.3596   44.3215 H   0  0  0  0  0  0  0  0  0  0  0  0
   56.3481   33.1020   45.3064 H   0  0  0  0  0  0  0  0  0  0  0  0
   59.8269   34.4249   44.5971 H   0  0  0  0  0  0  0  0  0  0  0  0
   61.5214   34.7463   46.4024 H   0  0  0  0  0  0  0  0  0  0  0  0
   60.9884   34.0911   48.7507 H   0  0  0  0  0  0  0  0  0  0  0  0
   58.7598   33.1066   49.2967 H   0  0  0  0  0  0  0  0  0  0  0  0
   57.0615   32.7771   47.4970 H   0  0  0  0  0  0  0  0  0  0  0  0
   58.4131   25.6683   47.7745 H   0  0  0  0  0  0  0  0  0  0  0  0
   59.4782   27.1796   49.0918 H   0  0  0  0  0  0  0  0  0  0  0  0
   60.9266   27.9429   48.3354 H   0  0  0  0  0  0  0  0  0  0  0  0
   61.8846   29.5111   49.7366 H   0  0  0  0  0  0  0  0  0  0  0  0
   61.6910   31.4788   51.2575 H   0  0  0  0  0  0  0  0  0  0  0  0
   59.4423   32.3363   51.9167 H   0  0  0  0  0  0  0  0  0  0  0  0
   56.6670   32.0770   50.6580 H   0  0  0  0  0  0  0  0  0  0  0  0
   57.5655   29.2401   49.5426 H   0  0  0  0  0  0  0  0  0  0  0  0
  1  2  2  0
  2  3  1  0
  3  4  1  0
  4  5  1  0
  5  6  2  0
  5  7  1  0
  7  8  1  0
  7  9  1  0
  9 10  1  0
 10 11  2  0
 11 12  1  0
 12 13  2  0
 13 14  1  0
 14 15  2  0
  3 16  1  0
 16 17  2  0
 16 18  1  0
 18 19  2  3
 19 20  1  0
 20 21  1  0
 21 22  1  0
 22 23  2  0
 22 24  1  0
 24 25  1  0
 25 26  1  0
 18 27  1  0
 27 28  1  0
 28 29  1  0
 29 30  2  0
 30 31  1  0
 31 32  2  0
 32 33  1  0
 33 34  1  0
 33 35  2  0
 27  2  1  0
 35 29  1  0
 15 10  1  0
 25 20  2  0
  1 36  1  0
  1 37  1  0
  4 38  1  0
  4 39  1  0
  8 40  1  0
  8 41  1  0
  8 42  1  0
  9 43  1  0
  9 44  1  0
 11 45  1  0
 12 46  1  0
 13 47  1  0
 14 48  1  0
 15 49  1  0
 19 50  1  0
 28 51  1  0
 28 52  1  0
 30 53  1  0
 31 54  1  0
 32 55  1  0
 34 56  1  0
 35 57  1  0
M  CHG  3  21  -1  24  -1  26  -1
M  END
>  <UniqueID>  (80) 
72

>  <SMILES>  (80) 
C=c1n(CC(=O)N(C)Cc2ccccc2)c(=O)c(=Cc2[n-]c(=O)[n-]c2[O-])n1Cc1cccc(O)c1

>  <Energy>  (80) 
133.34767321574907

>  <Genealogy>  (80) 
C=c1n(CC(=O)N(C)Cc2ccccc2)c(=O)c(=Cc2[n-]c(=O)[n-]c2[O-])n1Cc1cccc(O)c1 (protonated)
C=c1n(CC(=O)N(C)Cc2ccccc2)c(=O)c(=Cc2[n-]c(=O)[n-]c2[O-])n1Cc1cccc(O)c1 (3D coordinates assigned)
C=c1n(CC(=O)N(C)Cc2ccccc2)c(=O)c(=Cc2[n-]c(=O)[n-]c2[O-])n1Cc1cccc(O)c1 (optimized conformer: 133.34767321574907 kcal/mol)

>  <smiles>  (80) 
C=c1n(CC(=O)N(C)Cc2ccccc2)c(=O)c(=Cc2[nH]c(=O)[nH]c2O)n1Cc1cccc(O)c1

>  <score_type>  (80) 
oracle

>  <origin>  (80) 
adg

>  <m_score__min__energy>  (80) 
-16.23

>  <m_primary>  (80) 
energy

$$$$
80:0
     RDKit          3D

 56 58  0  0  0  0  0  0  0  0999 V2000
   55.3160   30.7580   54.6180 O   0  0  0  0  0  0  0  0  0  0  0  0
   55.6860   30.5860   53.4260 C   0  0  0  0  0  0  0  0  0  0  0  0
   56.8970   31.3040   52.9100 C   0  0  0  0  0  0  0  0  0  0  0  0
   57.2290   30.8690   51.4730 C   0  0  0  0  0  0  0  0  0  0  0  0
   58.0600   31.9240   50.7240 C   0  0  0  0  0  0  0  0  0  0  0  0
   59.5580   31.5850   50.7560 C   0  0  0  0  0  0  0  0  0  0  0  0
   60.3310   32.3550   49.6820 C   0  0  0  0  0  0  0  0  0  0  0  0
   59.5180   33.4570   49.1770 N   0  0  0  0  0  0  0  0  0  0  0  0
   59.6300   33.9760   47.8490 C   0  0  0  0  0  0  0  0  0  0  0  0
   60.4310   34.9220   47.6150 O   0  0  0  0  0  0  0  0  0  0  0  0
   58.8220   33.3920   46.7510 C   0  0  0  0  0  0  0  0  0  0  0  0
   58.0200   34.2180   45.9440 C   0  0  0  0  0  0  0  0  0  0  0  0
   57.2750   33.6740   44.8950 C   0  0  0  0  0  0  0  0  0  0  0  0
   57.3210   32.3020   44.6380 C   0  0  0  0  0  0  0  0  0  0  0  0
   58.1110   31.4540   45.4310 C   0  0  0  0  0  0  0  0  0  0  0  0
   58.1620   29.9970   45.1500 C   0  0  0  0  0  0  0  0  0  0  0  0
   59.3690   29.3830   44.7660 C   0  0  0  0  0  0  0  0  0  0  0  0
   59.4120   28.0110   44.4980 C   0  0  0  0  0  0  0  0  0  0  0  0
   58.2560   27.2380   44.6120 C   0  0  0  0  0  0  0  0  0  0  0  0
   57.0540   27.8330   45.0000 C   0  0  0  0  0  0  0  0  0  0  0  0
   57.0040   29.2050   45.2670 C   0  0  0  0  0  0  0  0  0  0  0  0
   58.8590   32.0080   46.4880 C   0  0  0  0  0  0  0  0  0  0  0  0
   55.0160   29.6400   52.5870 N   0  0  0  0  0  0  0  0  0  0  0  0
   53.6160   29.2670   52.7510 C   0  0  0  0  0  0  0  0  0  0  0  0
   52.7250   30.0760   51.8490 C   0  0  0  0  0  0  0  0  0  0  0  0
   52.5470   29.7090   50.5050 C   0  0  0  0  0  0  0  0  0  0  0  0
   51.7370   30.4800   49.6650 C   0  0  0  0  0  0  0  0  0  0  0  0
   51.0970   31.6190   50.1600 C   0  0  0  0  0  0  0  0  0  0  0  0
   50.2950   32.3830   49.3190 O   0  0  0  0  0  0  0  0  0  0  0  0
   51.2620   31.9870   51.5010 C   0  0  0  0  0  0  0  0  0  0  0  0
   50.6250   33.1180   51.9990 O   0  0  0  0  0  0  0  0  0  0  0  0
   52.0720   31.2170   52.3440 C   0  0  0  0  0  0  0  0  0  0  0  0
   56.7047   32.3870   52.9220 H   0  0  0  0  0  0  0  0  0  0  0  0
   57.7518   31.0556   53.5562 H   0  0  0  0  0  0  0  0  0  0  0  0
   57.7999   29.9295   51.5103 H   0  0  0  0  0  0  0  0  0  0  0  0
   56.2802   30.7398   50.9316 H   0  0  0  0  0  0  0  0  0  0  0  0
   57.7250   31.9660   49.6771 H   0  0  0  0  0  0  0  0  0  0  0  0
   57.9145   32.8949   51.2201 H   0  0  0  0  0  0  0  0  0  0  0  0
   59.9627   31.8472   51.7447 H   0  0  0  0  0  0  0  0  0  0  0  0
   59.6725   30.5089   50.5586 H   0  0  0  0  0  0  0  0  0  0  0  0
   61.2583   32.7558   50.1172 H   0  0  0  0  0  0  0  0  0  0  0  0
   60.5727   31.6742   48.8525 H   0  0  0  0  0  0  0  0  0  0  0  0
   57.9789   35.2996   46.1399 H   0  0  0  0  0  0  0  0  0  0  0  0
   56.6501   34.3283   44.2694 H   0  0  0  0  0  0  0  0  0  0  0  0
   56.7338   31.8823   43.8079 H   0  0  0  0  0  0  0  0  0  0  0  0
   60.2844   29.9862   44.6761 H   0  0  0  0  0  0  0  0  0  0  0  0
   60.3594   27.5402   44.1966 H   0  0  0  0  0  0  0  0  0  0  0  0
   58.2916   26.1600   44.3962 H   0  0  0  0  0  0  0  0  0  0  0  0
   56.1446   27.2216   45.0959 H   0  0  0  0  0  0  0  0  0  0  0  0
   56.0536   29.6683   45.5704 H   0  0  0  0  0  0  0  0  0  0  0  0
   59.4798   31.3522   47.1161 H   0  0  0  0  0  0  0  0  0  0  0  0
   53.4986   28.2007   52.5079 H   0  0  0  0  0  0  0  0  0  0  0  0
   53.3245   29.4632   53.7934 H   0  0  0  0  0  0  0  0  0  0  0  0
   53.0467   28.8115   50.1115 H   0  0  0  0  0  0  0  0  0  0  0  0
   51.6036   30.1890   48.6126 H   0  0  0  0  0  0  0  0  0  0  0  0
   52.1976   31.5064   53.3978 H   0  0  0  0  0  0  0  0  0  0  0  0
  1  2  2  0
  2  3  1  0
  3  4  1  0
  4  5  1  0
  5  6  1  0
  6  7  1  0
  7  8  1  0
  8  9  1  0
  9 10  2  0
  9 11  1  0
 11 12  2  0
 12 13  1  0
 13 14  2  0
 14 15  1  0
 15 16  1  0
 16 17  2  0
 17 18  1  0
 18 19  2  0
 19 20  1  0
 20 21  2  0
 15 22  2  0
  2 23  1  0
 23 24  1  0
 24 25  1  0
 25 26  2  0
 26 27  1  0
 27 28  2  0
 28 29  1  0
 28 30  1  0
 30 31  1  0
 30 32  2  0
 22 11  1  0
 32 25  1  0
 21 16  1  0
  3 33  1  0
  3 34  1  0
  4 35  1  0
  4 36  1  0
  5 37  1  0
  5 38  1  0
  6 39  1  0
  6 40  1  0
  7 41  1  0
  7 42  1  0
 12 43  1  0
 13 44  1  0
 14 45  1  0
 17 46  1  0
 18 47  1  0
 19 48  1  0
 20 49  1  0
 21 50  1  0
 22 51  1  0
 24 52  1  0
 24 53  1  0
 26 54  1  0
 27 55  1  0
 32 56  1  0
M  CHG  4   8  -1  23  -1  29  -1  31  -1
M  END
>  <UniqueID>  (81) 
73

>  <SMILES>  (81) 
O=C(CCCCC[N-]C(=O)c1cccc(-c2ccccc2)c1)[N-]Cc1ccc([O-])c([O-])c1

>  <Energy>  (81) 
46.86188494556553

>  <Genealogy>  (81) 
O=C(CCCCC[N-]C(=O)c1cccc(-c2ccccc2)c1)[N-]Cc1ccc([O-])c([O-])c1 (protonated)
O=C(CCCCC[N-]C(=O)c1cccc(-c2ccccc2)c1)[N-]Cc1ccc([O-])c([O-])c1 (3D coordinates assigned)
O=C(CCCCC[N-]C(=O)c1cccc(-c2ccccc2)c1)[N-]Cc1ccc([O-])c([O-])c1 (optimized conformer: 46.86188494556553 kcal/mol)

>  <smiles>  (81) 
O=C(CCCCCNC(=O)c1cccc(-c2ccccc2)c1)NCc1ccc(O)c(O)c1

>  <score_type>  (81) 
oracle

>  <origin>  (81) 
adg

>  <m_score__min__energy>  (81) 
-20.030000000000001

>  <m_primary>  (81) 
energy

$$$$
81:0
     RDKit          3D

 56 59  0  0  0  0  0  0  0  0999 V2000
   60.3165   34.3616   46.8916 H   0  0  0  0  0  0  0  0  0  0  0  0
   59.5950   33.6590   46.4490 C   0  0  0  0  0  0  0  0  0  0  0  0
   59.0550   32.6150   47.2290 C   0  0  0  0  0  0  0  0  0  0  0  0
   59.4120   32.4600   48.7170 C   0  0  1  0  0  0  0  0  0  0  0  0
   58.1000   32.3220   49.5150 C   0  0  0  0  0  0  0  0  0  0  0  0
   58.3218   32.3453   50.5922 H   0  0  0  0  0  0  0  0  0  0  0  0
   57.4271   33.1543   49.2611 H   0  0  0  0  0  0  0  0  0  0  0  0
   57.6150   31.3679   49.2611 H   0  0  0  0  0  0  0  0  0  0  0  0
   60.3380   31.2210   48.9840 C   0  0  0  0  0  0  0  0  0  0  0  0
   59.9454   30.6678   49.8499 H   0  0  0  0  0  0  0  0  0  0  0  0
   60.3383   30.6030   48.0740 H   0  0  0  0  0  0  0  0  0  0  0  0
   61.6790   31.5910   49.2520 O   0  0  0  0  0  0  0  0  0  0  0  0
   62.1040   32.5920   48.3390 C   0  0  2  0  0  0  0  0  0  0  0  0
   61.8499   32.2436   47.3271 H   0  0  0  0  0  0  0  0  0  0  0  0
   63.5870   32.7960   48.4790 C   0  0  0  0  0  0  0  0  0  0  0  0
   64.2100   33.4400   47.5910 O   0  0  0  0  0  0  0  0  0  0  0  0
   64.3040   32.2010   49.5710 N   0  0  0  0  0  0  0  0  0  0  0  0
   63.7900   31.6220   50.2700 H   0  0  0  0  0  0  0  0  0  0  0  0
   65.7440   32.3720   49.7480 C   0  0  0  0  0  0  0  0  0  0  0  0
   66.1759   31.4372   50.1347 H   0  0  0  0  0  0  0  0  0  0  0  0
   66.1973   32.6224   48.7775 H   0  0  0  0  0  0  0  0  0  0  0  0
   66.0200   33.4860   50.7200 C   0  0  0  0  0  0  0  0  0  0  0  0
   64.9590   34.0810   51.4250 C   0  0  0  0  0  0  0  0  0  0  0  0
   63.9313   33.7169   51.2790 H   0  0  0  0  0  0  0  0  0  0  0  0
   65.2060   35.1340   52.3110 C   0  0  0  0  0  0  0  0  0  0  0  0
   64.3734   35.5933   52.8640 H   0  0  0  0  0  0  0  0  0  0  0  0
   66.5100   35.6040   52.4950 C   0  0  0  0  0  0  0  0  0  0  0  0
   66.7026   36.4320   53.1931 H   0  0  0  0  0  0  0  0  0  0  0  0
   67.5690   35.0220   51.7920 C   0  0  0  0  0  0  0  0  0  0  0  0
   68.5941   35.3939   51.9362 H   0  0  0  0  0  0  0  0  0  0  0  0
   67.3270   33.9680   50.9060 C   0  0  0  0  0  0  0  0  0  0  0  0
   68.1624   33.5144   50.3526 H   0  0  0  0  0  0  0  0  0  0  0  0
   61.4400   33.8370   48.5470 O   0  0  0  0  0  0  0  0  0  0  0  0
   60.2100   33.6850   49.2310 C   0  0  0  0  0  0  0  0  0  0  0  0
   60.4134   33.5525   50.3039 H   0  0  0  0  0  0  0  0  0  0  0  0
   59.6056   34.5863   49.0510 H   0  0  0  0  0  0  0  0  0  0  0  0
   58.1150   31.8050   46.6620 N   0  0  0  0  0  0  0  0  0  0  0  0
   57.7190   31.9240   45.3630 C   0  0  0  0  0  0  0  0  0  0  0  0
   56.7930   31.1530   44.8680 N   0  0  0  0  0  0  0  0  0  0  0  0
   56.6860   29.7340   45.0580 C   0  0  0  0  0  0  0  0  0  0  0  0
   55.5710   29.1850   44.8490 O   0  0  0  0  0  0  0  0  0  0  0  0
   57.8550   28.8920   45.4100 C   0  0  0  0  0  0  0  0  0  0  0  0
   57.7320   27.8750   46.3760 C   0  0  0  0  0  0  0  0  0  0  0  0
   56.7526   27.6718   46.8338 H   0  0  0  0  0  0  0  0  0  0  0  0
   58.8460   27.1220   46.7570 C   0  0  0  0  0  0  0  0  0  0  0  0
   58.7409   26.3307   47.5138 H   0  0  0  0  0  0  0  0  0  0  0  0
   60.0920   27.3720   46.1790 C   0  0  0  0  0  0  0  0  0  0  0  0
   61.1760   26.6550   46.5630 F   0  0  0  0  0  0  0  0  0  0  0  0
   60.2260   28.3720   45.2120 C   0  0  0  0  0  0  0  0  0  0  0  0
   61.2061   28.5602   44.7495 H   0  0  0  0  0  0  0  0  0  0  0  0
   59.1170   29.1340   44.8310 C   0  0  0  0  0  0  0  0  0  0  0  0
   59.2750   30.0970   43.8870 F   0  0  0  0  0  0  0  0  0  0  0  0
   58.2740   32.9280   44.5640 C   0  0  0  0  0  0  0  0  0  0  0  0
   57.8910   33.0780   43.2710 F   0  0  0  0  0  0  0  0  0  0  0  0
   59.2120   33.7980   45.1160 C   0  0  0  0  0  0  0  0  0  0  0  0
   59.6510   34.5958   44.4989 H   0  0  0  0  0  0  0  0  0  0  0  0
  1  2  1  0
  2  3  2  0
  3  4  1  0
  4  5  1  1
  5  6  1  0
  5  7  1  0
  5  8  1  0
  4  9  1  0
  9 10  1  0
  9 11  1  0
  9 12  1  0
 12 13  1  0
 13 14  1  6
 13 15  1  0
 15 16  2  0
 15 17  1  0
 17 18  1  0
 17 19  1  0
 19 20  1  0
 19 21  1  0
 19 22  1  0
 22 23  2  0
 23 24  1  0
 23 25  1  0
 25 26  1  0
 25 27  2  0
 27 28  1  0
 27 29  1  0
 29 30  1  0
 29 31  2  0
 31 32  1  0
 13 33  1  0
 33 34  1  0
 34 35  1  0
 34 36  1  0
  3 37  1  0
 37 38  1  0
 38 39  2  0
 39 40  1  0
 40 41  2  0
 40 42  1  0
 42 43  2  0
 43 44  1  0
 43 45  1  0
 45 46  1  0
 45 47  2  0
 47 48  1  0
 47 49  1  0
 49 50  1  0
 49 51  2  0
 51 52  1  0
 38 53  1  0
 53 54  1  0
 53 55  2  0
 55 56  1  0
 55  2  1  0
 34  4  1  0
 51 42  1  0
 31 22  1  0
M  CHG  1  37  -1
M  END
>  <UniqueID>  (82) 
74

>  <SMILES>  (82) 
CC1(c2ccc(F)/c(=N/C(=O)c3ccc(F)cc3F)[n-]2)COC(C(=O)NCc2ccccc2)OC1

>  <Energy>  (82) 
79.63240594331324

>  <Genealogy>  (82) 
CC1(c2ccc(F)c(=NC(=O)c3ccc(F)cc3F)[n-]2)COC(C(=O)NCc2ccccc2)OC1 (protonated)
CC1(c2ccc(F)/c(=N/C(=O)c3ccc(F)cc3F)[n-]2)COC(C(=O)NCc2ccccc2)OC1 (cis-trans isomerization)
CC1(c2ccc(F)/c(=N/C(=O)c3ccc(F)cc3F)[n-]2)COC(C(=O)NCc2ccccc2)OC1 (3D coordinates assigned)
CC1(c2ccc(F)/c(=N/C(=O)c3ccc(F)cc3F)[n-]2)COC(C(=O)NCc2ccccc2)OC1 (nonaromatic ring conformer: 79.63240594331324 kcal/mol)

>  <smiles>  (82) 
CC1(c2ccc(F)c(=NC(=O)c3ccc(F)cc3F)[nH]2)COC(C(=O)NCc2ccccc2)OC1

>  <score_type>  (82) 
oracle

>  <origin>  (82) 
adg

>  <m_score__min__energy>  (82) 
-10.57

>  <m_primary>  (82) 
energy

$$$$
82:0
     RDKit          3D

 63 66  0  0  0  0  0  0  0  0999 V2000
   58.5550   31.0540   48.2550 O   0  0  0  0  0  0  0  0  0  0  0  0
   58.7110   31.2700   47.0230 C   0  0  0  0  0  0  0  0  0  0  0  0
   59.0440   30.1180   46.1220 C   0  0  0  0  0  0  0  0  0  0  0  0
   59.5130   28.9480   46.9300 C   0  0  0  0  0  0  0  0  0  0  0  0
   59.8990   29.0180   48.2220 N   0  0  0  0  0  0  0  0  0  0  0  0
   60.3060   27.8140   48.7140 C   0  0  0  0  0  0  0  0  0  0  0  0
   60.8390   27.6570   50.0830 C   0  0  0  0  0  0  0  0  0  0  0  0
   61.1440   26.5130   50.5170 O   0  0  0  0  0  0  0  0  0  0  0  0
   61.0520   28.8040   50.9130 N   0  0  0  0  0  0  0  0  0  0  0  0
   62.4240   29.2350   51.2020 C   0  0  0  0  0  0  0  0  0  0  0  0
   62.4500   30.6760   51.7300 C   0  0  0  0  0  0  0  0  0  0  0  0
   61.3890   31.4660   51.0830 N   0  0  0  0  0  0  0  0  0  0  0  0
   61.6290   32.6910   50.3420 C   0  0  0  0  0  0  0  0  0  0  0  0
   60.6330   33.3910   49.9970 O   0  0  0  0  0  0  0  0  0  0  0  0
   63.0240   33.1470   49.9220 C   0  0  0  0  0  0  0  0  0  0  0  0
   63.8120   32.0110   49.2410 C   0  0  0  0  0  0  0  0  0  0  0  0
   63.1820   31.5720   47.9080 C   0  0  0  0  0  0  0  0  0  0  0  0
   62.4880   32.7160   47.1430 C   0  0  0  0  0  0  0  0  0  0  0  0
   63.0780   34.0850   47.4900 C   0  0  0  0  0  0  0  0  0  0  0  0
   63.0090   34.4040   49.0020 C   0  0  0  0  0  0  0  0  0  0  0  0
   59.9970   31.0030   51.2410 C   0  0  0  0  0  0  0  0  0  0  0  0
   59.9170   29.4960   51.5240 C   0  0  0  0  0  0  0  0  0  0  0  0
   60.2370   26.7620   47.8010 C   0  0  0  0  0  0  0  0  0  0  0  0
   59.6520   27.3760   46.3480 S   0  0  0  0  0  0  0  0  0  0  0  0
   58.6080   32.6140   46.5130 N   0  0  0  0  0  0  0  0  0  0  0  0
   59.0020   33.7510   47.3560 C   0  0  0  0  0  0  0  0  0  0  0  0
   59.8750   34.7130   46.5430 C   0  0  0  0  0  0  0  0  0  0  0  0
   59.2680   35.0830   45.1720 C   0  0  0  0  0  0  0  0  0  0  0  0
   57.9460   34.3590   44.8700 C   0  0  0  0  0  0  0  0  0  0  0  0
   58.0540   32.8590   45.1710 C   0  0  0  0  0  0  0  0  0  0  0  0
   58.1474   29.8307   45.5532 H   0  0  0  0  0  0  0  0  0  0  0  0
   59.8451   30.4219   45.4322 H   0  0  0  0  0  0  0  0  0  0  0  0
   59.9140   29.9050   48.7700 H   0  0  0  0  0  0  0  0  0  0  0  0
   62.8586   28.5666   51.9599 H   0  0  0  0  0  0  0  0  0  0  0  0
   63.0073   29.1933   50.2703 H   0  0  0  0  0  0  0  0  0  0  0  0
   62.2875   30.6688   52.8179 H   0  0  0  0  0  0  0  0  0  0  0  0
   63.4271   31.1273   51.5030 H   0  0  0  0  0  0  0  0  0  0  0  0
   63.5322   33.4292   50.8558 H   0  0  0  0  0  0  0  0  0  0  0  0
   64.8374   32.3595   49.0484 H   0  0  0  0  0  0  0  0  0  0  0  0
   63.7992   31.1438   49.9177 H   0  0  0  0  0  0  0  0  0  0  0  0
   63.9757   31.1583   47.2686 H   0  0  0  0  0  0  0  0  0  0  0  0
   62.4065   30.8299   48.1485 H   0  0  0  0  0  0  0  0  0  0  0  0
   62.6061   32.5428   46.0632 H   0  0  0  0  0  0  0  0  0  0  0  0
   61.4272   32.7219   47.4339 H   0  0  0  0  0  0  0  0  0  0  0  0
   64.1318   34.1031   47.1751 H   0  0  0  0  0  0  0  0  0  0  0  0
   62.4808   34.8448   46.9646 H   0  0  0  0  0  0  0  0  0  0  0  0
   63.8741   35.0318   49.2618 H   0  0  0  0  0  0  0  0  0  0  0  0
   62.0476   34.9100   49.1744 H   0  0  0  0  0  0  0  0  0  0  0  0
   59.5358   31.5460   52.0791 H   0  0  0  0  0  0  0  0  0  0  0  0
   59.4663   31.1986   50.2976 H   0  0  0  0  0  0  0  0  0  0  0  0
   59.9330   29.3295   52.6112 H   0  0  0  0  0  0  0  0  0  0  0  0
   58.9841   29.1005   51.0960 H   0  0  0  0  0  0  0  0  0  0  0  0
   60.5157   25.7160   47.9963 H   0  0  0  0  0  0  0  0  0  0  0  0
   58.1016   34.2785   47.7041 H   0  0  0  0  0  0  0  0  0  0  0  0
   59.5710   33.3841   48.2230 H   0  0  0  0  0  0  0  0  0  0  0  0
   60.0109   35.6366   47.1248 H   0  0  0  0  0  0  0  0  0  0  0  0
   60.8283   34.2000   46.3480 H   0  0  0  0  0  0  0  0  0  0  0  0
   59.0829   36.1672   45.1546 H   0  0  0  0  0  0  0  0  0  0  0  0
   59.9905   34.7702   44.4038 H   0  0  0  0  0  0  0  0  0  0  0  0
   57.1490   34.7932   45.4915 H   0  0  0  0  0  0  0  0  0  0  0  0
   57.7163   34.4843   43.8016 H   0  0  0  0  0  0  0  0  0  0  0  0
   57.0517   32.4098   45.1111 H   0  0  0  0  0  0  0  0  0  0  0  0
   58.7316   32.4076   44.4314 H   0  0  0  0  0  0  0  0  0  0  0  0
  1  2  2  0
  2  3  1  0
  3  4  1  0
  4  5  2  0
  5  6  1  0
  6  7  1  0
  7  8  2  0
  7  9  1  0
  9 10  1  0
 10 11  1  0
 11 12  1  0
 12 13  1  0
 13 14  2  0
 13 15  1  0
 15 16  1  0
 16 17  1  0
 17 18  1  0
 18 19  1  0
 19 20  1  0
 12 21  1  0
 21 22  1  0
  6 23  2  0
 23 24  1  0
  2 25  1  0
 25 26  1  0
 26 27  1  0
 27 28  1  0
 28 29  1  0
 29 30  1  0
 24  4  1  0
 30 25  1  0
 22  9  1  0
 20 15  1  0
  3 31  1  0
  3 32  1  0
  5 33  1  0
 10 34  1  0
 10 35  1  0
 11 36  1  0
 11 37  1  0
 15 38  1  0
 16 39  1  0
 16 40  1  0
 17 41  1  0
 17 42  1  0
 18 43  1  0
 18 44  1  0
 19 45  1  0
 19 46  1  0
 20 47  1  0
 20 48  1  0
 21 49  1  0
 21 50  1  0
 22 51  1  0
 22 52  1  0
 23 53  1  0
 26 54  1  0
 26 55  1  0
 27 56  1  0
 27 57  1  0
 28 58  1  0
 28 59  1  0
 29 60  1  0
 29 61  1  0
 30 62  1  0
 30 63  1  0
M  CHG  1   5   1
M  END
>  <UniqueID>  (83) 
75

>  <SMILES>  (83) 
O=C(Cc1[nH+]c(C(=O)N2CCN(C(=O)C3CCCCC3)CC2)cs1)N1CCCCC1

>  <Energy>  (83) 
100.79226299530328

>  <Genealogy>  (83) 
O=C(Cc1[nH+]c(C(=O)N2CCN(C(=O)C3CCCCC3)CC2)cs1)N1CCCCC1 (protonated)
O=C(Cc1[nH+]c(C(=O)N2CCN(C(=O)C3CCCCC3)CC2)cs1)N1CCCCC1 (3D coordinates assigned)
O=C(Cc1[nH+]c(C(=O)N2CCN(C(=O)C3CCCCC3)CC2)cs1)N1CCCCC1 (nonaromatic ring conformer: 100.79226299530328 kcal/mol)

>  <smiles>  (83) 
O=C(Cc1nc(C(=O)N2CCN(C(=O)C3CCCCC3)CC2)cs1)N1CCCCC1

>  <score_type>  (83) 
oracle

>  <origin>  (83) 
adg

>  <m_score__min__energy>  (83) 
-7.7300000000000004

>  <m_primary>  (83) 
energy

$$$$
83:0
     RDKit          3D

 65 69  0  0  0  0  0  0  0  0999 V2000
   54.7010   24.2640   44.9010 C   0  0  0  0  0  0  0  0  0  0  0  0
   55.5880   23.2570   44.8800 C   0  0  0  0  0  0  0  0  0  0  0  0
   55.5030   22.0430   45.5810 C   0  0  0  0  0  0  0  0  0  0  0  0
   54.4850   21.4870   46.2690 C   0  0  0  0  0  0  0  0  0  0  0  0
   53.1110   22.0130   46.3360 C   0  0  0  0  0  0  0  0  0  0  0  0
   52.3270   22.2320   45.2640 N   0  0  0  0  0  0  0  0  0  0  0  0
   51.1460   22.5940   45.8100 C   0  0  0  0  0  0  0  0  0  0  0  0
   50.1430   22.8990   45.1150 O   0  0  0  0  0  0  0  0  0  0  0  0
   51.1230   22.5980   47.1610 N   0  0  0  0  0  0  0  0  0  0  0  0
   52.3710   22.2150   47.4800 C   0  0  0  0  0  0  0  0  0  0  0  0
   52.8090   22.0460   48.7890 O   0  0  0  0  0  0  0  0  0  0  0  0
   56.7250   21.4150   45.4210 C   0  0  0  0  0  0  0  0  0  0  0  0
   57.4810   22.2160   44.5940 C   0  0  0  0  0  0  0  0  0  0  0  0
   58.8560   21.8650   44.1040 C   0  0  0  0  0  0  0  0  0  0  0  0
   56.7930   23.3330   44.2540 N   0  0  0  0  0  0  0  0  0  0  0  0
   57.3090   24.4520   43.4470 C   0  0  0  0  0  0  0  0  0  0  0  0
   57.7770   25.5840   44.3290 C   0  0  0  0  0  0  0  0  0  0  0  0
   58.1480   26.8160   43.7680 C   0  0  0  0  0  0  0  0  0  0  0  0
   58.5580   27.8720   44.5870 C   0  0  0  0  0  0  0  0  0  0  0  0
   58.6230   27.7050   45.9760 C   0  0  0  0  0  0  0  0  0  0  0  0
   59.0370   28.7900   46.8190 N   0  0  0  0  0  0  0  0  0  0  0  0
   58.7670   30.1780   46.4320 C   0  0  0  0  0  0  0  0  0  0  0  0
   60.0680   30.9920   46.3970 C   0  0  0  0  0  0  0  0  0  0  0  0
   61.1100   30.6180   47.5050 C   0  0  0  0  0  0  0  0  0  0  0  0
   61.7680   31.8560   48.0260 N   0  0  0  0  0  0  0  0  0  0  0  0
   63.1440   32.0470   47.4870 C   0  0  0  0  0  0  0  0  0  0  0  0
   63.7010   33.4630   47.7070 C   0  0  0  0  0  0  0  0  0  0  0  0
   63.0700   34.1630   49.2630 S   0  0  0  0  0  0  0  0  0  0  0  0
   61.3210   34.2040   48.7070 C   0  0  0  0  0  0  0  0  0  0  0  0
   60.9460   33.0620   47.7470 C   0  0  0  0  0  0  0  0  0  0  0  0
   60.4240   29.7810   48.6240 C   0  0  0  0  0  0  0  0  0  0  0  0
   59.7860   28.5080   48.0460 C   0  0  0  0  0  0  0  0  0  0  0  0
   58.2800   26.4660   46.5360 C   0  0  0  0  0  0  0  0  0  0  0  0
   57.8570   25.4140   45.7190 C   0  0  0  0  0  0  0  0  0  0  0  0
   54.8828   25.1696   44.3036 H   0  0  0  0  0  0  0  0  0  0  0  0
   53.7922   24.1838   45.5156 H   0  0  0  0  0  0  0  0  0  0  0  0
   54.6988   20.5633   46.8268 H   0  0  0  0  0  0  0  0  0  0  0  0
   52.1850   21.7170   49.5160 H   0  0  0  0  0  0  0  0  0  0  0  0
   57.0339   20.4588   45.8686 H   0  0  0  0  0  0  0  0  0  0  0  0
   59.5198   21.6956   44.9646 H   0  0  0  0  0  0  0  0  0  0  0  0
   58.8057   20.9509   43.4942 H   0  0  0  0  0  0  0  0  0  0  0  0
   59.2500   22.6914   43.4942 H   0  0  0  0  0  0  0  0  0  0  0  0
   58.1538   24.0971   42.8385 H   0  0  0  0  0  0  0  0  0  0  0  0
   56.4984   24.8222   42.8021 H   0  0  0  0  0  0  0  0  0  0  0  0
   58.1159   26.9514   42.6768 H   0  0  0  0  0  0  0  0  0  0  0  0
   58.8308   28.8386   44.1385 H   0  0  0  0  0  0  0  0  0  0  0  0
   58.3051   30.1916   45.4338 H   0  0  0  0  0  0  0  0  0  0  0  0
   58.0877   30.6267   47.1718 H   0  0  0  0  0  0  0  0  0  0  0  0
   60.5416   30.8372   45.4163 H   0  0  0  0  0  0  0  0  0  0  0  0
   59.7825   32.0380   46.5825 H   0  0  0  0  0  0  0  0  0  0  0  0
   61.9034   29.9880   47.0764 H   0  0  0  0  0  0  0  0  0  0  0  0
   63.8141   31.3290   47.9824 H   0  0  0  0  0  0  0  0  0  0  0  0
   63.0893   31.8875   46.4000 H   0  0  0  0  0  0  0  0  0  0  0  0
   64.7992   33.4171   47.7501 H   0  0  0  0  0  0  0  0  0  0  0  0
   63.3800   34.1045   46.8730 H   0  0  0  0  0  0  0  0  0  0  0  0
   60.6738   34.1376   49.5940 H   0  0  0  0  0  0  0  0  0  0  0  0
   61.1834   35.1448   48.1538 H   0  0  0  0  0  0  0  0  0  0  0  0
   59.8825   32.8134   47.8782 H   0  0  0  0  0  0  0  0  0  0  0  0
   61.1344   33.3896   46.7139 H   0  0  0  0  0  0  0  0  0  0  0  0
   61.1770   29.4974   49.3741 H   0  0  0  0  0  0  0  0  0  0  0  0
   59.6332   30.3918   49.0840 H   0  0  0  0  0  0  0  0  0  0  0  0
   60.5803   27.7813   47.8204 H   0  0  0  0  0  0  0  0  0  0  0  0
   59.0854   28.1048   48.7920 H   0  0  0  0  0  0  0  0  0  0  0  0
   58.3442   26.3213   47.6245 H   0  0  0  0  0  0  0  0  0  0  0  0
   57.5853   24.4475   46.1684 H   0  0  0  0  0  0  0  0  0  0  0  0
  1  2  2  0
  2  3  1  0
  3  4  2  3
  4  5  1  0
  5  6  1  0
  6  7  1  0
  7  8  2  0
  7  9  1  0
  9 10  1  0
 10 11  1  0
  3 12  1  0
 12 13  2  0
 13 14  1  0
 13 15  1  0
 15 16  1  0
 16 17  1  0
 17 18  2  0
 18 19  1  0
 19 20  2  0
 20 21  1  0
 21 22  1  0
 22 23  1  0
 23 24  1  0
 24 25  1  0
 25 26  1  0
 26 27  1  0
 27 28  1  0
 28 29  1  0
 29 30  1  0
 24 31  1  0
 31 32  1  0
 20 33  1  0
 33 34  2  0
 15  2  1  0
 34 17  1  0
 10  5  2  0
 32 21  1  0
 30 25  1  0
  1 35  1  0
  1 36  1  0
  4 37  1  0
 11 38  1  0
 12 39  1  0
 14 40  1  0
 14 41  1  0
 14 42  1  0
 16 43  1  0
 16 44  1  0
 18 45  1  0
 19 46  1  0
 22 47  1  0
 22 48  1  0
 23 49  1  0
 23 50  1  0
 24 51  1  0
 26 52  1  0
 26 53  1  0
 27 54  1  0
 27 55  1  0
 29 56  1  0
 29 57  1  0
 30 58  1  0
 30 59  1  0
 31 60  1  0
 31 61  1  0
 32 62  1  0
 32 63  1  0
 33 64  1  0
 34 65  1  0
M  CHG  2   6  -1   9  -1
M  END
>  <UniqueID>  (84) 
76

>  <SMILES>  (84) 
C=c1c(=Cc2[n-]c(=O)[n-]c2O)cc(C)n1Cc1ccc(N2CCC(N3CCSCC3)CC2)cc1

>  <Energy>  (84) 
153.7120022791043

>  <Genealogy>  (84) 
C=c1c(=Cc2[n-]c(=O)[n-]c2O)cc(C)n1Cc1ccc(N2CCC(N3CCSCC3)CC2)cc1 (protonated)
C=c1c(=Cc2[n-]c(=O)[n-]c2O)cc(C)n1Cc1ccc(N2CCC(N3CCSCC3)CC2)cc1 (3D coordinates assigned)
C=c1c(=Cc2[n-]c(=O)[n-]c2O)cc(C)n1Cc1ccc(N2CCC(N3CCSCC3)CC2)cc1 (nonaromatic ring conformer: 153.7120022791043 kcal/mol)

>  <smiles>  (84) 
C=c1c(=Cc2[nH]c(=O)[nH]c2O)cc(C)n1Cc1ccc(N2CCC(N3CCSCC3)CC2)cc1

>  <score_type>  (84) 
oracle

>  <origin>  (84) 
adg

>  <m_score__min__energy>  (84) 
-13.960000000000001

>  <m_primary>  (84) 
energy

$$$$
84:0
     RDKit          3D

 45 46  0  0  0  0  0  0  0  0999 V2000
   56.9178   34.4162   52.1034 H   0  0  0  0  0  0  0  0  0  0  0  0
   57.8060   33.8520   52.4240 C   0  0  0  0  0  0  0  0  0  0  0  0
   57.7870   32.5560   52.4080 N   0  0  0  0  0  0  0  0  0  0  0  0
   57.6860   31.7380   53.5830 C   0  0  0  0  0  0  0  0  0  0  0  0
   58.3040   32.0580   54.6350 O   0  0  0  0  0  0  0  0  0  0  0  0
   56.8880   30.4900   53.5380 C   0  0  0  0  0  0  0  0  0  0  0  0
   57.2270   29.4530   54.4100 C   0  0  0  0  0  0  0  0  0  0  0  0
   58.1023   29.5576   55.0680 H   0  0  0  0  0  0  0  0  0  0  0  0
   56.4680   28.2910   54.4530 C   0  0  0  0  0  0  0  0  0  0  0  0
   56.8350   27.2390   55.3710 C   0  0  0  0  0  0  0  0  0  0  0  0
   57.1280   26.3950   56.1070 N   0  0  0  0  0  0  0  0  0  0  0  0
   55.3550   28.1620   53.6130 C   0  0  0  0  0  0  0  0  0  0  0  0
   54.6730   27.0990   53.6640 O   0  0  0  0  0  0  0  0  0  0  0  0
   55.0150   29.1710   52.7380 N   0  0  0  0  0  0  0  0  0  0  0  0
   53.8680   28.9790   51.8220 C   0  0  0  0  0  0  0  0  0  0  0  0
   54.2438   28.8686   50.7941 H   0  0  0  0  0  0  0  0  0  0  0  0
   53.3203   28.0771   52.1326 H   0  0  0  0  0  0  0  0  0  0  0  0
   52.9240   30.1560   51.8780 C   0  0  0  0  0  0  0  0  0  0  0  0
   52.4270   30.6130   53.1110 C   0  0  0  0  0  0  0  0  0  0  0  0
   52.7344   30.1160   54.0429 H   0  0  0  0  0  0  0  0  0  0  0  0
   51.5440   31.6960   53.1590 C   0  0  0  0  0  0  0  0  0  0  0  0
   51.1650   32.0530   54.1280 H   0  0  0  0  0  0  0  0  0  0  0  0
   51.1420   32.3260   51.9770 C   0  0  0  0  0  0  0  0  0  0  0  0
   50.2670   33.4030   52.0260 O   0  0  0  0  0  0  0  0  0  0  0  0
   51.6200   31.8680   50.7450 C   0  0  0  0  0  0  0  0  0  0  0  0
   51.3013   32.3609   49.8147 H   0  0  0  0  0  0  0  0  0  0  0  0
   52.5020   30.7850   50.6940 C   0  0  0  0  0  0  0  0  0  0  0  0
   52.8679   30.4229   49.7219 H   0  0  0  0  0  0  0  0  0  0  0  0
   55.7750   30.3240   52.6760 C   0  0  0  0  0  0  0  0  0  0  0  0
   55.4910   31.3360   51.6920 N   0  0  0  0  0  0  0  0  0  0  0  0
   54.5170   31.6790   51.5410 H   0  0  0  0  0  0  0  0  0  0  0  0
   56.2370   31.7870   51.1210 H   0  0  0  0  0  0  0  0  0  0  0  0
   59.0370   34.5890   52.8790 C   0  0  0  0  0  0  0  0  0  0  0  0
   58.7448   35.3022   53.6638 H   0  0  0  0  0  0  0  0  0  0  0  0
   59.4585   35.0888   51.9944 H   0  0  0  0  0  0  0  0  0  0  0  0
   60.0950   33.7020   53.4220 N   0  0  0  0  0  0  0  0  0  0  0  0
   59.6500   32.7680   53.5950 H   0  0  0  0  0  0  0  0  0  0  0  0
   61.1960   33.4860   52.4660 C   0  0  0  0  0  0  0  0  0  0  0  0
   62.1299   33.3028   53.0176 H   0  0  0  0  0  0  0  0  0  0  0  0
   60.9670   32.6157   51.8335 H   0  0  0  0  0  0  0  0  0  0  0  0
   61.3128   34.3784   51.8335 H   0  0  0  0  0  0  0  0  0  0  0  0
   60.6110   34.1840   54.7150 C   0  0  0  0  0  0  0  0  0  0  0  0
   60.0743   33.6826   55.5339 H   0  0  0  0  0  0  0  0  0  0  0  0
   61.6851   33.9583   54.7883 H   0  0  0  0  0  0  0  0  0  0  0  0
   60.4589   35.2710   54.7883 H   0  0  0  0  0  0  0  0  0  0  0  0
  1  2  1  0
  2  3  2  0
  3  4  1  0
  4  5  2  0
  4  6  1  0
  6  7  1  0
  7  8  1  0
  7  9  2  0
  9 10  1  0
 10 11  3  0
  9 12  1  0
 12 13  2  0
 12 14  1  0
 14 15  1  0
 15 16  1  0
 15 17  1  0
 15 18  1  0
 18 19  2  0
 19 20  1  0
 19 21  1  0
 21 22  1  0
 21 23  2  0
 23 24  1  0
 23 25  1  0
 25 26  1  0
 25 27  2  0
 27 28  1  0
 14 29  1  0
 29 30  1  0
 30 31  1  0
 30 32  1  0
  2 33  1  0
 33 34  1  0
 33 35  1  0
 33 36  1  0
 36 37  1  0
 36 38  1  0
 38 39  1  0
 38 40  1  0
 38 41  1  0
 36 42  1  0
 42 43  1  0
 42 44  1  0
 42 45  1  0
 29  6  2  0
 27 18  1  0
M  CHG  2  24  -1  36   1
M  END
>  <UniqueID>  (85) 
77

>  <SMILES>  (85) 
C[NH+](C)C/C=N/C(=O)c1cc(C#N)c(=O)n(Cc2ccc([O-])cc2)c1N

>  <Energy>  (85) 
57.58677255006558

>  <Genealogy>  (85) 
C[NH+](C)CC=NC(=O)c1cc(C#N)c(=O)n(Cc2ccc([O-])cc2)c1N (protonated)
C[NH+](C)C/C=N/C(=O)c1cc(C#N)c(=O)n(Cc2ccc([O-])cc2)c1N (cis-trans isomerization)
C[NH+](C)C/C=N/C(=O)c1cc(C#N)c(=O)n(Cc2ccc([O-])cc2)c1N (3D coordinates assigned)
C[NH+](C)C/C=N/C(=O)c1cc(C#N)c(=O)n(Cc2ccc([O-])cc2)c1N (optimized conformer: 57.58677255006558 kcal/mol)

>  <smiles>  (85) 
CN(C)CC=NC(=O)c1cc(C#N)c(=O)n(Cc2ccc(O)cc2)c1N

>  <score_type>  (85) 
oracle

>  <origin>  (85) 
adg

>  <m_score__min__energy>  (85) 
-8.3100000000000005

>  <m_primary>  (85) 
energy

$$$$
85:0
     RDKit          3D

 73 76  0  0  0  0  0  0  0  0999 V2000
   56.2490   28.4510   44.7880 O   0  0  0  0  0  0  0  0  0  0  0  0
   57.4090   28.5430   44.3010 C   0  0  0  0  0  0  0  0  0  0  0  0
   57.9150   29.8110   43.8530 N   0  0  0  0  0  0  0  0  0  0  0  0
   57.3000   31.0750   44.1630 C   0  0  0  0  0  0  0  0  0  0  0  0
   56.2560   31.1210   44.8690 O   0  0  0  0  0  0  0  0  0  0  0  0
   57.8840   32.3000   43.6850 N   0  0  0  0  0  0  0  0  0  0  0  0
   57.4390   33.4530   44.4830 C   0  0  0  0  0  0  0  0  0  0  0  0
   58.3910   33.7500   45.6190 C   0  0  0  0  0  0  0  0  0  0  0  0
   58.0030   33.5150   46.9490 C   0  0  0  0  0  0  0  0  0  0  0  0
   58.8830   33.8000   48.0010 C   0  0  0  0  0  0  0  0  0  0  0  0
   60.1460   34.3340   47.7310 C   0  0  0  0  0  0  0  0  0  0  0  0
   60.5310   34.5860   46.4110 C   0  0  0  0  0  0  0  0  0  0  0  0
   59.6570   34.2990   45.3570 C   0  0  0  0  0  0  0  0  0  0  0  0
   58.2450   27.3810   44.2180 N   0  0  0  0  0  0  0  0  0  0  0  0
   57.9290   26.1320   44.9250 C   0  0  2  0  0  0  0  0  0  0  0  0
   57.0170   25.2290   44.0570 C   0  0  0  0  0  0  0  0  0  0  0  0
   56.9280   23.8020   44.5450 C   0  0  0  0  0  0  0  0  0  0  0  0
   55.6790   23.2170   44.8130 C   0  0  0  0  0  0  0  0  0  0  0  0
   55.5990   21.8960   45.2610 C   0  0  0  0  0  0  0  0  0  0  0  0
   56.7640   21.1420   45.4410 C   0  0  0  0  0  0  0  0  0  0  0  0
   56.6490   19.3350   46.0500 Br  0  0  0  0  0  0  0  0  0  0  0  0
   58.0080   21.7130   45.1680 C   0  0  0  0  0  0  0  0  0  0  0  0
   58.0930   23.0340   44.7150 C   0  0  0  0  0  0  0  0  0  0  0  0
   57.2940   26.4270   46.2700 C   0  0  0  0  0  0  0  0  0  0  0  0
   56.0480   26.3140   46.3940 O   0  0  0  0  0  0  0  0  0  0  0  0
   58.0530   26.8030   47.4320 N   0  0  0  0  0  0  0  0  0  0  0  0
   58.9070   27.9760   47.6200 C   0  0  0  0  0  0  0  0  0  0  0  0
   60.1890   27.8000   46.7700 C   0  0  0  0  0  0  0  0  0  0  0  0
   60.6860   29.1150   46.1370 C   0  0  0  0  0  0  0  0  0  0  0  0
   60.4860   30.2840   47.0220 N   0  0  0  0  0  0  0  0  0  0  0  0
   61.3770   30.2790   48.2040 C   0  0  0  0  0  0  0  0  0  0  0  0
   62.1900   31.5480   48.2680 C   0  0  0  0  0  0  0  0  0  0  0  0
   62.2450   32.3090   49.4500 C   0  0  0  0  0  0  0  0  0  0  0  0
   63.0360   33.4600   49.5070 C   0  0  0  0  0  0  0  0  0  0  0  0
   63.7740   33.8610   48.3910 C   0  0  0  0  0  0  0  0  0  0  0  0
   63.7210   33.1120   47.2110 C   0  0  0  0  0  0  0  0  0  0  0  0
   62.9330   31.9580   47.1470 C   0  0  0  0  0  0  0  0  0  0  0  0
   59.0590   30.5000   47.3810 C   0  0  0  0  0  0  0  0  0  0  0  0
   58.1650   29.2570   47.2150 C   0  0  0  0  0  0  0  0  0  0  0  0
   58.8370   29.8230   43.3600 H   0  0  0  0  0  0  0  0  0  0  0  0
   58.9280   32.2180   43.7500 H   0  0  0  0  0  0  0  0  0  0  0  0
   57.6420   32.4460   42.6780 H   0  0  0  0  0  0  0  0  0  0  0  0
   57.3777   34.3359   43.8297 H   0  0  0  0  0  0  0  0  0  0  0  0
   56.4564   33.2116   44.9144 H   0  0  0  0  0  0  0  0  0  0  0  0
   57.0050   33.1059   47.1647 H   0  0  0  0  0  0  0  0  0  0  0  0
   58.5798   33.6034   49.0400 H   0  0  0  0  0  0  0  0  0  0  0  0
   60.8373   34.5560   48.5574 H   0  0  0  0  0  0  0  0  0  0  0  0
   61.5235   35.0110   46.2005 H   0  0  0  0  0  0  0  0  0  0  0  0
   59.9621   34.5039   44.3202 H   0  0  0  0  0  0  0  0  0  0  0  0
   59.1500   27.4690   43.6990 H   0  0  0  0  0  0  0  0  0  0  0  0
   58.8663   25.5859   45.1075 H   0  0  0  0  0  0  0  0  0  0  0  0
   56.0043   25.6586   44.0554 H   0  0  0  0  0  0  0  0  0  0  0  0
   57.4626   25.1962   43.0518 H   0  0  0  0  0  0  0  0  0  0  0  0
   54.7588   23.8024   44.6693 H   0  0  0  0  0  0  0  0  0  0  0  0
   54.6173   21.4473   45.4729 H   0  0  0  0  0  0  0  0  0  0  0  0
   58.9250   21.1222   45.3095 H   0  0  0  0  0  0  0  0  0  0  0  0
   59.0761   23.4737   44.4908 H   0  0  0  0  0  0  0  0  0  0  0  0
   59.1769   28.0672   48.6825 H   0  0  0  0  0  0  0  0  0  0  0  0
   60.9846   27.4011   47.4165 H   0  0  0  0  0  0  0  0  0  0  0  0
   59.9421   27.1145   45.9459 H   0  0  0  0  0  0  0  0  0  0  0  0
   61.7599   29.0174   45.9195 H   0  0  0  0  0  0  0  0  0  0  0  0
   60.1005   29.2862   45.2216 H   0  0  0  0  0  0  0  0  0  0  0  0
   60.7666   30.1956   49.1153 H   0  0  0  0  0  0  0  0  0  0  0  0
   62.0643   29.4239   48.1235 H   0  0  0  0  0  0  0  0  0  0  0  0
   61.6645   31.9976   50.3309 H   0  0  0  0  0  0  0  0  0  0  0  0
   63.0774   34.0517   50.4334 H   0  0  0  0  0  0  0  0  0  0  0  0
   64.3971   34.7662   48.4402 H   0  0  0  0  0  0  0  0  0  0  0  0
   64.3000   33.4309   46.3318 H   0  0  0  0  0  0  0  0  0  0  0  0
   62.8946   31.3703   46.2180 H   0  0  0  0  0  0  0  0  0  0  0  0
   59.0135   30.8183   48.4330 H   0  0  0  0  0  0  0  0  0  0  0  0
   58.6723   31.2594   46.6855 H   0  0  0  0  0  0  0  0  0  0  0  0
   57.2734   29.3700   47.8493 H   0  0  0  0  0  0  0  0  0  0  0  0
   57.8818   29.1730   46.1554 H   0  0  0  0  0  0  0  0  0  0  0  0
  1  2  2  0
  2  3  1  0
  3  4  1  0
  4  5  2  0
  4  6  1  0
  6  7  1  0
  7  8  1  0
  8  9  2  0
  9 10  1  0
 10 11  2  0
 11 12  1  0
 12 13  2  0
  2 14  1  0
 14 15  1  0
 15 16  1  0
 16 17  1  0
 17 18  2  0
 18 19  1  0
 19 20  2  0
 20 21  1  0
 20 22  1  0
 22 23  2  0
 15 24  1  0
 24 25  2  0
 24 26  1  0
 26 27  1  0
 27 28  1  0
 28 29  1  0
 29 30  1  0
 30 31  1  0
 31 32  1  0
 32 33  2  0
 33 34  1  0
 34 35  2  0
 35 36  1  0
 36 37  2  0
 30 38  1  0
 38 39  1  0
 13  8  1  0
 23 17  1  0
 39 27  1  0
 37 32  1  0
  3 40  1  0
  6 41  1  0
  6 42  1  0
  7 43  1  0
  7 44  1  0
  9 45  1  0
 10 46  1  0
 11 47  1  0
 12 48  1  0
 13 49  1  0
 14 50  1  0
 15 51  1  1
 16 52  1  0
 16 53  1  0
 18 54  1  0
 19 55  1  0
 22 56  1  0
 23 57  1  0
 27 58  1  0
 28 59  1  0
 28 60  1  0
 29 61  1  0
 29 62  1  0
 31 63  1  0
 31 64  1  0
 33 65  1  0
 34 66  1  0
 35 67  1  0
 36 68  1  0
 37 69  1  0
 38 70  1  0
 38 71  1  0
 39 72  1  0
 39 73  1  0
M  CHG  2   6   1  26  -1
M  END
>  <UniqueID>  (86) 
78

>  <SMILES>  (86) 
O=C(NC(=O)[NH2+]Cc1ccccc1)N[C@H](Cc1ccc(Br)cc1)C(=O)[N-]C1CCN(Cc2ccccc2)CC1

>  <Energy>  (86) 
82.15550991926732

>  <Genealogy>  (86) 
O=C(NC(=O)[NH2+]Cc1ccccc1)NC(Cc1ccc(Br)cc1)C(=O)[N-]C1CCN(Cc2ccccc2)CC1 (protonated)
O=C(NC(=O)[NH2+]Cc1ccccc1)N[C@H](Cc1ccc(Br)cc1)C(=O)[N-]C1CCN(Cc2ccccc2)CC1 (chirality)
O=C(NC(=O)[NH2+]Cc1ccccc1)N[C@H](Cc1ccc(Br)cc1)C(=O)[N-]C1CCN(Cc2ccccc2)CC1 (3D coordinates assigned)
O=C(NC(=O)[NH2+]Cc1ccccc1)N[C@H](Cc1ccc(Br)cc1)C(=O)[N-]C1CCN(Cc2ccccc2)CC1 (nonaromatic ring conformer: 82.15550991926732 kcal/mol)

>  <smiles>  (86) 
O=C(NCc1ccccc1)NC(=O)NC(Cc1ccc(Br)cc1)C(=O)NC1CCN(Cc2ccccc2)CC1

>  <score_type>  (86) 
oracle

>  <origin>  (86) 
adg

>  <m_score__min__energy>  (86) 
-12.06

>  <m_primary>  (86) 
energy

$$$$
86:0
     RDKit          3D

 40 43  0  0  0  0  0  0  0  0999 V2000
   58.6850   32.6110   54.1290 C   0  0  0  0  0  0  0  0  0  0  0  0
   58.3160   33.1530   52.4720 S   0  0  0  0  0  0  0  0  0  0  0  0
   58.2680   34.6570   52.4550 O   0  0  0  0  0  0  0  0  0  0  0  0
   56.9760   32.6140   52.0570 O   0  0  0  0  0  0  0  0  0  0  0  0
   59.5550   32.5970   51.3740 N   0  0  2  0  0  0  0  0  0  0  0  0
   59.2820   33.0410   49.9760 C   0  0  0  0  0  0  0  0  0  0  0  0
   59.3910   31.8140   49.1680 C   0  0  0  0  0  0  0  0  0  0  0  0
   59.4150   31.5550   47.8010 C   0  0  0  0  0  0  0  0  0  0  0  0
   59.6700   30.2010   47.5520 C   0  0  0  0  0  0  0  0  0  0  0  0
   59.7640   29.5950   46.2100 C   0  0  0  0  0  0  0  0  0  0  0  0
   60.8900   29.5330   45.6460 O   0  0  0  0  0  0  0  0  0  0  0  0
   58.6060   29.0590   45.5390 N   0  0  0  0  0  0  0  0  0  0  0  0
   57.8250   29.9120   44.6310 C   0  0  0  0  0  0  0  0  0  0  0  0
   56.3520   29.6800   44.8030 C   0  0  0  0  0  0  0  0  0  0  0  0
   55.5290   30.5730   44.4730 O   0  0  0  0  0  0  0  0  0  0  0  0
   55.8760   28.4100   45.2480 N   0  0  0  0  0  0  0  0  0  0  0  0
   56.7910   27.4010   45.6770 C   0  0  0  0  0  0  0  0  0  0  0  0
   56.3280   26.1120   45.9640 C   0  0  0  0  0  0  0  0  0  0  0  0
   57.2240   25.1180   46.3680 C   0  0  0  0  0  0  0  0  0  0  0  0
   58.5870   25.4100   46.4820 C   0  0  0  0  0  0  0  0  0  0  0  0
   59.0550   26.6990   46.2060 C   0  0  0  0  0  0  0  0  0  0  0  0
   58.1570   27.7120   45.8140 C   0  0  0  0  0  0  0  0  0  0  0  0
   59.8520   29.3720   49.0340 S   0  0  0  0  0  0  0  0  0  0  0  0
   59.5920   30.7510   49.9480 C   0  0  0  0  0  0  0  0  0  0  0  0
   59.6600   31.1090   51.3710 C   0  0  0  0  0  0  0  0  0  0  0  0
   58.2182   33.2966   54.8515 H   0  0  0  0  0  0  0  0  0  0  0  0
   58.2899   31.5955   54.2792 H   0  0  0  0  0  0  0  0  0  0  0  0
   59.7747   32.6064   54.2792 H   0  0  0  0  0  0  0  0  0  0  0  0
   60.4680   33.0040   51.6910 H   0  0  0  0  0  0  0  0  0  0  0  0
   58.2726   33.4707   49.8952 H   0  0  0  0  0  0  0  0  0  0  0  0
   59.9803   33.8230   49.6430 H   0  0  0  0  0  0  0  0  0  0  0  0
   59.2550   32.3130   47.0201 H   0  0  0  0  0  0  0  0  0  0  0  0
   58.0500   30.9669   44.8471 H   0  0  0  0  0  0  0  0  0  0  0  0
   58.0990   29.6619   43.5954 H   0  0  0  0  0  0  0  0  0  0  0  0
   55.2566   25.8804   45.8715 H   0  0  0  0  0  0  0  0  0  0  0  0
   56.8571   24.1064   46.5962 H   0  0  0  0  0  0  0  0  0  0  0  0
   59.2927   24.6242   46.7894 H   0  0  0  0  0  0  0  0  0  0  0  0
   60.1283   26.9229   46.2953 H   0  0  0  0  0  0  0  0  0  0  0  0
   58.8262   30.6570   51.9282 H   0  0  0  0  0  0  0  0  0  0  0  0
   60.5797   30.7484   51.8549 H   0  0  0  0  0  0  0  0  0  0  0  0
  1  2  1  0
  2  3  2  0
  2  4  2  0
  2  5  1  0
  5  6  1  0
  6  7  1  0
  7  8  1  0
  8  9  2  0
  9 10  1  0
 10 11  2  0
 10 12  1  0
 12 13  1  0
 13 14  1  0
 14 15  2  0
 14 16  1  0
 16 17  1  0
 17 18  2  0
 18 19  1  0
 19 20  2  0
 20 21  1  0
 21 22  2  0
  9 23  1  0
 23 24  1  0
 24 25  1  0
 25  5  1  0
 24  7  2  0
 22 12  1  0
 22 17  1  0
  1 26  1  0
  1 27  1  0
  1 28  1  0
  5 29  1  1
  6 30  1  0
  6 31  1  0
  8 32  1  0
 13 33  1  0
 13 34  1  0
 18 35  1  0
 19 36  1  0
 20 37  1  0
 21 38  1  0
 25 39  1  0
 25 40  1  0
M  CHG  2   5   1  16  -1
M  END
>  <UniqueID>  (87) 
79

>  <SMILES>  (87) 
CS(=O)(=O)[N@@H+]1Cc2cc(C(=O)N3CC(=O)[N-]c4ccccc43)sc2C1

>  <Energy>  (87) 
94.64568556438061

>  <Genealogy>  (87) 
CS(=O)(=O)[NH+]1Cc2cc(C(=O)N3CC(=O)[N-]c4ccccc43)sc2C1 (protonated)
CS(=O)(=O)[N@@H+]1Cc2cc(C(=O)N3CC(=O)[N-]c4ccccc43)sc2C1 (chirality)
CS(=O)(=O)[N@@H+]1Cc2cc(C(=O)N3CC(=O)[N-]c4ccccc43)sc2C1 (3D coordinates assigned)
CS(=O)(=O)[N@@H+]1Cc2cc(C(=O)N3CC(=O)[N-]c4ccccc43)sc2C1 (nonaromatic ring conformer: 94.64568556438061 kcal/mol)

>  <smiles>  (87) 
CS(=O)(=O)N1Cc2cc(C(=O)N3CC(=O)Nc4ccccc43)sc2C1

>  <score_type>  (87) 
oracle

>  <origin>  (87) 
adg

>  <m_score__min__energy>  (87) 
-8.8000000000000007

>  <m_primary>  (87) 
energy

$$$$
87:0
     RDKit          3D

 52 55  0  0  0  0  0  0  0  0999 V2000
   64.5170   33.6550   52.0330 C   0  0  0  0  0  0  0  0  0  0  0  0
   63.3540   33.9500   51.2650 O   0  0  0  0  0  0  0  0  0  0  0  0
   62.8750   33.1580   50.2060 C   0  0  0  0  0  0  0  0  0  0  0  0
   61.5940   32.5760   50.2300 C   0  0  0  0  0  0  0  0  0  0  0  0
   61.1410   31.7870   49.1600 C   0  0  0  0  0  0  0  0  0  0  0  0
   61.9940   31.5520   48.0580 C   0  0  0  0  0  0  0  0  0  0  0  0
   63.2640   32.1460   48.0320 C   0  0  0  0  0  0  0  0  0  0  0  0
   63.7060   32.9420   49.0930 C   0  0  0  0  0  0  0  0  0  0  0  0
   64.9790   33.5080   49.0240 O   0  0  0  0  0  0  0  0  0  0  0  0
   61.5570   30.7080   46.8800 C   0  0  0  0  0  0  0  0  0  0  0  0
   60.2900   30.0170   47.1540 N   0  0  0  0  0  0  0  0  0  0  0  0
   60.1190   28.6230   46.8390 C   0  0  0  0  0  0  0  0  0  0  0  0
   59.6150   28.2200   45.5930 C   0  0  0  0  0  0  0  0  0  0  0  0
   59.4950   26.8590   45.3040 C   0  0  0  0  0  0  0  0  0  0  0  0
   59.8890   25.9010   46.2500 C   0  0  0  0  0  0  0  0  0  0  0  0
   59.8020   24.4580   45.9350 C   0  0  0  0  0  0  0  0  0  0  0  0
   60.8070   23.8680   45.4560 O   0  0  0  0  0  0  0  0  0  0  0  0
   58.5880   23.7130   46.1170 N   0  0  0  0  0  0  0  0  0  0  0  0
   57.5960   23.4450   45.1120 C   0  0  0  0  0  0  0  0  0  0  0  0
   57.8620   22.5580   44.0500 C   0  0  0  0  0  0  0  0  0  0  0  0
   56.8940   22.3150   43.0740 C   0  0  0  0  0  0  0  0  0  0  0  0
   55.6620   22.9670   43.1320 C   0  0  0  0  0  0  0  0  0  0  0  0
   55.3960   23.8690   44.1650 C   0  0  0  0  0  0  0  0  0  0  0  0
   56.3580   24.1180   45.1570 C   0  0  0  0  0  0  0  0  0  0  0  0
   56.0000   25.2510   46.4630 S   0  0  0  0  0  0  0  0  0  0  0  0
   54.7510   26.3350   45.9620 N   0  0  0  0  0  0  0  0  0  0  0  0
   57.2230   26.0510   46.8160 O   0  0  0  0  0  0  0  0  0  0  0  0
   55.5490   24.4890   47.6770 O   0  0  0  0  0  0  0  0  0  0  0  0
   60.3590   26.3450   47.4960 C   0  0  0  0  0  0  0  0  0  0  0  0
   60.4610   27.6750   47.7550 N   0  0  0  0  0  0  0  0  0  0  0  0
   59.2520   30.7540   47.8770 C   0  0  0  0  0  0  0  0  0  0  0  0
   59.7840   31.1300   49.2560 C   0  0  0  0  0  0  0  0  0  0  0  0
   64.2744   33.7165   53.1041 H   0  0  0  0  0  0  0  0  0  0  0  0
   64.8665   32.6398   51.7939 H   0  0  0  0  0  0  0  0  0  0  0  0
   65.3081   34.3809   51.7939 H   0  0  0  0  0  0  0  0  0  0  0  0
   60.9389   32.7412   51.0981 H   0  0  0  0  0  0  0  0  0  0  0  0
   63.9214   31.9835   47.1651 H   0  0  0  0  0  0  0  0  0  0  0  0
   65.6080   33.3320   48.2480 H   0  0  0  0  0  0  0  0  0  0  0  0
   61.4269   31.3587   46.0027 H   0  0  0  0  0  0  0  0  0  0  0  0
   62.3309   29.9490   46.6930 H   0  0  0  0  0  0  0  0  0  0  0  0
   59.3161   28.9720   44.8479 H   0  0  0  0  0  0  0  0  0  0  0  0
   59.0908   26.5376   44.3328 H   0  0  0  0  0  0  0  0  0  0  0  0
   58.8380   22.0542   43.9897 H   0  0  0  0  0  0  0  0  0  0  0  0
   57.1030   21.6081   42.2576 H   0  0  0  0  0  0  0  0  0  0  0  0
   54.8995   22.7707   42.3638 H   0  0  0  0  0  0  0  0  0  0  0  0
   54.4266   24.3876   44.2015 H   0  0  0  0  0  0  0  0  0  0  0  0
   55.1230   27.3060   46.0740 H   0  0  0  0  0  0  0  0  0  0  0  0
   60.6459   25.6134   48.2657 H   0  0  0  0  0  0  0  0  0  0  0  0
   58.9910   31.6662   47.3204 H   0  0  0  0  0  0  0  0  0  0  0  0
   58.3539   30.1275   47.9817 H   0  0  0  0  0  0  0  0  0  0  0  0
   59.0807   31.8283   49.7333 H   0  0  0  0  0  0  0  0  0  0  0  0
   59.8844   30.2109   49.8520 H   0  0  0  0  0  0  0  0  0  0  0  0
  1  2  1  0
  2  3  1  0
  3  4  2  0
  4  5  1  0
  5  6  2  0
  6  7  1  0
  7  8  2  0
  8  9  1  0
  6 10  1  0
 10 11  1  0
 11 12  1  0
 12 13  2  0
 13 14  1  0
 14 15  2  0
 15 16  1  0
 16 17  2  0
 16 18  1  0
 18 19  1  0
 19 20  2  0
 20 21  1  0
 21 22  2  0
 22 23  1  0
 23 24  2  0
 24 25  1  0
 25 26  1  0
 25 27  2  0
 25 28  2  0
 15 29  1  0
 29 30  2  0
 11 31  1  0
 31 32  1  0
  8  3  1  0
 30 12  1  0
 32  5  1  0
 24 19  1  0
  1 33  1  0
  1 34  1  0
  1 35  1  0
  4 36  1  0
  7 37  1  0
  9 38  1  0
 10 39  1  0
 10 40  1  0
 13 41  1  0
 14 42  1  0
 20 43  1  0
 21 44  1  0
 22 45  1  0
 23 46  1  0
 26 47  1  0
 29 48  1  0
 31 49  1  0
 31 50  1  0
 32 51  1  0
 32 52  1  0
M  CHG  2  18  -1  26  -1
M  END
>  <UniqueID>  (88) 
80

>  <SMILES>  (88) 
COc1cc2c(cc1O)CN(c1ccc(C(=O)[N-]c3ccccc3S([NH-])(=O)=O)cn1)CC2

>  <Energy>  (88) 
68.61225909958408

>  <Genealogy>  (88) 
COc1cc2c(cc1O)CN(c1ccc(C(=O)[N-]c3ccccc3S([NH-])(=O)=O)cn1)CC2 (protonated)
COc1cc2c(cc1O)CN(c1ccc(C(=O)[N-]c3ccccc3S([NH-])(=O)=O)cn1)CC2 (3D coordinates assigned)
COc1cc2c(cc1O)CN(c1ccc(C(=O)[N-]c3ccccc3S([NH-])(=O)=O)cn1)CC2 (nonaromatic ring conformer: 68.61225909958408 kcal/mol)

>  <smiles>  (88) 
COc1cc2c(cc1O)CN(c1ccc(C(=O)Nc3ccccc3S(N)(=O)=O)cn1)CC2

>  <score_type>  (88) 
oracle

>  <origin>  (88) 
adg

>  <m_score__min__energy>  (88) 
-13.119999999999999

>  <m_primary>  (88) 
energy

$$$$
88:0
     RDKit          3D

 63 66  0  0  1  0  0  0  0  0999 V2000
   57.7990   27.3580   42.8260 C   0  0  0  0  0  0  0  0  0  0  0  0
   57.3800   28.4360   43.7530 N   0  0  0  0  0  0  0  0  0  0  0  0
   56.5030   29.4110   43.1940 C   0  0  0  0  0  0  0  0  0  0  0  0
   56.7790   30.8310   43.5290 C   0  0  0  0  0  0  0  0  0  0  0  0
   57.0180   31.2190   44.8100 O   0  0  0  0  0  0  0  0  0  0  0  0
   57.6150   32.2900   45.3760 C   0  0  0  0  0  0  0  0  0  0  0  0
   57.7620   32.5440   46.7180 C   0  0  0  0  0  0  0  0  0  0  0  0
   58.3940   33.6820   47.2020 C   0  0  0  0  0  0  0  0  0  0  0  0
   58.9040   34.6120   46.3460 C   0  0  0  0  0  0  0  0  0  0  0  0
   58.7750   34.3890   44.9890 C   0  0  0  0  0  0  0  0  0  0  0  0
   58.1480   33.2600   44.5200 C   0  0  0  0  0  0  0  0  0  0  0  0
   57.8740   28.3190   45.0540 C   0  0  0  0  0  0  0  0  0  0  0  0
   57.0990   28.7510   45.9840 O   0  0  0  0  0  0  0  0  0  0  0  0
   59.1560   27.7660   45.5080 C   0  0  0  0  0  0  0  0  0  0  0  0
   60.2740   28.7940   45.3860 C   0  0  0  0  0  0  0  0  0  0  0  0
   60.1710   29.9010   46.4070 C   0  0  0  0  0  0  0  0  0  0  0  0
   59.9200   29.3340   47.7410 N   0  0  0  0  0  0  0  0  0  0  0  0
   59.5540   30.1710   48.8170 C   0  0  0  0  0  0  0  0  0  0  0  0
   60.0490   31.4360   49.0340 C   0  0  0  0  0  0  0  0  0  0  0  0
   59.6100   32.1790   50.1380 C   0  0  0  0  0  0  0  0  0  0  0  0
   60.0440   33.3580   50.3750 N   0  0  0  0  0  0  0  0  0  0  0  0
   61.3970   33.8050   50.3890 C   0  0  0  0  0  0  0  0  0  0  0  0
   62.1040   33.6190   49.1080 C   0  0  0  0  0  0  0  0  0  0  0  0
   61.7100   33.9660   47.8560 C   0  0  0  0  0  0  0  0  0  0  0  0
   62.4900   33.7080   46.8130 C   0  0  0  0  0  0  0  0  0  0  0  0
   63.7090   33.0720   47.0890 C   0  0  0  0  0  0  0  0  0  0  0  0
   63.7200   32.8460   48.8940 S   0  0  0  0  0  0  0  0  0  0  0  0
   58.7070   31.6690   50.9920 N   0  0  0  0  0  0  0  0  0  0  0  0
   58.2390   30.4440   50.7690 C   0  0  0  0  0  0  0  0  0  0  0  0
   57.3560   29.9530   51.6060 N   0  0  0  0  0  0  0  0  0  0  0  0
   58.6490   29.7160   49.7130 N   0  0  0  0  0  0  0  0  0  0  0  0
   60.0850   27.8970   47.8280 C   0  0  0  0  0  0  0  0  0  0  0  0
   59.0230   27.2830   46.9290 C   0  0  0  0  0  0  0  0  0  0  0  0
   58.1376   26.4868   43.4059 H   0  0  0  0  0  0  0  0  0  0  0  0
   56.9480   27.0682   42.1921 H   0  0  0  0  0  0  0  0  0  0  0  0
   58.6223   27.7190   42.1921 H   0  0  0  0  0  0  0  0  0  0  0  0
   56.5501   29.3122   42.0995 H   0  0  0  0  0  0  0  0  0  0  0  0
   55.5178   29.1979   43.6345 H   0  0  0  0  0  0  0  0  0  0  0  0
   57.6641   31.1228   42.9446 H   0  0  0  0  0  0  0  0  0  0  0  0
   55.8198   31.3208   43.3053 H   0  0  0  0  0  0  0  0  0  0  0  0
   57.3625   31.8158   47.4392 H   0  0  0  0  0  0  0  0  0  0  0  0
   58.4839   33.8344   48.2877 H   0  0  0  0  0  0  0  0  0  0  0  0
   59.4045   35.5151   46.7254 H   0  0  0  0  0  0  0  0  0  0  0  0
   59.1786   35.1232   44.2762 H   0  0  0  0  0  0  0  0  0  0  0  0
   58.0620   33.1135   43.4332 H   0  0  0  0  0  0  0  0  0  0  0  0
   59.4211   26.9152   44.8632 H   0  0  0  0  0  0  0  0  0  0  0  0
   61.2379   28.2814   45.5208 H   0  0  0  0  0  0  0  0  0  0  0  0
   60.1899   29.2552   44.3909 H   0  0  0  0  0  0  0  0  0  0  0  0
   61.1126   30.4694   46.4242 H   0  0  0  0  0  0  0  0  0  0  0  0
   59.3383   30.5663   46.1352 H   0  0  0  0  0  0  0  0  0  0  0  0
   60.7888   31.8639   48.3415 H   0  0  0  0  0  0  0  0  0  0  0  0
   61.4045   34.8770   50.6356 H   0  0  0  0  0  0  0  0  0  0  0  0
   61.9259   33.1946   51.1357 H   0  0  0  0  0  0  0  0  0  0  0  0
   60.7404   34.4630   47.7051 H   0  0  0  0  0  0  0  0  0  0  0  0
   62.1960   33.9784   45.7881 H   0  0  0  0  0  0  0  0  0  0  0  0
   64.4879   32.7749   46.3713 H   0  0  0  0  0  0  0  0  0  0  0  0
   58.3840   32.2050   51.8000 H   0  0  0  0  0  0  0  0  0  0  0  0
   56.3710   29.7410   51.2650 H   0  0  0  0  0  0  0  0  0  0  0  0
   58.2080   28.7570   49.6340 H   0  0  0  0  0  0  0  0  0  0  0  0
   61.0885   27.6085   47.4819 H   0  0  0  0  0  0  0  0  0  0  0  0
   59.9775   27.5472   48.8654 H   0  0  0  0  0  0  0  0  0  0  0  0
   59.1297   26.1883   46.9459 H   0  0  0  0  0  0  0  0  0  0  0  0
   58.0348   27.5860   47.3055 H   0  0  0  0  0  0  0  0  0  0  0  0
  1  2  1  0
  2  3  1  0
  3  4  1  0
  4  5  1  0
  5  6  1  0
  6  7  2  0
  7  8  1  0
  8  9  2  0
  9 10  1  0
 10 11  2  0
  2 12  1  0
 12 13  2  0
 12 14  1  0
 14 15  1  0
 15 16  1  0
 16 17  1  0
 17 18  1  0
 18 19  2  0
 19 20  1  0
 20 21  2  0
 21 22  1  0
 22 23  1  0
 23 24  2  0
 24 25  1  0
 25 26  2  0
 26 27  1  0
 20 28  1  0
 28 29  1  0
 29 30  2  3
 29 31  1  0
 17 32  1  0
 32 33  1  0
 11  6  1  0
 33 14  1  0
 31 18  1  0
 27 23  1  0
  1 34  1  0
  1 35  1  0
  1 36  1  0
  3 37  1  0
  3 38  1  0
  4 39  1  0
  4 40  1  0
  7 41  1  0
  8 42  1  0
  9 43  1  0
 10 44  1  0
 11 45  1  0
 14 46  1  0
 15 47  1  0
 15 48  1  0
 16 49  1  0
 16 50  1  0
 19 51  1  0
 22 52  1  0
 22 53  1  0
 24 54  1  0
 25 55  1  0
 26 56  1  0
 28 57  1  0
 30 58  1  0
 31 59  1  0
 32 60  1  0
 32 61  1  0
 33 62  1  0
 33 63  1  0
M  END
>  <smiles>  (89) 
CN(CCOc1ccccc1)C(=O)C1CCN(c2cc(=NCc3cccs3)[nH]c(=N)[nH]2)CC1

>  <score_type>  (89) 
oracle

>  <origin>  (89) 
adg

>  <m_score__min__energy>  (89) 
-8.7699999999999996

>  <m_primary>  (89) 
energy

$$$$
89:0
     RDKit          3D

 40 42  0  0  0  0  0  0  0  0999 V2000
   54.5770   27.1006   53.5720 H   0  0  0  0  0  0  0  0  0  0  0  0
   53.9310   27.8830   53.1470 C   0  0  0  0  0  0  0  0  0  0  0  0
   52.8949   27.6466   52.8630 H   0  0  0  0  0  0  0  0  0  0  0  0
   54.4070   29.1260   52.9750 C   0  0  0  0  0  0  0  0  0  0  0  0
   53.7130   30.2270   52.4490 C   0  0  0  0  0  0  0  0  0  0  0  0
   52.4010   30.4110   52.2030 C   0  0  0  0  0  0  0  0  0  0  0  0
   51.7021   30.2156   53.0297 H   0  0  0  0  0  0  0  0  0  0  0  0
   51.8230   30.8510   50.9230 C   0  0  0  0  0  0  0  0  0  0  0  0
   51.7090   30.0800   49.8260 N   0  0  0  0  0  0  0  0  0  0  0  0
   51.0060   30.8550   48.9710 C   0  0  0  0  0  0  0  0  0  0  0  0
   50.7050   30.4810   47.8080 O   0  0  0  0  0  0  0  0  0  0  0  0
   50.6430   32.0580   49.4650 N   0  0  0  0  0  0  0  0  0  0  0  0
   51.1560   32.0320   50.7060 C   0  0  0  0  0  0  0  0  0  0  0  0
   51.0120   33.0650   51.6230 O   0  0  0  0  0  0  0  0  0  0  0  0
   54.6650   31.1980   52.1960 C   0  0  0  0  0  0  0  0  0  0  0  0
   54.4913   32.1792   51.7301 H   0  0  0  0  0  0  0  0  0  0  0  0
   55.8740   30.7020   52.6390 C   0  0  0  0  0  0  0  0  0  0  0  0
   57.1830   31.4290   52.4890 C   0  0  0  0  0  0  0  0  0  0  0  0
   57.0061   32.5126   52.5562 H   0  0  0  0  0  0  0  0  0  0  0  0
   57.8645   31.1082   53.2906 H   0  0  0  0  0  0  0  0  0  0  0  0
   57.8050   31.1110   51.1640 C   0  0  0  0  0  0  0  0  0  0  0  0
   58.3240   29.9770   50.9800 O   0  0  0  0  0  0  0  0  0  0  0  0
   57.7430   32.0710   50.0970 N   0  0  0  0  0  0  0  0  0  0  0  0
   57.0930   32.8820   50.2090 H   0  0  0  0  0  0  0  0  0  0  0  0
   58.4150   31.9180   48.8350 C   0  0  0  0  0  0  0  0  0  0  0  0
   59.2220   30.7970   48.5620 C   0  0  0  0  0  0  0  0  0  0  0  0
   59.3332   30.0052   49.3175 H   0  0  0  0  0  0  0  0  0  0  0  0
   59.8820   30.6860   47.3360 C   0  0  0  0  0  0  0  0  0  0  0  0
   60.5020   29.8022   47.1250 H   0  0  0  0  0  0  0  0  0  0  0  0
   59.7570   31.6940   46.3770 C   0  0  0  0  0  0  0  0  0  0  0  0
   60.2733   31.6006   45.4102 H   0  0  0  0  0  0  0  0  0  0  0  0
   58.9760   32.8210   46.6460 C   0  0  0  0  0  0  0  0  0  0  0  0
   58.8150   34.2070   45.3410 Br  0  0  0  0  0  0  0  0  0  0  0  0
   58.3140   32.9370   47.8740 C   0  0  0  0  0  0  0  0  0  0  0  0
   57.7110   33.8319   48.0875 H   0  0  0  0  0  0  0  0  0  0  0  0
   55.7180   29.4500   53.1310 N   0  0  0  0  0  0  0  0  0  0  0  0
   56.7900   28.5560   53.5870 C   0  0  0  0  0  0  0  0  0  0  0  0
   56.8103   28.5390   54.6867 H   0  0  0  0  0  0  0  0  0  0  0  0
   56.6061   27.5399   53.2080 H   0  0  0  0  0  0  0  0  0  0  0  0
   57.7566   28.9194   53.2080 H   0  0  0  0  0  0  0  0  0  0  0  0
  1  2  1  0
  2  3  1  0
  2  4  2  0
  4  5  1  0
  5  6  2  0
  6  7  1  0
  6  8  1  0
  8  9  1  0
  9 10  1  0
 10 11  2  0
 10 12  1  0
 12 13  1  0
 13 14  1  0
  5 15  1  0
 15 16  1  0
 15 17  2  0
 17 18  1  0
 18 19  1  0
 18 20  1  0
 18 21  1  0
 21 22  2  0
 21 23  1  0
 23 24  1  0
 23 25  1  0
 25 26  2  0
 26 27  1  0
 26 28  1  0
 28 29  1  0
 28 30  2  0
 30 31  1  0
 30 32  1  0
 32 33  1  0
 32 34  2  0
 34 35  1  0
 17 36  1  0
 36 37  1  0
 37 38  1  0
 37 39  1  0
 37 40  1  0
 36  4  1  0
 13  8  2  0
 34 25  1  0
M  CHG  3   9  -1  12  -1  14  -1
M  END
>  <UniqueID>  (90) 
81

>  <SMILES>  (90) 
C=c1/c(=C\c2[n-]c(=O)[n-]c2[O-])cc(CC(=O)Nc2cccc(Br)c2)n1C

>  <Energy>  (90) 
112.24147939720703

>  <Genealogy>  (90) 
C=c1c(=Cc2[n-]c(=O)[n-]c2[O-])cc(CC(=O)Nc2cccc(Br)c2)n1C (protonated)
C=c1/c(=C\c2[n-]c(=O)[n-]c2[O-])cc(CC(=O)Nc2cccc(Br)c2)n1C (cis-trans isomerization)
C=c1/c(=C\c2[n-]c(=O)[n-]c2[O-])cc(CC(=O)Nc2cccc(Br)c2)n1C (3D coordinates assigned)
C=c1/c(=C\c2[n-]c(=O)[n-]c2[O-])cc(CC(=O)Nc2cccc(Br)c2)n1C (optimized conformer: 112.24147939720703 kcal/mol)

>  <smiles>  (90) 
C=c1c(=Cc2[nH]c(=O)[nH]c2O)cc(CC(=O)Nc2cccc(Br)c2)n1C

>  <score_type>  (90) 
oracle

>  <origin>  (90) 
adg

>  <m_score__min__energy>  (90) 
-18.09

>  <m_primary>  (90) 
energy

$$$$
90:0
     RDKit          3D

 59 62  0  0  0  0  0  0  0  0999 V2000
   57.4625   27.5727   48.2049 H   0  0  0  0  0  0  0  0  0  0  0  0
   57.8190   27.6100   47.1650 C   0  0  0  0  0  0  0  0  0  0  0  0
   59.0510   28.3840   46.8970 C   0  0  0  0  0  0  0  0  0  0  0  0
   59.5400   28.3300   45.7320 O   0  0  0  0  0  0  0  0  0  0  0  0
   59.6740   29.2280   47.8890 N   0  0  0  0  0  0  0  0  0  0  0  0
   61.1120   29.5200   47.7650 C   0  0  0  0  0  0  0  0  0  0  0  0
   61.2971   29.9903   46.7880 H   0  0  0  0  0  0  0  0  0  0  0  0
   61.6631   28.5725   47.8578 H   0  0  0  0  0  0  0  0  0  0  0  0
   61.5970   30.4640   48.8700 C   0  0  0  0  0  0  0  0  0  0  0  0
   62.6005   30.8369   48.6172 H   0  0  0  0  0  0  0  0  0  0  0  0
   61.6339   29.9176   49.8240 H   0  0  0  0  0  0  0  0  0  0  0  0
   60.6710   31.6010   48.9970 N   0  0  0  0  0  0  0  0  0  0  0  0
   61.1770   32.9560   49.0880 C   0  0  0  0  0  0  0  0  0  0  0  0
   62.3900   33.1810   48.8240 O   0  0  0  0  0  0  0  0  0  0  0  0
   60.2820   34.0930   49.4310 C   0  0  0  0  0  0  0  0  0  0  0  0
   60.3707   34.5149   50.4430 H   0  0  0  0  0  0  0  0  0  0  0  0
   59.3750   34.6490   48.6120 C   0  0  0  0  0  0  0  0  0  0  0  0
   58.7842   35.4862   49.0120 H   0  0  0  0  0  0  0  0  0  0  0  0
   59.1010   34.2350   47.2210 C   0  0  0  0  0  0  0  0  0  0  0  0
   59.5430   35.0490   46.1670 C   0  0  0  0  0  0  0  0  0  0  0  0
   60.0644   35.9919   46.3884 H   0  0  0  0  0  0  0  0  0  0  0  0
   59.3270   34.6730   44.8390 C   0  0  0  0  0  0  0  0  0  0  0  0
   59.6635   35.3273   44.0213 H   0  0  0  0  0  0  0  0  0  0  0  0
   58.6820   33.4630   44.5470 C   0  0  0  0  0  0  0  0  0  0  0  0
   58.4530   33.0810   43.2180 C   0  0  0  0  0  0  0  0  0  0  0  0
   58.7802   33.7329   42.3946 H   0  0  0  0  0  0  0  0  0  0  0  0
   57.8090   31.8720   42.9380 C   0  0  0  0  0  0  0  0  0  0  0  0
   57.6312   31.5775   41.8932 H   0  0  0  0  0  0  0  0  0  0  0  0
   57.3880   31.0320   43.9790 C   0  0  0  0  0  0  0  0  0  0  0  0
   56.5720   29.5160   43.6040 S   0  0  0  0  0  0  0  0  0  0  0  0
   55.8950   29.6130   42.2650 O   0  0  0  0  0  0  0  0  0  0  0  0
   55.5430   29.2230   44.6620 O   0  0  0  0  0  0  0  0  0  0  0  0
   57.7360   28.2320   43.5480 N   0  0  0  0  0  0  0  0  0  0  0  0
   58.5000   28.5380   42.9000 H   0  0  0  0  0  0  0  0  0  0  0  0
   57.2670   27.4110   43.0990 H   0  0  0  0  0  0  0  0  0  0  0  0
   57.6230   31.4030   45.3100 C   0  0  0  0  0  0  0  0  0  0  0  0
   57.3040   30.7404   46.1280 H   0  0  0  0  0  0  0  0  0  0  0  0
   58.2640   32.6170   45.6030 C   0  0  0  0  0  0  0  0  0  0  0  0
   58.4880   33.0030   46.9330 C   0  0  0  0  0  0  0  0  0  0  0  0
   58.1825   32.3384   47.7546 H   0  0  0  0  0  0  0  0  0  0  0  0
   59.2190   31.3380   49.0790 C   0  0  0  0  0  0  0  0  0  0  0  0
   58.7160   31.8649   48.2548 H   0  0  0  0  0  0  0  0  0  0  0  0
   58.8647   31.6961   50.0569 H   0  0  0  0  0  0  0  0  0  0  0  0
   58.8970   29.8420   48.9790 C   0  0  0  0  0  0  0  0  0  0  0  0
   57.8233   29.7138   48.7772 H   0  0  0  0  0  0  0  0  0  0  0  0
   59.1608   29.3531   49.9284 H   0  0  0  0  0  0  0  0  0  0  0  0
   57.1010   26.9500   46.2440 C   0  0  0  0  0  0  0  0  0  0  0  0
   56.1826   27.4339   45.8801 H   0  0  0  0  0  0  0  0  0  0  0  0
   57.4400   25.6240   45.6750 C   0  0  0  0  0  0  0  0  0  0  0  0
   58.6740   25.0380   46.0110 C   0  0  0  0  0  0  0  0  0  0  0  0
   59.3658   25.5655   46.6841 H   0  0  0  0  0  0  0  0  0  0  0  0
   59.0250   23.7860   45.4920 C   0  0  0  0  0  0  0  0  0  0  0  0
   60.0004   23.3422   45.7405 H   0  0  0  0  0  0  0  0  0  0  0  0
   58.1360   23.0980   44.6570 C   0  0  0  0  0  0  0  0  0  0  0  0
   58.4157   22.1167   44.2460 H   0  0  0  0  0  0  0  0  0  0  0  0
   56.8920   23.6580   44.3450 C   0  0  0  0  0  0  0  0  0  0  0  0
   56.1909   23.1128   43.6960 H   0  0  0  0  0  0  0  0  0  0  0  0
   56.5390   24.9130   44.8590 C   0  0  0  0  0  0  0  0  0  0  0  0
   55.5547   25.3443   44.6243 H   0  0  0  0  0  0  0  0  0  0  0  0
  1  2  1  0
  2  3  1  0
  3  4  2  0
  3  5  1  0
  5  6  1  0
  6  7  1  0
  6  8  1  0
  6  9  1  0
  9 10  1  0
  9 11  1  0
  9 12  1  0
 12 13  1  0
 13 14  2  0
 13 15  1  0
 15 16  1  0
 15 17  2  0
 17 18  1  0
 17 19  1  0
 19 20  2  0
 20 21  1  0
 20 22  1  0
 22 23  1  0
 22 24  2  0
 24 25  1  0
 25 26  1  0
 25 27  2  0
 27 28  1  0
 27 29  1  0
 29 30  1  0
 30 31  2  0
 30 32  2  0
 30 33  1  0
 33 34  1  0
 33 35  1  0
 29 36  2  0
 36 37  1  0
 36 38  1  0
 38 39  2  0
 39 40  1  0
 12 41  1  0
 41 42  1  0
 41 43  1  0
 41 44  1  0
 44 45  1  0
 44 46  1  0
  2 47  2  3
 47 48  1  0
 47 49  1  0
 49 50  2  0
 50 51  1  0
 50 52  1  0
 52 53  1  0
 52 54  2  0
 54 55  1  0
 54 56  1  0
 56 57  1  0
 56 58  2  0
 58 59  1  0
 44  5  1  0
 58 49  1  0
 39 19  1  0
 38 24  1  0
M  END
>  <UniqueID>  (91) 
82

>  <SMILES>  (91) 
NS(=O)(=O)c1ccc2ccc(/C=C\C(=O)N3CCN(C(=O)C=Cc4ccccc4)CC3)cc2c1

>  <Energy>  (91) 
82.19511976711595

>  <Genealogy>  (91) 
NS(=O)(=O)c1ccc2ccc(/C=C\C(=O)N3CCN(C(=O)C=Cc4ccccc4)CC3)cc2c1 (cis-trans isomerization)
NS(=O)(=O)c1ccc2ccc(/C=C\C(=O)N3CCN(C(=O)C=Cc4ccccc4)CC3)cc2c1 (3D coordinates assigned)
NS(=O)(=O)c1ccc2ccc(/C=C\C(=O)N3CCN(C(=O)C=Cc4ccccc4)CC3)cc2c1 (nonaromatic ring conformer: 82.19511976711595 kcal/mol)

>  <smiles>  (91) 
NS(=O)(=O)c1ccc2ccc(C=CC(=O)N3CCN(C(=O)C=Cc4ccccc4)CC3)cc2c1

>  <score_type>  (91) 
oracle

>  <origin>  (91) 
adg

>  <m_score__min__energy>  (91) 
-11.07

>  <m_primary>  (91) 
energy

$$$$
91:0
     RDKit          3D

 51 54  0  0  0  0  0  0  0  0999 V2000
   58.2550   28.0730   46.3850 O   0  0  0  0  0  0  0  0  0  0  0  0
   57.4650   27.6880   45.4800 C   0  0  0  0  0  0  0  0  0  0  0  0
   57.1150   28.5780   44.4050 N   0  0  0  0  0  0  0  0  0  0  0  0
   57.4010   29.9870   44.4070 C   0  0  0  0  0  0  0  0  0  0  0  0
   57.3680   30.7430   43.2220 C   0  0  0  0  0  0  0  0  0  0  0  0
   57.6800   32.1040   43.2460 C   0  0  0  0  0  0  0  0  0  0  0  0
   58.0320   32.7240   44.4470 C   0  0  0  0  0  0  0  0  0  0  0  0
   58.0720   31.9840   45.6400 C   0  0  0  0  0  0  0  0  0  0  0  0
   58.4650   32.6390   46.9080 C   0  0  0  0  0  0  0  0  0  0  0  0
   57.7570   32.4610   47.9370 O   0  0  0  0  0  0  0  0  0  0  0  0
   59.6420   33.4650   46.9920 N   0  0  0  0  0  0  0  0  0  0  0  0
   59.6390   34.6640   47.8420 C   0  0  0  0  0  0  0  0  0  0  0  0
   60.7350   34.5520   48.9070 C   0  0  0  0  0  0  0  0  0  0  0  0
   61.9900   34.0340   48.3370 N   0  0  0  0  0  0  0  0  0  0  0  0
   63.0720   33.6660   49.2150 C   0  0  0  0  0  0  0  0  0  0  0  0
   63.1860   34.2520   50.4880 C   0  0  0  0  0  0  0  0  0  0  0  0
   64.2430   33.9020   51.3340 C   0  0  0  0  0  0  0  0  0  0  0  0
   65.1950   32.9690   50.9180 C   0  0  0  0  0  0  0  0  0  0  0  0
   65.0950   32.3860   49.6510 C   0  0  0  0  0  0  0  0  0  0  0  0
   64.0410   32.7350   48.8010 C   0  0  0  0  0  0  0  0  0  0  0  0
   62.0960   33.8250   46.8860 C   0  0  0  0  0  0  0  0  0  0  0  0
   60.9040   32.9960   46.3960 C   0  0  0  0  0  0  0  0  0  0  0  0
   57.7790   30.6100   45.6060 C   0  0  0  0  0  0  0  0  0  0  0  0
   56.9320   26.3080   45.5100 C   0  0  0  0  0  0  0  0  0  0  0  0
   57.7170   25.2190   45.0940 C   0  0  0  0  0  0  0  0  0  0  0  0
   57.1820   23.9300   45.1360 C   0  0  0  0  0  0  0  0  0  0  0  0
   55.8780   23.7340   45.5910 C   0  0  0  0  0  0  0  0  0  0  0  0
   55.1250   24.8360   46.0000 C   0  0  0  0  0  0  0  0  0  0  0  0
   55.6630   26.0830   45.9520 N   0  0  0  0  0  0  0  0  0  0  0  0
   56.7200   28.1670   43.5290 H   0  0  0  0  0  0  0  0  0  0  0  0
   57.0953   30.2604   42.2719 H   0  0  0  0  0  0  0  0  0  0  0  0
   57.6484   32.6899   42.3156 H   0  0  0  0  0  0  0  0  0  0  0  0
   58.2788   33.7959   44.4585 H   0  0  0  0  0  0  0  0  0  0  0  0
   59.8243   35.5522   47.2201 H   0  0  0  0  0  0  0  0  0  0  0  0
   58.6610   34.7539   48.3374 H   0  0  0  0  0  0  0  0  0  0  0  0
   60.9210   35.5482   49.3347 H   0  0  0  0  0  0  0  0  0  0  0  0
   60.3926   33.8508   49.6823 H   0  0  0  0  0  0  0  0  0  0  0  0
   62.4402   34.9893   50.8200 H   0  0  0  0  0  0  0  0  0  0  0  0
   64.3247   34.3627   52.3295 H   0  0  0  0  0  0  0  0  0  0  0  0
   66.0234   32.6927   51.5869 H   0  0  0  0  0  0  0  0  0  0  0  0
   65.8460   31.6523   49.3227 H   0  0  0  0  0  0  0  0  0  0  0  0
   63.9695   32.2786   47.8027 H   0  0  0  0  0  0  0  0  0  0  0  0
   62.0986   34.7993   46.3753 H   0  0  0  0  0  0  0  0  0  0  0  0
   63.0299   33.2886   46.6621 H   0  0  0  0  0  0  0  0  0  0  0  0
   60.8357   33.0798   45.3013 H   0  0  0  0  0  0  0  0  0  0  0  0
   61.0620   31.9503   46.6984 H   0  0  0  0  0  0  0  0  0  0  0  0
   57.8468   30.0164   46.5296 H   0  0  0  0  0  0  0  0  0  0  0  0
   58.7451   25.3809   44.7380 H   0  0  0  0  0  0  0  0  0  0  0  0
   57.7874   23.0710   44.8110 H   0  0  0  0  0  0  0  0  0  0  0  0
   55.4478   22.7222   45.6271 H   0  0  0  0  0  0  0  0  0  0  0  0
   54.0957   24.6949   46.3613 H   0  0  0  0  0  0  0  0  0  0  0  0
  1  2  2  0
  2  3  1  0
  3  4  1  0
  4  5  2  0
  5  6  1  0
  6  7  2  0
  7  8  1  0
  8  9  1  0
  9 10  2  0
  9 11  1  0
 11 12  1  0
 12 13  1  0
 13 14  1  0
 14 15  1  0
 15 16  2  0
 16 17  1  0
 17 18  2  0
 18 19  1  0
 19 20  2  0
 14 21  1  0
 21 22  1  0
  8 23  2  0
  2 24  1  0
 24 25  2  0
 25 26  1  0
 26 27  2  0
 27 28  1  0
 28 29  2  0
 23  4  1  0
 29 24  1  0
 22 11  1  0
 20 15  1  0
  3 30  1  0
  5 31  1  0
  6 32  1  0
  7 33  1  0
 12 34  1  0
 12 35  1  0
 13 36  1  0
 13 37  1  0
 16 38  1  0
 17 39  1  0
 18 40  1  0
 19 41  1  0
 20 42  1  0
 21 43  1  0
 21 44  1  0
 22 45  1  0
 22 46  1  0
 23 47  1  0
 25 48  1  0
 26 49  1  0
 27 50  1  0
 28 51  1  0
M  END
>  <UniqueID>  (92) 
83

>  <SMILES>  (92) 
O=C(Nc1cccc(C(=O)N2CCN(c3ccccc3)CC2)c1)c1ccccn1

>  <Energy>  (92) 
69.65572872159339

>  <Genealogy>  (92) 
O=C(Nc1cccc(C(=O)N2CCN(c3ccccc3)CC2)c1)c1ccccn1 (3D coordinates assigned)
O=C(Nc1cccc(C(=O)N2CCN(c3ccccc3)CC2)c1)c1ccccn1 (nonaromatic ring conformer: 69.65572872159339 kcal/mol)

>  <smiles>  (92) 
O=C(Nc1cccc(C(=O)N2CCN(c3ccccc3)CC2)c1)c1ccccn1

>  <score_type>  (92) 
oracle

>  <origin>  (92) 
adg

>  <m_score__min__energy>  (92) 
-9.0399999999999991

>  <m_primary>  (92) 
energy

$$$$
92:0
     RDKit          3D

 61 65  0  0  0  0  0  0  0  0999 V2000
   55.1650   26.7110   45.8220 O   0  0  0  0  0  0  0  0  0  0  0  0
   56.2240   26.2980   46.3670 C   0  0  0  0  0  0  0  0  0  0  0  0
   56.1520   25.2020   47.2170 O   0  0  0  0  0  0  0  0  0  0  0  0
   57.5230   26.9320   46.0370 C   0  0  0  0  0  0  0  0  0  0  0  0
   58.6980   26.2330   46.3710 C   0  0  0  0  0  0  0  0  0  0  0  0
   59.9550   26.7770   46.1040 C   0  0  0  0  0  0  0  0  0  0  0  0
   60.0610   28.0230   45.4920 C   0  0  0  0  0  0  0  0  0  0  0  0
   58.9120   28.7280   45.1380 C   0  0  0  0  0  0  0  0  0  0  0  0
   57.6300   28.2030   45.4000 C   0  0  0  0  0  0  0  0  0  0  0  0
   56.4300   28.9790   44.8950 C   0  0  0  0  0  0  0  0  0  0  0  0
   56.8480   30.2710   44.2400 C   0  0  0  0  0  0  0  0  0  0  0  0
   57.0350   30.3430   42.8500 C   0  0  0  0  0  0  0  0  0  0  0  0
   57.4090   31.5470   42.2520 C   0  0  0  0  0  0  0  0  0  0  0  0
   57.5930   32.6930   43.0300 C   0  0  0  0  0  0  0  0  0  0  0  0
   57.4120   32.6430   44.4210 C   0  0  0  0  0  0  0  0  0  0  0  0
   57.5820   33.8410   45.2830 C   0  0  0  0  0  0  0  0  0  0  0  0
   56.6900   34.7360   45.2250 O   0  0  0  0  0  0  0  0  0  0  0  0
   58.6940   34.0230   46.2020 N   0  0  1  0  0  0  0  0  0  0  0  0
   58.7790   32.9800   47.2710 C   0  0  0  0  0  0  0  0  0  0  0  0
   59.9960   32.0330   47.1740 C   0  0  0  0  0  0  0  0  0  0  0  0
   61.3380   32.7300   46.8260 C   0  0  2  0  0  0  0  0  0  0  0  0
   62.3300   32.6250   47.9190 N   0  0  0  0  0  0  0  0  0  0  0  0
   61.9630   31.8410   49.1150 C   0  0  0  0  0  0  0  0  0  0  0  0
   63.1490   31.4080   49.9450 C   0  0  0  0  0  0  0  0  0  0  0  0
   62.9870   30.3990   50.9100 C   0  0  0  0  0  0  0  0  0  0  0  0
   64.0540   30.0360   51.7380 C   0  0  0  0  0  0  0  0  0  0  0  0
   65.2850   30.6870   51.6210 C   0  0  0  0  0  0  0  0  0  0  0  0
   65.4510   31.7000   50.6740 C   0  0  0  0  0  0  0  0  0  0  0  0
   64.3880   32.0630   49.8370 C   0  0  0  0  0  0  0  0  0  0  0  0
   64.5780   33.0830   48.8620 N   0  0  0  0  0  0  0  0  0  0  0  0
   63.5700   33.3630   47.8990 C   0  0  0  0  0  0  0  0  0  0  0  0
   63.7890   34.2420   47.0250 O   0  0  0  0  0  0  0  0  0  0  0  0
   61.1640   34.1870   46.3780 C   0  0  0  0  0  0  0  0  0  0  0  0
   59.9470   34.2920   45.4600 C   0  0  0  0  0  0  0  0  0  0  0  0
   57.0190   31.4300   45.0150 C   0  0  0  0  0  0  0  0  0  0  0  0
   58.6245   25.2449   46.8488 H   0  0  0  0  0  0  0  0  0  0  0  0
   60.8636   26.2205   46.3775 H   0  0  0  0  0  0  0  0  0  0  0  0
   61.0532   28.4517   45.2875 H   0  0  0  0  0  0  0  0  0  0  0  0
   59.0067   29.7079   44.6472 H   0  0  0  0  0  0  0  0  0  0  0  0
   55.8889   28.3640   44.1609 H   0  0  0  0  0  0  0  0  0  0  0  0
   55.7854   29.2182   45.7536 H   0  0  0  0  0  0  0  0  0  0  0  0
   56.8860   29.4466   42.2301 H   0  0  0  0  0  0  0  0  0  0  0  0
   57.5596   31.5942   41.1634 H   0  0  0  0  0  0  0  0  0  0  0  0
   57.8813   33.6397   42.5497 H   0  0  0  0  0  0  0  0  0  0  0  0
   58.4840   34.9160   46.7120 H   0  0  0  0  0  0  0  0  0  0  0  0
   57.8668   32.3673   47.2213 H   0  0  0  0  0  0  0  0  0  0  0  0
   58.8925   33.5252   48.2196 H   0  0  0  0  0  0  0  0  0  0  0  0
   59.7865   31.2857   46.3945 H   0  0  0  0  0  0  0  0  0  0  0  0
   60.1261   31.5933   48.1739 H   0  0  0  0  0  0  0  0  0  0  0  0
   61.7346   32.1768   45.9619 H   0  0  0  0  0  0  0  0  0  0  0  0
   61.3044   32.4567   49.7452 H   0  0  0  0  0  0  0  0  0  0  0  0
   61.4679   30.9253   48.7596 H   0  0  0  0  0  0  0  0  0  0  0  0
   62.0162   29.8924   51.0145 H   0  0  0  0  0  0  0  0  0  0  0  0
   63.9241   29.2368   52.4825 H   0  0  0  0  0  0  0  0  0  0  0  0
   66.1227   30.4018   52.2744 H   0  0  0  0  0  0  0  0  0  0  0  0
   66.4193   32.2143   50.5851 H   0  0  0  0  0  0  0  0  0  0  0  0
   62.0630   34.5142   45.8350 H   0  0  0  0  0  0  0  0  0  0  0  0
   61.0166   34.8281   47.2596 H   0  0  0  0  0  0  0  0  0  0  0  0
   60.0468   33.5589   44.6460 H   0  0  0  0  0  0  0  0  0  0  0  0
   59.9012   35.3143   45.0565 H   0  0  0  0  0  0  0  0  0  0  0  0
   56.8434   31.3885   46.1001 H   0  0  0  0  0  0  0  0  0  0  0  0
  1  2  2  0
  2  3  1  0
  2  4  1  0
  4  5  2  0
  5  6  1  0
  6  7  2  0
  7  8  1  0
  8  9  2  0
  9 10  1  0
 10 11  1  0
 11 12  2  0
 12 13  1  0
 13 14  2  0
 14 15  1  0
 15 16  1  0
 16 17  2  0
 16 18  1  0
 18 19  1  0
 19 20  1  0
 20 21  1  0
 21 22  1  0
 22 23  1  0
 23 24  1  0
 24 25  2  0
 25 26  1  0
 26 27  2  0
 27 28  1  0
 28 29  2  0
 29 30  1  0
 30 31  1  0
 31 32  2  0
 21 33  1  0
 33 34  1  0
 15 35  2  0
  9  4  1  0
 35 11  1  0
 34 18  1  0
 31 22  1  0
 29 24  1  0
  5 36  1  0
  6 37  1  0
  7 38  1  0
  8 39  1  0
 10 40  1  0
 10 41  1  0
 12 42  1  0
 13 43  1  0
 14 44  1  0
 18 45  1  1
 19 46  1  0
 19 47  1  0
 20 48  1  0
 20 49  1  0
 21 50  1  6
 23 51  1  0
 23 52  1  0
 25 53  1  0
 26 54  1  0
 27 55  1  0
 28 56  1  0
 33 57  1  0
 33 58  1  0
 34 59  1  0
 34 60  1  0
 35 61  1  0
M  CHG  3   3  -1  18   1  30  -1
M  END
>  <UniqueID>  (93) 
84

>  <SMILES>  (93) 
O=C([O-])c1ccccc1Cc1cccc(C(=O)[NH+]2CCC(N3Cc4ccccc4[N-]C3=O)CC2)c1

>  <Energy>  (93) 
94.21258265219505

>  <Genealogy>  (93) 
O=C([O-])c1ccccc1Cc1cccc(C(=O)[NH+]2CCC(N3Cc4ccccc4[N-]C3=O)CC2)c1 (protonated)
O=C([O-])c1ccccc1Cc1cccc(C(=O)[NH+]2CCC(N3Cc4ccccc4[N-]C3=O)CC2)c1 (3D coordinates assigned)
O=C([O-])c1ccccc1Cc1cccc(C(=O)[NH+]2CCC(N3Cc4ccccc4[N-]C3=O)CC2)c1 (nonaromatic ring conformer: 94.21258265219505 kcal/mol)

>  <smiles>  (93) 
O=C(O)c1ccccc1Cc1cccc(C(=O)N2CCC(N3Cc4ccccc4NC3=O)CC2)c1

>  <score_type>  (93) 
oracle

>  <origin>  (93) 
adg

>  <m_score__min__energy>  (93) 
-13.1

>  <m_primary>  (93) 
energy

$$$$
