0:0
     RDKit          3D

 36 38  0  0  1  0  0  0  0  0999 V2000
   56.6990   32.3790   45.3320 O   0  0  0  0  0  0  0  0  0  0  0  0
   57.8580   32.0400   45.7270 C   0  0  0  0  0  0  0  0  0  0  0  0
   58.4280   30.8810   45.1750 N   0  0  0  0  0  0  0  0  0  0  0  0
   57.7800   29.7620   45.2010 C   0  0  0  0  0  0  0  0  0  0  0  0
   58.3100   28.4760   45.2250 C   0  0  0  0  0  0  0  0  0  0  0  0
   57.2270   27.6250   45.2540 C   0  0  0  0  0  0  0  0  0  0  0  0
   57.2990   26.1550   45.2990 C   0  0  0  0  0  0  0  0  0  0  0  0
   57.1930   25.4700   46.4920 C   0  0  0  0  0  0  0  0  0  0  0  0
   57.2550   24.0870   46.5150 C   0  0  0  0  0  0  0  0  0  0  0  0
   57.4280   23.3760   45.3260 C   0  0  0  0  0  0  0  0  0  0  0  0
   57.5340   24.0840   44.1230 C   0  0  0  0  0  0  0  0  0  0  0  0
   57.4720   25.4570   44.1060 C   0  0  0  0  0  0  0  0  0  0  0  0
   56.1000   28.3600   45.2470 N   0  0  0  0  0  0  0  0  0  0  0  0
   56.4370   29.6480   45.2160 N   0  0  0  0  0  0  0  0  0  0  0  0
   58.5040   32.8820   46.7220 C   0  0  0  0  0  0  0  0  0  0  0  0
   58.7090   32.4920   48.0200 C   0  0  0  0  0  0  0  0  0  0  0  0
   59.3200   33.2770   48.9770 C   0  0  0  0  0  0  0  0  0  0  0  0
   59.7720   34.5500   48.6410 C   0  0  0  0  0  0  0  0  0  0  0  0
   59.5670   34.9470   47.3350 C   0  0  0  0  0  0  0  0  0  0  0  0
   58.9570   34.1610   46.3860 C   0  0  0  0  0  0  0  0  0  0  0  0
   58.8000   34.6990   45.0270 C   0  0  0  0  0  0  0  0  0  0  0  0
   59.3370   33.8220   44.0710 F   0  0  0  0  0  0  0  0  0  0  0  0
   57.4540   34.8810   44.7600 F   0  0  0  0  0  0  0  0  0  0  0  0
   59.4420   35.9110   44.8570 F   0  0  0  0  0  0  0  0  0  0  0  0
   59.3739   28.1964   45.2215 H   0  0  0  0  0  0  0  0  0  0  0  0
   57.0583   26.0264   47.4313 H   0  0  0  0  0  0  0  0  0  0  0  0
   57.1679   23.5484   47.4702 H   0  0  0  0  0  0  0  0  0  0  0  0
   57.4802   22.2773   45.3343 H   0  0  0  0  0  0  0  0  0  0  0  0
   57.6686   23.5347   43.1795 H   0  0  0  0  0  0  0  0  0  0  0  0
   57.5586   26.0022   43.1545 H   0  0  0  0  0  0  0  0  0  0  0  0
   55.1500   27.9270   45.2650 H   0  0  0  0  0  0  0  0  0  0  0  0
   55.7400   30.3980   45.1990 H   0  0  0  0  0  0  0  0  0  0  0  0
   58.3650   31.4905   48.3177 H   0  0  0  0  0  0  0  0  0  0  0  0
   59.4493   32.8980   50.0015 H   0  0  0  0  0  0  0  0  0  0  0  0
   60.2653   35.2034   49.3756 H   0  0  0  0  0  0  0  0  0  0  0  0
   59.9109   35.9484   47.0367 H   0  0  0  0  0  0  0  0  0  0  0  0
  1  2  2  0
  2  3  1  0
  3  4  2  0
  4  5  1  0
  5  6  2  0
  6  7  1  0
  7  8  2  0
  8  9  1  0
  9 10  2  0
 10 11  1  0
 11 12  2  0
  6 13  1  0
 13 14  1  0
  2 15  1  0
 15 16  2  0
 16 17  1  0
 17 18  2  0
 18 19  1  0
 19 20  2  0
 20 21  1  0
 21 22  1  0
 21 23  1  0
 21 24  1  0
 14  4  1  0
 20 15  1  0
 12  7  1  0
  5 25  1  0
  8 26  1  0
  9 27  1  0
 10 28  1  0
 11 29  1  0
 12 30  1  0
 13 31  1  0
 14 32  1  0
 16 33  1  0
 17 34  1  0
 18 35  1  0
 19 36  1  0
M  END
>  <smiles>  (1) 
O=C(N=c1cc(-c2ccccc2)[nH][nH]1)c1ccccc1C(F)(F)F

>  <score_type>  (1) 
oracle

>  <origin>  (1) 
adg

>  <m_score__min__energy>  (1) 
-7.9800000000000004

>  <m_primary>  (1) 
energy

$$$$
1:0
     RDKit          3D

 40 42  0  0  1  0  0  0  0  0999 V2000
   56.6430   21.8890   42.5810 C   0  0  0  0  0  0  0  0  0  0  0  0
   56.6780   22.1690   44.0760 C   0  0  0  0  0  0  0  0  0  0  0  0
   56.2770   23.3190   44.6100 C   0  0  0  0  0  0  0  0  0  0  0  0
   56.3380   23.5070   45.9730 C   0  0  0  0  0  0  0  0  0  0  0  0
   56.0370   24.4580   46.7190 N   0  0  0  0  0  0  0  0  0  0  0  0
   56.1770   25.8040   46.2140 C   0  0  0  0  0  0  0  0  0  0  0  0
   55.1100   26.4110   45.9890 O   0  0  0  0  0  0  0  0  0  0  0  0
   57.4580   26.3620   45.9990 N   0  0  0  0  0  0  0  0  0  0  0  0
   57.7310   27.6510   45.5140 C   0  0  0  0  0  0  0  0  0  0  0  0
   56.6530   28.4260   45.1150 C   0  0  0  0  0  0  0  0  0  0  0  0
   56.8400   29.6940   44.6310 C   0  0  0  0  0  0  0  0  0  0  0  0
   58.0900   30.2660   44.5130 C   0  0  0  0  0  0  0  0  0  0  0  0
   58.1760   31.5370   44.0200 O   0  0  0  0  0  0  0  0  0  0  0  0
   57.4370   32.6550   44.4060 C   0  0  0  0  0  0  0  0  0  0  0  0
   58.1960   33.3690   45.4910 C   0  0  0  0  0  0  0  0  0  0  0  0
   58.9410   34.5050   45.2040 C   0  0  0  0  0  0  0  0  0  0  0  0
   59.6380   35.1640   46.1880 C   0  0  0  0  0  0  0  0  0  0  0  0
   59.5830   34.6730   47.4660 C   0  0  0  0  0  0  0  0  0  0  0  0
   58.8440   33.5400   47.7610 C   0  0  0  0  0  0  0  0  0  0  0  0
   58.1840   32.9380   46.7640 N   0  0  0  0  0  0  0  0  0  0  0  0
   59.1650   29.5160   44.9040 C   0  0  0  0  0  0  0  0  0  0  0  0
   58.9700   28.2250   45.3960 C   0  0  0  0  0  0  0  0  0  0  0  0
   57.0340   21.8960   46.5820 S   0  0  0  0  0  0  0  0  0  0  0  0
   57.1380   21.2110   44.9010 N   0  0  0  0  0  0  0  0  0  0  0  0
   56.5082   20.8103   42.4131 H   0  0  0  0  0  0  0  0  0  0  0  0
   55.8066   22.4385   42.1245 H   0  0  0  0  0  0  0  0  0  0  0  0
   57.5890   22.2157   42.1245 H   0  0  0  0  0  0  0  0  0  0  0  0
   55.8958   24.1218   43.9617 H   0  0  0  0  0  0  0  0  0  0  0  0
   58.2700   25.7200   46.2380 H   0  0  0  0  0  0  0  0  0  0  0  0
   55.6342   28.0176   45.1880 H   0  0  0  0  0  0  0  0  0  0  0  0
   55.9598   30.2784   44.3247 H   0  0  0  0  0  0  0  0  0  0  0  0
   57.2991   33.3256   43.5450 H   0  0  0  0  0  0  0  0  0  0  0  0
   56.4472   32.3473   44.7743 H   0  0  0  0  0  0  0  0  0  0  0  0
   58.9738   34.8838   44.1718 H   0  0  0  0  0  0  0  0  0  0  0  0
   60.2260   36.0641   45.9553 H   0  0  0  0  0  0  0  0  0  0  0  0
   60.1334   35.1859   48.2685 H   0  0  0  0  0  0  0  0  0  0  0  0
   58.8004   33.1452   48.7868 H   0  0  0  0  0  0  0  0  0  0  0  0
   60.1815   29.9300   44.8307 H   0  0  0  0  0  0  0  0  0  0  0  0
   59.8505   27.6415   45.7031 H   0  0  0  0  0  0  0  0  0  0  0  0
   57.5160   20.2040   44.7080 H   0  0  0  0  0  0  0  0  0  0  0  0
  1  2  1  0
  2  3  2  0
  3  4  1  0
  4  5  2  0
  5  6  1  0
  6  7  2  0
  6  8  1  0
  8  9  1  0
  9 10  2  0
 10 11  1  0
 11 12  2  0
 12 13  1  0
 13 14  1  0
 14 15  1  0
 15 16  2  0
 16 17  1  0
 17 18  2  0
 18 19  1  0
 19 20  2  0
 12 21  1  0
 21 22  2  0
  4 23  1  0
 23 24  1  0
 24  2  1  0
 22  9  1  0
 20 15  1  0
  1 25  1  0
  1 26  1  0
  1 27  1  0
  3 28  1  0
  8 29  1  0
 10 30  1  0
 11 31  1  0
 14 32  1  0
 14 33  1  0
 16 34  1  0
 17 35  1  0
 18 36  1  0
 19 37  1  0
 21 38  1  0
 22 39  1  0
 24 40  1  0
M  END
>  <smiles>  (2) 
Cc1cc(=NC(=O)Nc2ccc(OCc3ccccn3)cc2)s[nH]1

>  <score_type>  (2) 
oracle

>  <origin>  (2) 
adg

>  <m_score__min__energy>  (2) 
-7.7300000000000004

>  <m_primary>  (2) 
energy

$$$$
2:0
     RDKit          3D

 43 45  0  0  0  0  0  0  0  0999 V2000
   64.9570   32.4400   49.7770 C   0  0  0  0  0  0  0  0  0  0  0  0
   63.7920   33.3750   49.6230 C   0  0  0  0  0  0  0  0  0  0  0  0
   62.8960   32.9570   48.5520 N   0  0  0  0  0  0  0  0  0  0  0  0
   63.4440   32.6760   47.2540 C   0  0  0  0  0  0  0  0  0  0  0  0
   63.3940   33.8580   46.3250 C   0  0  0  0  0  0  0  0  0  0  0  0
   61.5140   32.8570   48.8770 C   0  0  0  0  0  0  0  0  0  0  0  0
   61.1930   33.1380   50.0650 O   0  0  0  0  0  0  0  0  0  0  0  0
   60.4880   32.4590   47.9420 C   0  0  0  0  0  0  0  0  0  0  0  0
   60.0510   31.1370   48.0110 C   0  0  0  0  0  0  0  0  0  0  0  0
   59.0790   30.6870   47.1540 C   0  0  0  0  0  0  0  0  0  0  0  0
   58.5010   29.4530   47.0370 C   0  0  0  0  0  0  0  0  0  0  0  0
   57.5750   29.5650   46.0020 C   0  0  0  0  0  0  0  0  0  0  0  0
   56.7020   28.4930   45.5040 C   0  0  0  0  0  0  0  0  0  0  0  0
   57.0140   27.2820   45.6590 O   0  0  0  0  0  0  0  0  0  0  0  0
   55.5280   28.8230   44.8610 O   0  0  0  0  0  0  0  0  0  0  0  0
   55.4280   29.7250   43.7820 C   0  0  0  0  0  0  0  0  0  0  0  0
   57.6000   30.8020   45.5280 O   0  0  0  0  0  0  0  0  0  0  0  0
   58.4950   31.5030   46.2000 C   0  0  0  0  0  0  0  0  0  0  0  0
   58.9400   32.8070   46.1480 C   0  0  0  0  0  0  0  0  0  0  0  0
   58.3760   33.6500   45.2020 C   0  0  0  0  0  0  0  0  0  0  0  0
   58.8050   34.9660   45.1290 C   0  0  0  0  0  0  0  0  0  0  0  0
   59.7830   35.4170   45.9900 C   0  0  0  0  0  0  0  0  0  0  0  0
   60.3660   34.5950   46.9460 C   0  0  0  0  0  0  0  0  0  0  0  0
   59.9240   33.2950   47.0010 C   0  0  0  0  0  0  0  0  0  0  0  0
   65.1585   32.2783   50.8462 H   0  0  0  0  0  0  0  0  0  0  0  0
   64.7208   31.4780   49.2988 H   0  0  0  0  0  0  0  0  0  0  0  0
   65.8451   32.8789   49.2988 H   0  0  0  0  0  0  0  0  0  0  0  0
   63.2292   33.4001   50.5678 H   0  0  0  0  0  0  0  0  0  0  0  0
   64.1856   34.3702   49.3686 H   0  0  0  0  0  0  0  0  0  0  0  0
   64.4936   32.3702   47.3756 H   0  0  0  0  0  0  0  0  0  0  0  0
   62.8329   31.8792   46.8049 H   0  0  0  0  0  0  0  0  0  0  0  0
   63.3547   34.7861   46.9142 H   0  0  0  0  0  0  0  0  0  0  0  0
   64.2927   33.8641   45.6907 H   0  0  0  0  0  0  0  0  0  0  0  0
   62.4980   33.7882   45.6907 H   0  0  0  0  0  0  0  0  0  0  0  0
   60.4866   30.4531   48.7544 H   0  0  0  0  0  0  0  0  0  0  0  0
   58.7216   28.5573   47.6362 H   0  0  0  0  0  0  0  0  0  0  0  0
   55.3145   30.7484   44.1689 H   0  0  0  0  0  0  0  0  0  0  0  0
   56.3384   29.6641   43.1676 H   0  0  0  0  0  0  0  0  0  0  0  0
   54.5530   29.4662   43.1676 H   0  0  0  0  0  0  0  0  0  0  0  0
   57.5982   33.2789   44.5184 H   0  0  0  0  0  0  0  0  0  0  0  0
   58.3665   35.6487   44.3863 H   0  0  0  0  0  0  0  0  0  0  0  0
   60.1129   36.4638   45.9173 H   0  0  0  0  0  0  0  0  0  0  0  0
   61.1452   34.9673   47.6273 H   0  0  0  0  0  0  0  0  0  0  0  0
  1  2  1  0
  2  3  1  0
  3  4  1  0
  4  5  1  0
  3  6  1  0
  6  7  2  0
  6  8  1  0
  8  9  2  0
  9 10  1  0
 10 11  1  0
 11 12  2  0
 12 13  1  0
 13 14  2  0
 13 15  1  0
 15 16  1  0
 12 17  1  0
 17 18  1  0
 18 19  1  0
 19 20  2  0
 20 21  1  0
 21 22  2  0
 22 23  1  0
 23 24  2  0
 24  8  1  0
 18 10  2  0
 24 19  1  0
  1 25  1  0
  1 26  1  0
  1 27  1  0
  2 28  1  0
  2 29  1  0
  4 30  1  0
  4 31  1  0
  5 32  1  0
  5 33  1  0
  5 34  1  0
  9 35  1  0
 11 36  1  0
 16 37  1  0
 16 38  1  0
 16 39  1  0
 20 40  1  0
 21 41  1  0
 22 42  1  0
 23 43  1  0
M  END
>  <smiles>  (3) 
CCN(CC)C(=O)c1cc2cc(C(=O)OC)oc2c2ccccc12

>  <score_type>  (3) 
oracle

>  <origin>  (3) 
adg

>  <m_score__min__energy>  (3) 
-7.7000000000000002

>  <m_primary>  (3) 
energy

$$$$
3:0
     RDKit          3D

 39 40  0  0  0  0  0  0  0  0999 V2000
   56.6270   23.4170   43.7100 C   0  0  0  0  0  0  0  0  0  0  0  0
   56.6540   24.3210   45.2610 S   0  0  0  0  0  0  0  0  0  0  0  0
   57.3990   25.9420   45.0740 C   0  0  0  0  0  0  0  0  0  0  0  0
   57.9010   26.3720   43.8720 C   0  0  0  0  0  0  0  0  0  0  0  0
   58.4630   27.6350   43.7960 C   0  0  0  0  0  0  0  0  0  0  0  0
   58.5350   28.4820   44.8940 C   0  0  0  0  0  0  0  0  0  0  0  0
   59.1440   29.8260   44.7690 C   0  0  0  0  0  0  0  0  0  0  0  0
   58.1640   30.8950   44.7790 N   0  0  0  0  0  0  0  0  0  0  0  0
   56.9150   30.7280   44.1170 C   0  0  0  0  0  0  0  0  0  0  0  0
   55.8040   30.7920   44.7180 O   0  0  0  0  0  0  0  0  0  0  0  0
   56.8900   30.4670   42.6530 C   0  0  0  0  0  0  0  0  0  0  0  0
   57.4210   31.9670   41.8500 Cl  0  0  0  0  0  0  0  0  0  0  0  0
   58.4630   32.1160   45.4550 C   0  0  0  0  0  0  0  0  0  0  0  0
   58.3080   33.2750   44.6940 C   0  0  0  0  0  0  0  0  0  0  0  0
   58.5760   34.5150   45.2640 C   0  0  0  0  0  0  0  0  0  0  0  0
   58.9920   34.5730   46.5850 C   0  0  0  0  0  0  0  0  0  0  0  0
   59.1340   33.4070   47.3080 C   0  0  0  0  0  0  0  0  0  0  0  0
   59.5860   33.5540   48.7260 C   0  0  0  0  0  0  0  0  0  0  0  0
   58.8760   32.1640   46.7700 C   0  0  0  0  0  0  0  0  0  0  0  0
   58.0160   28.0170   46.0990 C   0  0  0  0  0  0  0  0  0  0  0  0
   57.4470   26.7470   46.1930 C   0  0  0  0  0  0  0  0  0  0  0  0
   56.5947   22.3369   43.9157 H   0  0  0  0  0  0  0  0  0  0  0  0
   55.7371   23.7069   43.1320 H   0  0  0  0  0  0  0  0  0  0  0  0
   57.5326   23.6533   43.1320 H   0  0  0  0  0  0  0  0  0  0  0  0
   57.8578   25.7245   42.9838 H   0  0  0  0  0  0  0  0  0  0  0  0
   58.8665   27.9795   42.8324 H   0  0  0  0  0  0  0  0  0  0  0  0
   59.8361   29.9770   45.6106 H   0  0  0  0  0  0  0  0  0  0  0  0
   59.6623   29.8637   43.7995 H   0  0  0  0  0  0  0  0  0  0  0  0
   57.5740   29.6423   42.4041 H   0  0  0  0  0  0  0  0  0  0  0  0
   55.8813   30.1791   42.3217 H   0  0  0  0  0  0  0  0  0  0  0  0
   57.9752   33.2084   43.6477 H   0  0  0  0  0  0  0  0  0  0  0  0
   58.4595   35.4366   44.6749 H   0  0  0  0  0  0  0  0  0  0  0  0
   59.2078   35.5441   47.0544 H   0  0  0  0  0  0  0  0  0  0  0  0
   58.7617   33.2859   49.4033 H   0  0  0  0  0  0  0  0  0  0  0  0
   60.4421   32.8880   48.9089 H   0  0  0  0  0  0  0  0  0  0  0  0
   59.8866   34.5962   48.9089 H   0  0  0  0  0  0  0  0  0  0  0  0
   58.9948   31.2471   47.3659 H   0  0  0  0  0  0  0  0  0  0  0  0
   58.0552   28.6606   46.9902 H   0  0  0  0  0  0  0  0  0  0  0  0
   57.0402   26.3906   47.1509 H   0  0  0  0  0  0  0  0  0  0  0  0
  1  2  1  0
  2  3  1  0
  3  4  2  0
  4  5  1  0
  5  6  2  0
  6  7  1  0
  7  8  1  0
  8  9  1  0
  9 10  2  0
  9 11  1  0
 11 12  1  0
  8 13  1  0
 13 14  2  0
 14 15  1  0
 15 16  2  0
 16 17  1  0
 17 18  1  0
 17 19  2  0
  6 20  1  0
 20 21  2  0
 21  3  1  0
 19 13  1  0
  1 22  1  0
  1 23  1  0
  1 24  1  0
  4 25  1  0
  5 26  1  0
  7 27  1  0
  7 28  1  0
 11 29  1  0
 11 30  1  0
 14 31  1  0
 15 32  1  0
 16 33  1  0
 18 34  1  0
 18 35  1  0
 18 36  1  0
 19 37  1  0
 20 38  1  0
 21 39  1  0
M  END
>  <smiles>  (4) 
CSc1ccc(CN(C(=O)CCl)c2cccc(C)c2)cc1

>  <score_type>  (4) 
oracle

>  <origin>  (4) 
adg

>  <m_score__min__energy>  (4) 
-7.7000000000000002

>  <m_primary>  (4) 
energy

$$$$
4:0
     RDKit          3D

 25 26  0  0  0  0  0  0  0  0999 V2000
   54.7700   29.3450   43.9480 O   0  0  0  0  0  0  0  0  0  0  0  0
   55.9950   29.6140   44.0840 C   0  0  0  0  0  0  0  0  0  0  0  0
   56.3550   30.9440   44.1040 C   0  0  0  0  0  0  0  0  0  0  0  0
   57.6900   31.2730   44.2510 C   0  0  0  0  0  0  0  0  0  0  0  0
   58.0110   32.7320   44.2630 C   0  0  0  0  0  0  0  0  0  0  0  0
   58.5770   33.1290   45.6000 C   0  0  0  0  0  0  0  0  0  0  0  0
   58.1530   32.4080   46.6980 C   0  0  0  0  0  0  0  0  0  0  0  0
   58.6470   32.7360   47.9580 C   0  0  0  0  0  0  0  0  0  0  0  0
   59.5490   33.7810   48.0530 C   0  0  0  0  0  0  0  0  0  0  0  0
   60.1850   34.2140   49.6230 Cl  0  0  0  0  0  0  0  0  0  0  0  0
   59.9640   34.4960   46.9300 C   0  0  0  0  0  0  0  0  0  0  0  0
   59.4740   34.1710   45.6780 C   0  0  0  0  0  0  0  0  0  0  0  0
   58.6520   30.3370   44.3760 N   0  0  0  0  0  0  0  0  0  0  0  0
   58.2640   29.0510   44.3520 C   0  0  0  0  0  0  0  0  0  0  0  0
   59.4180   27.8780   44.5030 S   0  0  0  0  0  0  0  0  0  0  0  0
   56.9530   28.7000   44.2090 N   0  0  0  0  0  0  0  0  0  0  0  0
   55.5929   31.7310   44.0047 H   0  0  0  0  0  0  0  0  0  0  0  0
   58.7498   32.9479   43.4771 H   0  0  0  0  0  0  0  0  0  0  0  0
   57.0893   33.3037   44.0795 H   0  0  0  0  0  0  0  0  0  0  0  0
   57.4336   31.5843   46.5792 H   0  0  0  0  0  0  0  0  0  0  0  0
   58.3292   32.1801   48.8524 H   0  0  0  0  0  0  0  0  0  0  0  0
   60.6832   35.3210   47.0402 H   0  0  0  0  0  0  0  0  0  0  0  0
   59.7884   34.7231   44.7800 H   0  0  0  0  0  0  0  0  0  0  0  0
   59.6430   30.6410   44.4840 H   0  0  0  0  0  0  0  0  0  0  0  0
   56.6680   27.6840   44.1920 H   0  0  0  0  0  0  0  0  0  0  0  0
  1  2  2  0
  2  3  1  0
  3  4  2  0
  4  5  1  0
  5  6  1  0
  6  7  2  0
  7  8  1  0
  8  9  2  0
  9 10  1  0
  9 11  1  0
 11 12  2  0
  4 13  1  0
 13 14  1  0
 14 15  2  0
 14 16  1  0
 16  2  1  0
 12  6  1  0
  3 17  1  0
  5 18  1  0
  5 19  1  0
  7 20  1  0
  8 21  1  0
 11 22  1  0
 12 23  1  0
 13 24  1  0
 16 25  1  0
M  END
>  <smiles>  (5) 
O=c1cc(Cc2ccc(Cl)cc2)[nH]c(=S)[nH]1

>  <score_type>  (5) 
oracle

>  <origin>  (5) 
adg

>  <m_score__min__energy>  (5) 
-6.6399999999999997

>  <m_primary>  (5) 
energy

$$$$
5:0
     RDKit          3D

 52 53  0  0  0  0  0  0  0  0999 V2000
   63.5800   32.2070   49.3110 C   0  0  0  0  0  0  0  0  0  0  0  0
   62.3520   31.9800   48.5020 C   0  0  0  0  0  0  0  0  0  0  0  0
   61.6970   33.1210   47.9930 N   0  0  0  0  0  0  0  0  0  0  0  0
   61.9490   33.5050   46.6600 C   0  0  0  0  0  0  0  0  0  0  0  0
   63.4000   33.8160   46.4420 C   0  0  0  0  0  0  0  0  0  0  0  0
   60.4720   33.5180   48.5870 C   0  0  0  0  0  0  0  0  0  0  0  0
   59.2660   32.7520   48.1490 C   0  0  0  0  0  0  0  0  0  0  0  0
   59.5700   31.7370   47.1630 N   0  0  0  0  0  0  0  0  0  0  0  0
   58.6210   31.3660   46.1680 C   0  0  0  0  0  0  0  0  0  0  0  0
   57.9700   32.3540   45.4620 C   0  0  0  0  0  0  0  0  0  0  0  0
   57.0610   31.9390   44.5120 C   0  0  0  0  0  0  0  0  0  0  0  0
   56.8160   30.6190   44.2810 C   0  0  0  0  0  0  0  0  0  0  0  0
   57.4630   29.5920   44.9840 C   0  0  0  0  0  0  0  0  0  0  0  0
   57.1500   28.2540   44.6850 N   0  0  0  0  0  0  0  0  0  0  0  0
   57.3470   27.1250   45.4920 C   0  0  0  0  0  0  0  0  0  0  0  0
   57.8570   27.2360   46.6260 O   0  0  0  0  0  0  0  0  0  0  0  0
   56.9790   25.7630   45.0770 C   0  0  0  0  0  0  0  0  0  0  0  0
   57.6670   25.0610   44.1150 C   0  0  0  0  0  0  0  0  0  0  0  0
   57.2920   23.7750   43.7510 C   0  0  0  0  0  0  0  0  0  0  0  0
   56.2060   23.1410   44.3430 C   0  0  0  0  0  0  0  0  0  0  0  0
   55.9100   21.8700   43.9200 O   0  0  0  0  0  0  0  0  0  0  0  0
   56.8910   21.0910   43.2870 C   0  0  0  0  0  0  0  0  0  0  0  0
   55.5250   23.8440   45.3000 C   0  0  0  0  0  0  0  0  0  0  0  0
   55.8950   25.1030   45.6540 C   0  0  0  0  0  0  0  0  0  0  0  0
   58.3680   30.0140   45.9290 C   0  0  0  0  0  0  0  0  0  0  0  0
   63.3281   32.1604   50.3808 H   0  0  0  0  0  0  0  0  0  0  0  0
   64.3231   31.4310   49.0752 H   0  0  0  0  0  0  0  0  0  0  0  0
   63.9966   33.1974   49.0752 H   0  0  0  0  0  0  0  0  0  0  0  0
   62.6316   31.3489   47.6455 H   0  0  0  0  0  0  0  0  0  0  0  0
   61.6322   31.5263   49.1991 H   0  0  0  0  0  0  0  0  0  0  0  0
   61.6550   32.6837   45.9899 H   0  0  0  0  0  0  0  0  0  0  0  0
   61.3658   34.4129   46.4465 H   0  0  0  0  0  0  0  0  0  0  0  0
   63.9021   33.9236   47.4148 H   0  0  0  0  0  0  0  0  0  0  0  0
   63.8693   32.9980   45.8757 H   0  0  0  0  0  0  0  0  0  0  0  0
   63.4928   34.7544   45.8757 H   0  0  0  0  0  0  0  0  0  0  0  0
   60.5702   33.4013   49.6764 H   0  0  0  0  0  0  0  0  0  0  0  0
   60.3032   34.5563   48.2654 H   0  0  0  0  0  0  0  0  0  0  0  0
   58.8215   32.2642   49.0290 H   0  0  0  0  0  0  0  0  0  0  0  0
   58.5724   33.4673   47.6829 H   0  0  0  0  0  0  0  0  0  0  0  0
   60.5120   31.2870   47.2100 H   0  0  0  0  0  0  0  0  0  0  0  0
   58.1657   33.4205   45.6470 H   0  0  0  0  0  0  0  0  0  0  0  0
   56.5187   32.6945   43.9245 H   0  0  0  0  0  0  0  0  0  0  0  0
   56.0796   30.3470   43.5105 H   0  0  0  0  0  0  0  0  0  0  0  0
   56.7120   28.0760   43.7340 H   0  0  0  0  0  0  0  0  0  0  0  0
   58.5329   25.5286   43.6235 H   0  0  0  0  0  0  0  0  0  0  0  0
   57.8671   23.2459   42.9768 H   0  0  0  0  0  0  0  0  0  0  0  0
   57.5136   20.5966   44.0473 H   0  0  0  0  0  0  0  0  0  0  0  0
   56.4056   20.3296   42.6588 H   0  0  0  0  0  0  0  0  0  0  0  0
   57.5227   21.7363   42.6588 H   0  0  0  0  0  0  0  0  0  0  0  0
   54.6587   23.3795   45.7937 H   0  0  0  0  0  0  0  0  0  0  0  0
   55.3140   25.6238   46.4294 H   0  0  0  0  0  0  0  0  0  0  0  0
   58.9117   29.2601   46.5173 H   0  0  0  0  0  0  0  0  0  0  0  0
  1  2  1  0
  2  3  1  0
  3  4  1  0
  4  5  1  0
  3  6  1  0
  6  7  1  0
  7  8  1  0
  8  9  1  0
  9 10  2  0
 10 11  1  0
 11 12  2  0
 12 13  1  0
 13 14  1  0
 14 15  1  0
 15 16  2  0
 15 17  1  0
 17 18  2  0
 18 19  1  0
 19 20  2  0
 20 21  1  0
 21 22  1  0
 20 23  1  0
 23 24  2  0
 13 25  2  0
 25  9  1  0
 24 17  1  0
  1 26  1  0
  1 27  1  0
  1 28  1  0
  2 29  1  0
  2 30  1  0
  4 31  1  0
  4 32  1  0
  5 33  1  0
  5 34  1  0
  5 35  1  0
  6 36  1  0
  6 37  1  0
  7 38  1  0
  7 39  1  0
  8 40  1  0
 10 41  1  0
 11 42  1  0
 12 43  1  0
 14 44  1  0
 18 45  1  0
 19 46  1  0
 22 47  1  0
 22 48  1  0
 22 49  1  0
 23 50  1  0
 24 51  1  0
 25 52  1  0
M  END
>  <smiles>  (6) 
CCN(CC)CCNc1cccc(NC(=O)c2ccc(OC)cc2)c1

>  <score_type>  (6) 
oracle

>  <origin>  (6) 
adg

>  <m_score__min__energy>  (6) 
-7.1100000000000003

>  <m_primary>  (6) 
energy

$$$$
6:0
     RDKit          3D

 37 39  0  0  0  0  0  0  0  0999 V2000
   60.3960   33.9300   49.3360 C   0  0  0  0  0  0  0  0  0  0  0  0
   59.3450   34.5570   48.6450 O   0  0  0  0  0  0  0  0  0  0  0  0
   59.0790   34.2480   47.3320 C   0  0  0  0  0  0  0  0  0  0  0  0
   59.4800   34.9810   46.2420 C   0  0  0  0  0  0  0  0  0  0  0  0
   59.1780   34.6150   44.9360 C   0  0  0  0  0  0  0  0  0  0  0  0
   58.4480   33.4710   44.7660 C   0  0  0  0  0  0  0  0  0  0  0  0
   57.9960   32.8410   43.6640 N   0  0  0  0  0  0  0  0  0  0  0  0
   57.3180   31.7290   43.9720 C   0  0  0  0  0  0  0  0  0  0  0  0
   56.5530   30.4780   43.0260 S   0  0  0  0  0  0  0  0  0  0  0  0
   57.0340   28.8030   43.2360 C   0  0  0  0  0  0  0  0  0  0  0  0
   57.7560   28.5540   44.4970 C   0  0  0  0  0  0  0  0  0  0  0  0
   59.0710   29.0460   44.5490 C   0  0  0  0  0  0  0  0  0  0  0  0
   59.8840   28.8580   45.6400 C   0  0  0  0  0  0  0  0  0  0  0  0
   59.4340   28.1580   46.7610 C   0  0  0  0  0  0  0  0  0  0  0  0
   58.1450   27.6860   46.6940 C   0  0  0  0  0  0  0  0  0  0  0  0
   57.3240   27.8790   45.5880 C   0  0  0  0  0  0  0  0  0  0  0  0
   56.0690   27.3730   45.6330 O   0  0  0  0  0  0  0  0  0  0  0  0
   55.7640   26.0540   45.9930 C   0  0  0  0  0  0  0  0  0  0  0  0
   57.3550   31.6780   45.3360 N   0  0  0  0  0  0  0  0  0  0  0  0
   58.0270   32.7110   45.8220 C   0  0  0  0  0  0  0  0  0  0  0  0
   58.3320   33.0830   47.1120 C   0  0  0  0  0  0  0  0  0  0  0  0
   60.2323   34.0277   50.4194 H   0  0  0  0  0  0  0  0  0  0  0  0
   60.4290   32.8645   49.0647 H   0  0  0  0  0  0  0  0  0  0  0  0
   61.3493   34.4071   49.0647 H   0  0  0  0  0  0  0  0  0  0  0  0
   60.0653   35.8971   46.4100 H   0  0  0  0  0  0  0  0  0  0  0  0
   59.5108   35.2178   44.0781 H   0  0  0  0  0  0  0  0  0  0  0  0
   58.1420   33.2020   42.7210 H   0  0  0  0  0  0  0  0  0  0  0  0
   56.1300   28.1765   43.2224 H   0  0  0  0  0  0  0  0  0  0  0  0
   57.7227   28.5578   42.4141 H   0  0  0  0  0  0  0  0  0  0  0  0
   59.4636   29.6018   43.6848 H   0  0  0  0  0  0  0  0  0  0  0  0
   60.9057   29.2654   45.6303 H   0  0  0  0  0  0  0  0  0  0  0  0
   60.0712   27.9945   47.6426 H   0  0  0  0  0  0  0  0  0  0  0  0
   57.7443   27.1301   47.5545 H   0  0  0  0  0  0  0  0  0  0  0  0
   55.7442   25.9684   47.0895 H   0  0  0  0  0  0  0  0  0  0  0  0
   54.7791   25.7813   45.5861 H   0  0  0  0  0  0  0  0  0  0  0  0
   56.5292   25.3766   45.5861 H   0  0  0  0  0  0  0  0  0  0  0  0
   57.9927   32.4719   47.9614 H   0  0  0  0  0  0  0  0  0  0  0  0
  1  2  1  0
  2  3  1  0
  3  4  2  0
  4  5  1  0
  5  6  2  0
  6  7  1  0
  7  8  1  0
  8  9  1  0
  9 10  1  0
 10 11  1  0
 11 12  2  0
 12 13  1  0
 13 14  2  0
 14 15  1  0
 15 16  2  0
 16 17  1  0
 17 18  1  0
  8 19  2  0
 19 20  1  0
 20 21  2  0
 21  3  1  0
 20  6  1  0
 16 11  1  0
  1 22  1  0
  1 23  1  0
  1 24  1  0
  4 25  1  0
  5 26  1  0
  7 27  1  0
 10 28  1  0
 10 29  1  0
 12 30  1  0
 13 31  1  0
 14 32  1  0
 15 33  1  0
 18 34  1  0
 18 35  1  0
 18 36  1  0
 21 37  1  0
M  END
>  <smiles>  (7) 
COc1ccc2[nH]c(SCc3ccccc3OC)nc2c1

>  <score_type>  (7) 
oracle

>  <origin>  (7) 
adg

>  <m_score__min__energy>  (7) 
-7.2999999999999998

>  <m_primary>  (7) 
energy

$$$$
7:0
     RDKit          3D

 50 53  0  0  0  0  0  0  0  0999 V2000
   55.9970   29.3610   42.6350 C   0  0  0  0  0  0  0  0  0  0  0  0
   56.7610   30.5430   42.5430 O   0  0  0  0  0  0  0  0  0  0  0  0
   57.2920   31.2170   43.6320 C   0  0  0  0  0  0  0  0  0  0  0  0
   57.9710   32.4030   43.3930 C   0  0  0  0  0  0  0  0  0  0  0  0
   58.5140   33.1020   44.4730 C   0  0  0  0  0  0  0  0  0  0  0  0
   58.3700   32.6050   45.7540 C   0  0  0  0  0  0  0  0  0  0  0  0
   58.9500   33.3600   46.8590 C   0  0  0  0  0  0  0  0  0  0  0  0
   58.9060   34.7210   47.0810 C   0  0  0  0  0  0  0  0  0  0  0  0
   59.6050   34.9610   48.2690 C   0  0  0  0  0  0  0  0  0  0  0  0
   60.0210   33.7120   48.6750 C   0  0  0  0  0  0  0  0  0  0  0  0
   60.8230   33.3460   49.8960 C   0  0  0  0  0  0  0  0  0  0  0  0
   62.1870   33.0240   49.4830 N   0  0  0  0  0  0  0  0  0  0  0  0
   63.1440   33.8430   50.2150 C   0  0  0  0  0  0  0  0  0  0  0  0
   62.4890   31.6320   49.5900 C   0  0  0  0  0  0  0  0  0  0  0  0
   61.6800   30.8580   48.6220 C   0  0  0  0  0  0  0  0  0  0  0  0
   60.7150   29.9830   49.0890 C   0  0  0  0  0  0  0  0  0  0  0  0
   59.9180   29.2340   48.2170 C   0  0  0  0  0  0  0  0  0  0  0  0
   60.0820   29.3540   46.8360 C   0  0  0  0  0  0  0  0  0  0  0  0
   59.2370   28.5600   45.9520 C   0  0  0  0  0  0  0  0  0  0  0  0
   58.1070   27.8990   46.3800 C   0  0  0  0  0  0  0  0  0  0  0  0
   57.4030   27.1870   45.4350 C   0  0  0  0  0  0  0  0  0  0  0  0
   57.7590   27.1080   44.1460 N   0  0  0  0  0  0  0  0  0  0  0  0
   58.8440   27.7430   43.7410 N   0  0  0  0  0  0  0  0  0  0  0  0
   59.5660   28.4510   44.6160 C   0  0  0  0  0  0  0  0  0  0  0  0
   61.0450   30.2240   46.3690 C   0  0  0  0  0  0  0  0  0  0  0  0
   61.8160   30.9510   47.2540 C   0  0  0  0  0  0  0  0  0  0  0  0
   59.6220   32.7940   47.8280 O   0  0  0  0  0  0  0  0  0  0  0  0
   57.7020   31.4510   45.9260 N   0  0  0  0  0  0  0  0  0  0  0  0
   57.1780   30.7740   44.9030 N   0  0  0  0  0  0  0  0  0  0  0  0
   55.8351   29.1105   43.6938 H   0  0  0  0  0  0  0  0  0  0  0  0
   55.0257   29.5129   42.1415 H   0  0  0  0  0  0  0  0  0  0  0  0
   56.5343   28.5378   42.1415 H   0  0  0  0  0  0  0  0  0  0  0  0
   58.0800   32.7870   42.3680 H   0  0  0  0  0  0  0  0  0  0  0  0
   59.0545   34.0451   44.3044 H   0  0  0  0  0  0  0  0  0  0  0  0
   58.4154   35.4732   46.4458 H   0  0  0  0  0  0  0  0  0  0  0  0
   59.7820   35.9265   48.7655 H   0  0  0  0  0  0  0  0  0  0  0  0
   60.8390   34.1944   50.5960 H   0  0  0  0  0  0  0  0  0  0  0  0
   60.3686   32.4779   50.3958 H   0  0  0  0  0  0  0  0  0  0  0  0
   62.9890   33.7103   51.2959 H   0  0  0  0  0  0  0  0  0  0  0  0
   64.1668   33.5362   49.9509 H   0  0  0  0  0  0  0  0  0  0  0  0
   62.9988   34.9009   49.9509 H   0  0  0  0  0  0  0  0  0  0  0  0
   63.5570   31.4746   49.3790 H   0  0  0  0  0  0  0  0  0  0  0  0
   62.2534   31.2907   50.6088 H   0  0  0  0  0  0  0  0  0  0  0  0
   60.5709   29.8736   50.1740 H   0  0  0  0  0  0  0  0  0  0  0  0
   59.1591   28.5478   48.6211 H   0  0  0  0  0  0  0  0  0  0  0  0
   57.7815   27.9382   47.4300 H   0  0  0  0  0  0  0  0  0  0  0  0
   56.4969   26.6527   45.7567 H   0  0  0  0  0  0  0  0  0  0  0  0
   60.4649   28.9713   44.2538 H   0  0  0  0  0  0  0  0  0  0  0  0
   61.1995   30.3392   45.2860 H   0  0  0  0  0  0  0  0  0  0  0  0
   62.5744   31.6366   46.8480 H   0  0  0  0  0  0  0  0  0  0  0  0
  1  2  1  0
  2  3  1  0
  3  4  2  0
  4  5  1  0
  5  6  2  0
  6  7  1  0
  7  8  2  0
  8  9  1  0
  9 10  2  0
 10 11  1  0
 11 12  1  0
 12 13  1  0
 12 14  1  0
 14 15  1  0
 15 16  2  0
 16 17  1  0
 17 18  2  0
 18 19  1  0
 19 20  2  0
 20 21  1  0
 21 22  2  0
 22 23  1  0
 23 24  2  0
 18 25  1  0
 25 26  2  0
 10 27  1  0
  6 28  1  0
 28 29  2  0
 29  3  1  0
 27  7  1  0
 26 15  1  0
 24 19  1  0
  1 30  1  0
  1 31  1  0
  1 32  1  0
  4 33  1  0
  5 34  1  0
  8 35  1  0
  9 36  1  0
 11 37  1  0
 11 38  1  0
 13 39  1  0
 13 40  1  0
 13 41  1  0
 14 42  1  0
 14 43  1  0
 16 44  1  0
 17 45  1  0
 20 46  1  0
 21 47  1  0
 24 48  1  0
 25 49  1  0
 26 50  1  0
M  END
>  <smiles>  (8) 
COc1ccc(-c2ccc(CN(C)Cc3ccc(-c4ccnnc4)cc3)o2)nn1

>  <score_type>  (8) 
oracle

>  <origin>  (8) 
adg

>  <m_score__min__energy>  (8) 
-9.6400000000000006

>  <m_primary>  (8) 
energy

$$$$
8:0
     RDKit          3D

 62 64  0  0  1  0  0  0  0  0999 V2000
   57.4020   33.4320   47.1170 C   0  0  0  0  0  0  0  0  0  0  0  0
   58.6100   33.9720   47.7980 C   0  0  0  0  0  0  0  0  0  0  0  0
   59.7910   34.0910   46.9740 N   0  0  0  0  0  0  0  0  0  0  0  0
   59.8290   35.3380   46.2550 C   0  0  0  0  0  0  0  0  0  0  0  0
   59.2550   35.1130   44.8730 C   0  0  0  0  0  0  0  0  0  0  0  0
   60.9910   33.7600   47.6960 C   0  0  0  0  0  0  0  0  0  0  0  0
   61.3980   32.3430   47.5250 C   0  0  0  0  0  0  0  0  0  0  0  0
   60.2680   31.5680   47.0500 N   0  0  0  0  0  0  0  0  0  0  0  0
   60.3770   30.3110   46.4100 C   0  0  0  0  0  0  0  0  0  0  0  0
   61.5030   29.7610   46.2050 O   0  0  0  0  0  0  0  0  0  0  0  0
   59.2110   29.5690   45.9460 C   0  0  0  0  0  0  0  0  0  0  0  0
   58.9770   28.3480   46.5660 C   0  0  0  0  0  0  0  0  0  0  0  0
   57.8870   27.6040   46.1630 C   0  0  0  0  0  0  0  0  0  0  0  0
   57.7010   26.4800   46.7680 N   0  0  0  0  0  0  0  0  0  0  0  0
   57.6690   25.2300   46.0950 C   0  0  0  0  0  0  0  0  0  0  0  0
   58.7520   24.4020   45.9500 C   0  0  0  0  0  0  0  0  0  0  0  0
   58.6120   23.2060   45.2810 C   0  0  0  0  0  0  0  0  0  0  0  0
   57.3840   22.8210   44.7450 C   0  0  0  0  0  0  0  0  0  0  0  0
   57.2430   21.5120   44.0130 C   0  0  0  0  0  0  0  0  0  0  0  0
   56.3280   20.5900   44.7590 C   0  0  0  0  0  0  0  0  0  0  0  0
   56.6620   21.8580   42.6370 C   0  0  0  0  0  0  0  0  0  0  0  0
   56.2750   23.6670   44.8910 C   0  0  0  0  0  0  0  0  0  0  0  0
   56.4290   24.8590   45.5620 C   0  0  0  0  0  0  0  0  0  0  0  0
   57.0490   28.0130   45.1980 N   0  0  0  0  0  0  0  0  0  0  0  0
   57.3000   29.1990   44.6160 C   0  0  0  0  0  0  0  0  0  0  0  0
   56.4340   29.6440   43.6080 C   0  0  0  0  0  0  0  0  0  0  0  0
   56.6440   30.8620   42.9720 C   0  0  0  0  0  0  0  0  0  0  0  0
   57.7360   31.6380   43.3560 C   0  0  0  0  0  0  0  0  0  0  0  0
   58.6100   31.2250   44.3510 C   0  0  0  0  0  0  0  0  0  0  0  0
   58.3640   30.0080   44.9540 C   0  0  0  0  0  0  0  0  0  0  0  0
   56.6711   33.1053   47.8713 H   0  0  0  0  0  0  0  0  0  0  0  0
   56.9545   34.2157   46.4881 H   0  0  0  0  0  0  0  0  0  0  0  0
   57.6875   32.5758   46.4881 H   0  0  0  0  0  0  0  0  0  0  0  0
   58.3630   34.9728   48.1818 H   0  0  0  0  0  0  0  0  0  0  0  0
   58.8632   33.2443   48.5831 H   0  0  0  0  0  0  0  0  0  0  0  0
   59.2302   36.0917   46.7873 H   0  0  0  0  0  0  0  0  0  0  0  0
   60.8657   35.6976   46.1786 H   0  0  0  0  0  0  0  0  0  0  0  0
   58.2341   34.7128   44.9607 H   0  0  0  0  0  0  0  0  0  0  0  0
   59.2290   36.0675   44.3269 H   0  0  0  0  0  0  0  0  0  0  0  0
   59.8846   34.3951   44.3269 H   0  0  0  0  0  0  0  0  0  0  0  0
   61.8061   34.4048   47.3357 H   0  0  0  0  0  0  0  0  0  0  0  0
   60.7857   33.9168   48.7652 H   0  0  0  0  0  0  0  0  0  0  0  0
   62.2171   32.2828   46.7933 H   0  0  0  0  0  0  0  0  0  0  0  0
   61.7378   31.9406   48.4907 H   0  0  0  0  0  0  0  0  0  0  0  0
   59.2890   31.9390   47.1770 H   0  0  0  0  0  0  0  0  0  0  0  0
   59.6452   27.9828   47.3598 H   0  0  0  0  0  0  0  0  0  0  0  0
   59.7283   24.6914   46.3660 H   0  0  0  0  0  0  0  0  0  0  0  0
   59.4832   22.5440   45.1679 H   0  0  0  0  0  0  0  0  0  0  0  0
   58.2096   20.9952   43.9197 H   0  0  0  0  0  0  0  0  0  0  0  0
   56.4678   20.7309   45.8409 H   0  0  0  0  0  0  0  0  0  0  0  0
   55.2846   20.8137   44.4919 H   0  0  0  0  0  0  0  0  0  0  0  0
   56.5596   19.5484   44.4919 H   0  0  0  0  0  0  0  0  0  0  0  0
   55.7234   22.4170   42.7653 H   0  0  0  0  0  0  0  0  0  0  0  0
   57.3824   22.4743   42.0792 H   0  0  0  0  0  0  0  0  0  0  0  0
   56.4633   20.9310   42.0792 H   0  0  0  0  0  0  0  0  0  0  0  0
   55.2970   23.3823   44.4756 H   0  0  0  0  0  0  0  0  0  0  0  0
   55.5652   25.5296   45.6811 H   0  0  0  0  0  0  0  0  0  0  0  0
   56.2530   27.4090   44.9460 H   0  0  0  0  0  0  0  0  0  0  0  0
   55.5760   29.0206   43.3160 H   0  0  0  0  0  0  0  0  0  0  0  0
   55.9616   31.2066   42.1811 H   0  0  0  0  0  0  0  0  0  0  0  0
   57.9094   32.6030   42.8572 H   0  0  0  0  0  0  0  0  0  0  0  0
   59.4683   31.8452   44.6488 H   0  0  0  0  0  0  0  0  0  0  0  0
  1  2  1  0
  2  3  1  0
  3  4  1  0
  4  5  1  0
  3  6  1  0
  6  7  1  0
  7  8  1  0
  8  9  1  0
  9 10  2  0
  9 11  1  0
 11 12  2  0
 12 13  1  0
 13 14  2  0
 14 15  1  0
 15 16  2  0
 16 17  1  0
 17 18  2  0
 18 19  1  0
 19 20  1  0
 19 21  1  0
 18 22  1  0
 22 23  2  0
 13 24  1  0
 24 25  1  0
 25 26  2  0
 26 27  1  0
 27 28  2  0
 28 29  1  0
 29 30  2  0
 30 11  1  0
 23 15  1  0
 30 25  1  0
  1 31  1  0
  1 32  1  0
  1 33  1  0
  2 34  1  0
  2 35  1  0
  4 36  1  0
  4 37  1  0
  5 38  1  0
  5 39  1  0
  5 40  1  0
  6 41  1  0
  6 42  1  0
  7 43  1  0
  7 44  1  0
  8 45  1  0
 12 46  1  0
 16 47  1  0
 17 48  1  0
 19 49  1  0
 20 50  1  0
 20 51  1  0
 20 52  1  0
 21 53  1  0
 21 54  1  0
 21 55  1  0
 22 56  1  0
 23 57  1  0
 24 58  1  0
 26 59  1  0
 27 60  1  0
 28 61  1  0
 29 62  1  0
M  END
>  <smiles>  (9) 
CCN(CC)CCNC(=O)c1cc(=Nc2ccc(C(C)C)cc2)[nH]c2ccccc12

>  <score_type>  (9) 
oracle

>  <origin>  (9) 
adg

>  <m_score__min__energy>  (9) 
-8.4499999999999993

>  <m_primary>  (9) 
energy

$$$$
9:0
     RDKit          3D

 44 47  0  0  0  0  0  0  0  0999 V2000
   56.1390   27.0640   45.9140 O   0  0  0  0  0  0  0  0  0  0  0  0
   57.0090   26.4270   45.2690 C   0  0  0  0  0  0  0  0  0  0  0  0
   57.9230   27.1480   44.4690 N   0  0  0  0  0  0  0  0  0  0  0  0
   57.7910   28.5690   44.4500 C   0  0  0  0  0  0  0  0  0  0  0  0
   57.0140   29.1110   43.4410 C   0  0  0  0  0  0  0  0  0  0  0  0
   56.8680   30.4820   43.3960 C   0  0  0  0  0  0  0  0  0  0  0  0
   57.4930   31.2640   44.3470 C   0  0  0  0  0  0  0  0  0  0  0  0
   57.3730   32.5740   44.3330 O   0  0  0  0  0  0  0  0  0  0  0  0
   57.9540   33.3420   45.2230 C   0  0  0  0  0  0  0  0  0  0  0  0
   57.7650   34.5810   45.1070 O   0  0  0  0  0  0  0  0  0  0  0  0
   58.7380   32.8680   46.2500 C   0  0  0  0  0  0  0  0  0  0  0  0
   59.5030   33.9110   47.4260 S   0  0  0  0  0  0  0  0  0  0  0  0
   59.2610   35.3260   47.0220 O   0  0  0  0  0  0  0  0  0  0  0  0
   58.9180   33.6540   48.7960 O   0  0  0  0  0  0  0  0  0  0  0  0
   61.2100   33.5510   47.5540 C   0  0  0  0  0  0  0  0  0  0  0  0
   61.9910   33.8430   46.4410 C   0  0  0  0  0  0  0  0  0  0  0  0
   63.3550   33.6040   46.4170 C   0  0  0  0  0  0  0  0  0  0  0  0
   63.9160   33.0560   47.5590 C   0  0  0  0  0  0  0  0  0  0  0  0
   63.1460   32.7700   48.6540 C   0  0  0  0  0  0  0  0  0  0  0  0
   61.7820   33.0060   48.6850 C   0  0  0  0  0  0  0  0  0  0  0  0
   58.8930   31.4800   46.3050 C   0  0  0  0  0  0  0  0  0  0  0  0
   58.2680   30.7160   45.3540 C   0  0  0  0  0  0  0  0  0  0  0  0
   58.4210   29.3450   45.4070 C   0  0  0  0  0  0  0  0  0  0  0  0
   57.0100   24.9750   45.3970 C   0  0  0  0  0  0  0  0  0  0  0  0
   57.0020   24.4430   46.6650 C   0  0  0  0  0  0  0  0  0  0  0  0
   57.0020   23.0630   46.8960 C   0  0  0  0  0  0  0  0  0  0  0  0
   57.0090   22.2200   45.8030 C   0  0  0  0  0  0  0  0  0  0  0  0
   57.0160   22.7680   44.5380 C   0  0  0  0  0  0  0  0  0  0  0  0
   57.0260   21.5620   43.0470 Br  0  0  0  0  0  0  0  0  0  0  0  0
   57.0170   24.1270   44.3100 C   0  0  0  0  0  0  0  0  0  0  0  0
   58.6510   26.6320   43.9280 H   0  0  0  0  0  0  0  0  0  0  0  0
   56.5262   28.4661   42.6953 H   0  0  0  0  0  0  0  0  0  0  0  0
   56.2582   30.9488   42.6084 H   0  0  0  0  0  0  0  0  0  0  0  0
   61.5104   34.2773   45.5520 H   0  0  0  0  0  0  0  0  0  0  0  0
   63.9647   33.8385   45.5320 H   0  0  0  0  0  0  0  0  0  0  0  0
   64.9958   32.8477   47.5862 H   0  0  0  0  0  0  0  0  0  0  0  0
   63.6288   32.3366   49.5423 H   0  0  0  0  0  0  0  0  0  0  0  0
   61.1796   32.7688   49.5743 H   0  0  0  0  0  0  0  0  0  0  0  0
   59.5019   31.0120   47.0925 H   0  0  0  0  0  0  0  0  0  0  0  0
   59.0315   28.8787   46.1943 H   0  0  0  0  0  0  0  0  0  0  0  0
   56.9954   25.1258   47.5274 H   0  0  0  0  0  0  0  0  0  0  0  0
   56.9966   22.6611   47.9200 H   0  0  0  0  0  0  0  0  0  0  0  0
   57.0090   21.1285   45.9392 H   0  0  0  0  0  0  0  0  0  0  0  0
   57.0232   24.5258   43.2849 H   0  0  0  0  0  0  0  0  0  0  0  0
  1  2  2  0
  2  3  1  0
  3  4  1  0
  4  5  2  0
  5  6  1  0
  6  7  2  0
  7  8  1  0
  8  9  1  0
  9 10  2  0
  9 11  1  0
 11 12  1  0
 12 13  2  0
 12 14  2  0
 12 15  1  0
 15 16  2  0
 16 17  1  0
 17 18  2  0
 18 19  1  0
 19 20  2  0
 11 21  2  0
 21 22  1  0
 22 23  2  0
  2 24  1  0
 24 25  2  0
 25 26  1  0
 26 27  2  0
 27 28  1  0
 28 29  1  0
 28 30  2  0
 23  4  1  0
 30 24  1  0
 22  7  1  0
 20 15  1  0
  3 31  1  0
  5 32  1  0
  6 33  1  0
 16 34  1  0
 17 35  1  0
 18 36  1  0
 19 37  1  0
 20 38  1  0
 21 39  1  0
 23 40  1  0
 25 41  1  0
 26 42  1  0
 27 43  1  0
 30 44  1  0
M  END
>  <smiles>  (10) 
O=C(Nc1ccc2oc(=O)c(S(=O)(=O)c3ccccc3)cc2c1)c1cccc(Br)c1

>  <score_type>  (10) 
oracle

>  <origin>  (10) 
adg

>  <m_score__min__energy>  (10) 
-10.5

>  <m_primary>  (10) 
energy

$$$$
10:0
     RDKit          3D

 36 38  0  0  0  0  0  0  0  0999 V2000
   60.9570   34.1910   48.6970 C   0  0  0  0  0  0  0  0  0  0  0  0
   59.7520   34.6510   48.1370 O   0  0  0  0  0  0  0  0  0  0  0  0
   59.3330   34.1800   46.8860 C   0  0  0  0  0  0  0  0  0  0  0  0
   59.6650   34.8040   45.7130 C   0  0  0  0  0  0  0  0  0  0  0  0
   59.2350   34.3140   44.5040 C   0  0  0  0  0  0  0  0  0  0  0  0
   58.4630   33.1790   44.5080 C   0  0  0  0  0  0  0  0  0  0  0  0
   58.0350   32.6930   43.2780 C   0  0  0  0  0  0  0  0  0  0  0  0
   57.2600   31.5530   43.2770 C   0  0  0  0  0  0  0  0  0  0  0  0
   56.9510   30.9580   44.4830 C   0  0  0  0  0  0  0  0  0  0  0  0
   56.2350   29.9100   44.4270 O   0  0  0  0  0  0  0  0  0  0  0  0
   57.3820   31.4610   45.6150 O   0  0  0  0  0  0  0  0  0  0  0  0
   58.1280   32.5480   45.6940 C   0  0  0  0  0  0  0  0  0  0  0  0
   58.5550   33.0330   46.9100 C   0  0  0  0  0  0  0  0  0  0  0  0
   58.1960   32.3610   48.1860 C   0  0  0  0  0  0  0  0  0  0  0  0
   59.1320   31.2590   48.4530 N   0  0  0  0  0  0  0  0  0  0  0  0
   59.3900   30.2570   47.4760 C   0  0  0  0  0  0  0  0  0  0  0  0
   60.4580   30.3410   46.5880 C   0  0  0  0  0  0  0  0  0  0  0  0
   60.6730   29.3560   45.6610 C   0  0  0  0  0  0  0  0  0  0  0  0
   59.8030   28.2630   45.6160 C   0  0  0  0  0  0  0  0  0  0  0  0
   58.7370   28.1470   46.4760 C   0  0  0  0  0  0  0  0  0  0  0  0
   58.5400   29.1560   47.4070 C   0  0  0  0  0  0  0  0  0  0  0  0
   60.8854   34.2184   49.7943 H   0  0  0  0  0  0  0  0  0  0  0  0
   61.1438   33.1583   48.3674 H   0  0  0  0  0  0  0  0  0  0  0  0
   61.7845   34.8365   48.3674 H   0  0  0  0  0  0  0  0  0  0  0  0
   60.2857   35.7118   45.7395 H   0  0  0  0  0  0  0  0  0  0  0  0
   59.5010   34.8156   43.5618 H   0  0  0  0  0  0  0  0  0  0  0  0
   58.3049   33.1996   42.3397 H   0  0  0  0  0  0  0  0  0  0  0  0
   56.8945   31.1253   42.3318 H   0  0  0  0  0  0  0  0  0  0  0  0
   58.2466   33.0896   49.0085 H   0  0  0  0  0  0  0  0  0  0  0  0
   57.1755   31.9579   48.1079 H   0  0  0  0  0  0  0  0  0  0  0  0
   59.6250   31.2000   49.3770 H   0  0  0  0  0  0  0  0  0  0  0  0
   61.1357   31.2063   46.6309 H   0  0  0  0  0  0  0  0  0  0  0  0
   61.5190   29.4242   44.9613 H   0  0  0  0  0  0  0  0  0  0  0  0
   59.9764   27.4727   44.8708 H   0  0  0  0  0  0  0  0  0  0  0  0
   58.0610   27.2806   46.4273 H   0  0  0  0  0  0  0  0  0  0  0  0
   57.6938   29.0850   48.1062 H   0  0  0  0  0  0  0  0  0  0  0  0
  1  2  1  0
  2  3  1  0
  3  4  2  0
  4  5  1  0
  5  6  2  0
  6  7  1  0
  7  8  2  0
  8  9  1  0
  9 10  2  0
  9 11  1  0
 11 12  1  0
 12 13  2  0
 13 14  1  0
 14 15  1  0
 15 16  1  0
 16 17  2  0
 17 18  1  0
 18 19  2  0
 19 20  1  0
 20 21  2  0
 13  3  1  0
 21 16  1  0
 12  6  1  0
  1 22  1  0
  1 23  1  0
  1 24  1  0
  4 25  1  0
  5 26  1  0
  7 27  1  0
  8 28  1  0
 14 29  1  0
 14 30  1  0
 15 31  1  0
 17 32  1  0
 18 33  1  0
 19 34  1  0
 20 35  1  0
 21 36  1  0
M  END
>  <smiles>  (11) 
COc1ccc2ccc(=O)oc2c1CNc1ccccc1

>  <score_type>  (11) 
oracle

>  <origin>  (11) 
adg

>  <m_score__min__energy>  (11) 
-6.6299999999999999

>  <m_primary>  (11) 
energy

$$$$
11:0
     RDKit          3D

 34 36  0  0  1  0  0  0  0  0999 V2000
   57.6800   27.2610   47.4110 O   0  0  0  0  0  0  0  0  0  0  0  0
   57.0550   26.6270   46.5210 C   0  0  0  0  0  0  0  0  0  0  0  0
   56.7940   27.2960   45.2950 N   0  0  0  0  0  0  0  0  0  0  0  0
   57.2220   28.6320   45.0740 C   0  0  0  0  0  0  0  0  0  0  0  0
   56.2750   29.5130   44.5610 C   0  0  0  0  0  0  0  0  0  0  0  0
   56.6100   30.8150   44.3200 C   0  0  0  0  0  0  0  0  0  0  0  0
   57.8790   31.2910   44.5770 C   0  0  0  0  0  0  0  0  0  0  0  0
   58.1830   32.6550   44.3120 N   0  0  0  0  0  0  0  0  0  0  0  0
   58.5960   33.4890   45.2080 C   0  0  0  0  0  0  0  0  0  0  0  0
   59.1930   34.6710   44.8070 C   0  0  0  0  0  0  0  0  0  0  0  0
   59.6510   35.5950   45.7250 C   0  0  0  0  0  0  0  0  0  0  0  0
   59.5060   35.3260   47.0710 C   0  0  0  0  0  0  0  0  0  0  0  0
   58.9010   34.1280   47.4460 C   0  0  0  0  0  0  0  0  0  0  0  0
   58.4620   33.2420   46.5300 N   0  0  0  0  0  0  0  0  0  0  0  0
   58.8300   30.4100   45.0940 C   0  0  0  0  0  0  0  0  0  0  0  0
   58.4940   29.0790   45.3400 C   0  0  0  0  0  0  0  0  0  0  0  0
   56.6000   25.2530   46.7150 C   0  0  0  0  0  0  0  0  0  0  0  0
   57.3290   24.2160   47.2970 C   0  0  0  0  0  0  0  0  0  0  0  0
   56.5340   23.0880   47.2860 C   0  0  0  0  0  0  0  0  0  0  0  0
   55.3450   23.4940   46.6900 C   0  0  0  0  0  0  0  0  0  0  0  0
   55.4280   24.7730   46.3710 O   0  0  0  0  0  0  0  0  0  0  0  0
   56.2720   26.8250   44.5000 H   0  0  0  0  0  0  0  0  0  0  0  0
   55.2548   29.1603   44.3492 H   0  0  0  0  0  0  0  0  0  0  0  0
   55.8513   31.4990   43.9120 H   0  0  0  0  0  0  0  0  0  0  0  0
   59.3053   34.8792   43.7327 H   0  0  0  0  0  0  0  0  0  0  0  0
   60.1235   36.5299   45.3893 H   0  0  0  0  0  0  0  0  0  0  0  0
   59.8595   36.0401   47.8294 H   0  0  0  0  0  0  0  0  0  0  0  0
   58.7788   33.8999   48.5151 H   0  0  0  0  0  0  0  0  0  0  0  0
   58.0090   32.3430   46.7850 H   0  0  0  0  0  0  0  0  0  0  0  0
   59.8483   30.7667   45.3082 H   0  0  0  0  0  0  0  0  0  0  0  0
   59.2466   28.3875   45.7467 H   0  0  0  0  0  0  0  0  0  0  0  0
   58.3528   24.2849   47.6933 H   0  0  0  0  0  0  0  0  0  0  0  0
   56.7858   22.0868   47.6656 H   0  0  0  0  0  0  0  0  0  0  0  0
   54.4712   22.8500   46.5119 H   0  0  0  0  0  0  0  0  0  0  0  0
  1  2  2  0
  2  3  1  0
  3  4  1  0
  4  5  2  0
  5  6  1  0
  6  7  2  0
  7  8  1  0
  8  9  2  0
  9 10  1  0
 10 11  2  0
 11 12  1  0
 12 13  2  0
 13 14  1  0
  7 15  1  0
 15 16  2  0
  2 17  1  0
 17 18  2  0
 18 19  1  0
 19 20  2  0
 20 21  1  0
 16  4  1  0
 21 17  1  0
 14  9  1  0
  3 22  1  0
  5 23  1  0
  6 24  1  0
 10 25  1  0
 11 26  1  0
 12 27  1  0
 13 28  1  0
 14 29  1  0
 15 30  1  0
 16 31  1  0
 18 32  1  0
 19 33  1  0
 20 34  1  0
M  END
>  <smiles>  (12) 
O=C(Nc1ccc(N=c2cccc[nH]2)cc1)c1ccco1

>  <score_type>  (12) 
oracle

>  <origin>  (12) 
adg

>  <m_score__min__energy>  (12) 
-6.8799999999999999

>  <m_primary>  (12) 
energy

$$$$
12:0
     RDKit          3D

 88 91  0  0  1  0  0  0  0  0999 V2000
   57.2070   25.4050   46.7010 C   0  0  0  0  0  0  0  0  0  0  0  0
   58.8520   25.9700   47.2510 S   0  0  0  0  0  0  0  0  0  0  0  0
   59.5910   26.9470   45.8980 C   0  0  0  0  0  0  0  0  0  0  0  0
   58.6460   28.0330   45.5370 C   0  0  0  0  0  0  0  0  0  0  0  0
   57.9700   28.7480   46.6670 C   0  0  2  0  0  0  0  0  0  0  0  0
   57.1570   29.7990   45.9820 N   0  0  0  0  0  0  0  0  0  0  0  0
   57.7510   30.8310   45.2480 C   0  0  0  0  0  0  0  0  0  0  0  0
   58.9710   31.0060   45.0750 O   0  0  0  0  0  0  0  0  0  0  0  0
   56.8980   31.7650   44.6430 O   0  0  0  0  0  0  0  0  0  0  0  0
   56.6440   33.0320   45.2190 C   0  0  0  0  0  0  0  0  0  0  0  0
   57.8220   33.4840   46.0360 C   0  0  0  0  0  0  0  0  0  0  0  0
   58.8430   34.2380   45.5070 C   0  0  0  0  0  0  0  0  0  0  0  0
   59.8830   34.6030   46.3400 C   0  0  0  0  0  0  0  0  0  0  0  0
   59.9340   34.2390   47.6760 C   0  0  0  0  0  0  0  0  0  0  0  0
   58.9080   33.4800   48.2090 C   0  0  0  0  0  0  0  0  0  0  0  0
   57.8490   33.1040   47.3770 C   0  0  0  0  0  0  0  0  0  0  0  0
   58.8800   29.4210   47.5970 C   0  0  0  0  0  0  0  0  0  0  0  0
   58.5060   29.4360   48.8270 O   0  0  0  0  0  0  0  0  0  0  0  0
   60.1090   30.0410   47.2880 N   0  0  0  0  0  0  0  0  0  0  0  0
   60.8650   30.6370   48.3520 C   0  0  2  0  0  0  0  0  0  0  0  0
   62.1640   31.2370   47.9510 C   0  0  0  0  0  0  0  0  0  0  0  0
   62.8050   32.1210   48.9330 C   0  0  0  0  0  0  0  0  0  0  0  0
   62.1400   33.0600   49.6870 C   0  0  0  0  0  0  0  0  0  0  0  0
   62.7470   33.8820   50.6100 C   0  0  0  0  0  0  0  0  0  0  0  0
   64.1020   33.7800   50.8140 C   0  0  0  0  0  0  0  0  0  0  0  0
   64.6670   34.6200   51.7480 C   0  0  0  0  0  0  0  0  0  0  0  0
   66.0340   34.5310   51.9670 C   0  0  0  0  0  0  0  0  0  0  0  0
   66.7640   33.5980   51.2340 C   0  0  0  0  0  0  0  0  0  0  0  0
   66.1680   32.7680   50.3040 C   0  0  0  0  0  0  0  0  0  0  0  0
   64.8100   32.8550   50.0840 C   0  0  0  0  0  0  0  0  0  0  0  0
   64.1830   32.0310   49.1530 C   0  0  0  0  0  0  0  0  0  0  0  0
   61.2140   29.5080   49.3150 C   0  0  0  0  0  0  0  0  0  0  0  0
   61.8260   29.8910   50.3370 O   0  0  0  0  0  0  0  0  0  0  0  0
   60.8640   28.1750   49.0470 N   0  0  0  0  0  0  0  0  0  0  0  0
   61.1150   27.0030   49.8000 C   0  0  0  0  0  0  0  0  0  0  0  0
   61.1740   27.1730   51.2660 C   0  0  1  0  0  0  0  0  0  0  0  0
   62.4030   27.8960   51.6680 N   0  0  0  0  0  0  0  0  0  0  0  0
   60.0140   27.7290   52.0000 C   0  0  0  0  0  0  0  0  0  0  0  0
   60.0120   29.1730   52.1460 N   0  0  0  0  0  0  0  0  0  0  0  0
   58.8600   29.9790   52.0580 C   0  0  0  0  0  0  0  0  0  0  0  0
   57.7630   29.3600   51.8400 O   0  0  0  0  0  0  0  0  0  0  0  0
   58.7860   31.4050   52.1870 C   0  0  0  0  0  0  0  0  0  0  0  0
   60.0020   32.0980   52.2710 C   0  0  0  0  0  0  0  0  0  0  0  0
   61.1990   31.4760   52.2270 F   0  0  0  0  0  0  0  0  0  0  0  0
   60.0210   33.4870   52.4040 C   0  0  0  0  0  0  0  0  0  0  0  0
   58.8680   34.2380   52.4580 C   0  0  0  0  0  0  0  0  0  0  0  0
   57.6740   33.5560   52.3750 C   0  0  0  0  0  0  0  0  0  0  0  0
   57.6620   32.1680   52.2430 C   0  0  0  0  0  0  0  0  0  0  0  0
   56.4500   31.5880   52.1730 F   0  0  0  0  0  0  0  0  0  0  0  0
   56.5806   25.1899   47.5793 H   0  0  0  0  0  0  0  0  0  0  0  0
   56.7325   26.1917   46.0960 H   0  0  0  0  0  0  0  0  0  0  0  0
   57.3160   24.4928   46.0960 H   0  0  0  0  0  0  0  0  0  0  0  0
   60.5458   27.3802   46.2306 H   0  0  0  0  0  0  0  0  0  0  0  0
   59.7801   26.3039   45.0258 H   0  0  0  0  0  0  0  0  0  0  0  0
   59.2062   28.7819   44.9579 H   0  0  0  0  0  0  0  0  0  0  0  0
   57.8341   27.5349   44.9867 H   0  0  0  0  0  0  0  0  0  0  0  0
   57.4112   28.0235   47.2776 H   0  0  0  0  0  0  0  0  0  0  0  0
   56.1270   29.6640   46.1240 H   0  0  0  0  0  0  0  0  0  0  0  0
   56.4568   33.7628   44.4184 H   0  0  0  0  0  0  0  0  0  0  0  0
   55.7644   32.9549   45.8750 H   0  0  0  0  0  0  0  0  0  0  0  0
   58.8320   34.5421   44.4499 H   0  0  0  0  0  0  0  0  0  0  0  0
   60.7038   35.2070   45.9259 H   0  0  0  0  0  0  0  0  0  0  0  0
   60.7808   34.5501   48.3054 H   0  0  0  0  0  0  0  0  0  0  0  0
   58.9248   33.1781   49.2666 H   0  0  0  0  0  0  0  0  0  0  0  0
   57.0258   32.5000   47.7863 H   0  0  0  0  0  0  0  0  0  0  0  0
   60.4270   30.0380   46.3000 H   0  0  0  0  0  0  0  0  0  0  0  0
   60.2441   31.4476   48.7611 H   0  0  0  0  0  0  0  0  0  0  0  0
   62.8611   30.4136   47.7365 H   0  0  0  0  0  0  0  0  0  0  0  0
   61.9359   31.8772   47.0861 H   0  0  0  0  0  0  0  0  0  0  0  0
   61.0541   33.1606   49.5434 H   0  0  0  0  0  0  0  0  0  0  0  0
   62.1531   34.6130   51.1783 H   0  0  0  0  0  0  0  0  0  0  0  0
   64.0512   35.3416   52.3049 H   0  0  0  0  0  0  0  0  0  0  0  0
   66.5299   35.1819   52.7022 H   0  0  0  0  0  0  0  0  0  0  0  0
   67.8485   33.5197   51.4008 H   0  0  0  0  0  0  0  0  0  0  0  0
   66.7738   32.0418   49.7422 H   0  0  0  0  0  0  0  0  0  0  0  0
   64.7782   31.3013   48.5844 H   0  0  0  0  0  0  0  0  0  0  0  0
   60.3210   28.0340   48.1270 H   0  0  0  0  0  0  0  0  0  0  0  0
   60.3143   26.2824   49.5771 H   0  0  0  0  0  0  0  0  0  0  0  0
   62.1193   26.6687   49.5006 H   0  0  0  0  0  0  0  0  0  0  0  0
   61.1650   26.1199   51.5835 H   0  0  0  0  0  0  0  0  0  0  0  0
   62.9480   28.1180   50.8110 H   0  0  0  0  0  0  0  0  0  0  0  0
   62.1200   28.7770   52.1760 H   0  0  0  0  0  0  0  0  0  0  0  0
   59.0996   27.4398   51.4614 H   0  0  0  0  0  0  0  0  0  0  0  0
   60.0710   27.3183   53.0189 H   0  0  0  0  0  0  0  0  0  0  0  0
   60.9310   29.6180   52.3290 H   0  0  0  0  0  0  0  0  0  0  0  0
   60.9917   34.0004   52.4680 H   0  0  0  0  0  0  0  0  0  0  0  0
   58.8990   35.3326   52.5626 H   0  0  0  0  0  0  0  0  0  0  0  0
   56.7243   34.1098   52.4131 H   0  0  0  0  0  0  0  0  0  0  0  0
  1  2  1  0
  2  3  1  0
  3  4  1  0
  4  5  1  0
  5  6  1  0
  6  7  1  0
  7  8  2  0
  7  9  1  0
  9 10  1  0
 10 11  1  0
 11 12  2  0
 12 13  1  0
 13 14  2  0
 14 15  1  0
 15 16  2  0
  5 17  1  0
 17 18  2  0
 17 19  1  0
 19 20  1  0
 20 21  1  0
 21 22  1  0
 22 23  2  0
 23 24  1  0
 24 25  2  0
 25 26  1  0
 26 27  2  0
 27 28  1  0
 28 29  2  0
 29 30  1  0
 30 31  2  0
 20 32  1  0
 32 33  2  0
 32 34  1  0
 34 35  1  0
 35 36  1  0
 36 37  1  0
 36 38  1  0
 38 39  1  0
 39 40  1  0
 40 41  2  0
 40 42  1  0
 42 43  2  0
 43 44  1  0
 43 45  1  0
 45 46  2  0
 46 47  1  0
 47 48  2  0
 48 49  1  0
 16 11  1  0
 31 22  1  0
 48 42  1  0
 30 25  1  0
  1 50  1  0
  1 51  1  0
  1 52  1  0
  3 53  1  0
  3 54  1  0
  4 55  1  0
  4 56  1  0
  5 57  1  1
  6 58  1  0
 10 59  1  0
 10 60  1  0
 12 61  1  0
 13 62  1  0
 14 63  1  0
 15 64  1  0
 16 65  1  0
 19 66  1  0
 20 67  1  1
 21 68  1  0
 21 69  1  0
 23 70  1  0
 24 71  1  0
 26 72  1  0
 27 73  1  0
 28 74  1  0
 29 75  1  0
 31 76  1  0
 34 77  1  0
 35 78  1  0
 35 79  1  0
 36 80  1  1
 37 81  1  0
 37 82  1  0
 38 83  1  0
 38 84  1  0
 39 85  1  0
 45 86  1  0
 46 87  1  0
 47 88  1  0
M  END
>  <smiles>  (13) 
CSCCC(NC(=O)OCc1ccccc1)C(=O)NC(Cc1ccc2ccccc2c1)C(=O)NCC(N)CNC(=O)c1c(F)cccc1F

>  <score_type>  (13) 
oracle

>  <origin>  (13) 
adg

>  <m_score__min__energy>  (13) 
-9.9600000000000009

>  <m_primary>  (13) 
energy

$$$$
13:0
     RDKit          3D

 37 39  0  0  0  0  0  0  0  0999 V2000
   64.2930   31.7900   50.4320 C   0  0  0  0  0  0  0  0  0  0  0  0
   64.5030   32.9840   49.0990 S   0  0  0  0  0  0  0  0  0  0  0  0
   62.9640   33.4620   48.3750 C   0  0  0  0  0  0  0  0  0  0  0  0
   62.8500   33.4710   46.9970 C   0  0  0  0  0  0  0  0  0  0  0  0
   61.6620   33.8400   46.3650 C   0  0  0  0  0  0  0  0  0  0  0  0
   60.5600   34.2070   47.1090 C   0  0  0  0  0  0  0  0  0  0  0  0
   59.2660   34.6040   46.5340 C   0  0  0  0  0  0  0  0  0  0  0  0
   58.5730   33.3820   46.0640 C   0  0  0  0  0  0  0  0  0  0  0  0
   59.0810   32.1640   46.3660 N   0  0  0  0  0  0  0  0  0  0  0  0
   58.5240   31.0040   45.9810 C   0  0  0  0  0  0  0  0  0  0  0  0
   59.1120   29.7100   46.3360 C   0  0  0  0  0  0  0  0  0  0  0  0
   59.4620   28.8590   45.3070 C   0  0  0  0  0  0  0  0  0  0  0  0
   60.0250   27.6140   45.5130 C   0  0  0  0  0  0  0  0  0  0  0  0
   60.2260   27.2530   46.8410 C   0  0  0  0  0  0  0  0  0  0  0  0
   59.8810   28.0910   47.8830 C   0  0  0  0  0  0  0  0  0  0  0  0
   60.0870   27.7120   49.1720 F   0  0  0  0  0  0  0  0  0  0  0  0
   59.3210   29.3270   47.6450 C   0  0  0  0  0  0  0  0  0  0  0  0
   57.3900   31.0750   45.2490 N   0  0  0  0  0  0  0  0  0  0  0  0
   56.8310   32.2370   44.9130 N   0  0  0  0  0  0  0  0  0  0  0  0
   57.4180   33.3920   45.3170 C   0  0  0  0  0  0  0  0  0  0  0  0
   56.8810   34.4580   44.9950 O   0  0  0  0  0  0  0  0  0  0  0  0
   60.6560   34.2030   48.5030 C   0  0  0  0  0  0  0  0  0  0  0  0
   61.8460   33.8330   49.0880 C   0  0  0  0  0  0  0  0  0  0  0  0
   64.3832   32.3027   51.4010 H   0  0  0  0  0  0  0  0  0  0  0  0
   63.2992   31.3248   50.3544 H   0  0  0  0  0  0  0  0  0  0  0  0
   65.0684   31.0136   50.3544 H   0  0  0  0  0  0  0  0  0  0  0  0
   63.7163   33.1804   46.3846 H   0  0  0  0  0  0  0  0  0  0  0  0
   61.6039   33.8382   45.2665 H   0  0  0  0  0  0  0  0  0  0  0  0
   58.6567   35.1062   47.2999 H   0  0  0  0  0  0  0  0  0  0  0  0
   59.4204   35.2991   45.6956 H   0  0  0  0  0  0  0  0  0  0  0  0
   59.2840   29.1880   44.2726 H   0  0  0  0  0  0  0  0  0  0  0  0
   60.2971   26.9502   44.6791 H   0  0  0  0  0  0  0  0  0  0  0  0
   60.6719   26.2733   47.0675 H   0  0  0  0  0  0  0  0  0  0  0  0
   59.0474   29.9918   48.4776 H   0  0  0  0  0  0  0  0  0  0  0  0
   55.9460   32.2410   44.3420 H   0  0  0  0  0  0  0  0  0  0  0  0
   59.7943   34.4909   49.1232 H   0  0  0  0  0  0  0  0  0  0  0  0
   61.9071   33.8338   50.1863 H   0  0  0  0  0  0  0  0  0  0  0  0
  1  2  1  0
  2  3  1  0
  3  4  2  0
  4  5  1  0
  5  6  2  0
  6  7  1  0
  7  8  1  0
  8  9  2  0
  9 10  1  0
 10 11  1  0
 11 12  2  0
 12 13  1  0
 13 14  2  0
 14 15  1  0
 15 16  1  0
 15 17  2  0
 10 18  2  0
 18 19  1  0
 19 20  1  0
 20 21  2  0
  6 22  1  0
 22 23  2  0
 23  3  1  0
 20  8  1  0
 17 11  1  0
  1 24  1  0
  1 25  1  0
  1 26  1  0
  4 27  1  0
  5 28  1  0
  7 29  1  0
  7 30  1  0
 12 31  1  0
 13 32  1  0
 14 33  1  0
 17 34  1  0
 19 35  1  0
 22 36  1  0
 23 37  1  0
M  END
>  <smiles>  (14) 
CSc1ccc(Cc2nc(-c3cccc(F)c3)n[nH]c2=O)cc1

>  <score_type>  (14) 
oracle

>  <origin>  (14) 
adg

>  <m_score__min__energy>  (14) 
-7.4299999999999997

>  <m_primary>  (14) 
energy

$$$$
14:0
     RDKit          3D

 64 68  0  0  1  0  0  0  0  0999 V2000
   56.3900   30.0650   43.4650 C   0  0  0  0  0  0  0  0  0  0  0  0
   56.4430   30.0320   44.8780 O   0  0  0  0  0  0  0  0  0  0  0  0
   57.7020   29.9510   45.4680 C   0  0  0  0  0  0  0  0  0  0  0  0
   58.4850   28.8470   45.2120 C   0  0  0  0  0  0  0  0  0  0  0  0
   59.7220   28.7990   45.8110 C   0  0  0  0  0  0  0  0  0  0  0  0
   60.1680   29.8330   46.6470 C   0  0  0  0  0  0  0  0  0  0  0  0
   59.3980   30.9390   46.9100 C   0  0  0  0  0  0  0  0  0  0  0  0
   59.8370   32.0690   47.7930 C   0  0  1  0  0  0  0  0  0  0  0  0
   59.8390   33.3040   46.9840 C   0  0  0  0  0  0  0  0  0  0  0  0
   58.6480   33.9170   46.6580 N   0  0  0  0  0  0  0  0  0  0  0  0
   58.8910   34.9830   45.9740 N   0  0  0  0  0  0  0  0  0  0  0  0
   60.1840   35.1070   45.8290 N   0  0  0  0  0  0  0  0  0  0  0  0
   60.7790   34.0550   46.4590 N   0  0  0  0  0  0  0  0  0  0  0  0
   62.2210   33.9510   46.3910 C   0  0  0  0  0  0  0  0  0  0  0  0
   62.6990   33.4900   47.7150 C   0  0  0  0  0  0  0  0  0  0  0  0
   62.6210   34.1920   48.8840 C   0  0  0  0  0  0  0  0  0  0  0  0
   63.0780   33.7010   50.0820 C   0  0  0  0  0  0  0  0  0  0  0  0
   63.6450   32.4470   50.1330 C   0  0  0  0  0  0  0  0  0  0  0  0
   63.7450   31.6990   48.9670 C   0  0  0  0  0  0  0  0  0  0  0  0
   63.2700   32.2310   47.7700 C   0  0  0  0  0  0  0  0  0  0  0  0
   59.5420   32.0560   49.1300 N   0  0  0  0  0  0  0  0  0  0  0  0
   59.1680   33.1230   49.9360 C   0  0  0  0  0  0  0  0  0  0  0  0
   59.7880   33.1060   51.3270 C   0  0  0  0  0  0  0  0  0  0  0  0
   58.9390   32.3280   52.3230 C   0  0  0  0  0  0  0  0  0  0  0  0
   58.9600   30.9160   52.0780 N   0  0  0  0  0  0  0  0  0  0  0  0
   57.7010   30.2980   51.8580 C   0  0  0  0  0  0  0  0  0  0  0  0
   56.4800   31.1710   51.7300 C   0  0  0  0  0  0  0  0  0  0  0  0
   55.7110   30.0240   52.4000 C   0  0  0  0  0  0  0  0  0  0  0  0
   57.0390   29.7130   53.1070 C   0  0  0  0  0  0  0  0  0  0  0  0
   59.8750   30.5170   51.0300 C   0  0  0  0  0  0  0  0  0  0  0  0
   59.1770   30.7710   49.7070 C   0  0  0  0  0  0  0  0  0  0  0  0
   58.1410   30.9560   46.2840 C   0  0  0  0  0  0  0  0  0  0  0  0
   55.4967   30.6212   43.1445 H   0  0  0  0  0  0  0  0  0  0  0  0
   57.2907   30.5622   43.0758 H   0  0  0  0  0  0  0  0  0  0  0  0
   56.3413   29.0373   43.0758 H   0  0  0  0  0  0  0  0  0  0  0  0
   58.1351   28.0369   44.5553 H   0  0  0  0  0  0  0  0  0  0  0  0
   60.3748   27.9322   45.6308 H   0  0  0  0  0  0  0  0  0  0  0  0
   61.1647   29.7556   47.1058 H   0  0  0  0  0  0  0  0  0  0  0  0
   60.8759   31.9182   48.1215 H   0  0  0  0  0  0  0  0  0  0  0  0
   62.5088   33.2264   45.6150 H   0  0  0  0  0  0  0  0  0  0  0  0
   62.6672   34.9236   46.1360 H   0  0  0  0  0  0  0  0  0  0  0  0
   62.1718   35.1959   48.8648 H   0  0  0  0  0  0  0  0  0  0  0  0
   62.9917   34.3062   50.9965 H   0  0  0  0  0  0  0  0  0  0  0  0
   64.0146   32.0422   51.0867 H   0  0  0  0  0  0  0  0  0  0  0  0
   64.1952   30.6956   48.9883 H   0  0  0  0  0  0  0  0  0  0  0  0
   63.3508   31.6366   46.8480 H   0  0  0  0  0  0  0  0  0  0  0  0
   59.4700   34.0549   49.4357 H   0  0  0  0  0  0  0  0  0  0  0  0
   58.0796   33.0456   50.0756 H   0  0  0  0  0  0  0  0  0  0  0  0
   60.7818   32.6384   51.2667 H   0  0  0  0  0  0  0  0  0  0  0  0
   59.8568   34.1456   51.6799 H   0  0  0  0  0  0  0  0  0  0  0  0
   59.3234   32.5158   53.3364 H   0  0  0  0  0  0  0  0  0  0  0  0
   57.8993   32.6703   52.2145 H   0  0  0  0  0  0  0  0  0  0  0  0
   58.0432   29.6908   51.0070 H   0  0  0  0  0  0  0  0  0  0  0  0
   56.5158   32.1054   52.3094 H   0  0  0  0  0  0  0  0  0  0  0  0
   56.1669   31.6081   50.7703 H   0  0  0  0  0  0  0  0  0  0  0  0
   54.8910   30.3364   53.0633 H   0  0  0  0  0  0  0  0  0  0  0  0
   55.1474   29.2705   51.8303 H   0  0  0  0  0  0  0  0  0  0  0  0
   57.2160   30.2754   54.0356 H   0  0  0  0  0  0  0  0  0  0  0  0
   57.2854   28.7157   53.5004 H   0  0  0  0  0  0  0  0  0  0  0  0
   60.7988   31.1113   51.0893 H   0  0  0  0  0  0  0  0  0  0  0  0
   60.1474   29.4561   51.1313 H   0  0  0  0  0  0  0  0  0  0  0  0
   59.4548   29.9742   49.0013 H   0  0  0  0  0  0  0  0  0  0  0  0
   58.0930   30.7807   49.8938 H   0  0  0  0  0  0  0  0  0  0  0  0
   57.4795   31.8174   46.4583 H   0  0  0  0  0  0  0  0  0  0  0  0
  1  2  1  0
  2  3  1  0
  3  4  2  0
  4  5  1  0
  5  6  2  0
  6  7  1  0
  7  8  1  0
  8  9  1  0
  9 10  2  0
 10 11  1  0
 11 12  2  0
 12 13  1  0
 13 14  1  0
 14 15  1  0
 15 16  2  0
 16 17  1  0
 17 18  2  0
 18 19  1  0
 19 20  2  0
  8 21  1  0
 21 22  1  0
 22 23  1  0
 23 24  1  0
 24 25  1  0
 25 26  1  0
 26 27  1  0
 27 28  1  0
 28 29  1  0
 25 30  1  0
 30 31  1  0
  7 32  2  0
 32  3  1  0
 13  9  1  0
 20 15  1  0
 31 21  1  0
 29 26  1  0
  1 33  1  0
  1 34  1  0
  1 35  1  0
  4 36  1  0
  5 37  1  0
  6 38  1  0
  8 39  1  1
 14 40  1  0
 14 41  1  0
 16 42  1  0
 17 43  1  0
 18 44  1  0
 19 45  1  0
 20 46  1  0
 22 47  1  0
 22 48  1  0
 23 49  1  0
 23 50  1  0
 24 51  1  0
 24 52  1  0
 26 53  1  0
 27 54  1  0
 27 55  1  0
 28 56  1  0
 28 57  1  0
 29 58  1  0
 29 59  1  0
 30 60  1  0
 30 61  1  0
 31 62  1  0
 31 63  1  0
 32 64  1  0
M  END
>  <smiles>  (15) 
COc1cccc(C(c2nnnn2Cc2ccccc2)N2CCCN(C3CCC3)CC2)c1

>  <score_type>  (15) 
oracle

>  <origin>  (15) 
adg

>  <m_score__min__energy>  (15) 
-8.9399999999999995

>  <m_primary>  (15) 
energy

$$$$
15:0
     RDKit          3D

 31 32  0  0  1  0  0  0  0  0999 V2000
   60.4740   28.6810   44.6540 C   0  0  0  0  0  0  0  0  0  0  0  0
   59.5790   28.4450   45.6940 O   0  0  0  0  0  0  0  0  0  0  0  0
   58.7840   27.3440   45.8380 C   0  0  0  0  0  0  0  0  0  0  0  0
   59.2250   26.0550   46.0070 C   0  0  0  0  0  0  0  0  0  0  0  0
   58.3750   24.9740   46.1470 C   0  0  0  0  0  0  0  0  0  0  0  0
   57.0110   25.1680   46.1180 C   0  0  0  0  0  0  0  0  0  0  0  0
   56.5360   26.4510   45.9490 C   0  0  0  0  0  0  0  0  0  0  0  0
   55.1710   26.7100   45.9100 O   0  0  0  0  0  0  0  0  0  0  0  0
   57.3970   27.5200   45.8110 C   0  0  0  0  0  0  0  0  0  0  0  0
   56.9020   28.8740   45.6340 C   0  0  0  0  0  0  0  0  0  0  0  0
   55.8700   29.0100   44.8920 O   0  0  0  0  0  0  0  0  0  0  0  0
   57.4800   30.0310   46.2160 N   0  0  0  0  0  0  0  0  0  0  0  0
   57.7210   31.0800   45.4660 C   0  0  0  0  0  0  0  0  0  0  0  0
   58.4230   32.1920   45.8090 C   0  0  0  0  0  0  0  0  0  0  0  0
   58.4050   33.0330   44.7040 C   0  0  0  0  0  0  0  0  0  0  0  0
   59.0330   34.3780   44.5670 C   0  0  0  0  0  0  0  0  0  0  0  0
   57.7040   32.4200   43.7350 N   0  0  0  0  0  0  0  0  0  0  0  0
   57.3020   31.2420   44.2210 N   0  0  0  0  0  0  0  0  0  0  0  0
   61.4588   28.9407   45.0696 H   0  0  0  0  0  0  0  0  0  0  0  0
   60.5642   27.7759   44.0354 H   0  0  0  0  0  0  0  0  0  0  0  0
   60.1062   29.5128   44.0354 H   0  0  0  0  0  0  0  0  0  0  0  0
   60.3096   25.8732   46.0323 H   0  0  0  0  0  0  0  0  0  0  0  0
   58.7859   23.9625   46.2811 H   0  0  0  0  0  0  0  0  0  0  0  0
   56.3186   24.3203   46.2270 H   0  0  0  0  0  0  0  0  0  0  0  0
   54.7700   27.1260   45.0600 H   0  0  0  0  0  0  0  0  0  0  0  0
   58.9111   32.3880   46.7751 H   0  0  0  0  0  0  0  0  0  0  0  0
   59.2278   34.7952   45.5660 H   0  0  0  0  0  0  0  0  0  0  0  0
   59.9811   34.2857   44.0170 H   0  0  0  0  0  0  0  0  0  0  0  0
   58.3535   35.0456   44.0170 H   0  0  0  0  0  0  0  0  0  0  0  0
   57.5000   32.7880   42.7550 H   0  0  0  0  0  0  0  0  0  0  0  0
   56.7370   30.5320   43.7070 H   0  0  0  0  0  0  0  0  0  0  0  0
  1  2  1  0
  2  3  1  0
  3  4  2  0
  4  5  1  0
  5  6  2  0
  6  7  1  0
  7  8  1  0
  7  9  2  0
  9 10  1  0
 10 11  2  0
 10 12  1  0
 12 13  2  0
 13 14  1  0
 14 15  2  0
 15 16  1  0
 15 17  1  0
 17 18  1  0
  9  3  1  0
 18 13  1  0
  1 19  1  0
  1 20  1  0
  1 21  1  0
  4 22  1  0
  5 23  1  0
  6 24  1  0
  8 25  1  0
 14 26  1  0
 16 27  1  0
 16 28  1  0
 16 29  1  0
 17 30  1  0
 18 31  1  0
M  END
>  <smiles>  (16) 
COc1cccc(O)c1C(=O)N=c1cc(C)[nH][nH]1

>  <score_type>  (16) 
oracle

>  <origin>  (16) 
adg

>  <m_score__min__energy>  (16) 
-7.1799999999999997

>  <m_primary>  (16) 
energy

$$$$
16:0
     RDKit          3D

 31 33  0  0  0  0  0  0  0  0999 V2000
   56.0000   30.5790   44.4950 O   0  0  0  0  0  0  0  0  0  0  0  0
   57.0660   30.0150   44.1610 C   0  0  0  0  0  0  0  0  0  0  0  0
   58.0600   30.7930   43.5290 N   0  0  0  0  0  0  0  0  0  0  0  0
   57.7980   32.1910   43.3030 C   0  0  0  0  0  0  0  0  0  0  0  0
   58.1430   32.9340   44.5550 C   0  0  0  0  0  0  0  0  0  0  0  0
   59.0200   34.0170   44.5250 C   0  0  0  0  0  0  0  0  0  0  0  0
   59.2720   34.6320   45.7310 C   0  0  0  0  0  0  0  0  0  0  0  0
   58.6710   34.1770   46.9030 C   0  0  0  0  0  0  0  0  0  0  0  0
   57.7980   33.0880   46.8890 C   0  0  0  0  0  0  0  0  0  0  0  0
   57.5730   32.5110   45.6970 N   0  0  0  0  0  0  0  0  0  0  0  0
   57.2050   28.5910   44.4480 C   0  0  0  0  0  0  0  0  0  0  0  0
   57.9610   27.8440   43.5640 C   0  0  0  0  0  0  0  0  0  0  0  0
   58.1360   26.4710   43.7770 C   0  0  0  0  0  0  0  0  0  0  0  0
   57.5340   25.8830   44.8930 C   0  0  0  0  0  0  0  0  0  0  0  0
   56.7790   26.6370   45.7730 C   0  0  0  0  0  0  0  0  0  0  0  0
   56.6160   27.9940   45.5470 C   0  0  0  0  0  0  0  0  0  0  0  0
   56.3330   25.7610   46.7540 O   0  0  0  0  0  0  0  0  0  0  0  0
   56.6820   24.4190   46.4450 C   0  0  0  0  0  0  0  0  0  0  0  0
   57.5430   24.5640   45.3370 O   0  0  0  0  0  0  0  0  0  0  0  0
   58.9570   30.3440   43.2410 H   0  0  0  0  0  0  0  0  0  0  0  0
   58.4158   32.5567   42.4696 H   0  0  0  0  0  0  0  0  0  0  0  0
   56.7395   32.3450   43.0465 H   0  0  0  0  0  0  0  0  0  0  0  0
   59.4851   34.3614   43.5896 H   0  0  0  0  0  0  0  0  0  0  0  0
   59.9559   35.4927   45.7697 H   0  0  0  0  0  0  0  0  0  0  0  0
   58.8881   34.6843   47.8546 H   0  0  0  0  0  0  0  0  0  0  0  0
   57.3182   32.7206   47.8082 H   0  0  0  0  0  0  0  0  0  0  0  0
   58.4255   28.3285   42.6925 H   0  0  0  0  0  0  0  0  0  0  0  0
   58.7354   25.8672   43.0798 H   0  0  0  0  0  0  0  0  0  0  0  0
   56.0164   28.5980   46.2438 H   0  0  0  0  0  0  0  0  0  0  0  0
   57.2004   23.9406   47.2890 H   0  0  0  0  0  0  0  0  0  0  0  0
   55.8107   23.7806   46.2372 H   0  0  0  0  0  0  0  0  0  0  0  0
  1  2  2  0
  2  3  1  0
  3  4  1  0
  4  5  1  0
  5  6  2  0
  6  7  1  0
  7  8  2  0
  8  9  1  0
  9 10  2  0
  2 11  1  0
 11 12  2  0
 12 13  1  0
 13 14  2  0
 14 15  1  0
 15 16  2  0
 15 17  1  0
 17 18  1  0
 18 19  1  0
 10  5  1  0
 16 11  1  0
 19 14  1  0
  3 20  1  0
  4 21  1  0
  4 22  1  0
  6 23  1  0
  7 24  1  0
  8 25  1  0
  9 26  1  0
 12 27  1  0
 13 28  1  0
 16 29  1  0
 18 30  1  0
 18 31  1  0
M  END
>  <smiles>  (17) 
O=C(NCc1ccccn1)c1ccc2c(c1)OCO2

>  <score_type>  (17) 
oracle

>  <origin>  (17) 
adg

>  <m_score__min__energy>  (17) 
-7.0099999999999998

>  <m_primary>  (17) 
energy

$$$$
17:0
     RDKit          3D

 36 38  0  0  1  0  0  0  0  0999 V2000
   63.0130   34.1840   51.2670 C   0  0  0  0  0  0  0  0  0  0  0  0
   63.0070   33.8930   49.8160 C   0  0  0  0  0  0  0  0  0  0  0  0
   64.1660   33.4210   49.2300 C   0  0  0  0  0  0  0  0  0  0  0  0
   64.1210   33.1590   47.8610 C   0  0  0  0  0  0  0  0  0  0  0  0
   62.9580   33.3710   47.1510 C   0  0  0  0  0  0  0  0  0  0  0  0
   61.8000   33.8430   47.7400 C   0  0  0  0  0  0  0  0  0  0  0  0
   60.6540   34.0420   46.9850 O   0  0  0  0  0  0  0  0  0  0  0  0
   59.8470   33.0020   46.5430 C   0  0  0  0  0  0  0  0  0  0  0  0
   58.7090   33.2220   45.7940 C   0  0  0  0  0  0  0  0  0  0  0  0
   57.9020   32.1980   45.3500 C   0  0  0  0  0  0  0  0  0  0  0  0
   58.2160   30.8860   45.6490 C   0  0  0  0  0  0  0  0  0  0  0  0
   57.3350   29.8550   45.1590 C   0  0  0  0  0  0  0  0  0  0  0  0
   56.2030   30.0160   44.5840 N   0  0  0  0  0  0  0  0  0  0  0  0
   55.1420   29.1980   44.7790 O   0  0  0  0  0  0  0  0  0  0  0  0
   57.7380   28.4720   45.3170 N   0  0  0  0  0  0  0  0  0  0  0  0
   58.9160   27.9270   44.9680 C   0  0  0  0  0  0  0  0  0  0  0  0
   58.8570   26.5830   45.3030 C   0  0  0  0  0  0  0  0  0  0  0  0
   57.6170   26.3520   45.8570 C   0  0  0  0  0  0  0  0  0  0  0  0
   56.9820   27.5240   45.8420 N   0  0  0  0  0  0  0  0  0  0  0  0
   59.3510   30.6860   46.3940 C   0  0  0  0  0  0  0  0  0  0  0  0
   60.1380   31.7180   46.8250 N   0  0  0  0  0  0  0  0  0  0  0  0
   61.8430   34.1060   49.1050 C   0  0  0  0  0  0  0  0  0  0  0  0
   62.9935   33.2395   51.8305 H   0  0  0  0  0  0  0  0  0  0  0  0
   63.9229   34.7459   51.5245 H   0  0  0  0  0  0  0  0  0  0  0  0
   62.1270   34.7829   51.5245 H   0  0  0  0  0  0  0  0  0  0  0  0
   65.0824   33.2593   49.8166 H   0  0  0  0  0  0  0  0  0  0  0  0
   65.0166   32.7818   47.3456 H   0  0  0  0  0  0  0  0  0  0  0  0
   62.9516   33.1558   46.0723 H   0  0  0  0  0  0  0  0  0  0  0  0
   58.4354   34.2570   45.5414 H   0  0  0  0  0  0  0  0  0  0  0  0
   57.0048   32.4253   44.7556 H   0  0  0  0  0  0  0  0  0  0  0  0
   55.1330   28.2090   44.8850 H   0  0  0  0  0  0  0  0  0  0  0  0
   59.7662   28.4487   44.5043 H   0  0  0  0  0  0  0  0  0  0  0  0
   59.6531   25.8387   45.1540 H   0  0  0  0  0  0  0  0  0  0  0  0
   57.2294   25.3945   46.2351 H   0  0  0  0  0  0  0  0  0  0  0  0
   59.6386   29.6567   46.6543 H   0  0  0  0  0  0  0  0  0  0  0  0
   60.9474   34.4846   49.6193 H   0  0  0  0  0  0  0  0  0  0  0  0
  1  2  1  0
  2  3  2  0
  3  4  1  0
  4  5  2  0
  5  6  1  0
  6  7  1  0
  7  8  1  0
  8  9  2  0
  9 10  1  0
 10 11  2  0
 11 12  1  0
 12 13  2  0
 13 14  1  0
 12 15  1  0
 15 16  1  0
 16 17  2  0
 17 18  1  0
 18 19  2  0
 11 20  1  0
 20 21  2  0
  6 22  2  0
 22  2  1  0
 21  8  1  0
 19 15  1  0
  1 23  1  0
  1 24  1  0
  1 25  1  0
  3 26  1  0
  4 27  1  0
  5 28  1  0
  9 29  1  0
 10 30  1  0
 14 31  1  0
 16 32  1  0
 17 33  1  0
 18 34  1  0
 20 35  1  0
 22 36  1  0
M  END
>  <smiles>  (18) 
Cc1cccc(Oc2ccc(C(=NO)n3cccn3)cn2)c1

>  <score_type>  (18) 
oracle

>  <origin>  (18) 
adg

>  <m_score__min__energy>  (18) 
-8.1400000000000006

>  <m_primary>  (18) 
energy

$$$$
18:0
     RDKit          3D

 49 51  0  0  0  0  0  0  0  0999 V2000
   58.5170   32.6650   50.9410 C   0  0  0  0  0  0  0  0  0  0  0  0
   58.9070   31.7820   49.7770 C   0  0  0  0  0  0  0  0  0  0  0  0
   60.2920   31.5880   49.5880 N   0  0  0  0  0  0  0  0  0  0  0  0
   60.7790   30.2740   49.4280 C   0  0  0  0  0  0  0  0  0  0  0  0
   60.2510   29.4900   48.2740 C   0  0  0  0  0  0  0  0  0  0  0  0
   61.0620   32.3610   50.5250 C   0  0  0  0  0  0  0  0  0  0  0  0
   62.5050   32.3880   50.2430 C   0  0  0  0  0  0  0  0  0  0  0  0
   63.3580   31.5280   50.8990 C   0  0  0  0  0  0  0  0  0  0  0  0
   64.7170   31.4950   50.6960 C   0  0  0  0  0  0  0  0  0  0  0  0
   65.2700   32.3700   49.7840 C   0  0  0  0  0  0  0  0  0  0  0  0
   64.4320   33.2410   49.1150 C   0  0  0  0  0  0  0  0  0  0  0  0
   63.0570   33.2620   49.3330 C   0  0  0  0  0  0  0  0  0  0  0  0
   62.2260   34.2190   48.5640 C   0  0  0  0  0  0  0  0  0  0  0  0
   61.2150   33.4640   47.8590 N   0  0  0  0  0  0  0  0  0  0  0  0
   60.1260   34.0510   47.1610 C   0  0  0  0  0  0  0  0  0  0  0  0
   59.9950   35.3130   47.1290 O   0  0  0  0  0  0  0  0  0  0  0  0
   59.1110   33.2860   46.4520 C   0  0  0  0  0  0  0  0  0  0  0  0
   58.0310   33.9450   45.9290 C   0  0  0  0  0  0  0  0  0  0  0  0
   57.0350   33.2560   45.2420 C   0  0  0  0  0  0  0  0  0  0  0  0
   57.1670   31.8750   45.1000 C   0  0  0  0  0  0  0  0  0  0  0  0
   56.3690   30.9830   44.4940 N   0  0  0  0  0  0  0  0  0  0  0  0
   56.9060   29.7590   44.6140 C   0  0  0  0  0  0  0  0  0  0  0  0
   58.0810   29.8980   45.3190 C   0  0  0  0  0  0  0  0  0  0  0  0
   58.2230   31.2230   45.6100 N   0  0  0  0  0  0  0  0  0  0  0  0
   59.1700   31.9210   46.2710 C   0  0  0  0  0  0  0  0  0  0  0  0
   58.7450   32.1489   51.8853 H   0  0  0  0  0  0  0  0  0  0  0  0
   59.0827   33.6071   50.8922 H   0  0  0  0  0  0  0  0  0  0  0  0
   57.4396   32.8814   50.8922 H   0  0  0  0  0  0  0  0  0  0  0  0
   58.4466   30.7953   49.9333 H   0  0  0  0  0  0  0  0  0  0  0  0
   58.5536   32.3041   48.8756 H   0  0  0  0  0  0  0  0  0  0  0  0
   61.8713   30.3369   49.3140 H   0  0  0  0  0  0  0  0  0  0  0  0
   60.4354   29.7321   50.3215 H   0  0  0  0  0  0  0  0  0  0  0  0
   59.6730   28.6318   48.6475 H   0  0  0  0  0  0  0  0  0  0  0  0
   59.6003   30.1317   47.6618 H   0  0  0  0  0  0  0  0  0  0  0  0
   61.0903   29.1283   47.6618 H   0  0  0  0  0  0  0  0  0  0  0  0
   60.6880   33.3953   50.5084 H   0  0  0  0  0  0  0  0  0  0  0  0
   60.9410   31.8794   51.5065 H   0  0  0  0  0  0  0  0  0  0  0  0
   62.9262   30.8265   51.6280 H   0  0  0  0  0  0  0  0  0  0  0  0
   65.3504   30.7858   51.2491 H   0  0  0  0  0  0  0  0  0  0  0  0
   66.3534   32.3741   49.5938 H   0  0  0  0  0  0  0  0  0  0  0  0
   64.8655   33.9413   48.3858 H   0  0  0  0  0  0  0  0  0  0  0  0
   61.7480   34.9338   49.2499 H   0  0  0  0  0  0  0  0  0  0  0  0
   62.8489   34.7817   47.8531 H   0  0  0  0  0  0  0  0  0  0  0  0
   61.2560   32.4130   47.8370 H   0  0  0  0  0  0  0  0  0  0  0  0
   57.9489   35.0349   46.0533 H   0  0  0  0  0  0  0  0  0  0  0  0
   56.1675   33.7866   44.8226 H   0  0  0  0  0  0  0  0  0  0  0  0
   56.4864   28.8205   44.2226 H   0  0  0  0  0  0  0  0  0  0  0  0
   58.7754   29.0910   45.5958 H   0  0  0  0  0  0  0  0  0  0  0  0
   60.0301   31.3744   46.6851 H   0  0  0  0  0  0  0  0  0  0  0  0
  1  2  1  0
  2  3  1  0
  3  4  1  0
  4  5  1  0
  3  6  1  0
  6  7  1  0
  7  8  2  0
  8  9  1  0
  9 10  2  0
 10 11  1  0
 11 12  2  0
 12 13  1  0
 13 14  1  0
 14 15  1  0
 15 16  2  0
 15 17  1  0
 17 18  1  0
 18 19  2  0
 19 20  1  0
 20 21  2  0
 21 22  1  0
 22 23  2  0
 23 24  1  0
 24 25  1  0
 12  7  1  0
 25 17  2  0
 24 20  1  0
  1 26  1  0
  1 27  1  0
  1 28  1  0
  2 29  1  0
  2 30  1  0
  4 31  1  0
  4 32  1  0
  5 33  1  0
  5 34  1  0
  5 35  1  0
  6 36  1  0
  6 37  1  0
  8 38  1  0
  9 39  1  0
 10 40  1  0
 11 41  1  0
 13 42  1  0
 13 43  1  0
 14 44  1  0
 18 45  1  0
 19 46  1  0
 22 47  1  0
 23 48  1  0
 25 49  1  0
M  END
>  <smiles>  (19) 
CCN(CC)Cc1ccccc1CNC(=O)c1ccc2nccn2c1

>  <score_type>  (19) 
oracle

>  <origin>  (19) 
adg

>  <m_score__min__energy>  (19) 
-7.2699999999999996

>  <m_primary>  (19) 
energy

$$$$
19:0
     RDKit          3D

 50 51  0  0  0  0  0  0  0  0999 V2000
   58.5420   31.7920   49.6190 C   0  0  0  0  0  0  0  0  0  0  0  0
   59.6940   31.8180   48.7190 N   0  0  0  0  0  0  0  0  0  0  0  0
   60.6680   32.8820   48.8200 C   0  0  0  0  0  0  0  0  0  0  0  0
   59.8310   30.7780   47.7500 C   0  0  0  0  0  0  0  0  0  0  0  0
   58.8700   29.7740   47.6230 C   0  0  0  0  0  0  0  0  0  0  0  0
   59.0250   28.7930   46.6890 C   0  0  0  0  0  0  0  0  0  0  0  0
   58.0820   27.6960   46.4780 C   0  0  0  0  0  0  0  0  0  0  0  0
   57.6600   27.0950   47.5140 O   0  0  0  0  0  0  0  0  0  0  0  0
   57.6520   27.3090   45.1760 N   0  0  0  0  0  0  0  0  0  0  0  0
   57.2610   25.9520   44.8520 C   0  0  0  0  0  0  0  0  0  0  0  0
   56.1210   25.5980   45.7910 C   0  0  0  0  0  0  0  0  0  0  0  0
   55.3380   26.7180   46.0130 O   0  0  0  0  0  0  0  0  0  0  0  0
   57.6030   28.2910   44.1230 C   0  0  0  0  0  0  0  0  0  0  0  0
   56.4830   29.2730   44.3530 C   0  0  0  0  0  0  0  0  0  0  0  0
   57.0670   30.6530   44.1450 C   0  0  0  0  0  0  0  0  0  0  0  0
   56.6490   31.5860   45.1250 O   0  0  0  0  0  0  0  0  0  0  0  0
   57.5430   32.6540   45.3310 C   0  0  0  0  0  0  0  0  0  0  0  0
   58.3410   33.1090   44.3020 C   0  0  0  0  0  0  0  0  0  0  0  0
   59.2230   34.1670   44.5130 C   0  0  0  0  0  0  0  0  0  0  0  0
   59.3060   34.7700   45.7580 C   0  0  0  0  0  0  0  0  0  0  0  0
   58.5050   34.3050   46.7740 C   0  0  0  0  0  0  0  0  0  0  0  0
   57.6260   33.2590   46.5850 C   0  0  0  0  0  0  0  0  0  0  0  0
   60.1420   28.8290   45.8890 C   0  0  0  0  0  0  0  0  0  0  0  0
   61.1040   29.8300   46.0100 C   0  0  0  0  0  0  0  0  0  0  0  0
   60.9220   30.7860   46.9450 N   0  0  0  0  0  0  0  0  0  0  0  0
   58.8913   31.7999   50.6620 H   0  0  0  0  0  0  0  0  0  0  0  0
   57.9137   32.6762   49.4360 H   0  0  0  0  0  0  0  0  0  0  0  0
   57.9543   30.8804   49.4360 H   0  0  0  0  0  0  0  0  0  0  0  0
   60.8661   33.0984   49.8802 H   0  0  0  0  0  0  0  0  0  0  0  0
   61.6019   32.5721   48.3283 H   0  0  0  0  0  0  0  0  0  0  0  0
   60.2769   33.7850   48.3283 H   0  0  0  0  0  0  0  0  0  0  0  0
   57.9860   29.7742   48.2776 H   0  0  0  0  0  0  0  0  0  0  0  0
   56.9249   25.8924   43.8063 H   0  0  0  0  0  0  0  0  0  0  0  0
   58.1044   25.2555   44.9687 H   0  0  0  0  0  0  0  0  0  0  0  0
   55.5067   24.8055   45.3387 H   0  0  0  0  0  0  0  0  0  0  0  0
   56.5321   25.2439   46.7479 H   0  0  0  0  0  0  0  0  0  0  0  0
   55.6030   27.1750   46.8430 H   0  0  0  0  0  0  0  0  0  0  0  0
   58.5585   28.8353   44.0938 H   0  0  0  0  0  0  0  0  0  0  0  0
   57.4254   27.7735   43.1687 H   0  0  0  0  0  0  0  0  0  0  0  0
   55.6682   29.0939   43.6360 H   0  0  0  0  0  0  0  0  0  0  0  0
   56.0655   29.1679   45.3653 H   0  0  0  0  0  0  0  0  0  0  0  0
   58.1639   30.5778   44.1784 H   0  0  0  0  0  0  0  0  0  0  0  0
   56.7090   31.0175   43.1709 H   0  0  0  0  0  0  0  0  0  0  0  0
   58.2809   32.6349   43.3112 H   0  0  0  0  0  0  0  0  0  0  0  0
   59.8561   34.5251   43.6878 H   0  0  0  0  0  0  0  0  0  0  0  0
   60.0003   35.6057   45.9302 H   0  0  0  0  0  0  0  0  0  0  0  0
   58.5668   34.7799   47.7643 H   0  0  0  0  0  0  0  0  0  0  0  0
   56.9967   32.9054   47.4150 H   0  0  0  0  0  0  0  0  0  0  0  0
   60.2808   28.0444   45.1307 H   0  0  0  0  0  0  0  0  0  0  0  0
   61.9906   29.8406   45.3589 H   0  0  0  0  0  0  0  0  0  0  0  0
  1  2  1  0
  2  3  1  0
  2  4  1  0
  4  5  2  0
  5  6  1  0
  6  7  1  0
  7  8  2  0
  7  9  1  0
  9 10  1  0
 10 11  1  0
 11 12  1  0
  9 13  1  0
 13 14  1  0
 14 15  1  0
 15 16  1  0
 16 17  1  0
 17 18  2  0
 18 19  1  0
 19 20  2  0
 20 21  1  0
 21 22  2  0
  6 23  2  0
 23 24  1  0
 24 25  2  0
 25  4  1  0
 22 17  1  0
  1 26  1  0
  1 27  1  0
  1 28  1  0
  3 29  1  0
  3 30  1  0
  3 31  1  0
  5 32  1  0
 10 33  1  0
 10 34  1  0
 11 35  1  0
 11 36  1  0
 12 37  1  0
 13 38  1  0
 13 39  1  0
 14 40  1  0
 14 41  1  0
 15 42  1  0
 15 43  1  0
 18 44  1  0
 19 45  1  0
 20 46  1  0
 21 47  1  0
 22 48  1  0
 23 49  1  0
 24 50  1  0
M  END
>  <smiles>  (20) 
CN(C)c1cc(C(=O)N(CCO)CCCOc2ccccc2)ccn1

>  <score_type>  (20) 
oracle

>  <origin>  (20) 
adg

>  <m_score__min__energy>  (20) 
-8.3599999999999994

>  <m_primary>  (20) 
energy

$$$$
20:0
     RDKit          3D

 38 40  0  0  0  0  0  0  0  0999 V2000
   56.2750   24.1570   47.5370 C   0  0  0  0  0  0  0  0  0  0  0  0
   56.7770   24.9620   46.4190 N   0  0  0  0  0  0  0  0  0  0  0  0
   57.1890   26.2360   46.5460 C   0  0  0  0  0  0  0  0  0  0  0  0
   57.5810   26.6240   45.2670 C   0  0  0  0  0  0  0  0  0  0  0  0
   58.1070   27.8970   44.8650 N   0  0  0  0  0  0  0  0  0  0  0  0
   57.1440   28.9560   44.7870 C   0  0  0  0  0  0  0  0  0  0  0  0
   55.9530   28.6100   45.0880 O   0  0  0  0  0  0  0  0  0  0  0  0
   57.4710   30.3020   44.4020 C   0  0  0  0  0  0  0  0  0  0  0  0
   57.7200   31.3210   45.3030 C   0  0  0  0  0  0  0  0  0  0  0  0
   58.0040   32.4970   44.6090 C   0  0  0  0  0  0  0  0  0  0  0  0
   58.3090   33.8180   45.1840 C   0  0  0  0  0  0  0  0  0  0  0  0
   57.7110   34.8310   44.7700 O   0  0  0  0  0  0  0  0  0  0  0  0
   59.3190   33.9620   46.2480 C   0  0  0  0  0  0  0  0  0  0  0  0
   58.9160   34.3280   47.5100 C   0  0  0  0  0  0  0  0  0  0  0  0
   59.8110   34.4480   48.5800 C   0  0  0  0  0  0  0  0  0  0  0  0
   61.1420   34.1810   48.3150 C   0  0  0  0  0  0  0  0  0  0  0  0
   61.5400   33.8160   47.0440 C   0  0  0  0  0  0  0  0  0  0  0  0
   62.9410   33.5530   46.8590 N   0  0  0  0  0  0  0  0  0  0  0  0
   63.6310   34.1990   46.0320 O   0  0  0  0  0  0  0  0  0  0  0  0
   63.6070   32.5850   47.5730 O   0  0  0  0  0  0  0  0  0  0  0  0
   60.6490   33.6970   45.9870 C   0  0  0  0  0  0  0  0  0  0  0  0
   57.9150   32.1430   43.2800 C   0  0  0  0  0  0  0  0  0  0  0  0
   57.5970   30.8310   43.1990 N   0  0  0  0  0  0  0  0  0  0  0  0
   57.3920   25.5640   44.3930 C   0  0  0  0  0  0  0  0  0  0  0  0
   56.8930   24.5670   45.1660 N   0  0  0  0  0  0  0  0  0  0  0  0
   56.5679   24.6267   48.4876 H   0  0  0  0  0  0  0  0  0  0  0  0
   55.1781   24.0955   47.4811 H   0  0  0  0  0  0  0  0  0  0  0  0
   56.7024   23.1450   47.4811 H   0  0  0  0  0  0  0  0  0  0  0  0
   57.2116   26.8420   47.4638 H   0  0  0  0  0  0  0  0  0  0  0  0
   59.0970   28.0690   44.6410 H   0  0  0  0  0  0  0  0  0  0  0  0
   57.6976   31.2197   46.3981 H   0  0  0  0  0  0  0  0  0  0  0  0
   57.8500   34.5345   47.6860 H   0  0  0  0  0  0  0  0  0  0  0  0
   59.4715   34.7409   49.5845 H   0  0  0  0  0  0  0  0  0  0  0  0
   61.8870   34.2598   49.1204 H   0  0  0  0  0  0  0  0  0  0  0  0
   60.9880   33.4037   44.9825 H   0  0  0  0  0  0  0  0  0  0  0  0
   58.0761   32.8168   42.4256 H   0  0  0  0  0  0  0  0  0  0  0  0
   57.4760   30.3430   42.3010 H   0  0  0  0  0  0  0  0  0  0  0  0
   57.6003   25.5375   43.3132 H   0  0  0  0  0  0  0  0  0  0  0  0
  1  2  1  0
  2  3  1  0
  3  4  2  0
  4  5  1  0
  5  6  1  0
  6  7  2  0
  6  8  1  0
  8  9  2  0
  9 10  1  0
 10 11  1  0
 11 12  2  0
 11 13  1  0
 13 14  2  0
 14 15  1  0
 15 16  2  0
 16 17  1  0
 17 18  1  0
 18 19  2  0
 18 20  1  0
 17 21  2  0
 10 22  2  0
 22 23  1  0
  4 24  1  0
 24 25  2  0
 25  2  1  0
 23  8  1  0
 21 13  1  0
  1 26  1  0
  1 27  1  0
  1 28  1  0
  3 29  1  0
  5 30  1  0
  9 31  1  0
 14 32  1  0
 15 33  1  0
 16 34  1  0
 21 35  1  0
 22 36  1  0
 23 37  1  0
 24 38  1  0
M  CHG  2  18   1  20  -1
M  END
>  <smiles>  (21) 
Cn1cc(NC(=O)c2cc(C(=O)c3cccc([N+](=O)[O-])c3)c[nH]2)cn1

>  <score_type>  (21) 
oracle

>  <origin>  (21) 
adg

>  <m_score__min__energy>  (21) 
-8.3499999999999996

>  <m_primary>  (21) 
energy

$$$$
21:0
     RDKit          3D

 47 50  0  0  0  0  0  0  0  0999 V2000
   59.7570   32.1290   49.2990 C   0  0  0  0  0  0  0  0  0  0  0  0
   60.0650   33.3460   48.4620 C   0  0  0  0  0  0  0  0  0  0  0  0
   59.6900   34.5520   49.2630 C   0  0  0  0  0  0  0  0  0  0  0  0
   61.4930   33.2760   48.0910 C   0  0  0  0  0  0  0  0  0  0  0  0
   61.8450   33.8160   46.8580 C   0  0  0  0  0  0  0  0  0  0  0  0
   63.1910   33.7660   46.4760 C   0  0  0  0  0  0  0  0  0  0  0  0
   64.1440   33.1870   47.3190 C   0  0  0  0  0  0  0  0  0  0  0  0
   63.7780   32.6510   48.5520 C   0  0  0  0  0  0  0  0  0  0  0  0
   64.7020   32.0850   49.3840 F   0  0  0  0  0  0  0  0  0  0  0  0
   62.4570   32.7140   48.9000 C   0  0  0  0  0  0  0  0  0  0  0  0
   59.1690   33.2740   47.2750 C   0  0  0  0  0  0  0  0  0  0  0  0
   58.8390   32.2490   46.5570 N   0  0  0  0  0  0  0  0  0  0  0  0
   58.0370   32.3320   45.5330 C   0  0  0  0  0  0  0  0  0  0  0  0
   57.6660   31.1360   44.7220 C   0  0  0  0  0  0  0  0  0  0  0  0
   57.1220   31.3030   43.4620 C   0  0  0  0  0  0  0  0  0  0  0  0
   56.7520   30.2550   42.6490 C   0  0  0  0  0  0  0  0  0  0  0  0
   56.9500   28.9640   43.1520 C   0  0  0  0  0  0  0  0  0  0  0  0
   57.4930   28.8110   44.4090 C   0  0  0  0  0  0  0  0  0  0  0  0
   57.6990   27.4720   44.9250 C   0  0  0  0  0  0  0  0  0  0  0  0
   57.8030   27.3370   46.2980 C   0  0  0  0  0  0  0  0  0  0  0  0
   58.0020   26.0820   46.8720 C   0  0  0  0  0  0  0  0  0  0  0  0
   58.0930   24.9820   46.0410 C   0  0  0  0  0  0  0  0  0  0  0  0
   57.9870   25.1280   44.6690 C   0  0  0  0  0  0  0  0  0  0  0  0
   57.7900   26.3630   44.0800 C   0  0  0  0  0  0  0  0  0  0  0  0
   57.8520   29.8760   45.1980 C   0  0  0  0  0  0  0  0  0  0  0  0
   57.5500   33.5590   45.2390 C   0  0  0  0  0  0  0  0  0  0  0  0
   58.3090   34.6560   46.5370 S   0  0  0  0  0  0  0  0  0  0  0  0
   59.8233   32.3910   50.3653 H   0  0  0  0  0  0  0  0  0  0  0  0
   58.7409   31.7747   49.0710 H   0  0  0  0  0  0  0  0  0  0  0  0
   60.4823   31.3340   49.0710 H   0  0  0  0  0  0  0  0  0  0  0  0
   59.7630   34.3173   50.3352 H   0  0  0  0  0  0  0  0  0  0  0  0
   60.3732   35.3796   49.0215 H   0  0  0  0  0  0  0  0  0  0  0  0
   58.6580   34.8462   49.0215 H   0  0  0  0  0  0  0  0  0  0  0  0
   61.0873   34.2693   46.2020 H   0  0  0  0  0  0  0  0  0  0  0  0
   63.5004   34.1847   45.5070 H   0  0  0  0  0  0  0  0  0  0  0  0
   65.1976   33.1541   47.0046 H   0  0  0  0  0  0  0  0  0  0  0  0
   62.1496   32.2969   49.8703 H   0  0  0  0  0  0  0  0  0  0  0  0
   56.9770   32.3276   43.0891 H   0  0  0  0  0  0  0  0  0  0  0  0
   56.3211   30.4245   41.6512 H   0  0  0  0  0  0  0  0  0  0  0  0
   56.6759   28.0837   42.5521 H   0  0  0  0  0  0  0  0  0  0  0  0
   57.7282   28.2261   46.9414 H   0  0  0  0  0  0  0  0  0  0  0  0
   58.0848   25.9701   47.9632 H   0  0  0  0  0  0  0  0  0  0  0  0
   58.2509   23.9828   46.4732 H   0  0  0  0  0  0  0  0  0  0  0  0
   58.0616   24.2364   44.0292 H   0  0  0  0  0  0  0  0  0  0  0  0
   57.7080   26.4686   42.9882 H   0  0  0  0  0  0  0  0  0  0  0  0
   58.2823   29.7127   46.1971 H   0  0  0  0  0  0  0  0  0  0  0  0
   56.8666   33.8419   44.4248 H   0  0  0  0  0  0  0  0  0  0  0  0
  1  2  1  0
  2  3  1  0
  2  4  1  0
  4  5  2  0
  5  6  1  0
  6  7  2  0
  7  8  1  0
  8  9  1  0
  8 10  2  0
  2 11  1  0
 11 12  2  0
 12 13  1  0
 13 14  1  0
 14 15  2  0
 15 16  1  0
 16 17  2  0
 17 18  1  0
 18 19  1  0
 19 20  2  0
 20 21  1  0
 21 22  2  0
 22 23  1  0
 23 24  2  0
 18 25  2  0
 13 26  2  0
 26 27  1  0
 10  4  1  0
 27 11  1  0
 25 14  1  0
 24 19  1  0
  1 28  1  0
  1 29  1  0
  1 30  1  0
  3 31  1  0
  3 32  1  0
  3 33  1  0
  5 34  1  0
  6 35  1  0
  7 36  1  0
 10 37  1  0
 15 38  1  0
 16 39  1  0
 17 40  1  0
 20 41  1  0
 21 42  1  0
 22 43  1  0
 23 44  1  0
 24 45  1  0
 25 46  1  0
 26 47  1  0
M  END
>  <smiles>  (22) 
CC(C)(c1cccc(F)c1)c1nc(-c2cccc(-c3ccccc3)c2)cs1

>  <score_type>  (22) 
oracle

>  <origin>  (22) 
adg

>  <m_score__min__energy>  (22) 
-9.3100000000000005

>  <m_primary>  (22) 
energy

$$$$
22:0
     RDKit          3D

 38 39  0  0  0  0  0  0  0  0999 V2000
   57.1460   24.1640   46.5930 C   0  0  0  0  0  0  0  0  0  0  0  0
   56.3580   25.3740   46.2630 C   0  0  0  0  0  0  0  0  0  0  0  0
   55.0920   25.2100   46.1940 O   0  0  0  0  0  0  0  0  0  0  0  0
   56.9650   26.6800   46.0280 C   0  0  0  0  0  0  0  0  0  0  0  0
   58.1800   26.8110   46.3030 O   0  0  0  0  0  0  0  0  0  0  0  0
   56.1600   27.7160   45.5080 N   0  0  0  0  0  0  0  0  0  0  0  0
   56.6310   29.0320   45.2350 C   0  0  0  0  0  0  0  0  0  0  0  0
   57.6270   29.5190   46.0540 C   0  0  0  0  0  0  0  0  0  0  0  0
   58.1750   30.7810   45.9000 C   0  0  0  0  0  0  0  0  0  0  0  0
   57.6670   31.5580   44.8570 C   0  0  0  0  0  0  0  0  0  0  0  0
   58.3570   33.1600   44.6560 S   0  0  0  0  0  0  0  0  0  0  0  0
   58.5850   33.4720   43.2030 O   0  0  0  0  0  0  0  0  0  0  0  0
   57.3550   34.1980   45.1280 O   0  0  0  0  0  0  0  0  0  0  0  0
   59.7660   33.3740   45.6190 N   0  0  0  0  0  0  0  0  0  0  0  0
   59.7360   33.4840   47.0310 C   0  0  0  0  0  0  0  0  0  0  0  0
   58.6150   33.4200   47.5900 O   0  0  0  0  0  0  0  0  0  0  0  0
   60.9300   33.6640   47.8520 C   0  0  0  0  0  0  0  0  0  0  0  0
   62.1490   33.4350   47.2360 C   0  0  0  0  0  0  0  0  0  0  0  0
   63.3370   33.5770   47.9240 C   0  0  0  0  0  0  0  0  0  0  0  0
   63.2560   33.9570   49.2490 C   0  0  0  0  0  0  0  0  0  0  0  0
   62.0530   34.1870   49.8700 C   0  0  0  0  0  0  0  0  0  0  0  0
   60.8630   34.0400   49.1660 C   0  0  0  0  0  0  0  0  0  0  0  0
   56.6680   31.0860   44.0260 C   0  0  0  0  0  0  0  0  0  0  0  0
   56.1690   29.8260   44.2340 C   0  0  0  0  0  0  0  0  0  0  0  0
   57.2150   24.0581   47.6857 H   0  0  0  0  0  0  0  0  0  0  0  0
   56.6515   23.2775   46.1692 H   0  0  0  0  0  0  0  0  0  0  0  0
   58.1567   24.2578   46.1692 H   0  0  0  0  0  0  0  0  0  0  0  0
   55.1440   27.5440   45.2960 H   0  0  0  0  0  0  0  0  0  0  0  0
   58.0025   28.8774   46.8647 H   0  0  0  0  0  0  0  0  0  0  0  0
   58.9691   31.1522   46.5646 H   0  0  0  0  0  0  0  0  0  0  0  0
   60.6790   33.4210   45.1170 H   0  0  0  0  0  0  0  0  0  0  0  0
   62.1708   33.1342   46.1782 H   0  0  0  0  0  0  0  0  0  0  0  0
   64.3068   33.3952   47.4377 H   0  0  0  0  0  0  0  0  0  0  0  0
   64.1848   34.0794   49.8255 H   0  0  0  0  0  0  0  0  0  0  0  0
   62.0307   34.4885   50.9276 H   0  0  0  0  0  0  0  0  0  0  0  0
   59.8932   34.2212   49.6525 H   0  0  0  0  0  0  0  0  0  0  0  0
   56.2791   31.7123   43.2097 H   0  0  0  0  0  0  0  0  0  0  0  0
   55.3744   29.4484   43.5737 H   0  0  0  0  0  0  0  0  0  0  0  0
  1  2  1  0
  2  3  2  0
  2  4  1  0
  4  5  2  0
  4  6  1  0
  6  7  1  0
  7  8  2  0
  8  9  1  0
  9 10  2  0
 10 11  1  0
 11 12  2  0
 11 13  2  0
 11 14  1  0
 14 15  1  0
 15 16  2  0
 15 17  1  0
 17 18  2  0
 18 19  1  0
 19 20  2  0
 20 21  1  0
 21 22  2  0
 10 23  1  0
 23 24  2  0
 24  7  1  0
 22 17  1  0
  1 25  1  0
  1 26  1  0
  1 27  1  0
  6 28  1  0
  8 29  1  0
  9 30  1  0
 14 31  1  0
 18 32  1  0
 19 33  1  0
 20 34  1  0
 21 35  1  0
 22 36  1  0
 23 37  1  0
 24 38  1  0
M  END
>  <smiles>  (23) 
CC(=O)C(=O)Nc1ccc(S(=O)(=O)NC(=O)c2ccccc2)cc1

>  <score_type>  (23) 
oracle

>  <origin>  (23) 
adg

>  <m_score__min__energy>  (23) 
-8.5399999999999991

>  <m_primary>  (23) 
energy

$$$$
23:0
     RDKit          3D

 46 49  0  0  1  0  0  0  0  0999 V2000
   58.5640   32.2220   49.5330 C   0  0  0  0  0  0  0  0  0  0  0  0
   59.3360   31.4750   48.4930 C   0  0  0  0  0  0  0  0  0  0  0  0
   60.2900   32.1270   47.7830 C   0  0  0  0  0  0  0  0  0  0  0  0
   60.9870   31.4210   46.8310 C   0  0  0  0  0  0  0  0  0  0  0  0
   60.7250   30.1010   46.6100 C   0  0  0  0  0  0  0  0  0  0  0  0
   59.7690   29.3810   47.3000 C   0  0  0  0  0  0  0  0  0  0  0  0
   57.4430   29.0000   45.5070 N   0  0  0  0  0  0  0  0  0  0  0  0
   58.0820   27.9090   45.4000 C   0  0  0  0  0  0  0  0  0  0  0  0
   57.6020   27.0920   44.4110 N   0  0  0  0  0  0  0  0  0  0  0  0
   57.7200   25.7300   44.6290 C   0  0  0  0  0  0  0  0  0  0  0  0
   57.2550   24.8320   43.6810 C   0  0  0  0  0  0  0  0  0  0  0  0
   57.3370   23.4680   43.8410 C   0  0  0  0  0  0  0  0  0  0  0  0
   57.9110   22.9700   44.9980 C   0  0  0  0  0  0  0  0  0  0  0  0
   58.3770   23.8600   45.9450 C   0  0  0  0  0  0  0  0  0  0  0  0
   58.2910   25.2250   45.7800 C   0  0  0  0  0  0  0  0  0  0  0  0
   58.7880   26.0460   46.7760 N   0  0  0  0  0  0  0  0  0  0  0  0
   58.6510   27.3560   46.4950 C   0  0  0  0  0  0  0  0  0  0  0  0
   59.4130   28.1550   47.0760 N   0  0  0  0  0  0  0  0  0  0  0  0
   56.5230   29.6880   44.2760 S   0  0  0  0  0  0  0  0  0  0  0  0
   56.9260   29.4410   42.8320 O   0  0  0  0  0  0  0  0  0  0  0  0
   55.1430   30.0960   44.5020 O   0  0  0  0  0  0  0  0  0  0  0  0
   57.3610   31.3180   44.3450 C   0  0  0  0  0  0  0  0  0  0  0  0
   57.5040   32.0780   45.4490 C   0  0  0  0  0  0  0  0  0  0  0  0
   58.1780   33.1790   45.0470 N   0  0  0  0  0  0  0  0  0  0  0  0
   58.5340   34.2460   45.9210 C   0  0  0  0  0  0  0  0  0  0  0  0
   58.4570   33.1310   43.7410 C   0  0  0  0  0  0  0  0  0  0  0  0
   57.9260   31.9400   43.3260 N   0  0  0  0  0  0  0  0  0  0  0  0
   59.0720   30.1560   48.2750 C   0  0  0  0  0  0  0  0  0  0  0  0
   58.8931   31.9036   50.5332 H   0  0  0  0  0  0  0  0  0  0  0  0
   58.7400   33.3014   49.4155 H   0  0  0  0  0  0  0  0  0  0  0  0
   57.4909   32.0105   49.4155 H   0  0  0  0  0  0  0  0  0  0  0  0
   60.5004   33.1914   47.9638 H   0  0  0  0  0  0  0  0  0  0  0  0
   61.7652   31.9269   46.2406 H   0  0  0  0  0  0  0  0  0  0  0  0
   61.3088   29.5793   45.8374 H   0  0  0  0  0  0  0  0  0  0  0  0
   57.1790   27.4420   43.5550 H   0  0  0  0  0  0  0  0  0  0  0  0
   56.8006   25.2272   42.7605 H   0  0  0  0  0  0  0  0  0  0  0  0
   56.9545   22.7876   43.0659 H   0  0  0  0  0  0  0  0  0  0  0  0
   57.9943   21.8852   45.1599 H   0  0  0  0  0  0  0  0  0  0  0  0
   58.8335   23.4649   46.8645 H   0  0  0  0  0  0  0  0  0  0  0  0
   59.1980   25.6320   47.6040 H   0  0  0  0  0  0  0  0  0  0  0  0
   57.1471   31.8502   46.4643 H   0  0  0  0  0  0  0  0  0  0  0  0
   58.4242   33.9170   46.9649 H   0  0  0  0  0  0  0  0  0  0  0  0
   59.5783   34.5382   45.7365 H   0  0  0  0  0  0  0  0  0  0  0  0
   57.8744   35.1067   45.7365 H   0  0  0  0  0  0  0  0  0  0  0  0
   58.9918   33.8787   43.1370 H   0  0  0  0  0  0  0  0  0  0  0  0
   58.2895   29.6685   48.8751 H   0  0  0  0  0  0  0  0  0  0  0  0
  1  2  1  0
  2  3  2  0
  3  4  1  0
  4  5  2  0
  5  6  1  0
  6  7  1  0
  7  8  2  0
  8  9  1  0
  9 10  1  0
 10 11  2  0
 11 12  1  0
 12 13  2  0
 13 14  1  0
 14 15  2  0
 15 16  1  0
 16 17  1  0
 17 18  2  0
 18 19  1  0
 19 20  2  0
 19 21  2  0
 19 22  1  0
 22 23  2  0
 23 24  1  0
 24 25  1  0
 24 26  1  0
 26 27  2  0
  6 28  2  0
 28  2  1  0
 17  8  1  0
 27 22  1  0
 15 10  1  0
  1 29  1  0
  1 30  1  0
  1 31  1  0
  3 32  1  0
  4 33  1  0
  5 34  1  0
  9 35  1  0
 11 36  1  0
 12 37  1  0
 13 38  1  0
 14 39  1  0
 16 40  1  0
 23 41  1  0
 25 42  1  0
 25 43  1  0
 25 44  1  0
 26 45  1  0
 28 46  1  0
M  END
>  <smiles>  (24) 
Cc1cccc(N=c2[nH]c3ccccc3[nH]c2=NS(=O)(=O)c2cn(C)cn2)c1

>  <score_type>  (24) 
oracle

>  <origin>  (24) 
adg

>  <m_score__min__energy>  (24) 
-8.4000000000000004

>  <m_primary>  (24) 
energy

$$$$
24:0
     RDKit          3D

 74 79  0  0  1  0  0  0  0  0999 V2000
   63.8770   32.9020   49.7850 C   0  0  0  0  0  0  0  0  0  0  0  0
   62.7590   33.4840   50.6470 C   0  0  1  0  0  0  0  0  0  0  0  0
   62.0260   34.4340   49.8280 C   0  0  0  0  0  0  0  0  0  0  0  0
   61.5810   34.2640   48.6030 C   0  0  0  0  0  0  0  0  0  0  0  0
   60.2210   34.1310   48.1250 C   0  0  1  0  0  0  0  0  0  0  0  0
   59.2700   34.3960   49.1580 O   0  0  0  0  0  0  0  0  0  0  0  0
   59.7510   34.9200   46.9600 C   0  0  0  0  0  0  0  0  0  0  0  0
   58.5690   34.0460   46.4160 C   0  0  0  0  0  0  0  0  0  0  0  0
   59.3390   32.7940   46.3130 C   0  0  2  0  0  0  0  0  0  0  0  0
   58.6330   31.5210   46.0260 C   0  0  1  0  0  0  0  0  0  0  0  0
   57.7980   31.6720   44.7790 C   0  0  0  0  0  0  0  0  0  0  0  0
   57.9650   30.4960   43.8120 C   0  0  0  0  0  0  0  0  0  0  0  0
   58.0090   29.3030   44.7480 C   0  0  0  0  0  0  0  0  0  0  0  0
   56.9780   28.5250   44.7370 C   0  0  0  0  0  0  0  0  0  0  0  0
   56.9760   27.3730   45.6320 C   0  0  0  0  0  0  0  0  0  0  0  0
   55.9890   26.4540   45.6460 N   0  0  0  0  0  0  0  0  0  0  0  0
   56.0710   25.3540   46.4510 C   0  0  0  0  0  0  0  0  0  0  0  0
   55.1300   24.5450   46.4190 O   0  0  0  0  0  0  0  0  0  0  0  0
   57.1280   25.1970   47.2190 O   0  0  0  0  0  0  0  0  0  0  0  0
   58.1030   26.0700   47.2290 C   0  0  0  0  0  0  0  0  0  0  0  0
   58.0810   27.2200   46.4280 C   0  0  0  0  0  0  0  0  0  0  0  0
   59.1870   28.1700   46.5780 C   0  0  0  0  0  0  0  0  0  0  0  0
   59.2700   29.1510   45.4950 C   0  0  1  0  0  0  0  0  0  0  0  0
   60.2710   28.6000   44.4390 C   0  0  0  0  0  0  0  0  0  0  0  0
   59.7670   30.5260   45.8490 C   0  0  2  0  0  0  0  0  0  0  0  0
   60.7660   30.5160   46.9320 C   0  0  0  0  0  0  0  0  0  0  0  0
   61.2130   31.9000   47.4070 C   0  0  0  0  0  0  0  0  0  0  0  0
   59.9560   32.6750   47.6910 C   0  0  1  0  0  0  0  0  0  0  0  0
   59.0660   32.0300   48.6880 C   0  0  0  0  0  0  0  0  0  0  0  0
   61.8120   32.4270   50.9550 O   0  0  0  0  0  0  0  0  0  0  0  0
   60.5910   32.7210   51.5290 C   0  0  0  0  0  0  0  0  0  0  0  0
   60.4280   33.8480   52.0560 O   0  0  0  0  0  0  0  0  0  0  0  0
   59.4730   31.7840   51.5560 C   0  0  0  0  0  0  0  0  0  0  0  0
   58.2100   32.2990   51.7660 C   0  0  0  0  0  0  0  0  0  0  0  0
   57.1140   31.4550   51.8000 C   0  0  0  0  0  0  0  0  0  0  0  0
   57.2810   30.1280   51.6270 N   0  0  0  0  0  0  0  0  0  0  0  0
   58.5140   29.6060   51.4190 C   0  0  0  0  0  0  0  0  0  0  0  0
   59.6240   30.4290   51.3810 C   0  0  0  0  0  0  0  0  0  0  0  0
   64.6648   32.4919   50.4341 H   0  0  0  0  0  0  0  0  0  0  0  0
   63.4711   32.1008   49.1500 H   0  0  0  0  0  0  0  0  0  0  0  0
   64.3005   33.6941   49.1500 H   0  0  0  0  0  0  0  0  0  0  0  0
   63.1806   33.9360   51.5569 H   0  0  0  0  0  0  0  0  0  0  0  0
   61.8188   35.4116   50.2877 H   0  0  0  0  0  0  0  0  0  0  0  0
   62.3574   34.2156   47.8253 H   0  0  0  0  0  0  0  0  0  0  0  0
   59.6940   34.2850   50.0550 H   0  0  0  0  0  0  0  0  0  0  0  0
   59.4002   35.9157   47.2692 H   0  0  0  0  0  0  0  0  0  0  0  0
   60.5359   35.1113   46.2134 H   0  0  0  0  0  0  0  0  0  0  0  0
   57.7322   33.9732   47.1263 H   0  0  0  0  0  0  0  0  0  0  0  0
   58.0606   34.3991   45.5067 H   0  0  0  0  0  0  0  0  0  0  0  0
   59.9974   32.8907   45.4371 H   0  0  0  0  0  0  0  0  0  0  0  0
   57.9320   31.2033   46.8119 H   0  0  0  0  0  0  0  0  0  0  0  0
   56.7395   31.7411   45.0701 H   0  0  0  0  0  0  0  0  0  0  0  0
   58.1363   32.5808   44.2597 H   0  0  0  0  0  0  0  0  0  0  0  0
   57.1128   30.4267   43.1199 H   0  0  0  0  0  0  0  0  0  0  0  0
   58.8532   30.5808   43.1686 H   0  0  0  0  0  0  0  0  0  0  0  0
   56.1254   28.7255   44.0715 H   0  0  0  0  0  0  0  0  0  0  0  0
   58.9672   25.8957   47.8869 H   0  0  0  0  0  0  0  0  0  0  0  0
   59.0545   28.7104   47.5269 H   0  0  0  0  0  0  0  0  0  0  0  0
   60.1186   27.5855   46.5549 H   0  0  0  0  0  0  0  0  0  0  0  0
   61.1235   28.1307   44.9518 H   0  0  0  0  0  0  0  0  0  0  0  0
   59.7655   27.8530   43.8093 H   0  0  0  0  0  0  0  0  0  0  0  0
   60.6317   29.4267   43.8093 H   0  0  0  0  0  0  0  0  0  0  0  0
   60.3291   30.9005   44.9808 H   0  0  0  0  0  0  0  0  0  0  0  0
   60.3334   29.9827   47.7914 H   0  0  0  0  0  0  0  0  0  0  0  0
   61.6614   30.0258   46.5221 H   0  0  0  0  0  0  0  0  0  0  0  0
   61.8204   31.8116   48.3198 H   0  0  0  0  0  0  0  0  0  0  0  0
   61.8301   32.4032   46.6481 H   0  0  0  0  0  0  0  0  0  0  0  0
   59.4103   32.2795   49.7025 H   0  0  0  0  0  0  0  0  0  0  0  0
   58.0370   32.3934   48.5503 H   0  0  0  0  0  0  0  0  0  0  0  0
   59.0910   30.9389   48.5503 H   0  0  0  0  0  0  0  0  0  0  0  0
   58.0744   33.3815   51.9065 H   0  0  0  0  0  0  0  0  0  0  0  0
   56.1076   31.8660   51.9680 H   0  0  0  0  0  0  0  0  0  0  0  0
   58.6323   28.5213   51.2796 H   0  0  0  0  0  0  0  0  0  0  0  0
   60.6233   30.0016   51.2115 H   0  0  0  0  0  0  0  0  0  0  0  0
  1  2  1  0
  2  3  1  0
  3  4  2  0
  4  5  1  0
  5  6  1  1
  5  7  1  0
  7  8  1  0
  8  9  1  0
  9 10  1  0
 10 11  1  0
 11 12  1  0
 12 13  1  0
 13 14  2  0
 14 15  1  0
 15 16  2  0
 16 17  1  0
 17 18  2  0
 17 19  1  0
 19 20  1  0
 20 21  2  0
 21 22  1  0
 22 23  1  0
 23 24  1  6
 23 25  1  0
 25 26  1  0
 26 27  1  0
 27 28  1  0
 28 29  1  1
  2 30  1  0
 30 31  1  0
 31 32  2  0
 31 33  1  0
 33 34  2  0
 34 35  1  0
 35 36  2  0
 36 37  1  0
 37 38  2  0
 28  5  1  0
 38 33  1  0
 28  9  1  0
 25 10  1  0
 23 13  1  0
 21 15  1  0
  1 39  1  0
  1 40  1  0
  1 41  1  0
  2 42  1  1
  3 43  1  0
  4 44  1  0
  6 45  1  0
  7 46  1  0
  7 47  1  0
  8 48  1  0
  8 49  1  0
  9 50  1  6
 10 51  1  1
 11 52  1  0
 11 53  1  0
 12 54  1  0
 12 55  1  0
 14 56  1  0
 20 57  1  0
 22 58  1  0
 22 59  1  0
 24 60  1  0
 24 61  1  0
 24 62  1  0
 25 63  1  6
 26 64  1  0
 26 65  1  0
 27 66  1  0
 27 67  1  0
 29 68  1  0
 29 69  1  0
 29 70  1  0
 34 71  1  0
 35 72  1  0
 37 73  1  0
 38 74  1  0
M  END
>  <smiles>  (25) 
CC(C=CC1(O)CCC2C3CCC4=Cc5nc(=O)occ5CC4(C)C3CCC21C)OC(=O)c1ccncc1

>  <score_type>  (25) 
oracle

>  <origin>  (25) 
adg

>  <m_score__min__energy>  (25) 
-11.34

>  <m_primary>  (25) 
energy

$$$$
25:0
     RDKit          3D

 45 47  0  0  1  0  0  0  0  0999 V2000
   59.4120   29.4330   48.4520 C   0  0  0  0  0  0  0  0  0  0  0  0
   59.4090   30.7080   47.8480 O   0  0  0  0  0  0  0  0  0  0  0  0
   60.6120   31.3990   47.7780 C   0  0  0  0  0  0  0  0  0  0  0  0
   61.7440   30.8380   47.1720 C   0  0  0  0  0  0  0  0  0  0  0  0
   62.9140   31.5880   47.1380 C   0  0  0  0  0  0  0  0  0  0  0  0
   62.9630   32.8600   47.6900 C   0  0  0  0  0  0  0  0  0  0  0  0
   61.8370   33.4090   48.2880 C   0  0  0  0  0  0  0  0  0  0  0  0
   60.6670   32.6780   48.3310 C   0  0  0  0  0  0  0  0  0  0  0  0
   59.4160   33.2270   48.9720 C   0  0  0  0  0  0  0  0  0  0  0  0
   58.7930   34.0850   48.0120 N   0  0  0  0  0  0  0  0  0  0  0  0
   58.5050   33.7180   46.8120 C   0  0  0  0  0  0  0  0  0  0  0  0
   58.8580   34.5780   45.7670 C   0  0  0  0  0  0  0  0  0  0  0  0
   58.5480   34.1860   44.4770 C   0  0  0  0  0  0  0  0  0  0  0  0
   57.9250   33.0000   44.2930 N   0  0  0  0  0  0  0  0  0  0  0  0
   57.5970   32.1890   45.3230 C   0  0  0  0  0  0  0  0  0  0  0  0
   57.0020   31.0730   45.0740 N   0  0  0  0  0  0  0  0  0  0  0  0
   57.6870   29.8280   45.1310 C   0  0  0  0  0  0  0  0  0  0  0  0
   59.0510   29.7060   44.9420 C   0  0  0  0  0  0  0  0  0  0  0  0
   59.6580   28.4530   45.0120 C   0  0  0  0  0  0  0  0  0  0  0  0
   58.8790   27.3430   45.2710 C   0  0  0  0  0  0  0  0  0  0  0  0
   57.5080   27.4750   45.4600 C   0  0  0  0  0  0  0  0  0  0  0  0
   56.7420   26.2640   45.7320 C   0  0  0  0  0  0  0  0  0  0  0  0
   55.3910   26.3030   46.1750 N   0  0  0  0  0  0  0  0  0  0  0  0
   57.3290   25.1490   45.5570 O   0  0  0  0  0  0  0  0  0  0  0  0
   56.9050   28.7090   45.3920 C   0  0  0  0  0  0  0  0  0  0  0  0
   57.8880   32.5500   46.5880 N   0  0  0  0  0  0  0  0  0  0  0  0
   59.4117   29.5456   49.5462 H   0  0  0  0  0  0  0  0  0  0  0  0
   58.5152   28.8775   48.1404 H   0  0  0  0  0  0  0  0  0  0  0  0
   60.3114   28.8817   48.1404 H   0  0  0  0  0  0  0  0  0  0  0  0
   61.7078   29.8295   46.7342 H   0  0  0  0  0  0  0  0  0  0  0  0
   63.8142   31.1668   46.6665 H   0  0  0  0  0  0  0  0  0  0  0  0
   63.8991   33.4365   47.6536 H   0  0  0  0  0  0  0  0  0  0  0  0
   61.8768   34.4181   48.7239 H   0  0  0  0  0  0  0  0  0  0  0  0
   58.7368   32.4041   49.2394 H   0  0  0  0  0  0  0  0  0  0  0  0
   59.6577   33.7794   49.8920 H   0  0  0  0  0  0  0  0  0  0  0  0
   59.3651   35.5340   45.9642 H   0  0  0  0  0  0  0  0  0  0  0  0
   58.8029   34.8256   43.6191 H   0  0  0  0  0  0  0  0  0  0  0  0
   57.6900   32.7010   43.3140 H   0  0  0  0  0  0  0  0  0  0  0  0
   59.6586   30.5995   44.7360 H   0  0  0  0  0  0  0  0  0  0  0  0
   60.7430   28.3501   44.8629 H   0  0  0  0  0  0  0  0  0  0  0  0
   59.3457   26.3486   45.3281 H   0  0  0  0  0  0  0  0  0  0  0  0
   55.0390   25.4810   46.6940 H   0  0  0  0  0  0  0  0  0  0  0  0
   54.7730   27.1230   45.9900 H   0  0  0  0  0  0  0  0  0  0  0  0
   55.8199   28.8090   45.5419 H   0  0  0  0  0  0  0  0  0  0  0  0
   57.6380   31.9270   47.3870 H   0  0  0  0  0  0  0  0  0  0  0  0
  1  2  1  0
  2  3  1  0
  3  4  2  0
  4  5  1  0
  5  6  2  0
  6  7  1  0
  7  8  2  0
  8  9  1  0
  9 10  1  0
 10 11  2  0
 11 12  1  0
 12 13  2  0
 13 14  1  0
 14 15  1  0
 15 16  2  0
 16 17  1  0
 17 18  2  0
 18 19  1  0
 19 20  2  0
 20 21  1  0
 21 22  1  0
 22 23  1  0
 22 24  2  0
 21 25  2  0
 15 26  1  0
  8  3  1  0
 26 11  1  0
 25 17  1  0
  1 27  1  0
  1 28  1  0
  1 29  1  0
  4 30  1  0
  5 31  1  0
  6 32  1  0
  7 33  1  0
  9 34  1  0
  9 35  1  0
 12 36  1  0
 13 37  1  0
 14 38  1  0
 18 39  1  0
 19 40  1  0
 20 41  1  0
 23 42  1  0
 23 43  1  0
 25 44  1  0
 26 45  1  0
M  END
>  <smiles>  (26) 
COc1ccccc1CN=c1cc[nH]c(=Nc2cccc(C(N)=O)c2)[nH]1

>  <score_type>  (26) 
oracle

>  <origin>  (26) 
adg

>  <m_score__min__energy>  (26) 
-8.7599999999999998

>  <m_primary>  (26) 
energy

$$$$
26:0
     RDKit          3D

 42 44  0  0  0  0  0  0  0  0999 V2000
   56.0440   21.9090   42.2840 N   0  0  0  0  0  0  0  0  0  0  0  0
   56.7180   21.8060   43.3730 C   0  0  0  0  0  0  0  0  0  0  0  0
   56.9620   20.5160   43.9120 N   0  0  0  0  0  0  0  0  0  0  0  0
   57.1980   23.0270   44.0050 C   0  0  0  0  0  0  0  0  0  0  0  0
   56.9150   24.2900   43.5340 C   0  0  0  0  0  0  0  0  0  0  0  0
   57.4070   25.4160   44.1850 C   0  0  0  0  0  0  0  0  0  0  0  0
   58.1890   25.3060   45.3150 C   0  0  0  0  0  0  0  0  0  0  0  0
   58.7260   26.4510   46.0340 C   0  0  0  0  0  0  0  0  0  0  0  0
   59.5660   26.1890   47.1060 C   0  0  0  0  0  0  0  0  0  0  0  0
   60.1330   27.2030   47.8600 C   0  0  0  0  0  0  0  0  0  0  0  0
   59.8230   28.4920   47.4940 C   0  0  0  0  0  0  0  0  0  0  0  0
   58.9850   28.7890   46.4240 C   0  0  0  0  0  0  0  0  0  0  0  0
   58.7260   30.1960   46.1290 C   0  0  0  0  0  0  0  0  0  0  0  0
   58.0500   30.4870   44.9620 C   0  0  0  0  0  0  0  0  0  0  0  0
   57.7610   31.7910   44.6010 C   0  0  0  0  0  0  0  0  0  0  0  0
   58.1770   32.8150   45.4580 C   0  0  0  0  0  0  0  0  0  0  0  0
   57.8690   34.2030   45.0730 C   0  0  0  0  0  0  0  0  0  0  0  0
   56.6530   34.5860   44.8770 N   0  0  0  0  0  0  0  0  0  0  0  0
   58.9660   35.1270   44.9210 N   0  0  0  0  0  0  0  0  0  0  0  0
   58.8520   32.5070   46.6210 C   0  0  0  0  0  0  0  0  0  0  0  0
   59.1450   31.2090   46.9910 C   0  0  0  0  0  0  0  0  0  0  0  0
   58.4360   27.7540   45.6950 C   0  0  0  0  0  0  0  0  0  0  0  0
   58.4680   24.0190   45.7800 C   0  0  0  0  0  0  0  0  0  0  0  0
   57.9830   22.8970   45.1390 C   0  0  0  0  0  0  0  0  0  0  0  0
   56.3100   22.5500   41.5050 H   0  0  0  0  0  0  0  0  0  0  0  0
   57.9440   20.2170   44.1290 H   0  0  0  0  0  0  0  0  0  0  0  0
   56.2220   19.8140   44.1170 H   0  0  0  0  0  0  0  0  0  0  0  0
   56.2937   24.4091   42.6341 H   0  0  0  0  0  0  0  0  0  0  0  0
   57.1674   26.4145   43.7904 H   0  0  0  0  0  0  0  0  0  0  0  0
   59.7888   25.1435   47.3654 H   0  0  0  0  0  0  0  0  0  0  0  0
   60.7982   26.9881   48.7093 H   0  0  0  0  0  0  0  0  0  0  0  0
   60.2556   29.3225   48.0712 H   0  0  0  0  0  0  0  0  0  0  0  0
   57.7338   29.6641   44.3041 H   0  0  0  0  0  0  0  0  0  0  0  0
   57.2210   32.0153   43.6693 H   0  0  0  0  0  0  0  0  0  0  0  0
   56.1080   34.9390   45.6920 H   0  0  0  0  0  0  0  0  0  0  0  0
   58.8500   36.0240   44.4220 H   0  0  0  0  0  0  0  0  0  0  0  0
   59.8980   34.8850   45.3230 H   0  0  0  0  0  0  0  0  0  0  0  0
   59.1697   33.3283   47.2802 H   0  0  0  0  0  0  0  0  0  0  0  0
   59.6843   30.9845   47.9231 H   0  0  0  0  0  0  0  0  0  0  0  0
   57.7695   27.9687   44.8467 H   0  0  0  0  0  0  0  0  0  0  0  0
   59.0896   23.8965   46.6792 H   0  0  0  0  0  0  0  0  0  0  0  0
   58.2205   21.8966   45.5298 H   0  0  0  0  0  0  0  0  0  0  0  0
  1  2  2  3
  2  3  1  0
  2  4  1  0
  4  5  2  0
  5  6  1  0
  6  7  2  0
  7  8  1  0
  8  9  2  0
  9 10  1  0
 10 11  2  0
 11 12  1  0
 12 13  1  0
 13 14  2  0
 14 15  1  0
 15 16  2  0
 16 17  1  0
 17 18  2  3
 17 19  1  0
 16 20  1  0
 20 21  2  0
 12 22  2  0
  7 23  1  0
 23 24  2  0
 24  4  1  0
 22  8  1  0
 21 13  1  0
  1 25  1  0
  3 26  1  0
  3 27  1  0
  5 28  1  0
  6 29  1  0
  9 30  1  0
 10 31  1  0
 11 32  1  0
 14 33  1  0
 15 34  1  0
 18 35  1  0
 19 36  1  0
 19 37  1  0
 20 38  1  0
 21 39  1  0
 22 40  1  0
 23 41  1  0
 24 42  1  0
M  END
>  <smiles>  (27) 
N=C(N)c1ccc(-c2cccc(-c3ccc(C(=N)N)cc3)c2)cc1

>  <score_type>  (27) 
oracle

>  <origin>  (27) 
adg

>  <m_score__min__energy>  (27) 
-7.96

>  <m_primary>  (27) 
energy

$$$$
27:0
     RDKit          3D

 47 48  0  0  1  0  0  0  0  0999 V2000
   59.6080   34.9710   46.3540 C   0  0  0  0  0  0  0  0  0  0  0  0
   59.7980   33.6180   46.6250 O   0  0  0  0  0  0  0  0  0  0  0  0
   61.0320   33.0530   46.8540 C   0  0  0  0  0  0  0  0  0  0  0  0
   62.1430   33.8470   46.6430 C   0  0  0  0  0  0  0  0  0  0  0  0
   63.4180   33.3650   46.8470 C   0  0  0  0  0  0  0  0  0  0  0  0
   63.5280   32.0560   47.2690 C   0  0  0  0  0  0  0  0  0  0  0  0
   62.4010   31.2530   47.4810 C   0  0  0  0  0  0  0  0  0  0  0  0
   61.1540   31.7220   47.2830 C   0  0  0  0  0  0  0  0  0  0  0  0
   59.9240   31.0340   47.4660 N   0  0  0  0  0  0  0  0  0  0  0  0
   59.1220   31.3630   48.5930 C   0  0  0  0  0  0  0  0  0  0  0  0
   58.9470   30.4180   49.7030 C   0  0  1  0  0  0  0  0  0  0  0  0
   58.1450   29.3240   49.3630 F   0  0  0  0  0  0  0  0  0  0  0  0
   60.2910   29.8630   50.1050 C   0  0  0  0  0  0  0  0  0  0  0  0
   60.6970   28.7230   49.3280 N   0  0  0  0  0  0  0  0  0  0  0  0
   58.3070   30.9540   50.9630 C   0  0  0  0  0  0  0  0  0  0  0  0
   59.3420   31.1410   51.9030 F   0  0  0  0  0  0  0  0  0  0  0  0
   57.6330   32.1080   50.8430 F   0  0  0  0  0  0  0  0  0  0  0  0
   57.5750   29.9050   51.5430 F   0  0  0  0  0  0  0  0  0  0  0  0
   59.5260   29.7820   46.3800 S   0  0  0  0  0  0  0  0  0  0  0  0
   60.5580   29.6630   45.2660 O   0  0  0  0  0  0  0  0  0  0  0  0
   59.5830   28.4650   47.0990 O   0  0  0  0  0  0  0  0  0  0  0  0
   58.0020   29.8820   45.6040 C   0  0  0  0  0  0  0  0  0  0  0  0
   57.3850   30.9440   44.9350 C   0  0  0  0  0  0  0  0  0  0  0  0
   57.9890   32.2900   44.7520 C   0  0  0  0  0  0  0  0  0  0  0  0
   56.1820   30.5260   44.5010 N   0  0  0  0  0  0  0  0  0  0  0  0
   56.0260   29.3040   44.8520 O   0  0  0  0  0  0  0  0  0  0  0  0
   57.0840   28.8550   45.5200 C   0  0  0  0  0  0  0  0  0  0  0  0
   57.1500   27.4720   46.0350 C   0  0  0  0  0  0  0  0  0  0  0  0
   59.5299   35.5270   47.2999 H   0  0  0  0  0  0  0  0  0  0  0  0
   60.4614   35.3522   45.7740 H   0  0  0  0  0  0  0  0  0  0  0  0
   58.6826   35.1024   45.7740 H   0  0  0  0  0  0  0  0  0  0  0  0
   62.0071   34.8850   46.3053 H   0  0  0  0  0  0  0  0  0  0  0  0
   64.3053   33.9937   46.6813 H   0  0  0  0  0  0  0  0  0  0  0  0
   64.5279   31.6320   47.4435 H   0  0  0  0  0  0  0  0  0  0  0  0
   62.5371   30.2145   47.8172 H   0  0  0  0  0  0  0  0  0  0  0  0
   59.5535   32.2772   49.0267 H   0  0  0  0  0  0  0  0  0  0  0  0
   58.1116   31.4161   48.1613 H   0  0  0  0  0  0  0  0  0  0  0  0
   61.0452   30.6543   49.9824 H   0  0  0  0  0  0  0  0  0  0  0  0
   60.2034   29.5281   51.1491 H   0  0  0  0  0  0  0  0  0  0  0  0
   61.1960   28.9520   48.4700 H   0  0  0  0  0  0  0  0  0  0  0  0
   59.9200   28.0480   49.2230 H   0  0  0  0  0  0  0  0  0  0  0  0
   58.1902   32.7385   45.7361 H   0  0  0  0  0  0  0  0  0  0  0  0
   58.9313   32.1960   44.1923 H   0  0  0  0  0  0  0  0  0  0  0  0
   57.2924   32.9315   44.1923 H   0  0  0  0  0  0  0  0  0  0  0  0
   57.1491   27.4899   47.1349 H   0  0  0  0  0  0  0  0  0  0  0  0
   56.2779   26.9053   45.6768 H   0  0  0  0  0  0  0  0  0  0  0  0
   58.0721   26.9910   45.6768 H   0  0  0  0  0  0  0  0  0  0  0  0
  1  2  1  0
  2  3  1  0
  3  4  2  0
  4  5  1  0
  5  6  2  0
  6  7  1  0
  7  8  2  0
  8  9  1  0
  9 10  1  0
 10 11  1  0
 11 12  1  6
 11 13  1  0
 13 14  1  0
 11 15  1  0
 15 16  1  0
 15 17  1  0
 15 18  1  0
  9 19  1  0
 19 20  2  0
 19 21  2  0
 19 22  1  0
 22 23  1  0
 23 24  1  0
 23 25  2  0
 25 26  1  0
 26 27  1  0
 27 28  1  0
  8  3  1  0
 27 22  2  0
  1 29  1  0
  1 30  1  0
  1 31  1  0
  4 32  1  0
  5 33  1  0
  6 34  1  0
  7 35  1  0
 10 36  1  0
 10 37  1  0
 13 38  1  0
 13 39  1  0
 14 40  1  0
 14 41  1  0
 24 42  1  0
 24 43  1  0
 24 44  1  0
 28 45  1  0
 28 46  1  0
 28 47  1  0
M  END
>  <smiles>  (28) 
COc1ccccc1N(CC(F)(CN)C(F)(F)F)S(=O)(=O)c1c(C)noc1C

>  <score_type>  (28) 
oracle

>  <origin>  (28) 
adg

>  <m_score__min__energy>  (28) 
-6.3300000000000001

>  <m_primary>  (28) 
energy

$$$$
28:0
     RDKit          3D

 42 44  0  0  0  0  0  0  0  0999 V2000
   65.0270   32.9910   49.6120 C   0  0  0  0  0  0  0  0  0  0  0  0
   63.9190   32.1390   49.5530 O   0  0  0  0  0  0  0  0  0  0  0  0
   62.8050   32.2890   48.7700 C   0  0  0  0  0  0  0  0  0  0  0  0
   62.6300   33.4810   48.0600 C   0  0  0  0  0  0  0  0  0  0  0  0
   61.5190   33.6650   47.2620 C   0  0  0  0  0  0  0  0  0  0  0  0
   60.6120   32.6410   47.2020 C   0  0  0  0  0  0  0  0  0  0  0  0
   59.4110   32.8100   46.3550 C   0  0  0  0  0  0  0  0  0  0  0  0
   59.1530   32.4800   45.2040 N   0  0  0  0  0  0  0  0  0  0  0  0
   58.0220   32.7030   44.5760 C   0  0  0  0  0  0  0  0  0  0  0  0
   57.7840   32.2610   43.1510 C   0  0  0  0  0  0  0  0  0  0  0  0
   56.9280   31.0390   43.1070 C   0  0  0  0  0  0  0  0  0  0  0  0
   57.6130   29.8750   43.6670 N   0  0  0  0  0  0  0  0  0  0  0  0
   57.0550   29.2670   44.7990 C   0  0  0  0  0  0  0  0  0  0  0  0
   55.9840   29.7880   45.2470 O   0  0  0  0  0  0  0  0  0  0  0  0
   57.5820   28.1120   45.4950 C   0  0  0  0  0  0  0  0  0  0  0  0
   56.8510   27.0470   45.9450 C   0  0  0  0  0  0  0  0  0  0  0  0
   55.5330   26.9920   45.7670 F   0  0  0  0  0  0  0  0  0  0  0  0
   57.4380   25.9640   46.6120 C   0  0  0  0  0  0  0  0  0  0  0  0
   58.7920   25.9320   46.8420 C   0  0  0  0  0  0  0  0  0  0  0  0
   59.5390   26.9890   46.3980 C   0  0  0  0  0  0  0  0  0  0  0  0
   58.9580   28.0530   45.7430 C   0  0  0  0  0  0  0  0  0  0  0  0
   60.0210   29.3590   45.2160 Cl  0  0  0  0  0  0  0  0  0  0  0  0
   57.0650   33.3680   45.3020 C   0  0  0  0  0  0  0  0  0  0  0  0
   57.9250   33.6310   46.9240 S   0  0  0  0  0  0  0  0  0  0  0  0
   60.7250   31.4600   47.8680 C   0  0  0  0  0  0  0  0  0  0  0  0
   61.8480   31.2850   48.6680 C   0  0  0  0  0  0  0  0  0  0  0  0
   65.2827   33.1876   50.6636 H   0  0  0  0  0  0  0  0  0  0  0  0
   65.8822   32.5157   49.1094 H   0  0  0  0  0  0  0  0  0  0  0  0
   64.7873   33.9396   49.1094 H   0  0  0  0  0  0  0  0  0  0  0  0
   63.3838   34.2783   48.1381 H   0  0  0  0  0  0  0  0  0  0  0  0
   61.3683   34.5967   46.6970 H   0  0  0  0  0  0  0  0  0  0  0  0
   57.2827   33.0716   42.6017 H   0  0  0  0  0  0  0  0  0  0  0  0
   58.7546   32.0264   42.6896 H   0  0  0  0  0  0  0  0  0  0  0  0
   56.0115   31.2254   43.6861 H   0  0  0  0  0  0  0  0  0  0  0  0
   56.6938   30.8237   42.0540 H   0  0  0  0  0  0  0  0  0  0  0  0
   58.4700   29.5300   43.2350 H   0  0  0  0  0  0  0  0  0  0  0  0
   56.8080   25.1302   46.9553 H   0  0  0  0  0  0  0  0  0  0  0  0
   59.2599   25.0852   47.3655 H   0  0  0  0  0  0  0  0  0  0  0  0
   60.6259   26.9893   46.5675 H   0  0  0  0  0  0  0  0  0  0  0  0
   56.0506   33.6674   44.9998 H   0  0  0  0  0  0  0  0  0  0  0  0
   59.9590   30.6758   47.7770 H   0  0  0  0  0  0  0  0  0  0  0  0
   61.9808   30.3455   49.2246 H   0  0  0  0  0  0  0  0  0  0  0  0
  1  2  1  0
  2  3  1  0
  3  4  2  0
  4  5  1  0
  5  6  2  0
  6  7  1  0
  7  8  2  0
  8  9  1  0
  9 10  1  0
 10 11  1  0
 11 12  1  0
 12 13  1  0
 13 14  2  0
 13 15  1  0
 15 16  2  0
 16 17  1  0
 16 18  1  0
 18 19  2  0
 19 20  1  0
 20 21  2  0
 21 22  1  0
  9 23  2  0
 23 24  1  0
  6 25  1  0
 25 26  2  0
 26  3  1  0
 24  7  1  0
 21 15  1  0
  1 27  1  0
  1 28  1  0
  1 29  1  0
  4 30  1  0
  5 31  1  0
 10 32  1  0
 10 33  1  0
 11 34  1  0
 11 35  1  0
 12 36  1  0
 18 37  1  0
 19 38  1  0
 20 39  1  0
 23 40  1  0
 25 41  1  0
 26 42  1  0
M  END
>  <smiles>  (29) 
COc1ccc(-c2nc(CCNC(=O)c3c(F)cccc3Cl)cs2)cc1

>  <score_type>  (29) 
oracle

>  <origin>  (29) 
adg

>  <m_score__min__energy>  (29) 
-8.9700000000000006

>  <m_primary>  (29) 
energy

$$$$
29:0
     RDKit          3D

 49 52  0  0  0  0  0  0  0  0999 V2000
   55.9440   28.8400   44.8810 O   0  0  0  0  0  0  0  0  0  0  0  0
   56.9250   29.2350   44.2000 C   0  0  0  0  0  0  0  0  0  0  0  0
   57.8380   28.3880   43.5460 N   0  0  0  0  0  0  0  0  0  0  0  0
   57.7810   26.9410   43.5630 C   0  0  0  0  0  0  0  0  0  0  0  0
   57.8460   26.4080   44.9490 C   0  0  0  0  0  0  0  0  0  0  0  0
   58.9530   26.5180   45.7570 C   0  0  0  0  0  0  0  0  0  0  0  0
   58.8930   25.9790   47.0250 C   0  0  0  0  0  0  0  0  0  0  0  0
   57.7670   25.3370   47.5060 C   0  0  0  0  0  0  0  0  0  0  0  0
   56.6430   25.2220   46.6940 C   0  0  0  0  0  0  0  0  0  0  0  0
   56.7250   25.7700   45.4270 C   0  0  0  0  0  0  0  0  0  0  0  0
   57.1100   30.6970   44.0940 C   0  0  0  0  0  0  0  0  0  0  0  0
   57.4480   31.3980   42.9410 C   0  0  0  0  0  0  0  0  0  0  0  0
   57.5120   32.6600   43.2680 O   0  0  0  0  0  0  0  0  0  0  0  0
   57.2430   32.8320   44.5430 C   0  0  0  0  0  0  0  0  0  0  0  0
   57.2310   34.1670   45.2410 C   0  0  0  0  0  0  0  0  0  0  0  0
   58.4760   34.3950   45.9340 N   0  0  0  0  0  0  0  0  0  0  0  0
   59.3330   35.3430   45.5530 N   0  0  0  0  0  0  0  0  0  0  0  0
   60.3780   35.3440   46.3630 N   0  0  0  0  0  0  0  0  0  0  0  0
   60.1940   34.4080   47.2530 N   0  0  0  0  0  0  0  0  0  0  0  0
   59.0030   33.7930   47.0070 C   0  0  0  0  0  0  0  0  0  0  0  0
   58.4960   32.6880   47.8190 C   0  0  0  0  0  0  0  0  0  0  0  0
   58.7750   31.3700   47.3740 N   0  0  0  0  0  0  0  0  0  0  0  0
   58.9170   30.3710   48.3930 C   0  0  0  0  0  0  0  0  0  0  0  0
   60.1040   29.4610   48.1480 C   0  0  0  0  0  0  0  0  0  0  0  0
   60.1260   28.9700   46.8540 O   0  0  0  0  0  0  0  0  0  0  0  0
   59.9600   29.9390   45.8980 C   0  0  0  0  0  0  0  0  0  0  0  0
   59.9070   31.3410   46.4980 C   0  0  0  0  0  0  0  0  0  0  0  0
   56.9920   31.6210   45.0640 N   0  0  0  0  0  0  0  0  0  0  0  0
   58.6250   28.8380   43.0040 H   0  0  0  0  0  0  0  0  0  0  0  0
   56.8384   26.6152   43.0989 H   0  0  0  0  0  0  0  0  0  0  0  0
   58.6469   26.5556   43.0048 H   0  0  0  0  0  0  0  0  0  0  0  0
   59.8632   27.0230   45.4012 H   0  0  0  0  0  0  0  0  0  0  0  0
   59.7741   26.0630   47.6782 H   0  0  0  0  0  0  0  0  0  0  0  0
   57.7598   24.9199   48.5238 H   0  0  0  0  0  0  0  0  0  0  0  0
   55.7302   24.7178   47.0441 H   0  0  0  0  0  0  0  0  0  0  0  0
   55.8483   25.6917   44.7672 H   0  0  0  0  0  0  0  0  0  0  0  0
   57.6272   30.9702   41.9436 H   0  0  0  0  0  0  0  0  0  0  0  0
   57.0825   34.9622   44.4956 H   0  0  0  0  0  0  0  0  0  0  0  0
   56.4126   34.1728   45.9760 H   0  0  0  0  0  0  0  0  0  0  0  0
   58.9255   32.7942   48.8261 H   0  0  0  0  0  0  0  0  0  0  0  0
   57.4010   32.7778   47.7645 H   0  0  0  0  0  0  0  0  0  0  0  0
   59.0503   30.8722   49.3631 H   0  0  0  0  0  0  0  0  0  0  0  0
   58.0096   29.7492   48.3821 H   0  0  0  0  0  0  0  0  0  0  0  0
   61.0290   30.0286   48.3277 H   0  0  0  0  0  0  0  0  0  0  0  0
   60.0213   28.6048   48.8336 H   0  0  0  0  0  0  0  0  0  0  0  0
   60.8023   29.8878   45.1923 H   0  0  0  0  0  0  0  0  0  0  0  0
   59.0009   29.7526   45.3927 H   0  0  0  0  0  0  0  0  0  0  0  0
   60.8285   31.5472   47.0621 H   0  0  0  0  0  0  0  0  0  0  0  0
   59.8191   32.1053   45.7118 H   0  0  0  0  0  0  0  0  0  0  0  0
  1  2  2  0
  2  3  1  0
  3  4  1  0
  4  5  1  0
  5  6  2  0
  6  7  1  0
  7  8  2  0
  8  9  1  0
  9 10  2  0
  2 11  1  0
 11 12  2  0
 12 13  1  0
 13 14  1  0
 14 15  1  0
 15 16  1  0
 16 17  1  0
 17 18  2  0
 18 19  1  0
 19 20  2  0
 20 21  1  0
 21 22  1  0
 22 23  1  0
 23 24  1  0
 24 25  1  0
 25 26  1  0
 26 27  1  0
 14 28  2  0
 10  5  1  0
 28 11  1  0
 20 16  1  0
 27 22  1  0
  3 29  1  0
  4 30  1  0
  4 31  1  0
  6 32  1  0
  7 33  1  0
  8 34  1  0
  9 35  1  0
 10 36  1  0
 12 37  1  0
 15 38  1  0
 15 39  1  0
 21 40  1  0
 21 41  1  0
 23 42  1  0
 23 43  1  0
 24 44  1  0
 24 45  1  0
 26 46  1  0
 26 47  1  0
 27 48  1  0
 27 49  1  0
M  END
>  <smiles>  (30) 
O=C(NCc1ccccc1)c1coc(Cn2nnnc2CN2CCOCC2)n1

>  <score_type>  (30) 
oracle

>  <origin>  (30) 
adg

>  <m_score__min__energy>  (30) 
-8.3900000000000006

>  <m_primary>  (30) 
energy

$$$$
30:0
     RDKit          3D

 39 41  0  0  0  0  0  0  0  0999 V2000
   56.1400   21.9280   42.4340 N   0  0  0  0  0  0  0  0  0  0  0  0
   56.6300   21.8280   43.6240 C   0  0  0  0  0  0  0  0  0  0  0  0
   57.7470   22.5420   44.0070 C   0  0  0  0  0  0  0  0  0  0  0  0
   58.3010   22.4630   45.2690 C   0  0  0  0  0  0  0  0  0  0  0  0
   59.4310   23.2110   45.5920 O   0  0  0  0  0  0  0  0  0  0  0  0
   59.2510   24.5250   46.0110 C   0  0  0  0  0  0  0  0  0  0  0  0
   60.2780   25.4480   46.0600 C   0  0  0  0  0  0  0  0  0  0  0  0
   59.9780   26.7370   46.4980 C   0  0  0  0  0  0  0  0  0  0  0  0
   58.6990   27.0900   46.8730 C   0  0  0  0  0  0  0  0  0  0  0  0
   58.3470   28.3930   47.3250 N   0  0  0  0  0  0  0  0  0  0  0  0
   58.5310   29.5370   46.4620 C   0  0  0  0  0  0  0  0  0  0  0  0
   59.0020   29.3000   45.3370 O   0  0  0  0  0  0  0  0  0  0  0  0
   58.1820   30.8240   46.9130 N   0  0  0  0  0  0  0  0  0  0  0  0
   58.3060   32.0250   46.1840 C   0  0  0  0  0  0  0  0  0  0  0  0
   57.9460   32.2160   44.8820 C   0  0  0  0  0  0  0  0  0  0  0  0
   58.0950   33.4330   44.2150 C   0  0  0  0  0  0  0  0  0  0  0  0
   58.6290   34.5160   44.8820 C   0  0  0  0  0  0  0  0  0  0  0  0
   58.9920   34.3230   46.1930 C   0  0  0  0  0  0  0  0  0  0  0  0
   59.5160   35.3520   46.8740 F   0  0  0  0  0  0  0  0  0  0  0  0
   58.8430   33.1200   46.8480 C   0  0  0  0  0  0  0  0  0  0  0  0
   57.7050   26.1510   46.8130 C   0  0  0  0  0  0  0  0  0  0  0  0
   57.9460   24.8600   46.3870 C   0  0  0  0  0  0  0  0  0  0  0  0
   57.7100   21.6370   46.1770 N   0  0  0  0  0  0  0  0  0  0  0  0
   56.6240   20.9450   45.7980 C   0  0  0  0  0  0  0  0  0  0  0  0
   56.0820   21.0200   44.5700 N   0  0  0  0  0  0  0  0  0  0  0  0
   56.5750   22.6320   41.7880 H   0  0  0  0  0  0  0  0  0  0  0  0
   58.2197   23.2075   43.2697 H   0  0  0  0  0  0  0  0  0  0  0  0
   61.3010   25.1741   45.7625 H   0  0  0  0  0  0  0  0  0  0  0  0
   60.7793   27.4891   46.5455 H   0  0  0  0  0  0  0  0  0  0  0  0
   57.9550   28.5000   48.2920 H   0  0  0  0  0  0  0  0  0  0  0  0
   57.7900   30.8680   47.9000 H   0  0  0  0  0  0  0  0  0  0  0  0
   57.5163   31.3674   44.3296 H   0  0  0  0  0  0  0  0  0  0  0  0
   57.7882   33.5280   43.1629 H   0  0  0  0  0  0  0  0  0  0  0  0
   58.7583   35.4897   44.3868 H   0  0  0  0  0  0  0  0  0  0  0  0
   59.1503   33.0267   47.9001 H   0  0  0  0  0  0  0  0  0  0  0  0
   56.6849   26.4330   47.1128 H   0  0  0  0  0  0  0  0  0  0  0  0
   57.1359   24.1170   46.3445 H   0  0  0  0  0  0  0  0  0  0  0  0
   58.1410   21.5950   47.1090 H   0  0  0  0  0  0  0  0  0  0  0  0
   56.1506   20.2786   46.5341 H   0  0  0  0  0  0  0  0  0  0  0  0
  1  2  2  3
  2  3  1  0
  3  4  2  0
  4  5  1  0
  5  6  1  0
  6  7  2  0
  7  8  1  0
  8  9  2  0
  9 10  1  0
 10 11  1  0
 11 12  2  0
 11 13  1  0
 13 14  1  0
 14 15  2  0
 15 16  1  0
 16 17  2  0
 17 18  1  0
 18 19  1  0
 18 20  2  0
  9 21  1  0
 21 22  2  0
  4 23  1  0
 23 24  1  0
 24 25  2  0
 25  2  1  0
 22  6  1  0
 20 14  1  0
  1 26  1  0
  3 27  1  0
  7 28  1  0
  8 29  1  0
 10 30  1  0
 13 31  1  0
 15 32  1  0
 16 33  1  0
 17 34  1  0
 20 35  1  0
 21 36  1  0
 22 37  1  0
 23 38  1  0
 24 39  1  0
M  END
>  <smiles>  (31) 
N=c1cc(Oc2ccc(NC(=O)Nc3cccc(F)c3)cc2)[nH]cn1

>  <score_type>  (31) 
oracle

>  <origin>  (31) 
adg

>  <m_score__min__energy>  (31) 
-7.29

>  <m_primary>  (31) 
energy

$$$$
31:0
     RDKit          3D

 54 58  0  0  1  0  0  0  0  0999 V2000
   58.1940   21.8010   44.0560 C   0  0  0  0  0  0  0  0  0  0  0  0
   56.7070   22.7510   44.1460 S   0  0  0  0  0  0  0  0  0  0  0  0
   55.8640   22.2450   45.2990 O   0  0  0  0  0  0  0  0  0  0  0  0
   55.8990   22.5180   42.9080 O   0  0  0  0  0  0  0  0  0  0  0  0
   57.0000   24.4600   44.2820 C   0  0  0  0  0  0  0  0  0  0  0  0
   56.6700   25.0820   45.4600 C   0  0  0  0  0  0  0  0  0  0  0  0
   56.8940   26.4290   45.5600 C   0  0  0  0  0  0  0  0  0  0  0  0
   57.4360   27.1780   44.5320 C   0  0  0  0  0  0  0  0  0  0  0  0
   57.6050   28.6040   44.7810 C   0  0  0  0  0  0  0  0  0  0  0  0
   57.1030   29.4940   43.8560 C   0  0  0  0  0  0  0  0  0  0  0  0
   57.2460   30.8470   44.1000 C   0  0  0  0  0  0  0  0  0  0  0  0
   57.8760   31.2850   45.2450 C   0  0  0  0  0  0  0  0  0  0  0  0
   58.0310   32.6050   45.5320 N   0  0  0  0  0  0  0  0  0  0  0  0
   58.6400   33.0290   46.6570 C   0  0  0  0  0  0  0  0  0  0  0  0
   59.1480   32.1850   47.5860 N   0  0  0  0  0  0  0  0  0  0  0  0
   59.7770   32.6990   48.7460 C   0  0  0  0  0  0  0  0  0  0  0  0
   61.1480   32.8710   48.8640 C   0  0  0  0  0  0  0  0  0  0  0  0
   61.7250   33.3800   50.0260 C   0  0  0  0  0  0  0  0  0  0  0  0
   60.9570   33.7340   51.1130 C   0  0  0  0  0  0  0  0  0  0  0  0
   59.5970   33.5690   51.0110 C   0  0  0  0  0  0  0  0  0  0  0  0
   58.7690   33.9270   52.1550 C   0  0  0  0  0  0  0  0  0  0  0  0
   59.2450   34.6980   53.0370 O   0  0  0  0  0  0  0  0  0  0  0  0
   57.4430   33.4540   52.3420 N   0  0  0  0  0  0  0  0  0  0  0  0
   57.2600   32.1860   52.4030 C   0  0  0  0  0  0  0  0  0  0  0  0
   57.8980   31.3460   53.2870 C   0  0  0  0  0  0  0  0  0  0  0  0
   57.4050   30.0700   53.0090 C   0  0  0  0  0  0  0  0  0  0  0  0
   56.5180   30.1480   52.0100 N   0  0  0  0  0  0  0  0  0  0  0  0
   56.4370   31.4110   51.6520 N   0  0  0  0  0  0  0  0  0  0  0  0
   59.0340   33.0680   49.8610 C   0  0  0  0  0  0  0  0  0  0  0  0
   59.0070   30.8800   47.3210 C   0  0  0  0  0  0  0  0  0  0  0  0
   59.4330   29.9690   48.0970 O   0  0  0  0  0  0  0  0  0  0  0  0
   58.3790   30.3990   46.1700 C   0  0  0  0  0  0  0  0  0  0  0  0
   58.2320   29.0530   45.9150 C   0  0  0  0  0  0  0  0  0  0  0  0
   57.7720   26.5650   43.3440 C   0  0  0  0  0  0  0  0  0  0  0  0
   57.5440   25.2080   43.2460 C   0  0  0  0  0  0  0  0  0  0  0  0
   58.5471   21.5754   45.0731 H   0  0  0  0  0  0  0  0  0  0  0  0
   57.9968   20.8612   43.5194 H   0  0  0  0  0  0  0  0  0  0  0  0
   58.9639   22.3749   43.5194 H   0  0  0  0  0  0  0  0  0  0  0  0
   56.2386   24.5155   46.2984 H   0  0  0  0  0  0  0  0  0  0  0  0
   56.6313   26.9375   46.4993 H   0  0  0  0  0  0  0  0  0  0  0  0
   56.6005   29.1361   42.9453 H   0  0  0  0  0  0  0  0  0  0  0  0
   56.8551   31.5778   43.3768 H   0  0  0  0  0  0  0  0  0  0  0  0
   58.7286   34.1119   46.8286 H   0  0  0  0  0  0  0  0  0  0  0  0
   61.7969   32.5986   48.0185 H   0  0  0  0  0  0  0  0  0  0  0  0
   62.8171   33.5016   50.0760 H   0  0  0  0  0  0  0  0  0  0  0  0
   61.4157   34.1342   52.0292 H   0  0  0  0  0  0  0  0  0  0  0  0
   58.6397   31.6218   54.0511 H   0  0  0  0  0  0  0  0  0  0  0  0
   57.6991   29.1463   53.5289 H   0  0  0  0  0  0  0  0  0  0  0  0
   56.0100   29.3040   51.6260 H   0  0  0  0  0  0  0  0  0  0  0  0
   55.8170   31.7470   50.8920 H   0  0  0  0  0  0  0  0  0  0  0  0
   57.9407   32.9535   49.8215 H   0  0  0  0  0  0  0  0  0  0  0  0
   58.6262   28.3225   46.6368 H   0  0  0  0  0  0  0  0  0  0  0  0
   58.2043   27.1346   42.5082 H   0  0  0  0  0  0  0  0  0  0  0  0
   57.8041   24.6967   42.3074 H   0  0  0  0  0  0  0  0  0  0  0  0
  1  2  1  0
  2  3  2  0
  2  4  2  0
  2  5  1  0
  5  6  2  0
  6  7  1  0
  7  8  2  0
  8  9  1  0
  9 10  2  0
 10 11  1  0
 11 12  2  0
 12 13  1  0
 13 14  2  0
 14 15  1  0
 15 16  1  0
 16 17  2  0
 17 18  1  0
 18 19  2  0
 19 20  1  0
 20 21  1  0
 21 22  2  0
 21 23  1  0
 23 24  2  0
 24 25  1  0
 25 26  2  0
 26 27  1  0
 27 28  1  0
 20 29  2  0
 15 30  1  0
 30 31  2  0
 30 32  1  0
 32 33  2  0
  8 34  1  0
 34 35  2  0
 35  5  1  0
 33  9  1  0
 32 12  1  0
 29 16  1  0
 28 24  1  0
  1 36  1  0
  1 37  1  0
  1 38  1  0
  6 39  1  0
  7 40  1  0
 10 41  1  0
 11 42  1  0
 14 43  1  0
 17 44  1  0
 18 45  1  0
 19 46  1  0
 25 47  1  0
 26 48  1  0
 27 49  1  0
 28 50  1  0
 29 51  1  0
 33 52  1  0
 34 53  1  0
 35 54  1  0
M  END
>  <smiles>  (32) 
CS(=O)(=O)c1ccc(-c2ccc3ncn(-c4cccc(C(=O)N=c5cc[nH][nH]5)c4)c(=O)c3c2)cc1

>  <score_type>  (32) 
oracle

>  <origin>  (32) 
adg

>  <m_score__min__energy>  (32) 
-10.029999999999999

>  <m_primary>  (32) 
energy

$$$$
32:0
     RDKit          3D

 42 43  0  0  1  0  0  0  0  0999 V2000
   60.1180   27.9840   45.3120 C   0  0  0  0  0  0  0  0  0  0  0  0
   59.3120   28.9920   44.4830 C   0  0  0  0  0  0  0  0  0  0  0  0
   57.9820   28.3250   44.2340 C   0  0  2  0  0  0  0  0  0  0  0  0
   57.0350   29.1080   43.4110 C   0  0  0  0  0  0  0  0  0  0  0  0
   56.2050   29.9630   44.2770 C   0  0  0  0  0  0  0  0  0  0  0  0
   55.2560   29.4180   44.8960 O   0  0  0  0  0  0  0  0  0  0  0  0
   56.3840   31.3550   44.4680 N   0  0  0  0  0  0  0  0  0  0  0  0
   57.3340   31.7580   45.2560 C   0  0  0  0  0  0  0  0  0  0  0  0
   57.8310   33.0460   45.2110 C   0  0  0  0  0  0  0  0  0  0  0  0
   58.8410   33.4910   46.0460 C   0  0  0  0  0  0  0  0  0  0  0  0
   59.3910   32.6220   46.9730 C   0  0  0  0  0  0  0  0  0  0  0  0
   58.8800   31.3390   47.0000 C   0  0  0  0  0  0  0  0  0  0  0  0
   57.8920   30.9320   46.1730 N   0  0  0  0  0  0  0  0  0  0  0  0
   57.5010   27.9110   45.4730 O   0  0  0  0  0  0  0  0  0  0  0  0
   57.3440   26.6630   45.9860 C   0  0  0  0  0  0  0  0  0  0  0  0
   57.8890   26.4150   47.2510 C   0  0  0  0  0  0  0  0  0  0  0  0
   57.7720   25.1760   47.8390 C   0  0  0  0  0  0  0  0  0  0  0  0
   57.1200   24.1320   47.2190 C   0  0  0  0  0  0  0  0  0  0  0  0
   57.0600   22.9310   47.8950 O   0  0  0  0  0  0  0  0  0  0  0  0
   55.9280   22.4320   48.5460 C   0  0  0  0  0  0  0  0  0  0  0  0
   56.5850   24.3640   45.9820 C   0  0  0  0  0  0  0  0  0  0  0  0
   56.6970   25.6100   45.3790 C   0  0  0  0  0  0  0  0  0  0  0  0
   59.9606   28.1808   46.3827 H   0  0  0  0  0  0  0  0  0  0  0  0
   59.7842   26.9633   45.0739 H   0  0  0  0  0  0  0  0  0  0  0  0
   61.1871   28.0851   45.0739 H   0  0  0  0  0  0  0  0  0  0  0  0
   59.1749   29.9293   45.0421 H   0  0  0  0  0  0  0  0  0  0  0  0
   59.8226   29.2545   43.5447 H   0  0  0  0  0  0  0  0  0  0  0  0
   58.1177   27.4474   43.5849 H   0  0  0  0  0  0  0  0  0  0  0  0
   57.5984   29.7390   42.7079 H   0  0  0  0  0  0  0  0  0  0  0  0
   56.3845   28.4183   42.8532 H   0  0  0  0  0  0  0  0  0  0  0  0
   57.4054   33.7487   44.4795 H   0  0  0  0  0  0  0  0  0  0  0  0
   59.2039   34.5269   45.9738 H   0  0  0  0  0  0  0  0  0  0  0  0
   60.1950   32.9377   47.6542 H   0  0  0  0  0  0  0  0  0  0  0  0
   59.2936   30.6205   47.7230 H   0  0  0  0  0  0  0  0  0  0  0  0
   57.5230   29.9570   46.2130 H   0  0  0  0  0  0  0  0  0  0  0  0
   58.4175   27.2204   47.7820 H   0  0  0  0  0  0  0  0  0  0  0  0
   58.2123   25.0142   48.8340 H   0  0  0  0  0  0  0  0  0  0  0  0
   56.0730   22.4959   49.6345 H   0  0  0  0  0  0  0  0  0  0  0  0
   55.0478   23.0256   48.2579 H   0  0  0  0  0  0  0  0  0  0  0  0
   55.7724   21.3819   48.2579 H   0  0  0  0  0  0  0  0  0  0  0  0
   56.0589   23.5527   45.4576 H   0  0  0  0  0  0  0  0  0  0  0  0
   56.2541   25.7607   44.3834 H   0  0  0  0  0  0  0  0  0  0  0  0
  1  2  1  0
  2  3  1  0
  3  4  1  0
  4  5  1  0
  5  6  2  0
  5  7  1  0
  7  8  2  0
  8  9  1  0
  9 10  2  0
 10 11  1  0
 11 12  2  0
 12 13  1  0
  3 14  1  0
 14 15  1  0
 15 16  2  0
 16 17  1  0
 17 18  2  0
 18 19  1  0
 19 20  1  0
 18 21  1  0
 21 22  2  0
 13  8  1  0
 22 15  1  0
  1 23  1  0
  1 24  1  0
  1 25  1  0
  2 26  1  0
  2 27  1  0
  3 28  1  6
  4 29  1  0
  4 30  1  0
  9 31  1  0
 10 32  1  0
 11 33  1  0
 12 34  1  0
 13 35  1  0
 16 36  1  0
 17 37  1  0
 20 38  1  0
 20 39  1  0
 20 40  1  0
 21 41  1  0
 22 42  1  0
M  END
>  <smiles>  (33) 
CCC(CC(=O)N=c1cccc[nH]1)Oc1ccc(OC)cc1

>  <score_type>  (33) 
oracle

>  <origin>  (33) 
adg

>  <m_score__min__energy>  (33) 
-7.8499999999999996

>  <m_primary>  (33) 
energy

$$$$
33:0
     RDKit          3D

 36 38  0  0  0  0  0  0  0  0999 V2000
   56.5950   30.1130   43.6570 C   0  0  0  0  0  0  0  0  0  0  0  0
   56.5020   30.9070   44.8040 O   0  0  0  0  0  0  0  0  0  0  0  0
   57.4000   31.8570   45.2220 C   0  0  0  0  0  0  0  0  0  0  0  0
   57.1260   33.1900   45.3070 C   0  0  0  0  0  0  0  0  0  0  0  0
   58.0460   34.1420   45.7320 C   0  0  0  0  0  0  0  0  0  0  0  0
   59.3040   33.6730   46.0820 C   0  0  0  0  0  0  0  0  0  0  0  0
   60.3780   34.6000   46.5550 C   0  0  0  0  0  0  0  0  0  0  0  0
   61.4570   33.8800   47.1900 N   0  0  0  0  0  0  0  0  0  0  0  0
   62.6920   33.8150   46.6070 C   0  0  0  0  0  0  0  0  0  0  0  0
   63.5070   33.0610   47.3700 N   0  0  0  0  0  0  0  0  0  0  0  0
   62.7940   32.6500   48.4300 C   0  0  0  0  0  0  0  0  0  0  0  0
   61.4890   33.1670   48.3220 C   0  0  0  0  0  0  0  0  0  0  0  0
   60.4820   32.8660   49.3080 C   0  0  0  0  0  0  0  0  0  0  0  0
   60.2410   33.8450   50.2770 C   0  0  0  0  0  0  0  0  0  0  0  0
   59.2820   33.6880   51.2550 C   0  0  0  0  0  0  0  0  0  0  0  0
   58.5090   32.5480   51.3230 C   0  0  0  0  0  0  0  0  0  0  0  0
   58.7470   31.5810   50.3670 C   0  0  0  0  0  0  0  0  0  0  0  0
   59.7170   31.7400   49.3770 C   0  0  0  0  0  0  0  0  0  0  0  0
   59.8270   30.7410   48.4860 F   0  0  0  0  0  0  0  0  0  0  0  0
   59.6260   32.3280   46.0130 C   0  0  0  0  0  0  0  0  0  0  0  0
   58.6630   31.4350   45.5810 C   0  0  0  0  0  0  0  0  0  0  0  0
   56.7184   29.0597   43.9492 H   0  0  0  0  0  0  0  0  0  0  0  0
   55.6779   30.2228   43.0597 H   0  0  0  0  0  0  0  0  0  0  0  0
   57.4619   30.4318   43.0597 H   0  0  0  0  0  0  0  0  0  0  0  0
   56.1197   33.5317   45.0231 H   0  0  0  0  0  0  0  0  0  0  0  0
   57.7900   35.2103   45.7878 H   0  0  0  0  0  0  0  0  0  0  0  0
   60.7770   35.1543   45.6927 H   0  0  0  0  0  0  0  0  0  0  0  0
   59.9399   35.2872   47.2938 H   0  0  0  0  0  0  0  0  0  0  0  0
   62.9758   34.3022   45.6625 H   0  0  0  0  0  0  0  0  0  0  0  0
   63.1670   32.0150   49.2471 H   0  0  0  0  0  0  0  0  0  0  0  0
   60.8357   34.7702   50.2583 H   0  0  0  0  0  0  0  0  0  0  0  0
   59.1305   34.4874   51.9953 H   0  0  0  0  0  0  0  0  0  0  0  0
   57.7415   32.4159   52.0998 H   0  0  0  0  0  0  0  0  0  0  0  0
   58.1528   30.6555   50.3864 H   0  0  0  0  0  0  0  0  0  0  0  0
   60.6291   31.9767   46.2966 H   0  0  0  0  0  0  0  0  0  0  0  0
   58.9095   30.3646   45.5223 H   0  0  0  0  0  0  0  0  0  0  0  0
  1  2  1  0
  2  3  1  0
  3  4  2  0
  4  5  1  0
  5  6  2  0
  6  7  1  0
  7  8  1  0
  8  9  1  0
  9 10  2  0
 10 11  1  0
 11 12  2  0
 12 13  1  0
 13 14  2  0
 14 15  1  0
 15 16  2  0
 16 17  1  0
 17 18  2  0
 18 19  1  0
  6 20  1  0
 20 21  2  0
 21  3  1  0
 12  8  1  0
 18 13  1  0
  1 22  1  0
  1 23  1  0
  1 24  1  0
  4 25  1  0
  5 26  1  0
  7 27  1  0
  7 28  1  0
  9 29  1  0
 11 30  1  0
 14 31  1  0
 15 32  1  0
 16 33  1  0
 17 34  1  0
 20 35  1  0
 21 36  1  0
M  END
>  <smiles>  (34) 
COc1ccc(Cn2cncc2-c2ccccc2F)cc1

>  <score_type>  (34) 
oracle

>  <origin>  (34) 
adg

>  <m_score__min__energy>  (34) 
-6.3600000000000003

>  <m_primary>  (34) 
energy

$$$$
34:0
     RDKit          3D

 14 15  0  0  0  0  0  0  0  0999 V2000
   55.8960   28.2380   45.2460 O   0  0  0  0  0  0  0  0  0  0  0  0
   56.5260   29.4730   45.2090 N   0  0  0  0  0  0  0  0  0  0  0  0
   56.1390   30.5820   44.6990 O   0  0  0  0  0  0  0  0  0  0  0  0
   57.0110   31.5270   44.8650 N   0  0  0  0  0  0  0  0  0  0  0  0
   58.0430   31.0120   45.5310 C   0  0  0  0  0  0  0  0  0  0  0  0
   59.2540   31.4700   46.0100 C   0  0  0  0  0  0  0  0  0  0  0  0
   60.1500   30.6710   46.6870 C   0  0  0  0  0  0  0  0  0  0  0  0
   61.6760   31.3340   47.2650 Cl  0  0  0  0  0  0  0  0  0  0  0  0
   59.8460   29.3540   46.9100 C   0  0  0  0  0  0  0  0  0  0  0  0
   58.6300   28.8600   46.4410 C   0  0  0  0  0  0  0  0  0  0  0  0
   57.7460   29.6770   45.7640 C   0  0  0  0  0  0  0  0  0  0  0  0
   59.5169   32.5250   45.8431 H   0  0  0  0  0  0  0  0  0  0  0  0
   60.5474   28.6996   47.4483 H   0  0  0  0  0  0  0  0  0  0  0  0
   58.3708   27.8048   46.6125 H   0  0  0  0  0  0  0  0  0  0  0  0
  1  2  1  0
  2  3  1  0
  3  4  1  0
  4  5  2  0
  5  6  1  0
  6  7  2  0
  7  8  1  0
  7  9  1  0
  9 10  2  0
 10 11  1  0
 11  2  2  0
 11  5  1  0
  6 12  1  0
  9 13  1  0
 10 14  1  0
M  CHG  2   1  -1   2   1
M  END
>  <smiles>  (35) 
[O-][n+]1onc2cc(Cl)ccc21

>  <score_type>  (35) 
oracle

>  <origin>  (35) 
adg

>  <m_score__min__energy>  (35) 
-6.3200000000000003

>  <m_primary>  (35) 
energy

$$$$
35:0
     RDKit          3D

 54 57  0  0  1  0  0  0  0  0999 V2000
   56.1010   24.1610   44.4400 C   0  0  0  0  0  0  0  0  0  0  0  0
   55.5220   24.9080   45.9390 S   0  0  0  0  0  0  0  0  0  0  0  0
   54.8020   23.8630   46.7710 O   0  0  0  0  0  0  0  0  0  0  0  0
   54.4850   25.9670   45.6470 O   0  0  0  0  0  0  0  0  0  0  0  0
   56.7920   25.5730   46.8620 N   0  0  0  0  0  0  0  0  0  0  0  0
   57.7630   26.4860   46.3820 C   0  0  0  0  0  0  0  0  0  0  0  0
   59.1200   26.3420   46.5470 C   0  0  0  0  0  0  0  0  0  0  0  0
   60.0490   27.2440   46.0700 C   0  0  0  0  0  0  0  0  0  0  0  0
   59.5890   28.3540   45.3880 C   0  0  0  0  0  0  0  0  0  0  0  0
   60.5260   29.3140   44.8740 N   0  0  0  0  0  0  0  0  0  0  0  0
   58.2110   28.5300   45.2020 C   0  0  0  0  0  0  0  0  0  0  0  0
   57.8400   29.7030   44.4910 N   0  0  0  0  0  0  0  0  0  0  0  0
   57.8710   30.8820   45.0260 C   0  0  0  0  0  0  0  0  0  0  0  0
   58.6840   31.0910   46.0690 N   0  0  0  0  0  0  0  0  0  0  0  0
   58.8030   32.2670   46.7030 C   0  0  0  0  0  0  0  0  0  0  0  0
   59.6730   32.5080   47.7960 N   0  0  0  0  0  0  0  0  0  0  0  0
   61.0900   32.6770   47.5470 C   0  0  0  0  0  0  0  0  0  0  0  0
   62.0220   31.8410   48.1400 C   0  0  0  0  0  0  0  0  0  0  0  0
   63.3680   32.0290   47.9030 C   0  0  0  0  0  0  0  0  0  0  0  0
   63.7960   33.0440   47.0780 C   0  0  0  0  0  0  0  0  0  0  0  0
   62.8820   33.8960   46.4700 C   0  0  0  0  0  0  0  0  0  0  0  0
   61.5430   33.7010   46.7130 C   0  0  0  0  0  0  0  0  0  0  0  0
   59.2790   32.6040   49.1490 C   0  0  0  0  0  0  0  0  0  0  0  0
   59.6950   33.6910   49.9310 C   0  0  0  0  0  0  0  0  0  0  0  0
   59.3380   33.8260   51.2520 C   0  0  0  0  0  0  0  0  0  0  0  0
   58.5430   32.8840   51.8700 C   0  0  0  0  0  0  0  0  0  0  0  0
   58.1240   31.8210   51.1410 C   0  0  0  0  0  0  0  0  0  0  0  0
   58.4870   31.6840   49.8030 C   0  0  0  0  0  0  0  0  0  0  0  0
   58.0090   33.2980   46.1990 C   0  0  0  0  0  0  0  0  0  0  0  0
   57.1640   33.0630   45.1080 C   0  0  0  0  0  0  0  0  0  0  0  0
   57.1020   31.8390   44.5230 N   0  0  0  0  0  0  0  0  0  0  0  0
   57.3130   27.6080   45.6920 C   0  0  0  0  0  0  0  0  0  0  0  0
   56.7582   23.3131   44.6830 H   0  0  0  0  0  0  0  0  0  0  0  0
   55.2422   23.8029   43.8533 H   0  0  0  0  0  0  0  0  0  0  0  0
   56.6620   24.9033   43.8533 H   0  0  0  0  0  0  0  0  0  0  0  0
   56.8830   25.2980   47.8740 H   0  0  0  0  0  0  0  0  0  0  0  0
   59.4860   25.4580   47.0898 H   0  0  0  0  0  0  0  0  0  0  0  0
   61.1257   27.0838   46.2283 H   0  0  0  0  0  0  0  0  0  0  0  0
   60.2020   30.3150   44.7210 H   0  0  0  0  0  0  0  0  0  0  0  0
   61.5150   29.0170   44.6570 H   0  0  0  0  0  0  0  0  0  0  0  0
   61.6886   31.0268   48.8002 H   0  0  0  0  0  0  0  0  0  0  0  0
   64.1042   31.3630   48.3767 H   0  0  0  0  0  0  0  0  0  0  0  0
   64.8724   33.1822   46.8981 H   0  0  0  0  0  0  0  0  0  0  0  0
   63.2219   34.7075   45.8097 H   0  0  0  0  0  0  0  0  0  0  0  0
   60.8095   34.3691   46.2380 H   0  0  0  0  0  0  0  0  0  0  0  0
   60.3295   34.4631   49.4714 H   0  0  0  0  0  0  0  0  0  0  0  0
   59.6913   34.6970   51.8234 H   0  0  0  0  0  0  0  0  0  0  0  0
   58.2565   32.9924   52.9265 H   0  0  0  0  0  0  0  0  0  0  0  0
   57.4889   31.0563   51.6121 H   0  0  0  0  0  0  0  0  0  0  0  0
   58.1273   30.8065   49.2457 H   0  0  0  0  0  0  0  0  0  0  0  0
   58.0472   34.2963   46.6595 H   0  0  0  0  0  0  0  0  0  0  0  0
   56.5410   33.8818   44.7188 H   0  0  0  0  0  0  0  0  0  0  0  0
   56.4640   31.6670   43.7020 H   0  0  0  0  0  0  0  0  0  0  0  0
   56.2345   27.7590   45.5373 H   0  0  0  0  0  0  0  0  0  0  0  0
  1  2  1  0
  2  3  2  0
  2  4  2  0
  2  5  1  0
  5  6  1  0
  6  7  2  0
  7  8  1  0
  8  9  2  0
  9 10  1  0
  9 11  1  0
 11 12  1  0
 12 13  2  0
 13 14  1  0
 14 15  2  0
 15 16  1  0
 16 17  1  0
 17 18  2  0
 18 19  1  0
 19 20  2  0
 20 21  1  0
 21 22  2  0
 16 23  1  0
 23 24  2  0
 24 25  1  0
 25 26  2  0
 26 27  1  0
 27 28  2  0
 15 29  1  0
 29 30  2  0
 30 31  1  0
 11 32  2  0
 32  6  1  0
 31 13  1  0
 22 17  1  0
 28 23  1  0
  1 33  1  0
  1 34  1  0
  1 35  1  0
  5 36  1  0
  7 37  1  0
  8 38  1  0
 10 39  1  0
 10 40  1  0
 18 41  1  0
 19 42  1  0
 20 43  1  0
 21 44  1  0
 22 45  1  0
 24 46  1  0
 25 47  1  0
 26 48  1  0
 27 49  1  0
 28 50  1  0
 29 51  1  0
 30 52  1  0
 31 53  1  0
 32 54  1  0
M  END
>  <smiles>  (36) 
CS(=O)(=O)Nc1ccc(N)c(N=c2nc(N(c3ccccc3)c3ccccc3)cc[nH]2)c1

>  <score_type>  (36) 
oracle

>  <origin>  (36) 
adg

>  <m_score__min__energy>  (36) 
-9.4900000000000002

>  <m_primary>  (36) 
energy

$$$$
36:0
     RDKit          3D

 69 75  0  0  1  0  0  0  0  0999 V2000
   66.3580   34.0040   51.4960 C   0  0  0  0  0  0  0  0  0  0  0  0
   65.0740   33.6650   50.9980 O   0  0  0  0  0  0  0  0  0  0  0  0
   64.5370   32.4500   51.3990 C   0  0  0  0  0  0  0  0  0  0  0  0
   64.4230   32.1140   52.7280 C   0  0  0  0  0  0  0  0  0  0  0  0
   63.8940   30.9140   53.1550 C   0  0  0  0  0  0  0  0  0  0  0  0
   63.4360   29.9650   52.2290 C   0  0  0  0  0  0  0  0  0  0  0  0
   62.9290   28.8070   52.7240 O   0  0  0  0  0  0  0  0  0  0  0  0
   61.5870   28.4810   53.0020 C   0  0  2  0  0  0  0  0  0  0  0  0
   60.7760   28.3190   51.7300 C   0  0  0  0  0  0  0  0  0  0  0  0
   60.5120   29.5430   50.9760 C   0  0  0  0  0  0  0  0  0  0  0  0
   60.5570   30.8980   51.3100 C   0  0  0  0  0  0  0  0  0  0  0  0
   60.2960   31.8760   50.3350 C   0  0  0  0  0  0  0  0  0  0  0  0
   60.3570   33.2110   50.6770 C   0  0  0  0  0  0  0  0  0  0  0  0
   60.1140   34.1550   49.7400 N   0  0  0  0  0  0  0  0  0  0  0  0
   59.8140   33.8030   48.4780 C   0  0  0  0  0  0  0  0  0  0  0  0
   59.7440   32.4750   48.0930 C   0  0  0  0  0  0  0  0  0  0  0  0
   59.9860   31.5270   49.0290 C   0  0  0  0  0  0  0  0  0  0  0  0
   59.9390   30.1900   48.7030 C   0  0  0  0  0  0  0  0  0  0  0  0
   59.6290   29.7540   47.4390 C   0  0  0  0  0  0  0  0  0  0  0  0
   59.5570   28.4230   47.0630 C   0  0  0  0  0  0  0  0  0  0  0  0
   59.2390   28.0180   45.7720 O   0  0  0  0  0  0  0  0  0  0  0  0
   59.4830   28.7940   44.6360 C   0  0  0  0  0  0  0  0  0  0  0  0
   59.8070   27.4530   47.9900 C   0  0  0  0  0  0  0  0  0  0  0  0
   59.7400   26.1140   47.6330 O   0  0  0  0  0  0  0  0  0  0  0  0
   60.3410   25.6830   46.4070 C   0  0  0  0  0  0  0  0  0  0  0  0
   60.1260   27.8490   49.2800 C   0  0  0  0  0  0  0  0  0  0  0  0
   60.1970   29.1940   49.6520 C   0  0  0  0  0  0  0  0  0  0  0  0
   59.4130   32.9380   46.7550 C   0  0  0  0  0  0  0  0  0  0  0  0
   59.0900   32.7620   45.4150 C   0  0  0  0  0  0  0  0  0  0  0  0
   58.8630   33.8060   44.5590 C   0  0  0  0  0  0  0  0  0  0  0  0
   58.5440   33.4880   43.2240 O   0  0  0  0  0  0  0  0  0  0  0  0
   57.8360   32.2890   43.0040 C   0  0  0  0  0  0  0  0  0  0  0  0
   58.9430   35.1150   44.9820 C   0  0  0  0  0  0  0  0  0  0  0  0
   59.2600   35.3250   46.3030 C   0  0  0  0  0  0  0  0  0  0  0  0
   59.4850   34.2760   47.1520 C   0  0  0  0  0  0  0  0  0  0  0  0
   60.7900   31.5990   52.5840 C   0  0  0  0  0  0  0  0  0  0  0  0
   60.7480   30.7750   53.7720 N   0  0  0  0  0  0  0  0  0  0  0  0
   60.9390   29.4010   53.9710 C   0  0  0  0  0  0  0  0  0  0  0  0
   60.5200   28.9450   55.0660 O   0  0  0  0  0  0  0  0  0  0  0  0
   63.5500   30.3030   50.9000 C   0  0  0  0  0  0  0  0  0  0  0  0
   64.0820   31.5070   50.4870 C   0  0  0  0  0  0  0  0  0  0  0  0
   66.3379   33.9987   52.5958 H   0  0  0  0  0  0  0  0  0  0  0  0
   67.0953   33.2697   51.1392 H   0  0  0  0  0  0  0  0  0  0  0  0
   66.6367   35.0065   51.1392 H   0  0  0  0  0  0  0  0  0  0  0  0
   64.7691   32.8344   53.4838 H   0  0  0  0  0  0  0  0  0  0  0  0
   63.8306   30.6990   54.2319 H   0  0  0  0  0  0  0  0  0  0  0  0
   61.6110   27.5033   53.5055 H   0  0  0  0  0  0  0  0  0  0  0  0
   61.3208   27.6283   51.0696 H   0  0  0  0  0  0  0  0  0  0  0  0
   59.7904   27.9520   52.0524 H   0  0  0  0  0  0  0  0  0  0  0  0
   60.6023   33.5063   51.7078 H   0  0  0  0  0  0  0  0  0  0  0  0
   59.4235   30.5145   46.6713 H   0  0  0  0  0  0  0  0  0  0  0  0
   59.8000   29.8020   44.9417 H   0  0  0  0  0  0  0  0  0  0  0  0
   60.2774   28.3261   44.0360 H   0  0  0  0  0  0  0  0  0  0  0  0
   58.5638   28.8649   44.0360 H   0  0  0  0  0  0  0  0  0  0  0  0
   61.2165   25.0551   46.6287 H   0  0  0  0  0  0  0  0  0  0  0  0
   59.6107   25.1015   45.8252 H   0  0  0  0  0  0  0  0  0  0  0  0
   60.6575   26.5612   45.8252 H   0  0  0  0  0  0  0  0  0  0  0  0
   60.3303   27.0774   50.0369 H   0  0  0  0  0  0  0  0  0  0  0  0
   59.0132   31.7367   45.0241 H   0  0  0  0  0  0  0  0  0  0  0  0
   57.5696   31.8378   43.9712 H   0  0  0  0  0  0  0  0  0  0  0  0
   56.9196   32.5035   42.4346 H   0  0  0  0  0  0  0  0  0  0  0  0
   58.4664   31.5901   42.4346 H   0  0  0  0  0  0  0  0  0  0  0  0
   58.7615   35.9538   44.2939 H   0  0  0  0  0  0  0  0  0  0  0  0
   59.3340   36.3542   46.6841 H   0  0  0  0  0  0  0  0  0  0  0  0
   61.7833   32.0690   52.5340 H   0  0  0  0  0  0  0  0  0  0  0  0
   59.9614   32.3150   52.6872 H   0  0  0  0  0  0  0  0  0  0  0  0
   60.5320   31.2930   54.6670 H   0  0  0  0  0  0  0  0  0  0  0  0
   63.2045   29.5873   50.1394 H   0  0  0  0  0  0  0  0  0  0  0  0
   64.1472   31.7249   49.4108 H   0  0  0  0  0  0  0  0  0  0  0  0
  1  2  1  0
  2  3  1  0
  3  4  2  0
  4  5  1  0
  5  6  2  0
  6  7  1  0
  7  8  1  0
  8  9  1  0
  9 10  1  0
 10 11  2  0
 11 12  1  0
 12 13  2  0
 13 14  1  0
 14 15  2  0
 15 16  1  0
 16 17  2  0
 17 18  1  0
 18 19  2  0
 19 20  1  0
 20 21  1  0
 21 22  1  0
 20 23  2  0
 23 24  1  0
 24 25  1  0
 23 26  1  0
 26 27  2  0
 16 28  1  0
 28 29  2  0
 29 30  1  0
 30 31  1  0
 31 32  1  0
 30 33  2  0
 33 34  1  0
 34 35  2  0
 11 36  1  0
 36 37  1  0
 37 38  1  0
 38 39  2  0
  6 40  1  0
 40 41  2  0
 41  3  1  0
 38  8  1  0
 27 10  1  0
 35 28  1  0
 17 12  1  0
 27 18  1  0
 35 15  1  0
  1 42  1  0
  1 43  1  0
  1 44  1  0
  4 45  1  0
  5 46  1  0
  8 47  1  1
  9 48  1  0
  9 49  1  0
 13 50  1  0
 19 51  1  0
 22 52  1  0
 22 53  1  0
 22 54  1  0
 25 55  1  0
 25 56  1  0
 25 57  1  0
 26 58  1  0
 29 59  1  0
 32 60  1  0
 32 61  1  0
 32 62  1  0
 33 63  1  0
 34 64  1  0
 36 65  1  0
 36 66  1  0
 37 67  1  0
 40 68  1  0
 41 69  1  0
M  END
>  <smiles>  (37) 
COc1ccc(OC2Cc3c(c4cnc5c(c4c4cc(OC)c(OC)cc34)-c3cc(OC)ccc3-5)CNC2=O)cc1

>  <score_type>  (37) 
oracle

>  <origin>  (37) 
adg

>  <m_score__min__energy>  (37) 
-7.1900000000000004

>  <m_primary>  (37) 
energy

$$$$
37:0
     RDKit          3D

 36 38  0  0  1  0  0  0  0  0999 V2000
   57.8010   32.7150   42.4010 C   0  0  0  0  0  0  0  0  0  0  0  0
   57.7900   31.8260   43.5470 N   0  0  0  0  0  0  0  0  0  0  0  0
   57.8050   30.5120   43.4370 N   0  0  0  0  0  0  0  0  0  0  0  0
   57.7810   29.9760   44.6620 C   0  0  0  0  0  0  0  0  0  0  0  0
   57.8050   28.2480   44.9470 S   0  0  0  0  0  0  0  0  0  0  0  0
   57.9630   27.3590   43.4760 N   0  0  0  0  0  0  0  0  0  0  0  0
   58.8470   27.8730   45.9580 O   0  0  0  0  0  0  0  0  0  0  0  0
   56.4580   27.8610   45.5520 O   0  0  0  0  0  0  0  0  0  0  0  0
   57.7500   31.0030   45.5840 C   0  0  0  0  0  0  0  0  0  0  0  0
   57.7570   32.1760   44.8560 C   0  0  0  0  0  0  0  0  0  0  0  0
   57.7320   33.3780   45.3130 N   0  0  0  0  0  0  0  0  0  0  0  0
   58.9140   34.1450   45.4400 C   0  0  0  0  0  0  0  0  0  0  0  0
   59.1340   34.9950   44.5160 O   0  0  0  0  0  0  0  0  0  0  0  0
   59.8720   34.0570   46.4990 C   0  0  0  0  0  0  0  0  0  0  0  0
   59.4820   34.4440   47.7770 C   0  0  0  0  0  0  0  0  0  0  0  0
   60.3120   34.3920   48.8350 N   0  0  0  0  0  0  0  0  0  0  0  0
   61.5730   33.9590   48.7110 C   0  0  0  0  0  0  0  0  0  0  0  0
   62.3750   33.9260   49.8210 C   0  0  0  0  0  0  0  0  0  0  0  0
   63.6830   33.4840   49.7260 C   0  0  0  0  0  0  0  0  0  0  0  0
   64.1480   33.0800   48.4840 C   0  0  0  0  0  0  0  0  0  0  0  0
   63.3400   33.1090   47.3500 C   0  0  0  0  0  0  0  0  0  0  0  0
   62.0320   33.5520   47.4500 C   0  0  0  0  0  0  0  0  0  0  0  0
   61.1710   33.6110   46.3740 C   0  0  0  0  0  0  0  0  0  0  0  0
   57.8139   33.7591   42.7470 H   0  0  0  0  0  0  0  0  0  0  0  0
   58.6968   32.5190   41.7934 H   0  0  0  0  0  0  0  0  0  0  0  0
   56.9006   32.5412   41.7934 H   0  0  0  0  0  0  0  0  0  0  0  0
   57.8310   29.9830   42.5320 H   0  0  0  0  0  0  0  0  0  0  0  0
   57.0600   26.9320   43.1800 H   0  0  0  0  0  0  0  0  0  0  0  0
   58.4190   27.8970   42.7080 H   0  0  0  0  0  0  0  0  0  0  0  0
   57.7248   30.9061   46.6794 H   0  0  0  0  0  0  0  0  0  0  0  0
   58.4547   34.8068   47.9287 H   0  0  0  0  0  0  0  0  0  0  0  0
   61.9772   34.2526   50.7932 H   0  0  0  0  0  0  0  0  0  0  0  0
   64.3354   33.4541   50.6111 H   0  0  0  0  0  0  0  0  0  0  0  0
   65.1854   32.7262   48.3915 H   0  0  0  0  0  0  0  0  0  0  0  0
   63.7393   32.7813   46.3788 H   0  0  0  0  0  0  0  0  0  0  0  0
   61.5319   33.2923   45.3850 H   0  0  0  0  0  0  0  0  0  0  0  0
  1  2  1  0
  2  3  1  0
  3  4  1  0
  4  5  1  0
  5  6  1  0
  5  7  2  0
  5  8  2  0
  4  9  2  0
  9 10  1  0
 10 11  2  0
 11 12  1  0
 12 13  2  0
 12 14  1  0
 14 15  2  0
 15 16  1  0
 16 17  2  0
 17 18  1  0
 18 19  2  0
 19 20  1  0
 20 21  2  0
 21 22  1  0
 22 23  2  0
 10  2  1  0
 23 14  1  0
 22 17  1  0
  1 24  1  0
  1 25  1  0
  1 26  1  0
  3 27  1  0
  6 28  1  0
  6 29  1  0
  9 30  1  0
 15 31  1  0
 18 32  1  0
 19 33  1  0
 20 34  1  0
 21 35  1  0
 23 36  1  0
M  END
>  <smiles>  (38) 
Cn1[nH]c(S(N)(=O)=O)cc1=NC(=O)c1cnc2ccccc2c1

>  <score_type>  (38) 
oracle

>  <origin>  (38) 
adg

>  <m_score__min__energy>  (38) 
-8.5800000000000001

>  <m_primary>  (38) 
energy

$$$$
38:0
     RDKit          3D

 41 43  0  0  0  0  0  0  0  0999 V2000
   58.1770   21.9520   44.3910 C   0  0  0  0  0  0  0  0  0  0  0  0
   56.6080   22.1740   43.6010 S   0  0  0  0  0  0  0  0  0  0  0  0
   56.2720   21.1020   42.6330 O   0  0  0  0  0  0  0  0  0  0  0  0
   55.5460   22.1590   44.7010 O   0  0  0  0  0  0  0  0  0  0  0  0
   56.6090   23.7580   42.8730 N   0  0  0  0  0  0  0  0  0  0  0  0
   57.0110   24.8280   43.7270 C   0  0  0  0  0  0  0  0  0  0  0  0
   56.6410   24.9020   45.0530 C   0  0  0  0  0  0  0  0  0  0  0  0
   57.0150   25.9920   45.8120 C   0  0  0  0  0  0  0  0  0  0  0  0
   57.7590   27.0240   45.2750 C   0  0  0  0  0  0  0  0  0  0  0  0
   58.1070   28.1810   46.0740 C   0  0  0  0  0  0  0  0  0  0  0  0
   58.6290   27.9020   47.2160 O   0  0  0  0  0  0  0  0  0  0  0  0
   57.9080   29.5220   45.6820 N   0  0  0  0  0  0  0  0  0  0  0  0
   57.4450   29.8990   44.3600 C   0  0  0  0  0  0  0  0  0  0  0  0
   56.6290   31.1960   44.4520 C   0  0  0  0  0  0  0  0  0  0  0  0
   57.5970   32.2080   44.9630 C   0  0  0  0  0  0  0  0  0  0  0  0
   57.7780   33.4470   44.4000 C   0  0  0  0  0  0  0  0  0  0  0  0
   58.6890   34.3690   44.8720 C   0  0  0  0  0  0  0  0  0  0  0  0
   59.4380   33.9820   45.9700 C   0  0  0  0  0  0  0  0  0  0  0  0
   59.2630   32.7300   46.5490 C   0  0  0  0  0  0  0  0  0  0  0  0
   58.3430   31.8270   46.0570 C   0  0  0  0  0  0  0  0  0  0  0  0
   58.1910   30.5350   46.7160 C   0  0  0  0  0  0  0  0  0  0  0  0
   58.1210   26.9340   43.9580 C   0  0  0  0  0  0  0  0  0  0  0  0
   57.7670   25.8580   43.1580 C   0  0  0  0  0  0  0  0  0  0  0  0
   58.0438   21.9709   45.4827 H   0  0  0  0  0  0  0  0  0  0  0  0
   58.6052   20.9843   44.0905 H   0  0  0  0  0  0  0  0  0  0  0  0
   58.8568   22.7629   44.0905 H   0  0  0  0  0  0  0  0  0  0  0  0
   56.3300   23.8870   41.8780 H   0  0  0  0  0  0  0  0  0  0  0  0
   56.0484   24.0932   45.5054 H   0  0  0  0  0  0  0  0  0  0  0  0
   56.7136   26.0399   46.8688 H   0  0  0  0  0  0  0  0  0  0  0  0
   58.3107   30.0569   43.6999 H   0  0  0  0  0  0  0  0  0  0  0  0
   56.8126   29.0971   43.9514 H   0  0  0  0  0  0  0  0  0  0  0  0
   56.2479   31.4871   43.4620 H   0  0  0  0  0  0  0  0  0  0  0  0
   55.7485   31.0920   45.1031 H   0  0  0  0  0  0  0  0  0  0  0  0
   57.1651   33.7184   43.5278 H   0  0  0  0  0  0  0  0  0  0  0  0
   58.8133   35.3560   44.4025 H   0  0  0  0  0  0  0  0  0  0  0  0
   60.1820   34.6747   46.3903 H   0  0  0  0  0  0  0  0  0  0  0  0
   59.8733   32.4525   47.4211 H   0  0  0  0  0  0  0  0  0  0  0  0
   59.1189   30.2762   47.2471 H   0  0  0  0  0  0  0  0  0  0  0  0
   57.3684   30.5743   47.4453 H   0  0  0  0  0  0  0  0  0  0  0  0
   58.7161   27.7472   43.5169 H   0  0  0  0  0  0  0  0  0  0  0  0
   58.0731   25.8156   42.1023 H   0  0  0  0  0  0  0  0  0  0  0  0
  1  2  1  0
  2  3  2  0
  2  4  2  0
  2  5  1  0
  5  6  1  0
  6  7  2  0
  7  8  1  0
  8  9  2  0
  9 10  1  0
 10 11  2  0
 10 12  1  0
 12 13  1  0
 13 14  1  0
 14 15  1  0
 15 16  2  0
 16 17  1  0
 17 18  2  0
 18 19  1  0
 19 20  2  0
 20 21  1  0
  9 22  1  0
 22 23  2  0
 23  6  1  0
 21 12  1  0
 20 15  1  0
  1 24  1  0
  1 25  1  0
  1 26  1  0
  5 27  1  0
  7 28  1  0
  8 29  1  0
 13 30  1  0
 13 31  1  0
 14 32  1  0
 14 33  1  0
 16 34  1  0
 17 35  1  0
 18 36  1  0
 19 37  1  0
 21 38  1  0
 21 39  1  0
 22 40  1  0
 23 41  1  0
M  END
>  <smiles>  (39) 
CS(=O)(=O)Nc1ccc(C(=O)N2CCc3ccccc3C2)cc1

>  <score_type>  (39) 
oracle

>  <origin>  (39) 
adg

>  <m_score__min__energy>  (39) 
-8.3900000000000006

>  <m_primary>  (39) 
energy

$$$$
39:0
     RDKit          3D

 54 56  0  0  1  0  0  0  0  0999 V2000
   56.7870   34.4130   44.9330 C   0  0  0  0  0  0  0  0  0  0  0  0
   57.1330   33.5100   45.9480 O   0  0  0  0  0  0  0  0  0  0  0  0
   58.4400   33.2840   46.2760 C   0  0  0  0  0  0  0  0  0  0  0  0
   59.1130   34.3320   46.9100 C   0  0  0  0  0  0  0  0  0  0  0  0
   60.4250   34.2130   47.2810 C   0  0  0  0  0  0  0  0  0  0  0  0
   61.0520   33.0210   47.0070 C   0  0  0  0  0  0  0  0  0  0  0  0
   62.7200   32.8530   47.4720 S   0  0  0  0  0  0  0  0  0  0  0  0
   63.0130   33.7100   49.0100 C   0  0  0  0  0  0  0  0  0  0  0  0
   63.5950   33.5080   46.4360 O   0  0  0  0  0  0  0  0  0  0  0  0
   63.1170   31.4150   47.6630 O   0  0  0  0  0  0  0  0  0  0  0  0
   60.3790   31.9700   46.3710 C   0  0  0  0  0  0  0  0  0  0  0  0
   59.0490   32.0820   45.9910 C   0  0  0  0  0  0  0  0  0  0  0  0
   58.3980   30.9610   45.3370 C   0  0  0  0  0  0  0  0  0  0  0  0
   59.0450   29.7280   45.2770 C   0  0  0  0  0  0  0  0  0  0  0  0
   58.4380   28.6280   44.6500 C   0  0  0  0  0  0  0  0  0  0  0  0
   59.0540   27.4950   44.6060 N   0  0  0  0  0  0  0  0  0  0  0  0
   58.4890   26.3030   45.2480 C   0  0  0  0  0  0  0  0  0  0  0  0
   57.8890   26.7960   46.5670 C   0  0  0  0  0  0  0  0  0  0  0  0
   58.9670   27.2640   47.4830 C   0  0  0  0  0  0  0  0  0  0  0  0
   58.7200   28.4460   48.1340 O   0  0  0  0  0  0  0  0  0  0  0  0
   59.4790   29.3170   48.8200 C   0  0  0  0  0  0  0  0  0  0  0  0
   60.7720   29.1470   49.2580 C   0  0  0  0  0  0  0  0  0  0  0  0
   61.4560   30.1180   49.9610 C   0  0  0  0  0  0  0  0  0  0  0  0
   60.8610   31.3140   50.2550 C   0  0  0  0  0  0  0  0  0  0  0  0
   59.5660   31.5250   49.8320 C   0  0  0  0  0  0  0  0  0  0  0  0
   58.9040   30.5590   49.1410 C   0  0  0  0  0  0  0  0  0  0  0  0
   57.2280   28.7270   44.0920 N   0  0  0  0  0  0  0  0  0  0  0  0
   56.6180   29.9170   44.1570 C   0  0  0  0  0  0  0  0  0  0  0  0
   55.4460   30.0020   43.6150 N   0  0  0  0  0  0  0  0  0  0  0  0
   57.1890   31.0030   44.7630 N   0  0  0  0  0  0  0  0  0  0  0  0
   56.4278   35.3503   45.3829 H   0  0  0  0  0  0  0  0  0  0  0  0
   57.6695   34.6200   44.3098 H   0  0  0  0  0  0  0  0  0  0  0  0
   55.9921   33.9772   44.3098 H   0  0  0  0  0  0  0  0  0  0  0  0
   58.5777   35.2709   47.1148 H   0  0  0  0  0  0  0  0  0  0  0  0
   60.9562   35.0379   47.7783 H   0  0  0  0  0  0  0  0  0  0  0  0
   62.7841   33.0405   49.8522 H   0  0  0  0  0  0  0  0  0  0  0  0
   64.0676   34.0183   49.0628 H   0  0  0  0  0  0  0  0  0  0  0  0
   62.3679   34.5994   49.0628 H   0  0  0  0  0  0  0  0  0  0  0  0
   60.9179   31.0329   46.1678 H   0  0  0  0  0  0  0  0  0  0  0  0
   60.0428   29.6153   45.7261 H   0  0  0  0  0  0  0  0  0  0  0  0
   57.7088   25.8575   44.6133 H   0  0  0  0  0  0  0  0  0  0  0  0
   59.2510   25.5266   45.4107 H   0  0  0  0  0  0  0  0  0  0  0  0
   57.1994   27.6284   46.3632 H   0  0  0  0  0  0  0  0  0  0  0  0
   57.3478   25.9666   47.0458 H   0  0  0  0  0  0  0  0  0  0  0  0
   59.1263   26.4856   48.2437 H   0  0  0  0  0  0  0  0  0  0  0  0
   59.8442   27.4491   46.8456 H   0  0  0  0  0  0  0  0  0  0  0  0
   61.2821   28.1974   49.0387 H   0  0  0  0  0  0  0  0  0  0  0  0
   62.4891   29.9283   50.2878 H   0  0  0  0  0  0  0  0  0  0  0  0
   61.4032   32.0895   50.8159 H   0  0  0  0  0  0  0  0  0  0  0  0
   59.0660   32.4792   50.0545 H   0  0  0  0  0  0  0  0  0  0  0  0
   57.8714   30.7585   48.8185 H   0  0  0  0  0  0  0  0  0  0  0  0
   56.8040   27.8920   43.6350 H   0  0  0  0  0  0  0  0  0  0  0  0
   55.2260   29.7020   42.6510 H   0  0  0  0  0  0  0  0  0  0  0  0
   56.6190   31.8490   44.7430 H   0  0  0  0  0  0  0  0  0  0  0  0
  1  2  1  0
  2  3  1  0
  3  4  2  0
  4  5  1  0
  5  6  2  0
  6  7  1  0
  7  8  1  0
  7  9  2  0
  7 10  2  0
  6 11  1  0
 11 12  2  0
 12 13  1  0
 13 14  2  0
 14 15  1  0
 15 16  2  0
 16 17  1  0
 17 18  1  0
 18 19  1  0
 19 20  1  0
 20 21  1  0
 21 22  2  0
 22 23  1  0
 23 24  2  0
 24 25  1  0
 25 26  2  0
 15 27  1  0
 27 28  1  0
 28 29  2  3
 28 30  1  0
 12  3  1  0
 30 13  1  0
 26 21  1  0
  1 31  1  0
  1 32  1  0
  1 33  1  0
  4 34  1  0
  5 35  1  0
  8 36  1  0
  8 37  1  0
  8 38  1  0
 11 39  1  0
 14 40  1  0
 17 41  1  0
 17 42  1  0
 18 43  1  0
 18 44  1  0
 19 45  1  0
 19 46  1  0
 22 47  1  0
 23 48  1  0
 24 49  1  0
 25 50  1  0
 26 51  1  0
 27 52  1  0
 29 53  1  0
 30 54  1  0
M  END
>  <smiles>  (40) 
COc1ccc(S(C)(=O)=O)cc1-c1cc(=NCCCOc2ccccc2)[nH]c(=N)[nH]1

>  <score_type>  (40) 
oracle

>  <origin>  (40) 
adg

>  <m_score__min__energy>  (40) 
-8.1600000000000001

>  <m_primary>  (40) 
energy

$$$$
40:0
     RDKit          3D

 47 50  0  0  1  0  0  0  0  0999 V2000
   58.6230   34.6170   53.0110 C   0  0  0  0  0  0  0  0  0  0  0  0
   58.3680   33.3460   52.4350 O   0  0  0  0  0  0  0  0  0  0  0  0
   59.1060   32.9600   51.3370 C   0  0  0  0  0  0  0  0  0  0  0  0
   60.3910   33.3910   51.0800 C   0  0  0  0  0  0  0  0  0  0  0  0
   61.0910   32.9720   49.9560 C   0  0  0  0  0  0  0  0  0  0  0  0
   60.5170   32.1000   49.0470 C   0  0  0  0  0  0  0  0  0  0  0  0
   61.2370   31.6430   47.8540 C   0  0  0  0  0  0  0  0  0  0  0  0
   61.6250   32.4640   47.0150 O   0  0  0  0  0  0  0  0  0  0  0  0
   61.4790   30.2590   47.6820 N   0  0  0  0  0  0  0  0  0  0  0  0
   60.6200   29.6880   46.7800 C   0  0  0  0  0  0  0  0  0  0  0  0
   60.7760   29.3080   45.5300 N   0  0  0  0  0  0  0  0  0  0  0  0
   59.6890   28.7920   44.9950 N   0  0  0  0  0  0  0  0  0  0  0  0
   58.6500   28.6240   45.4360 C   0  0  0  0  0  0  0  0  0  0  0  0
   56.9410   28.0290   45.2350 S   0  0  0  0  0  0  0  0  0  0  0  0
   55.9530   29.3670   44.4790 C   0  0  0  0  0  0  0  0  0  0  0  0
   56.7430   30.5880   44.2470 C   0  0  0  0  0  0  0  0  0  0  0  0
   57.1150   31.0680   43.0190 C   0  0  0  0  0  0  0  0  0  0  0  0
   57.8690   32.2370   42.9650 C   0  0  0  0  0  0  0  0  0  0  0  0
   58.2270   32.7030   41.8560 O   0  0  0  0  0  0  0  0  0  0  0  0
   58.2380   32.9100   44.1330 C   0  0  0  0  0  0  0  0  0  0  0  0
   58.9780   34.0590   44.1340 C   0  0  0  0  0  0  0  0  0  0  0  0
   59.3150   34.6780   45.3430 C   0  0  0  0  0  0  0  0  0  0  0  0
   58.8990   34.1270   46.5460 C   0  0  0  0  0  0  0  0  0  0  0  0
   59.2720   34.7920   47.8220 C   0  0  0  0  0  0  0  0  0  0  0  0
   58.1540   32.9700   46.5270 C   0  0  0  0  0  0  0  0  0  0  0  0
   57.8170   32.3500   45.3200 C   0  0  0  0  0  0  0  0  0  0  0  0
   57.1130   31.2560   45.3380 O   0  0  0  0  0  0  0  0  0  0  0  0
   58.8720   29.3080   47.2380 S   0  0  0  0  0  0  0  0  0  0  0  0
   59.2260   31.6830   49.3330 C   0  0  0  0  0  0  0  0  0  0  0  0
   58.5290   32.0900   50.4360 C   0  0  0  0  0  0  0  0  0  0  0  0
   58.6061   34.5326   54.1076 H   0  0  0  0  0  0  0  0  0  0  0  0
   59.6109   34.9753   52.6860 H   0  0  0  0  0  0  0  0  0  0  0  0
   57.8497   35.3287   52.6860 H   0  0  0  0  0  0  0  0  0  0  0  0
   60.8740   34.0848   51.7838 H   0  0  0  0  0  0  0  0  0  0  0  0
   62.1144   33.3377   49.7860 H   0  0  0  0  0  0  0  0  0  0  0  0
   61.6790   29.4060   45.0060 H   0  0  0  0  0  0  0  0  0  0  0  0
   55.5588   29.0132   43.5149 H   0  0  0  0  0  0  0  0  0  0  0  0
   55.1425   29.6206   45.1782 H   0  0  0  0  0  0  0  0  0  0  0  0
   56.8248   30.5422   42.0974 H   0  0  0  0  0  0  0  0  0  0  0  0
   59.3097   34.4985   43.1817 H   0  0  0  0  0  0  0  0  0  0  0  0
   59.9106   35.6028   45.3393 H   0  0  0  0  0  0  0  0  0  0  0  0
   58.9285   34.1796   48.6687 H   0  0  0  0  0  0  0  0  0  0  0  0
   60.3651   34.9049   47.8708 H   0  0  0  0  0  0  0  0  0  0  0  0
   58.7984   35.7836   47.8708 H   0  0  0  0  0  0  0  0  0  0  0  0
   57.8185   32.5262   47.4760 H   0  0  0  0  0  0  0  0  0  0  0  0
   58.7367   30.9876   48.6351 H   0  0  0  0  0  0  0  0  0  0  0  0
   57.5060   31.7229   50.6053 H   0  0  0  0  0  0  0  0  0  0  0  0
  1  2  1  0
  2  3  1  0
  3  4  2  0
  4  5  1  0
  5  6  2  0
  6  7  1  0
  7  8  2  0
  7  9  1  0
  9 10  2  0
 10 11  1  0
 11 12  1  0
 12 13  2  0
 13 14  1  0
 14 15  1  0
 15 16  1  0
 16 17  2  0
 17 18  1  0
 18 19  2  0
 18 20  1  0
 20 21  2  0
 21 22  1  0
 22 23  2  0
 23 24  1  0
 23 25  1  0
 25 26  2  0
 26 27  1  0
 13 28  1  0
  6 29  1  0
 29 30  2  0
 30  3  1  0
 28 10  1  0
 27 16  1  0
 26 20  1  0
  1 31  1  0
  1 32  1  0
  1 33  1  0
  4 34  1  0
  5 35  1  0
 11 36  1  0
 15 37  1  0
 15 38  1  0
 17 39  1  0
 21 40  1  0
 22 41  1  0
 24 42  1  0
 24 43  1  0
 24 44  1  0
 25 45  1  0
 29 46  1  0
 30 47  1  0
M  END
>  <smiles>  (41) 
COc1ccc(C(=O)N=c2[nH]nc(SCc3cc(=O)c4ccc(C)cc4o3)s2)cc1

>  <score_type>  (41) 
oracle

>  <origin>  (41) 
adg

>  <m_score__min__energy>  (41) 
-9.6999999999999993

>  <m_primary>  (41) 
energy

$$$$
41:0
     RDKit          3D

 50 53  0  0  0  0  0  0  0  0999 V2000
   57.5280   32.8390   45.2910 O   0  0  0  0  0  0  0  0  0  0  0  0
   58.6980   32.7700   45.7900 C   0  0  0  0  0  0  0  0  0  0  0  0
   59.3610   34.0730   46.0050 C   0  0  0  0  0  0  0  0  0  0  0  0
   60.0560   34.1640   47.2500 N   0  0  0  0  0  0  0  0  0  0  0  0
   59.5780   34.6020   48.5680 C   0  0  0  0  0  0  0  0  0  0  0  0
   60.2630   33.6160   49.5220 C   0  0  0  0  0  0  0  0  0  0  0  0
   61.5980   33.4840   48.8340 C   0  0  0  0  0  0  0  0  0  0  0  0
   62.8210   33.1110   49.3370 C   0  0  0  0  0  0  0  0  0  0  0  0
   63.9020   33.0760   48.4800 C   0  0  0  0  0  0  0  0  0  0  0  0
   65.1080   32.7050   48.9890 F   0  0  0  0  0  0  0  0  0  0  0  0
   63.7770   33.4060   47.1330 C   0  0  0  0  0  0  0  0  0  0  0  0
   62.5380   33.7770   46.6540 C   0  0  0  0  0  0  0  0  0  0  0  0
   61.4250   33.8240   47.4860 C   0  0  0  0  0  0  0  0  0  0  0  0
   59.2280   31.5050   46.0820 N   0  0  0  0  0  0  0  0  0  0  0  0
   58.6220   30.2490   45.8890 C   0  0  0  0  0  0  0  0  0  0  0  0
   57.7510   29.9140   44.8880 C   0  0  0  0  0  0  0  0  0  0  0  0
   57.1890   28.6370   44.7690 C   0  0  0  0  0  0  0  0  0  0  0  0
   57.4980   27.6430   45.6710 C   0  0  0  0  0  0  0  0  0  0  0  0
   56.8310   26.0320   45.5930 S   0  0  0  0  0  0  0  0  0  0  0  0
   55.3720   26.0240   46.0000 O   0  0  0  0  0  0  0  0  0  0  0  0
   57.5200   25.1520   46.6270 O   0  0  0  0  0  0  0  0  0  0  0  0
   57.0340   25.2690   44.0850 N   0  0  0  0  0  0  0  0  0  0  0  0
   57.2230   23.8720   43.9220 C   0  0  0  0  0  0  0  0  0  0  0  0
   58.2200   23.2610   44.6560 C   0  0  0  0  0  0  0  0  0  0  0  0
   58.4400   21.8920   44.5250 C   0  0  0  0  0  0  0  0  0  0  0  0
   57.6640   21.1390   43.6610 C   0  0  0  0  0  0  0  0  0  0  0  0
   56.6610   21.7410   42.9190 C   0  0  0  0  0  0  0  0  0  0  0  0
   56.4590   23.1080   43.0660 C   0  0  0  0  0  0  0  0  0  0  0  0
   58.3730   27.9640   46.6850 C   0  0  0  0  0  0  0  0  0  0  0  0
   58.9210   29.2240   46.7950 C   0  0  0  0  0  0  0  0  0  0  0  0
   60.0834   34.2338   45.1912 H   0  0  0  0  0  0  0  0  0  0  0  0
   58.5705   34.8378   46.0209 H   0  0  0  0  0  0  0  0  0  0  0  0
   59.8873   35.6365   48.7781 H   0  0  0  0  0  0  0  0  0  0  0  0
   58.4815   34.6028   48.6557 H   0  0  0  0  0  0  0  0  0  0  0  0
   60.3639   34.0302   50.5360 H   0  0  0  0  0  0  0  0  0  0  0  0
   59.7245   32.6701   49.6810 H   0  0  0  0  0  0  0  0  0  0  0  0
   62.9358   32.8463   50.3985 H   0  0  0  0  0  0  0  0  0  0  0  0
   64.6495   33.3715   46.4640 H   0  0  0  0  0  0  0  0  0  0  0  0
   62.4281   34.0412   45.5919 H   0  0  0  0  0  0  0  0  0  0  0  0
   60.1910   31.4950   46.5130 H   0  0  0  0  0  0  0  0  0  0  0  0
   57.4811   30.6798   44.1459 H   0  0  0  0  0  0  0  0  0  0  0  0
   56.4920   28.4250   43.9448 H   0  0  0  0  0  0  0  0  0  0  0  0
   57.0210   25.8490   43.2040 H   0  0  0  0  0  0  0  0  0  0  0  0
   58.8400   23.8549   45.3436 H   0  0  0  0  0  0  0  0  0  0  0  0
   59.2344   21.4068   45.1111 H   0  0  0  0  0  0  0  0  0  0  0  0
   57.8444   20.0583   43.5632 H   0  0  0  0  0  0  0  0  0  0  0  0
   56.0391   21.1509   42.2297 H   0  0  0  0  0  0  0  0  0  0  0  0
   55.6650   23.5954   42.4813 H   0  0  0  0  0  0  0  0  0  0  0  0
   58.6412   27.1959   47.4254 H   0  0  0  0  0  0  0  0  0  0  0  0
   59.6162   29.4312   47.6219 H   0  0  0  0  0  0  0  0  0  0  0  0
  1  2  2  0
  2  3  1  0
  3  4  1  0
  4  5  1  0
  5  6  1  0
  6  7  1  0
  7  8  2  0
  8  9  1  0
  9 10  1  0
  9 11  2  0
 11 12  1  0
 12 13  2  0
  2 14  1  0
 14 15  1  0
 15 16  2  0
 16 17  1  0
 17 18  2  0
 18 19  1  0
 19 20  2  0
 19 21  2  0
 19 22  1  0
 22 23  1  0
 23 24  2  0
 24 25  1  0
 25 26  2  0
 26 27  1  0
 27 28  2  0
 18 29  1  0
 29 30  2  0
 13  4  1  0
 30 15  1  0
 13  7  1  0
 28 23  1  0
  3 31  1  0
  3 32  1  0
  5 33  1  0
  5 34  1  0
  6 35  1  0
  6 36  1  0
  8 37  1  0
 11 38  1  0
 12 39  1  0
 14 40  1  0
 16 41  1  0
 17 42  1  0
 22 43  1  0
 24 44  1  0
 25 45  1  0
 26 46  1  0
 27 47  1  0
 28 48  1  0
 29 49  1  0
 30 50  1  0
M  END
>  <smiles>  (42) 
O=C(CN1CCc2cc(F)ccc21)Nc1ccc(S(=O)(=O)Nc2ccccc2)cc1

>  <score_type>  (42) 
oracle

>  <origin>  (42) 
adg

>  <m_score__min__energy>  (42) 
-9.8000000000000007

>  <m_primary>  (42) 
energy

$$$$
42:0
     RDKit          3D

 37 40  0  0  1  0  0  0  0  0999 V2000
   56.7280   21.2090   42.5770 F   0  0  0  0  0  0  0  0  0  0  0  0
   56.5210   22.2200   43.4540 C   0  0  0  0  0  0  0  0  0  0  0  0
   55.9600   21.9850   44.7090 C   0  0  0  0  0  0  0  0  0  0  0  0
   55.7430   22.9980   45.6150 C   0  0  0  0  0  0  0  0  0  0  0  0
   56.0760   24.3060   45.3120 C   0  0  0  0  0  0  0  0  0  0  0  0
   55.8700   25.3860   46.2140 N   0  0  0  0  0  0  0  0  0  0  0  0
   56.6470   26.3990   46.1590 C   0  0  0  0  0  0  0  0  0  0  0  0
   56.1400   27.5410   45.6080 N   0  0  0  0  0  0  0  0  0  0  0  0
   56.8730   28.6440   45.5090 C   0  0  0  0  0  0  0  0  0  0  0  0
   56.3850   29.6840   44.9970 N   0  0  0  0  0  0  0  0  0  0  0  0
   56.8890   30.5710   44.0750 C   0  0  0  0  0  0  0  0  0  0  0  0
   57.6290   31.6920   44.4900 C   0  0  0  0  0  0  0  0  0  0  0  0
   58.0630   32.5660   43.5070 C   0  0  0  0  0  0  0  0  0  0  0  0
   57.7750   32.3380   42.1800 C   0  0  0  0  0  0  0  0  0  0  0  0
   57.0650   31.2580   41.7980 N   0  0  0  0  0  0  0  0  0  0  0  0
   56.6170   30.3730   42.7120 C   0  0  0  0  0  0  0  0  0  0  0  0
   58.1570   28.6650   45.9560 C   0  0  0  0  0  0  0  0  0  0  0  0
   59.1240   29.6220   45.9860 C   0  0  0  0  0  0  0  0  0  0  0  0
   60.2280   28.9990   46.5780 C   0  0  0  0  0  0  0  0  0  0  0  0
   59.9350   27.7290   46.8880 N   0  0  0  0  0  0  0  0  0  0  0  0
   58.6640   27.5100   46.5100 C   0  0  0  0  0  0  0  0  0  0  0  0
   57.9140   26.3830   46.6130 N   0  0  0  0  0  0  0  0  0  0  0  0
   56.6380   24.5520   44.0570 C   0  0  0  0  0  0  0  0  0  0  0  0
   56.8570   23.5320   43.1470 C   0  0  0  0  0  0  0  0  0  0  0  0
   55.6820   20.9568   44.9836 H   0  0  0  0  0  0  0  0  0  0  0  0
   55.2986   22.7643   46.5937 H   0  0  0  0  0  0  0  0  0  0  0  0
   55.1480   27.5370   45.2590 H   0  0  0  0  0  0  0  0  0  0  0  0
   57.8542   31.8679   45.5522 H   0  0  0  0  0  0  0  0  0  0  0  0
   58.6459   33.4547   43.7905 H   0  0  0  0  0  0  0  0  0  0  0  0
   58.1302   33.0488   41.4193 H   0  0  0  0  0  0  0  0  0  0  0  0
   56.0380   29.4952   42.3891 H   0  0  0  0  0  0  0  0  0  0  0  0
   59.0532   30.6583   45.6241 H   0  0  0  0  0  0  0  0  0  0  0  0
   61.1984   29.4830   46.7626 H   0  0  0  0  0  0  0  0  0  0  0  0
   60.6040   27.0550   47.3440 H   0  0  0  0  0  0  0  0  0  0  0  0
   58.2860   25.5020   47.0310 H   0  0  0  0  0  0  0  0  0  0  0  0
   56.9133   25.5817   43.7851 H   0  0  0  0  0  0  0  0  0  0  0  0
   57.3028   23.7637   42.1684 H   0  0  0  0  0  0  0  0  0  0  0  0
  1  2  1  0
  2  3  2  0
  3  4  1  0
  4  5  2  0
  5  6  1  0
  6  7  2  0
  7  8  1  0
  8  9  1  0
  9 10  2  0
 10 11  1  0
 11 12  2  0
 12 13  1  0
 13 14  2  0
 14 15  1  0
 15 16  2  0
  9 17  1  0
 17 18  1  0
 18 19  2  0
 19 20  1  0
 20 21  1  0
 21 22  1  0
  5 23  1  0
 23 24  2  0
 24  2  1  0
 22  7  1  0
 16 11  1  0
 21 17  2  0
  3 25  1  0
  4 26  1  0
  8 27  1  0
 12 28  1  0
 13 29  1  0
 14 30  1  0
 16 31  1  0
 18 32  1  0
 19 33  1  0
 20 34  1  0
 22 35  1  0
 23 36  1  0
 24 37  1  0
M  END
>  <smiles>  (43) 
Fc1ccc(N=c2[nH]c(=Nc3cccnc3)c3cc[nH]c3[nH]2)cc1

>  <score_type>  (43) 
oracle

>  <origin>  (43) 
adg

>  <m_score__min__energy>  (43) 
-7.6900000000000004

>  <m_primary>  (43) 
energy

$$$$
43:0
     RDKit          3D

 50 52  0  0  0  0  0  0  0  0999 V2000
   59.5200   21.8410   45.1240 N   0  0  0  0  0  0  0  0  0  0  0  0
   58.5500   22.7540   45.5990 C   0  0  0  0  0  0  0  0  0  0  0  0
   57.6380   22.2910   46.3540 O   0  0  0  0  0  0  0  0  0  0  0  0
   58.5470   24.1550   45.2710 C   0  0  0  0  0  0  0  0  0  0  0  0
   59.2810   25.0890   45.9810 C   0  0  0  0  0  0  0  0  0  0  0  0
   59.2490   26.4440   45.6350 C   0  0  0  0  0  0  0  0  0  0  0  0
   58.4990   26.9160   44.5850 C   0  0  0  0  0  0  0  0  0  0  0  0
   58.4180   28.2610   44.1780 N   0  0  0  0  0  0  0  0  0  0  0  0
   57.3320   29.1340   44.3230 C   0  0  0  0  0  0  0  0  0  0  0  0
   56.2650   28.7560   44.8830 O   0  0  0  0  0  0  0  0  0  0  0  0
   57.3190   30.5560   43.8510 C   0  0  0  0  0  0  0  0  0  0  0  0
   57.0530   31.4190   44.9700 N   0  0  0  0  0  0  0  0  0  0  0  0
   58.0210   31.1260   45.9870 C   0  0  0  0  0  0  0  0  0  0  0  0
   59.2240   32.0360   45.9520 C   0  0  0  0  0  0  0  0  0  0  0  0
   58.9920   33.4040   45.7010 N   0  0  0  0  0  0  0  0  0  0  0  0
   59.7930   34.3800   46.8640 S   0  0  0  0  0  0  0  0  0  0  0  0
   59.0170   34.4200   48.1310 O   0  0  0  0  0  0  0  0  0  0  0  0
   60.0220   35.7440   46.3090 O   0  0  0  0  0  0  0  0  0  0  0  0
   61.3470   33.6230   47.1980 C   0  0  0  0  0  0  0  0  0  0  0  0
   62.4560   33.8350   46.4140 C   0  0  0  0  0  0  0  0  0  0  0  0
   63.6310   33.2020   46.7590 C   0  0  0  0  0  0  0  0  0  0  0  0
   63.7220   32.3690   47.8550 C   0  0  0  0  0  0  0  0  0  0  0  0
   62.5700   32.1830   48.6240 C   0  0  0  0  0  0  0  0  0  0  0  0
   61.3810   32.7920   48.3180 C   0  0  0  0  0  0  0  0  0  0  0  0
   60.2940   32.5810   49.0920 F   0  0  0  0  0  0  0  0  0  0  0  0
   57.5760   33.6610   45.6690 C   0  0  0  0  0  0  0  0  0  0  0  0
   57.0330   32.7720   44.5400 C   0  0  0  0  0  0  0  0  0  0  0  0
   57.7710   25.9650   43.8880 C   0  0  0  0  0  0  0  0  0  0  0  0
   57.7960   24.6250   44.2230 C   0  0  0  0  0  0  0  0  0  0  0  0
   59.5000   20.8270   45.3650 H   0  0  0  0  0  0  0  0  0  0  0  0
   60.3200   22.1320   44.5000 H   0  0  0  0  0  0  0  0  0  0  0  0
   59.8987   24.7610   46.8300 H   0  0  0  0  0  0  0  0  0  0  0  0
   59.8451   27.1565   46.2241 H   0  0  0  0  0  0  0  0  0  0  0  0
   59.2870   28.6650   43.7250 H   0  0  0  0  0  0  0  0  0  0  0  0
   58.2967   30.8086   43.4148 H   0  0  0  0  0  0  0  0  0  0  0  0
   56.5381   30.6867   43.0874 H   0  0  0  0  0  0  0  0  0  0  0  0
   57.5360   31.2274   46.9691 H   0  0  0  0  0  0  0  0  0  0  0  0
   58.3830   30.1034   45.8045 H   0  0  0  0  0  0  0  0  0  0  0  0
   59.7250   31.9593   46.9283 H   0  0  0  0  0  0  0  0  0  0  0  0
   59.8172   31.6876   45.0937 H   0  0  0  0  0  0  0  0  0  0  0  0
   62.4071   34.4929   45.5338 H   0  0  0  0  0  0  0  0  0  0  0  0
   64.5254   33.3665   46.1401 H   0  0  0  0  0  0  0  0  0  0  0  0
   64.6671   31.8693   48.1142 H   0  0  0  0  0  0  0  0  0  0  0  0
   62.6192   31.5256   49.5046 H   0  0  0  0  0  0  0  0  0  0  0  0
   57.1128   33.3912   46.6296 H   0  0  0  0  0  0  0  0  0  0  0  0
   57.3541   34.7248   45.4987 H   0  0  0  0  0  0  0  0  0  0  0  0
   56.0010   33.0682   44.3007 H   0  0  0  0  0  0  0  0  0  0  0  0
   57.6577   32.8869   43.6419 H   0  0  0  0  0  0  0  0  0  0  0  0
   57.1516   26.2883   43.0384 H   0  0  0  0  0  0  0  0  0  0  0  0
   57.1974   23.9151   43.6334 H   0  0  0  0  0  0  0  0  0  0  0  0
  1  2  1  0
  2  3  2  0
  2  4  1  0
  4  5  2  0
  5  6  1  0
  6  7  2  0
  7  8  1  0
  8  9  1  0
  9 10  2  0
  9 11  1  0
 11 12  1  0
 12 13  1  0
 13 14  1  0
 14 15  1  0
 15 16  1  0
 16 17  2  0
 16 18  2  0
 16 19  1  0
 19 20  2  0
 20 21  1  0
 21 22  2  0
 22 23  1  0
 23 24  2  0
 24 25  1  0
 15 26  1  0
 26 27  1  0
  7 28  1  0
 28 29  2  0
 29  4  1  0
 27 12  1  0
 24 19  1  0
  1 30  1  0
  1 31  1  0
  5 32  1  0
  6 33  1  0
  8 34  1  0
 11 35  1  0
 11 36  1  0
 13 37  1  0
 13 38  1  0
 14 39  1  0
 14 40  1  0
 20 41  1  0
 21 42  1  0
 22 43  1  0
 23 44  1  0
 26 45  1  0
 26 46  1  0
 27 47  1  0
 27 48  1  0
 28 49  1  0
 29 50  1  0
M  END
>  <smiles>  (44) 
NC(=O)c1ccc(NC(=O)CN2CCN(S(=O)(=O)c3ccccc3F)CC2)cc1

>  <score_type>  (44) 
oracle

>  <origin>  (44) 
adg

>  <m_score__min__energy>  (44) 
-10.109999999999999

>  <m_primary>  (44) 
energy

$$$$
44:0
     RDKit          3D

 31 32  0  0  0  0  0  0  0  0999 V2000
   58.8900   25.4110   46.7530 C   0  0  0  0  0  0  0  0  0  0  0  0
   58.6620   26.6720   45.9850 C   0  0  0  0  0  0  0  0  0  0  0  0
   59.7410   27.4680   45.5990 C   0  0  0  0  0  0  0  0  0  0  0  0
   59.4820   28.6330   44.8850 C   0  0  0  0  0  0  0  0  0  0  0  0
   60.4910   29.3350   44.5480 O   0  0  0  0  0  0  0  0  0  0  0  0
   58.2340   29.0170   44.5580 N   0  0  0  0  0  0  0  0  0  0  0  0
   58.0560   30.2470   43.8110 C   0  0  0  0  0  0  0  0  0  0  0  0
   57.2040   31.2100   44.5500 C   0  0  0  0  0  0  0  0  0  0  0  0
   55.9580   31.0750   44.6620 O   0  0  0  0  0  0  0  0  0  0  0  0
   57.8340   32.3580   45.1710 C   0  0  0  0  0  0  0  0  0  0  0  0
   58.1220   33.4510   44.3840 C   0  0  0  0  0  0  0  0  0  0  0  0
   58.7230   34.5950   44.8860 C   0  0  0  0  0  0  0  0  0  0  0  0
   59.0310   34.6080   46.2260 C   0  0  0  0  0  0  0  0  0  0  0  0
   59.6250   35.7130   46.7680 F   0  0  0  0  0  0  0  0  0  0  0  0
   58.7530   33.5180   47.0500 C   0  0  0  0  0  0  0  0  0  0  0  0
   58.1510   32.3910   46.5120 C   0  0  0  0  0  0  0  0  0  0  0  0
   57.1770   28.2650   44.9190 C   0  0  0  0  0  0  0  0  0  0  0  0
   57.3740   27.0880   45.6350 C   0  0  0  0  0  0  0  0  0  0  0  0
   56.2290   26.2920   46.0160 C   0  0  0  0  0  0  0  0  0  0  0  0
   55.2890   25.6440   46.3070 N   0  0  0  0  0  0  0  0  0  0  0  0
   58.8511   25.6261   47.8311 H   0  0  0  0  0  0  0  0  0  0  0  0
   58.1096   24.6794   46.4967 H   0  0  0  0  0  0  0  0  0  0  0  0
   59.8772   24.9990   46.4967 H   0  0  0  0  0  0  0  0  0  0  0  0
   60.7720   27.1809   45.8534 H   0  0  0  0  0  0  0  0  0  0  0  0
   59.0409   30.7035   43.6332 H   0  0  0  0  0  0  0  0  0  0  0  0
   57.5603   30.0055   42.8592 H   0  0  0  0  0  0  0  0  0  0  0  0
   57.8650   33.4148   43.3150 H   0  0  0  0  0  0  0  0  0  0  0  0
   58.9443   35.4567   44.2391 H   0  0  0  0  0  0  0  0  0  0  0  0
   59.0095   33.5521   48.1191 H   0  0  0  0  0  0  0  0  0  0  0  0
   57.9270   31.5258   47.1533 H   0  0  0  0  0  0  0  0  0  0  0  0
   56.1587   28.5807   44.6482 H   0  0  0  0  0  0  0  0  0  0  0  0
  1  2  1  0
  2  3  2  0
  3  4  1  0
  4  5  2  0
  4  6  1  0
  6  7  1  0
  7  8  1  0
  8  9  2  0
  8 10  1  0
 10 11  2  0
 11 12  1  0
 12 13  2  0
 13 14  1  0
 13 15  1  0
 15 16  2  0
  6 17  1  0
 17 18  2  0
 18 19  1  0
 19 20  3  0
 18  2  1  0
 16 10  1  0
  1 21  1  0
  1 22  1  0
  1 23  1  0
  3 24  1  0
  7 25  1  0
  7 26  1  0
 11 27  1  0
 12 28  1  0
 15 29  1  0
 16 30  1  0
 17 31  1  0
M  END
>  <smiles>  (45) 
Cc1cc(=O)n(CC(=O)c2ccc(F)cc2)cc1C#N

>  <score_type>  (45) 
oracle

>  <origin>  (45) 
adg

>  <m_score__min__energy>  (45) 
-7.1100000000000003

>  <m_primary>  (45) 
energy

$$$$
45:0
     RDKit          3D

 50 53  0  0  0  0  0  0  0  0999 V2000
   59.8090   28.3500   47.7620 C   0  0  0  0  0  0  0  0  0  0  0  0
   59.9850   27.7960   46.3540 C   0  0  0  0  0  0  0  0  0  0  0  0
   60.4590   28.9420   45.4630 C   0  0  0  0  0  0  0  0  0  0  0  0
   59.4390   30.0180   45.4460 C   0  0  0  0  0  0  0  0  0  0  0  0
   58.1800   29.8630   44.9050 C   0  0  0  0  0  0  0  0  0  0  0  0
   57.3360   30.9590   44.9600 C   0  0  0  0  0  0  0  0  0  0  0  0
   56.1790   30.8220   44.4660 O   0  0  0  0  0  0  0  0  0  0  0  0
   57.7390   32.1280   45.5230 N   0  0  0  0  0  0  0  0  0  0  0  0
   57.0970   33.3160   45.6870 C   0  0  0  0  0  0  0  0  0  0  0  0
   57.9200   34.1910   46.3090 N   0  0  0  0  0  0  0  0  0  0  0  0
   59.0870   33.5570   46.5400 C   0  0  0  0  0  0  0  0  0  0  0  0
   60.3240   34.0570   47.1920 C   0  0  0  0  0  0  0  0  0  0  0  0
   61.2380   32.9470   47.2930 N   0  0  0  0  0  0  0  0  0  0  0  0
   62.5320   33.2110   46.7790 C   0  0  0  0  0  0  0  0  0  0  0  0
   63.5400   32.3480   47.5030 C   0  0  0  0  0  0  0  0  0  0  0  0
   63.4640   32.7150   48.8950 N   0  0  0  0  0  0  0  0  0  0  0  0
   64.5960   33.0840   49.6870 C   0  0  0  0  0  0  0  0  0  0  0  0
   65.7480   32.9920   49.7380 N   0  0  0  0  0  0  0  0  0  0  0  0
   66.6070   33.4460   50.6180 C   0  0  0  0  0  0  0  0  0  0  0  0
   68.1000   33.2490   50.5600 C   0  0  0  0  0  0  0  0  0  0  0  0
   66.0200   34.1510   51.6520 C   0  0  0  0  0  0  0  0  0  0  0  0
   64.2560   34.0920   51.2520 S   0  0  0  0  0  0  0  0  0  0  0  0
   62.1670   32.7060   49.5240 C   0  0  0  0  0  0  0  0  0  0  0  0
   61.1470   32.2240   48.5120 C   0  0  0  0  0  0  0  0  0  0  0  0
   58.9790   32.2530   46.0450 C   0  0  0  0  0  0  0  0  0  0  0  0
   59.8150   31.2040   46.0030 N   0  0  0  0  0  0  0  0  0  0  0  0
   60.0569   27.5697   48.4967 H   0  0  0  0  0  0  0  0  0  0  0  0
   60.4775   29.2121   47.9030 H   0  0  0  0  0  0  0  0  0  0  0  0
   58.7655   28.6682   47.9030 H   0  0  0  0  0  0  0  0  0  0  0  0
   60.7338   26.9902   46.3588 H   0  0  0  0  0  0  0  0  0  0  0  0
   59.0367   27.3827   45.9801 H   0  0  0  0  0  0  0  0  0  0  0  0
   61.4057   29.3421   45.8549 H   0  0  0  0  0  0  0  0  0  0  0  0
   60.6107   28.5683   44.4396 H   0  0  0  0  0  0  0  0  0  0  0  0
   57.8613   28.9131   44.4511 H   0  0  0  0  0  0  0  0  0  0  0  0
   56.0679   33.5317   45.3638 H   0  0  0  0  0  0  0  0  0  0  0  0
   60.7712   34.8581   46.5851 H   0  0  0  0  0  0  0  0  0  0  0  0
   60.0993   34.4665   48.1879 H   0  0  0  0  0  0  0  0  0  0  0  0
   62.5549   32.9801   45.7037 H   0  0  0  0  0  0  0  0  0  0  0  0
   62.7794   34.2724   46.9281 H   0  0  0  0  0  0  0  0  0  0  0  0
   63.2911   31.2841   47.3758 H   0  0  0  0  0  0  0  0  0  0  0  0
   64.5542   32.4999   47.1051 H   0  0  0  0  0  0  0  0  0  0  0  0
   68.5028   33.1959   51.5822 H   0  0  0  0  0  0  0  0  0  0  0  0
   68.3260   32.3133   50.0277 H   0  0  0  0  0  0  0  0  0  0  0  0
   68.5610   34.0941   50.0277 H   0  0  0  0  0  0  0  0  0  0  0  0
   66.5082   34.6326   52.5121 H   0  0  0  0  0  0  0  0  0  0  0  0
   62.1792   32.0285   50.3905 H   0  0  0  0  0  0  0  0  0  0  0  0
   61.9076   33.7178   49.8690 H   0  0  0  0  0  0  0  0  0  0  0  0
   61.3227   31.1574   48.3084 H   0  0  0  0  0  0  0  0  0  0  0  0
   60.1432   32.3836   48.9325 H   0  0  0  0  0  0  0  0  0  0  0  0
   60.7590   31.3380   46.4140 H   0  0  0  0  0  0  0  0  0  0  0  0
  1  2  1  0
  2  3  1  0
  3  4  1  0
  4  5  2  0
  5  6  1  0
  6  7  2  0
  6  8  1  0
  8  9  1  0
  9 10  2  0
 10 11  1  0
 11 12  1  0
 12 13  1  0
 13 14  1  0
 14 15  1  0
 15 16  1  0
 16 17  1  0
 17 18  2  0
 18 19  1  0
 19 20  1  0
 19 21  2  0
 21 22  1  0
 16 23  1  0
 23 24  1  0
 11 25  2  0
 25 26  1  0
 26  4  1  0
 25  8  1  0
 24 13  1  0
 22 17  1  0
  1 27  1  0
  1 28  1  0
  1 29  1  0
  2 30  1  0
  2 31  1  0
  3 32  1  0
  3 33  1  0
  5 34  1  0
  9 35  1  0
 12 36  1  0
 12 37  1  0
 14 38  1  0
 14 39  1  0
 15 40  1  0
 15 41  1  0
 20 42  1  0
 20 43  1  0
 20 44  1  0
 21 45  1  0
 23 46  1  0
 23 47  1  0
 24 48  1  0
 24 49  1  0
 26 50  1  0
M  END
>  <smiles>  (46) 
CCCc1cc(=O)n2cnc(CN3CCN(c4nc(C)cs4)CC3)c2[nH]1

>  <score_type>  (46) 
oracle

>  <origin>  (46) 
adg

>  <m_score__min__energy>  (46) 
-7.96

>  <m_primary>  (46) 
energy

$$$$
46:0
     RDKit          3D

 56 59  0  0  0  0  0  0  0  0999 V2000
   56.0660   22.4110   48.5570 C   0  0  0  0  0  0  0  0  0  0  0  0
   57.2810   22.3790   47.8790 O   0  0  0  0  0  0  0  0  0  0  0  0
   57.3560   22.7350   46.5620 C   0  0  0  0  0  0  0  0  0  0  0  0
   57.2030   21.7870   45.5630 C   0  0  0  0  0  0  0  0  0  0  0  0
   57.2700   22.1040   44.2190 C   0  0  0  0  0  0  0  0  0  0  0  0
   57.4990   23.4130   43.8520 C   0  0  0  0  0  0  0  0  0  0  0  0
   57.6550   24.3760   44.8430 C   0  0  0  0  0  0  0  0  0  0  0  0
   57.5820   24.0260   46.1790 C   0  0  0  0  0  0  0  0  0  0  0  0
   57.7620   25.1450   47.1570 C   0  0  0  0  0  0  0  0  0  0  0  0
   57.4760   26.4440   46.5810 N   0  0  0  0  0  0  0  0  0  0  0  0
   58.4430   27.3750   46.6360 C   0  0  0  0  0  0  0  0  0  0  0  0
   58.2630   28.6510   46.1170 C   0  0  0  0  0  0  0  0  0  0  0  0
   59.3620   29.5790   46.2360 C   0  0  0  0  0  0  0  0  0  0  0  0
   60.3900   29.4400   45.4990 O   0  0  0  0  0  0  0  0  0  0  0  0
   59.4160   30.6770   47.1310 N   0  0  0  0  0  0  0  0  0  0  0  0
   60.6240   31.4710   47.0600 C   0  0  0  0  0  0  0  0  0  0  0  0
   61.8420   30.9300   47.4610 C   0  0  0  0  0  0  0  0  0  0  0  0
   62.9970   31.6820   47.4130 C   0  0  0  0  0  0  0  0  0  0  0  0
   62.9390   33.0020   46.9550 C   0  0  0  0  0  0  0  0  0  0  0  0
   61.7170   33.5100   46.5650 C   0  0  0  0  0  0  0  0  0  0  0  0
   60.5460   32.7560   46.6110 C   0  0  0  0  0  0  0  0  0  0  0  0
   59.3540   33.3870   46.1880 N   0  0  0  0  0  0  0  0  0  0  0  0
   58.3520   33.9110   47.1170 C   0  0  0  0  0  0  0  0  0  0  0  0
   56.9840   33.4390   46.7550 C   0  0  0  0  0  0  0  0  0  0  0  0
   56.9330   32.7230   45.5900 O   0  0  0  0  0  0  0  0  0  0  0  0
   57.5820   33.2870   44.5020 C   0  0  0  0  0  0  0  0  0  0  0  0
   59.0250   33.5730   44.7660 C   0  0  0  0  0  0  0  0  0  0  0  0
   57.0450   28.9060   45.5460 C   0  0  0  0  0  0  0  0  0  0  0  0
   56.7840   30.0190   45.0500 O   0  0  0  0  0  0  0  0  0  0  0  0
   56.0730   27.9500   45.4970 N   0  0  0  0  0  0  0  0  0  0  0  0
   56.2870   26.7230   46.0120 C   0  0  0  0  0  0  0  0  0  0  0  0
   55.4000   25.8310   45.9750 O   0  0  0  0  0  0  0  0  0  0  0  0
   56.2510   22.4061   49.6413 H   0  0  0  0  0  0  0  0  0  0  0  0
   55.5170   23.3239   48.2828 H   0  0  0  0  0  0  0  0  0  0  0  0
   55.4697   21.5282   48.2828 H   0  0  0  0  0  0  0  0  0  0  0  0
   57.0211   20.7410   45.8507 H   0  0  0  0  0  0  0  0  0  0  0  0
   57.1425   21.3237   43.4542 H   0  0  0  0  0  0  0  0  0  0  0  0
   57.5575   23.6919   42.7896 H   0  0  0  0  0  0  0  0  0  0  0  0
   57.8378   25.4237   44.5623 H   0  0  0  0  0  0  0  0  0  0  0  0
   57.0846   24.9807   48.0080 H   0  0  0  0  0  0  0  0  0  0  0  0
   58.8165   25.1457   47.4700 H   0  0  0  0  0  0  0  0  0  0  0  0
   59.4046   27.1197   47.1053 H   0  0  0  0  0  0  0  0  0  0  0  0
   58.6480   30.8920   47.7840 H   0  0  0  0  0  0  0  0  0  0  0  0
   61.8838   29.8911   47.8202 H   0  0  0  0  0  0  0  0  0  0  0  0
   63.9557   31.2472   47.7322 H   0  0  0  0  0  0  0  0  0  0  0  0
   63.8469   33.6211   46.9068 H   0  0  0  0  0  0  0  0  0  0  0  0
   61.6652   34.5480   46.2046 H   0  0  0  0  0  0  0  0  0  0  0  0
   58.5922   33.5692   48.1346 H   0  0  0  0  0  0  0  0  0  0  0  0
   58.3676   35.0096   47.0639 H   0  0  0  0  0  0  0  0  0  0  0  0
   56.6112   32.8010   47.5698 H   0  0  0  0  0  0  0  0  0  0  0  0
   56.3668   34.3369   46.6043 H   0  0  0  0  0  0  0  0  0  0  0  0
   57.5123   32.5910   43.6530 H   0  0  0  0  0  0  0  0  0  0  0  0
   57.0904   34.2474   44.2875 H   0  0  0  0  0  0  0  0  0  0  0  0
   59.6420   32.8906   44.1630 H   0  0  0  0  0  0  0  0  0  0  0  0
   59.2270   34.6201   44.4963 H   0  0  0  0  0  0  0  0  0  0  0  0
   55.1600   28.2090   45.0430 H   0  0  0  0  0  0  0  0  0  0  0  0
  1  2  1  0
  2  3  1  0
  3  4  2  0
  4  5  1  0
  5  6  2  0
  6  7  1  0
  7  8  2  0
  8  9  1  0
  9 10  1  0
 10 11  1  0
 11 12  2  0
 12 13  1  0
 13 14  2  0
 13 15  1  0
 15 16  1  0
 16 17  2  0
 17 18  1  0
 18 19  2  0
 19 20  1  0
 20 21  2  0
 21 22  1  0
 22 23  1  0
 23 24  1  0
 24 25  1  0
 25 26  1  0
 26 27  1  0
 12 28  1  0
 28 29  2  0
 28 30  1  0
 30 31  1  0
 31 32  2  0
  8  3  1  0
 31 10  1  0
 21 16  1  0
 27 22  1  0
  1 33  1  0
  1 34  1  0
  1 35  1  0
  4 36  1  0
  5 37  1  0
  6 38  1  0
  7 39  1  0
  9 40  1  0
  9 41  1  0
 11 42  1  0
 15 43  1  0
 17 44  1  0
 18 45  1  0
 19 46  1  0
 20 47  1  0
 23 48  1  0
 23 49  1  0
 24 50  1  0
 24 51  1  0
 26 52  1  0
 26 53  1  0
 27 54  1  0
 27 55  1  0
 30 56  1  0
M  END
>  <smiles>  (47) 
COc1ccccc1Cn1cc(C(=O)Nc2ccccc2N2CCOCC2)c(=O)[nH]c1=O

>  <score_type>  (47) 
oracle

>  <origin>  (47) 
adg

>  <m_score__min__energy>  (47) 
-9.4399999999999995

>  <m_primary>  (47) 
energy

$$$$
47:0
     RDKit          3D

 43 46  0  0  1  0  0  0  0  0999 V2000
   59.6250   35.6220   46.8290 F   0  0  0  0  0  0  0  0  0  0  0  0
   58.9780   34.6210   46.1700 C   0  0  0  0  0  0  0  0  0  0  0  0
   59.3050   34.4000   44.8410 C   0  0  0  0  0  0  0  0  0  0  0  0
   58.6830   33.4000   44.1250 C   0  0  0  0  0  0  0  0  0  0  0  0
   57.7210   32.6190   44.7610 C   0  0  0  0  0  0  0  0  0  0  0  0
   57.0860   31.5520   43.9190 C   0  0  0  0  0  0  0  0  0  0  0  0
   56.5040   30.5590   44.7710 N   0  0  0  0  0  0  0  0  0  0  0  0
   57.1970   29.6040   45.2470 C   0  0  0  0  0  0  0  0  0  0  0  0
   58.1360   29.8420   46.1930 N   0  0  0  0  0  0  0  0  0  0  0  0
   58.8760   28.8500   46.7080 C   0  0  0  0  0  0  0  0  0  0  0  0
   59.7830   29.0230   47.6110 N   0  0  0  0  0  0  0  0  0  0  0  0
   60.2640   30.3470   47.8020 C   0  0  0  0  0  0  0  0  0  0  0  0
   61.2840   30.9110   47.0980 C   0  0  0  0  0  0  0  0  0  0  0  0
   61.7230   32.2100   47.3200 C   0  0  0  0  0  0  0  0  0  0  0  0
   61.0640   32.9250   48.3090 C   0  0  0  0  0  0  0  0  0  0  0  0
   61.4890   34.2080   48.5340 F   0  0  0  0  0  0  0  0  0  0  0  0
   60.0300   32.4090   49.0480 C   0  0  0  0  0  0  0  0  0  0  0  0
   59.6320   31.1060   48.7860 C   0  0  0  0  0  0  0  0  0  0  0  0
   58.6930   27.5410   46.2770 C   0  0  0  0  0  0  0  0  0  0  0  0
   59.4480   26.5050   46.7950 C   0  0  0  0  0  0  0  0  0  0  0  0
   59.2270   25.2320   46.3340 C   0  0  0  0  0  0  0  0  0  0  0  0
   58.2810   24.9450   45.3710 C   0  0  0  0  0  0  0  0  0  0  0  0
   57.5330   26.0090   44.8640 C   0  0  0  0  0  0  0  0  0  0  0  0
   57.7430   27.2990   45.3190 C   0  0  0  0  0  0  0  0  0  0  0  0
   57.0380   28.3270   44.8450 N   0  0  0  0  0  0  0  0  0  0  0  0
   57.3780   32.8180   46.0790 C   0  0  0  0  0  0  0  0  0  0  0  0
   58.0150   33.8350   46.7960 C   0  0  0  0  0  0  0  0  0  0  0  0
   60.0664   35.0273   44.3544 H   0  0  0  0  0  0  0  0  0  0  0  0
   58.9415   33.2220   43.0707 H   0  0  0  0  0  0  0  0  0  0  0  0
   56.3035   31.9991   43.2883 H   0  0  0  0  0  0  0  0  0  0  0  0
   57.8492   31.0858   43.2785 H   0  0  0  0  0  0  0  0  0  0  0  0
   58.2810   30.8190   46.5240 H   0  0  0  0  0  0  0  0  0  0  0  0
   61.7814   30.3126   46.3205 H   0  0  0  0  0  0  0  0  0  0  0  0
   62.5497   32.6485   46.7419 H   0  0  0  0  0  0  0  0  0  0  0  0
   59.5321   33.0093   49.8238 H   0  0  0  0  0  0  0  0  0  0  0  0
   58.8057   30.6653   49.3631 H   0  0  0  0  0  0  0  0  0  0  0  0
   60.2118   26.6980   47.5627 H   0  0  0  0  0  0  0  0  0  0  0  0
   59.8270   24.4082   46.7479 H   0  0  0  0  0  0  0  0  0  0  0  0
   58.1223   23.9160   45.0161 H   0  0  0  0  0  0  0  0  0  0  0  0
   56.7692   25.8202   44.0953 H   0  0  0  0  0  0  0  0  0  0  0  0
   56.3170   28.1060   44.1110 H   0  0  0  0  0  0  0  0  0  0  0  0
   56.6156   32.1875   46.5599 H   0  0  0  0  0  0  0  0  0  0  0  0
   57.7563   34.0132   47.8502 H   0  0  0  0  0  0  0  0  0  0  0  0
  1  2  1  0
  2  3  2  0
  3  4  1  0
  4  5  2  0
  5  6  1  0
  6  7  1  0
  7  8  2  0
  8  9  1  0
  9 10  1  0
 10 11  2  0
 11 12  1  0
 12 13  2  0
 13 14  1  0
 14 15  2  0
 15 16  1  0
 15 17  1  0
 17 18  2  0
 10 19  1  0
 19 20  2  0
 20 21  1  0
 21 22  2  0
 22 23  1  0
 23 24  2  0
 24 25  1  0
  5 26  1  0
 26 27  2  0
 27  2  1  0
 25  8  1  0
 18 12  1  0
 24 19  1  0
  3 28  1  0
  4 29  1  0
  6 30  1  0
  6 31  1  0
  9 32  1  0
 13 33  1  0
 14 34  1  0
 17 35  1  0
 18 36  1  0
 20 37  1  0
 21 38  1  0
 22 39  1  0
 23 40  1  0
 25 41  1  0
 26 42  1  0
 27 43  1  0
M  END
>  <smiles>  (48) 
Fc1ccc(CN=c2[nH]c(=Nc3ccc(F)cc3)c3ccccc3[nH]2)cc1

>  <score_type>  (48) 
oracle

>  <origin>  (48) 
adg

>  <m_score__min__energy>  (48) 
-8.8800000000000008

>  <m_primary>  (48) 
energy

$$$$
48:0
     RDKit          3D

 39 41  0  0  1  0  0  0  0  0999 V2000
   60.3070   27.6690   48.0820 C   0  0  0  0  0  0  0  0  0  0  0  0
   59.9960   28.6370   47.2710 C   0  0  0  0  0  0  0  0  0  0  0  0
   60.1890   29.9480   47.5820 N   0  0  0  0  0  0  0  0  0  0  0  0
   59.7820   30.7150   46.5700 N   0  0  0  0  0  0  0  0  0  0  0  0
   59.8210   32.1360   46.5170 C   0  0  0  0  0  0  0  0  0  0  0  0
   60.9720   32.8570   46.7400 C   0  0  0  0  0  0  0  0  0  0  0  0
   60.9030   34.2450   46.6630 C   0  0  0  0  0  0  0  0  0  0  0  0
   59.7130   34.8870   46.3720 C   0  0  0  0  0  0  0  0  0  0  0  0
   59.6170   36.2380   46.2910 F   0  0  0  0  0  0  0  0  0  0  0  0
   58.5440   34.1590   46.1440 C   0  0  0  0  0  0  0  0  0  0  0  0
   58.6300   32.7830   46.2240 C   0  0  0  0  0  0  0  0  0  0  0  0
   57.4720   32.0860   45.9980 F   0  0  0  0  0  0  0  0  0  0  0  0
   59.3170   29.9580   45.5770 C   0  0  0  0  0  0  0  0  0  0  0  0
   58.8590   30.3370   44.4870 O   0  0  0  0  0  0  0  0  0  0  0  0
   59.4500   28.6560   46.0120 C   0  0  0  0  0  0  0  0  0  0  0  0
   59.1080   27.6030   45.3310 C   0  0  0  0  0  0  0  0  0  0  0  0
   58.1090   26.6200   45.7060 C   0  0  0  0  0  0  0  0  0  0  0  0
   58.5080   25.3650   46.1920 C   0  0  0  0  0  0  0  0  0  0  0  0
   57.5430   24.4830   46.5720 C   0  0  0  0  0  0  0  0  0  0  0  0
   56.2020   24.7720   46.5000 C   0  0  0  0  0  0  0  0  0  0  0  0
   55.2020   23.8880   46.8810 O   0  0  0  0  0  0  0  0  0  0  0  0
   55.4880   22.9910   47.9330 C   0  0  0  0  0  0  0  0  0  0  0  0
   55.8140   26.0060   46.0210 C   0  0  0  0  0  0  0  0  0  0  0  0
   54.4540   26.3230   45.9380 O   0  0  0  0  0  0  0  0  0  0  0  0
   56.7500   26.9450   45.6200 C   0  0  0  0  0  0  0  0  0  0  0  0
   60.1316   26.6246   47.7846 H   0  0  0  0  0  0  0  0  0  0  0  0
   60.7454   27.8947   49.0653 H   0  0  0  0  0  0  0  0  0  0  0  0
   60.5820   30.3700   48.4460 H   0  0  0  0  0  0  0  0  0  0  0  0
   61.9202   32.3503   46.9727 H   0  0  0  0  0  0  0  0  0  0  0  0
   61.8106   34.8417   46.8366 H   0  0  0  0  0  0  0  0  0  0  0  0
   57.5934   34.6607   45.9102 H   0  0  0  0  0  0  0  0  0  0  0  0
   59.6278   27.4410   44.3752 H   0  0  0  0  0  0  0  0  0  0  0  0
   59.5734   25.1008   46.2640 H   0  0  0  0  0  0  0  0  0  0  0  0
   57.8500   23.4977   46.9526 H   0  0  0  0  0  0  0  0  0  0  0  0
   55.3275   23.4943   48.8978 H   0  0  0  0  0  0  0  0  0  0  0  0
   54.8240   22.1171   47.8604 H   0  0  0  0  0  0  0  0  0  0  0  0
   56.5354   22.6627   47.8604 H   0  0  0  0  0  0  0  0  0  0  0  0
   53.7230   25.7670   46.3760 H   0  0  0  0  0  0  0  0  0  0  0  0
   56.4316   27.9274   45.2412 H   0  0  0  0  0  0  0  0  0  0  0  0
  1  2  2  0
  2  3  1  0
  3  4  1  0
  4  5  1  0
  5  6  2  0
  6  7  1  0
  7  8  2  0
  8  9  1  0
  8 10  1  0
 10 11  2  0
 11 12  1  0
  4 13  1  0
 13 14  2  0
 13 15  1  0
 15 16  2  0
 16 17  1  0
 17 18  2  0
 18 19  1  0
 19 20  2  0
 20 21  1  0
 21 22  1  0
 20 23  1  0
 23 24  1  0
 23 25  2  0
 15  2  1  0
 25 17  1  0
 11  5  1  0
  1 26  1  0
  1 27  1  0
  3 28  1  0
  6 29  1  0
  7 30  1  0
 10 31  1  0
 16 32  1  0
 18 33  1  0
 19 34  1  0
 22 35  1  0
 22 36  1  0
 22 37  1  0
 24 38  1  0
 25 39  1  0
M  END
>  <smiles>  (49) 
C=c1[nH]n(-c2ccc(F)cc2F)c(=O)c1=Cc1ccc(OC)c(O)c1

>  <score_type>  (49) 
oracle

>  <origin>  (49) 
adg

>  <m_score__min__energy>  (49) 
-8.0099999999999998

>  <m_primary>  (49) 
energy

$$$$
49:0
     RDKit          3D

 39 41  0  0  0  0  0  0  0  0999 V2000
   57.6860   31.1030   46.0800 O   0  0  0  0  0  0  0  0  0  0  0  0
   57.7620   31.8990   45.1440 C   0  0  0  0  0  0  0  0  0  0  0  0
   57.0190   31.6180   43.9610 N   0  0  0  0  0  0  0  0  0  0  0  0
   56.1880   30.4620   43.7780 C   0  0  0  0  0  0  0  0  0  0  0  0
   57.0120   29.2950   43.2960 C   0  0  0  0  0  0  0  0  0  0  0  0
   57.7190   28.6450   44.4460 C   0  0  0  0  0  0  0  0  0  0  0  0
   59.0940   28.8240   44.4970 C   0  0  0  0  0  0  0  0  0  0  0  0
   59.8570   28.2730   45.5110 C   0  0  0  0  0  0  0  0  0  0  0  0
   59.1960   27.5380   46.4700 C   0  0  0  0  0  0  0  0  0  0  0  0
   57.8210   27.3580   46.4210 C   0  0  0  0  0  0  0  0  0  0  0  0
   57.0560   27.9120   45.4040 C   0  0  0  0  0  0  0  0  0  0  0  0
   58.5540   33.0470   45.2390 N   0  0  0  0  0  0  0  0  0  0  0  0
   59.3400   33.4590   46.3320 C   0  0  0  0  0  0  0  0  0  0  0  0
   58.9160   34.2280   47.3840 C   0  0  0  0  0  0  0  0  0  0  0  0
   59.7650   34.5970   48.4350 C   0  0  0  0  0  0  0  0  0  0  0  0
   61.0830   34.1940   48.4580 C   0  0  0  0  0  0  0  0  0  0  0  0
   61.8750   34.5600   49.4760 N   0  0  0  0  0  0  0  0  0  0  0  0
   63.1790   34.1630   49.4990 C   0  0  0  0  0  0  0  0  0  0  0  0
   63.6510   33.3840   48.4580 C   0  0  0  0  0  0  0  0  0  0  0  0
   62.8310   33.0000   47.3940 C   0  0  0  0  0  0  0  0  0  0  0  0
   61.5190   33.4220   47.4070 C   0  0  0  0  0  0  0  0  0  0  0  0
   60.6810   33.0630   46.3760 C   0  0  0  0  0  0  0  0  0  0  0  0
   57.0900   32.3160   43.1600 H   0  0  0  0  0  0  0  0  0  0  0  0
   55.7143   30.2005   44.7357 H   0  0  0  0  0  0  0  0  0  0  0  0
   55.4182   30.6906   43.0263 H   0  0  0  0  0  0  0  0  0  0  0  0
   56.3514   28.5593   42.8140 H   0  0  0  0  0  0  0  0  0  0  0  0
   57.7603   29.6592   42.5767 H   0  0  0  0  0  0  0  0  0  0  0  0
   59.5884   29.4173   43.7137 H   0  0  0  0  0  0  0  0  0  0  0  0
   60.9470   28.4161   45.5497 H   0  0  0  0  0  0  0  0  0  0  0  0
   59.7698   27.0844   47.2916 H   0  0  0  0  0  0  0  0  0  0  0  0
   57.3272   26.7641   47.2042 H   0  0  0  0  0  0  0  0  0  0  0  0
   55.9657   27.7712   45.3652 H   0  0  0  0  0  0  0  0  0  0  0  0
   58.5630   33.6810   44.3820 H   0  0  0  0  0  0  0  0  0  0  0  0
   57.8701   34.5681   47.4037 H   0  0  0  0  0  0  0  0  0  0  0  0
   59.3741   35.2179   49.2546 H   0  0  0  0  0  0  0  0  0  0  0  0
   63.8412   34.4557   50.3271 H   0  0  0  0  0  0  0  0  0  0  0  0
   64.7014   33.0577   48.4682 H   0  0  0  0  0  0  0  0  0  0  0  0
   63.2200   32.3808   46.5723 H   0  0  0  0  0  0  0  0  0  0  0  0
   61.0792   32.4436   45.5588 H   0  0  0  0  0  0  0  0  0  0  0  0
  1  2  2  0
  2  3  1  0
  3  4  1  0
  4  5  1  0
  5  6  1  0
  6  7  2  0
  7  8  1  0
  8  9  2  0
  9 10  1  0
 10 11  2  0
  2 12  1  0
 12 13  1  0
 13 14  2  0
 14 15  1  0
 15 16  2  0
 16 17  1  0
 17 18  2  0
 18 19  1  0
 19 20  2  0
 20 21  1  0
 21 22  2  0
 11  6  1  0
 22 13  1  0
 21 16  1  0
  3 23  1  0
  4 24  1  0
  4 25  1  0
  5 26  1  0
  5 27  1  0
  7 28  1  0
  8 29  1  0
  9 30  1  0
 10 31  1  0
 11 32  1  0
 12 33  1  0
 14 34  1  0
 15 35  1  0
 18 36  1  0
 19 37  1  0
 20 38  1  0
 22 39  1  0
M  END
>  <smiles>  (50) 
O=C(NCCc1ccccc1)Nc1ccc2ncccc2c1

>  <score_type>  (50) 
oracle

>  <origin>  (50) 
adg

>  <m_score__min__energy>  (50) 
-7.8399999999999999

>  <m_primary>  (50) 
energy

$$$$
51:0
     RDKit          3D

 40 42  0  0  1  0  0  0  0  0999 V2000
   57.0570   33.9120   45.1860 C   0  0  0  0  0  0  0  0  0  0  0  0
   58.2960   33.8280   45.9700 C   0  0  0  0  0  0  0  0  0  0  0  0
   59.5630   33.9690   45.4490 C   0  0  0  0  0  0  0  0  0  0  0  0
   60.7130   33.8880   46.2020 C   0  0  0  0  0  0  0  0  0  0  0  0
   60.5820   33.6510   47.5540 C   0  0  0  0  0  0  0  0  0  0  0  0
   62.0330   33.5420   48.5320 Cl  0  0  0  0  0  0  0  0  0  0  0  0
   59.3200   33.5060   48.0950 C   0  0  0  0  0  0  0  0  0  0  0  0
   59.2820   33.2610   49.5160 N   0  0  0  0  0  0  0  0  0  0  0  0
   59.3440   32.0160   49.9170 C   0  0  0  0  0  0  0  0  0  0  0  0
   59.5320   31.7640   51.2170 N   0  0  0  0  0  0  0  0  0  0  0  0
   59.6020   30.4930   51.6780 C   0  0  0  0  0  0  0  0  0  0  0  0
   59.4750   29.4370   50.7750 C   0  0  0  0  0  0  0  0  0  0  0  0
   59.2810   29.6960   49.4380 C   0  0  0  0  0  0  0  0  0  0  0  0
   59.1660   28.7060   48.6340 N   0  0  0  0  0  0  0  0  0  0  0  0
   59.1330   28.9930   47.2400 C   0  0  0  0  0  0  0  0  0  0  0  0
   60.2040   28.9410   46.4090 C   0  0  0  0  0  0  0  0  0  0  0  0
   60.0490   29.2420   45.0650 C   0  0  0  0  0  0  0  0  0  0  0  0
   58.8280   29.6030   44.5210 C   0  0  0  0  0  0  0  0  0  0  0  0
   57.7570   29.6500   45.3780 C   0  0  0  0  0  0  0  0  0  0  0  0
   56.4540   30.0240   44.8480 C   0  0  0  0  0  0  0  0  0  0  0  0
   56.2390   31.1950   44.4410 O   0  0  0  0  0  0  0  0  0  0  0  0
   55.3990   29.1250   44.7650 O   0  0  0  0  0  0  0  0  0  0  0  0
   57.8870   29.3540   46.7190 C   0  0  0  0  0  0  0  0  0  0  0  0
   59.2230   30.9880   49.0620 N   0  0  0  0  0  0  0  0  0  0  0  0
   58.1660   33.5880   47.3420 C   0  0  0  0  0  0  0  0  0  0  0  0
   56.1953   33.9704   45.8672 H   0  0  0  0  0  0  0  0  0  0  0  0
   57.0846   34.8103   44.5518 H   0  0  0  0  0  0  0  0  0  0  0  0
   56.9631   33.0182   44.5518 H   0  0  0  0  0  0  0  0  0  0  0  0
   59.6620   34.1571   44.3697 H   0  0  0  0  0  0  0  0  0  0  0  0
   61.7040   34.0084   45.7400 H   0  0  0  0  0  0  0  0  0  0  0  0
   59.6250   32.5740   51.8750 H   0  0  0  0  0  0  0  0  0  0  0  0
   59.7568   30.2957   52.7490 H   0  0  0  0  0  0  0  0  0  0  0  0
   59.5300   28.3980   51.1320 H   0  0  0  0  0  0  0  0  0  0  0  0
   61.1929   28.6607   46.8008 H   0  0  0  0  0  0  0  0  0  0  0  0
   60.9285   29.1923   44.4062 H   0  0  0  0  0  0  0  0  0  0  0  0
   58.7214   29.8409   43.4523 H   0  0  0  0  0  0  0  0  0  0  0  0
   54.7730   28.9660   45.5700 H   0  0  0  0  0  0  0  0  0  0  0  0
   57.0087   29.4021   47.3795 H   0  0  0  0  0  0  0  0  0  0  0  0
   59.0760   31.2200   48.0560 H   0  0  0  0  0  0  0  0  0  0  0  0
   57.1758   33.4684   47.8060 H   0  0  0  0  0  0  0  0  0  0  0  0
  1  2  1  0
  2  3  2  0
  3  4  1  0
  4  5  2  0
  5  6  1  0
  5  7  1  0
  7  8  1  0
  8  9  2  0
  9 10  1  0
 10 11  1  0
 11 12  2  0
 12 13  1  0
 13 14  2  0
 14 15  1  0
 15 16  2  0
 16 17  1  0
 17 18  2  0
 18 19  1  0
 19 20  1  0
 20 21  2  0
 20 22  1  0
 19 23  2  0
 13 24  1  0
  7 25  2  0
 25  2  1  0
 24  9  1  0
 23 15  1  0
  1 26  1  0
  1 27  1  0
  1 28  1  0
  3 29  1  0
  4 30  1  0
 10 31  1  0
 11 32  1  0
 12 33  1  0
 16 34  1  0
 17 35  1  0
 18 36  1  0
 22 37  1  0
 23 38  1  0
 24 39  1  0
 25 40  1  0
M  END
>  <smiles>  (51) 
Cc1ccc(Cl)c(N=c2[nH]ccc(=Nc3cccc(C(=O)O)c3)[nH]2)c1

>  <score_type>  (51) 
oracle

>  <origin>  (51) 
adg

>  <m_score__min__energy>  (51) 
-9.5700000000000003

>  <m_primary>  (51) 
energy

$$$$
52:0
     RDKit          3D

 35 38  0  0  1  0  0  0  0  0999 V2000
   58.4160   22.3120   45.8290 N   0  0  0  0  0  0  0  0  0  0  0  0
   57.9090   23.6420   45.7630 C   0  0  0  0  0  0  0  0  0  0  0  0
   56.5490   23.8520   45.9130 C   0  0  0  0  0  0  0  0  0  0  0  0
   56.0090   25.1420   45.8560 C   0  0  0  0  0  0  0  0  0  0  0  0
   54.7710   25.2860   45.9960 O   0  0  0  0  0  0  0  0  0  0  0  0
   56.8380   26.2370   45.6440 C   0  0  0  0  0  0  0  0  0  0  0  0
   56.3310   27.4870   45.5860 N   0  0  0  0  0  0  0  0  0  0  0  0
   57.1270   28.5510   45.3830 C   0  0  0  0  0  0  0  0  0  0  0  0
   56.6350   29.8020   45.3230 N   0  0  0  0  0  0  0  0  0  0  0  0
   57.4340   30.8650   45.1180 C   0  0  0  0  0  0  0  0  0  0  0  0
   57.0040   32.0780   45.0540 N   0  0  0  0  0  0  0  0  0  0  0  0
   57.8460   33.1440   45.5250 C   0  0  0  0  0  0  0  0  0  0  0  0
   58.4370   33.9850   44.6030 C   0  0  0  0  0  0  0  0  0  0  0  0
   59.2610   35.0360   44.9770 C   0  0  0  0  0  0  0  0  0  0  0  0
   59.4790   35.2180   46.3400 C   0  0  0  0  0  0  0  0  0  0  0  0
   58.8800   34.3670   47.2500 C   0  0  0  0  0  0  0  0  0  0  0  0
   58.0620   33.3240   46.8930 C   0  0  0  0  0  0  0  0  0  0  0  0
   58.7490   30.6240   44.9780 N   0  0  0  0  0  0  0  0  0  0  0  0
   59.2900   29.3940   45.0290 C   0  0  0  0  0  0  0  0  0  0  0  0
   58.4760   28.3000   45.2380 C   0  0  0  0  0  0  0  0  0  0  0  0
   59.0230   27.0370   45.2920 C   0  0  0  0  0  0  0  0  0  0  0  0
   58.1820   25.9640   45.5030 C   0  0  0  0  0  0  0  0  0  0  0  0
   58.6920   24.7180   45.5600 N   0  0  0  0  0  0  0  0  0  0  0  0
   58.5710   21.8370   46.7470 H   0  0  0  0  0  0  0  0  0  0  0  0
   58.6340   21.8060   44.9620 H   0  0  0  0  0  0  0  0  0  0  0  0
   55.8830   22.9925   46.0794 H   0  0  0  0  0  0  0  0  0  0  0  0
   58.2473   33.8152   43.5329 H   0  0  0  0  0  0  0  0  0  0  0  0
   59.7225   35.6974   44.2289 H   0  0  0  0  0  0  0  0  0  0  0  0
   60.1254   36.0358   46.6914 H   0  0  0  0  0  0  0  0  0  0  0  0
   59.0695   34.5351   48.3204 H   0  0  0  0  0  0  0  0  0  0  0  0
   57.6014   32.6654   47.6441 H   0  0  0  0  0  0  0  0  0  0  0  0
   59.3800   31.4480   44.8170 H   0  0  0  0  0  0  0  0  0  0  0  0
   60.3748   29.2610   44.9048 H   0  0  0  0  0  0  0  0  0  0  0  0
   60.1059   26.8873   45.1697 H   0  0  0  0  0  0  0  0  0  0  0  0
   59.7120   24.5320   45.4500 H   0  0  0  0  0  0  0  0  0  0  0  0
  1  2  1  0
  2  3  2  0
  3  4  1  0
  4  5  2  0
  4  6  1  0
  6  7  2  0
  7  8  1  0
  8  9  2  0
  9 10  1  0
 10 11  2  0
 11 12  1  0
 12 13  2  0
 13 14  1  0
 14 15  2  0
 15 16  1  0
 16 17  2  0
 10 18  1  0
 18 19  1  0
 19 20  2  0
 20 21  1  0
 21 22  2  0
 22 23  1  0
 23  2  1  0
 22  6  1  0
 20  8  1  0
 17 12  1  0
  1 24  1  0
  1 25  1  0
  3 26  1  0
 13 27  1  0
 14 28  1  0
 15 29  1  0
 16 30  1  0
 17 31  1  0
 18 32  1  0
 19 33  1  0
 21 34  1  0
 23 35  1  0
M  END
>  <smiles>  (52) 
Nc1cc(=O)c2nc3nc(=Nc4ccccc4)[nH]cc3cc2[nH]1

>  <score_type>  (52) 
oracle

>  <origin>  (52) 
adg

>  <m_score__min__energy>  (52) 
-8.2599999999999998

>  <m_primary>  (52) 
energy

$$$$
53:0
     RDKit          3D

 38 40  0  0  1  0  0  0  0  0999 V2000
   63.1670   33.7780   47.1220 C   0  0  0  0  0  0  0  0  0  0  0  0
   61.8840   33.8280   47.8400 N   0  0  0  0  0  0  0  0  0  0  0  0
   61.8460   34.1940   49.2460 C   0  0  0  0  0  0  0  0  0  0  0  0
   60.6620   33.5210   47.1700 C   0  0  0  0  0  0  0  0  0  0  0  0
   59.7820   32.5800   47.7060 C   0  0  0  0  0  0  0  0  0  0  0  0
   58.5960   32.2470   47.1030 C   0  0  0  0  0  0  0  0  0  0  0  0
   58.2280   32.8530   45.9100 C   0  0  0  0  0  0  0  0  0  0  0  0
   56.9730   32.5190   45.2450 C   0  0  0  0  0  0  0  0  0  0  0  0
   56.8770   31.5530   44.3860 N   0  0  0  0  0  0  0  0  0  0  0  0
   57.5410   30.3430   44.7050 N   0  0  0  0  0  0  0  0  0  0  0  0
   58.8960   30.2480   44.5820 C   0  0  0  0  0  0  0  0  0  0  0  0
   59.5170   29.0760   44.8940 N   0  0  0  0  0  0  0  0  0  0  0  0
   58.8000   28.0050   45.3230 C   0  0  0  0  0  0  0  0  0  0  0  0
   59.4240   26.7990   45.6450 C   0  0  0  0  0  0  0  0  0  0  0  0
   58.6430   25.7480   46.0750 C   0  0  0  0  0  0  0  0  0  0  0  0
   57.2730   25.8530   46.1950 C   0  0  0  0  0  0  0  0  0  0  0  0
   56.6520   27.0610   45.8730 C   0  0  0  0  0  0  0  0  0  0  0  0
   57.4300   28.1350   45.4360 C   0  0  0  0  0  0  0  0  0  0  0  0
   56.7930   29.3160   45.1230 C   0  0  0  0  0  0  0  0  0  0  0  0
   55.5400   29.4190   45.2320 O   0  0  0  0  0  0  0  0  0  0  0  0
   59.0930   33.7840   45.3740 C   0  0  0  0  0  0  0  0  0  0  0  0
   60.2980   34.1130   46.0010 C   0  0  0  0  0  0  0  0  0  0  0  0
   63.9926   33.7458   47.8482 H   0  0  0  0  0  0  0  0  0  0  0  0
   63.1989   32.8779   46.4905 H   0  0  0  0  0  0  0  0  0  0  0  0
   63.2689   34.6729   46.4905 H   0  0  0  0  0  0  0  0  0  0  0  0
   61.9400   33.2884   49.8633 H   0  0  0  0  0  0  0  0  0  0  0  0
   62.6780   34.8781   49.4694 H   0  0  0  0  0  0  0  0  0  0  0  0
   60.8913   34.6926   49.4694 H   0  0  0  0  0  0  0  0  0  0  0  0
   60.0505   32.0850   48.6509 H   0  0  0  0  0  0  0  0  0  0  0  0
   57.9357   31.4987   47.5656 H   0  0  0  0  0  0  0  0  0  0  0  0
   56.0751   33.1088   45.4813 H   0  0  0  0  0  0  0  0  0  0  0  0
   59.4829   31.1107   44.2337 H   0  0  0  0  0  0  0  0  0  0  0  0
   60.5151   26.6897   45.5575 H   0  0  0  0  0  0  0  0  0  0  0  0
   59.1280   24.7944   46.3308 H   0  0  0  0  0  0  0  0  0  0  0  0
   56.6770   24.9953   46.5402 H   0  0  0  0  0  0  0  0  0  0  0  0
   55.5607   27.1658   45.9626 H   0  0  0  0  0  0  0  0  0  0  0  0
   58.8277   34.2803   44.4288 H   0  0  0  0  0  0  0  0  0  0  0  0
   60.9613   34.8612   45.5425 H   0  0  0  0  0  0  0  0  0  0  0  0
  1  2  1  0
  2  3  1  0
  2  4  1  0
  4  5  2  0
  5  6  1  0
  6  7  2  0
  7  8  1  0
  8  9  2  0
  9 10  1  0
 10 11  1  0
 11 12  2  0
 12 13  1  0
 13 14  2  0
 14 15  1  0
 15 16  2  0
 16 17  1  0
 17 18  2  0
 18 19  1  0
 19 20  2  0
  7 21  1  0
 21 22  2  0
 22  4  1  0
 19 10  1  0
 18 13  1  0
  1 23  1  0
  1 24  1  0
  1 25  1  0
  3 26  1  0
  3 27  1  0
  3 28  1  0
  5 29  1  0
  6 30  1  0
  8 31  1  0
 11 32  1  0
 14 33  1  0
 15 34  1  0
 16 35  1  0
 17 36  1  0
 21 37  1  0
 22 38  1  0
M  END
>  <smiles>  (53) 
CN(C)c1ccc(C=Nn2cnc3ccccc3c2=O)cc1

>  <score_type>  (53) 
oracle

>  <origin>  (53) 
adg

>  <m_score__min__energy>  (53) 
-7.2800000000000002

>  <m_primary>  (53) 
energy

$$$$
54:0
     RDKit          3D

 47 49  0  0  0  0  0  0  0  0999 V2000
   57.7520   31.9940   43.2940 C   0  0  0  0  0  0  0  0  0  0  0  0
   57.0200   32.9500   44.6370 S   0  0  0  0  0  0  0  0  0  0  0  0
   58.2960   33.4250   45.7910 C   0  0  0  0  0  0  0  0  0  0  0  0
   59.0490   34.5650   45.6260 C   0  0  0  0  0  0  0  0  0  0  0  0
   60.0240   34.9080   46.5290 C   0  0  0  0  0  0  0  0  0  0  0  0
   60.3090   34.1250   47.6620 C   0  0  0  0  0  0  0  0  0  0  0  0
   61.2930   34.5720   48.4750 O   0  0  0  0  0  0  0  0  0  0  0  0
   62.3310   33.9740   49.0960 C   0  0  0  0  0  0  0  0  0  0  0  0
   62.4590   33.8640   50.4870 C   0  0  0  0  0  0  0  0  0  0  0  0
   63.5360   33.2440   51.0790 C   0  0  0  0  0  0  0  0  0  0  0  0
   64.5390   32.7030   50.3340 C   0  0  0  0  0  0  0  0  0  0  0  0
   64.4460   32.7930   48.9630 C   0  0  0  0  0  0  0  0  0  0  0  0
   63.3650   33.4160   48.3310 C   0  0  0  0  0  0  0  0  0  0  0  0
   63.3090   33.4880   46.8460 C   0  0  0  0  0  0  0  0  0  0  0  0
   59.5530   32.9860   47.8230 C   0  0  0  0  0  0  0  0  0  0  0  0
   59.7700   32.1320   48.9200 N   0  0  0  0  0  0  0  0  0  0  0  0
   60.0730   30.4460   48.8130 S   0  0  0  0  0  0  0  0  0  0  0  0
   59.2240   29.6940   49.8270 O   0  0  0  0  0  0  0  0  0  0  0  0
   61.5100   30.0860   49.0880 O   0  0  0  0  0  0  0  0  0  0  0  0
   59.6970   29.8380   47.2170 C   0  0  0  0  0  0  0  0  0  0  0  0
   60.6470   29.6120   46.2470 C   0  0  0  0  0  0  0  0  0  0  0  0
   60.2410   29.1310   45.0110 C   0  0  0  0  0  0  0  0  0  0  0  0
   58.9140   28.8740   44.7280 C   0  0  0  0  0  0  0  0  0  0  0  0
   57.9530   29.1010   45.7040 C   0  0  0  0  0  0  0  0  0  0  0  0
   56.6010   28.8290   45.3860 N   0  0  0  0  0  0  0  0  0  0  0  0
   55.9360   29.7580   44.8770 O   0  0  0  0  0  0  0  0  0  0  0  0
   56.0150   27.6240   45.6110 O   0  0  0  0  0  0  0  0  0  0  0  0
   58.3540   29.5790   46.9350 C   0  0  0  0  0  0  0  0  0  0  0  0
   58.5680   32.6490   46.9000 C   0  0  0  0  0  0  0  0  0  0  0  0
   58.3702   31.1866   43.7133 H   0  0  0  0  0  0  0  0  0  0  0  0
   56.9530   31.5602   42.6748 H   0  0  0  0  0  0  0  0  0  0  0  0
   58.3792   32.6522   42.6748 H   0  0  0  0  0  0  0  0  0  0  0  0
   58.8663   35.2123   44.7556 H   0  0  0  0  0  0  0  0  0  0  0  0
   60.6031   35.8280   46.3606 H   0  0  0  0  0  0  0  0  0  0  0  0
   61.6718   34.2877   51.1279 H   0  0  0  0  0  0  0  0  0  0  0  0
   63.5873   33.1844   52.1762 H   0  0  0  0  0  0  0  0  0  0  0  0
   65.3975   32.2091   50.8126 H   0  0  0  0  0  0  0  0  0  0  0  0
   65.2473   32.3612   48.3454 H   0  0  0  0  0  0  0  0  0  0  0  0
   62.6596   34.3228   46.5436 H   0  0  0  0  0  0  0  0  0  0  0  0
   64.3219   33.6486   46.4482 H   0  0  0  0  0  0  0  0  0  0  0  0
   62.9040   32.5458   46.4482 H   0  0  0  0  0  0  0  0  0  0  0  0
   59.7510   32.5530   49.8720 H   0  0  0  0  0  0  0  0  0  0  0  0
   61.7102   29.8095   46.4486 H   0  0  0  0  0  0  0  0  0  0  0  0
   60.9979   28.9490   44.2338 H   0  0  0  0  0  0  0  0  0  0  0  0
   58.6211   28.4930   43.7385 H   0  0  0  0  0  0  0  0  0  0  0  0
   57.5976   29.7603   47.7128 H   0  0  0  0  0  0  0  0  0  0  0  0
   57.9844   31.7304   47.0598 H   0  0  0  0  0  0  0  0  0  0  0  0
  1  2  1  0
  2  3  1  0
  3  4  2  0
  4  5  1  0
  5  6  2  0
  6  7  1  0
  7  8  1  0
  8  9  2  0
  9 10  1  0
 10 11  2  0
 11 12  1  0
 12 13  2  0
 13 14  1  0
  6 15  1  0
 15 16  1  0
 16 17  1  0
 17 18  2  0
 17 19  2  0
 17 20  1  0
 20 21  2  0
 21 22  1  0
 22 23  2  0
 23 24  1  0
 24 25  1  0
 25 26  2  0
 25 27  1  0
 24 28  2  0
 15 29  2  0
 29  3  1  0
 13  8  1  0
 28 20  1  0
  1 30  1  0
  1 31  1  0
  1 32  1  0
  4 33  1  0
  5 34  1  0
  9 35  1  0
 10 36  1  0
 11 37  1  0
 12 38  1  0
 14 39  1  0
 14 40  1  0
 14 41  1  0
 16 42  1  0
 21 43  1  0
 22 44  1  0
 23 45  1  0
 28 46  1  0
 29 47  1  0
M  CHG  2  25   1  27  -1
M  END
>  <smiles>  (54) 
CSc1ccc(Oc2ccccc2C)c(NS(=O)(=O)c2cccc([N+](=O)[O-])c2)c1

>  <score_type>  (54) 
oracle

>  <origin>  (54) 
adg

>  <m_score__min__energy>  (54) 
-9.6999999999999993

>  <m_primary>  (54) 
energy

$$$$
55:0
     RDKit          3D

 46 47  0  0  1  0  0  0  0  0999 V2000
   57.0180   23.7530   48.2990 C   0  0  0  0  0  0  0  0  0  0  0  0
   56.2570   24.6090   47.4900 O   0  0  0  0  0  0  0  0  0  0  0  0
   56.8960   25.6870   46.8890 C   0  0  0  0  0  0  0  0  0  0  0  0
   58.2560   25.9140   47.0180 C   0  0  0  0  0  0  0  0  0  0  0  0
   58.7960   27.0100   46.3840 C   0  0  0  0  0  0  0  0  0  0  0  0
   58.0090   27.8810   45.6270 C   0  0  0  0  0  0  0  0  0  0  0  0
   58.6190   29.0520   44.9580 C   0  0  0  0  0  0  0  0  0  0  0  0
   57.8200   30.2800   45.2080 C   0  0  0  0  0  0  0  0  0  0  0  0
   56.7400   30.5690   44.5670 N   0  0  0  0  0  0  0  0  0  0  0  0
   55.5000   30.0510   44.8550 O   0  0  0  0  0  0  0  0  0  0  0  0
   58.2940   31.2080   46.2430 C   0  0  0  0  0  0  0  0  0  0  0  0
   58.7880   30.7570   47.4520 C   0  0  0  0  0  0  0  0  0  0  0  0
   59.2320   31.6330   48.4200 C   0  0  0  0  0  0  0  0  0  0  0  0
   59.7240   31.1780   49.6250 O   0  0  0  0  0  0  0  0  0  0  0  0
   58.9320   31.2200   50.8210 C   0  0  0  0  0  0  0  0  0  0  0  0
   59.2000   32.9940   48.2160 C   0  0  0  0  0  0  0  0  0  0  0  0
   59.6540   33.8570   49.2100 O   0  0  0  0  0  0  0  0  0  0  0  0
   61.0300   34.2040   49.2250 C   0  0  0  0  0  0  0  0  0  0  0  0
   58.7090   33.4640   47.0120 C   0  0  0  0  0  0  0  0  0  0  0  0
   58.6790   34.8450   46.8110 O   0  0  0  0  0  0  0  0  0  0  0  0
   59.6840   35.3590   45.9230 C   0  0  0  0  0  0  0  0  0  0  0  0
   58.2630   32.5740   46.0420 C   0  0  0  0  0  0  0  0  0  0  0  0
   56.6340   27.6500   45.4980 C   0  0  0  0  0  0  0  0  0  0  0  0
   56.1160   26.5400   46.1450 C   0  0  0  0  0  0  0  0  0  0  0  0
   54.7360   26.3400   45.9940 O   0  0  0  0  0  0  0  0  0  0  0  0
   56.8195   23.9763   49.3576 H   0  0  0  0  0  0  0  0  0  0  0  0
   56.7445   22.7088   48.0870 H   0  0  0  0  0  0  0  0  0  0  0  0
   58.0870   23.9023   48.0870 H   0  0  0  0  0  0  0  0  0  0  0  0
   58.8878   25.2366   47.6112 H   0  0  0  0  0  0  0  0  0  0  0  0
   59.8747   27.2049   46.4758 H   0  0  0  0  0  0  0  0  0  0  0  0
   59.6373   29.1993   45.3470 H   0  0  0  0  0  0  0  0  0  0  0  0
   58.6457   28.8640   43.8745 H   0  0  0  0  0  0  0  0  0  0  0  0
   54.6970   30.5690   44.5090 H   0  0  0  0  0  0  0  0  0  0  0  0
   58.8280   29.6751   47.6467 H   0  0  0  0  0  0  0  0  0  0  0  0
   59.5927   31.1850   51.6997 H   0  0  0  0  0  0  0  0  0  0  0  0
   58.3456   32.1505   50.8400 H   0  0  0  0  0  0  0  0  0  0  0  0
   58.2505   30.3567   50.8400 H   0  0  0  0  0  0  0  0  0  0  0  0
   61.3749   34.2910   50.2659 H   0  0  0  0  0  0  0  0  0  0  0  0
   61.6104   33.4241   48.7104 H   0  0  0  0  0  0  0  0  0  0  0  0
   61.1712   35.1659   48.7104 H   0  0  0  0  0  0  0  0  0  0  0  0
   60.5115   35.7822   46.5114 H   0  0  0  0  0  0  0  0  0  0  0  0
   60.0641   34.5446   45.2887 H   0  0  0  0  0  0  0  0  0  0  0  0
   59.2462   36.1439   45.2887 H   0  0  0  0  0  0  0  0  0  0  0  0
   57.8757   32.9674   45.0906 H   0  0  0  0  0  0  0  0  0  0  0  0
   55.9925   28.3212   44.9081 H   0  0  0  0  0  0  0  0  0  0  0  0
   54.3560   25.4770   46.3650 H   0  0  0  0  0  0  0  0  0  0  0  0
  1  2  1  0
  2  3  1  0
  3  4  2  0
  4  5  1  0
  5  6  2  0
  6  7  1  0
  7  8  1  0
  8  9  2  0
  9 10  1  0
  8 11  1  0
 11 12  2  0
 12 13  1  0
 13 14  1  0
 14 15  1  0
 13 16  2  0
 16 17  1  0
 17 18  1  0
 16 19  1  0
 19 20  1  0
 20 21  1  0
 19 22  2  0
  6 23  1  0
 23 24  2  0
 24 25  1  0
 24  3  1  0
 22 11  1  0
  1 26  1  0
  1 27  1  0
  1 28  1  0
  4 29  1  0
  5 30  1  0
  7 31  1  0
  7 32  1  0
 10 33  1  0
 12 34  1  0
 15 35  1  0
 15 36  1  0
 15 37  1  0
 18 38  1  0
 18 39  1  0
 18 40  1  0
 21 41  1  0
 21 42  1  0
 21 43  1  0
 22 44  1  0
 23 45  1  0
 25 46  1  0
M  END
>  <smiles>  (55) 
COc1ccc(CC(=NO)c2cc(OC)c(OC)c(OC)c2)cc1O

>  <score_type>  (55) 
oracle

>  <origin>  (55) 
adg

>  <m_score__min__energy>  (55) 
-7.75

>  <m_primary>  (55) 
energy

$$$$
56:0
     RDKit          3D

 47 49  0  0  0  0  0  0  0  0999 V2000
   57.1520   32.0390   41.3730 C   0  0  0  0  0  0  0  0  0  0  0  0
   58.1680   32.7120   42.2410 C   0  0  0  0  0  0  0  0  0  0  0  0
   58.0390   32.2300   43.6260 C   0  0  0  0  0  0  0  0  0  0  0  0
   57.4510   30.9840   43.8580 C   0  0  0  0  0  0  0  0  0  0  0  0
   57.3110   30.4690   45.1300 C   0  0  0  0  0  0  0  0  0  0  0  0
   56.6870   29.1620   45.2730 C   0  0  0  0  0  0  0  0  0  0  0  0
   55.5310   29.0130   44.8350 O   0  0  0  0  0  0  0  0  0  0  0  0
   57.3180   28.0450   45.8790 N   0  0  0  0  0  0  0  0  0  0  0  0
   56.6370   26.7660   45.9900 C   0  0  0  0  0  0  0  0  0  0  0  0
   57.3590   25.6540   45.3270 C   0  0  0  0  0  0  0  0  0  0  0  0
   58.3270   25.0230   46.2940 C   0  0  0  0  0  0  0  0  0  0  0  0
   59.7390   25.4410   46.0630 C   0  0  0  0  0  0  0  0  0  0  0  0
   59.9200   26.8510   46.4510 N   0  0  0  0  0  0  0  0  0  0  0  0
   60.3810   27.7980   45.5910 C   0  0  0  0  0  0  0  0  0  0  0  0
   60.4050   28.9680   46.3260 C   0  0  0  0  0  0  0  0  0  0  0  0
   59.9740   28.7280   47.5820 N   0  0  0  0  0  0  0  0  0  0  0  0
   59.6750   27.4070   47.6500 C   0  0  0  0  0  0  0  0  0  0  0  0
   57.7670   31.2150   46.1940 C   0  0  0  0  0  0  0  0  0  0  0  0
   58.3530   32.4520   46.0120 C   0  0  0  0  0  0  0  0  0  0  0  0
   58.8090   33.2030   47.0930 C   0  0  0  0  0  0  0  0  0  0  0  0
   59.3860   34.4320   46.8900 C   0  0  0  0  0  0  0  0  0  0  0  0
   59.5220   34.9380   45.6140 C   0  0  0  0  0  0  0  0  0  0  0  0
   59.0580   34.1690   44.5510 C   0  0  0  0  0  0  0  0  0  0  0  0
   58.4790   32.9390   44.7280 C   0  0  0  0  0  0  0  0  0  0  0  0
   56.4014   31.5418   42.0050 H   0  0  0  0  0  0  0  0  0  0  0  0
   56.6578   32.7890   40.7379 H   0  0  0  0  0  0  0  0  0  0  0  0
   57.6498   31.2914   40.7379 H   0  0  0  0  0  0  0  0  0  0  0  0
   59.1768   32.4829   41.8672 H   0  0  0  0  0  0  0  0  0  0  0  0
   58.0020   33.7992   42.2180 H   0  0  0  0  0  0  0  0  0  0  0  0
   57.0891   30.3965   43.0013 H   0  0  0  0  0  0  0  0  0  0  0  0
   58.2990   28.1810   46.2460 H   0  0  0  0  0  0  0  0  0  0  0  0
   56.5254   26.5220   47.0568 H   0  0  0  0  0  0  0  0  0  0  0  0
   55.6664   26.8703   45.4830 H   0  0  0  0  0  0  0  0  0  0  0  0
   56.6344   24.8979   44.9905 H   0  0  0  0  0  0  0  0  0  0  0  0
   57.9145   26.0469   44.4627 H   0  0  0  0  0  0  0  0  0  0  0  0
   58.0392   25.3110   47.3158 H   0  0  0  0  0  0  0  0  0  0  0  0
   58.2781   23.9343   46.1442 H   0  0  0  0  0  0  0  0  0  0  0  0
   60.4085   24.8092   46.6651 H   0  0  0  0  0  0  0  0  0  0  0  0
   59.9776   25.3281   44.9951 H   0  0  0  0  0  0  0  0  0  0  0  0
   60.6717   27.6623   44.5388 H   0  0  0  0  0  0  0  0  0  0  0  0
   60.7272   29.9481   45.9444 H   0  0  0  0  0  0  0  0  0  0  0  0
   59.2957   26.8791   48.5374 H   0  0  0  0  0  0  0  0  0  0  0  0
   57.6619   30.8158   47.2136 H   0  0  0  0  0  0  0  0  0  0  0  0
   58.7062   32.8091   48.1149 H   0  0  0  0  0  0  0  0  0  0  0  0
   59.7423   35.0172   47.7506 H   0  0  0  0  0  0  0  0  0  0  0  0
   59.9840   35.9213   45.4416 H   0  0  0  0  0  0  0  0  0  0  0  0
   59.1597   34.5633   43.5292 H   0  0  0  0  0  0  0  0  0  0  0  0
  1  2  1  0
  2  3  1  0
  3  4  2  0
  4  5  1  0
  5  6  1  0
  6  7  2  0
  6  8  1  0
  8  9  1  0
  9 10  1  0
 10 11  1  0
 11 12  1  0
 12 13  1  0
 13 14  1  0
 14 15  2  0
 15 16  1  0
 16 17  2  0
  5 18  2  0
 18 19  1  0
 19 20  2  0
 20 21  1  0
 21 22  2  0
 22 23  1  0
 23 24  2  0
 24  3  1  0
 17 13  1  0
 24 19  1  0
  1 25  1  0
  1 26  1  0
  1 27  1  0
  2 28  1  0
  2 29  1  0
  4 30  1  0
  8 31  1  0
  9 32  1  0
  9 33  1  0
 10 34  1  0
 10 35  1  0
 11 36  1  0
 11 37  1  0
 12 38  1  0
 12 39  1  0
 14 40  1  0
 15 41  1  0
 17 42  1  0
 18 43  1  0
 20 44  1  0
 21 45  1  0
 22 46  1  0
 23 47  1  0
M  END
>  <smiles>  (56) 
CCc1cc(C(=O)NCCCCn2ccnc2)cc2ccccc12

>  <score_type>  (56) 
oracle

>  <origin>  (56) 
adg

>  <m_score__min__energy>  (56) 
-8.0500000000000007

>  <m_primary>  (56) 
energy

$$$$
57:0
     RDKit          3D

 53 55  0  0  0  0  0  0  0  0999 V2000
   57.4830   32.1250   42.5490 C   0  0  0  0  0  0  0  0  0  0  0  0
   58.1470   32.6860   43.5510 C   0  0  0  0  0  0  0  0  0  0  0  0
   57.5190   33.0220   44.8490 C   0  0  0  0  0  0  0  0  0  0  0  0
   58.5690   33.2460   45.8640 C   0  0  0  0  0  0  0  0  0  0  0  0
   59.6770   33.9880   45.5590 C   0  0  0  0  0  0  0  0  0  0  0  0
   60.6870   34.2200   46.4860 C   0  0  0  0  0  0  0  0  0  0  0  0
   60.5410   33.6670   47.7610 C   0  0  0  0  0  0  0  0  0  0  0  0
   61.5730   33.9250   48.6530 O   0  0  0  0  0  0  0  0  0  0  0  0
   62.8900   33.5650   48.4590 C   0  0  0  0  0  0  0  0  0  0  0  0
   63.4400   32.4310   49.2520 C   0  0  0  0  0  0  0  0  0  0  0  0
   63.6440   34.1520   47.6420 O   0  0  0  0  0  0  0  0  0  0  0  0
   59.4330   32.9130   48.1000 C   0  0  0  0  0  0  0  0  0  0  0  0
   59.3080   32.3530   49.4230 C   0  0  0  0  0  0  0  0  0  0  0  0
   58.9460   33.2310   50.4490 C   0  0  0  0  0  0  0  0  0  0  0  0
   58.7980   32.7980   51.7550 C   0  0  0  0  0  0  0  0  0  0  0  0
   59.0150   31.4650   52.0340 C   0  0  0  0  0  0  0  0  0  0  0  0
   59.3720   30.5840   51.0340 C   0  0  0  0  0  0  0  0  0  0  0  0
   59.5180   31.0250   49.7330 C   0  0  0  0  0  0  0  0  0  0  0  0
   59.8770   30.1690   48.6990 O   0  0  0  0  0  0  0  0  0  0  0  0
   58.9930   29.1500   48.3170 C   0  0  0  0  0  0  0  0  0  0  0  0
   58.8070   29.1010   46.8350 C   0  0  0  0  0  0  0  0  0  0  0  0
   59.9170   28.6910   46.0910 C   0  0  0  0  0  0  0  0  0  0  0  0
   59.8470   28.6120   44.7190 C   0  0  0  0  0  0  0  0  0  0  0  0
   58.6540   28.9490   44.1190 C   0  0  0  0  0  0  0  0  0  0  0  0
   57.5390   29.3590   44.8410 C   0  0  0  0  0  0  0  0  0  0  0  0
   56.2540   29.7180   44.1530 C   0  0  0  0  0  0  0  0  0  0  0  0
   55.1710   29.3560   44.9430 O   0  0  0  0  0  0  0  0  0  0  0  0
   57.6220   29.4340   46.2190 C   0  0  0  0  0  0  0  0  0  0  0  0
   58.4420   32.7050   47.1330 C   0  0  0  0  0  0  0  0  0  0  0  0
   58.0006   31.8969   41.6056 H   0  0  0  0  0  0  0  0  0  0  0  0
   56.4148   31.8879   42.6615 H   0  0  0  0  0  0  0  0  0  0  0  0
   59.2143   32.9122   43.4110 H   0  0  0  0  0  0  0  0  0  0  0  0
   56.9159   33.9352   44.7384 H   0  0  0  0  0  0  0  0  0  0  0  0
   56.8732   32.1908   45.1685 H   0  0  0  0  0  0  0  0  0  0  0  0
   59.7718   34.4142   44.5494 H   0  0  0  0  0  0  0  0  0  0  0  0
   61.5717   34.8190   46.2244 H   0  0  0  0  0  0  0  0  0  0  0  0
   63.3344   32.6487   50.3251 H   0  0  0  0  0  0  0  0  0  0  0  0
   62.8878   31.5114   49.0084 H   0  0  0  0  0  0  0  0  0  0  0  0
   64.5041   32.2952   49.0084 H   0  0  0  0  0  0  0  0  0  0  0  0
   58.7747   34.2915   50.2124 H   0  0  0  0  0  0  0  0  0  0  0  0
   58.5139   33.5008   52.5521 H   0  0  0  0  0  0  0  0  0  0  0  0
   58.9022   31.1000   53.0655 H   0  0  0  0  0  0  0  0  0  0  0  0
   59.5414   29.5240   51.2741 H   0  0  0  0  0  0  0  0  0  0  0  0
   59.3950   28.1843   48.6572 H   0  0  0  0  0  0  0  0  0  0  0  0
   58.0153   29.3564   48.7769 H   0  0  0  0  0  0  0  0  0  0  0  0
   60.8532   28.4296   46.6059 H   0  0  0  0  0  0  0  0  0  0  0  0
   60.7136   28.2909   44.1223 H   0  0  0  0  0  0  0  0  0  0  0  0
   58.5804   28.8913   43.0230 H   0  0  0  0  0  0  0  0  0  0  0  0
   56.2277   30.8032   43.9752 H   0  0  0  0  0  0  0  0  0  0  0  0
   56.1963   29.1796   43.1955 H   0  0  0  0  0  0  0  0  0  0  0  0
   54.7250   28.5880   44.5110 H   0  0  0  0  0  0  0  0  0  0  0  0
   56.7543   29.7549   46.8140 H   0  0  0  0  0  0  0  0  0  0  0  0
   57.5539   32.1062   47.3834 H   0  0  0  0  0  0  0  0  0  0  0  0
  1  2  2  0
  2  3  1  0
  3  4  1  0
  4  5  2  0
  5  6  1  0
  6  7  2  0
  7  8  1  0
  8  9  1  0
  9 10  1  0
  9 11  2  0
  7 12  1  0
 12 13  1  0
 13 14  2  0
 14 15  1  0
 15 16  2  0
 16 17  1  0
 17 18  2  0
 18 19  1  0
 19 20  1  0
 20 21  1  0
 21 22  2  0
 22 23  1  0
 23 24  2  0
 24 25  1  0
 25 26  1  0
 26 27  1  0
 25 28  2  0
 12 29  2  0
 29  4  1  0
 18 13  1  0
 28 21  1  0
  1 30  1  0
  1 31  1  0
  2 32  1  0
  3 33  1  0
  3 34  1  0
  5 35  1  0
  6 36  1  0
 10 37  1  0
 10 38  1  0
 10 39  1  0
 14 40  1  0
 15 41  1  0
 16 42  1  0
 17 43  1  0
 20 44  1  0
 20 45  1  0
 22 46  1  0
 23 47  1  0
 24 48  1  0
 26 49  1  0
 26 50  1  0
 27 51  1  0
 28 52  1  0
 29 53  1  0
M  END
>  <smiles>  (57) 
C=CCc1ccc(OC(C)=O)c(-c2ccccc2OCc2cccc(CO)c2)c1

>  <score_type>  (57) 
oracle

>  <origin>  (57) 
adg

>  <m_score__min__energy>  (57) 
-8.9900000000000002

>  <m_primary>  (57) 
energy

$$$$
58:0
     RDKit          3D

 46 48  0  0  1  0  0  0  0  0999 V2000
   58.5190   29.8970   47.3680 C   0  0  0  0  0  0  0  0  0  0  0  0
   58.7730   29.3300   46.0900 N   0  0  0  0  0  0  0  0  0  0  0  0
   58.0410   28.1290   45.8380 C   0  0  0  0  0  0  0  0  0  0  0  0
   56.8780   28.4040   44.8950 C   0  0  0  0  0  0  0  0  0  0  0  0
   56.1230   29.4850   45.2960 O   0  0  0  0  0  0  0  0  0  0  0  0
   58.7900   30.2160   44.9790 C   0  0  0  0  0  0  0  0  0  0  0  0
   58.3670   31.5930   45.2370 C   0  0  0  0  0  0  0  0  0  0  0  0
   59.2530   32.5640   45.7200 C   0  0  0  0  0  0  0  0  0  0  0  0
   58.8250   33.8450   45.9540 C   0  0  0  0  0  0  0  0  0  0  0  0
   59.7650   34.8210   46.4530 N   0  0  0  0  0  0  0  0  0  0  0  0
   60.7240   34.4700   47.2600 C   0  0  0  0  0  0  0  0  0  0  0  0
   61.8440   33.9290   46.6650 C   0  0  0  0  0  0  0  0  0  0  0  0
   62.8890   33.5410   47.4680 C   0  0  0  0  0  0  0  0  0  0  0  0
   62.8290   33.6880   48.8370 C   0  0  0  0  0  0  0  0  0  0  0  0
   63.9060   33.2950   49.7380 C   0  0  0  0  0  0  0  0  0  0  0  0
   64.0360   33.8020   51.0120 C   0  0  0  0  0  0  0  0  0  0  0  0
   65.0710   33.4200   51.8660 C   0  0  0  0  0  0  0  0  0  0  0  0
   66.0010   32.4970   51.4190 C   0  0  0  0  0  0  0  0  0  0  0  0
   65.8430   32.0090   50.1390 C   0  0  0  0  0  0  0  0  0  0  0  0
   64.8400   32.3880   49.3270 N   0  0  0  0  0  0  0  0  0  0  0  0
   61.6780   34.2360   49.3610 C   0  0  0  0  0  0  0  0  0  0  0  0
   60.6340   34.6270   48.5960 N   0  0  0  0  0  0  0  0  0  0  0  0
   57.5100   34.1870   45.7140 C   0  0  0  0  0  0  0  0  0  0  0  0
   56.6850   33.1900   45.2390 C   0  0  0  0  0  0  0  0  0  0  0  0
   57.0860   31.9330   45.0040 N   0  0  0  0  0  0  0  0  0  0  0  0
   58.8348   29.1921   48.1512 H   0  0  0  0  0  0  0  0  0  0  0  0
   59.0825   30.8361   47.4710 H   0  0  0  0  0  0  0  0  0  0  0  0
   57.4431   30.1017   47.4710 H   0  0  0  0  0  0  0  0  0  0  0  0
   58.7105   27.3857   45.3805 H   0  0  0  0  0  0  0  0  0  0  0  0
   57.6453   27.7460   46.7902 H   0  0  0  0  0  0  0  0  0  0  0  0
   57.2775   28.6050   43.8900 H   0  0  0  0  0  0  0  0  0  0  0  0
   56.2256   27.5184   44.8986 H   0  0  0  0  0  0  0  0  0  0  0  0
   56.6100   30.0500   45.9580 H   0  0  0  0  0  0  0  0  0  0  0  0
   59.8197   30.2491   44.5934 H   0  0  0  0  0  0  0  0  0  0  0  0
   58.0509   29.8114   44.2719 H   0  0  0  0  0  0  0  0  0  0  0  0
   60.3022   32.2962   45.9134 H   0  0  0  0  0  0  0  0  0  0  0  0
   61.8995   33.8108   45.5728 H   0  0  0  0  0  0  0  0  0  0  0  0
   63.7894   33.1054   47.0103 H   0  0  0  0  0  0  0  0  0  0  0  0
   63.2971   34.5345   51.3690 H   0  0  0  0  0  0  0  0  0  0  0  0
   65.1468   33.8451   52.8777 H   0  0  0  0  0  0  0  0  0  0  0  0
   66.8323   32.1663   52.0590 H   0  0  0  0  0  0  0  0  0  0  0  0
   66.5717   31.2751   49.7643 H   0  0  0  0  0  0  0  0  0  0  0  0
   61.6055   34.3610   50.4515 H   0  0  0  0  0  0  0  0  0  0  0  0
   59.7620   35.0430   48.9990 H   0  0  0  0  0  0  0  0  0  0  0  0
   57.1378   35.2065   45.8931 H   0  0  0  0  0  0  0  0  0  0  0  0
   55.6327   33.4417   45.0406 H   0  0  0  0  0  0  0  0  0  0  0  0
  1  2  1  0
  2  3  1  0
  3  4  1  0
  4  5  1  0
  2  6  1  0
  6  7  1  0
  7  8  2  0
  8  9  1  0
  9 10  1  0
 10 11  2  0
 11 12  1  0
 12 13  2  0
 13 14  1  0
 14 15  1  0
 15 16  2  0
 16 17  1  0
 17 18  2  0
 18 19  1  0
 19 20  2  0
 14 21  2  0
 21 22  1  0
  9 23  2  0
 23 24  1  0
 24 25  2  0
 25  7  1  0
 22 11  1  0
 20 15  1  0
  1 26  1  0
  1 27  1  0
  1 28  1  0
  3 29  1  0
  3 30  1  0
  4 31  1  0
  4 32  1  0
  5 33  1  0
  6 34  1  0
  6 35  1  0
  8 36  1  0
 12 37  1  0
 13 38  1  0
 16 39  1  0
 17 40  1  0
 18 41  1  0
 19 42  1  0
 21 43  1  0
 22 44  1  0
 23 45  1  0
 24 46  1  0
M  END
>  <smiles>  (58) 
CN(CCO)Cc1cc(N=c2ccc(-c3ccccn3)c[nH]2)ccn1

>  <score_type>  (58) 
oracle

>  <origin>  (58) 
adg

>  <m_score__min__energy>  (58) 
-8.1500000000000004

>  <m_primary>  (58) 
energy

$$$$
59:0
     RDKit          3D

 26 27  0  0  1  0  0  0  0  0999 V2000
   60.1130   33.7710   49.6980 F   0  0  0  0  0  0  0  0  0  0  0  0
   59.6040   33.7960   48.4470 C   0  0  0  0  0  0  0  0  0  0  0  0
   58.5100   33.0420   48.0710 C   0  0  0  0  0  0  0  0  0  0  0  0
   57.9770   33.0520   46.8110 C   0  0  0  0  0  0  0  0  0  0  0  0
   58.5240   33.8430   45.8220 C   0  0  0  0  0  0  0  0  0  0  0  0
   57.9900   33.7070   44.4950 C   0  0  0  0  0  0  0  0  0  0  0  0
   57.9520   32.6700   43.7360 C   0  0  0  0  0  0  0  0  0  0  0  0
   57.8740   31.2830   44.0850 C   0  0  0  0  0  0  0  0  0  0  0  0
   58.8690   30.4440   44.5000 C   0  0  0  0  0  0  0  0  0  0  0  0
   58.6680   29.1370   44.9170 C   0  0  0  0  0  0  0  0  0  0  0  0
   57.3960   28.6050   44.9270 C   0  0  0  0  0  0  0  0  0  0  0  0
   56.3780   29.4360   44.5100 C   0  0  0  0  0  0  0  0  0  0  0  0
   55.1090   28.9640   44.5020 F   0  0  0  0  0  0  0  0  0  0  0  0
   56.5840   30.7290   44.0990 C   0  0  0  0  0  0  0  0  0  0  0  0
   59.6190   34.5970   46.1910 C   0  0  0  0  0  0  0  0  0  0  0  0
   60.1590   34.5900   47.4650 C   0  0  0  0  0  0  0  0  0  0  0  0
   58.0402   32.3965   48.8277 H   0  0  0  0  0  0  0  0  0  0  0  0
   57.1035   32.4230   46.5843 H   0  0  0  0  0  0  0  0  0  0  0  0
   57.5511   34.6205   44.0675 H   0  0  0  0  0  0  0  0  0  0  0  0
   57.9842   32.8793   42.6566 H   0  0  0  0  0  0  0  0  0  0  0  0
   59.8986   30.8312   44.5036 H   0  0  0  0  0  0  0  0  0  0  0  0
   59.5230   28.5248   45.2397 H   0  0  0  0  0  0  0  0  0  0  0  0
   57.2035   27.5715   45.2508 H   0  0  0  0  0  0  0  0  0  0  0  0
   55.7275   31.3392   43.7764 H   0  0  0  0  0  0  0  0  0  0  0  0
   60.0884   35.2388   45.4309 H   0  0  0  0  0  0  0  0  0  0  0  0
   61.0320   35.2184   47.6950 H   0  0  0  0  0  0  0  0  0  0  0  0
  1  2  1  0
  2  3  2  0
  3  4  1  0
  4  5  2  0
  5  6  1  0
  6  7  2  0
  7  8  1  0
  8  9  2  0
  9 10  1  0
 10 11  2  0
 11 12  1  0
 12 13  1  0
 12 14  2  0
  5 15  1  0
 15 16  2  0
 16  2  1  0
 14  8  1  0
  3 17  1  0
  4 18  1  0
  6 19  1  0
  7 20  1  0
  9 21  1  0
 10 22  1  0
 11 23  1  0
 14 24  1  0
 15 25  1  0
 16 26  1  0
M  END
>  <smiles>  (59) 
Fc1ccc(C=Cc2cccc(F)c2)cc1

>  <score_type>  (59) 
oracle

>  <origin>  (59) 
adg

>  <m_score__min__energy>  (59) 
-6.3799999999999999

>  <m_primary>  (59) 
energy

$$$$
60:0
     RDKit          3D

 40 42  0  0  1  0  0  0  0  0999 V2000
   58.7080   29.9180   47.6320 C   0  0  0  0  0  0  0  0  0  0  0  0
   58.2970   31.0690   46.9380 O   0  0  0  0  0  0  0  0  0  0  0  0
   59.0380   32.2660   46.9390 C   0  0  0  0  0  0  0  0  0  0  0  0
   60.1710   32.3380   47.7040 C   0  0  0  0  0  0  0  0  0  0  0  0
   60.9540   33.4700   47.7610 C   0  0  0  0  0  0  0  0  0  0  0  0
   62.1150   33.4990   48.5660 N   0  0  0  0  0  0  0  0  0  0  0  0
   62.0720   33.9120   49.8430 C   0  0  0  0  0  0  0  0  0  0  0  0
   63.2650   33.9000   50.5420 C   0  0  0  0  0  0  0  0  0  0  0  0
   64.4420   33.4960   49.9920 C   0  0  0  0  0  0  0  0  0  0  0  0
   64.4520   33.0780   48.6810 C   0  0  0  0  0  0  0  0  0  0  0  0
   63.2690   33.0920   47.9950 C   0  0  0  0  0  0  0  0  0  0  0  0
   63.2770   32.7060   46.7820 O   0  0  0  0  0  0  0  0  0  0  0  0
   60.5610   34.5380   47.0170 C   0  0  0  0  0  0  0  0  0  0  0  0
   59.3970   34.4700   46.2290 C   0  0  0  0  0  0  0  0  0  0  0  0
   58.6100   33.3540   46.1660 C   0  0  0  0  0  0  0  0  0  0  0  0
   57.4630   33.1220   45.3410 C   0  0  0  0  0  0  0  0  0  0  0  0
   57.3650   32.3620   44.2910 C   0  0  0  0  0  0  0  0  0  0  0  0
   57.0210   30.9730   44.2360 C   0  0  0  0  0  0  0  0  0  0  0  0
   55.9710   30.3910   44.5500 O   0  0  0  0  0  0  0  0  0  0  0  0
   58.0500   30.0880   43.7340 N   0  0  0  0  0  0  0  0  0  0  0  0
   58.1840   28.9900   44.3590 C   0  0  0  0  0  0  0  0  0  0  0  0
   57.3210   28.0790   44.7180 N   0  0  0  0  0  0  0  0  0  0  0  0
   57.6690   27.0060   45.3650 C   0  0  0  0  0  0  0  0  0  0  0  0
   59.0100   26.8390   45.6790 C   0  0  0  0  0  0  0  0  0  0  0  0
   59.8210   28.3690   44.9720 S   0  0  0  0  0  0  0  0  0  0  0  0
   58.6430   30.1000   48.7149 H   0  0  0  0  0  0  0  0  0  0  0  0
   58.0555   29.0746   47.3621 H   0  0  0  0  0  0  0  0  0  0  0  0
   59.7472   29.6786   47.3621 H   0  0  0  0  0  0  0  0  0  0  0  0
   60.4673   31.4590   48.2953 H   0  0  0  0  0  0  0  0  0  0  0  0
   61.1331   34.2438   50.3104 H   0  0  0  0  0  0  0  0  0  0  0  0
   63.2623   34.2323   51.5906 H   0  0  0  0  0  0  0  0  0  0  0  0
   65.3687   33.5034   50.5845 H   0  0  0  0  0  0  0  0  0  0  0  0
   65.3827   32.7430   48.1997 H   0  0  0  0  0  0  0  0  0  0  0  0
   61.1574   35.4622   47.0311 H   0  0  0  0  0  0  0  0  0  0  0  0
   59.1082   35.3522   45.6388 H   0  0  0  0  0  0  0  0  0  0  0  0
   56.5467   33.6557   45.6334 H   0  0  0  0  0  0  0  0  0  0  0  0
   57.5720   32.8458   43.3250 H   0  0  0  0  0  0  0  0  0  0  0  0
   56.2650   28.2350   44.4570 H   0  0  0  0  0  0  0  0  0  0  0  0
   56.9218   26.2526   45.6549 H   0  0  0  0  0  0  0  0  0  0  0  0
   59.4840   26.0045   46.2165 H   0  0  0  0  0  0  0  0  0  0  0  0
  1  2  1  0
  2  3  1  0
  3  4  2  0
  4  5  1  0
  5  6  1  0
  6  7  1  0
  7  8  2  0
  8  9  1  0
  9 10  2  0
 10 11  1  0
 11 12  2  0
  5 13  2  0
 13 14  1  0
 14 15  2  0
 15 16  1  0
 16 17  2  0
 17 18  1  0
 18 19  2  0
 18 20  1  0
 20 21  2  0
 21 22  1  0
 22 23  1  0
 23 24  2  0
 24 25  1  0
 15  3  1  0
 25 21  1  0
 11  6  1  0
  1 26  1  0
  1 27  1  0
  1 28  1  0
  4 29  1  0
  7 30  1  0
  8 31  1  0
  9 32  1  0
 10 33  1  0
 13 34  1  0
 14 35  1  0
 16 36  1  0
 17 37  1  0
 22 38  1  0
 23 39  1  0
 24 40  1  0
M  END
>  <smiles>  (60) 
COc1cc(-n2ccccc2=O)ccc1C=CC(=O)N=c1[nH]ccs1

>  <score_type>  (60) 
oracle

>  <origin>  (60) 
adg

>  <m_score__min__energy>  (60) 
-8.2200000000000006

>  <m_primary>  (60) 
energy

$$$$
61:0
     RDKit          3D

 71 75  0  0  1  0  0  0  0  0999 V2000
   57.0540   29.2600   43.1610 N   0  0  0  0  0  0  0  0  0  0  0  0
   56.9000   30.0490   44.3760 C   0  0  0  0  0  0  0  0  0  0  0  0
   55.7160   30.2760   44.6660 O   0  0  0  0  0  0  0  0  0  0  0  0
   58.1060   30.4370   45.0330 C   0  0  0  0  0  0  0  0  0  0  0  0
   58.3220   31.7450   45.5090 C   0  0  0  0  0  0  0  0  0  0  0  0
   59.5270   31.8230   46.0920 N   0  0  0  0  0  0  0  0  0  0  0  0
   60.0650   33.0460   46.6910 C   0  0  0  0  0  0  0  0  0  0  0  0
   61.3950   32.6940   47.2360 C   0  0  0  0  0  0  0  0  0  0  0  0
   61.4280   31.8410   48.3180 C   0  0  0  0  0  0  0  0  0  0  0  0
   62.6470   31.4890   48.8640 C   0  0  0  0  0  0  0  0  0  0  0  0
   63.8300   31.9650   48.3560 C   0  0  0  0  0  0  0  0  0  0  0  0
   63.8210   32.8120   47.2830 C   0  0  0  0  0  0  0  0  0  0  0  0
   62.5890   33.1590   46.7440 C   0  0  0  0  0  0  0  0  0  0  0  0
   59.1580   33.4020   47.8430 C   0  0  0  0  0  0  0  0  0  0  0  0
   59.3040   34.8540   48.2460 C   0  0  0  0  0  0  0  0  0  0  0  0
   58.9320   35.6510   47.0920 N   0  0  0  0  0  0  0  0  0  0  0  0
   59.9850   35.4830   46.1070 C   0  0  0  0  0  0  0  0  0  0  0  0
   60.0740   34.0670   45.6090 C   0  0  0  0  0  0  0  0  0  0  0  0
   60.0870   30.6410   46.0160 N   0  0  0  0  0  0  0  0  0  0  0  0
   59.2470   29.7690   45.3770 C   0  0  0  0  0  0  0  0  0  0  0  0
   59.5260   28.5530   45.2440 N   0  0  0  0  0  0  0  0  0  0  0  0
   58.6220   27.5100   45.4140 C   0  0  0  0  0  0  0  0  0  0  0  0
   57.9960   27.3500   46.6490 C   0  0  0  0  0  0  0  0  0  0  0  0
   57.0460   26.3420   46.7520 C   0  0  0  0  0  0  0  0  0  0  0  0
   56.7130   25.5190   45.7000 C   0  0  0  0  0  0  0  0  0  0  0  0
   55.5100   24.2960   45.9700 S   0  0  0  0  0  0  0  0  0  0  0  0
   55.5560   23.8740   47.4120 O   0  0  0  0  0  0  0  0  0  0  0  0
   54.1280   24.8580   45.7260 O   0  0  0  0  0  0  0  0  0  0  0  0
   55.6880   22.9510   44.9210 N   0  0  0  0  0  0  0  0  0  0  0  0
   56.3810   21.8920   45.6130 C   0  0  0  0  0  0  0  0  0  0  0  0
   57.8670   22.0250   45.5300 C   0  0  0  0  0  0  0  0  0  0  0  0
   58.3310   22.0220   44.1160 C   0  0  0  0  0  0  0  0  0  0  0  0
   57.3910   21.4630   43.1110 C   0  0  0  0  0  0  0  0  0  0  0  0
   56.4610   20.4020   43.5920 C   0  0  0  0  0  0  0  0  0  0  0  0
   56.0340   20.5340   45.0190 C   0  0  0  0  0  0  0  0  0  0  0  0
   57.3610   25.7220   44.5080 C   0  0  0  0  0  0  0  0  0  0  0  0
   58.3210   26.7050   44.3210 C   0  0  0  0  0  0  0  0  0  0  0  0
   56.4230   28.4590   43.0840 H   0  0  0  0  0  0  0  0  0  0  0  0
   57.7610   29.5420   42.4770 H   0  0  0  0  0  0  0  0  0  0  0  0
   57.6091   32.5776   45.4164 H   0  0  0  0  0  0  0  0  0  0  0  0
   60.4936   31.4448   48.7422 H   0  0  0  0  0  0  0  0  0  0  0  0
   62.6703   30.8094   49.7286 H   0  0  0  0  0  0  0  0  0  0  0  0
   64.7850   31.6650   48.8121 H   0  0  0  0  0  0  0  0  0  0  0  0
   64.7576   33.2053   46.8609 H   0  0  0  0  0  0  0  0  0  0  0  0
   62.5691   33.8400   45.8803 H   0  0  0  0  0  0  0  0  0  0  0  0
   58.1152   33.2184   47.5450 H   0  0  0  0  0  0  0  0  0  0  0  0
   59.4388   32.7783   48.7045 H   0  0  0  0  0  0  0  0  0  0  0  0
   58.6389   35.0804   49.0924 H   0  0  0  0  0  0  0  0  0  0  0  0
   60.3349   35.0736   48.5605 H   0  0  0  0  0  0  0  0  0  0  0  0
   58.8880   36.6660   47.3130 H   0  0  0  0  0  0  0  0  0  0  0  0
   59.7816   36.1468   45.2538 H   0  0  0  0  0  0  0  0  0  0  0  0
   60.9419   35.7332   46.5885 H   0  0  0  0  0  0  0  0  0  0  0  0
   59.2159   33.8780   44.9472 H   0  0  0  0  0  0  0  0  0  0  0  0
   61.0381   33.9717   45.0879 H   0  0  0  0  0  0  0  0  0  0  0  0
   61.0450   30.4140   46.3960 H   0  0  0  0  0  0  0  0  0  0  0  0
   58.2437   27.9944   47.5054 H   0  0  0  0  0  0  0  0  0  0  0  0
   56.5376   26.1949   47.7163 H   0  0  0  0  0  0  0  0  0  0  0  0
   56.1020   23.1970   44.0150 H   0  0  0  0  0  0  0  0  0  0  0  0
   56.0569   21.9700   46.6613 H   0  0  0  0  0  0  0  0  0  0  0  0
   58.1694   22.9702   46.0045 H   0  0  0  0  0  0  0  0  0  0  0  0
   58.3222   21.1674   46.0471 H   0  0  0  0  0  0  0  0  0  0  0  0
   58.5436   23.0632   43.8319 H   0  0  0  0  0  0  0  0  0  0  0  0
   59.2060   21.3557   44.0983 H   0  0  0  0  0  0  0  0  0  0  0  0
   56.7810   22.2931   42.7252 H   0  0  0  0  0  0  0  0  0  0  0  0
   58.0257   20.9753   42.3565 H   0  0  0  0  0  0  0  0  0  0  0  0
   55.5593   20.4278   42.9624 H   0  0  0  0  0  0  0  0  0  0  0  0
   57.0150   19.4542   43.5238 H   0  0  0  0  0  0  0  0  0  0  0  0
   54.9444   20.3936   45.0747 H   0  0  0  0  0  0  0  0  0  0  0  0
   56.5728   19.7703   45.5990 H   0  0  0  0  0  0  0  0  0  0  0  0
   57.1062   25.0723   43.6577 H   0  0  0  0  0  0  0  0  0  0  0  0
   58.8220   26.8418   43.3513 H   0  0  0  0  0  0  0  0  0  0  0  0
  1  2  1  0
  2  3  2  0
  2  4  1  0
  4  5  2  0
  5  6  1  0
  6  7  1  0
  7  8  1  0
  8  9  2  0
  9 10  1  0
 10 11  2  0
 11 12  1  0
 12 13  2  0
  7 14  1  0
 14 15  1  0
 15 16  1  0
 16 17  1  0
 17 18  1  0
  6 19  1  0
 19 20  1  0
 20 21  2  0
 21 22  1  0
 22 23  2  0
 23 24  1  0
 24 25  2  0
 25 26  1  0
 26 27  2  0
 26 28  2  0
 26 29  1  0
 29 30  1  0
 30 31  1  0
 31 32  1  0
 32 33  1  0
 33 34  1  0
 34 35  1  0
 25 36  1  0
 36 37  2  0
 20  4  1  0
 37 22  1  0
 18  7  1  0
 35 30  1  0
 13  8  1  0
  1 38  1  0
  1 39  1  0
  5 40  1  0
  9 41  1  0
 10 42  1  0
 11 43  1  0
 12 44  1  0
 13 45  1  0
 14 46  1  0
 14 47  1  0
 15 48  1  0
 15 49  1  0
 16 50  1  0
 17 51  1  0
 17 52  1  0
 18 53  1  0
 18 54  1  0
 19 55  1  0
 23 56  1  0
 24 57  1  0
 29 58  1  0
 30 59  1  0
 31 60  1  0
 31 61  1  0
 32 62  1  0
 32 63  1  0
 33 64  1  0
 33 65  1  0
 34 66  1  0
 34 67  1  0
 35 68  1  0
 35 69  1  0
 36 70  1  0
 37 71  1  0
M  END
>  <smiles>  (61) 
NC(=O)c1cn(C2(c3ccccc3)CCNCC2)[nH]c1=Nc1ccc(S(=O)(=O)NC2CCCCC2)cc1

>  <score_type>  (61) 
oracle

>  <origin>  (61) 
adg

>  <m_score__min__energy>  (61) 
-11.279999999999999

>  <m_primary>  (61) 
energy

$$$$
62:0
     RDKit          3D

 43 44  0  0  1  0  0  0  0  0999 V2000
   57.9480   21.4680   43.8090 C   0  0  0  0  0  0  0  0  0  0  0  0
   56.7440   21.7270   42.9530 C   0  0  0  0  0  0  0  0  0  0  0  0
   55.9460   22.7470   43.4900 O   0  0  0  0  0  0  0  0  0  0  0  0
   56.4190   23.9330   44.0290 C   0  0  0  0  0  0  0  0  0  0  0  0
   56.0370   24.3030   45.3000 C   0  0  0  0  0  0  0  0  0  0  0  0
   56.4680   25.4630   45.8940 C   0  0  0  0  0  0  0  0  0  0  0  0
   57.3170   26.3230   45.2350 C   0  0  0  0  0  0  0  0  0  0  0  0
   57.8120   27.5300   45.7570 N   0  0  0  0  0  0  0  0  0  0  0  0
   57.1750   28.7950   45.6110 C   0  0  0  0  0  0  0  0  0  0  0  0
   56.0590   28.8270   44.9520 O   0  0  0  0  0  0  0  0  0  0  0  0
   57.6300   30.0140   46.0990 N   0  0  0  0  0  0  0  0  0  0  0  0
   57.8080   31.0540   45.4340 C   0  0  0  0  0  0  0  0  0  0  0  0
   57.5550   30.9660   44.0880 N   0  0  0  0  0  0  0  0  0  0  0  0
   57.7070   31.9960   43.2520 C   0  0  0  0  0  0  0  0  0  0  0  0
   57.4280   31.8770   41.8020 C   0  0  0  0  0  0  0  0  0  0  0  0
   58.1370   33.1890   43.7840 C   0  0  0  0  0  0  0  0  0  0  0  0
   58.3960   33.3020   45.1300 C   0  0  0  0  0  0  0  0  0  0  0  0
   58.8680   34.6300   45.6650 C   0  0  0  0  0  0  0  0  0  0  0  0
   58.2400   32.2230   46.0190 C   0  0  0  0  0  0  0  0  0  0  0  0
   58.5330   32.4000   47.4400 C   0  0  0  0  0  0  0  0  0  0  0  0
   57.7200   25.9720   43.9470 C   0  0  0  0  0  0  0  0  0  0  0  0
   57.2710   24.7880   43.3610 C   0  0  0  0  0  0  0  0  0  0  0  0
   57.6637   21.5292   44.8699 H   0  0  0  0  0  0  0  0  0  0  0  0
   58.3428   20.4644   43.5925 H   0  0  0  0  0  0  0  0  0  0  0  0
   58.7206   22.2205   43.5925 H   0  0  0  0  0  0  0  0  0  0  0  0
   57.0767   22.0243   41.9475 H   0  0  0  0  0  0  0  0  0  0  0  0
   56.1453   20.8053   42.9086 H   0  0  0  0  0  0  0  0  0  0  0  0
   55.3596   23.6425   45.8611 H   0  0  0  0  0  0  0  0  0  0  0  0
   56.1300   25.7089   46.9115 H   0  0  0  0  0  0  0  0  0  0  0  0
   58.7180   27.5160   46.2970 H   0  0  0  0  0  0  0  0  0  0  0  0
   57.2260   30.0620   43.6600 H   0  0  0  0  0  0  0  0  0  0  0  0
   56.4252   31.4493   41.6555 H   0  0  0  0  0  0  0  0  0  0  0  0
   57.4734   32.8728   41.3369 H   0  0  0  0  0  0  0  0  0  0  0  0
   58.1782   31.2205   41.3369 H   0  0  0  0  0  0  0  0  0  0  0  0
   58.2750   34.0606   43.1272 H   0  0  0  0  0  0  0  0  0  0  0  0
   58.8595   34.6062   46.7647 H   0  0  0  0  0  0  0  0  0  0  0  0
   59.8907   34.8256   45.3103 H   0  0  0  0  0  0  0  0  0  0  0  0
   58.1982   35.4272   45.3103 H   0  0  0  0  0  0  0  0  0  0  0  0
   57.7435   31.9231   48.0393 H   0  0  0  0  0  0  0  0  0  0  0  0
   59.5024   31.9363   47.6750 H   0  0  0  0  0  0  0  0  0  0  0  0
   58.5736   33.4738   47.6750 H   0  0  0  0  0  0  0  0  0  0  0  0
   58.3977   26.6342   43.3882 H   0  0  0  0  0  0  0  0  0  0  0  0
   57.6035   24.5308   42.3445 H   0  0  0  0  0  0  0  0  0  0  0  0
  1  2  1  0
  2  3  1  0
  3  4  1  0
  4  5  2  0
  5  6  1  0
  6  7  2  0
  7  8  1  0
  8  9  1  0
  9 10  2  0
  9 11  1  0
 11 12  2  0
 12 13  1  0
 13 14  1  0
 14 15  1  0
 14 16  2  0
 16 17  1  0
 17 18  1  0
 17 19  2  0
 19 20  1  0
  7 21  1  0
 21 22  2  0
 22  4  1  0
 19 12  1  0
  1 23  1  0
  1 24  1  0
  1 25  1  0
  2 26  1  0
  2 27  1  0
  5 28  1  0
  6 29  1  0
  8 30  1  0
 13 31  1  0
 15 32  1  0
 15 33  1  0
 15 34  1  0
 16 35  1  0
 18 36  1  0
 18 37  1  0
 18 38  1  0
 20 39  1  0
 20 40  1  0
 20 41  1  0
 21 42  1  0
 22 43  1  0
M  END
>  <smiles>  (62) 
CCOc1ccc(NC(=O)N=c2[nH]c(C)cc(C)c2C)cc1

>  <score_type>  (62) 
oracle

>  <origin>  (62) 
adg

>  <m_score__min__energy>  (62) 
-7.1600000000000001

>  <m_primary>  (62) 
energy

$$$$
63:0
     RDKit          3D

 56 59  0  0  0  0  0  0  0  0999 V2000
   61.0340   27.7310   50.6860 C   0  0  0  0  0  0  0  0  0  0  0  0
   60.8860   27.0860   49.4490 O   0  0  0  0  0  0  0  0  0  0  0  0
   60.2680   27.5940   48.3390 C   0  0  0  0  0  0  0  0  0  0  0  0
   60.4180   27.1090   47.0560 C   0  0  0  0  0  0  0  0  0  0  0  0
   59.7650   27.6660   45.9650 C   0  0  0  0  0  0  0  0  0  0  0  0
   58.9340   28.7470   46.1690 C   0  0  0  0  0  0  0  0  0  0  0  0
   58.2010   29.4090   45.0960 C   0  0  0  0  0  0  0  0  0  0  0  0
   58.2030   30.7870   45.0340 C   0  0  0  0  0  0  0  0  0  0  0  0
   57.5460   31.5100   44.0660 C   0  0  0  0  0  0  0  0  0  0  0  0
   57.6440   33.2750   44.1200 S   0  0  0  0  0  0  0  0  0  0  0  0
   57.2600   33.8110   45.8190 C   0  0  0  0  0  0  0  0  0  0  0  0
   58.5430   33.7400   46.6000 C   0  0  0  0  0  0  0  0  0  0  0  0
   59.5400   34.5990   46.1890 C   0  0  0  0  0  0  0  0  0  0  0  0
   60.7180   34.5900   46.8450 N   0  0  0  0  0  0  0  0  0  0  0  0
   60.8990   33.7390   47.8950 C   0  0  0  0  0  0  0  0  0  0  0  0
   62.4970   33.8020   48.6910 S   0  0  0  0  0  0  0  0  0  0  0  0
   63.7900   33.0750   47.6440 C   0  0  0  0  0  0  0  0  0  0  0  0
   59.9030   32.8770   48.3110 C   0  0  0  0  0  0  0  0  0  0  0  0
   60.1150   31.9860   49.4310 C   0  0  0  0  0  0  0  0  0  0  0  0
   61.1380   31.2560   49.5210 O   0  0  0  0  0  0  0  0  0  0  0  0
   59.1090   31.9180   50.5110 C   0  0  0  0  0  0  0  0  0  0  0  0
   58.8620   32.9970   51.3400 C   0  0  0  0  0  0  0  0  0  0  0  0
   57.9040   32.8710   52.3430 C   0  0  0  0  0  0  0  0  0  0  0  0
   57.2020   31.6730   52.5150 C   0  0  0  0  0  0  0  0  0  0  0  0
   56.2640   31.5290   53.4850 F   0  0  0  0  0  0  0  0  0  0  0  0
   57.4470   30.5950   51.6890 C   0  0  0  0  0  0  0  0  0  0  0  0
   58.3960   30.7290   50.6990 C   0  0  0  0  0  0  0  0  0  0  0  0
   58.6880   32.8640   47.6570 C   0  0  0  0  0  0  0  0  0  0  0  0
   56.8340   30.8170   43.0890 C   0  0  0  0  0  0  0  0  0  0  0  0
   56.8210   29.4250   43.1370 C   0  0  0  0  0  0  0  0  0  0  0  0
   57.4950   28.7230   44.1280 C   0  0  0  0  0  0  0  0  0  0  0  0
   57.4740   27.3180   44.1640 O   0  0  0  0  0  0  0  0  0  0  0  0
   58.7530   29.2710   47.4530 C   0  0  0  0  0  0  0  0  0  0  0  0
   59.4270   28.6770   48.4970 C   0  0  0  0  0  0  0  0  0  0  0  0
   60.8682   27.0083   51.4985 H   0  0  0  0  0  0  0  0  0  0  0  0
   62.0503   28.1444   50.7647 H   0  0  0  0  0  0  0  0  0  0  0  0
   60.2995   28.5461   50.7647 H   0  0  0  0  0  0  0  0  0  0  0  0
   61.0812   26.2470   46.8912 H   0  0  0  0  0  0  0  0  0  0  0  0
   59.9080   27.2523   44.9558 H   0  0  0  0  0  0  0  0  0  0  0  0
   58.7624   31.3395   45.8033 H   0  0  0  0  0  0  0  0  0  0  0  0
   56.8775   34.8423   45.8129 H   0  0  0  0  0  0  0  0  0  0  0  0
   56.4888   33.1689   46.2696 H   0  0  0  0  0  0  0  0  0  0  0  0
   59.3773   35.2799   45.3406 H   0  0  0  0  0  0  0  0  0  0  0  0
   64.5724   32.6351   48.2799 H   0  0  0  0  0  0  0  0  0  0  0  0
   63.3503   32.2919   47.0089 H   0  0  0  0  0  0  0  0  0  0  0  0
   64.2307   33.8576   47.0089 H   0  0  0  0  0  0  0  0  0  0  0  0
   59.4134   33.9398   51.2093 H   0  0  0  0  0  0  0  0  0  0  0  0
   57.6969   33.7229   53.0074 H   0  0  0  0  0  0  0  0  0  0  0  0
   56.8975   29.6508   51.8179 H   0  0  0  0  0  0  0  0  0  0  0  0
   58.5992   29.8750   50.0362 H   0  0  0  0  0  0  0  0  0  0  0  0
   57.8751   32.1889   47.9628 H   0  0  0  0  0  0  0  0  0  0  0  0
   56.2942   31.3573   42.2974 H   0  0  0  0  0  0  0  0  0  0  0  0
   56.2627   28.8675   42.3705 H   0  0  0  0  0  0  0  0  0  0  0  0
   57.0220   26.8000   43.4160 H   0  0  0  0  0  0  0  0  0  0  0  0
   58.0913   30.1329   47.6242 H   0  0  0  0  0  0  0  0  0  0  0  0
   59.2879   29.0866   49.5084 H   0  0  0  0  0  0  0  0  0  0  0  0
  1  2  1  0
  2  3  1  0
  3  4  2  0
  4  5  1  0
  5  6  2  0
  6  7  1  0
  7  8  2  0
  8  9  1  0
  9 10  1  0
 10 11  1  0
 11 12  1  0
 12 13  2  0
 13 14  1  0
 14 15  2  0
 15 16  1  0
 16 17  1  0
 15 18  1  0
 18 19  1  0
 19 20  2  0
 19 21  1  0
 21 22  2  0
 22 23  1  0
 23 24  2  0
 24 25  1  0
 24 26  1  0
 26 27  2  0
 18 28  2  0
  9 29  2  0
 29 30  1  0
 30 31  2  0
 31 32  1  0
  6 33  1  0
 33 34  2  0
 34  3  1  0
 31  7  1  0
 28 12  1  0
 27 21  1  0
  1 35  1  0
  1 36  1  0
  1 37  1  0
  4 38  1  0
  5 39  1  0
  8 40  1  0
 11 41  1  0
 11 42  1  0
 13 43  1  0
 17 44  1  0
 17 45  1  0
 17 46  1  0
 22 47  1  0
 23 48  1  0
 26 49  1  0
 27 50  1  0
 28 51  1  0
 29 52  1  0
 30 53  1  0
 32 54  1  0
 33 55  1  0
 34 56  1  0
M  END
>  <smiles>  (63) 
COc1ccc(-c2cc(SCc3cnc(SC)c(C(=O)c4ccc(F)cc4)c3)ccc2O)cc1

>  <score_type>  (63) 
oracle

>  <origin>  (63) 
adg

>  <m_score__min__energy>  (63) 
-9.5399999999999991

>  <m_primary>  (63) 
energy

$$$$
64:0
     RDKit          3D

 35 37  0  0  1  0  0  0  0  0999 V2000
   59.4190   30.4700   48.1600 O   0  0  0  0  0  0  0  0  0  0  0  0
   59.6170   31.7030   47.9870 C   0  0  0  0  0  0  0  0  0  0  0  0
   58.5160   32.7120   48.0760 C   0  0  0  0  0  0  0  0  0  0  0  0
   58.6530   33.6410   46.9300 C   0  0  0  0  0  0  0  0  0  0  0  0
   57.6410   34.0100   46.1970 N   0  0  0  0  0  0  0  0  0  0  0  0
   57.4700   33.4860   44.8650 C   0  0  0  0  0  0  0  0  0  0  0  0
   58.4780   32.3370   44.7000 C   0  0  0  0  0  0  0  0  0  0  0  0
   57.6530   31.0780   44.7220 C   0  0  0  0  0  0  0  0  0  0  0  0
   58.0840   30.0630   45.5510 C   0  0  0  0  0  0  0  0  0  0  0  0
   57.3640   28.8990   45.6040 C   0  0  0  0  0  0  0  0  0  0  0  0
   56.2580   28.7340   44.8720 N   0  0  0  0  0  0  0  0  0  0  0  0
   55.8450   29.7280   44.0660 C   0  0  0  0  0  0  0  0  0  0  0  0
   56.5180   30.9350   43.9570 C   0  0  0  0  0  0  0  0  0  0  0  0
   59.9730   34.1560   46.6200 C   0  0  0  0  0  0  0  0  0  0  0  0
   60.0890   35.2550   46.0090 O   0  0  0  0  0  0  0  0  0  0  0  0
   61.1500   33.3970   47.0190 C   0  0  0  0  0  0  0  0  0  0  0  0
   62.3910   33.9070   46.7130 C   0  0  0  0  0  0  0  0  0  0  0  0
   63.4900   33.1660   47.1040 C   0  0  0  0  0  0  0  0  0  0  0  0
   63.3300   31.9570   47.7770 C   0  0  0  0  0  0  0  0  0  0  0  0
   62.0720   31.4700   48.0700 C   0  0  0  0  0  0  0  0  0  0  0  0
   60.9610   32.2020   47.6850 C   0  0  0  0  0  0  0  0  0  0  0  0
   57.5407   32.2053   48.0313 H   0  0  0  0  0  0  0  0  0  0  0  0
   58.5793   33.2641   49.0253 H   0  0  0  0  0  0  0  0  0  0  0  0
   56.4444   33.1099   44.7360 H   0  0  0  0  0  0  0  0  0  0  0  0
   57.6405   34.2685   44.1109 H   0  0  0  0  0  0  0  0  0  0  0  0
   59.0144   32.4294   43.7441 H   0  0  0  0  0  0  0  0  0  0  0  0
   59.2392   32.3422   45.4941 H   0  0  0  0  0  0  0  0  0  0  0  0
   58.9917   30.1866   46.1599 H   0  0  0  0  0  0  0  0  0  0  0  0
   57.7024   28.0846   46.2614 H   0  0  0  0  0  0  0  0  0  0  0  0
   54.9344   29.5769   43.4677 H   0  0  0  0  0  0  0  0  0  0  0  0
   56.1631   31.7372   43.2932 H   0  0  0  0  0  0  0  0  0  0  0  0
   62.5033   34.8629   46.1804 H   0  0  0  0  0  0  0  0  0  0  0  0
   64.5021   33.5349   46.8813 H   0  0  0  0  0  0  0  0  0  0  0  0
   64.2181   31.3825   48.0791 H   0  0  0  0  0  0  0  0  0  0  0  0
   61.9536   30.5143   48.6016 H   0  0  0  0  0  0  0  0  0  0  0  0
  1  2  2  0
  2  3  1  0
  3  4  1  0
  4  5  2  0
  5  6  1  0
  6  7  1  0
  7  8  1  0
  8  9  2  0
  9 10  1  0
 10 11  2  0
 11 12  1  0
 12 13  2  0
  4 14  1  0
 14 15  2  0
 14 16  1  0
 16 17  2  0
 17 18  1  0
 18 19  2  0
 19 20  1  0
 20 21  2  0
 21  2  1  0
 13  8  1  0
 21 16  1  0
  3 22  1  0
  3 23  1  0
  6 24  1  0
  6 25  1  0
  7 26  1  0
  7 27  1  0
  9 28  1  0
 10 29  1  0
 12 30  1  0
 13 31  1  0
 17 32  1  0
 18 33  1  0
 19 34  1  0
 20 35  1  0
M  END
>  <smiles>  (64) 
O=C1CC(=NCCc2ccncc2)C(=O)c2ccccc21

>  <score_type>  (64) 
oracle

>  <origin>  (64) 
adg

>  <m_score__min__energy>  (64) 
-7.9699999999999998

>  <m_primary>  (64) 
energy

$$$$
65:0
     RDKit          3D

 49 50  0  0  0  0  0  0  0  0999 V2000
   60.7530   33.8690   46.6860 C   0  0  0  0  0  0  0  0  0  0  0  0
   59.4510   33.4200   47.0060 O   0  0  0  0  0  0  0  0  0  0  0  0
   58.8500   32.2970   46.4660 C   0  0  0  0  0  0  0  0  0  0  0  0
   59.1570   31.0050   46.8420 C   0  0  0  0  0  0  0  0  0  0  0  0
   58.5150   29.9180   46.2600 C   0  0  0  0  0  0  0  0  0  0  0  0
   58.8220   28.5380   46.6460 C   0  0  0  0  0  0  0  0  0  0  0  0
   57.6720   27.6550   46.4000 N   0  0  0  0  0  0  0  0  0  0  0  0
   57.9610   26.3730   45.8950 C   0  0  0  0  0  0  0  0  0  0  0  0
   59.1960   26.1190   45.7050 O   0  0  0  0  0  0  0  0  0  0  0  0
   57.0140   25.3360   45.5780 C   0  0  0  0  0  0  0  0  0  0  0  0
   57.5110   24.1330   45.1990 N   0  0  0  0  0  0  0  0  0  0  0  0
   56.7280   23.0860   44.8830 C   0  0  0  0  0  0  0  0  0  0  0  0
   57.2310   21.7790   44.4660 C   0  0  0  0  0  0  0  0  0  0  0  0
   56.8210   20.6170   45.2980 C   0  0  0  0  0  0  0  0  0  0  0  0
   58.7640   21.8730   44.4880 C   0  0  0  0  0  0  0  0  0  0  0  0
   56.8390   21.5550   43.0000 C   0  0  0  0  0  0  0  0  0  0  0  0
   55.3680   23.2270   44.9410 N   0  0  0  0  0  0  0  0  0  0  0  0
   54.8010   24.3770   45.3040 C   0  0  0  0  0  0  0  0  0  0  0  0
   53.5340   24.5290   45.3660 O   0  0  0  0  0  0  0  0  0  0  0  0
   55.6490   25.4430   45.6270 C   0  0  0  0  0  0  0  0  0  0  0  0
   55.0450   26.6120   45.9960 O   0  0  0  0  0  0  0  0  0  0  0  0
   57.5390   30.0970   45.2720 C   0  0  0  0  0  0  0  0  0  0  0  0
   56.9070   29.0020   44.6990 O   0  0  0  0  0  0  0  0  0  0  0  0
   57.3390   28.5930   43.4040 C   0  0  0  0  0  0  0  0  0  0  0  0
   57.2360   31.3960   44.8980 C   0  0  0  0  0  0  0  0  0  0  0  0
   57.8880   32.4650   45.4920 C   0  0  0  0  0  0  0  0  0  0  0  0
   57.4170   34.2080   44.9270 Br  0  0  0  0  0  0  0  0  0  0  0  0
   61.3125   34.0620   47.6132 H   0  0  0  0  0  0  0  0  0  0  0  0
   61.2725   33.0981   46.0979 H   0  0  0  0  0  0  0  0  0  0  0  0
   60.6869   34.7963   46.0979 H   0  0  0  0  0  0  0  0  0  0  0  0
   59.9214   30.8328   47.6140 H   0  0  0  0  0  0  0  0  0  0  0  0
   59.6811   28.1824   46.0581 H   0  0  0  0  0  0  0  0  0  0  0  0
   59.0564   28.5180   47.7206 H   0  0  0  0  0  0  0  0  0  0  0  0
   56.7020   27.9440   46.5810 H   0  0  0  0  0  0  0  0  0  0  0  0
   58.5430   23.9610   45.1370 H   0  0  0  0  0  0  0  0  0  0  0  0
   56.9130   20.8777   46.3627 H   0  0  0  0  0  0  0  0  0  0  0  0
   55.7764   20.3556   45.0734 H   0  0  0  0  0  0  0  0  0  0  0  0
   57.4703   19.7579   45.0734 H   0  0  0  0  0  0  0  0  0  0  0  0
   59.1151   21.8945   45.5302 H   0  0  0  0  0  0  0  0  0  0  0  0
   59.1923   20.9994   43.9748 H   0  0  0  0  0  0  0  0  0  0  0  0
   59.0824   22.7924   43.9748 H   0  0  0  0  0  0  0  0  0  0  0  0
   55.8847   21.0097   42.9548 H   0  0  0  0  0  0  0  0  0  0  0  0
   56.7300   22.5271   42.4970 H   0  0  0  0  0  0  0  0  0  0  0  0
   57.6212   20.9675   42.4970 H   0  0  0  0  0  0  0  0  0  0  0  0
   55.1430   27.5010   45.5070 H   0  0  0  0  0  0  0  0  0  0  0  0
   58.1345   27.8399   43.5037 H   0  0  0  0  0  0  0  0  0  0  0  0
   56.4905   28.1595   42.8543 H   0  0  0  0  0  0  0  0  0  0  0  0
   57.7255   29.4639   42.8543 H   0  0  0  0  0  0  0  0  0  0  0  0
   56.4743   31.5798   44.1259 H   0  0  0  0  0  0  0  0  0  0  0  0
  1  2  1  0
  2  3  1  0
  3  4  2  0
  4  5  1  0
  5  6  1  0
  6  7  1  0
  7  8  1  0
  8  9  2  0
  8 10  1  0
 10 11  1  0
 11 12  1  0
 12 13  1  0
 13 14  1  0
 13 15  1  0
 13 16  1  0
 12 17  2  0
 17 18  1  0
 18 19  2  0
 18 20  1  0
 20 21  1  0
  5 22  2  0
 22 23  1  0
 23 24  1  0
 22 25  1  0
 25 26  2  0
 26 27  1  0
 26  3  1  0
 20 10  2  0
  1 28  1  0
  1 29  1  0
  1 30  1  0
  4 31  1  0
  6 32  1  0
  6 33  1  0
  7 34  1  0
 11 35  1  0
 14 36  1  0
 14 37  1  0
 14 38  1  0
 15 39  1  0
 15 40  1  0
 15 41  1  0
 16 42  1  0
 16 43  1  0
 16 44  1  0
 21 45  1  0
 24 46  1  0
 24 47  1  0
 24 48  1  0
 25 49  1  0
M  END
>  <smiles>  (65) 
COc1cc(CNC(=O)c2[nH]c(C(C)(C)C)nc(=O)c2O)c(OC)cc1Br

>  <score_type>  (65) 
oracle

>  <origin>  (65) 
adg

>  <m_score__min__energy>  (65) 
-8.5700000000000003

>  <m_primary>  (65) 
energy

$$$$
66:0
     RDKit          3D

 48 51  0  0  1  0  0  0  0  0999 V2000
   63.0430   33.4260   47.4370 C   0  0  0  0  0  0  0  0  0  0  0  0
   61.5790   33.3650   47.1740 C   0  0  0  0  0  0  0  0  0  0  0  0
   60.9390   33.7740   45.9980 C   0  0  0  0  0  0  0  0  0  0  0  0
   59.5870   33.5550   46.1470 C   0  0  0  0  0  0  0  0  0  0  0  0
   58.4930   33.8150   45.2130 C   0  0  0  0  0  0  0  0  0  0  0  0
   58.3250   35.0200   44.8770 O   0  0  0  0  0  0  0  0  0  0  0  0
   57.6510   32.8230   44.6940 N   0  0  0  0  0  0  0  0  0  0  0  0
   58.0330   31.7290   44.1940 N   0  0  0  0  0  0  0  0  0  0  0  0
   57.5770   30.4650   44.6580 C   0  0  0  0  0  0  0  0  0  0  0  0
   56.2610   30.2230   44.7820 N   0  0  0  0  0  0  0  0  0  0  0  0
   55.8100   29.0400   45.2160 N   0  0  0  0  0  0  0  0  0  0  0  0
   56.6410   28.0380   45.5500 C   0  0  0  0  0  0  0  0  0  0  0  0
   56.1280   26.9730   45.9440 O   0  0  0  0  0  0  0  0  0  0  0  0
   58.0010   28.2230   45.4450 C   0  0  0  0  0  0  0  0  0  0  0  0
   58.8840   27.2180   45.7790 C   0  0  0  0  0  0  0  0  0  0  0  0
   60.2400   27.4380   45.6630 C   0  0  0  0  0  0  0  0  0  0  0  0
   60.7250   28.6520   45.2160 C   0  0  0  0  0  0  0  0  0  0  0  0
   59.8010   29.6400   44.8890 C   0  0  0  0  0  0  0  0  0  0  0  0
   58.4380   29.4440   44.9980 C   0  0  0  0  0  0  0  0  0  0  0  0
   59.4130   33.0170   47.4060 C   0  0  0  0  0  0  0  0  0  0  0  0
   58.0860   32.6370   47.9620 C   0  0  0  0  0  0  0  0  0  0  0  0
   60.6290   32.9050   48.0240 N   0  0  0  0  0  0  0  0  0  0  0  0
   60.8200   32.3650   49.3740 C   0  0  0  0  0  0  0  0  0  0  0  0
   60.7210   30.9080   49.4360 C   0  0  0  0  0  0  0  0  0  0  0  0
   60.0030   30.1230   48.5580 C   0  0  0  0  0  0  0  0  0  0  0  0
   59.9740   28.7540   48.7200 C   0  0  0  0  0  0  0  0  0  0  0  0
   60.6480   28.1280   49.7480 C   0  0  0  0  0  0  0  0  0  0  0  0
   61.3740   28.8990   50.6390 C   0  0  0  0  0  0  0  0  0  0  0  0
   61.3940   30.2590   50.4650 C   0  0  0  0  0  0  0  0  0  0  0  0
   63.2205   33.4334   48.5226 H   0  0  0  0  0  0  0  0  0  0  0  0
   63.5325   32.5475   46.9914 H   0  0  0  0  0  0  0  0  0  0  0  0
   63.4577   34.3422   46.9914 H   0  0  0  0  0  0  0  0  0  0  0  0
   61.4303   34.1968   45.1093 H   0  0  0  0  0  0  0  0  0  0  0  0
   54.7600   28.9490   45.2800 H   0  0  0  0  0  0  0  0  0  0  0  0
   58.5090   26.2473   46.1356 H   0  0  0  0  0  0  0  0  0  0  0  0
   60.9448   26.6367   45.9297 H   0  0  0  0  0  0  0  0  0  0  0  0
   61.8061   28.8318   45.1217 H   0  0  0  0  0  0  0  0  0  0  0  0
   60.1695   30.6125   44.5307 H   0  0  0  0  0  0  0  0  0  0  0  0
   58.1315   32.6500   49.0610 H   0  0  0  0  0  0  0  0  0  0  0  0
   57.3255   33.3535   47.6180 H   0  0  0  0  0  0  0  0  0  0  0  0
   57.8200   31.6266   47.6180 H   0  0  0  0  0  0  0  0  0  0  0  0
   61.8173   32.6622   49.7305 H   0  0  0  0  0  0  0  0  0  0  0  0
   60.0150   32.7722   50.0034 H   0  0  0  0  0  0  0  0  0  0  0  0
   59.4529   30.5897   47.7276 H   0  0  0  0  0  0  0  0  0  0  0  0
   59.3971   28.1438   48.0094 H   0  0  0  0  0  0  0  0  0  0  0  0
   60.6091   27.0342   49.8577 H   0  0  0  0  0  0  0  0  0  0  0  0
   61.9233   28.4308   51.4691 H   0  0  0  0  0  0  0  0  0  0  0  0
   61.9721   30.8676   51.1759 H   0  0  0  0  0  0  0  0  0  0  0  0
  1  2  1  0
  2  3  2  0
  3  4  1  0
  4  5  1  0
  5  6  2  0
  5  7  1  0
  7  8  2  0
  8  9  1  0
  9 10  2  0
 10 11  1  0
 11 12  1  0
 12 13  2  0
 12 14  1  0
 14 15  2  0
 15 16  1  0
 16 17  2  0
 17 18  1  0
 18 19  2  0
  4 20  2  0
 20 21  1  0
 20 22  1  0
 22 23  1  0
 23 24  1  0
 24 25  2  0
 25 26  1  0
 26 27  2  0
 27 28  1  0
 28 29  2  0
 22  2  1  0
 29 24  1  0
 19  9  1  0
 19 14  1  0
  1 30  1  0
  1 31  1  0
  1 32  1  0
  3 33  1  0
 11 34  1  0
 15 35  1  0
 16 36  1  0
 17 37  1  0
 18 38  1  0
 21 39  1  0
 21 40  1  0
 21 41  1  0
 23 42  1  0
 23 43  1  0
 25 44  1  0
 26 45  1  0
 27 46  1  0
 28 47  1  0
 29 48  1  0
M  END
>  <smiles>  (66) 
Cc1cc(C(=O)N=Nc2n[nH]c(=O)c3ccccc23)c(C)n1Cc1ccccc1

>  <score_type>  (66) 
oracle

>  <origin>  (66) 
adg

>  <m_score__min__energy>  (66) 
-10.5

>  <m_primary>  (66) 
energy

$$$$
67:0
     RDKit          3D

 56 59  0  0  1  0  0  0  0  0999 V2000
   59.6300   33.7570   49.8900 C   0  0  0  0  0  0  0  0  0  0  0  0
   60.1470   32.6140   49.2430 O   0  0  0  0  0  0  0  0  0  0  0  0
   61.3450   32.7390   48.5700 C   0  0  0  0  0  0  0  0  0  0  0  0
   61.9070   33.9520   48.2180 C   0  0  0  0  0  0  0  0  0  0  0  0
   63.1270   33.9690   47.5340 C   0  0  0  0  0  0  0  0  0  0  0  0
   57.7380   25.3450   44.3070 C   0  0  0  0  0  0  0  0  0  0  0  0
   58.5210   26.0770   45.1800 C   0  0  0  0  0  0  0  0  0  0  0  0
   58.3940   25.8460   46.5350 C   0  0  0  0  0  0  0  0  0  0  0  0
   59.1530   26.5440   47.5190 N   0  0  0  0  0  0  0  0  0  0  0  0
   59.2690   27.8430   47.4650 C   0  0  0  0  0  0  0  0  0  0  0  0
   59.5840   30.5460   47.4000 N   0  0  0  0  0  0  0  0  0  0  0  0
   58.4930   30.0320   46.8060 C   0  0  0  0  0  0  0  0  0  0  0  0
   57.5250   30.7530   46.1700 O   0  0  0  0  0  0  0  0  0  0  0  0
   57.5260   31.2100   44.8800 C   0  0  0  0  0  0  0  0  0  0  0  0
   58.1490   32.3520   44.4410 C   0  0  0  0  0  0  0  0  0  0  0  0
   58.8890   33.1750   45.4280 C   0  0  0  0  0  0  0  0  0  0  0  0
   58.1080   32.7520   43.1190 C   0  0  0  0  0  0  0  0  0  0  0  0
   57.4250   31.9980   42.1930 C   0  0  0  0  0  0  0  0  0  0  0  0
   57.3340   32.3460   40.8010 C   0  0  0  0  0  0  0  0  0  0  0  0
   57.2530   32.6170   39.6860 N   0  0  0  0  0  0  0  0  0  0  0  0
   56.8000   30.8610   42.6110 C   0  0  0  0  0  0  0  0  0  0  0  0
   56.8400   30.4560   43.9350 C   0  0  0  0  0  0  0  0  0  0  0  0
   56.1400   29.1960   44.3630 C   0  0  0  0  0  0  0  0  0  0  0  0
   58.3330   28.6420   46.8410 C   0  0  0  0  0  0  0  0  0  0  0  0
   60.4820   29.7450   48.0020 C   0  0  0  0  0  0  0  0  0  0  0  0
   61.5070   30.2780   48.5540 N   0  0  0  0  0  0  0  0  0  0  0  0
   62.0050   31.5730   48.2350 C   0  0  0  0  0  0  0  0  0  0  0  0
   63.2260   31.5950   47.5520 C   0  0  0  0  0  0  0  0  0  0  0  0
   63.7770   32.7980   47.2070 C   0  0  0  0  0  0  0  0  0  0  0  0
   56.8290   24.3890   44.7530 C   0  0  0  0  0  0  0  0  0  0  0  0
   56.7230   24.1800   46.1130 C   0  0  0  0  0  0  0  0  0  0  0  0
   57.4960   24.8980   47.0280 C   0  0  0  0  0  0  0  0  0  0  0  0
   57.3780   24.6780   48.3610 F   0  0  0  0  0  0  0  0  0  0  0  0
   60.3530   28.4050   48.0510 N   0  0  0  0  0  0  0  0  0  0  0  0
   59.6916   33.6208   50.9798 H   0  0  0  0  0  0  0  0  0  0  0  0
   60.2161   34.6406   49.5972 H   0  0  0  0  0  0  0  0  0  0  0  0
   58.5794   33.9003   49.5972 H   0  0  0  0  0  0  0  0  0  0  0  0
   61.3999   34.8942   48.4732 H   0  0  0  0  0  0  0  0  0  0  0  0
   63.5754   34.9331   47.2522 H   0  0  0  0  0  0  0  0  0  0  0  0
   57.8361   25.5233   43.2260 H   0  0  0  0  0  0  0  0  0  0  0  0
   59.2306   26.8281   44.8027 H   0  0  0  0  0  0  0  0  0  0  0  0
   59.7230   31.5610   47.3860 H   0  0  0  0  0  0  0  0  0  0  0  0
   58.6105   32.8652   46.4461 H   0  0  0  0  0  0  0  0  0  0  0  0
   59.9706   33.0346   45.2850 H   0  0  0  0  0  0  0  0  0  0  0  0
   58.6349   34.2356   45.2850 H   0  0  0  0  0  0  0  0  0  0  0  0
   58.6215   33.6734   42.8070 H   0  0  0  0  0  0  0  0  0  0  0  0
   56.2507   30.2504   41.8793 H   0  0  0  0  0  0  0  0  0  0  0  0
   56.1127   29.1468   45.4616 H   0  0  0  0  0  0  0  0  0  0  0  0
   55.1125   29.1959   43.9703 H   0  0  0  0  0  0  0  0  0  0  0  0
   56.6827   28.3235   43.9703 H   0  0  0  0  0  0  0  0  0  0  0  0
   57.4532   28.1824   46.3668 H   0  0  0  0  0  0  0  0  0  0  0  0
   63.7369   30.6552   47.2955 H   0  0  0  0  0  0  0  0  0  0  0  0
   64.7364   32.8313   46.6699 H   0  0  0  0  0  0  0  0  0  0  0  0
   56.2138   23.8175   44.0425 H   0  0  0  0  0  0  0  0  0  0  0  0
   56.0114   23.4286   46.4859 H   0  0  0  0  0  0  0  0  0  0  0  0
   61.0790   27.8150   48.5320 H   0  0  0  0  0  0  0  0  0  0  0  0
  1  2  1  0
  2  3  1  0
  3  4  2  0
  4  5  1  0
  5  6  2  0
  6  7  1  0
  7  8  2  0
  8  9  1  0
  9 10  2  0
 10 11  1  0
 11 12  1  0
 12 13  1  0
 13 14  1  0
 14 15  2  0
 15 16  1  0
 15 17  1  0
 17 18  2  0
 18 19  1  0
 19 20  3  0
 18 21  1  0
 21 22  2  0
 22 23  1  0
 12 24  2  0
 24 25  1  0
 25 26  2  0
 26 27  1  0
 27 28  2  0
 28 29  1  0
 29 30  2  0
 30 31  1  0
 31 32  2  0
 32 33  1  0
 25 34  1  0
  8  3  1  0
 34 10  1  0
 22 14  1  0
 32 27  1  0
  1 35  1  0
  1 36  1  0
  1 37  1  0
  4 38  1  0
  5 39  1  0
  6 40  1  0
  7 41  1  0
 11 42  1  0
 16 43  1  0
 16 44  1  0
 16 45  1  0
 17 46  1  0
 21 47  1  0
 23 48  1  0
 23 49  1  0
 23 50  1  0
 24 51  1  0
 28 52  1  0
 29 53  1  0
 30 54  1  0
 31 55  1  0
 34 56  1  0
M  END
>  <smiles>  (67) 
COc1ccccc1N=c1[nH]c(Oc2c(C)cc(C#N)cc2C)cc(=Nc2ccccc2F)[nH]1

>  <score_type>  (67) 
oracle

>  <origin>  (67) 
adg

>  <m_score__min__energy>  (67) 
-8.9900000000000002

>  <m_primary>  (67) 
energy

$$$$
68:0
     RDKit          3D

 75 81  0  0  1  0  0  0  0  0999 V2000
   66.9500   33.3610   50.5290 C   0  0  0  0  0  0  0  0  0  0  0  0
   66.2060   32.9280   51.6850 N   0  0  0  0  0  0  0  0  0  0  0  0
   65.2560   33.8890   52.1420 C   0  0  0  0  0  0  0  0  0  0  0  0
   63.8300   33.4220   52.1790 C   0  0  0  0  0  0  0  0  0  0  0  0
   63.5120   32.5730   51.0600 N   0  0  0  0  0  0  0  0  0  0  0  0
   62.2020   32.6030   50.4860 C   0  0  0  0  0  0  0  0  0  0  0  0
   61.3660   33.3870   50.9830 O   0  0  0  0  0  0  0  0  0  0  0  0
   61.9010   31.7160   49.3510 C   0  0  0  0  0  0  0  0  0  0  0  0
   61.0640   30.6230   49.4640 C   0  0  0  0  0  0  0  0  0  0  0  0
   60.7880   29.8310   48.3560 C   0  0  0  0  0  0  0  0  0  0  0  0
   61.3240   30.0910   47.1170 C   0  0  0  0  0  0  0  0  0  0  0  0
   61.0540   29.3750   45.9390 N   0  0  0  0  0  0  0  0  0  0  0  0
   59.9020   28.9040   45.6860 C   0  0  0  0  0  0  0  0  0  0  0  0
   59.1220   29.5710   44.8270 N   0  0  0  0  0  0  0  0  0  0  0  0
   57.9060   29.1800   44.4740 C   0  0  0  0  0  0  0  0  0  0  0  0
   57.0930   30.0500   43.6650 C   0  0  0  0  0  0  0  0  0  0  0  0
   56.9970   31.3300   43.7140 C   0  0  0  0  0  0  0  0  0  0  0  0
   57.7100   32.2770   44.5270 C   0  0  0  0  0  0  0  0  0  0  0  0
   58.2460   33.4800   44.1100 C   0  0  0  0  0  0  0  0  0  0  0  0
   58.8770   34.3710   44.9570 C   0  0  0  0  0  0  0  0  0  0  0  0
   58.9960   34.0770   46.2830 C   0  0  0  0  0  0  0  0  0  0  0  0
   59.6330   34.9610   47.1280 C   0  0  0  0  0  0  0  0  0  0  0  0
   59.7260   34.5960   48.4670 C   0  0  0  0  0  0  0  0  0  0  0  0
   59.2020   33.4000   48.9240 C   0  0  0  0  0  0  0  0  0  0  0  0
   58.5750   32.5500   48.0410 C   0  0  0  0  0  0  0  0  0  0  0  0
   58.4650   32.8770   46.7110 C   0  0  0  0  0  0  0  0  0  0  0  0
   57.8400   31.9980   45.8750 C   0  0  0  0  0  0  0  0  0  0  0  0
   57.4450   27.9920   45.0590 C   0  0  0  0  0  0  0  0  0  0  0  0
   58.1600   27.2790   45.9160 N   0  0  0  0  0  0  0  0  0  0  0  0
   57.9000   26.1470   46.5940 C   0  0  0  0  0  0  0  0  0  0  0  0
   56.7320   25.3030   46.6490 C   0  0  0  0  0  0  0  0  0  0  0  0
   56.3190   24.3310   47.5190 C   0  0  0  0  0  0  0  0  0  0  0  0
   55.1340   23.7930   47.0880 N   0  0  0  0  0  0  0  0  0  0  0  0
   54.7890   24.4130   45.9540 N   0  0  0  0  0  0  0  0  0  0  0  0
   53.5810   24.0680   45.2320 C   0  0  0  0  0  0  0  0  0  0  0  0
   55.7340   25.3240   45.6720 C   0  0  0  0  0  0  0  0  0  0  0  0
   59.0530   25.9350   47.3460 C   0  0  0  0  0  0  0  0  0  0  0  0
   59.9450   26.9080   47.1100 N   0  0  0  0  0  0  0  0  0  0  0  0
   59.3970   27.7450   46.2260 C   0  0  0  0  0  0  0  0  0  0  0  0
   62.1610   31.1870   47.0200 C   0  0  0  0  0  0  0  0  0  0  0  0
   62.4330   31.9690   48.1140 C   0  0  0  0  0  0  0  0  0  0  0  0
   64.5130   31.6800   50.4970 C   0  0  0  0  0  0  0  0  0  0  0  0
   65.6680   31.6210   51.4690 C   0  0  0  0  0  0  0  0  0  0  0  0
   67.8582   33.8896   50.8543 H   0  0  0  0  0  0  0  0  0  0  0  0
   67.2316   32.4857   49.9252 H   0  0  0  0  0  0  0  0  0  0  0  0
   66.3280   34.0382   49.9252 H   0  0  0  0  0  0  0  0  0  0  0  0
   65.5409   34.1887   53.1613 H   0  0  0  0  0  0  0  0  0  0  0  0
   65.2850   34.7122   51.4129 H   0  0  0  0  0  0  0  0  0  0  0  0
   63.6643   32.8599   53.1099 H   0  0  0  0  0  0  0  0  0  0  0  0
   63.1804   34.3083   52.1289 H   0  0  0  0  0  0  0  0  0  0  0  0
   60.6132   30.3780   50.4370 H   0  0  0  0  0  0  0  0  0  0  0  0
   60.1179   28.9667   48.4743 H   0  0  0  0  0  0  0  0  0  0  0  0
   59.4920   30.4700   44.3950 H   0  0  0  0  0  0  0  0  0  0  0  0
   56.4723   29.5533   42.9048 H   0  0  0  0  0  0  0  0  0  0  0  0
   56.2560   31.7683   43.0293 H   0  0  0  0  0  0  0  0  0  0  0  0
   58.1661   33.7432   43.0449 H   0  0  0  0  0  0  0  0  0  0  0  0
   59.2821   35.3146   44.5626 H   0  0  0  0  0  0  0  0  0  0  0  0
   60.0484   35.9108   46.7602 H   0  0  0  0  0  0  0  0  0  0  0  0
   60.2261   35.2717   49.1765 H   0  0  0  0  0  0  0  0  0  0  0  0
   59.2859   33.1297   49.9870 H   0  0  0  0  0  0  0  0  0  0  0  0
   58.1577   31.5992   48.4040 H   0  0  0  0  0  0  0  0  0  0  0  0
   57.4354   31.0577   46.2777 H   0  0  0  0  0  0  0  0  0  0  0  0
   56.4394   27.6344   44.7929 H   0  0  0  0  0  0  0  0  0  0  0  0
   56.8575   24.0267   48.4286 H   0  0  0  0  0  0  0  0  0  0  0  0
   52.7784   23.8388   45.9485 H   0  0  0  0  0  0  0  0  0  0  0  0
   53.2771   24.9153   44.5997 H   0  0  0  0  0  0  0  0  0  0  0  0
   53.7704   23.1880   44.5997 H   0  0  0  0  0  0  0  0  0  0  0  0
   55.7238   25.9910   44.7974 H   0  0  0  0  0  0  0  0  0  0  0  0
   59.2093   25.0912   48.0342 H   0  0  0  0  0  0  0  0  0  0  0  0
   62.6162   31.4361   46.0501 H   0  0  0  0  0  0  0  0  0  0  0  0
   63.1040   32.8323   47.9934 H   0  0  0  0  0  0  0  0  0  0  0  0
   64.0857   30.6756   50.3602 H   0  0  0  0  0  0  0  0  0  0  0  0
   64.8507   32.0462   49.5162 H   0  0  0  0  0  0  0  0  0  0  0  0
   65.3148   31.2118   52.4270 H   0  0  0  0  0  0  0  0  0  0  0  0
   66.4545   30.9767   51.0493 H   0  0  0  0  0  0  0  0  0  0  0  0
  1  2  1  0
  2  3  1  0
  3  4  1  0
  4  5  1  0
  5  6  1  0
  6  7  2  0
  6  8  1  0
  8  9  2  0
  9 10  1  0
 10 11  2  0
 11 12  1  0
 12 13  2  0
 13 14  1  0
 14 15  1  0
 15 16  1  0
 16 17  2  0
 17 18  1  0
 18 19  2  0
 19 20  1  0
 20 21  2  0
 21 22  1  0
 22 23  2  0
 23 24  1  0
 24 25  2  0
 25 26  1  0
 26 27  2  0
 15 28  2  0
 28 29  1  0
 29 30  1  0
 30 31  1  0
 31 32  1  0
 32 33  2  0
 33 34  1  0
 34 35  1  0
 34 36  1  0
 30 37  2  0
 37 38  1  0
 38 39  2  0
 11 40  1  0
 40 41  2  0
  5 42  1  0
 42 43  1  0
 43  2  1  0
 41  8  1  0
 39 13  1  0
 27 18  1  0
 39 29  1  0
 26 21  1  0
 36 31  2  0
  1 44  1  0
  1 45  1  0
  1 46  1  0
  3 47  1  0
  3 48  1  0
  4 49  1  0
  4 50  1  0
  9 51  1  0
 10 52  1  0
 14 53  1  0
 16 54  1  0
 17 55  1  0
 19 56  1  0
 20 57  1  0
 22 58  1  0
 23 59  1  0
 24 60  1  0
 25 61  1  0
 27 62  1  0
 28 63  1  0
 32 64  1  0
 35 65  1  0
 35 66  1  0
 35 67  1  0
 36 68  1  0
 37 69  1  0
 40 70  1  0
 41 71  1  0
 42 72  1  0
 42 73  1  0
 43 74  1  0
 43 75  1  0
M  END
>  <smiles>  (68) 
CN1CCN(C(=O)c2ccc(N=c3[nH]c(C=Cc4ccc5ccccc5c4)cn4c(-c5cnn(C)c5)cnc34)cc2)CC1

>  <score_type>  (68) 
oracle

>  <origin>  (68) 
adg

>  <m_score__min__energy>  (68) 
-11.32

>  <m_primary>  (68) 
energy

$$$$
69:0
     RDKit          3D

 65 69  0  0  1  0  0  0  0  0999 V2000
   62.3350   32.7100   47.2510 C   0  0  0  0  0  0  0  0  0  0  0  0
   62.6570   32.4160   48.6000 N   0  0  0  0  0  0  0  0  0  0  0  0
   64.0450   32.5170   48.9120 C   0  0  0  0  0  0  0  0  0  0  0  0
   61.9510   31.3950   49.2570 C   0  0  0  0  0  0  0  0  0  0  0  0
   60.6500   31.7040   49.8660 C   0  0  0  0  0  0  0  0  0  0  0  0
   60.5150   32.9810   50.4280 C   0  0  0  0  0  0  0  0  0  0  0  0
   59.3390   33.4240   50.9800 C   0  0  0  0  0  0  0  0  0  0  0  0
   58.2600   32.5680   50.9690 C   0  0  0  0  0  0  0  0  0  0  0  0
   58.3790   31.3150   50.4230 C   0  0  0  0  0  0  0  0  0  0  0  0
   59.5770   30.8470   49.8560 C   0  0  0  0  0  0  0  0  0  0  0  0
   59.5680   29.4700   49.3790 C   0  0  0  0  0  0  0  0  0  0  0  0
   59.6550   29.2110   48.0090 N   0  0  0  0  0  0  0  0  0  0  0  0
   60.5760   28.3460   47.4330 C   0  0  0  0  0  0  0  0  0  0  0  0
   60.1530   27.9990   46.0150 C   0  0  0  0  0  0  0  0  0  0  0  0
   59.5990   29.1030   45.2790 N   0  0  0  0  0  0  0  0  0  0  0  0
   58.1480   29.1630   45.3830 C   0  0  2  0  0  0  0  0  0  0  0  0
   57.5350   27.8230   45.5260 C   0  0  0  0  0  0  0  0  0  0  0  0
   57.7830   26.7650   44.6390 C   0  0  0  0  0  0  0  0  0  0  0  0
   57.0630   25.6640   45.0530 C   0  0  0  0  0  0  0  0  0  0  0  0
   56.3920   26.1060   46.1980 C   0  0  0  0  0  0  0  0  0  0  0  0
   56.7050   27.3430   46.4130 O   0  0  0  0  0  0  0  0  0  0  0  0
   57.5840   29.8860   44.2030 C   0  0  0  0  0  0  0  0  0  0  0  0
   57.0300   29.3690   43.0960 N   0  0  0  0  0  0  0  0  0  0  0  0
   56.6440   30.3440   42.2580 N   0  0  0  0  0  0  0  0  0  0  0  0
   56.9660   31.4850   42.8600 N   0  0  0  0  0  0  0  0  0  0  0  0
   57.5370   31.2180   44.0410 N   0  0  0  0  0  0  0  0  0  0  0  0
   57.9810   32.2630   44.8960 C   0  0  0  0  0  0  0  0  0  0  0  0
   57.5220   32.3810   46.2160 C   0  0  0  0  0  0  0  0  0  0  0  0
   57.9380   33.3820   47.0540 C   0  0  0  0  0  0  0  0  0  0  0  0
   58.8450   34.3350   46.6210 C   0  0  0  0  0  0  0  0  0  0  0  0
   59.2620   35.3310   47.4460 F   0  0  0  0  0  0  0  0  0  0  0  0
   59.3160   34.2460   45.3310 C   0  0  0  0  0  0  0  0  0  0  0  0
   58.8850   33.2320   44.5050 C   0  0  0  0  0  0  0  0  0  0  0  0
   60.1930   30.3060   45.8610 C   0  0  0  0  0  0  0  0  0  0  0  0
   59.6990   30.4850   47.2930 C   0  0  0  0  0  0  0  0  0  0  0  0
   61.5230   33.4514   47.2211 H   0  0  0  0  0  0  0  0  0  0  0  0
   63.2217   33.1166   46.7426 H   0  0  0  0  0  0  0  0  0  0  0  0
   62.0105   31.7901   46.7426 H   0  0  0  0  0  0  0  0  0  0  0  0
   64.1756   32.5265   50.0042 H   0  0  0  0  0  0  0  0  0  0  0  0
   64.5802   31.6554   48.4862 H   0  0  0  0  0  0  0  0  0  0  0  0
   64.4498   33.4470   48.4862 H   0  0  0  0  0  0  0  0  0  0  0  0
   61.7800   30.5963   48.5202 H   0  0  0  0  0  0  0  0  0  0  0  0
   62.5905   31.1441   50.1162 H   0  0  0  0  0  0  0  0  0  0  0  0
   61.3851   33.6540   50.4266 H   0  0  0  0  0  0  0  0  0  0  0  0
   59.2608   34.4304   51.4171 H   0  0  0  0  0  0  0  0  0  0  0  0
   57.3001   32.8899   51.3992 H   0  0  0  0  0  0  0  0  0  0  0  0
   57.5024   30.6505   50.4292 H   0  0  0  0  0  0  0  0  0  0  0  0
   60.4203   28.9623   49.8543 H   0  0  0  0  0  0  0  0  0  0  0  0
   58.5612   29.1142   49.6432 H   0  0  0  0  0  0  0  0  0  0  0  0
   61.5637   28.8296   47.4097 H   0  0  0  0  0  0  0  0  0  0  0  0
   60.6243   27.4231   48.0297 H   0  0  0  0  0  0  0  0  0  0  0  0
   61.0358   27.6305   45.4719 H   0  0  0  0  0  0  0  0  0  0  0  0
   59.3580   27.2433   46.0980 H   0  0  0  0  0  0  0  0  0  0  0  0
   57.9019   29.7180   46.3003 H   0  0  0  0  0  0  0  0  0  0  0  0
   58.4422   26.8066   43.7594 H   0  0  0  0  0  0  0  0  0  0  0  0
   57.0251   24.6672   44.5893 H   0  0  0  0  0  0  0  0  0  0  0  0
   55.7103   25.5014   46.8143 H   0  0  0  0  0  0  0  0  0  0  0  0
   56.8002   31.6415   46.5930 H   0  0  0  0  0  0  0  0  0  0  0  0
   57.5476   33.4293   48.0813 H   0  0  0  0  0  0  0  0  0  0  0  0
   60.0388   34.9869   44.9587 H   0  0  0  0  0  0  0  0  0  0  0  0
   59.2814   33.1913   43.4797 H   0  0  0  0  0  0  0  0  0  0  0  0
   61.2887   30.2084   45.8621 H   0  0  0  0  0  0  0  0  0  0  0  0
   59.8996   31.1816   45.2634 H   0  0  0  0  0  0  0  0  0  0  0  0
   60.3786   31.1690   47.8224 H   0  0  0  0  0  0  0  0  0  0  0  0
   58.6791   30.8955   47.2570 H   0  0  0  0  0  0  0  0  0  0  0  0
  1  2  1  0
  2  3  1  0
  2  4  1  0
  4  5  1  0
  5  6  2  0
  6  7  1  0
  7  8  2  0
  8  9  1  0
  9 10  2  0
 10 11  1  0
 11 12  1  0
 12 13  1  0
 13 14  1  0
 14 15  1  0
 15 16  1  0
 16 17  1  0
 17 18  2  0
 18 19  1  0
 19 20  2  0
 20 21  1  0
 16 22  1  0
 22 23  2  0
 23 24  1  0
 24 25  2  0
 25 26  1  0
 26 27  1  0
 27 28  2  0
 28 29  1  0
 29 30  2  0
 30 31  1  0
 30 32  1  0
 32 33  2  0
 15 34  1  0
 34 35  1  0
 10  5  1  0
 35 12  1  0
 21 17  1  0
 26 22  1  0
 33 27  1  0
  1 36  1  0
  1 37  1  0
  1 38  1  0
  3 39  1  0
  3 40  1  0
  3 41  1  0
  4 42  1  0
  4 43  1  0
  6 44  1  0
  7 45  1  0
  8 46  1  0
  9 47  1  0
 11 48  1  0
 11 49  1  0
 13 50  1  0
 13 51  1  0
 14 52  1  0
 14 53  1  0
 16 54  1  1
 18 55  1  0
 19 56  1  0
 20 57  1  0
 28 58  1  0
 29 59  1  0
 32 60  1  0
 33 61  1  0
 34 62  1  0
 34 63  1  0
 35 64  1  0
 35 65  1  0
M  END
>  <smiles>  (69) 
CN(C)Cc1ccccc1CN1CCN(C(c2ccco2)c2nnnn2-c2ccc(F)cc2)CC1

>  <score_type>  (69) 
oracle

>  <origin>  (69) 
adg

>  <m_score__min__energy>  (69) 
-9.5700000000000003

>  <m_primary>  (69) 
energy

$$$$
70:0
     RDKit          3D

 56 59  0  0  1  0  0  0  0  0999 V2000
   58.4370   27.5100   43.4610 C   0  0  0  0  0  0  0  0  0  0  0  0
   58.7460   27.8880   44.8800 C   0  0  0  0  0  0  0  0  0  0  0  0
   60.0150   28.3190   45.1930 C   0  0  0  0  0  0  0  0  0  0  0  0
   56.4350   29.2130   53.1170 C   0  0  0  0  0  0  0  0  0  0  0  0
   56.4120   30.3990   52.3930 C   0  0  0  0  0  0  0  0  0  0  0  0
   57.6250   31.1460   52.2270 N   0  0  0  0  0  0  0  0  0  0  0  0
   58.2240   31.1880   51.0870 C   0  0  0  0  0  0  0  0  0  0  0  0
   58.6070   30.0250   50.5300 N   0  0  0  0  0  0  0  0  0  0  0  0
   59.2360   30.0320   49.3380 C   0  0  0  0  0  0  0  0  0  0  0  0
   59.5950   28.9330   48.8180 N   0  0  0  0  0  0  0  0  0  0  0  0
   59.3760   28.5910   47.4480 C   0  0  0  0  0  0  0  0  0  0  0  0
   55.2180   30.8410   51.8420 C   0  0  0  0  0  0  0  0  0  0  0  0
   55.2530   28.5130   53.2620 C   0  0  0  0  0  0  0  0  0  0  0  0
   54.0570   28.9570   52.7090 C   0  0  0  0  0  0  0  0  0  0  0  0
   52.8980   28.1980   52.8960 O   0  0  0  0  0  0  0  0  0  0  0  0
   54.0520   30.1400   51.9910 C   0  0  0  0  0  0  0  0  0  0  0  0
   60.3590   28.6830   46.4920 C   0  0  0  0  0  0  0  0  0  0  0  0
   59.4620   31.2170   48.7410 N   0  0  0  0  0  0  0  0  0  0  0  0
   59.0920   32.3970   49.2700 C   0  0  0  0  0  0  0  0  0  0  0  0
   59.3580   33.4510   48.6150 N   0  0  0  0  0  0  0  0  0  0  0  0
   58.7930   33.8650   47.3640 C   0  0  0  0  0  0  0  0  0  0  0  0
   59.4690   34.9460   46.6140 C   0  0  0  0  0  0  0  0  0  0  0  0
   59.2690   34.5920   45.1320 C   0  0  0  0  0  0  0  0  0  0  0  0
   57.7920   34.4990   44.8730 C   0  0  0  0  0  0  0  0  0  0  0  0
   57.0730   33.4630   45.6770 C   0  0  0  0  0  0  0  0  0  0  0  0
   58.1560   32.7820   46.5360 C   0  0  0  0  0  0  0  0  0  0  0  0
   58.4660   32.3580   50.4600 N   0  0  0  0  0  0  0  0  0  0  0  0
   58.1000   28.1570   47.1290 C   0  0  0  0  0  0  0  0  0  0  0  0
   57.7560   27.7950   45.8410 C   0  0  0  0  0  0  0  0  0  0  0  0
   56.4760   27.3610   45.5290 O   0  0  0  0  0  0  0  0  0  0  0  0
   57.7408   26.6584   43.4517 H   0  0  0  0  0  0  0  0  0  0  0  0
   57.9765   28.3657   42.9456 H   0  0  0  0  0  0  0  0  0  0  0  0
   59.3672   27.2288   42.9456 H   0  0  0  0  0  0  0  0  0  0  0  0
   60.7743   28.3772   44.3992 H   0  0  0  0  0  0  0  0  0  0  0  0
   57.3695   28.8416   53.5627 H   0  0  0  0  0  0  0  0  0  0  0  0
   58.4090   29.1310   51.0340 H   0  0  0  0  0  0  0  0  0  0  0  0
   55.2081   31.7804   51.2698 H   0  0  0  0  0  0  0  0  0  0  0  0
   55.2581   27.5733   53.8338 H   0  0  0  0  0  0  0  0  0  0  0  0
   52.6190   27.4700   52.2660 H   0  0  0  0  0  0  0  0  0  0  0  0
   53.1190   30.5137   51.5439 H   0  0  0  0  0  0  0  0  0  0  0  0
   61.3728   29.0289   46.7421 H   0  0  0  0  0  0  0  0  0  0  0  0
   59.9480   31.1980   47.8220 H   0  0  0  0  0  0  0  0  0  0  0  0
   57.9255   34.4281   47.7387 H   0  0  0  0  0  0  0  0  0  0  0  0
   59.0114   35.9196   46.8435 H   0  0  0  0  0  0  0  0  0  0  0  0
   60.5338   35.0267   46.8780 H   0  0  0  0  0  0  0  0  0  0  0  0
   59.7107   35.3750   44.4981 H   0  0  0  0  0  0  0  0  0  0  0  0
   59.7594   33.6357   44.8976 H   0  0  0  0  0  0  0  0  0  0  0  0
   57.3437   35.4778   45.0988 H   0  0  0  0  0  0  0  0  0  0  0  0
   57.6829   34.2009   43.8198 H   0  0  0  0  0  0  0  0  0  0  0  0
   56.3133   33.9334   46.3185 H   0  0  0  0  0  0  0  0  0  0  0  0
   56.5481   32.7405   45.0348 H   0  0  0  0  0  0  0  0  0  0  0  0
   57.7005   32.0232   47.1893 H   0  0  0  0  0  0  0  0  0  0  0  0
   58.9012   32.2749   45.9055 H   0  0  0  0  0  0  0  0  0  0  0  0
   58.1670   33.2670   50.8970 H   0  0  0  0  0  0  0  0  0  0  0  0
   57.3403   28.0990   47.9224 H   0  0  0  0  0  0  0  0  0  0  0  0
   56.2620   26.8580   44.6750 H   0  0  0  0  0  0  0  0  0  0  0  0
  1  2  1  0
  2  3  2  0
  3  4  1  0
  4  5  2  0
  5  6  1  0
  6  7  2  0
  7  8  1  0
  8  9  1  0
  9 10  2  0
 10 11  1  0
 11 12  2  0
 12 13  1  0
 13 14  2  0
 14 15  1  0
 14 16  1  0
 16 17  2  0
  9 18  1  0
 18 19  1  0
 19 20  2  0
 20 21  1  0
 21 22  1  0
 22 23  1  0
 23 24  1  0
 24 25  1  0
 25 26  1  0
 19 27  1  0
  5 28  1  0
 28 29  2  0
 29 30  1  0
 29  2  1  0
 27  7  1  0
 17 11  1  0
 26 21  1  0
  1 31  1  0
  1 32  1  0
  1 33  1  0
  3 34  1  0
  4 35  1  0
  8 36  1  0
 12 37  1  0
 13 38  1  0
 15 39  1  0
 16 40  1  0
 17 41  1  0
 18 42  1  0
 21 43  1  0
 22 44  1  0
 22 45  1  0
 23 46  1  0
 23 47  1  0
 24 48  1  0
 24 49  1  0
 25 50  1  0
 25 51  1  0
 26 52  1  0
 26 53  1  0
 27 54  1  0
 28 55  1  0
 30 56  1  0
M  END
>  <smiles>  (70) 
Cc1ccc(N=c2[nH]c(=Nc3ccc(O)cc3)[nH]c(=NC3CCCCC3)[nH]2)cc1O

>  <score_type>  (70) 
oracle

>  <origin>  (70) 
adg

>  <m_score__min__energy>  (70) 
-9.3599999999999994

>  <m_primary>  (70) 
energy

$$$$
71:0
     RDKit          3D

 37 40  0  0  1  0  0  0  0  0999 V2000
   64.6450   33.0780   49.3760 Br  0  0  0  0  0  0  0  0  0  0  0  0
   63.0420   32.7470   48.4160 C   0  0  0  0  0  0  0  0  0  0  0  0
   62.6310   31.4650   48.0710 C   0  0  0  0  0  0  0  0  0  0  0  0
   61.4420   31.2880   47.3660 C   0  0  0  0  0  0  0  0  0  0  0  0
   60.6660   32.3920   47.0040 C   0  0  0  0  0  0  0  0  0  0  0  0
   61.0880   33.6710   47.3550 C   0  0  0  0  0  0  0  0  0  0  0  0
   62.2720   33.8320   48.0560 C   0  0  0  0  0  0  0  0  0  0  0  0
   60.1050   34.6770   46.8640 C   0  0  0  0  0  0  0  0  0  0  0  0
   59.0660   33.8510   46.1920 C   0  0  0  0  0  0  0  0  0  0  0  0
   57.9050   34.2040   45.5460 C   0  0  0  0  0  0  0  0  0  0  0  0
   57.1010   33.2700   45.0000 N   0  0  0  0  0  0  0  0  0  0  0  0
   57.3960   31.9580   45.0650 C   0  0  0  0  0  0  0  0  0  0  0  0
   56.5610   31.1460   44.5130 N   0  0  0  0  0  0  0  0  0  0  0  0
   57.0520   30.2200   43.5250 C   0  0  0  0  0  0  0  0  0  0  0  0
   57.3280   28.9120   44.1790 C   0  0  0  0  0  0  0  0  0  0  0  0
   57.0660   28.7360   45.5120 C   0  0  0  0  0  0  0  0  0  0  0  0
   57.3420   27.5000   46.0650 C   0  0  0  0  0  0  0  0  0  0  0  0
   57.8710   26.4550   45.3050 C   0  0  0  0  0  0  0  0  0  0  0  0
   58.1200   26.6760   43.9600 C   0  0  0  0  0  0  0  0  0  0  0  0
   57.8570   27.8950   43.3770 C   0  0  0  0  0  0  0  0  0  0  0  0
   58.5500   31.5490   45.7030 C   0  0  0  0  0  0  0  0  0  0  0  0
   59.3870   32.5100   46.2690 C   0  0  0  0  0  0  0  0  0  0  0  0
   63.2412   30.5943   48.3530 H   0  0  0  0  0  0  0  0  0  0  0  0
   61.1129   30.2744   47.0933 H   0  0  0  0  0  0  0  0  0  0  0  0
   62.6037   34.8443   48.3303 H   0  0  0  0  0  0  0  0  0  0  0  0
   59.6739   35.2460   47.7009 H   0  0  0  0  0  0  0  0  0  0  0  0
   60.5561   35.4244   46.1947 H   0  0  0  0  0  0  0  0  0  0  0  0
   57.6276   35.2660   45.4735 H   0  0  0  0  0  0  0  0  0  0  0  0
   56.2190   33.5890   44.5140 H   0  0  0  0  0  0  0  0  0  0  0  0
   56.2957   30.0859   42.7376 H   0  0  0  0  0  0  0  0  0  0  0  0
   57.9763   30.6124   43.0759 H   0  0  0  0  0  0  0  0  0  0  0  0
   56.6498   29.5514   46.1219 H   0  0  0  0  0  0  0  0  0  0  0  0
   57.1393   27.3349   47.1335 H   0  0  0  0  0  0  0  0  0  0  0  0
   58.0852   25.4784   45.7636 H   0  0  0  0  0  0  0  0  0  0  0  0
   58.5354   25.8626   43.3469 H   0  0  0  0  0  0  0  0  0  0  0  0
   58.0575   28.0650   42.3089 H   0  0  0  0  0  0  0  0  0  0  0  0
   58.8054   30.4808   45.7639 H   0  0  0  0  0  0  0  0  0  0  0  0
  1  2  1  0
  2  3  2  0
  3  4  1  0
  4  5  2  0
  5  6  1  0
  6  7  2  0
  6  8  1  0
  8  9  1  0
  9 10  2  0
 10 11  1  0
 11 12  1  0
 12 13  2  0
 13 14  1  0
 14 15  1  0
 15 16  2  0
 16 17  1  0
 17 18  2  0
 18 19  1  0
 19 20  2  0
 12 21  1  0
 21 22  2  0
  7  2  1  0
 22  9  1  0
 22  5  1  0
 20 15  1  0
  3 23  1  0
  4 24  1  0
  7 25  1  0
  8 26  1  0
  8 27  1  0
 10 28  1  0
 11 29  1  0
 14 30  1  0
 14 31  1  0
 16 32  1  0
 17 33  1  0
 18 34  1  0
 19 35  1  0
 20 36  1  0
 21 37  1  0
M  END
>  <smiles>  (71) 
Brc1ccc2c(c1)Cc1c[nH]c(=NCc3ccccc3)cc1-2

>  <score_type>  (71) 
oracle

>  <origin>  (71) 
adg

>  <m_score__min__energy>  (71) 
-8.5500000000000007

>  <m_primary>  (71) 
energy

$$$$
72:0
     RDKit          3D

 30 32  0  0  1  0  0  0  0  0999 V2000
   56.8660   31.1780   42.5710 O   0  0  0  0  0  0  0  0  0  0  0  0
   56.8480   31.2680   43.8080 C   0  0  0  0  0  0  0  0  0  0  0  0
   56.0850   30.3150   44.5330 N   0  0  0  0  0  0  0  0  0  0  0  0
   56.6650   29.3080   45.0670 C   0  0  0  0  0  0  0  0  0  0  0  0
   56.1750   28.1040   45.2480 N   0  0  0  0  0  0  0  0  0  0  0  0
   56.8950   27.1770   45.8110 C   0  0  0  0  0  0  0  0  0  0  0  0
   56.4280   25.7470   46.0610 C   0  0  0  0  0  0  0  0  0  0  0  0
   55.4030   25.1820   46.1710 N   0  0  0  0  0  0  0  0  0  0  0  0
   55.2320   23.8980   46.3960 C   0  0  0  0  0  0  0  0  0  0  0  0
   56.3520   23.1610   46.5120 C   0  0  0  0  0  0  0  0  0  0  0  0
   57.6500   24.3980   46.2810 S   0  0  0  0  0  0  0  0  0  0  0  0
   58.1590   27.4860   46.2040 C   0  0  0  0  0  0  0  0  0  0  0  0
   58.3230   29.2630   45.7210 S   0  0  0  0  0  0  0  0  0  0  0  0
   57.6070   32.3390   44.4310 C   0  0  0  0  0  0  0  0  0  0  0  0
   57.4120   32.5300   45.7900 C   0  0  0  0  0  0  0  0  0  0  0  0
   58.0920   33.5200   46.4850 C   0  0  0  0  0  0  0  0  0  0  0  0
   58.9810   34.3360   45.8220 C   0  0  0  0  0  0  0  0  0  0  0  0
   59.6760   35.3460   46.5370 N   0  0  0  0  0  0  0  0  0  0  0  0
   59.9630   36.4260   45.9870 O   0  0  0  0  0  0  0  0  0  0  0  0
   60.0560   35.1820   47.8480 O   0  0  0  0  0  0  0  0  0  0  0  0
   59.1680   34.1380   44.4700 C   0  0  0  0  0  0  0  0  0  0  0  0
   58.4930   33.1490   43.7600 C   0  0  0  0  0  0  0  0  0  0  0  0
   55.1570   27.9000   44.9160 H   0  0  0  0  0  0  0  0  0  0  0  0
   54.2305   23.4516   46.4844 H   0  0  0  0  0  0  0  0  0  0  0  0
   56.4521   22.0817   46.6995 H   0  0  0  0  0  0  0  0  0  0  0  0
   58.9025   26.8374   46.6904 H   0  0  0  0  0  0  0  0  0  0  0  0
   56.7036   31.8834   46.3286 H   0  0  0  0  0  0  0  0  0  0  0  0
   57.9211   33.6526   47.5635 H   0  0  0  0  0  0  0  0  0  0  0  0
   59.8767   34.7855   43.9329 H   0  0  0  0  0  0  0  0  0  0  0  0
   58.6652   33.0177   42.6815 H   0  0  0  0  0  0  0  0  0  0  0  0
  1  2  2  0
  2  3  1  0
  3  4  2  0
  4  5  1  0
  5  6  1  0
  6  7  1  0
  7  8  2  0
  8  9  1  0
  9 10  2  0
 10 11  1  0
  6 12  2  0
 12 13  1  0
  2 14  1  0
 14 15  2  0
 15 16  1  0
 16 17  2  0
 17 18  1  0
 18 19  2  0
 18 20  1  0
 17 21  1  0
 21 22  2  0
 13  4  1  0
 22 14  1  0
 11  7  1  0
  5 23  1  0
  9 24  1  0
 10 25  1  0
 12 26  1  0
 15 27  1  0
 16 28  1  0
 21 29  1  0
 22 30  1  0
M  CHG  2  18   1  20  -1
M  END
>  <smiles>  (72) 
O=C(N=c1[nH]c(-c2nccs2)cs1)c1ccc([N+](=O)[O-])cc1

>  <score_type>  (72) 
oracle

>  <origin>  (72) 
adg

>  <m_score__min__energy>  (72) 
-8.2400000000000002

>  <m_primary>  (72) 
energy

$$$$
73:0
     RDKit          3D

 37 39  0  0  0  0  0  0  0  0999 V2000
   57.7750   27.4720   42.8940 C   0  0  0  0  0  0  0  0  0  0  0  0
   57.7290   28.2310   44.1300 N   0  0  0  0  0  0  0  0  0  0  0  0
   58.4170   27.7360   45.2720 C   0  0  0  0  0  0  0  0  0  0  0  0
   59.7860   27.9060   45.3680 C   0  0  0  0  0  0  0  0  0  0  0  0
   60.3990   27.3970   46.5130 C   0  0  0  0  0  0  0  0  0  0  0  0
   59.6780   26.7580   47.4970 C   0  0  0  0  0  0  0  0  0  0  0  0
   58.2940   26.5910   47.3910 C   0  0  0  0  0  0  0  0  0  0  0  0
   57.6900   27.0920   46.2630 C   0  0  0  0  0  0  0  0  0  0  0  0
   56.8310   29.6970   44.1270 S   0  0  0  0  0  0  0  0  0  0  0  0
   55.5320   29.4110   44.8620 O   0  0  0  0  0  0  0  0  0  0  0  0
   56.4300   30.0940   42.7280 O   0  0  0  0  0  0  0  0  0  0  0  0
   57.6220   30.9840   44.9910 C   0  0  0  0  0  0  0  0  0  0  0  0
   58.1440   30.7670   46.2700 C   0  0  0  0  0  0  0  0  0  0  0  0
   58.7710   31.7600   46.9730 C   0  0  0  0  0  0  0  0  0  0  0  0
   58.9080   33.0220   46.4280 C   0  0  0  0  0  0  0  0  0  0  0  0
   58.3910   33.2370   45.1600 C   0  0  0  0  0  0  0  0  0  0  0  0
   58.6650   34.5640   44.8700 C   0  0  0  0  0  0  0  0  0  0  0  0
   59.3260   35.0860   45.9600 C   0  0  0  0  0  0  0  0  0  0  0  0
   59.4710   34.1470   46.9030 N   0  0  0  0  0  0  0  0  0  0  0  0
   60.1080   34.2560   48.2160 C   0  0  0  0  0  0  0  0  0  0  0  0
   57.7540   32.2360   44.4420 C   0  0  0  0  0  0  0  0  0  0  0  0
   57.8401   26.3985   43.1251 H   0  0  0  0  0  0  0  0  0  0  0  0
   56.8634   27.6667   42.3100 H   0  0  0  0  0  0  0  0  0  0  0  0
   58.6564   27.7754   42.3100 H   0  0  0  0  0  0  0  0  0  0  0  0
   60.3619   28.4163   44.5819 H   0  0  0  0  0  0  0  0  0  0  0  0
   61.4867   27.5090   46.6330 H   0  0  0  0  0  0  0  0  0  0  0  0
   60.2013   26.3713   48.3839 H   0  0  0  0  0  0  0  0  0  0  0  0
   57.7147   26.0816   48.1752 H   0  0  0  0  0  0  0  0  0  0  0  0
   56.6024   26.9797   46.1426 H   0  0  0  0  0  0  0  0  0  0  0  0
   58.0480   29.7697   46.7241 H   0  0  0  0  0  0  0  0  0  0  0  0
   59.1680   31.5520   47.9775 H   0  0  0  0  0  0  0  0  0  0  0  0
   58.4042   35.0990   43.9449 H   0  0  0  0  0  0  0  0  0  0  0  0
   59.6827   36.1232   46.0434 H   0  0  0  0  0  0  0  0  0  0  0  0
   59.3504   34.1264   49.0030 H   0  0  0  0  0  0  0  0  0  0  0  0
   60.8777   33.4765   48.3160 H   0  0  0  0  0  0  0  0  0  0  0  0
   60.5747   35.2471   48.3160 H   0  0  0  0  0  0  0  0  0  0  0  0
   57.3564   32.4438   43.4376 H   0  0  0  0  0  0  0  0  0  0  0  0
  1  2  1  0
  2  3  1  0
  3  4  2  0
  4  5  1  0
  5  6  2  0
  6  7  1  0
  7  8  2  0
  2  9  1  0
  9 10  2  0
  9 11  2  0
  9 12  1  0
 12 13  2  0
 13 14  1  0
 14 15  2  0
 15 16  1  0
 16 17  1  0
 17 18  2  0
 18 19  1  0
 19 20  1  0
 16 21  2  0
  8  3  1  0
 21 12  1  0
 19 15  1  0
  1 22  1  0
  1 23  1  0
  1 24  1  0
  4 25  1  0
  5 26  1  0
  6 27  1  0
  7 28  1  0
  8 29  1  0
 13 30  1  0
 14 31  1  0
 17 32  1  0
 18 33  1  0
 20 34  1  0
 20 35  1  0
 20 36  1  0
 21 37  1  0
M  END
>  <smiles>  (73) 
CN(c1ccccc1)S(=O)(=O)c1ccc2c(ccn2C)c1

>  <score_type>  (73) 
oracle

>  <origin>  (73) 
adg

>  <m_score__min__energy>  (73) 
-8.0700000000000003

>  <m_primary>  (73) 
energy

$$$$
74:0
     RDKit          3D

 51 53  0  0  1  0  0  0  0  0999 V2000
   57.7470   32.2850   42.5630 C   0  0  0  0  0  0  0  0  0  0  0  0
   58.0980   32.4720   44.0100 C   0  0  0  0  0  0  0  0  0  0  0  0
   58.5110   33.6450   44.4420 C   0  0  0  0  0  0  0  0  0  0  0  0
   59.1800   33.8610   45.7180 C   0  0  0  0  0  0  0  0  0  0  0  0
   58.5360   34.4130   46.8040 C   0  0  0  0  0  0  0  0  0  0  0  0
   59.2970   34.5750   47.9620 C   0  0  0  0  0  0  0  0  0  0  0  0
   60.6130   34.1890   47.9700 C   0  0  0  0  0  0  0  0  0  0  0  0
   61.3700   34.3440   49.1040 C   0  0  0  0  0  0  0  0  0  0  0  0
   62.7210   33.9660   49.1630 C   0  0  0  0  0  0  0  0  0  0  0  0
   63.4080   34.1210   50.2430 O   0  0  0  0  0  0  0  0  0  0  0  0
   64.0860   34.2480   51.3410 C   0  0  0  0  0  0  0  0  0  0  0  0
   65.4950   33.7410   51.1960 C   0  0  0  0  0  0  0  0  0  0  0  0
   65.6800   32.4800   50.6360 C   0  0  0  0  0  0  0  0  0  0  0  0
   66.9590   31.9410   50.4740 C   0  0  0  0  0  0  0  0  0  0  0  0
   68.0000   32.7500   50.9090 C   0  0  0  0  0  0  0  0  0  0  0  0
   67.8310   33.9840   51.4580 C   0  0  0  0  0  0  0  0  0  0  0  0
   66.5640   34.4830   51.6020 C   0  0  0  0  0  0  0  0  0  0  0  0
   66.4000   35.7270   52.1570 F   0  0  0  0  0  0  0  0  0  0  0  0
   63.2890   33.4140   48.0050 C   0  0  0  0  0  0  0  0  0  0  0  0
   62.5520   33.2450   46.8490 C   0  0  0  0  0  0  0  0  0  0  0  0
   61.2480   33.6360   46.8690 C   0  0  0  0  0  0  0  0  0  0  0  0
   60.4950   33.4880   45.7650 N   0  0  0  0  0  0  0  0  0  0  0  0
   57.9430   31.3030   44.8830 C   0  0  0  0  0  0  0  0  0  0  0  0
   56.8780   30.5980   44.8680 O   0  0  0  0  0  0  0  0  0  0  0  0
   58.9460   30.8780   45.7920 N   0  0  0  0  0  0  0  0  0  0  0  0
   58.7660   29.7280   46.6330 C   0  0  0  0  0  0  0  0  0  0  0  0
   59.3990   29.8880   47.9950 C   0  0  0  0  0  0  0  0  0  0  0  0
   59.3020   28.5220   45.9360 C   0  0  0  0  0  0  0  0  0  0  0  0
   56.7787   31.7691   42.4843 H   0  0  0  0  0  0  0  0  0  0  0  0
   57.6802   33.2671   42.0720 H   0  0  0  0  0  0  0  0  0  0  0  0
   58.5248   31.6817   42.0720 H   0  0  0  0  0  0  0  0  0  0  0  0
   58.3397   34.5195   43.7971 H   0  0  0  0  0  0  0  0  0  0  0  0
   57.4778   34.7102   46.7602 H   0  0  0  0  0  0  0  0  0  0  0  0
   58.8435   35.0104   48.8646 H   0  0  0  0  0  0  0  0  0  0  0  0
   60.9017   34.7800   49.9988 H   0  0  0  0  0  0  0  0  0  0  0  0
   64.1183   35.3123   51.6172 H   0  0  0  0  0  0  0  0  0  0  0  0
   63.5883   33.6498   52.1184 H   0  0  0  0  0  0  0  0  0  0  0  0
   64.8037   31.8975   50.3153 H   0  0  0  0  0  0  0  0  0  0  0  0
   67.1288   30.9474   50.0336 H   0  0  0  0  0  0  0  0  0  0  0  0
   69.0267   32.3696   50.8033 H   0  0  0  0  0  0  0  0  0  0  0  0
   68.7016   34.5732   51.7820 H   0  0  0  0  0  0  0  0  0  0  0  0
   64.3457   33.1087   48.0179 H   0  0  0  0  0  0  0  0  0  0  0  0
   63.0025   32.8101   45.9446 H   0  0  0  0  0  0  0  0  0  0  0  0
   59.8500   31.3930   45.8750 H   0  0  0  0  0  0  0  0  0  0  0  0
   57.6873   29.6102   46.8132 H   0  0  0  0  0  0  0  0  0  0  0  0
   58.6460   29.6977   48.7739 H   0  0  0  0  0  0  0  0  0  0  0  0
   60.2261   29.1707   48.1015 H   0  0  0  0  0  0  0  0  0  0  0  0
   59.7859   30.9122   48.1015 H   0  0  0  0  0  0  0  0  0  0  0  0
   59.6304   27.7831   46.6818 H   0  0  0  0  0  0  0  0  0  0  0  0
   58.5146   28.0822   45.3062 H   0  0  0  0  0  0  0  0  0  0  0  0
   60.1561   28.8118   45.3062 H   0  0  0  0  0  0  0  0  0  0  0  0
  1  2  1  0
  2  3  2  0
  3  4  1  0
  4  5  2  0
  5  6  1  0
  6  7  2  0
  7  8  1  0
  8  9  2  0
  9 10  1  0
 10 11  1  0
 11 12  1  0
 12 13  2  0
 13 14  1  0
 14 15  2  0
 15 16  1  0
 16 17  2  0
 17 18  1  0
  9 19  1  0
 19 20  2  0
 20 21  1  0
 21 22  2  0
  2 23  1  0
 23 24  2  0
 23 25  1  0
 25 26  1  0
 26 27  1  0
 26 28  1  0
 22  4  1  0
 21  7  1  0
 17 12  1  0
  1 29  1  0
  1 30  1  0
  1 31  1  0
  3 32  1  0
  5 33  1  0
  6 34  1  0
  8 35  1  0
 11 36  1  0
 11 37  1  0
 13 38  1  0
 14 39  1  0
 15 40  1  0
 16 41  1  0
 19 42  1  0
 20 43  1  0
 25 44  1  0
 26 45  1  0
 27 46  1  0
 27 47  1  0
 27 48  1  0
 28 49  1  0
 28 50  1  0
 28 51  1  0
M  END
>  <smiles>  (74) 
CC(=Cc1ccc2cc(OCc3ccccc3F)ccc2n1)C(=O)NC(C)C

>  <score_type>  (74) 
oracle

>  <origin>  (74) 
adg

>  <m_score__min__energy>  (74) 
-8.8699999999999992

>  <m_primary>  (74) 
energy

$$$$
75:0
     RDKit          3D

 55 57  0  0  1  0  0  0  0  0999 V2000
   57.0650   24.1000   47.6140 C   0  0  0  0  0  0  0  0  0  0  0  0
   56.8580   25.3680   46.8670 C   0  0  0  0  0  0  0  0  0  0  0  0
   57.8140   26.3190   46.5800 C   0  0  0  0  0  0  0  0  0  0  0  0
   57.1980   27.3300   45.8740 C   0  0  0  0  0  0  0  0  0  0  0  0
   57.6870   28.4240   45.3950 N   0  0  0  0  0  0  0  0  0  0  0  0
   56.8910   29.5250   44.9620 C   0  0  0  0  0  0  0  0  0  0  0  0
   55.6190   29.4270   44.8870 O   0  0  0  0  0  0  0  0  0  0  0  0
   57.4880   30.8190   44.5860 C   0  0  0  0  0  0  0  0  0  0  0  0
   59.1280   31.0900   45.2580 S   0  0  0  0  0  0  0  0  0  0  0  0
   59.0320   31.0340   47.0400 C   0  0  0  0  0  0  0  0  0  0  0  0
   59.3320   29.9480   47.7730 N   0  0  0  0  0  0  0  0  0  0  0  0
   59.1460   30.2750   49.0360 N   0  0  0  0  0  0  0  0  0  0  0  0
   58.7330   31.5430   49.1720 C   0  0  0  0  0  0  0  0  0  0  0  0
   58.4010   32.3260   50.3870 C   0  0  1  0  0  0  0  0  0  0  0  0
   57.6820   31.5410   51.4340 C   0  0  0  0  0  0  0  0  0  0  0  0
   59.6000   32.8950   50.9800 N   0  0  0  0  0  0  0  0  0  0  0  0
   59.2680   33.7940   52.0690 C   0  0  0  0  0  0  0  0  0  0  0  0
   60.4700   31.8530   51.4700 C   0  0  0  0  0  0  0  0  0  0  0  0
   58.6590   32.0290   47.8950 N   0  0  0  0  0  0  0  0  0  0  0  0
   58.2760   33.3300   47.4550 C   0  0  0  0  0  0  0  0  0  0  0  0
   59.2070   34.4180   47.8810 C   0  0  0  0  0  0  0  0  0  0  0  0
   60.6460   34.0810   47.7590 C   0  0  0  0  0  0  0  0  0  0  0  0
   61.4530   34.0420   48.8980 C   0  0  0  0  0  0  0  0  0  0  0  0
   62.7740   33.7300   48.8100 C   0  0  0  0  0  0  0  0  0  0  0  0
   63.3090   33.4510   47.5720 C   0  0  0  0  0  0  0  0  0  0  0  0
   62.5400   33.4770   46.4090 C   0  0  0  0  0  0  0  0  0  0  0  0
   61.1830   33.7970   46.4980 C   0  0  0  0  0  0  0  0  0  0  0  0
   55.8950   26.9570   45.7620 N   0  0  0  0  0  0  0  0  0  0  0  0
   55.7120   25.8060   46.3480 O   0  0  0  0  0  0  0  0  0  0  0  0
   57.0321   24.3016   48.6949 H   0  0  0  0  0  0  0  0  0  0  0  0
   56.2717   23.3852   47.3500 H   0  0  0  0  0  0  0  0  0  0  0  0
   58.0445   23.6746   47.3500 H   0  0  0  0  0  0  0  0  0  0  0  0
   58.8761   26.2783   46.8632 H   0  0  0  0  0  0  0  0  0  0  0  0
   57.5522   30.8642   43.4888 H   0  0  0  0  0  0  0  0  0  0  0  0
   56.8394   31.6020   45.0057 H   0  0  0  0  0  0  0  0  0  0  0  0
   57.7220   33.1188   50.0399 H   0  0  0  0  0  0  0  0  0  0  0  0
   57.9966   31.8845   52.4305 H   0  0  0  0  0  0  0  0  0  0  0  0
   56.5975   31.6867   51.3214 H   0  0  0  0  0  0  0  0  0  0  0  0
   57.9222   30.4735   51.3214 H   0  0  0  0  0  0  0  0  0  0  0  0
   59.4538   33.2909   53.0294 H   0  0  0  0  0  0  0  0  0  0  0  0
   59.8918   34.6975   52.0017 H   0  0  0  0  0  0  0  0  0  0  0  0
   58.2067   34.0753   52.0017 H   0  0  0  0  0  0  0  0  0  0  0  0
   60.4654   31.8586   52.5700 H   0  0  0  0  0  0  0  0  0  0  0  0
   60.1145   30.8775   51.1068 H   0  0  0  0  0  0  0  0  0  0  0  0
   61.4933   32.0287   51.1068 H   0  0  0  0  0  0  0  0  0  0  0  0
   58.2323   33.3237   46.3559 H   0  0  0  0  0  0  0  0  0  0  0  0
   57.3022   33.5470   47.9184 H   0  0  0  0  0  0  0  0  0  0  0  0
   59.0078   35.3032   47.2592 H   0  0  0  0  0  0  0  0  0  0  0  0
   59.0165   34.5908   48.9505 H   0  0  0  0  0  0  0  0  0  0  0  0
   61.0138   34.2670   49.8811 H   0  0  0  0  0  0  0  0  0  0  0  0
   63.4037   33.7010   49.7115 H   0  0  0  0  0  0  0  0  0  0  0  0
   64.3773   33.1995   47.4982 H   0  0  0  0  0  0  0  0  0  0  0  0
   62.9959   33.2486   45.4343 H   0  0  0  0  0  0  0  0  0  0  0  0
   60.5512   33.8251   45.5980 H   0  0  0  0  0  0  0  0  0  0  0  0
   55.1460   27.5040   45.2790 H   0  0  0  0  0  0  0  0  0  0  0  0
  1  2  1  0
  2  3  2  0
  3  4  1  0
  4  5  2  0
  5  6  1  0
  6  7  2  0
  6  8  1  0
  8  9  1  0
  9 10  1  0
 10 11  2  0
 11 12  1  0
 12 13  2  0
 13 14  1  0
 14 15  1  0
 14 16  1  0
 16 17  1  0
 16 18  1  0
 13 19  1  0
 19 20  1  0
 20 21  1  0
 21 22  1  0
 22 23  2  0
 23 24  1  0
 24 25  2  0
 25 26  1  0
 26 27  2  0
  4 28  1  0
 28 29  1  0
 29  2  1  0
 19 10  1  0
 27 22  1  0
  1 30  1  0
  1 31  1  0
  1 32  1  0
  3 33  1  0
  8 34  1  0
  8 35  1  0
 14 36  1  6
 15 37  1  0
 15 38  1  0
 15 39  1  0
 17 40  1  0
 17 41  1  0
 17 42  1  0
 18 43  1  0
 18 44  1  0
 18 45  1  0
 20 46  1  0
 20 47  1  0
 21 48  1  0
 21 49  1  0
 23 50  1  0
 24 51  1  0
 25 52  1  0
 26 53  1  0
 27 54  1  0
 28 55  1  0
M  END
>  <smiles>  (75) 
Cc1cc(=NC(=O)CSc2nnc(C(C)N(C)C)n2CCc2ccccc2)[nH]o1

>  <score_type>  (75) 
oracle

>  <origin>  (75) 
adg

>  <m_score__min__energy>  (75) 
-10.02

>  <m_primary>  (75) 
energy

$$$$
76:0
     RDKit          3D

 36 39  0  0  1  0  0  0  0  0999 V2000
   62.7660   31.2060   47.8360 O   0  0  0  0  0  0  0  0  0  0  0  0
   61.7620   31.8100   47.3280 C   0  0  0  0  0  0  0  0  0  0  0  0
   60.7820   31.0130   46.7330 N   0  0  0  0  0  0  0  0  0  0  0  0
   59.6040   31.5290   46.1390 C   0  0  0  0  0  0  0  0  0  0  0  0
   58.7500   30.6240   45.5390 C   0  0  0  0  0  0  0  0  0  0  0  0
   57.5920   30.9910   44.8880 C   0  0  0  0  0  0  0  0  0  0  0  0
   56.5310   29.8220   44.1400 S   0  0  0  0  0  0  0  0  0  0  0  0
   56.2840   30.3110   42.7340 O   0  0  0  0  0  0  0  0  0  0  0  0
   55.2270   29.6980   44.8430 O   0  0  0  0  0  0  0  0  0  0  0  0
   57.3790   28.2920   44.1270 N   0  0  0  0  0  0  0  0  0  0  0  0
   57.1510   27.3950   44.9590 C   0  0  0  0  0  0  0  0  0  0  0  0
   56.0690   26.9790   45.6430 N   0  0  0  0  0  0  0  0  0  0  0  0
   56.1040   26.0020   46.4620 C   0  0  0  0  0  0  0  0  0  0  0  0
   57.3390   25.3170   46.6700 C   0  0  0  0  0  0  0  0  0  0  0  0
   58.5080   26.2190   45.5480 S   0  0  0  0  0  0  0  0  0  0  0  0
   57.2850   32.3300   44.8410 C   0  0  0  0  0  0  0  0  0  0  0  0
   58.1490   33.2470   45.4480 C   0  0  0  0  0  0  0  0  0  0  0  0
   59.2800   32.8620   46.0820 C   0  0  0  0  0  0  0  0  0  0  0  0
   60.2800   34.1120   46.8700 S   0  0  0  0  0  0  0  0  0  0  0  0
   61.7500   33.2410   47.4300 C   0  0  0  0  0  0  0  0  0  0  0  0
   62.7420   33.9380   47.8630 C   0  0  0  0  0  0  0  0  0  0  0  0
   63.4700   33.7490   49.1210 C   0  0  0  0  0  0  0  0  0  0  0  0
   63.0620   34.2090   50.3980 C   0  0  0  0  0  0  0  0  0  0  0  0
   64.3860   33.6910   51.5050 S   0  0  0  0  0  0  0  0  0  0  0  0
   65.3330   32.9030   50.0500 C   0  0  0  0  0  0  0  0  0  0  0  0
   64.6310   33.1290   49.1940 N   0  0  0  0  0  0  0  0  0  0  0  0
   60.9260   29.9580   46.7240 H   0  0  0  0  0  0  0  0  0  0  0  0
   59.0075   29.5555   45.5831 H   0  0  0  0  0  0  0  0  0  0  0  0
   55.1470   27.5340   45.4520 H   0  0  0  0  0  0  0  0  0  0  0  0
   55.1961   25.6918   47.0001 H   0  0  0  0  0  0  0  0  0  0  0  0
   57.5463   24.4639   47.3328 H   0  0  0  0  0  0  0  0  0  0  0  0
   56.3725   32.6755   44.3331 H   0  0  0  0  0  0  0  0  0  0  0  0
   57.9003   34.3178   45.4085 H   0  0  0  0  0  0  0  0  0  0  0  0
   63.0795   34.7641   47.2198 H   0  0  0  0  0  0  0  0  0  0  0  0
   62.1443   34.7582   50.6552 H   0  0  0  0  0  0  0  0  0  0  0  0
   66.2974   32.3739   50.0452 H   0  0  0  0  0  0  0  0  0  0  0  0
  1  2  2  0
  2  3  1  0
  3  4  1  0
  4  5  2  0
  5  6  1  0
  6  7  1  0
  7  8  2  0
  7  9  2  0
  7 10  1  0
 10 11  2  0
 11 12  1  0
 12 13  1  0
 13 14  2  0
 14 15  1  0
  6 16  2  0
 16 17  1  0
 17 18  2  0
 18 19  1  0
 19 20  1  0
 20 21  2  0
 21 22  1  0
 22 23  2  0
 23 24  1  0
 24 25  1  0
 25 26  2  0
 20  2  1  0
 26 22  1  0
 18  4  1  0
 15 11  1  0
  3 27  1  0
  5 28  1  0
 12 29  1  0
 13 30  1  0
 14 31  1  0
 16 32  1  0
 17 33  1  0
 21 34  1  0
 23 35  1  0
 25 36  1  0
M  END
>  <smiles>  (76) 
O=C1Nc2cc(S(=O)(=O)N=c3[nH]ccs3)ccc2SC1=Cc1cscn1

>  <score_type>  (76) 
oracle

>  <origin>  (76) 
adg

>  <m_score__min__energy>  (76) 
-10.01

>  <m_primary>  (76) 
energy

$$$$
77:0
     RDKit          3D

 47 50  0  0  0  0  0  0  0  0999 V2000
   55.8000   28.3540   45.4050 O   0  0  0  0  0  0  0  0  0  0  0  0
   57.1120   27.8850   45.1950 C   0  0  0  0  0  0  0  0  0  0  0  0
   57.0210   26.4040   45.2370 C   0  0  0  0  0  0  0  0  0  0  0  0
   56.4880   25.7750   46.3550 C   0  0  0  0  0  0  0  0  0  0  0  0
   56.3920   24.3870   46.4220 C   0  0  0  0  0  0  0  0  0  0  0  0
   56.8310   23.6230   45.3600 C   0  0  0  0  0  0  0  0  0  0  0  0
   57.3580   24.2260   44.2510 C   0  0  0  0  0  0  0  0  0  0  0  0
   57.4620   25.6170   44.1690 C   0  0  0  0  0  0  0  0  0  0  0  0
   58.0340   28.3230   46.2920 C   0  0  0  0  0  0  0  0  0  0  0  0
   58.8030   29.5590   45.9780 C   0  0  0  0  0  0  0  0  0  0  0  0
   58.1440   30.4510   45.0600 N   0  0  0  0  0  0  0  0  0  0  0  0
   58.1720   31.8500   45.3040 C   0  0  0  0  0  0  0  0  0  0  0  0
   57.2680   32.6630   44.7060 N   0  0  0  0  0  0  0  0  0  0  0  0
   57.2480   33.9940   44.9000 C   0  0  0  0  0  0  0  0  0  0  0  0
   58.1520   34.5440   45.7150 N   0  0  0  0  0  0  0  0  0  0  0  0
   59.0910   33.8340   46.3580 C   0  0  0  0  0  0  0  0  0  0  0  0
   60.0390   34.3310   47.1990 O   0  0  0  0  0  0  0  0  0  0  0  0
   61.3130   33.8950   47.4270 C   0  0  0  0  0  0  0  0  0  0  0  0
   62.3180   33.7760   46.5060 C   0  0  0  0  0  0  0  0  0  0  0  0
   63.5960   33.3190   46.8310 C   0  0  0  0  0  0  0  0  0  0  0  0
   63.8730   32.9660   48.1330 C   0  0  0  0  0  0  0  0  0  0  0  0
   62.8850   33.0750   49.0800 C   0  0  0  0  0  0  0  0  0  0  0  0
   61.6320   33.5270   48.7390 C   0  0  0  0  0  0  0  0  0  0  0  0
   60.6800   33.6190   49.7150 F   0  0  0  0  0  0  0  0  0  0  0  0
   59.0830   32.4650   46.1350 C   0  0  0  0  0  0  0  0  0  0  0  0
   60.0040   31.6880   46.7550 F   0  0  0  0  0  0  0  0  0  0  0  0
   57.4650   29.9230   43.9090 C   0  0  0  0  0  0  0  0  0  0  0  0
   57.5240   28.4150   43.8420 C   0  0  0  0  0  0  0  0  0  0  0  0
   55.1380   27.8780   44.8730 H   0  0  0  0  0  0  0  0  0  0  0  0
   56.1359   26.3831   47.2014 H   0  0  0  0  0  0  0  0  0  0  0  0
   55.9693   23.9034   47.3150 H   0  0  0  0  0  0  0  0  0  0  0  0
   56.7570   22.5264   45.4053 H   0  0  0  0  0  0  0  0  0  0  0  0
   57.7052   23.6064   43.4110 H   0  0  0  0  0  0  0  0  0  0  0  0
   57.8875   26.0891   43.2712 H   0  0  0  0  0  0  0  0  0  0  0  0
   57.4339   28.5088   47.1950 H   0  0  0  0  0  0  0  0  0  0  0  0
   58.7693   27.5168   46.4313 H   0  0  0  0  0  0  0  0  0  0  0  0
   58.9807   30.1020   46.9180 H   0  0  0  0  0  0  0  0  0  0  0  0
   59.7331   29.2348   45.4884 H   0  0  0  0  0  0  0  0  0  0  0  0
   56.4980   34.6203   44.3948 H   0  0  0  0  0  0  0  0  0  0  0  0
   62.1091   34.0531   45.4622 H   0  0  0  0  0  0  0  0  0  0  0  0
   64.3730   33.2417   46.0562 H   0  0  0  0  0  0  0  0  0  0  0  0
   64.8730   32.6014   48.4106 H   0  0  0  0  0  0  0  0  0  0  0  0
   63.0981   32.7977   50.1229 H   0  0  0  0  0  0  0  0  0  0  0  0
   56.4104   30.2331   43.9489 H   0  0  0  0  0  0  0  0  0  0  0  0
   57.9695   30.3167   43.0143 H   0  0  0  0  0  0  0  0  0  0  0  0
   56.8348   28.0460   43.0681 H   0  0  0  0  0  0  0  0  0  0  0  0
   58.5392   28.0776   43.5860 H   0  0  0  0  0  0  0  0  0  0  0  0
  1  2  1  0
  2  3  1  0
  3  4  2  0
  4  5  1  0
  5  6  2  0
  6  7  1  0
  7  8  2  0
  2  9  1  0
  9 10  1  0
 10 11  1  0
 11 12  1  0
 12 13  2  0
 13 14  1  0
 14 15  2  0
 15 16  1  0
 16 17  1  0
 17 18  1  0
 18 19  2  0
 19 20  1  0
 20 21  2  0
 21 22  1  0
 22 23  2  0
 23 24  1  0
 16 25  2  0
 25 26  1  0
 11 27  1  0
 27 28  1  0
 28  2  1  0
  8  3  1  0
 25 12  1  0
 23 18  1  0
  1 29  1  0
  4 30  1  0
  5 31  1  0
  6 32  1  0
  7 33  1  0
  8 34  1  0
  9 35  1  0
  9 36  1  0
 10 37  1  0
 10 38  1  0
 14 39  1  0
 19 40  1  0
 20 41  1  0
 21 42  1  0
 22 43  1  0
 27 44  1  0
 27 45  1  0
 28 46  1  0
 28 47  1  0
M  END
>  <smiles>  (77) 
OC1(c2ccccc2)CCN(c2ncnc(Oc3ccccc3F)c2F)CC1

>  <score_type>  (77) 
oracle

>  <origin>  (77) 
adg

>  <m_score__min__energy>  (77) 
-8.9800000000000004

>  <m_primary>  (77) 
energy

$$$$
78:0
     RDKit          3D

 40 42  0  0  1  0  0  0  0  0999 V2000
   57.1910   31.5930   43.8300 C   0  0  0  0  0  0  0  0  0  0  0  0
   57.0830   31.7380   45.2260 O   0  0  0  0  0  0  0  0  0  0  0  0
   58.0690   32.3640   45.9860 C   0  0  0  0  0  0  0  0  0  0  0  0
   57.7510   33.5800   46.5340 C   0  0  0  0  0  0  0  0  0  0  0  0
   58.6900   34.1900   47.2670 N   0  0  0  0  0  0  0  0  0  0  0  0
   59.8990   33.6110   47.4470 C   0  0  0  0  0  0  0  0  0  0  0  0
   60.7980   34.3000   48.2060 C   0  0  0  0  0  0  0  0  0  0  0  0
   62.0310   33.7420   48.4070 C   0  0  0  0  0  0  0  0  0  0  0  0
   62.4350   32.5450   47.9050 C   0  0  0  0  0  0  0  0  0  0  0  0
   63.7160   32.0550   48.1630 N   0  0  0  0  0  0  0  0  0  0  0  0
   61.4840   31.8560   47.1240 C   0  0  0  0  0  0  0  0  0  0  0  0
   60.2460   32.3920   46.9080 C   0  0  0  0  0  0  0  0  0  0  0  0
   59.3160   31.7490   46.1610 C   0  0  0  0  0  0  0  0  0  0  0  0
   59.5070   30.6680   45.6360 N   0  0  0  0  0  0  0  0  0  0  0  0
   59.1080   29.4010   45.9200 C   0  0  0  0  0  0  0  0  0  0  0  0
   59.9170   28.4780   46.6310 C   0  0  0  0  0  0  0  0  0  0  0  0
   59.3980   27.2580   46.9730 C   0  0  0  0  0  0  0  0  0  0  0  0
   58.1020   26.9180   46.6380 C   0  0  0  0  0  0  0  0  0  0  0  0
   57.5410   25.5930   47.0130 C   0  0  0  0  0  0  0  0  0  0  0  0
   57.3090   27.7870   45.9580 C   0  0  0  0  0  0  0  0  0  0  0  0
   55.9630   27.4130   45.6190 N   0  0  0  0  0  0  0  0  0  0  0  0
   57.7830   29.0200   45.5910 C   0  0  0  0  0  0  0  0  0  0  0  0
   57.8335   30.7304   43.5996 H   0  0  0  0  0  0  0  0  0  0  0  0
   56.1917   31.4311   43.3998 H   0  0  0  0  0  0  0  0  0  0  0  0
   57.6322   32.5042   43.3998 H   0  0  0  0  0  0  0  0  0  0  0  0
   56.7625   34.0364   46.3772 H   0  0  0  0  0  0  0  0  0  0  0  0
   58.4480   35.1100   47.6820 H   0  0  0  0  0  0  0  0  0  0  0  0
   60.5397   35.2755   48.6438 H   0  0  0  0  0  0  0  0  0  0  0  0
   62.7496   34.3044   49.0212 H   0  0  0  0  0  0  0  0  0  0  0  0
   64.5230   32.1850   47.4850 H   0  0  0  0  0  0  0  0  0  0  0  0
   63.8920   31.5400   49.0540 H   0  0  0  0  0  0  0  0  0  0  0  0
   61.7408   30.8803   46.6857 H   0  0  0  0  0  0  0  0  0  0  0  0
   60.9499   28.7394   46.9046 H   0  0  0  0  0  0  0  0  0  0  0  0
   60.0224   26.5382   47.5226 H   0  0  0  0  0  0  0  0  0  0  0  0
   57.5046   25.5071   48.1090 H   0  0  0  0  0  0  0  0  0  0  0  0
   56.5246   25.4960   46.6037 H   0  0  0  0  0  0  0  0  0  0  0  0
   58.1787   24.7957   46.6037 H   0  0  0  0  0  0  0  0  0  0  0  0
   55.1400   27.9570   45.9660 H   0  0  0  0  0  0  0  0  0  0  0  0
   55.8770   26.5640   45.0020 H   0  0  0  0  0  0  0  0  0  0  0  0
   57.1332   29.7155   45.0397 H   0  0  0  0  0  0  0  0  0  0  0  0
  1  2  1  0
  2  3  1  0
  3  4  2  0
  4  5  1  0
  5  6  1  0
  6  7  2  0
  7  8  1  0
  8  9  2  0
  9 10  1  0
  9 11  1  0
 11 12  2  0
 12 13  1  0
 13 14  2  0
 14 15  1  0
 15 16  2  0
 16 17  1  0
 17 18  2  0
 18 19  1  0
 18 20  1  0
 20 21  1  0
 20 22  2  0
 13  3  1  0
 22 15  1  0
 12  6  1  0
  1 23  1  0
  1 24  1  0
  1 25  1  0
  4 26  1  0
  5 27  1  0
  7 28  1  0
  8 29  1  0
 10 30  1  0
 10 31  1  0
 11 32  1  0
 16 33  1  0
 17 34  1  0
 19 35  1  0
 19 36  1  0
 19 37  1  0
 21 38  1  0
 21 39  1  0
 22 40  1  0
M  END
>  <smiles>  (78) 
COc1c[nH]c2ccc(N)cc2c1=Nc1ccc(C)c(N)c1

>  <score_type>  (78) 
oracle

>  <origin>  (78) 
adg

>  <m_score__min__energy>  (78) 
-7.4900000000000002

>  <m_primary>  (78) 
energy

$$$$
79:0
     RDKit          3D

 52 54  0  0  1  0  0  0  0  0999 V2000
   55.8640   19.8910   47.1590 C   0  0  0  0  0  0  0  0  0  0  0  0
   56.1970   20.6480   45.9160 C   0  0  0  0  0  0  0  0  0  0  0  0
   55.3070   21.4380   45.4930 O   0  0  0  0  0  0  0  0  0  0  0  0
   57.4430   20.4800   45.2610 N   0  0  0  0  0  0  0  0  0  0  0  0
   57.7780   21.2080   44.0540 C   0  0  1  0  0  0  0  0  0  0  0  0
   56.7070   20.8530   43.0340 C   0  0  0  0  0  0  0  0  0  0  0  0
   57.7670   22.6840   44.2550 C   0  0  0  0  0  0  0  0  0  0  0  0
   58.4860   23.2430   45.3060 C   0  0  0  0  0  0  0  0  0  0  0  0
   58.4540   24.6160   45.4630 C   0  0  0  0  0  0  0  0  0  0  0  0
   57.7230   25.4230   44.5970 C   0  0  0  0  0  0  0  0  0  0  0  0
   57.7590   26.8380   44.8500 C   0  0  0  0  0  0  0  0  0  0  0  0
   57.7800   28.0290   45.0450 C   0  0  0  0  0  0  0  0  0  0  0  0
   57.7920   29.4450   45.2970 C   0  0  0  0  0  0  0  0  0  0  0  0
   58.6000   30.0210   46.2540 C   0  0  0  0  0  0  0  0  0  0  0  0
   58.5650   31.3500   46.4410 N   0  0  0  0  0  0  0  0  0  0  0  0
   57.7760   32.1660   45.7410 C   0  0  0  0  0  0  0  0  0  0  0  0
   57.6930   33.5270   45.8830 O   0  0  0  0  0  0  0  0  0  0  0  0
   58.7350   34.4500   45.8530 C   0  0  0  0  0  0  0  0  0  0  0  0
   59.7910   34.2380   46.8650 C   0  0  0  0  0  0  0  0  0  0  0  0
   59.5950   34.3200   48.2230 C   0  0  0  0  0  0  0  0  0  0  0  0
   60.6280   34.1010   49.1380 C   0  0  0  0  0  0  0  0  0  0  0  0
   61.8700   33.7970   48.6500 C   0  0  0  0  0  0  0  0  0  0  0  0
   62.0710   33.7130   47.2860 C   0  0  0  0  0  0  0  0  0  0  0  0
   63.4170   33.3810   46.7410 C   0  0  0  0  0  0  0  0  0  0  0  0
   61.0620   33.9250   46.3750 C   0  0  0  0  0  0  0  0  0  0  0  0
   56.9710   31.6080   44.7900 N   0  0  0  0  0  0  0  0  0  0  0  0
   56.9730   30.2820   44.5690 C   0  0  0  0  0  0  0  0  0  0  0  0
   57.0100   24.8660   43.5530 C   0  0  0  0  0  0  0  0  0  0  0  0
   57.0450   23.4930   43.4020 C   0  0  0  0  0  0  0  0  0  0  0  0
   56.1299   20.4954   48.0387 H   0  0  0  0  0  0  0  0  0  0  0  0
   54.7863   19.6716   47.1770 H   0  0  0  0  0  0  0  0  0  0  0  0
   56.4305   18.9483   47.1770 H   0  0  0  0  0  0  0  0  0  0  0  0
   58.1690   19.8220   45.6230 H   0  0  0  0  0  0  0  0  0  0  0  0
   58.7938   20.9333   43.7335 H   0  0  0  0  0  0  0  0  0  0  0  0
   55.7887   20.5486   43.5574 H   0  0  0  0  0  0  0  0  0  0  0  0
   56.4963   21.7294   42.4034 H   0  0  0  0  0  0  0  0  0  0  0  0
   57.0615   20.0243   42.4034 H   0  0  0  0  0  0  0  0  0  0  0  0
   59.0648   22.6094   45.9941 H   0  0  0  0  0  0  0  0  0  0  0  0
   59.0165   25.0787   46.2873 H   0  0  0  0  0  0  0  0  0  0  0  0
   59.2701   29.3948   46.8614 H   0  0  0  0  0  0  0  0  0  0  0  0
   59.2024   34.4038   44.8583 H   0  0  0  0  0  0  0  0  0  0  0  0
   58.2846   35.4273   46.0811 H   0  0  0  0  0  0  0  0  0  0  0  0
   58.5920   34.5661   48.6018 H   0  0  0  0  0  0  0  0  0  0  0  0
   60.4479   34.1710   50.2209 H   0  0  0  0  0  0  0  0  0  0  0  0
   62.7062   33.6200   49.3424 H   0  0  0  0  0  0  0  0  0  0  0  0
   64.1167   33.2084   47.5720 H   0  0  0  0  0  0  0  0  0  0  0  0
   63.3490   32.4727   46.1243 H   0  0  0  0  0  0  0  0  0  0  0  0
   63.7792   34.2167   46.1243 H   0  0  0  0  0  0  0  0  0  0  0  0
   61.2499   33.8504   45.2937 H   0  0  0  0  0  0  0  0  0  0  0  0
   56.3127   29.8592   43.7974 H   0  0  0  0  0  0  0  0  0  0  0  0
   56.4314   25.4970   42.8623 H   0  0  0  0  0  0  0  0  0  0  0  0
   56.4810   23.0317   42.5780 H   0  0  0  0  0  0  0  0  0  0  0  0
  1  2  1  0
  2  3  2  0
  2  4  1  0
  4  5  1  0
  5  6  1  0
  5  7  1  0
  7  8  2  0
  8  9  1  0
  9 10  2  0
 10 11  1  0
 11 12  3  0
 12 13  1  0
 13 14  2  0
 14 15  1  0
 15 16  2  0
 16 17  1  0
 17 18  1  0
 18 19  1  0
 19 20  2  0
 20 21  1  0
 21 22  2  0
 22 23  1  0
 23 24  1  0
 23 25  2  0
 16 26  1  0
 26 27  2  0
 10 28  1  0
 28 29  2  0
 29  7  1  0
 27 13  1  0
 25 19  1  0
  1 30  1  0
  1 31  1  0
  1 32  1  0
  4 33  1  0
  5 34  1  6
  6 35  1  0
  6 36  1  0
  6 37  1  0
  8 38  1  0
  9 39  1  0
 14 40  1  0
 18 41  1  0
 18 42  1  0
 20 43  1  0
 21 44  1  0
 22 45  1  0
 24 46  1  0
 24 47  1  0
 24 48  1  0
 25 49  1  0
 27 50  1  0
 28 51  1  0
 29 52  1  0
M  END
>  <smiles>  (79) 
CC(=O)NC(C)c1ccc(C#Cc2cnc(OCc3cccc(C)c3)nc2)cc1

>  <score_type>  (79) 
oracle

>  <origin>  (79) 
adg

>  <m_score__min__energy>  (79) 
-8.1699999999999999

>  <m_primary>  (79) 
energy

$$$$
80:0
     RDKit          3D

 51 53  0  0  0  0  0  0  0  0999 V2000
   60.7170   29.7810   47.8520 C   0  0  0  0  0  0  0  0  0  0  0  0
   59.6480   30.6290   47.2310 C   0  0  0  0  0  0  0  0  0  0  0  0
   59.6030   30.4730   45.7060 C   0  0  0  0  0  0  0  0  0  0  0  0
   58.2300   30.5190   45.2610 N   0  0  0  0  0  0  0  0  0  0  0  0
   57.5190   31.6000   44.9080 C   0  0  0  0  0  0  0  0  0  0  0  0
   58.0910   33.3140   44.8930 S   0  0  0  0  0  0  0  0  0  0  0  0
   58.3340   33.7390   46.6670 C   0  0  0  0  0  0  0  0  0  0  0  0
   59.2490   34.9350   46.8140 C   0  0  0  0  0  0  0  0  0  0  0  0
   60.4910   34.5130   47.3580 N   0  0  0  0  0  0  0  0  0  0  0  0
   60.4970   34.0110   48.6820 C   0  0  0  0  0  0  0  0  0  0  0  0
   61.9200   34.2140   49.2230 C   0  0  0  0  0  0  0  0  0  0  0  0
   62.9140   33.4730   48.3600 C   0  0  0  0  0  0  0  0  0  0  0  0
   62.3270   32.9030   47.1060 C   0  0  0  0  0  0  0  0  0  0  0  0
   61.4010   33.8840   46.4590 C   0  0  0  0  0  0  0  0  0  0  0  0
   56.2590   31.2320   44.5470 N   0  0  0  0  0  0  0  0  0  0  0  0
   56.1880   29.8950   44.6800 N   0  0  0  0  0  0  0  0  0  0  0  0
   57.4070   29.4650   45.1200 C   0  0  0  0  0  0  0  0  0  0  0  0
   57.6920   28.0590   45.3770 C   0  0  0  0  0  0  0  0  0  0  0  0
   57.8350   27.1510   44.3300 C   0  0  0  0  0  0  0  0  0  0  0  0
   58.1050   25.8420   44.6490 C   0  0  0  0  0  0  0  0  0  0  0  0
   58.2320   25.4200   45.9430 C   0  0  0  0  0  0  0  0  0  0  0  0
   58.5120   24.0380   46.1950 N   0  0  0  0  0  0  0  0  0  0  0  0
   59.4860   23.4790   45.6380 O   0  0  0  0  0  0  0  0  0  0  0  0
   57.7320   23.3000   47.0410 O   0  0  0  0  0  0  0  0  0  0  0  0
   58.0950   26.3010   46.9780 C   0  0  0  0  0  0  0  0  0  0  0  0
   57.8250   27.6230   46.6840 C   0  0  0  0  0  0  0  0  0  0  0  0
   60.6419   29.8406   48.9478 H   0  0  0  0  0  0  0  0  0  0  0  0
   60.5886   28.7365   47.5319 H   0  0  0  0  0  0  0  0  0  0  0  0
   61.7049   30.1437   47.5319 H   0  0  0  0  0  0  0  0  0  0  0  0
   58.6737   30.3329   47.6470 H   0  0  0  0  0  0  0  0  0  0  0  0
   59.8750   31.6811   47.4579 H   0  0  0  0  0  0  0  0  0  0  0  0
   60.1689   31.2910   45.2363 H   0  0  0  0  0  0  0  0  0  0  0  0
   60.0502   29.5092   45.4212 H   0  0  0  0  0  0  0  0  0  0  0  0
   57.3587   33.9738   47.1182 H   0  0  0  0  0  0  0  0  0  0  0  0
   58.7946   32.8789   47.1751 H   0  0  0  0  0  0  0  0  0  0  0  0
   59.4165   35.3926   45.8278 H   0  0  0  0  0  0  0  0  0  0  0  0
   58.7851   35.6730   47.4849 H   0  0  0  0  0  0  0  0  0  0  0  0
   59.7738   34.5630   49.3003 H   0  0  0  0  0  0  0  0  0  0  0  0
   60.2124   32.9487   48.7043 H   0  0  0  0  0  0  0  0  0  0  0  0
   62.1619   35.2871   49.2171 H   0  0  0  0  0  0  0  0  0  0  0  0
   61.9738   33.8239   50.2501 H   0  0  0  0  0  0  0  0  0  0  0  0
   63.7166   34.1711   48.0798 H   0  0  0  0  0  0  0  0  0  0  0  0
   63.2798   32.6230   48.9547 H   0  0  0  0  0  0  0  0  0  0  0  0
   63.1397   32.6586   46.4061 H   0  0  0  0  0  0  0  0  0  0  0  0
   61.7577   31.9976   47.3631 H   0  0  0  0  0  0  0  0  0  0  0  0
   62.0080   34.6663   45.9799 H   0  0  0  0  0  0  0  0  0  0  0  0
   60.7918   33.3155   45.7408 H   0  0  0  0  0  0  0  0  0  0  0  0
   57.7350   27.4715   43.2825 H   0  0  0  0  0  0  0  0  0  0  0  0
   58.2228   25.1098   43.8366 H   0  0  0  0  0  0  0  0  0  0  0  0
   58.1973   25.9654   48.0206 H   0  0  0  0  0  0  0  0  0  0  0  0
   57.7132   28.3451   47.5062 H   0  0  0  0  0  0  0  0  0  0  0  0
  1  2  1  0
  2  3  1  0
  3  4  1  0
  4  5  1  0
  5  6  1  0
  6  7  1  0
  7  8  1  0
  8  9  1  0
  9 10  1  0
 10 11  1  0
 11 12  1  0
 12 13  1  0
 13 14  1  0
  5 15  2  0
 15 16  1  0
 16 17  2  0
 17 18  1  0
 18 19  2  0
 19 20  1  0
 20 21  2  0
 21 22  1  0
 22 23  2  0
 22 24  1  0
 21 25  1  0
 25 26  2  0
 17  4  1  0
 26 18  1  0
 14  9  1  0
  1 27  1  0
  1 28  1  0
  1 29  1  0
  2 30  1  0
  2 31  1  0
  3 32  1  0
  3 33  1  0
  7 34  1  0
  7 35  1  0
  8 36  1  0
  8 37  1  0
 10 38  1  0
 10 39  1  0
 11 40  1  0
 11 41  1  0
 12 42  1  0
 12 43  1  0
 13 44  1  0
 13 45  1  0
 14 46  1  0
 14 47  1  0
 19 48  1  0
 20 49  1  0
 25 50  1  0
 26 51  1  0
M  CHG  2  22   1  24  -1
M  END
>  <smiles>  (80) 
CCCn1c(SCCN2CCCCC2)nnc1-c1ccc([N+](=O)[O-])cc1

>  <score_type>  (80) 
oracle

>  <origin>  (80) 
adg

>  <m_score__min__energy>  (80) 
-8.5999999999999996

>  <m_primary>  (80) 
energy

$$$$
81:0
     RDKit          3D

 39 41  0  0  0  0  0  0  0  0999 V2000
   56.6540   29.3840   44.1160 C   0  0  0  0  0  0  0  0  0  0  0  0
   56.6570   30.4120   45.0990 O   0  0  0  0  0  0  0  0  0  0  0  0
   57.3820   31.5620   44.9310 C   0  0  0  0  0  0  0  0  0  0  0  0
   57.6880   31.9240   43.6150 C   0  0  0  0  0  0  0  0  0  0  0  0
   58.4250   33.0850   43.3780 C   0  0  0  0  0  0  0  0  0  0  0  0
   58.8520   33.8790   44.4530 C   0  0  0  0  0  0  0  0  0  0  0  0
   58.5560   33.5330   45.7420 C   0  0  0  0  0  0  0  0  0  0  0  0
   58.9390   34.2900   46.9550 C   0  0  0  0  0  0  0  0  0  0  0  0
   60.3130   34.0430   47.3980 C   0  0  0  0  0  0  0  0  0  0  0  0
   61.2720   33.8380   46.4090 C   0  0  0  0  0  0  0  0  0  0  0  0
   62.5540   33.5530   46.6910 N   0  0  0  0  0  0  0  0  0  0  0  0
   62.9950   33.4490   47.9560 C   0  0  0  0  0  0  0  0  0  0  0  0
   64.2640   33.1570   48.2440 N   0  0  0  0  0  0  0  0  0  0  0  0
   64.7200   33.0410   49.4970 C   0  0  0  0  0  0  0  0  0  0  0  0
   65.9600   32.7570   49.7470 N   0  0  0  0  0  0  0  0  0  0  0  0
   63.8640   33.2240   50.5080 N   0  0  0  0  0  0  0  0  0  0  0  0
   62.5630   33.5220   50.2580 C   0  0  0  0  0  0  0  0  0  0  0  0
   61.7890   33.6790   51.2770 N   0  0  0  0  0  0  0  0  0  0  0  0
   62.0790   33.6460   48.9730 C   0  0  0  0  0  0  0  0  0  0  0  0
   60.7480   33.9430   48.6970 C   0  0  0  0  0  0  0  0  0  0  0  0
   59.8190   34.1920   49.8100 C   0  0  0  0  0  0  0  0  0  0  0  0
   57.8160   32.3640   45.9610 C   0  0  0  0  0  0  0  0  0  0  0  0
   56.6511   28.4023   44.6122 H   0  0  0  0  0  0  0  0  0  0  0  0
   55.7561   29.4800   43.4878 H   0  0  0  0  0  0  0  0  0  0  0  0
   57.5524   29.4747   43.4878 H   0  0  0  0  0  0  0  0  0  0  0  0
   57.3508   31.2993   42.7747 H   0  0  0  0  0  0  0  0  0  0  0  0
   58.6715   33.3781   42.3468 H   0  0  0  0  0  0  0  0  0  0  0  0
   59.4328   34.7922   44.2560 H   0  0  0  0  0  0  0  0  0  0  0  0
   58.8313   35.3638   46.7418 H   0  0  0  0  0  0  0  0  0  0  0  0
   58.2761   33.9524   47.7653 H   0  0  0  0  0  0  0  0  0  0  0  0
   60.9673   33.9125   45.3547 H   0  0  0  0  0  0  0  0  0  0  0  0
   64.9200   33.0180   47.4390 H   0  0  0  0  0  0  0  0  0  0  0  0
   66.6790   32.7140   48.9920 H   0  0  0  0  0  0  0  0  0  0  0  0
   64.2100   33.1350   51.4860 H   0  0  0  0  0  0  0  0  0  0  0  0
   61.2700   32.9010   51.7090 H   0  0  0  0  0  0  0  0  0  0  0  0
   60.3454   34.0509   50.7655 H   0  0  0  0  0  0  0  0  0  0  0  0
   59.4410   35.2232   49.7484 H   0  0  0  0  0  0  0  0  0  0  0  0
   58.9759   33.4881   49.7484 H   0  0  0  0  0  0  0  0  0  0  0  0
   57.5730   32.0767   46.9946 H   0  0  0  0  0  0  0  0  0  0  0  0
  1  2  1  0
  2  3  1  0
  3  4  2  0
  4  5  1  0
  5  6  2  0
  6  7  1  0
  7  8  1  0
  8  9  1  0
  9 10  2  0
 10 11  1  0
 11 12  2  0
 12 13  1  0
 13 14  1  0
 14 15  2  3
 14 16  1  0
 16 17  1  0
 17 18  2  3
 17 19  1  0
 19 20  2  0
 20 21  1  0
  7 22  2  0
 22  3  1  0
 20  9  1  0
 19 12  1  0
  1 23  1  0
  1 24  1  0
  1 25  1  0
  4 26  1  0
  5 27  1  0
  6 28  1  0
  8 29  1  0
  8 30  1  0
 10 31  1  0
 13 32  1  0
 15 33  1  0
 16 34  1  0
 18 35  1  0
 21 36  1  0
 21 37  1  0
 21 38  1  0
 22 39  1  0
M  END
>  <smiles>  (81) 
COc1cccc(Cc2cnc3[nH]c(=N)[nH]c(=N)c3c2C)c1

>  <score_type>  (81) 
oracle

>  <origin>  (81) 
adg

>  <m_score__min__energy>  (81) 
-7.4100000000000001

>  <m_primary>  (81) 
energy

$$$$
82:0
     RDKit          3D

 22 23  0  0  1  0  0  0  0  0999 V2000
   56.2660   28.9730   42.2280 N   0  0  0  0  0  0  0  0  0  0  0  0
   56.7120   29.5740   43.4400 C   0  0  0  0  0  0  0  0  0  0  0  0
   56.9180   30.9510   43.4890 C   0  0  0  0  0  0  0  0  0  0  0  0
   57.3530   31.5250   44.6770 C   0  0  0  0  0  0  0  0  0  0  0  0
   57.5240   32.8040   44.6570 N   0  0  0  0  0  0  0  0  0  0  0  0
   58.3140   33.4080   45.6560 C   0  0  0  0  0  0  0  0  0  0  0  0
   57.9820   33.4360   46.9940 C   0  0  0  0  0  0  0  0  0  0  0  0
   58.8250   34.0480   47.8540 N   0  0  0  0  0  0  0  0  0  0  0  0
   59.9740   34.6260   47.4270 C   0  0  0  0  0  0  0  0  0  0  0  0
   60.3170   34.6130   46.1370 N   0  0  0  0  0  0  0  0  0  0  0  0
   59.5110   34.0190   45.2630 C   0  0  0  0  0  0  0  0  0  0  0  0
   57.5730   30.7620   45.7630 N   0  0  0  0  0  0  0  0  0  0  0  0
   57.3710   29.4240   45.7030 C   0  0  0  0  0  0  0  0  0  0  0  0
   56.9440   28.8250   44.5550 N   0  0  0  0  0  0  0  0  0  0  0  0
   55.8340   29.4880   41.4560 H   0  0  0  0  0  0  0  0  0  0  0  0
   56.3820   27.9390   42.1130 H   0  0  0  0  0  0  0  0  0  0  0  0
   56.7389   31.5743   42.6005 H   0  0  0  0  0  0  0  0  0  0  0  0
   57.0521   32.9707   47.3528 H   0  0  0  0  0  0  0  0  0  0  0  0
   60.6361   35.1148   48.1568 H   0  0  0  0  0  0  0  0  0  0  0  0
   59.7925   34.0070   44.1997 H   0  0  0  0  0  0  0  0  0  0  0  0
   57.5548   28.8095   46.5967 H   0  0  0  0  0  0  0  0  0  0  0  0
   56.7820   27.7950   44.4950 H   0  0  0  0  0  0  0  0  0  0  0  0
  1  2  1  0
  2  3  2  0
  3  4  1  0
  4  5  2  0
  5  6  1  0
  6  7  2  0
  7  8  1  0
  8  9  2  0
  9 10  1  0
 10 11  2  0
  4 12  1  0
 12 13  2  0
 13 14  1  0
 14  2  1  0
 11  6  1  0
  1 15  1  0
  1 16  1  0
  3 17  1  0
  7 18  1  0
  9 19  1  0
 11 20  1  0
 13 21  1  0
 14 22  1  0
M  END
>  <smiles>  (82) 
Nc1cc(=Nc2cncnc2)nc[nH]1

>  <score_type>  (82) 
oracle

>  <origin>  (82) 
adg

>  <m_score__min__energy>  (82) 
-5.3899999999999997

>  <m_primary>  (82) 
energy

$$$$
83:0
     RDKit          3D

 26 28  0  0  1  0  0  0  0  0999 V2000
   59.7120   33.9800   48.7890 Cl  0  0  0  0  0  0  0  0  0  0  0  0
   59.1400   33.9550   47.1180 C   0  0  0  0  0  0  0  0  0  0  0  0
   59.5020   34.9610   46.2320 C   0  0  0  0  0  0  0  0  0  0  0  0
   59.0160   34.8800   44.9310 C   0  0  0  0  0  0  0  0  0  0  0  0
   58.2010   33.8480   44.5100 C   0  0  0  0  0  0  0  0  0  0  0  0
   57.8590   32.8690   45.4080 C   0  0  0  0  0  0  0  0  0  0  0  0
   57.0170   31.7610   45.0560 N   0  0  0  0  0  0  0  0  0  0  0  0
   57.4250   30.5930   45.1540 C   0  0  0  0  0  0  0  0  0  0  0  0
   56.9240   29.4520   45.6160 N   0  0  0  0  0  0  0  0  0  0  0  0
   57.5630   28.3400   45.6070 C   0  0  0  0  0  0  0  0  0  0  0  0
   57.0540   27.0560   46.1050 C   0  0  0  0  0  0  0  0  0  0  0  0
   55.8690   26.4390   46.0110 C   0  0  0  0  0  0  0  0  0  0  0  0
   55.7690   25.2680   46.5950 N   0  0  0  0  0  0  0  0  0  0  0  0
   56.5870   24.6640   47.2040 C   0  0  0  0  0  0  0  0  0  0  0  0
   58.0670   25.8850   47.0840 S   0  0  0  0  0  0  0  0  0  0  0  0
   58.8890   28.3260   45.0680 C   0  0  0  0  0  0  0  0  0  0  0  0
   59.1460   30.0850   44.5660 S   0  0  0  0  0  0  0  0  0  0  0  0
   58.3240   32.9150   46.7160 C   0  0  0  0  0  0  0  0  0  0  0  0
   60.1498   35.7922   46.5475 H   0  0  0  0  0  0  0  0  0  0  0  0
   59.2907   35.6660   44.2122 H   0  0  0  0  0  0  0  0  0  0  0  0
   57.8329   33.8116   43.4741 H   0  0  0  0  0  0  0  0  0  0  0  0
   55.9040   29.5160   46.0190 H   0  0  0  0  0  0  0  0  0  0  0  0
   55.0231   26.8905   45.4720 H   0  0  0  0  0  0  0  0  0  0  0  0
   56.5187   23.6834   47.6976 H   0  0  0  0  0  0  0  0  0  0  0  0
   59.5832   27.4777   44.9756 H   0  0  0  0  0  0  0  0  0  0  0  0
   58.0436   32.1261   47.4294 H   0  0  0  0  0  0  0  0  0  0  0  0
  1  2  1  0
  2  3  2  0
  3  4  1  0
  4  5  2  0
  5  6  1  0
  6  7  1  0
  7  8  2  0
  8  9  1  0
  9 10  1  0
 10 11  1  0
 11 12  2  0
 12 13  1  0
 13 14  2  0
 14 15  1  0
 10 16  2  0
 16 17  1  0
  6 18  2  0
 18  2  1  0
 17  8  1  0
 15 11  1  0
  3 19  1  0
  4 20  1  0
  5 21  1  0
  9 22  1  0
 12 23  1  0
 14 24  1  0
 16 25  1  0
 18 26  1  0
M  END
>  <smiles>  (83) 
Clc1cccc(N=c2[nH]c(-c3cncs3)cs2)c1

>  <score_type>  (83) 
oracle

>  <origin>  (83) 
adg

>  <m_score__min__energy>  (83) 
-7.1500000000000004

>  <m_primary>  (83) 
energy

$$$$
84:0
     RDKit          3D

 41 43  0  0  0  0  0  0  0  0999 V2000
   64.0830   33.3990   48.2210 C   0  0  0  0  0  0  0  0  0  0  0  0
   62.6220   33.4380   47.9510 C   0  0  0  0  0  0  0  0  0  0  0  0
   61.9910   32.5420   47.1730 N   0  0  0  0  0  0  0  0  0  0  0  0
   60.6680   32.8680   47.1390 C   0  0  0  0  0  0  0  0  0  0  0  0
   59.6480   32.1280   46.3940 C   0  0  0  0  0  0  0  0  0  0  0  0
   59.5730   30.7680   46.6220 C   0  0  0  0  0  0  0  0  0  0  0  0
   58.6320   30.0260   45.9480 C   0  0  0  0  0  0  0  0  0  0  0  0
   57.7590   30.6260   45.0470 C   0  0  0  0  0  0  0  0  0  0  0  0
   56.6060   29.6130   44.2440 S   0  0  0  0  0  0  0  0  0  0  0  0
   55.4960   30.4320   43.6590 O   0  0  0  0  0  0  0  0  0  0  0  0
   55.9850   28.6730   45.2510 O   0  0  0  0  0  0  0  0  0  0  0  0
   57.3820   28.7260   43.0060 N   0  0  0  0  0  0  0  0  0  0  0  0
   58.3700   27.8450   43.5440 C   0  0  0  0  0  0  0  0  0  0  0  0
   57.7670   26.5580   44.0620 C   0  0  0  0  0  0  0  0  0  0  0  0
   57.7300   26.4560   45.4880 N   0  0  0  0  0  0  0  0  0  0  0  0
   58.7830   26.8340   46.4260 C   0  0  0  0  0  0  0  0  0  0  0  0
   58.6900   25.7130   47.4390 C   0  0  0  0  0  0  0  0  0  0  0  0
   57.2590   25.4690   47.5060 N   0  0  0  0  0  0  0  0  0  0  0  0
   56.6530   25.9600   46.3070 C   0  0  0  0  0  0  0  0  0  0  0  0
   55.4340   25.9790   45.9850 O   0  0  0  0  0  0  0  0  0  0  0  0
   57.8440   31.9890   44.8270 C   0  0  0  0  0  0  0  0  0  0  0  0
   58.7910   32.7470   45.5030 C   0  0  0  0  0  0  0  0  0  0  0  0
   60.5340   33.9640   47.9060 N   0  0  0  0  0  0  0  0  0  0  0  0
   61.7150   34.2850   48.3790 O   0  0  0  0  0  0  0  0  0  0  0  0
   64.2551   33.3944   49.3074 H   0  0  0  0  0  0  0  0  0  0  0  0
   64.5136   32.4890   47.7777 H   0  0  0  0  0  0  0  0  0  0  0  0
   64.5616   34.2847   47.7777 H   0  0  0  0  0  0  0  0  0  0  0  0
   60.2578   30.2843   47.3341 H   0  0  0  0  0  0  0  0  0  0  0  0
   58.5688   28.9420   46.1240 H   0  0  0  0  0  0  0  0  0  0  0  0
   57.7570   29.3800   42.2940 H   0  0  0  0  0  0  0  0  0  0  0  0
   59.0966   27.6031   42.7543 H   0  0  0  0  0  0  0  0  0  0  0  0
   58.8532   28.3559   44.3899 H   0  0  0  0  0  0  0  0  0  0  0  0
   56.7363   26.4845   43.6848 H   0  0  0  0  0  0  0  0  0  0  0  0
   58.4129   25.7422   43.7051 H   0  0  0  0  0  0  0  0  0  0  0  0
   59.7687   26.8559   45.9382 H   0  0  0  0  0  0  0  0  0  0  0  0
   58.6665   27.8405   46.8542 H   0  0  0  0  0  0  0  0  0  0  0  0
   59.2301   24.8191   47.0937 H   0  0  0  0  0  0  0  0  0  0  0  0
   59.1388   25.9622   48.4119 H   0  0  0  0  0  0  0  0  0  0  0  0
   56.7300   25.0150   48.2820 H   0  0  0  0  0  0  0  0  0  0  0  0
   57.1598   32.4736   44.1149 H   0  0  0  0  0  0  0  0  0  0  0  0
   58.8588   33.8313   45.3309 H   0  0  0  0  0  0  0  0  0  0  0  0
  1  2  1  0
  2  3  2  0
  3  4  1  0
  4  5  1  0
  5  6  2  0
  6  7  1  0
  7  8  2  0
  8  9  1  0
  9 10  2  0
  9 11  2  0
  9 12  1  0
 12 13  1  0
 13 14  1  0
 14 15  1  0
 15 16  1  0
 16 17  1  0
 17 18  1  0
 18 19  1  0
 19 20  2  0
  8 21  1  0
 21 22  2  0
  4 23  2  0
 23 24  1  0
 24  2  1  0
 22  5  1  0
 19 15  1  0
  1 25  1  0
  1 26  1  0
  1 27  1  0
  6 28  1  0
  7 29  1  0
 12 30  1  0
 13 31  1  0
 13 32  1  0
 14 33  1  0
 14 34  1  0
 16 35  1  0
 16 36  1  0
 17 37  1  0
 17 38  1  0
 18 39  1  0
 21 40  1  0
 22 41  1  0
M  END
>  <smiles>  (84) 
Cc1nc(-c2ccc(S(=O)(=O)NCCN3CCNC3=O)cc2)no1

>  <score_type>  (84) 
oracle

>  <origin>  (84) 
adg

>  <m_score__min__energy>  (84) 
-8.1300000000000008

>  <m_primary>  (84) 
energy

$$$$
85:0
     RDKit          3D

 40 42  0  0  1  0  0  0  0  0999 V2000
   61.5770   31.5340   47.1060 C   0  0  0  0  0  0  0  0  0  0  0  0
   61.0100   30.3890   46.4710 O   0  0  0  0  0  0  0  0  0  0  0  0
   60.6720   29.2810   47.2340 C   0  0  0  0  0  0  0  0  0  0  0  0
   60.5760   29.2840   48.5990 C   0  0  0  0  0  0  0  0  0  0  0  0
   60.2310   28.1210   49.2730 C   0  0  0  0  0  0  0  0  0  0  0  0
   59.9880   26.9670   48.5310 C   0  0  0  0  0  0  0  0  0  0  0  0
   60.0820   26.9520   47.1510 C   0  0  0  0  0  0  0  0  0  0  0  0
   60.4230   28.1090   46.5040 C   0  0  0  0  0  0  0  0  0  0  0  0
   60.5230   28.1250   44.9990 C   0  0  0  0  0  0  0  0  0  0  0  0
   59.1940   28.0980   44.5030 N   0  0  0  0  0  0  0  0  0  0  0  0
   58.3890   29.0940   44.4930 C   0  0  0  0  0  0  0  0  0  0  0  0
   58.7920   30.3160   44.9200 N   0  0  0  0  0  0  0  0  0  0  0  0
   57.9800   31.3910   44.9250 C   0  0  0  0  0  0  0  0  0  0  0  0
   58.4260   32.6990   45.3870 C   0  0  0  0  0  0  0  0  0  0  0  0
   58.5660   33.0130   46.7300 C   0  0  0  0  0  0  0  0  0  0  0  0
   58.9900   34.2540   47.1670 C   0  0  0  0  0  0  0  0  0  0  0  0
   59.2990   35.2550   46.2750 C   0  0  0  0  0  0  0  0  0  0  0  0
   59.1680   34.9680   44.9370 C   0  0  0  0  0  0  0  0  0  0  0  0
   58.7390   33.7100   44.4950 C   0  0  0  0  0  0  0  0  0  0  0  0
   56.6950   31.1880   44.4660 C   0  0  0  0  0  0  0  0  0  0  0  0
   56.2510   29.9390   44.0190 C   0  0  0  0  0  0  0  0  0  0  0  0
   55.0900   29.7830   43.6110 O   0  0  0  0  0  0  0  0  0  0  0  0
   57.1340   28.9210   44.0510 N   0  0  0  0  0  0  0  0  0  0  0  0
   61.5179   31.4146   48.1979 H   0  0  0  0  0  0  0  0  0  0  0  0
   62.6300   31.6365   46.8048 H   0  0  0  0  0  0  0  0  0  0  0  0
   61.0203   32.4336   46.8048 H   0  0  0  0  0  0  0  0  0  0  0  0
   60.7723   30.2083   49.1621 H   0  0  0  0  0  0  0  0  0  0  0  0
   60.1511   28.1104   50.3700 H   0  0  0  0  0  0  0  0  0  0  0  0
   59.7135   26.0412   49.0578 H   0  0  0  0  0  0  0  0  0  0  0  0
   59.8867   26.0291   46.5851 H   0  0  0  0  0  0  0  0  0  0  0  0
   61.0350   29.0386   44.6625 H   0  0  0  0  0  0  0  0  0  0  0  0
   61.1007   27.2642   44.6311 H   0  0  0  0  0  0  0  0  0  0  0  0
   59.7800   30.3670   45.2480 H   0  0  0  0  0  0  0  0  0  0  0  0
   58.3299   32.2427   47.4789 H   0  0  0  0  0  0  0  0  0  0  0  0
   59.0820   34.4446   48.2465 H   0  0  0  0  0  0  0  0  0  0  0  0
   59.6369   36.2439   46.6183 H   0  0  0  0  0  0  0  0  0  0  0  0
   59.4058   35.7450   44.1956 H   0  0  0  0  0  0  0  0  0  0  0  0
   58.6489   33.5214   43.4150 H   0  0  0  0  0  0  0  0  0  0  0  0
   55.9958   32.0371   44.4510 H   0  0  0  0  0  0  0  0  0  0  0  0
   56.8200   27.9910   43.7250 H   0  0  0  0  0  0  0  0  0  0  0  0
  1  2  1  0
  2  3  1  0
  3  4  2  0
  4  5  1  0
  5  6  2  0
  6  7  1  0
  7  8  2  0
  8  9  1  0
  9 10  1  0
 10 11  2  0
 11 12  1  0
 12 13  1  0
 13 14  1  0
 14 15  2  0
 15 16  1  0
 16 17  2  0
 17 18  1  0
 18 19  2  0
 13 20  2  0
 20 21  1  0
 21 22  2  0
 21 23  1  0
  8  3  1  0
 23 11  1  0
 19 14  1  0
  1 24  1  0
  1 25  1  0
  1 26  1  0
  4 27  1  0
  5 28  1  0
  6 29  1  0
  7 30  1  0
  9 31  1  0
  9 32  1  0
 12 33  1  0
 15 34  1  0
 16 35  1  0
 17 36  1  0
 18 37  1  0
 19 38  1  0
 20 39  1  0
 23 40  1  0
M  END
>  <smiles>  (85) 
COc1ccccc1CN=c1[nH]c(-c2ccccc2)cc(=O)[nH]1

>  <score_type>  (85) 
oracle

>  <origin>  (85) 
adg

>  <m_score__min__energy>  (85) 
-7.3499999999999996

>  <m_primary>  (85) 
energy

$$$$
86:0
     RDKit          3D

 34 36  0  0  1  0  0  0  0  0999 V2000
   51.0530   32.3090   49.9380 O   0  0  0  0  0  0  0  0  0  0  0  0
   51.3840   32.2400   51.1380 N   0  0  0  0  0  0  0  0  0  0  0  0
   50.8880   33.1840   52.0040 O   0  0  0  0  0  0  0  0  0  0  0  0
   52.2510   31.2110   51.5980 C   0  0  0  0  0  0  0  0  0  0  0  0
   51.7190   29.9880   51.9490 C   0  0  0  0  0  0  0  0  0  0  0  0
   52.5180   28.9620   52.3980 C   0  0  0  0  0  0  0  0  0  0  0  0
   53.8810   29.2140   52.4850 C   0  0  0  0  0  0  0  0  0  0  0  0
   54.4080   30.4450   52.1320 C   0  0  0  0  0  0  0  0  0  0  0  0
   55.8540   30.6120   52.2580 C   0  0  0  0  0  0  0  0  0  0  0  0
   56.6360   30.6210   53.3930 C   0  0  0  0  0  0  0  0  0  0  0  0
   57.9390   30.8110   52.9840 C   0  0  0  0  0  0  0  0  0  0  0  0
   57.9060   30.9120   51.6100 C   0  0  0  0  0  0  0  0  0  0  0  0
   59.0040   31.1180   50.6680 C   0  0  0  0  0  0  0  0  0  0  0  0
   59.4400   32.2780   50.3290 N   0  0  0  0  0  0  0  0  0  0  0  0
   59.2580   32.8680   49.0480 C   0  0  0  0  0  0  0  0  0  0  0  0
   58.5380   32.1790   48.0920 C   0  0  0  0  0  0  0  0  0  0  0  0
   58.3130   32.6760   46.8210 C   0  0  0  0  0  0  0  0  0  0  0  0
   58.8390   33.9170   46.5070 C   0  0  0  0  0  0  0  0  0  0  0  0
   58.5630   34.5680   44.8930 Cl  0  0  0  0  0  0  0  0  0  0  0  0
   59.5660   34.6240   47.4570 C   0  0  0  0  0  0  0  0  0  0  0  0
   59.7820   34.1110   48.7250 C   0  0  0  0  0  0  0  0  0  0  0  0
   56.6670   30.7890   51.2430 O   0  0  0  0  0  0  0  0  0  0  0  0
   53.6050   31.4560   51.6860 C   0  0  0  0  0  0  0  0  0  0  0  0
   50.6335   29.8296   51.8683 H   0  0  0  0  0  0  0  0  0  0  0  0
   52.0959   27.9850   52.6759 H   0  0  0  0  0  0  0  0  0  0  0  0
   54.5547   28.4207   52.8411 H   0  0  0  0  0  0  0  0  0  0  0  0
   56.2867   30.4996   54.4290 H   0  0  0  0  0  0  0  0  0  0  0  0
   58.8292   30.8703   53.6275 H   0  0  0  0  0  0  0  0  0  0  0  0
   59.4830   30.2322   50.2253 H   0  0  0  0  0  0  0  0  0  0  0  0
   58.1259   31.1929   48.3524 H   0  0  0  0  0  0  0  0  0  0  0  0
   57.7337   32.1025   46.0824 H   0  0  0  0  0  0  0  0  0  0  0  0
   59.9779   35.6102   47.1968 H   0  0  0  0  0  0  0  0  0  0  0  0
   60.3612   34.6815   49.4660 H   0  0  0  0  0  0  0  0  0  0  0  0
   54.0248   32.4335   51.4062 H   0  0  0  0  0  0  0  0  0  0  0  0
  1  2  2  0
  2  3  1  0
  2  4  1  0
  4  5  2  0
  5  6  1  0
  6  7  2  0
  7  8  1  0
  8  9  1  0
  9 10  2  0
 10 11  1  0
 11 12  2  0
 12 13  1  0
 13 14  2  0
 14 15  1  0
 15 16  2  0
 16 17  1  0
 17 18  2  0
 18 19  1  0
 18 20  1  0
 20 21  2  0
 12 22  1  0
  8 23  2  0
 23  4  1  0
 22  9  1  0
 21 15  1  0
  5 24  1  0
  6 25  1  0
  7 26  1  0
 10 27  1  0
 11 28  1  0
 13 29  1  0
 16 30  1  0
 17 31  1  0
 20 32  1  0
 21 33  1  0
 23 34  1  0
M  CHG  2   2   1   3  -1
M  END
>  <smiles>  (86) 
O=[N+]([O-])c1cccc(-c2ccc(C=Nc3ccc(Cl)cc3)o2)c1

>  <score_type>  (86) 
oracle

>  <origin>  (86) 
adg

>  <m_score__min__energy>  (86) 
-9.0500000000000007

>  <m_primary>  (86) 
energy

$$$$
87:0
     RDKit          3D

 45 47  0  0  1  0  0  0  0  0999 V2000
   65.2520   33.0270   49.4890 C   0  0  0  0  0  0  0  0  0  0  0  0
   64.0660   32.1780   49.6430 N   0  0  0  0  0  0  0  0  0  0  0  0
   64.0900   31.1670   50.6650 C   0  0  0  0  0  0  0  0  0  0  0  0
   62.9520   32.3610   48.8090 C   0  0  0  0  0  0  0  0  0  0  0  0
   63.0470   32.9730   47.5780 C   0  0  0  0  0  0  0  0  0  0  0  0
   61.9110   33.1370   46.7790 C   0  0  0  0  0  0  0  0  0  0  0  0
   60.6660   32.7170   47.1410 C   0  0  0  0  0  0  0  0  0  0  0  0
   59.4530   32.7710   46.3630 C   0  0  0  0  0  0  0  0  0  0  0  0
   58.7680   31.6150   46.0940 N   0  0  0  0  0  0  0  0  0  0  0  0
   57.6570   31.5940   45.3360 C   0  0  0  0  0  0  0  0  0  0  0  0
   57.0750   30.4800   45.1300 N   0  0  0  0  0  0  0  0  0  0  0  0
   57.4790   29.4410   44.2280 C   0  0  0  0  0  0  0  0  0  0  0  0
   58.4530   28.5830   44.9960 C   0  0  0  0  0  0  0  0  0  0  0  0
   58.0410   27.5490   45.8040 C   0  0  0  0  0  0  0  0  0  0  0  0
   58.9750   26.7890   46.4900 C   0  0  0  0  0  0  0  0  0  0  0  0
   60.3410   27.0500   46.3810 C   0  0  0  0  0  0  0  0  0  0  0  0
   60.7570   28.0910   45.5700 C   0  0  0  0  0  0  0  0  0  0  0  0
   59.8190   28.8420   44.8890 C   0  0  0  0  0  0  0  0  0  0  0  0
   57.1250   32.6930   44.7820 N   0  0  0  0  0  0  0  0  0  0  0  0
   57.7550   33.8560   45.0110 C   0  0  0  0  0  0  0  0  0  0  0  0
   57.2630   34.8910   44.4940 O   0  0  0  0  0  0  0  0  0  0  0  0
   58.9170   33.9050   45.7970 C   0  0  0  0  0  0  0  0  0  0  0  0
   59.5210   35.1870   45.9100 C   0  0  0  0  0  0  0  0  0  0  0  0
   60.0130   36.2220   45.9810 N   0  0  0  0  0  0  0  0  0  0  0  0
   60.5830   32.0960   48.3970 C   0  0  0  0  0  0  0  0  0  0  0  0
   61.7120   31.9340   49.1960 C   0  0  0  0  0  0  0  0  0  0  0  0
   65.6370   33.3026   50.4819 H   0  0  0  0  0  0  0  0  0  0  0  0
   66.0270   32.4772   48.9348 H   0  0  0  0  0  0  0  0  0  0  0  0
   64.9814   33.9379   48.9348 H   0  0  0  0  0  0  0  0  0  0  0  0
   64.0786   31.6462   51.6551 H   0  0  0  0  0  0  0  0  0  0  0  0
   63.2070   30.5194   50.5609 H   0  0  0  0  0  0  0  0  0  0  0  0
   65.0028   30.5620   50.5609 H   0  0  0  0  0  0  0  0  0  0  0  0
   64.0227   33.3349   47.2215 H   0  0  0  0  0  0  0  0  0  0  0  0
   62.0289   33.6326   45.8041 H   0  0  0  0  0  0  0  0  0  0  0  0
   59.0740   30.6930   46.4770 H   0  0  0  0  0  0  0  0  0  0  0  0
   56.6084   28.8457   43.9155 H   0  0  0  0  0  0  0  0  0  0  0  0
   57.9354   29.8528   43.3158 H   0  0  0  0  0  0  0  0  0  0  0  0
   56.9689   27.3250   45.9058 H   0  0  0  0  0  0  0  0  0  0  0  0
   58.6327   25.9644   47.1326 H   0  0  0  0  0  0  0  0  0  0  0  0
   61.0736   26.4397   46.9295 H   0  0  0  0  0  0  0  0  0  0  0  0
   61.8283   28.3191   45.4682 H   0  0  0  0  0  0  0  0  0  0  0  0
   60.1586   29.6665   44.2450 H   0  0  0  0  0  0  0  0  0  0  0  0
   56.2760   32.7030   44.1990 H   0  0  0  0  0  0  0  0  0  0  0  0
   59.6095   31.7310   48.7563 H   0  0  0  0  0  0  0  0  0  0  0  0
   61.6022   31.4443   50.1749 H   0  0  0  0  0  0  0  0  0  0  0  0
  1  2  1  0
  2  3  1  0
  2  4  1  0
  4  5  2  0
  5  6  1  0
  6  7  2  0
  7  8  1  0
  8  9  1  0
  9 10  1  0
 10 11  2  0
 11 12  1  0
 12 13  1  0
 13 14  2  0
 14 15  1  0
 15 16  2  0
 16 17  1  0
 17 18  2  0
 10 19  1  0
 19 20  1  0
 20 21  2  0
 20 22  1  0
 22 23  1  0
 23 24  3  0
  7 25  1  0
 25 26  2  0
 26  4  1  0
 22  8  2  0
 18 13  1  0
  1 27  1  0
  1 28  1  0
  1 29  1  0
  3 30  1  0
  3 31  1  0
  3 32  1  0
  5 33  1  0
  6 34  1  0
  9 35  1  0
 12 36  1  0
 12 37  1  0
 14 38  1  0
 15 39  1  0
 16 40  1  0
 17 41  1  0
 18 42  1  0
 19 43  1  0
 25 44  1  0
 26 45  1  0
M  END
>  <smiles>  (87) 
CN(C)c1ccc(-c2[nH]c(=NCc3ccccc3)[nH]c(=O)c2C#N)cc1

>  <score_type>  (87) 
oracle

>  <origin>  (87) 
adg

>  <m_score__min__energy>  (87) 
-7.5599999999999996

>  <m_primary>  (87) 
energy

$$$$
88:0
     RDKit          3D

 43 46  0  0  0  0  0  0  0  0999 V2000
   62.3400   30.7090   49.5320 F   0  0  0  0  0  0  0  0  0  0  0  0
   62.7960   31.7570   48.8200 C   0  0  0  0  0  0  0  0  0  0  0  0
   63.1630   31.6080   47.4840 C   0  0  0  0  0  0  0  0  0  0  0  0
   63.6350   32.7040   46.7590 C   0  0  0  0  0  0  0  0  0  0  0  0
   63.7360   33.9300   47.3640 C   0  0  0  0  0  0  0  0  0  0  0  0
   63.3750   34.0890   48.6870 C   0  0  0  0  0  0  0  0  0  0  0  0
   62.9020   32.9970   49.4230 C   0  0  0  0  0  0  0  0  0  0  0  0
   62.5320   33.2420   50.8410 C   0  0  0  0  0  0  0  0  0  0  0  0
   60.8280   33.7760   51.0570 S   0  0  0  0  0  0  0  0  0  0  0  0
   59.8750   33.5880   49.5560 C   0  0  0  0  0  0  0  0  0  0  0  0
   60.1290   34.3430   48.4720 N   0  0  0  0  0  0  0  0  0  0  0  0
   59.3980   34.1860   47.3530 C   0  0  0  0  0  0  0  0  0  0  0  0
   59.6890   34.9820   46.2540 C   0  0  0  0  0  0  0  0  0  0  0  0
   58.9420   34.8220   45.1050 C   0  0  0  0  0  0  0  0  0  0  0  0
   57.9240   33.8830   45.0600 C   0  0  0  0  0  0  0  0  0  0  0  0
   57.6500   33.0910   46.1790 C   0  0  0  0  0  0  0  0  0  0  0  0
   58.3920   33.2410   47.3410 C   0  0  0  0  0  0  0  0  0  0  0  0
   58.1330   32.4790   48.4300 N   0  0  0  0  0  0  0  0  0  0  0  0
   58.8730   32.6480   49.5440 C   0  0  0  0  0  0  0  0  0  0  0  0
   58.5750   31.8330   50.6690 N   0  0  0  0  0  0  0  0  0  0  0  0
   57.7440   32.3290   51.7490 C   0  0  0  0  0  0  0  0  0  0  0  0
   56.6400   31.3600   52.0990 C   0  0  0  0  0  0  0  0  0  0  0  0
   56.8880   30.0930   51.5580 O   0  0  0  0  0  0  0  0  0  0  0  0
   58.2090   29.7680   51.8430 C   0  0  0  0  0  0  0  0  0  0  0  0
   59.0750   30.4710   50.8090 C   0  0  0  0  0  0  0  0  0  0  0  0
   63.0806   30.6241   46.9991 H   0  0  0  0  0  0  0  0  0  0  0  0
   63.9251   32.5839   45.7048 H   0  0  0  0  0  0  0  0  0  0  0  0
   64.1072   34.7928   46.7915 H   0  0  0  0  0  0  0  0  0  0  0  0
   63.4594   35.0767   49.1638 H   0  0  0  0  0  0  0  0  0  0  0  0
   62.6785   32.3091   51.4051 H   0  0  0  0  0  0  0  0  0  0  0  0
   63.1747   34.0564   51.2066 H   0  0  0  0  0  0  0  0  0  0  0  0
   60.4987   35.7253   46.2980 H   0  0  0  0  0  0  0  0  0  0  0  0
   59.1553   35.4419   44.2217 H   0  0  0  0  0  0  0  0  0  0  0  0
   57.3303   33.7605   44.1421 H   0  0  0  0  0  0  0  0  0  0  0  0
   56.8422   32.3455   46.1376 H   0  0  0  0  0  0  0  0  0  0  0  0
   58.3727   32.4882   52.6375 H   0  0  0  0  0  0  0  0  0  0  0  0
   57.2802   33.2701   51.4184 H   0  0  0  0  0  0  0  0  0  0  0  0
   56.5705   31.2754   53.1935 H   0  0  0  0  0  0  0  0  0  0  0  0
   55.6971   31.7397   51.6786 H   0  0  0  0  0  0  0  0  0  0  0  0
   58.4729   30.1129   52.8537 H   0  0  0  0  0  0  0  0  0  0  0  0
   58.3612   28.6792   51.8064 H   0  0  0  0  0  0  0  0  0  0  0  0
   60.1220   30.4884   51.1458 H   0  0  0  0  0  0  0  0  0  0  0  0
   59.0323   29.9425   49.8452 H   0  0  0  0  0  0  0  0  0  0  0  0
  1  2  1  0
  2  3  2  0
  3  4  1  0
  4  5  2  0
  5  6  1  0
  6  7  2  0
  7  8  1  0
  8  9  1  0
  9 10  1  0
 10 11  2  0
 11 12  1  0
 12 13  2  0
 13 14  1  0
 14 15  2  0
 15 16  1  0
 16 17  2  0
 17 18  1  0
 18 19  2  0
 19 20  1  0
 20 21  1  0
 21 22  1  0
 22 23  1  0
 23 24  1  0
 24 25  1  0
  7  2  1  0
 19 10  1  0
 25 20  1  0
 17 12  1  0
  3 26  1  0
  4 27  1  0
  5 28  1  0
  6 29  1  0
  8 30  1  0
  8 31  1  0
 13 32  1  0
 14 33  1  0
 15 34  1  0
 16 35  1  0
 21 36  1  0
 21 37  1  0
 22 38  1  0
 22 39  1  0
 24 40  1  0
 24 41  1  0
 25 42  1  0
 25 43  1  0
M  END
>  <smiles>  (88) 
Fc1ccccc1CSc1nc2ccccc2nc1N1CCOCC1

>  <score_type>  (88) 
oracle

>  <origin>  (88) 
adg

>  <m_score__min__energy>  (88) 
-7.7999999999999998

>  <m_primary>  (88) 
energy

$$$$
89:0
     RDKit          3D

 33 35  0  0  0  0  0  0  0  0999 V2000
   64.4610   32.3460   49.4300 C   0  0  0  0  0  0  0  0  0  0  0  0
   63.8780   33.5620   48.2250 S   0  0  0  0  0  0  0  0  0  0  0  0
   62.0790   33.6150   48.1810 C   0  0  0  0  0  0  0  0  0  0  0  0
   61.3990   34.1680   49.2460 C   0  0  0  0  0  0  0  0  0  0  0  0
   60.0170   34.2210   49.2390 C   0  0  0  0  0  0  0  0  0  0  0  0
   59.3490   33.7070   48.1400 C   0  0  0  0  0  0  0  0  0  0  0  0
   60.0480   33.1480   47.0650 C   0  0  0  0  0  0  0  0  0  0  0  0
   59.2800   32.6430   45.9770 N   0  0  0  0  0  0  0  0  0  0  0  0
   58.8990   33.5220   44.9240 C   0  0  0  0  0  0  0  0  0  0  0  0
   59.2490   34.7210   44.9770 O   0  0  0  0  0  0  0  0  0  0  0  0
   58.1010   33.0910   43.7490 C   0  0  0  0  0  0  0  0  0  0  0  0
   57.7450   31.6680   43.7870 C   0  0  0  0  0  0  0  0  0  0  0  0
   57.0040   31.1530   42.7490 C   0  0  0  0  0  0  0  0  0  0  0  0
   56.6320   29.8120   42.7220 C   0  0  0  0  0  0  0  0  0  0  0  0
   56.9960   28.9540   43.7380 C   0  0  0  0  0  0  0  0  0  0  0  0
   57.7490   29.4640   44.7970 C   0  0  0  0  0  0  0  0  0  0  0  0
   58.1000   30.7960   44.7940 C   0  0  0  0  0  0  0  0  0  0  0  0
   58.8870   31.2780   45.9240 C   0  0  0  0  0  0  0  0  0  0  0  0
   59.2390   30.5400   46.8640 O   0  0  0  0  0  0  0  0  0  0  0  0
   61.4260   33.0920   47.0680 C   0  0  0  0  0  0  0  0  0  0  0  0
   64.2805   32.7226   50.4476 H   0  0  0  0  0  0  0  0  0  0  0  0
   63.9187   31.3996   49.2876 H   0  0  0  0  0  0  0  0  0  0  0  0
   65.5384   32.1762   49.2876 H   0  0  0  0  0  0  0  0  0  0  0  0
   61.9582   34.5685   50.1044 H   0  0  0  0  0  0  0  0  0  0  0  0
   59.4638   34.6592   50.0828 H   0  0  0  0  0  0  0  0  0  0  0  0
   58.2498   33.7389   48.1120 H   0  0  0  0  0  0  0  0  0  0  0  0
   57.1745   33.6832   43.7185 H   0  0  0  0  0  0  0  0  0  0  0  0
   58.7209   33.2508   42.8544 H   0  0  0  0  0  0  0  0  0  0  0  0
   56.6994   31.8138   41.9241 H   0  0  0  0  0  0  0  0  0  0  0  0
   56.0388   29.4311   41.8776 H   0  0  0  0  0  0  0  0  0  0  0  0
   56.7006   27.8947   43.7147 H   0  0  0  0  0  0  0  0  0  0  0  0
   58.0587   28.8093   45.6249 H   0  0  0  0  0  0  0  0  0  0  0  0
   61.9847   32.6534   46.2280 H   0  0  0  0  0  0  0  0  0  0  0  0
  1  2  1  0
  2  3  1  0
  3  4  2  0
  4  5  1  0
  5  6  2  0
  6  7  1  0
  7  8  1  0
  8  9  1  0
  9 10  2  0
  9 11  1  0
 11 12  1  0
 12 13  2  0
 13 14  1  0
 14 15  2  0
 15 16  1  0
 16 17  2  0
 17 18  1  0
 18 19  2  0
  7 20  2  0
 20  3  1  0
 18  8  1  0
 17 12  1  0
  1 21  1  0
  1 22  1  0
  1 23  1  0
  4 24  1  0
  5 25  1  0
  6 26  1  0
 11 27  1  0
 11 28  1  0
 13 29  1  0
 14 30  1  0
 15 31  1  0
 16 32  1  0
 20 33  1  0
M  END
>  <smiles>  (89) 
CSc1cccc(N2C(=O)Cc3ccccc3C2=O)c1

>  <score_type>  (89) 
oracle

>  <origin>  (89) 
adg

>  <m_score__min__energy>  (89) 
-7.3399999999999999

>  <m_primary>  (89) 
energy

$$$$
90:0
     RDKit          3D

 58 61  0  0  1  0  0  0  0  0999 V2000
   51.0420   24.0020   43.1540 C   0  0  0  0  0  0  0  0  0  0  0  0
   50.8880   24.4570   44.5860 C   0  0  0  0  0  0  0  0  0  0  0  0
   51.5240   23.4410   45.5200 C   0  0  0  0  0  0  0  0  0  0  0  0
   52.8870   23.1640   45.1940 N   0  0  0  0  0  0  0  0  0  0  0  0
   53.8980   24.1580   45.2730 C   0  0  0  0  0  0  0  0  0  0  0  0
   53.6340   25.3440   45.6390 O   0  0  0  0  0  0  0  0  0  0  0  0
   55.2850   23.7990   44.9200 C   0  0  0  0  0  0  0  0  0  0  0  0
   56.3330   24.5110   45.4680 C   0  0  0  0  0  0  0  0  0  0  0  0
   57.6240   24.1560   45.1230 C   0  0  0  0  0  0  0  0  0  0  0  0
   58.7440   24.8140   45.6220 O   0  0  0  0  0  0  0  0  0  0  0  0
   58.8610   26.1980   45.6580 C   0  0  0  0  0  0  0  0  0  0  0  0
   60.1160   26.6940   46.0160 C   0  0  0  0  0  0  0  0  0  0  0  0
   60.3650   28.0500   46.0910 C   0  0  0  0  0  0  0  0  0  0  0  0
   59.3110   28.8980   45.7950 C   0  0  0  0  0  0  0  0  0  0  0  0
   59.5230   30.2040   45.8590 N   0  0  0  0  0  0  0  0  0  0  0  0
   58.5240   31.0830   45.5790 C   0  0  0  0  0  0  0  0  0  0  0  0
   58.8290   32.3290   45.6690 N   0  0  0  0  0  0  0  0  0  0  0  0
   59.1990   32.8990   46.9390 C   0  0  0  0  0  0  0  0  0  0  0  0
   60.6990   32.8700   47.0170 C   0  0  0  0  0  0  0  0  0  0  0  0
   61.4820   33.8440   46.4330 C   0  0  0  0  0  0  0  0  0  0  0  0
   62.8620   33.8410   46.4900 C   0  0  0  0  0  0  0  0  0  0  0  0
   63.5060   32.8190   47.1640 C   0  0  0  0  0  0  0  0  0  0  0  0
   62.7230   31.8480   47.7470 C   0  0  0  0  0  0  0  0  0  0  0  0
   61.3390   31.8560   47.6870 C   0  0  0  0  0  0  0  0  0  0  0  0
   60.5890   30.8670   48.2840 O   0  0  0  0  0  0  0  0  0  0  0  0
   60.8310   30.5420   49.6390 C   0  0  0  0  0  0  0  0  0  0  0  0
   57.2960   30.6570   45.2300 N   0  0  0  0  0  0  0  0  0  0  0  0
   57.0580   29.3220   45.1590 C   0  0  0  0  0  0  0  0  0  0  0  0
   58.0570   28.4120   45.4390 C   0  0  0  0  0  0  0  0  0  0  0  0
   57.8240   27.0540   45.3680 C   0  0  0  0  0  0  0  0  0  0  0  0
   57.8420   23.0990   44.2410 C   0  0  0  0  0  0  0  0  0  0  0  0
   56.7750   22.4030   43.7080 C   0  0  0  0  0  0  0  0  0  0  0  0
   55.5280   22.7850   44.0740 N   0  0  0  0  0  0  0  0  0  0  0  0
   51.3946   22.9602   43.1362 H   0  0  0  0  0  0  0  0  0  0  0  0
   50.0710   24.0693   42.6415 H   0  0  0  0  0  0  0  0  0  0  0  0
   51.7725   24.6452   42.6415 H   0  0  0  0  0  0  0  0  0  0  0  0
   51.3824   25.4311   44.7148 H   0  0  0  0  0  0  0  0  0  0  0  0
   49.8182   24.5499   44.8246 H   0  0  0  0  0  0  0  0  0  0  0  0
   51.4813   23.8331   46.5469 H   0  0  0  0  0  0  0  0  0  0  0  0
   50.9621   22.5009   45.4175 H   0  0  0  0  0  0  0  0  0  0  0  0
   53.1920   22.1950   44.8780 H   0  0  0  0  0  0  0  0  0  0  0  0
   56.1452   25.3422   46.1636 H   0  0  0  0  0  0  0  0  0  0  0  0
   60.9269   25.9866   46.2441 H   0  0  0  0  0  0  0  0  0  0  0  0
   61.3547   28.4387   46.3728 H   0  0  0  0  0  0  0  0  0  0  0  0
   60.4770   30.5600   46.1300 H   0  0  0  0  0  0  0  0  0  0  0  0
   58.8378   33.9358   47.0067 H   0  0  0  0  0  0  0  0  0  0  0  0
   58.7531   32.3298   47.7680 H   0  0  0  0  0  0  0  0  0  0  0  0
   60.9827   34.6635   45.8954 H   0  0  0  0  0  0  0  0  0  0  0  0
   63.4414   34.6409   46.0057 H   0  0  0  0  0  0  0  0  0  0  0  0
   64.6033   32.7833   47.2317 H   0  0  0  0  0  0  0  0  0  0  0  0
   63.2197   31.0275   48.2856 H   0  0  0  0  0  0  0  0  0  0  0  0
   60.3003   31.2547   50.2874 H   0  0  0  0  0  0  0  0  0  0  0  0
   60.4701   29.5229   49.8417 H   0  0  0  0  0  0  0  0  0  0  0  0
   61.9108   30.5957   49.8417 H   0  0  0  0  0  0  0  0  0  0  0  0
   56.0581   28.9620   44.8752 H   0  0  0  0  0  0  0  0  0  0  0  0
   56.8341   26.6656   45.0866 H   0  0  0  0  0  0  0  0  0  0  0  0
   58.8698   22.8176   43.9680 H   0  0  0  0  0  0  0  0  0  0  0  0
   56.9323   21.5672   43.0103 H   0  0  0  0  0  0  0  0  0  0  0  0
  1  2  1  0
  2  3  1  0
  3  4  1  0
  4  5  1  0
  5  6  2  0
  5  7  1  0
  7  8  2  0
  8  9  1  0
  9 10  1  0
 10 11  1  0
 11 12  2  0
 12 13  1  0
 13 14  2  0
 14 15  1  0
 15 16  1  0
 16 17  2  0
 17 18  1  0
 18 19  1  0
 19 20  2  0
 20 21  1  0
 21 22  2  0
 22 23  1  0
 23 24  2  0
 24 25  1  0
 25 26  1  0
 16 27  1  0
 27 28  2  0
 28 29  1  0
 29 30  2  0
  9 31  2  0
 31 32  1  0
 32 33  2  0
 33  7  1  0
 30 11  1  0
 29 14  1  0
 24 19  1  0
  1 34  1  0
  1 35  1  0
  1 36  1  0
  2 37  1  0
  2 38  1  0
  3 39  1  0
  3 40  1  0
  4 41  1  0
  8 42  1  0
 12 43  1  0
 13 44  1  0
 15 45  1  0
 18 46  1  0
 18 47  1  0
 20 48  1  0
 21 49  1  0
 22 50  1  0
 23 51  1  0
 26 52  1  0
 26 53  1  0
 26 54  1  0
 28 55  1  0
 30 56  1  0
 31 57  1  0
 32 58  1  0
M  END
>  <smiles>  (90) 
CCCNC(=O)c1cc(Oc2ccc3[nH]c(=NCc4ccccc4OC)ncc3c2)ccn1

>  <score_type>  (90) 
oracle

>  <origin>  (90) 
adg

>  <m_score__min__energy>  (90) 
-8.3499999999999996

>  <m_primary>  (90) 
energy

$$$$
91:0
     RDKit          3D

 32 34  0  0  1  0  0  0  0  0999 V2000
   55.4280   29.3420   44.8780 O   0  0  0  0  0  0  0  0  0  0  0  0
   56.6360   29.0870   45.1020 C   0  0  0  0  0  0  0  0  0  0  0  0
   57.0360   27.7150   45.5250 C   0  0  0  0  0  0  0  0  0  0  0  0
   58.4100   27.6740   46.1100 C   0  0  2  0  0  0  0  0  0  0  0  0
   58.7860   29.0140   46.7350 C   0  0  0  0  0  0  0  0  0  0  0  0
   58.9400   29.8580   45.4660 C   0  0  1  0  0  0  0  0  0  0  0  0
   59.5960   28.8850   44.5190 C   0  0  0  0  0  0  0  0  0  0  0  0
   59.4440   27.5570   45.0820 N   0  0  0  0  0  0  0  0  0  0  0  0
   57.6070   30.1160   44.9470 N   0  0  0  0  0  0  0  0  0  0  0  0
   57.3180   31.3840   44.3060 C   0  0  0  0  0  0  0  0  0  0  0  0
   57.9210   32.5480   45.0040 C   0  0  0  0  0  0  0  0  0  0  0  0
   58.6380   33.4880   44.2570 C   0  0  0  0  0  0  0  0  0  0  0  0
   59.2170   34.5920   44.8730 C   0  0  0  0  0  0  0  0  0  0  0  0
   59.0820   34.7650   46.2470 C   0  0  0  0  0  0  0  0  0  0  0  0
   59.6420   35.8360   46.8650 F   0  0  0  0  0  0  0  0  0  0  0  0
   58.3790   33.8490   47.0030 C   0  0  0  0  0  0  0  0  0  0  0  0
   57.8120   32.7580   46.3620 C   0  0  0  0  0  0  0  0  0  0  0  0
   56.3206   27.3559   46.2795 H   0  0  0  0  0  0  0  0  0  0  0  0
   57.0349   27.0758   44.6298 H   0  0  0  0  0  0  0  0  0  0  0  0
   58.3756   26.8276   46.8118 H   0  0  0  0  0  0  0  0  0  0  0  0
   57.9891   29.3989   47.3883 H   0  0  0  0  0  0  0  0  0  0  0  0
   59.6700   28.9911   47.3893 H   0  0  0  0  0  0  0  0  0  0  0  0
   59.4813   30.8045   45.6115 H   0  0  0  0  0  0  0  0  0  0  0  0
   59.1085   28.9332   43.5341 H   0  0  0  0  0  0  0  0  0  0  0  0
   60.6603   29.1303   44.3882 H   0  0  0  0  0  0  0  0  0  0  0  0
   60.3300   27.3360   45.5900 H   0  0  0  0  0  0  0  0  0  0  0  0
   57.7092   31.3525   43.2784 H   0  0  0  0  0  0  0  0  0  0  0  0
   56.2267   31.5196   44.3311 H   0  0  0  0  0  0  0  0  0  0  0  0
   58.7451   33.3526   43.1706 H   0  0  0  0  0  0  0  0  0  0  0  0
   59.7794   35.3255   44.2766 H   0  0  0  0  0  0  0  0  0  0  0  0
   58.2709   33.9815   48.0896 H   0  0  0  0  0  0  0  0  0  0  0  0
   57.2506   32.0280   46.9636 H   0  0  0  0  0  0  0  0  0  0  0  0
  1  2  2  0
  2  3  1  0
  3  4  1  0
  4  5  1  0
  5  6  1  0
  6  7  1  0
  7  8  1  0
  6  9  1  0
  9 10  1  0
 10 11  1  0
 11 12  2  0
 12 13  1  0
 13 14  2  0
 14 15  1  0
 14 16  1  0
 16 17  2  0
  9  2  1  0
 17 11  1  0
  8  4  1  0
  3 18  1  0
  3 19  1  0
  4 20  1  1
  5 21  1  0
  5 22  1  0
  6 23  1  1
  7 24  1  0
  7 25  1  0
  8 26  1  0
 10 27  1  0
 10 28  1  0
 12 29  1  0
 13 30  1  0
 16 31  1  0
 17 32  1  0
M  END
>  <smiles>  (91) 
O=C1CC2CC(CN2)N1Cc1ccc(F)cc1

>  <score_type>  (91) 
oracle

>  <origin>  (91) 
adg

>  <m_score__min__energy>  (91) 
-6.5300000000000002

>  <m_primary>  (91) 
energy

$$$$
92:0
     RDKit          3D

 36 36  0  0  0  0  0  0  0  0999 V2000
   60.0100   29.3880   46.1580 C   0  0  0  0  0  0  0  0  0  0  0  0
   59.6770   28.6260   44.5450 S   0  0  0  0  0  0  0  0  0  0  0  0
   58.0680   27.8380   44.4850 C   0  0  0  0  0  0  0  0  0  0  0  0
   57.0980   28.3650   45.5120 C   0  0  0  0  0  0  0  0  0  0  0  0
   55.9170   28.9300   44.9590 N   0  0  0  0  0  0  0  0  0  0  0  0
   56.0550   29.6920   43.7680 C   0  0  0  0  0  0  0  0  0  0  0  0
   56.8910   30.9100   43.9180 C   0  0  0  0  0  0  0  0  0  0  0  0
   57.2410   31.4950   42.8700 O   0  0  0  0  0  0  0  0  0  0  0  0
   57.2580   31.3640   45.2060 N   0  0  0  0  0  0  0  0  0  0  0  0
   58.0430   32.5000   45.4890 C   0  0  0  0  0  0  0  0  0  0  0  0
   57.8250   33.6250   44.6830 C   0  0  0  0  0  0  0  0  0  0  0  0
   58.5420   34.7840   44.8820 C   0  0  0  0  0  0  0  0  0  0  0  0
   59.4990   34.9110   45.8640 C   0  0  0  0  0  0  0  0  0  0  0  0
   59.7160   33.8010   46.6610 C   0  0  0  0  0  0  0  0  0  0  0  0
   60.7140   33.8420   47.7310 C   0  0  0  0  0  0  0  0  0  0  0  0
   62.1380   33.5720   47.4020 C   0  0  0  0  0  0  0  0  0  0  0  0
   60.3890   34.1020   48.9280 O   0  0  0  0  0  0  0  0  0  0  0  0
   58.9830   32.6240   46.4540 C   0  0  0  0  0  0  0  0  0  0  0  0
   59.7082   28.6973   46.9591 H   0  0  0  0  0  0  0  0  0  0  0  0
   61.0848   29.6046   46.2463 H   0  0  0  0  0  0  0  0  0  0  0  0
   59.4389   30.3239   46.2463 H   0  0  0  0  0  0  0  0  0  0  0  0
   57.6384   28.0006   43.4855 H   0  0  0  0  0  0  0  0  0  0  0  0
   58.2231   26.7716   44.7058 H   0  0  0  0  0  0  0  0  0  0  0  0
   56.8073   27.5337   46.1711 H   0  0  0  0  0  0  0  0  0  0  0  0
   57.6143   29.1735   46.0502 H   0  0  0  0  0  0  0  0  0  0  0  0
   55.1400   28.2470   44.8730 H   0  0  0  0  0  0  0  0  0  0  0  0
   56.5132   29.0516   42.9999 H   0  0  0  0  0  0  0  0  0  0  0  0
   55.0462   30.0331   43.4923 H   0  0  0  0  0  0  0  0  0  0  0  0
   56.8930   30.7740   46.0120 H   0  0  0  0  0  0  0  0  0  0  0  0
   57.0724   33.5822   43.8819 H   0  0  0  0  0  0  0  0  0  0  0  0
   58.3415   35.6456   44.2282 H   0  0  0  0  0  0  0  0  0  0  0  0
   60.0612   35.8455   46.0072 H   0  0  0  0  0  0  0  0  0  0  0  0
   62.7149   33.4626   48.3322 H   0  0  0  0  0  0  0  0  0  0  0  0
   62.2092   32.6443   46.8152 H   0  0  0  0  0  0  0  0  0  0  0  0
   62.5438   34.4092   46.8152 H   0  0  0  0  0  0  0  0  0  0  0  0
   59.1814   31.7611   47.1067 H   0  0  0  0  0  0  0  0  0  0  0  0
  1  2  1  0
  2  3  1  0
  3  4  1  0
  4  5  1  0
  5  6  1  0
  6  7  1  0
  7  8  2  0
  7  9  1  0
  9 10  1  0
 10 11  2  0
 11 12  1  0
 12 13  2  0
 13 14  1  0
 14 15  1  0
 15 16  1  0
 15 17  2  0
 14 18  2  0
 18 10  1  0
  1 19  1  0
  1 20  1  0
  1 21  1  0
  3 22  1  0
  3 23  1  0
  4 24  1  0
  4 25  1  0
  5 26  1  0
  6 27  1  0
  6 28  1  0
  9 29  1  0
 11 30  1  0
 12 31  1  0
 13 32  1  0
 16 33  1  0
 16 34  1  0
 16 35  1  0
 18 36  1  0
M  END
>  <smiles>  (92) 
CSCCNCC(=O)Nc1cccc(C(C)=O)c1

>  <score_type>  (92) 
oracle

>  <origin>  (92) 
adg

>  <m_score__min__energy>  (92) 
-6.8899999999999997

>  <m_primary>  (92) 
energy

$$$$
93:0
     RDKit          3D

 48 51  0  0  1  0  0  0  0  0999 V2000
   58.1460   32.3150   50.6480 C   0  0  0  0  0  0  0  0  0  0  0  0
   58.8920   31.3350   49.8370 C   0  0  0  0  0  0  0  0  0  0  0  0
   58.7320   29.9900   50.1940 C   0  0  0  0  0  0  0  0  0  0  0  0
   59.3700   29.0150   49.5250 N   0  0  0  0  0  0  0  0  0  0  0  0
   60.1590   29.3800   48.5110 C   0  0  0  0  0  0  0  0  0  0  0  0
   60.7740   28.4780   47.8620 N   0  0  0  0  0  0  0  0  0  0  0  0
   60.1640   27.5390   46.9800 C   0  0  0  0  0  0  0  0  0  0  0  0
   59.2380   28.3560   46.1110 C   0  0  0  0  0  0  0  0  0  0  0  0
   59.5430   29.4470   45.3850 N   0  0  0  0  0  0  0  0  0  0  0  0
   58.4610   29.9090   44.7340 C   0  0  0  0  0  0  0  0  0  0  0  0
   58.2680   30.9780   43.8830 C   0  0  0  0  0  0  0  0  0  0  0  0
   57.0090   31.2120   43.3520 C   0  0  0  0  0  0  0  0  0  0  0  0
   55.9660   30.3860   43.6710 C   0  0  0  0  0  0  0  0  0  0  0  0
   56.1600   29.3120   44.5270 C   0  0  0  0  0  0  0  0  0  0  0  0
   57.4190   29.0690   45.0640 C   0  0  0  0  0  0  0  0  0  0  0  0
   57.9220   28.1450   45.8950 N   0  0  0  0  0  0  0  0  0  0  0  0
   57.1180   27.0780   46.4620 C   0  0  0  0  0  0  0  0  0  0  0  0
   60.3170   30.6960   48.1610 C   0  0  0  0  0  0  0  0  0  0  0  0
   61.0600   30.9730   47.2150 O   0  0  0  0  0  0  0  0  0  0  0  0
   59.6840   31.7130   48.8180 N   0  0  0  0  0  0  0  0  0  0  0  0
   59.8720   33.0910   48.4230 C   0  0  0  0  0  0  0  0  0  0  0  0
   59.1090   33.4890   47.2150 C   0  0  0  0  0  0  0  0  0  0  0  0
   57.7730   33.1130   47.0510 C   0  0  0  0  0  0  0  0  0  0  0  0
   57.0540   33.4830   45.9150 C   0  0  0  0  0  0  0  0  0  0  0  0
   57.6220   34.2300   44.9070 C   0  0  0  0  0  0  0  0  0  0  0  0
   58.9400   34.6030   45.0600 C   0  0  0  0  0  0  0  0  0  0  0  0
   59.6460   34.2350   46.1860 C   0  0  0  0  0  0  0  0  0  0  0  0
   58.3060   32.1048   51.7158 H   0  0  0  0  0  0  0  0  0  0  0  0
   58.5024   33.3296   50.4166 H   0  0  0  0  0  0  0  0  0  0  0  0
   57.0731   32.2416   50.4166 H   0  0  0  0  0  0  0  0  0  0  0  0
   58.0736   29.7279   51.0353 H   0  0  0  0  0  0  0  0  0  0  0  0
   59.2780   28.0040   49.7580 H   0  0  0  0  0  0  0  0  0  0  0  0
   60.9253   27.0357   46.3659 H   0  0  0  0  0  0  0  0  0  0  0  0
   59.6258   26.7508   47.5269 H   0  0  0  0  0  0  0  0  0  0  0  0
   59.1081   31.6405   43.6275 H   0  0  0  0  0  0  0  0  0  0  0  0
   56.8484   32.0627   42.6734 H   0  0  0  0  0  0  0  0  0  0  0  0
   54.9688   30.5745   43.2466 H   0  0  0  0  0  0  0  0  0  0  0  0
   55.3173   28.6523   44.7810 H   0  0  0  0  0  0  0  0  0  0  0  0
   57.1587   27.1320   47.5599 H   0  0  0  0  0  0  0  0  0  0  0  0
   56.0757   27.1871   46.1279 H   0  0  0  0  0  0  0  0  0  0  0  0
   57.5103   26.1061   46.1279 H   0  0  0  0  0  0  0  0  0  0  0  0
   59.5565   33.7347   49.2574 H   0  0  0  0  0  0  0  0  0  0  0  0
   60.9375   33.2050   48.1744 H   0  0  0  0  0  0  0  0  0  0  0  0
   57.2801   32.5148   47.8316 H   0  0  0  0  0  0  0  0  0  0  0  0
   56.0038   33.1695   45.8213 H   0  0  0  0  0  0  0  0  0  0  0  0
   57.0464   34.5176   44.0148 H   0  0  0  0  0  0  0  0  0  0  0  0
   59.4327   35.1990   44.2777 H   0  0  0  0  0  0  0  0  0  0  0  0
   60.6955   34.5539   46.2684 H   0  0  0  0  0  0  0  0  0  0  0  0
  1  2  1  0
  2  3  2  0
  3  4  1  0
  4  5  1  0
  5  6  2  0
  6  7  1  0
  7  8  1  0
  8  9  2  0
  9 10  1  0
 10 11  2  0
 11 12  1  0
 12 13  2  0
 13 14  1  0
 14 15  2  0
 15 16  1  0
 16 17  1  0
  5 18  1  0
 18 19  2  0
 18 20  1  0
 20 21  1  0
 21 22  1  0
 22 23  2  0
 23 24  1  0
 24 25  2  0
 25 26  1  0
 26 27  2  0
 20  2  1  0
 27 22  1  0
 16  8  1  0
 15 10  1  0
  1 28  1  0
  1 29  1  0
  1 30  1  0
  3 31  1  0
  4 32  1  0
  7 33  1  0
  7 34  1  0
 11 35  1  0
 12 36  1  0
 13 37  1  0
 14 38  1  0
 17 39  1  0
 17 40  1  0
 17 41  1  0
 21 42  1  0
 21 43  1  0
 23 44  1  0
 24 45  1  0
 25 46  1  0
 26 47  1  0
 27 48  1  0
M  END
>  <smiles>  (93) 
Cc1c[nH]c(=NCc2nc3ccccc3n2C)c(=O)n1Cc1ccccc1

>  <score_type>  (93) 
oracle

>  <origin>  (93) 
adg

>  <m_score__min__energy>  (93) 
-8.9700000000000006

>  <m_primary>  (93) 
energy

$$$$
94:0
     RDKit          3D

 39 41  0  0  0  0  0  0  0  0999 V2000
   58.0380   34.4250   44.5720 O   0  0  0  0  0  0  0  0  0  0  0  0
   57.9850   33.1880   44.6610 C   0  0  0  0  0  0  0  0  0  0  0  0
   58.1030   32.4790   43.4600 C   0  0  0  0  0  0  0  0  0  0  0  0
   58.0420   31.1030   43.5390 C   0  0  0  0  0  0  0  0  0  0  0  0
   57.8720   30.4920   44.7620 C   0  0  0  0  0  0  0  0  0  0  0  0
   57.8050   29.0390   44.8630 C   0  0  0  0  0  0  0  0  0  0  0  0
   57.4410   28.3600   45.9920 C   0  0  0  0  0  0  0  0  0  0  0  0
   57.3850   26.9760   46.0590 C   0  0  0  0  0  0  0  0  0  0  0  0
   57.7100   26.2340   44.9410 C   0  0  0  0  0  0  0  0  0  0  0  0
   58.0800   26.8780   43.7890 C   0  0  0  0  0  0  0  0  0  0  0  0
   58.1280   28.2600   43.7500 C   0  0  0  0  0  0  0  0  0  0  0  0
   57.7680   31.2320   45.8630 N   0  0  0  0  0  0  0  0  0  0  0  0
   57.8210   32.5720   45.8410 N   0  0  0  0  0  0  0  0  0  0  0  0
   57.7220   33.2300   47.1120 C   0  0  0  0  0  0  0  0  0  0  0  0
   58.8880   34.0910   47.4930 C   0  0  0  0  0  0  0  0  0  0  0  0
   59.9440   34.1410   46.5330 N   0  0  0  0  0  0  0  0  0  0  0  0
   61.1120   33.3390   46.8230 C   0  0  0  0  0  0  0  0  0  0  0  0
   62.3800   33.8800   46.7230 C   0  0  0  0  0  0  0  0  0  0  0  0
   63.4840   33.0990   47.0030 C   0  0  0  0  0  0  0  0  0  0  0  0
   63.3640   31.7790   47.3850 C   0  0  0  0  0  0  0  0  0  0  0  0
   62.1180   31.2420   47.4830 C   0  0  0  0  0  0  0  0  0  0  0  0
   61.0120   32.0190   47.2030 C   0  0  0  0  0  0  0  0  0  0  0  0
   58.2381   32.9949   42.4979 H   0  0  0  0  0  0  0  0  0  0  0  0
   58.1290   30.4946   42.6267 H   0  0  0  0  0  0  0  0  0  0  0  0
   57.1801   28.9389   46.8902 H   0  0  0  0  0  0  0  0  0  0  0  0
   57.0853   26.4755   46.9915 H   0  0  0  0  0  0  0  0  0  0  0  0
   57.6723   25.1352   44.9745 H   0  0  0  0  0  0  0  0  0  0  0  0
   58.3394   26.2945   42.8933 H   0  0  0  0  0  0  0  0  0  0  0  0
   58.4288   28.7588   42.8169 H   0  0  0  0  0  0  0  0  0  0  0  0
   56.8246   33.8658   47.0939 H   0  0  0  0  0  0  0  0  0  0  0  0
   57.6859   32.4266   47.8625 H   0  0  0  0  0  0  0  0  0  0  0  0
   58.5189   35.1157   47.6471 H   0  0  0  0  0  0  0  0  0  0  0  0
   59.3189   33.6395   48.3988 H   0  0  0  0  0  0  0  0  0  0  0  0
   59.9870   34.6760   45.6550 H   0  0  0  0  0  0  0  0  0  0  0  0
   62.5094   34.9298   46.4212 H   0  0  0  0  0  0  0  0  0  0  0  0
   64.4873   33.5420   46.9190 H   0  0  0  0  0  0  0  0  0  0  0  0
   64.2559   31.1741   47.6054 H   0  0  0  0  0  0  0  0  0  0  0  0
   61.9922   30.1916   47.7845 H   0  0  0  0  0  0  0  0  0  0  0  0
   60.0128   31.5667   47.2865 H   0  0  0  0  0  0  0  0  0  0  0  0
  1  2  2  0
  2  3  1  0
  3  4  2  0
  4  5  1  0
  5  6  1  0
  6  7  2  0
  7  8  1  0
  8  9  2  0
  9 10  1  0
 10 11  2  0
  5 12  2  0
 12 13  1  0
 13 14  1  0
 14 15  1  0
 15 16  1  0
 16 17  1  0
 17 18  2  0
 18 19  1  0
 19 20  2  0
 20 21  1  0
 21 22  2  0
 13  2  1  0
 22 17  1  0
 11  6  1  0
  3 23  1  0
  4 24  1  0
  7 25  1  0
  8 26  1  0
  9 27  1  0
 10 28  1  0
 11 29  1  0
 14 30  1  0
 14 31  1  0
 15 32  1  0
 15 33  1  0
 16 34  1  0
 18 35  1  0
 19 36  1  0
 20 37  1  0
 21 38  1  0
 22 39  1  0
M  END
>  <smiles>  (94) 
O=c1ccc(-c2ccccc2)nn1CCNc1ccccc1

>  <score_type>  (94) 
oracle

>  <origin>  (94) 
adg

>  <m_score__min__energy>  (94) 
-7.25

>  <m_primary>  (94) 
energy

$$$$
95:0
     RDKit          3D

 28 29  0  0  0  0  0  0  0  0999 V2000
   63.1290   33.3280   47.4190 C   0  0  0  0  0  0  0  0  0  0  0  0
   61.7190   33.8040   47.4870 C   0  0  0  0  0  0  0  0  0  0  0  0
   60.9950   34.2280   48.5840 C   0  0  0  0  0  0  0  0  0  0  0  0
   59.7590   34.5580   48.1390 N   0  0  0  0  0  0  0  0  0  0  0  0
   59.7000   34.3560   46.8220 N   0  0  0  0  0  0  0  0  0  0  0  0
   58.5380   34.5910   45.9500 C   0  0  0  0  0  0  0  0  0  0  0  0
   57.5060   33.4880   46.1590 C   0  0  0  0  0  0  0  0  0  0  0  0
   57.4140   32.5740   44.9980 C   0  0  0  0  0  0  0  0  0  0  0  0
   58.0850   32.7300   43.7960 C   0  0  0  0  0  0  0  0  0  0  0  0
   57.7470   31.6840   42.9650 C   0  0  0  0  0  0  0  0  0  0  0  0
   56.8900   30.9250   43.6670 N   0  0  0  0  0  0  0  0  0  0  0  0
   56.2720   29.7150   43.1890 C   0  0  0  0  0  0  0  0  0  0  0  0
   56.6880   31.4400   44.8650 N   0  0  0  0  0  0  0  0  0  0  0  0
   60.8920   33.8890   46.3830 C   0  0  0  0  0  0  0  0  0  0  0  0
   63.5209   33.1957   48.4383 H   0  0  0  0  0  0  0  0  0  0  0  0
   63.1663   32.3674   46.8843 H   0  0  0  0  0  0  0  0  0  0  0  0
   63.7409   34.0694   46.8843 H   0  0  0  0  0  0  0  0  0  0  0  0
   61.3540   34.2866   49.6221 H   0  0  0  0  0  0  0  0  0  0  0  0
   58.0877   35.5641   46.1955 H   0  0  0  0  0  0  0  0  0  0  0  0
   58.8649   34.5892   44.8997 H   0  0  0  0  0  0  0  0  0  0  0  0
   57.7884   32.9037   47.0471 H   0  0  0  0  0  0  0  0  0  0  0  0
   56.5242   33.9672   46.2873 H   0  0  0  0  0  0  0  0  0  0  0  0
   58.7727   33.5515   43.5466 H   0  0  0  0  0  0  0  0  0  0  0  0
   58.1048   31.5075   41.9399 H   0  0  0  0  0  0  0  0  0  0  0  0
   55.9581   29.1005   44.0456 H   0  0  0  0  0  0  0  0  0  0  0  0
   55.3931   29.9687   42.5782 H   0  0  0  0  0  0  0  0  0  0  0  0
   56.9928   29.1517   42.5782 H   0  0  0  0  0  0  0  0  0  0  0  0
   61.1525   33.6274   45.3468 H   0  0  0  0  0  0  0  0  0  0  0  0
  1  2  1  0
  2  3  1  0
  3  4  2  0
  4  5  1  0
  5  6  1  0
  6  7  1  0
  7  8  1  0
  8  9  1  0
  9 10  2  0
 10 11  1  0
 11 12  1  0
 11 13  1  0
  5 14  1  0
 14  2  2  0
 13  8  2  0
  1 15  1  0
  1 16  1  0
  1 17  1  0
  3 18  1  0
  6 19  1  0
  6 20  1  0
  7 21  1  0
  7 22  1  0
  9 23  1  0
 10 24  1  0
 12 25  1  0
 12 26  1  0
 12 27  1  0
 14 28  1  0
M  END
>  <smiles>  (95) 
Cc1cnn(CCc2ccn(C)n2)c1

>  <score_type>  (95) 
oracle

>  <origin>  (95) 
adg

>  <m_score__min__energy>  (95) 
-5.7599999999999998

>  <m_primary>  (95) 
energy

$$$$
