0:0
     RDKit          3D

 66 70  0  0  0  0  0  0  0  0999 V2000
   58.8380   29.9270   47.2010 O   0  0  0  0  0  0  0  0  0  0  0  0
   59.2740   28.7760   47.4750 C   0  0  0  0  0  0  0  0  0  0  0  0
   60.3140   28.6100   48.4510 N   0  0  0  0  0  0  0  0  0  0  0  0
   60.9400   29.7220   49.1030 C   0  0  0  0  0  0  0  0  0  0  0  0
   61.5640   29.5720   50.3510 C   0  0  0  0  0  0  0  0  0  0  0  0
   62.1810   30.6670   50.9630 C   0  0  0  0  0  0  0  0  0  0  0  0
   62.1630   31.9210   50.3440 C   0  0  0  0  0  0  0  0  0  0  0  0
   61.5210   32.0870   49.1080 C   0  0  0  0  0  0  0  0  0  0  0  0
   61.4280   33.4190   48.4770 C   0  0  0  0  0  0  0  0  0  0  0  0
   62.3500   34.2620   48.6510 O   0  0  0  0  0  0  0  0  0  0  0  0
   60.2950   33.7630   47.6620 N   0  0  0  0  0  0  0  0  0  0  0  0
   60.5110   34.3920   46.3520 C   0  0  0  0  0  0  0  0  0  0  0  0
   59.1900   34.5600   45.5910 C   0  0  0  0  0  0  0  0  0  0  0  0
   58.3700   33.3500   45.7500 N   0  0  0  0  0  0  0  0  0  0  0  0
   57.9080   32.6110   44.6030 C   0  0  0  0  0  0  0  0  0  0  0  0
   58.2530   33.0200   43.3020 C   0  0  0  0  0  0  0  0  0  0  0  0
   57.8140   32.2930   42.1900 C   0  0  0  0  0  0  0  0  0  0  0  0
   57.0340   31.1500   42.3660 C   0  0  0  0  0  0  0  0  0  0  0  0
   56.7000   30.7220   43.6540 C   0  0  0  0  0  0  0  0  0  0  0  0
   57.1360   31.4460   44.7690 C   0  0  0  0  0  0  0  0  0  0  0  0
   58.0770   32.8470   47.1020 C   0  0  0  0  0  0  0  0  0  0  0  0
   58.9290   33.5520   48.1650 C   0  0  0  0  0  0  0  0  0  0  0  0
   60.9410   30.9750   48.4790 C   0  0  0  0  0  0  0  0  0  0  0  0
   58.7750   27.6100   46.7190 C   0  0  0  0  0  0  0  0  0  0  0  0
   58.7210   27.6360   45.3160 C   0  0  0  0  0  0  0  0  0  0  0  0
   58.1950   26.5480   44.6120 C   0  0  0  0  0  0  0  0  0  0  0  0
   57.6980   25.4400   45.3000 C   0  0  0  0  0  0  0  0  0  0  0  0
   57.7430   25.4040   46.7010 C   0  0  0  0  0  0  0  0  0  0  0  0
   57.0000   24.0710   47.5800 S   0  0  0  0  0  0  0  0  0  0  0  0
   57.5110   24.0420   48.9930 O   0  0  0  0  0  0  0  0  0  0  0  0
   55.5140   24.2830   47.6150 O   0  0  0  0  0  0  0  0  0  0  0  0
   57.3340   22.5490   46.8200 N   0  0  0  0  0  0  0  0  0  0  0  0
   57.1910   22.3260   45.4150 C   0  0  0  0  0  0  0  0  0  0  0  0
   58.1780   21.6420   44.6850 C   0  0  0  0  0  0  0  0  0  0  0  0
   58.0180   21.4300   43.3120 C   0  0  0  0  0  0  0  0  0  0  0  0
   56.8830   21.9180   42.6560 C   0  0  0  0  0  0  0  0  0  0  0  0
   55.9160   22.6310   43.3700 C   0  0  0  0  0  0  0  0  0  0  0  0
   56.0730   22.8430   44.7450 C   0  0  0  0  0  0  0  0  0  0  0  0
   55.1260   23.5300   45.4300 F   0  0  0  0  0  0  0  0  0  0  0  0
   58.2990   26.4800   47.4050 C   0  0  0  0  0  0  0  0  0  0  0  0
   60.7990   27.6860   48.5030 H   0  0  0  0  0  0  0  0  0  0  0  0
   61.5676   28.5910   50.8486 H   0  0  0  0  0  0  0  0  0  0  0  0
   62.6821   30.5420   51.9342 H   0  0  0  0  0  0  0  0  0  0  0  0
   62.6533   32.7788   50.8274 H   0  0  0  0  0  0  0  0  0  0  0  0
   60.9676   35.3817   46.5004 H   0  0  0  0  0  0  0  0  0  0  0  0
   61.1732   33.7433   45.7599 H   0  0  0  0  0  0  0  0  0  0  0  0
   58.6445   35.4269   45.9921 H   0  0  0  0  0  0  0  0  0  0  0  0
   59.4019   34.7191   44.5234 H   0  0  0  0  0  0  0  0  0  0  0  0
   58.8722   33.9177   43.1579 H   0  0  0  0  0  0  0  0  0  0  0  0
   58.0842   32.6231   41.1761 H   0  0  0  0  0  0  0  0  0  0  0  0
   56.6815   30.5850   41.4905 H   0  0  0  0  0  0  0  0  0  0  0  0
   56.0935   29.8146   43.7912 H   0  0  0  0  0  0  0  0  0  0  0  0
   56.8740   31.1029   45.7807 H   0  0  0  0  0  0  0  0  0  0  0  0
   57.0138   33.0203   47.3245 H   0  0  0  0  0  0  0  0  0  0  0  0
   58.3145   31.7733   47.1280 H   0  0  0  0  0  0  0  0  0  0  0  0
   58.4764   34.5249   48.4070 H   0  0  0  0  0  0  0  0  0  0  0  0
   58.9712   32.9232   49.0666 H   0  0  0  0  0  0  0  0  0  0  0  0
   60.4825   31.0890   47.4856 H   0  0  0  0  0  0  0  0  0  0  0  0
   59.0935   28.5147   44.7691 H   0  0  0  0  0  0  0  0  0  0  0  0
   58.1729   26.5656   43.5124 H   0  0  0  0  0  0  0  0  0  0  0  0
   57.2704   24.5937   44.7423 H   0  0  0  0  0  0  0  0  0  0  0  0
   59.0795   21.2721   45.1953 H   0  0  0  0  0  0  0  0  0  0  0  0
   58.7850   20.8793   42.7477 H   0  0  0  0  0  0  0  0  0  0  0  0
   56.7516   21.7406   41.5784 H   0  0  0  0  0  0  0  0  0  0  0  0
   55.0303   23.0262   42.8509 H   0  0  0  0  0  0  0  0  0  0  0  0
   58.3634   26.4399   48.5024 H   0  0  0  0  0  0  0  0  0  0  0  0
  1  2  2  0
  2  3  1  0
  3  4  1  0
  4  5  2  0
  5  6  1  0
  6  7  2  0
  7  8  1  0
  8  9  1  0
  9 10  2  0
  9 11  1  0
 11 12  1  0
 12 13  1  0
 13 14  1  0
 14 15  1  0
 15 16  2  0
 16 17  1  0
 17 18  2  0
 18 19  1  0
 19 20  2  0
 14 21  1  0
 21 22  1  0
  8 23  2  0
  2 24  1  0
 24 25  2  0
 25 26  1  0
 26 27  2  0
 27 28  1  0
 28 29  1  0
 29 30  2  0
 29 31  2  0
 29 32  1  0
 32 33  1  0
 33 34  2  0
 34 35  1  0
 35 36  2  0
 36 37  1  0
 37 38  2  0
 38 39  1  0
 28 40  2  0
 23  4  1  0
 40 24  1  0
 22 11  1  0
 38 33  1  0
 20 15  1  0
  3 41  1  0
  5 42  1  0
  6 43  1  0
  7 44  1  0
 12 45  1  0
 12 46  1  0
 13 47  1  0
 13 48  1  0
 16 49  1  0
 17 50  1  0
 18 51  1  0
 19 52  1  0
 20 53  1  0
 21 54  1  0
 21 55  1  0
 22 56  1  0
 22 57  1  0
 23 58  1  0
 25 59  1  0
 26 60  1  0
 27 61  1  0
 34 62  1  0
 35 63  1  0
 36 64  1  0
 37 65  1  0
 40 66  1  0
M  CHG  1  32  -1
M  END
>  <UniqueID>  (1) 
1

>  <SMILES>  (1) 
O=C(Nc1cccc(C(=O)N2CCN(c3ccccc3)CC2)c1)c1cccc(S(=O)(=O)[N-]c2ccccc2F)c1

>  <Energy>  (1) 
95.03934291937492

>  <Genealogy>  (1) 
O=C(Nc1cccc(C(=O)N2CCN(c3ccccc3)CC2)c1)c1cccc(S(=O)(=O)[N-]c2ccccc2F)c1 (protonated)
O=C(Nc1cccc(C(=O)N2CCN(c3ccccc3)CC2)c1)c1cccc(S(=O)(=O)[N-]c2ccccc2F)c1 (3D coordinates assigned)
O=C(Nc1cccc(C(=O)N2CCN(c3ccccc3)CC2)c1)c1cccc(S(=O)(=O)[N-]c2ccccc2F)c1 (nonaromatic ring conformer: 95.03934291937492 kcal/mol)

>  <smiles>  (1) 
O=C(Nc1cccc(C(=O)N2CCN(c3ccccc3)CC2)c1)c1cccc(S(=O)(=O)Nc2ccccc2F)c1

>  <score_type>  (1) 
oracle

>  <origin>  (1) 
adg

>  <m_score__min__energy>  (1) 
-12.4

>  <m_primary>  (1) 
energy

$$$$
1:0
     RDKit          3D

 48 51  0  0  0  0  0  0  0  0999 V2000
   64.0590   33.4710   48.1360 C   0  0  0  0  0  0  0  0  0  0  0  0
   62.6320   33.7040   47.9470 N   0  0  0  0  0  0  0  0  0  0  0  0
   61.7930   34.2380   48.8550 C   0  0  0  0  0  0  0  0  0  0  0  0
   60.4980   34.1870   48.3810 C   0  0  0  0  0  0  0  0  0  0  0  0
   60.5620   33.5950   47.1320 C   0  0  0  0  0  0  0  0  0  0  0  0
   59.4140   33.2550   46.2670 C   0  0  0  0  0  0  0  0  0  0  0  0
   58.6650   32.1430   46.3150 C   0  0  0  0  0  0  0  0  0  0  0  0
   58.9210   30.9270   47.1140 C   0  0  0  0  0  0  0  0  0  0  0  0
   58.6770   30.9270   48.4950 C   0  0  0  0  0  0  0  0  0  0  0  0
   58.9120   29.7750   49.2510 C   0  0  0  0  0  0  0  0  0  0  0  0
   59.3740   28.6110   48.6310 C   0  0  0  0  0  0  0  0  0  0  0  0
   59.5970   28.5910   47.2490 C   0  0  0  0  0  0  0  0  0  0  0  0
   60.1640   27.1130   46.4730 S   0  0  0  0  0  0  0  0  0  0  0  0
   61.0400   26.3390   47.4200 O   0  0  0  0  0  0  0  0  0  0  0  0
   60.9790   27.4860   45.2650 O   0  0  0  0  0  0  0  0  0  0  0  0
   58.7990   26.1370   45.9890 N   0  0  0  0  0  0  0  0  0  0  0  0
   57.9080   26.8820   45.0680 C   0  0  0  0  0  0  0  0  0  0  0  0
   56.6440   27.4050   45.7680 C   0  0  0  0  0  0  0  0  0  0  0  0
   55.8570   26.3100   46.3610 N   0  0  0  0  0  0  0  0  0  0  0  0
   56.6750   25.1850   46.8550 C   0  0  0  0  0  0  0  0  0  0  0  0
   58.1110   25.6110   47.1860 C   0  0  0  0  0  0  0  0  0  0  0  0
   59.3720   29.7500   46.4930 C   0  0  0  0  0  0  0  0  0  0  0  0
   57.5840   32.2950   45.3370 C   0  0  0  0  0  0  0  0  0  0  0  0
   56.6950   31.4390   45.0890 O   0  0  0  0  0  0  0  0  0  0  0  0
   57.6820   33.5400   44.6640 N   0  0  0  0  0  0  0  0  0  0  0  0
   58.8290   34.1350   45.2500 C   0  0  0  0  0  0  0  0  0  0  0  0
   59.2540   35.2780   44.9380 O   0  0  0  0  0  0  0  0  0  0  0  0
   61.8930   33.2950   46.8990 C   0  0  0  0  0  0  0  0  0  0  0  0
   64.2852   33.4341   49.2119 H   0  0  0  0  0  0  0  0  0  0  0  0
   64.3394   32.5152   47.6694 H   0  0  0  0  0  0  0  0  0  0  0  0
   64.6289   34.2880   47.6694 H   0  0  0  0  0  0  0  0  0  0  0  0
   62.0946   34.6525   49.8282 H   0  0  0  0  0  0  0  0  0  0  0  0
   59.5938   34.5459   48.8945 H   0  0  0  0  0  0  0  0  0  0  0  0
   58.2994   31.8366   48.9849 H   0  0  0  0  0  0  0  0  0  0  0  0
   58.7329   29.7847   50.3363 H   0  0  0  0  0  0  0  0  0  0  0  0
   59.5629   27.7082   49.2303 H   0  0  0  0  0  0  0  0  0  0  0  0
   58.4627   27.7377   44.6556 H   0  0  0  0  0  0  0  0  0  0  0  0
   57.5892   26.1878   44.2765 H   0  0  0  0  0  0  0  0  0  0  0  0
   56.9407   28.1029   46.5648 H   0  0  0  0  0  0  0  0  0  0  0  0
   56.0188   27.9083   45.0158 H   0  0  0  0  0  0  0  0  0  0  0  0
   55.3100   26.7040   47.1630 H   0  0  0  0  0  0  0  0  0  0  0  0
   56.2074   24.7803   47.7647 H   0  0  0  0  0  0  0  0  0  0  0  0
   56.7235   24.4286   46.0578 H   0  0  0  0  0  0  0  0  0  0  0  0
   58.0845   26.3939   47.9583 H   0  0  0  0  0  0  0  0  0  0  0  0
   58.6623   24.7303   47.5471 H   0  0  0  0  0  0  0  0  0  0  0  0
   59.5495   29.7379   45.4075 H   0  0  0  0  0  0  0  0  0  0  0  0
   57.0610   33.9250   43.9180 H   0  0  0  0  0  0  0  0  0  0  0  0
   62.2854   32.7999   45.9985 H   0  0  0  0  0  0  0  0  0  0  0  0
  1  2  1  0
  2  3  1  0
  3  4  2  0
  4  5  1  0
  5  6  1  0
  6  7  2  0
  7  8  1  0
  8  9  2  0
  9 10  1  0
 10 11  2  0
 11 12  1  0
 12 13  1  0
 13 14  2  0
 13 15  2  0
 13 16  1  0
 16 17  1  0
 17 18  1  0
 18 19  1  0
 19 20  1  0
 20 21  1  0
 12 22  2  0
  7 23  1  0
 23 24  2  0
 23 25  1  0
 25 26  1  0
 26 27  2  0
  5 28  2  0
 28  2  1  0
 26  6  1  0
 22  8  1  0
 21 16  1  0
  1 29  1  0
  1 30  1  0
  1 31  1  0
  3 32  1  0
  4 33  1  0
  9 34  1  0
 10 35  1  0
 11 36  1  0
 17 37  1  0
 17 38  1  0
 18 39  1  0
 18 40  1  0
 19 41  1  0
 20 42  1  0
 20 43  1  0
 21 44  1  0
 21 45  1  0
 22 46  1  0
 25 47  1  0
 28 48  1  0
M  END
>  <UniqueID>  (2) 
2

>  <SMILES>  (2) 
Cn1ccc(C2=C(c3cccc(S(=O)(=O)N4CCNCC4)c3)C(=O)NC2=O)c1

>  <Energy>  (2) 
115.19708158401399

>  <Genealogy>  (2) 
Cn1ccc(C2=C(c3cccc(S(=O)(=O)N4CCNCC4)c3)C(=O)NC2=O)c1 (3D coordinates assigned)
Cn1ccc(C2=C(c3cccc(S(=O)(=O)N4CCNCC4)c3)C(=O)NC2=O)c1 (nonaromatic ring conformer: 115.19708158401399 kcal/mol)

>  <smiles>  (2) 
Cn1ccc(C2=C(c3cccc(S(=O)(=O)N4CCNCC4)c3)C(=O)NC2=O)c1

>  <score_type>  (2) 
oracle

>  <origin>  (2) 
adg

>  <m_score__min__energy>  (2) 
-9.5299999999999994

>  <m_primary>  (2) 
energy

$$$$
2:0
     RDKit          3D

 50 53  0  0  0  0  0  0  0  0999 V2000
   55.9020   29.5120   52.0100 O   0  0  0  0  0  0  0  0  0  0  0  0
   55.3300   30.4920   52.5540 C   0  0  0  0  0  0  0  0  0  0  0  0
   56.0860   31.7910   52.6890 C   0  0  0  0  0  0  0  0  0  0  0  0
   57.4410   31.7390   52.0300 C   0  0  0  0  0  0  0  0  0  0  0  0
   58.6100   31.9240   52.7860 C   0  0  0  0  0  0  0  0  0  0  0  0
   59.8620   31.8720   52.1700 C   0  0  0  0  0  0  0  0  0  0  0  0
   59.9580   31.6390   50.7950 C   0  0  0  0  0  0  0  0  0  0  0  0
   58.7950   31.4720   50.0220 C   0  0  0  0  0  0  0  0  0  0  0  0
   58.8460   31.2530   48.6370 O   0  0  0  0  0  0  0  0  0  0  0  0
   59.0440   30.0030   48.0340 C   0  0  0  0  0  0  0  0  0  0  0  0
   59.5850   28.9720   48.8120 C   0  0  0  0  0  0  0  0  0  0  0  0
   59.8360   27.7180   48.2520 C   0  0  0  0  0  0  0  0  0  0  0  0
   59.5310   27.4790   46.9110 C   0  0  0  0  0  0  0  0  0  0  0  0
   58.9620   28.4880   46.1320 C   0  0  0  0  0  0  0  0  0  0  0  0
   58.7050   29.7570   46.6810 C   0  0  0  0  0  0  0  0  0  0  0  0
   58.0090   30.7750   45.8600 C   0  0  0  0  0  0  0  0  0  0  0  0
   57.0000   30.4280   45.1850 O   0  0  0  0  0  0  0  0  0  0  0  0
   58.4710   32.1840   45.7980 C   0  0  0  0  0  0  0  0  0  0  0  0
   57.6230   33.1830   45.2870 C   0  0  0  0  0  0  0  0  0  0  0  0
   58.0490   34.5140   45.2340 C   0  0  0  0  0  0  0  0  0  0  0  0
   59.3170   34.8640   45.7020 C   0  0  0  0  0  0  0  0  0  0  0  0
   60.1640   33.8820   46.2220 C   0  0  0  0  0  0  0  0  0  0  0  0
   59.7460   32.5500   46.2710 C   0  0  0  0  0  0  0  0  0  0  0  0
   57.5450   31.5050   50.6490 C   0  0  0  0  0  0  0  0  0  0  0  0
   53.9560   30.3570   52.9530 N   0  0  0  0  0  0  0  0  0  0  0  0
   52.9200   30.9860   52.4720 C   0  0  0  0  0  0  0  0  0  0  0  0
   52.9190   31.5990   51.2030 C   0  0  0  0  0  0  0  0  0  0  0  0
   51.7740   32.2650   50.7600 C   0  0  0  0  0  0  0  0  0  0  0  0
   50.6760   32.3420   51.5570 N   0  0  0  0  0  0  0  0  0  0  0  0
   50.6560   31.7800   52.7940 C   0  0  0  0  0  0  0  0  0  0  0  0
   51.7750   31.0940   53.2710 C   0  0  0  0  0  0  0  0  0  0  0  0
   55.4963   32.5931   52.2212 H   0  0  0  0  0  0  0  0  0  0  0  0
   56.2419   31.9782   53.7617 H   0  0  0  0  0  0  0  0  0  0  0  0
   58.5390   32.1106   53.8677 H   0  0  0  0  0  0  0  0  0  0  0  0
   60.7743   32.0146   52.7677 H   0  0  0  0  0  0  0  0  0  0  0  0
   60.9468   31.5861   50.3159 H   0  0  0  0  0  0  0  0  0  0  0  0
   59.8140   29.1516   49.8728 H   0  0  0  0  0  0  0  0  0  0  0  0
   60.2741   26.9184   48.8675 H   0  0  0  0  0  0  0  0  0  0  0  0
   59.7393   26.4942   46.4675 H   0  0  0  0  0  0  0  0  0  0  0  0
   58.7124   28.2887   45.0794 H   0  0  0  0  0  0  0  0  0  0  0  0
   56.6186   32.9158   44.9268 H   0  0  0  0  0  0  0  0  0  0  0  0
   57.3834   35.2871   44.8226 H   0  0  0  0  0  0  0  0  0  0  0  0
   59.6489   35.9120   45.6614 H   0  0  0  0  0  0  0  0  0  0  0  0
   61.1618   34.1583   46.5935 H   0  0  0  0  0  0  0  0  0  0  0  0
   60.4174   31.7816   46.6819 H   0  0  0  0  0  0  0  0  0  0  0  0
   56.6336   31.3460   50.0540 H   0  0  0  0  0  0  0  0  0  0  0  0
   53.8142   31.5532   50.5655 H   0  0  0  0  0  0  0  0  0  0  0  0
   51.7610   32.7287   49.7626 H   0  0  0  0  0  0  0  0  0  0  0  0
   49.7563   31.8656   53.4211 H   0  0  0  0  0  0  0  0  0  0  0  0
   51.7570   30.6393   54.2725 H   0  0  0  0  0  0  0  0  0  0  0  0
  1  2  2  0
  2  3  1  0
  3  4  1  0
  4  5  2  0
  5  6  1  0
  6  7  2  0
  7  8  1  0
  8  9  1  0
  9 10  1  0
 10 11  2  0
 11 12  1  0
 12 13  2  0
 13 14  1  0
 14 15  2  0
 15 16  1  0
 16 17  2  0
 16 18  1  0
 18 19  2  0
 19 20  1  0
 20 21  2  0
 21 22  1  0
 22 23  2  0
  8 24  2  0
  2 25  1  0
 25 26  2  3
 26 27  1  0
 27 28  2  0
 28 29  1  0
 29 30  1  0
 30 31  2  0
 24  4  1  0
 31 26  1  0
 15 10  1  0
 23 18  1  0
  3 32  1  0
  3 33  1  0
  5 34  1  0
  6 35  1  0
  7 36  1  0
 11 37  1  0
 12 38  1  0
 13 39  1  0
 14 40  1  0
 19 41  1  0
 20 42  1  0
 21 43  1  0
 22 44  1  0
 23 45  1  0
 24 46  1  0
 27 47  1  0
 28 48  1  0
 30 49  1  0
 31 50  1  0
M  CHG  1  29  -1
M  END
>  <UniqueID>  (3) 
3

>  <SMILES>  (3) 
O=C(Cc1cccc(Oc2ccccc2C(=O)c2ccccc2)c1)N=c1cc[n-]cc1

>  <Energy>  (3) 
75.3390323022423

>  <Genealogy>  (3) 
O=C(Cc1cccc(Oc2ccccc2C(=O)c2ccccc2)c1)N=c1cc[n-]cc1 (protonated)
O=C(Cc1cccc(Oc2ccccc2C(=O)c2ccccc2)c1)N=c1cc[n-]cc1 (3D coordinates assigned)
O=C(Cc1cccc(Oc2ccccc2C(=O)c2ccccc2)c1)N=c1cc[n-]cc1 (optimized conformer: 75.3390323022423 kcal/mol)

>  <smiles>  (3) 
O=C(Cc1cccc(Oc2ccccc2C(=O)c2ccccc2)c1)N=c1cc[nH]cc1

>  <score_type>  (3) 
oracle

>  <origin>  (3) 
adg

>  <m_score__min__energy>  (3) 
-12.220000000000001

>  <m_primary>  (3) 
energy

$$$$
3:0
     RDKit          3D

 31 33  0  0  0  0  0  0  0  0999 V2000
   55.3990   29.9210   43.4600 C   0  0  0  0  0  0  0  0  0  0  0  0
   56.3610   29.6520   44.3410 C   0  0  0  0  0  0  0  0  0  0  0  0
   56.3400   28.5840   45.1600 N   0  0  0  0  0  0  0  0  0  0  0  0
   57.4690   28.6500   45.9020 C   0  0  0  0  0  0  0  0  0  0  0  0
   57.7220   27.7210   46.8420 C   0  0  0  0  0  0  0  0  0  0  0  0
   57.2520   26.3310   46.8190 C   0  0  0  0  0  0  0  0  0  0  0  0
   57.9580   25.2980   47.3090 N   0  0  0  0  0  0  0  0  0  0  0  0
   57.0920   24.2640   47.2240 C   0  0  0  0  0  0  0  0  0  0  0  0
   57.3960   23.0950   47.5740 O   0  0  0  0  0  0  0  0  0  0  0  0
   55.8710   24.5840   46.7430 N   0  0  0  0  0  0  0  0  0  0  0  0
   55.9840   25.9010   46.5100 C   0  0  0  0  0  0  0  0  0  0  0  0
   54.9460   26.7020   46.0420 O   0  0  0  0  0  0  0  0  0  0  0  0
   58.2180   29.7870   45.5550 C   0  0  0  0  0  0  0  0  0  0  0  0
   59.4490   30.3780   46.1960 C   0  0  0  0  0  0  0  0  0  0  0  0
   59.1810   31.7310   46.7880 C   0  0  0  0  0  0  0  0  0  0  0  0
   59.4960   32.1360   48.0730 C   0  0  0  0  0  0  0  0  0  0  0  0
   59.0040   33.4190   48.2040 C   0  0  0  0  0  0  0  0  0  0  0  0
   58.3970   33.7330   47.0050 C   0  0  0  0  0  0  0  0  0  0  0  0
   58.4970   32.7000   46.1510 N   0  0  0  0  0  0  0  0  0  0  0  0
   57.4880   30.4080   44.5630 C   0  0  0  0  0  0  0  0  0  0  0  0
   57.8190   31.5980   43.9230 O   0  0  0  0  0  0  0  0  0  0  0  0
   55.4744   30.8110   42.8179 H   0  0  0  0  0  0  0  0  0  0  0  0
   54.5291   29.2532   43.3745 H   0  0  0  0  0  0  0  0  0  0  0  0
   58.3341   28.0302   47.7021 H   0  0  0  0  0  0  0  0  0  0  0  0
   55.1410   27.5190   45.4760 H   0  0  0  0  0  0  0  0  0  0  0  0
   59.7926   29.7031   46.9938 H   0  0  0  0  0  0  0  0  0  0  0  0
   60.2154   30.4947   45.4156 H   0  0  0  0  0  0  0  0  0  0  0  0
   60.0311   31.5527   48.8368 H   0  0  0  0  0  0  0  0  0  0  0  0
   59.0808   34.0651   49.0910 H   0  0  0  0  0  0  0  0  0  0  0  0
   57.9030   34.6899   46.7808 H   0  0  0  0  0  0  0  0  0  0  0  0
   58.1110   32.6590   45.1820 H   0  0  0  0  0  0  0  0  0  0  0  0
  1  2  2  0
  2  3  1  0
  3  4  1  0
  4  5  2  3
  5  6  1  0
  6  7  1  0
  7  8  1  0
  8  9  2  0
  8 10  1  0
 10 11  1  0
 11 12  1  0
  4 13  1  0
 13 14  1  0
 14 15  1  0
 15 16  2  0
 16 17  1  0
 17 18  2  0
 18 19  1  0
 13 20  2  0
 20 21  1  0
 20  2  1  0
 11  6  2  0
 19 15  1  0
  1 22  1  0
  1 23  1  0
  5 24  1  0
 12 25  1  0
 14 26  1  0
 14 27  1  0
 16 28  1  0
 17 29  1  0
 18 30  1  0
 19 31  1  0
M  CHG  4   3  -1   7  -1  10  -1  21  -1
M  END
>  <UniqueID>  (4) 
4

>  <SMILES>  (4) 
C=c1[n-]c(=Cc2[n-]c(=O)[n-]c2O)c(Cc2ccc[nH]2)c1[O-]

>  <Energy>  (4) 
121.83404251018851

>  <Genealogy>  (4) 
C=c1[n-]c(=Cc2[n-]c(=O)[n-]c2O)c(Cc2ccc[nH]2)c1[O-] (protonated)
C=c1[n-]c(=Cc2[n-]c(=O)[n-]c2O)c(Cc2ccc[nH]2)c1[O-] (3D coordinates assigned)
C=c1[n-]c(=Cc2[n-]c(=O)[n-]c2O)c(Cc2ccc[nH]2)c1[O-] (optimized conformer: 121.83404251018851 kcal/mol)

>  <smiles>  (4) 
C=c1[nH]c(=Cc2[nH]c(=O)[nH]c2O)c(Cc2ccc[nH]2)c1O

>  <score_type>  (4) 
oracle

>  <origin>  (4) 
adg

>  <m_score__min__energy>  (4) 
-13.300000000000001

>  <m_primary>  (4) 
energy

$$$$
4:0
     RDKit          3D

 49 51  0  0  0  0  0  0  0  0999 V2000
   57.7180   21.5310   43.5830 C   0  0  0  0  0  0  0  0  0  0  0  0
   56.6700   22.5780   43.8180 C   0  0  0  0  0  0  0  0  0  0  0  0
   55.6670   22.6020   43.0550 O   0  0  0  0  0  0  0  0  0  0  0  0
   56.7870   23.5760   44.9160 C   0  0  0  0  0  0  0  0  0  0  0  0
   57.4960   23.2830   46.0980 C   0  0  0  0  0  0  0  0  0  0  0  0
   57.5850   24.2280   47.1230 C   0  0  0  0  0  0  0  0  0  0  0  0
   56.9800   25.4790   46.9810 C   0  0  0  0  0  0  0  0  0  0  0  0
   56.2940   25.8010   45.8010 C   0  0  0  0  0  0  0  0  0  0  0  0
   55.6350   27.0640   45.6360 N   0  0  0  0  0  0  0  0  0  0  0  0
   56.2470   28.3000   45.2460 C   0  0  0  0  0  0  0  0  0  0  0  0
   55.5090   29.2960   45.0200 O   0  0  0  0  0  0  0  0  0  0  0  0
   57.7350   28.4280   45.0630 C   0  0  0  0  0  0  0  0  0  0  0  0
   58.1580   29.8080   45.2940 N   0  0  0  0  0  0  0  0  0  0  0  0
   57.4530   30.8640   44.9080 N   0  0  0  0  0  0  0  0  0  0  0  0
   58.1050   31.9740   45.3230 C   0  0  0  0  0  0  0  0  0  0  0  0
   57.6070   33.3440   45.1110 C   0  0  0  0  0  0  0  0  0  0  0  0
   56.6420   33.9090   45.9990 N   0  0  0  0  0  0  0  0  0  0  0  0
   58.0330   34.0310   44.1450 O   0  0  0  0  0  0  0  0  0  0  0  0
   59.2620   31.5920   45.9850 C   0  0  0  0  0  0  0  0  0  0  0  0
   59.2420   30.2250   45.9780 C   0  0  0  0  0  0  0  0  0  0  0  0
   60.3140   29.3860   46.6030 C   0  0  0  0  0  0  0  0  0  0  0  0
   61.1300   30.2460   47.5890 C   0  0  0  0  0  0  0  0  0  0  0  0
   61.4880   31.5450   46.9750 N   0  0  0  0  0  0  0  0  0  0  0  0
   62.6260   32.4000   47.9870 S   0  0  0  0  0  0  0  0  0  0  0  0
   61.8580   33.7430   48.8780 C   0  0  0  0  0  0  0  0  0  0  0  0
   63.7360   32.9560   47.1370 O   0  0  0  0  0  0  0  0  0  0  0  0
   63.2170   31.4400   48.9800 O   0  0  0  0  0  0  0  0  0  0  0  0
   60.2930   32.3850   46.7290 C   0  0  0  0  0  0  0  0  0  0  0  0
   56.1820   24.8410   44.7860 C   0  0  0  0  0  0  0  0  0  0  0  0
   58.0891   21.1602   44.5498 H   0  0  0  0  0  0  0  0  0  0  0  0
   57.2819   20.6971   43.0134 H   0  0  0  0  0  0  0  0  0  0  0  0
   58.5515   21.9679   43.0134 H   0  0  0  0  0  0  0  0  0  0  0  0
   57.9827   22.3034   46.2144 H   0  0  0  0  0  0  0  0  0  0  0  0
   58.1335   23.9861   48.0453 H   0  0  0  0  0  0  0  0  0  0  0  0
   57.0418   26.2138   47.7972 H   0  0  0  0  0  0  0  0  0  0  0  0
   58.2467   27.7671   45.7782 H   0  0  0  0  0  0  0  0  0  0  0  0
   57.9946   28.1420   44.0331 H   0  0  0  0  0  0  0  0  0  0  0  0
   56.2940   34.8820   45.8470 H   0  0  0  0  0  0  0  0  0  0  0  0
   56.2690   33.3650   46.8080 H   0  0  0  0  0  0  0  0  0  0  0  0
   59.8537   28.5457   47.1434 H   0  0  0  0  0  0  0  0  0  0  0  0
   60.9793   28.9967   45.8183 H   0  0  0  0  0  0  0  0  0  0  0  0
   60.5301   30.4266   48.4932 H   0  0  0  0  0  0  0  0  0  0  0  0
   62.0547   29.7088   47.8468 H   0  0  0  0  0  0  0  0  0  0  0  0
   61.9572   33.5695   49.9597 H   0  0  0  0  0  0  0  0  0  0  0  0
   62.3515   34.6893   48.6116 H   0  0  0  0  0  0  0  0  0  0  0  0
   60.7921   33.7976   48.6116 H   0  0  0  0  0  0  0  0  0  0  0  0
   59.8750   32.7167   47.6909 H   0  0  0  0  0  0  0  0  0  0  0  0
   60.5810   33.2610   46.1293 H   0  0  0  0  0  0  0  0  0  0  0  0
   55.6135   25.0790   43.8749 H   0  0  0  0  0  0  0  0  0  0  0  0
  1  2  1  0
  2  3  2  0
  2  4  1  0
  4  5  2  0
  5  6  1  0
  6  7  2  0
  7  8  1  0
  8  9  1  0
  9 10  1  0
 10 11  2  0
 10 12  1  0
 12 13  1  0
 13 14  1  0
 14 15  2  0
 15 16  1  0
 16 17  1  0
 16 18  2  0
 15 19  1  0
 19 20  2  0
 20 21  1  0
 21 22  1  0
 22 23  1  0
 23 24  1  0
 24 25  1  0
 24 26  2  0
 24 27  2  0
 23 28  1  0
  8 29  2  0
 29  4  1  0
 20 13  1  0
 28 19  1  0
  1 30  1  0
  1 31  1  0
  1 32  1  0
  5 33  1  0
  6 34  1  0
  7 35  1  0
 12 36  1  0
 12 37  1  0
 17 38  1  0
 17 39  1  0
 21 40  1  0
 21 41  1  0
 22 42  1  0
 22 43  1  0
 25 44  1  0
 25 45  1  0
 25 46  1  0
 28 47  1  0
 28 48  1  0
 29 49  1  0
M  CHG  1   9  -1
M  END
>  <UniqueID>  (5) 
5

>  <SMILES>  (5) 
CC(=O)c1cccc([N-]C(=O)Cn2nc(C(N)=O)c3c2CCN(S(C)(=O)=O)C3)c1

>  <Energy>  (5) 
81.8525265603217

>  <Genealogy>  (5) 
CC(=O)c1cccc([N-]C(=O)Cn2nc(C(N)=O)c3c2CCN(S(C)(=O)=O)C3)c1 (protonated)
CC(=O)c1cccc([N-]C(=O)Cn2nc(C(N)=O)c3c2CCN(S(C)(=O)=O)C3)c1 (3D coordinates assigned)
CC(=O)c1cccc([N-]C(=O)Cn2nc(C(N)=O)c3c2CCN(S(C)(=O)=O)C3)c1 (nonaromatic ring conformer: 81.8525265603217 kcal/mol)

>  <smiles>  (5) 
CC(=O)c1cccc(NC(=O)Cn2nc(C(N)=O)c3c2CCN(S(C)(=O)=O)C3)c1

>  <score_type>  (5) 
oracle

>  <origin>  (5) 
adg

>  <m_score__min__energy>  (5) 
-10.960000000000001

>  <m_primary>  (5) 
energy

$$$$
5:0
     RDKit          3D

 56 59  0  0  0  0  0  0  0  0999 V2000
   55.8090   27.0350   45.7530 O   0  0  0  0  0  0  0  0  0  0  0  0
   56.3600   28.0760   45.3040 C   0  0  0  0  0  0  0  0  0  0  0  0
   57.8660   28.1470   45.2650 C   0  0  0  0  0  0  0  0  0  0  0  0
   58.4070   29.3070   46.1110 C   0  0  0  0  0  0  0  0  0  0  0  0
   59.3900   28.7360   47.4950 S   0  0  0  0  0  0  0  0  0  0  0  0
   58.5260   28.5190   48.7070 O   0  0  0  0  0  0  0  0  0  0  0  0
   60.0560   27.4330   47.1360 O   0  0  0  0  0  0  0  0  0  0  0  0
   60.6050   29.9600   47.8590 C   0  0  0  0  0  0  0  0  0  0  0  0
   61.0330   30.8410   46.8500 C   0  0  0  0  0  0  0  0  0  0  0  0
   62.0250   31.7930   47.1190 C   0  0  0  0  0  0  0  0  0  0  0  0
   62.5950   31.8660   48.3940 C   0  0  0  0  0  0  0  0  0  0  0  0
   62.1740   30.9900   49.4030 C   0  0  0  0  0  0  0  0  0  0  0  0
   61.1810   30.0400   49.1370 C   0  0  0  0  0  0  0  0  0  0  0  0
   55.5270   29.1600   44.8690 N   0  0  0  0  0  0  0  0  0  0  0  0
   55.5160   29.7210   43.5240 C   0  0  0  0  0  0  0  0  0  0  0  0
   56.5530   30.8040   43.4310 C   0  0  0  0  0  0  0  0  0  0  0  0
   57.0220   31.2430   42.1820 C   0  0  0  0  0  0  0  0  0  0  0  0
   57.9680   32.2680   42.1110 C   0  0  0  0  0  0  0  0  0  0  0  0
   58.4450   32.8710   43.2790 C   0  0  0  0  0  0  0  0  0  0  0  0
   57.9740   32.4570   44.5420 C   0  0  0  0  0  0  0  0  0  0  0  0
   58.4460   33.0960   45.7540 N   0  0  0  0  0  0  0  0  0  0  0  0
   59.6210   33.9900   45.6890 C   0  0  0  0  0  0  0  0  0  0  0  0
   59.7240   34.9090   46.9100 C   0  0  0  0  0  0  0  0  0  0  0  0
   59.6050   34.1010   48.1660 C   0  0  0  0  0  0  0  0  0  0  0  0
   60.4100   34.3700   49.2840 C   0  0  0  0  0  0  0  0  0  0  0  0
   60.2690   33.6120   50.4490 C   0  0  0  0  0  0  0  0  0  0  0  0
   61.0810   33.8690   51.5490 O   0  0  0  0  0  0  0  0  0  0  0  0
   59.3100   32.5940   50.5110 C   0  0  0  0  0  0  0  0  0  0  0  0
   58.4910   32.3340   49.4060 C   0  0  0  0  0  0  0  0  0  0  0  0
   58.6460   33.0750   48.2230 C   0  0  0  0  0  0  0  0  0  0  0  0
   57.7590   32.8150   47.0320 C   0  0  0  0  0  0  0  0  0  0  0  0
   57.0240   31.4190   44.6020 C   0  0  0  0  0  0  0  0  0  0  0  0
   58.2765   27.2029   45.6524 H   0  0  0  0  0  0  0  0  0  0  0  0
   58.1721   28.3146   44.2218 H   0  0  0  0  0  0  0  0  0  0  0  0
   59.0327   29.9486   45.4732 H   0  0  0  0  0  0  0  0  0  0  0  0
   57.5461   29.8602   46.5144 H   0  0  0  0  0  0  0  0  0  0  0  0
   60.5874   30.7825   45.8460 H   0  0  0  0  0  0  0  0  0  0  0  0
   62.3553   32.4825   46.3281 H   0  0  0  0  0  0  0  0  0  0  0  0
   63.3751   32.6123   48.6049 H   0  0  0  0  0  0  0  0  0  0  0  0
   62.6241   31.0488   50.4050 H   0  0  0  0  0  0  0  0  0  0  0  0
   60.8510   29.3543   49.9313 H   0  0  0  0  0  0  0  0  0  0  0  0
   55.7435   28.9303   42.7939 H   0  0  0  0  0  0  0  0  0  0  0  0
   54.5228   30.1413   43.3074 H   0  0  0  0  0  0  0  0  0  0  0  0
   56.6439   30.7792   41.2590 H   0  0  0  0  0  0  0  0  0  0  0  0
   58.3397   32.6027   41.1313 H   0  0  0  0  0  0  0  0  0  0  0  0
   59.1934   33.6744   43.2120 H   0  0  0  0  0  0  0  0  0  0  0  0
   60.5307   33.3742   45.6327 H   0  0  0  0  0  0  0  0  0  0  0  0
   59.5092   34.6264   44.7988 H   0  0  0  0  0  0  0  0  0  0  0  0
   60.6958   35.4242   46.8981 H   0  0  0  0  0  0  0  0  0  0  0  0
   58.9111   35.6493   46.8765 H   0  0  0  0  0  0  0  0  0  0  0  0
   61.1536   35.1795   49.2427 H   0  0  0  0  0  0  0  0  0  0  0  0
   59.2000   31.9979   51.4289 H   0  0  0  0  0  0  0  0  0  0  0  0
   57.7242   31.5475   49.4643 H   0  0  0  0  0  0  0  0  0  0  0  0
   57.4501   31.7593   47.0438 H   0  0  0  0  0  0  0  0  0  0  0  0
   56.8906   33.4863   47.1040 H   0  0  0  0  0  0  0  0  0  0  0  0
   56.6458   31.0856   45.5797 H   0  0  0  0  0  0  0  0  0  0  0  0
  1  2  2  0
  2  3  1  0
  3  4  1  0
  4  5  1  0
  5  6  2  0
  5  7  2  0
  5  8  1  0
  8  9  2  0
  9 10  1  0
 10 11  2  0
 11 12  1  0
 12 13  2  0
  2 14  1  0
 14 15  1  0
 15 16  1  0
 16 17  2  0
 17 18  1  0
 18 19  2  0
 19 20  1  0
 20 21  1  0
 21 22  1  0
 22 23  1  0
 23 24  1  0
 24 25  2  0
 25 26  1  0
 26 27  1  0
 26 28  2  0
 28 29  1  0
 29 30  2  0
 30 31  1  0
 20 32  2  0
 13  8  1  0
 32 16  1  0
 31 21  1  0
 30 24  1  0
  3 33  1  0
  3 34  1  0
  4 35  1  0
  4 36  1  0
  9 37  1  0
 10 38  1  0
 11 39  1  0
 12 40  1  0
 13 41  1  0
 15 42  1  0
 15 43  1  0
 17 44  1  0
 18 45  1  0
 19 46  1  0
 22 47  1  0
 22 48  1  0
 23 49  1  0
 23 50  1  0
 25 51  1  0
 28 52  1  0
 29 53  1  0
 31 54  1  0
 31 55  1  0
 32 56  1  0
M  CHG  2  14  -1  27  -1
M  END
>  <UniqueID>  (6) 
6

>  <SMILES>  (6) 
O=C(CCS(=O)(=O)c1ccccc1)[N-]Cc1cccc(N2CCc3cc([O-])ccc3C2)c1

>  <Energy>  (6) 
59.085096129163524

>  <Genealogy>  (6) 
O=C(CCS(=O)(=O)c1ccccc1)[N-]Cc1cccc(N2CCc3cc([O-])ccc3C2)c1 (protonated)
O=C(CCS(=O)(=O)c1ccccc1)[N-]Cc1cccc(N2CCc3cc([O-])ccc3C2)c1 (3D coordinates assigned)
O=C(CCS(=O)(=O)c1ccccc1)[N-]Cc1cccc(N2CCc3cc([O-])ccc3C2)c1 (nonaromatic ring conformer: 59.085096129163524 kcal/mol)

>  <smiles>  (6) 
O=C(CCS(=O)(=O)c1ccccc1)NCc1cccc(N2CCc3cc(O)ccc3C2)c1

>  <score_type>  (6) 
oracle

>  <origin>  (6) 
adg

>  <m_score__min__energy>  (6) 
-12.94

>  <m_primary>  (6) 
energy

$$$$
6:0
     RDKit          3D

 51 54  0  0  0  0  0  0  0  0999 V2000
   56.5640   29.3470   42.9250 C   0  0  0  0  0  0  0  0  0  0  0  0
   56.8210   30.4390   43.9120 C   0  0  0  0  0  0  0  0  0  0  0  0
   55.9460   30.7030   44.7810 O   0  0  0  0  0  0  0  0  0  0  0  0
   58.0900   31.1090   43.9230 N   0  0  0  0  0  0  0  0  0  0  0  0
   58.3780   32.2820   44.7030 C   0  0  0  0  0  0  0  0  0  0  0  0
   58.5160   33.5450   44.1040 C   0  0  0  0  0  0  0  0  0  0  0  0
   58.8230   34.6630   44.8810 C   0  0  0  0  0  0  0  0  0  0  0  0
   59.0030   34.5340   46.2600 C   0  0  0  0  0  0  0  0  0  0  0  0
   58.8800   33.2770   46.8800 C   0  0  0  0  0  0  0  0  0  0  0  0
   59.0870   33.1120   48.3430 C   0  0  0  0  0  0  0  0  0  0  0  0
   60.2170   33.6400   48.9940 C   0  0  0  0  0  0  0  0  0  0  0  0
   60.3690   33.4680   50.3720 C   0  0  0  0  0  0  0  0  0  0  0  0
   61.3850   33.9470   50.9460 O   0  0  0  0  0  0  0  0  0  0  0  0
   59.3890   32.7710   51.1020 C   0  0  0  0  0  0  0  0  0  0  0  0
   59.4910   32.5730   52.4850 C   0  0  0  0  0  0  0  0  0  0  0  0
   58.4960   31.8800   53.1780 C   0  0  0  0  0  0  0  0  0  0  0  0
   57.3620   31.3560   52.5090 C   0  0  0  0  0  0  0  0  0  0  0  0
   56.3190   30.6300   53.2370 N   0  0  0  0  0  0  0  0  0  0  0  0
   55.0960   30.2220   52.5120 C   0  0  0  0  0  0  0  0  0  0  0  0
   54.0270   29.5370   53.3740 C   0  0  0  0  0  0  0  0  0  0  0  0
   54.5930   28.6930   54.4310 N   0  0  0  0  0  0  0  0  0  0  0  0
   55.3150   27.5210   53.9060 C   0  0  0  0  0  0  0  0  0  0  0  0
   55.4100   29.5120   55.3330 C   0  0  0  0  0  0  0  0  0  0  0  0
   56.5900   30.1940   54.6250 C   0  0  0  0  0  0  0  0  0  0  0  0
   57.2700   31.5720   51.1130 C   0  0  0  0  0  0  0  0  0  0  0  0
   58.2680   32.2640   50.4180 C   0  0  0  0  0  0  0  0  0  0  0  0
   58.1500   32.4510   49.0760 N   0  0  0  0  0  0  0  0  0  0  0  0
   58.5850   32.1540   46.0860 C   0  0  0  0  0  0  0  0  0  0  0  0
   56.3440   28.4122   43.4614 H   0  0  0  0  0  0  0  0  0  0  0  0
   55.7051   29.6182   42.2935 H   0  0  0  0  0  0  0  0  0  0  0  0
   57.4537   29.2067   42.2935 H   0  0  0  0  0  0  0  0  0  0  0  0
   58.8760   30.6660   43.3930 H   0  0  0  0  0  0  0  0  0  0  0  0
   58.3815   33.6534   43.0176 H   0  0  0  0  0  0  0  0  0  0  0  0
   58.9236   35.6497   44.4054 H   0  0  0  0  0  0  0  0  0  0  0  0
   59.2424   35.4208   46.8652 H   0  0  0  0  0  0  0  0  0  0  0  0
   60.9790   34.1869   48.4193 H   0  0  0  0  0  0  0  0  0  0  0  0
   60.3619   32.9666   53.0296 H   0  0  0  0  0  0  0  0  0  0  0  0
   58.5945   31.7382   54.2644 H   0  0  0  0  0  0  0  0  0  0  0  0
   54.6484   31.1220   52.0652 H   0  0  0  0  0  0  0  0  0  0  0  0
   55.4146   29.4764   51.7687 H   0  0  0  0  0  0  0  0  0  0  0  0
   53.4045   30.3137   53.8422 H   0  0  0  0  0  0  0  0  0  0  0  0
   53.4413   28.8831   52.7111 H   0  0  0  0  0  0  0  0  0  0  0  0
   55.6885   26.9147   54.7443 H   0  0  0  0  0  0  0  0  0  0  0  0
   54.6331   26.9156   53.2908 H   0  0  0  0  0  0  0  0  0  0  0  0
   56.1625   27.8577   53.2908 H   0  0  0  0  0  0  0  0  0  0  0  0
   54.7703   30.2898   55.7755 H   0  0  0  0  0  0  0  0  0  0  0  0
   55.8295   28.8402   56.0964 H   0  0  0  0  0  0  0  0  0  0  0  0
   56.8741   31.0800   55.2117 H   0  0  0  0  0  0  0  0  0  0  0  0
   57.3875   29.4392   54.5600 H   0  0  0  0  0  0  0  0  0  0  0  0
   56.3973   31.1885   50.5641 H   0  0  0  0  0  0  0  0  0  0  0  0
   58.5155   31.1615   46.5551 H   0  0  0  0  0  0  0  0  0  0  0  0
  1  2  1  0
  2  3  2  0
  2  4  1  0
  4  5  1  0
  5  6  2  0
  6  7  1  0
  7  8  2  0
  8  9  1  0
  9 10  1  0
 10 11  2  0
 11 12  1  0
 12 13  2  0
 12 14  1  0
 14 15  2  0
 15 16  1  0
 16 17  2  0
 17 18  1  0
 18 19  1  0
 19 20  1  0
 20 21  1  0
 21 22  1  0
 21 23  1  0
 23 24  1  0
 17 25  1  0
 25 26  2  0
 26 27  1  0
  9 28  2  0
 28  5  1  0
 27 10  1  0
 26 14  1  0
 24 18  1  0
  1 29  1  0
  1 30  1  0
  1 31  1  0
  4 32  1  0
  6 33  1  0
  7 34  1  0
  8 35  1  0
 11 36  1  0
 15 37  1  0
 16 38  1  0
 19 39  1  0
 19 40  1  0
 20 41  1  0
 20 42  1  0
 22 43  1  0
 22 44  1  0
 22 45  1  0
 23 46  1  0
 23 47  1  0
 24 48  1  0
 24 49  1  0
 25 50  1  0
 28 51  1  0
M  CHG  1  27  -1
M  END
>  <UniqueID>  (7) 
7

>  <SMILES>  (7) 
CC(=O)Nc1cccc(-c2cc(=O)c3ccc(N4CCN(C)CC4)cc3[n-]2)c1

>  <Energy>  (7) 
75.30686448793216

>  <Genealogy>  (7) 
CC(=O)Nc1cccc(-c2cc(=O)c3ccc(N4CCN(C)CC4)cc3[n-]2)c1 (protonated)
CC(=O)Nc1cccc(-c2cc(=O)c3ccc(N4CCN(C)CC4)cc3[n-]2)c1 (3D coordinates assigned)
CC(=O)Nc1cccc(-c2cc(=O)c3ccc(N4CCN(C)CC4)cc3[n-]2)c1 (nonaromatic ring conformer: 75.30686448793216 kcal/mol)

>  <smiles>  (7) 
CC(=O)Nc1cccc(-c2cc(=O)c3ccc(N4CCN(C)CC4)cc3[nH]2)c1

>  <score_type>  (7) 
oracle

>  <origin>  (7) 
adg

>  <m_score__min__energy>  (7) 
-9.6400000000000006

>  <m_primary>  (7) 
energy

$$$$
7:0
     RDKit          3D

 37 39  0  0  0  0  0  0  0  0999 V2000
   55.5690   29.7750   44.9100 O   0  0  0  0  0  0  0  0  0  0  0  0
   56.8270   29.7780   44.8350 C   0  0  0  0  0  0  0  0  0  0  0  0
   57.5810   28.4720   44.7980 C   0  0  0  0  0  0  0  0  0  0  0  0
   57.5870   27.7540   46.1520 C   0  0  0  0  0  0  0  0  0  0  0  0
   57.1760   26.3610   45.9800 N   0  0  0  0  0  0  0  0  0  0  0  0
   57.9820   25.2780   45.9470 C   0  0  0  0  0  0  0  0  0  0  0  0
   59.3700   25.3350   46.0030 O   0  0  0  0  0  0  0  0  0  0  0  0
   57.2310   24.1220   45.8690 C   0  0  0  0  0  0  0  0  0  0  0  0
   55.9140   24.5100   45.8730 C   0  0  0  0  0  0  0  0  0  0  0  0
   55.9100   25.8880   45.9530 C   0  0  0  0  0  0  0  0  0  0  0  0
   54.7740   26.6870   46.0180 O   0  0  0  0  0  0  0  0  0  0  0  0
   54.7620   23.5600   45.8580 C   0  0  0  0  0  0  0  0  0  0  0  0
   55.2230   22.1220   45.7210 C   0  0  0  0  0  0  0  0  0  0  0  0
   56.5190   21.7400   45.7170 C   0  0  0  0  0  0  0  0  0  0  0  0
   57.6860   22.6990   45.8490 C   0  0  0  0  0  0  0  0  0  0  0  0
   57.5020   31.0380   44.7130 N   0  0  0  0  0  0  0  0  0  0  0  0
   56.8890   32.3510   44.8950 C   0  0  0  0  0  0  0  0  0  0  0  0
   57.8470   33.2970   45.5480 C   0  0  0  0  0  0  0  0  0  0  0  0
   58.6620   34.2120   44.8950 C   0  0  0  0  0  0  0  0  0  0  0  0
   59.4500   34.9700   45.7690 C   0  0  0  0  0  0  0  0  0  0  0  0
   59.2600   34.6500   47.1080 C   0  0  0  0  0  0  0  0  0  0  0  0
   58.1110   33.4270   47.2030 S   0  0  0  0  0  0  0  0  0  0  0  0
   57.1094   27.8143   44.0530 H   0  0  0  0  0  0  0  0  0  0  0  0
   58.6254   28.6986   44.5374 H   0  0  0  0  0  0  0  0  0  0  0  0
   58.6013   27.7850   46.5765 H   0  0  0  0  0  0  0  0  0  0  0  0
   56.8834   28.2574   46.8313 H   0  0  0  0  0  0  0  0  0  0  0  0
   54.2000   23.6663   46.7976 H   0  0  0  0  0  0  0  0  0  0  0  0
   54.1295   23.8015   44.9910 H   0  0  0  0  0  0  0  0  0  0  0  0
   54.4547   21.3414   45.6185 H   0  0  0  0  0  0  0  0  0  0  0  0
   56.7410   20.6678   45.6115 H   0  0  0  0  0  0  0  0  0  0  0  0
   58.2214   22.4825   46.7852 H   0  0  0  0  0  0  0  0  0  0  0  0
   58.3439   22.5611   44.9783 H   0  0  0  0  0  0  0  0  0  0  0  0
   56.5979   32.7526   43.9132 H   0  0  0  0  0  0  0  0  0  0  0  0
   56.0050   32.2418   45.5405 H   0  0  0  0  0  0  0  0  0  0  0  0
   58.6860   34.3294   43.8015 H   0  0  0  0  0  0  0  0  0  0  0  0
   60.1525   35.7449   45.4285 H   0  0  0  0  0  0  0  0  0  0  0  0
   59.7741   35.1176   47.9606 H   0  0  0  0  0  0  0  0  0  0  0  0
  1  2  2  0
  2  3  1  0
  3  4  1  0
  4  5  1  0
  5  6  1  0
  6  7  1  0
  6  8  2  0
  8  9  1  0
  9 10  2  0
 10 11  1  0
  9 12  1  0
 12 13  1  0
 13 14  2  0
 14 15  1  0
  2 16  1  0
 16 17  1  0
 17 18  1  0
 18 19  2  0
 19 20  1  0
 20 21  2  0
 21 22  1  0
 10  5  1  0
 22 18  1  0
 15  8  1  0
  3 23  1  0
  3 24  1  0
  4 25  1  0
  4 26  1  0
 12 27  1  0
 12 28  1  0
 13 29  1  0
 14 30  1  0
 15 31  1  0
 15 32  1  0
 17 33  1  0
 17 34  1  0
 19 35  1  0
 20 36  1  0
 21 37  1  0
M  CHG  3   7  -1  11  -1  16  -1
M  END
>  <UniqueID>  (8) 
8

>  <SMILES>  (8) 
O=C(CCn1c([O-])c2c(c1[O-])CC=CC2)[N-]Cc1cccs1

>  <Energy>  (8) 
91.18040925875115

>  <Genealogy>  (8) 
O=C(CCn1c([O-])c2c(c1[O-])CC=CC2)[N-]Cc1cccs1 (protonated)
O=C(CCn1c([O-])c2c(c1[O-])CC=CC2)[N-]Cc1cccs1 (3D coordinates assigned)
O=C(CCn1c([O-])c2c(c1[O-])CC=CC2)[N-]Cc1cccs1 (nonaromatic ring conformer: 91.18040925875115 kcal/mol)

>  <smiles>  (8) 
O=C(CCn1c(O)c2c(c1O)CC=CC2)NCc1cccs1

>  <score_type>  (8) 
oracle

>  <origin>  (8) 
adg

>  <m_score__min__energy>  (8) 
-14.460000000000001

>  <m_primary>  (8) 
energy

$$$$
8:0
     RDKit          3D

 46 48  0  0  0  0  0  0  0  0999 V2000
   59.3340   28.2070   48.6380 C   0  0  0  0  0  0  0  0  0  0  0  0
   59.1090   29.6880   48.5440 C   0  0  0  0  0  0  0  0  0  0  0  0
   58.8540   30.5530   49.5950 C   0  0  0  0  0  0  0  0  0  0  0  0
   58.6280   30.2410   50.9730 N   0  0  0  0  0  0  0  0  0  0  0  0
   57.8490   31.0280   51.8860 C   0  0  0  0  0  0  0  0  0  0  0  0
   58.4520   31.7640   52.7110 O   0  0  0  0  0  0  0  0  0  0  0  0
   56.3410   31.0200   51.8920 C   0  0  0  0  0  0  0  0  0  0  0  0
   55.8070   29.6640   51.9600 N   0  0  0  0  0  0  0  0  0  0  0  0
   54.5340   29.3280   52.5260 C   0  0  0  0  0  0  0  0  0  0  0  0
   54.3930   28.2360   53.1410 O   0  0  0  0  0  0  0  0  0  0  0  0
   53.4020   30.2800   52.4060 C   0  0  0  0  0  0  0  0  0  0  0  0
   53.1960   30.9630   51.1930 C   0  0  0  0  0  0  0  0  0  0  0  0
   52.1460   31.8740   51.0570 C   0  0  0  0  0  0  0  0  0  0  0  0
   51.3000   32.1340   52.1360 C   0  0  0  0  0  0  0  0  0  0  0  0
   50.2670   33.0540   52.0030 O   0  0  0  0  0  0  0  0  0  0  0  0
   51.4930   31.4700   53.3490 C   0  0  0  0  0  0  0  0  0  0  0  0
   52.5380   30.5440   53.4930 C   0  0  0  0  0  0  0  0  0  0  0  0
   52.7220   29.9060   54.7210 O   0  0  0  0  0  0  0  0  0  0  0  0
   58.7810   31.8010   49.0260 C   0  0  0  0  0  0  0  0  0  0  0  0
   58.5240   32.8740   49.6370 O   0  0  0  0  0  0  0  0  0  0  0  0
   58.9640   31.7000   47.6940 N   0  0  0  0  0  0  0  0  0  0  0  0
   58.8610   32.7830   46.7500 C   0  0  0  0  0  0  0  0  0  0  0  0
   57.8130   32.8180   45.8170 C   0  0  0  0  0  0  0  0  0  0  0  0
   57.6880   33.8970   44.9360 C   0  0  0  0  0  0  0  0  0  0  0  0
   58.6070   34.9480   44.9820 C   0  0  0  0  0  0  0  0  0  0  0  0
   59.6510   34.9230   45.9090 C   0  0  0  0  0  0  0  0  0  0  0  0
   59.7770   33.8470   46.7930 C   0  0  0  0  0  0  0  0  0  0  0  0
   59.1810   30.4170   47.4010 N   0  0  0  0  0  0  0  0  0  0  0  0
   59.4410   29.8830   46.0610 C   0  0  0  0  0  0  0  0  0  0  0  0
   59.3792   27.9094   49.6960 H   0  0  0  0  0  0  0  0  0  0  0  0
   58.5059   27.6782   48.1434 H   0  0  0  0  0  0  0  0  0  0  0  0
   60.2818   27.9480   48.1434 H   0  0  0  0  0  0  0  0  0  0  0  0
   55.9853   31.5870   52.7649 H   0  0  0  0  0  0  0  0  0  0  0  0
   55.9928   31.4782   50.9545 H   0  0  0  0  0  0  0  0  0  0  0  0
   53.8690   30.7775   50.3429 H   0  0  0  0  0  0  0  0  0  0  0  0
   51.9856   32.3875   50.0975 H   0  0  0  0  0  0  0  0  0  0  0  0
   50.8222   31.6737   54.1967 H   0  0  0  0  0  0  0  0  0  0  0  0
   53.3340   29.1050   54.8170 H   0  0  0  0  0  0  0  0  0  0  0  0
   57.0866   31.9929   45.7785 H   0  0  0  0  0  0  0  0  0  0  0  0
   56.8652   33.9180   44.2062 H   0  0  0  0  0  0  0  0  0  0  0  0
   58.5082   35.7955   44.2878 H   0  0  0  0  0  0  0  0  0  0  0  0
   60.3749   35.7505   45.9438 H   0  0  0  0  0  0  0  0  0  0  0  0
   60.5974   33.8337   47.5256 H   0  0  0  0  0  0  0  0  0  0  0  0
   59.9211   28.8970   46.1460 H   0  0  0  0  0  0  0  0  0  0  0  0
   58.4910   29.7825   45.5157 H   0  0  0  0  0  0  0  0  0  0  0  0
   60.1060   30.5688   45.5157 H   0  0  0  0  0  0  0  0  0  0  0  0
  1  2  1  0
  2  3  2  0
  3  4  1  0
  4  5  1  0
  5  6  2  0
  5  7  1  0
  7  8  1  0
  8  9  1  0
  9 10  2  0
  9 11  1  0
 11 12  2  0
 12 13  1  0
 13 14  2  0
 14 15  1  0
 14 16  1  0
 16 17  2  0
 17 18  1  0
  3 19  1  0
 19 20  2  0
 19 21  1  0
 21 22  1  0
 22 23  2  0
 23 24  1  0
 24 25  2  0
 25 26  1  0
 26 27  2  0
 21 28  1  0
 28 29  1  0
 28  2  1  0
 17 11  1  0
 27 22  1  0
  1 30  1  0
  1 31  1  0
  1 32  1  0
  7 33  1  0
  7 34  1  0
 12 35  1  0
 13 36  1  0
 16 37  1  0
 18 38  1  0
 23 39  1  0
 24 40  1  0
 25 41  1  0
 26 42  1  0
 27 43  1  0
 29 44  1  0
 29 45  1  0
 29 46  1  0
M  CHG  3   4  -1   8  -1  15  -1
M  END
>  <UniqueID>  (9) 
9

>  <SMILES>  (9) 
Cc1c([N-]C(=O)C[N-]C(=O)c2ccc([O-])cc2O)c(=O)n(-c2ccccc2)n1C

>  <Energy>  (9) 
91.38310727469036

>  <Genealogy>  (9) 
Cc1c([N-]C(=O)C[N-]C(=O)c2ccc([O-])cc2O)c(=O)n(-c2ccccc2)n1C (protonated)
Cc1c([N-]C(=O)C[N-]C(=O)c2ccc([O-])cc2O)c(=O)n(-c2ccccc2)n1C (3D coordinates assigned)
Cc1c([N-]C(=O)C[N-]C(=O)c2ccc([O-])cc2O)c(=O)n(-c2ccccc2)n1C (optimized conformer: 91.38310727469036 kcal/mol)

>  <smiles>  (9) 
Cc1c(NC(=O)CNC(=O)c2ccc(O)cc2O)c(=O)n(-c2ccccc2)n1C

>  <score_type>  (9) 
oracle

>  <origin>  (9) 
adg

>  <m_score__min__energy>  (9) 
-14.550000000000001

>  <m_primary>  (9) 
energy

$$$$
9:0
     RDKit          3D

 60 62  0  0  0  0  0  0  0  0999 V2000
   58.2930   32.8550   47.0790 C   0  0  0  0  0  0  0  0  0  0  0  0
   59.1410   31.7040   46.5260 C   0  0  0  0  0  0  0  0  0  0  0  0
   58.8870   30.3450   47.2170 C   0  0  1  0  0  0  0  0  0  0  0  0
   58.5770   29.3020   46.2310 N   0  0  0  0  0  0  0  0  0  0  0  0
   57.4570   29.4010   45.3350 C   0  0  0  0  0  0  0  0  0  0  0  0
   56.8430   30.4940   45.2070 O   0  0  0  0  0  0  0  0  0  0  0  0
   57.0190   28.2090   44.5330 C   0  0  0  0  0  0  0  0  0  0  0  0
   57.1740   26.9840   45.3220 N   0  0  0  0  0  0  0  0  0  0  0  0
   56.2190   26.3430   46.0140 C   0  0  0  0  0  0  0  0  0  0  0  0
   54.8700   26.6790   46.0000 O   0  0  0  0  0  0  0  0  0  0  0  0
   56.8030   25.3410   46.7580 C   0  0  0  0  0  0  0  0  0  0  0  0
   56.1200   24.4670   47.7680 C   0  0  0  0  0  0  0  0  0  0  0  0
   56.3380   23.0030   47.4670 C   0  0  0  0  0  0  0  0  0  0  0  0
   57.3420   22.4130   47.9480 O   0  0  0  0  0  0  0  0  0  0  0  0
   55.5320   22.3040   46.5100 N   0  0  0  0  0  0  0  0  0  0  0  0
   54.2580   22.7240   46.0040 C   0  0  0  0  0  0  0  0  0  0  0  0
   54.1540   23.6390   44.9450 C   0  0  0  0  0  0  0  0  0  0  0  0
   52.8970   24.0520   44.4890 C   0  0  0  0  0  0  0  0  0  0  0  0
   51.7300   23.5640   45.0960 C   0  0  0  0  0  0  0  0  0  0  0  0
   50.3830   24.0260   44.6220 C   0  0  0  0  0  0  0  0  0  0  0  0
   51.8360   22.6940   46.1910 C   0  0  0  0  0  0  0  0  0  0  0  0
   53.0940   22.2800   46.6430 C   0  0  0  0  0  0  0  0  0  0  0  0
   58.1390   25.3540   46.5570 N   0  0  0  0  0  0  0  0  0  0  0  0
   58.3190   26.3630   45.6770 C   0  0  0  0  0  0  0  0  0  0  0  0
   59.4550   26.7030   45.2540 O   0  0  0  0  0  0  0  0  0  0  0  0
   60.0650   29.9470   48.0880 C   0  0  0  0  0  0  0  0  0  0  0  0
   60.5560   28.7930   47.9790 O   0  0  0  0  0  0  0  0  0  0  0  0
   60.7300   30.8900   48.9380 N   0  0  0  0  0  0  0  0  0  0  0  0
   61.6780   31.8790   48.5130 C   0  0  0  0  0  0  0  0  0  0  0  0
   62.6430   31.5720   47.5370 C   0  0  0  0  0  0  0  0  0  0  0  0
   63.5630   32.5400   47.1240 C   0  0  0  0  0  0  0  0  0  0  0  0
   63.5180   33.8240   47.6670 C   0  0  0  0  0  0  0  0  0  0  0  0
   62.5410   34.1520   48.6120 C   0  0  0  0  0  0  0  0  0  0  0  0
   61.6050   33.1900   49.0300 C   0  0  0  0  0  0  0  0  0  0  0  0
   60.5710   33.5460   50.0620 C   0  0  0  0  0  0  0  0  0  0  0  0
   58.3121   32.8291   48.1785 H   0  0  0  0  0  0  0  0  0  0  0  0
   58.7023   33.8137   46.7277 H   0  0  0  0  0  0  0  0  0  0  0  0
   57.2561   32.7482   46.7277 H   0  0  0  0  0  0  0  0  0  0  0  0
   58.9175   31.5940   45.4546 H   0  0  0  0  0  0  0  0  0  0  0  0
   60.1926   31.9649   46.7158 H   0  0  0  0  0  0  0  0  0  0  0  0
   58.0104   30.4570   47.8720 H   0  0  0  0  0  0  0  0  0  0  0  0
   59.1850   28.4540   46.1630 H   0  0  0  0  0  0  0  0  0  0  0  0
   55.9624   28.3287   44.2515 H   0  0  0  0  0  0  0  0  0  0  0  0
   57.6421   28.1355   43.6295 H   0  0  0  0  0  0  0  0  0  0  0  0
   56.5236   24.6911   48.7664 H   0  0  0  0  0  0  0  0  0  0  0  0
   55.0399   24.6714   47.7287 H   0  0  0  0  0  0  0  0  0  0  0  0
   55.0649   24.0335   44.4711 H   0  0  0  0  0  0  0  0  0  0  0  0
   52.8237   24.7617   43.6518 H   0  0  0  0  0  0  0  0  0  0  0  0
   49.7441   24.2451   45.4902 H   0  0  0  0  0  0  0  0  0  0  0  0
   50.5002   24.9353   44.0142 H   0  0  0  0  0  0  0  0  0  0  0  0
   49.9174   23.2362   44.0142 H   0  0  0  0  0  0  0  0  0  0  0  0
   50.9270   22.3358   46.6963 H   0  0  0  0  0  0  0  0  0  0  0  0
   53.1688   21.6016   47.5056 H   0  0  0  0  0  0  0  0  0  0  0  0
   62.6740   30.5646   47.0962 H   0  0  0  0  0  0  0  0  0  0  0  0
   64.3234   32.2888   46.3699 H   0  0  0  0  0  0  0  0  0  0  0  0
   64.2523   34.5798   47.3513 H   0  0  0  0  0  0  0  0  0  0  0  0
   62.5046   35.1685   49.0307 H   0  0  0  0  0  0  0  0  0  0  0  0
   60.9919   33.4011   51.0679 H   0  0  0  0  0  0  0  0  0  0  0  0
   60.2747   34.5979   49.9365 H   0  0  0  0  0  0  0  0  0  0  0  0
   59.6900   32.8995   49.9365 H   0  0  0  0  0  0  0  0  0  0  0  0
  1  2  1  0
  2  3  1  0
  3  4  1  0
  4  5  1  0
  5  6  2  0
  5  7  1  0
  7  8  1  0
  8  9  1  0
  9 10  1  0
  9 11  2  0
 11 12  1  0
 12 13  1  0
 13 14  2  0
 13 15  1  0
 15 16  1  0
 16 17  2  0
 17 18  1  0
 18 19  2  0
 19 20  1  0
 19 21  1  0
 21 22  2  0
 11 23  1  0
 23 24  1  0
 24 25  2  0
  3 26  1  0
 26 27  2  0
 26 28  1  0
 28 29  1  0
 29 30  2  0
 30 31  1  0
 31 32  2  0
 32 33  1  0
 33 34  2  0
 34 35  1  0
 24  8  1  0
 34 29  1  0
 22 16  1  0
  1 36  1  0
  1 37  1  0
  1 38  1  0
  2 39  1  0
  2 40  1  0
  3 41  1  1
  4 42  1  0
  7 43  1  0
  7 44  1  0
 12 45  1  0
 12 46  1  0
 17 47  1  0
 18 48  1  0
 20 49  1  0
 20 50  1  0
 20 51  1  0
 21 52  1  0
 22 53  1  0
 30 54  1  0
 31 55  1  0
 32 56  1  0
 33 57  1  0
 35 58  1  0
 35 59  1  0
 35 60  1  0
M  CHG  4  10  -1  15  -1  23  -1  28  -1
M  END
>  <UniqueID>  (10) 
10

>  <SMILES>  (10) 
CC[C@@H](NC(=O)Cn1c([O-])c(CC(=O)[N-]c2ccc(C)cc2)[n-]c1=O)C(=O)[N-]c1ccccc1C

>  <Energy>  (10) 
96.72090925471451

>  <Genealogy>  (10) 
CCC(NC(=O)Cn1c([O-])c(CC(=O)[N-]c2ccc(C)cc2)[n-]c1=O)C(=O)[N-]c1ccccc1C (protonated)
CC[C@@H](NC(=O)Cn1c([O-])c(CC(=O)[N-]c2ccc(C)cc2)[n-]c1=O)C(=O)[N-]c1ccccc1C (chirality)
CC[C@@H](NC(=O)Cn1c([O-])c(CC(=O)[N-]c2ccc(C)cc2)[n-]c1=O)C(=O)[N-]c1ccccc1C (3D coordinates assigned)
CC[C@@H](NC(=O)Cn1c([O-])c(CC(=O)[N-]c2ccc(C)cc2)[n-]c1=O)C(=O)[N-]c1ccccc1C (optimized conformer: 96.72090925471451 kcal/mol)

>  <smiles>  (10) 
CCC(NC(=O)Cn1c(O)c(CC(=O)Nc2ccc(C)cc2)[nH]c1=O)C(=O)Nc1ccccc1C

>  <score_type>  (10) 
oracle

>  <origin>  (10) 
adg

>  <m_score__min__energy>  (10) 
-17.050000000000001

>  <m_primary>  (10) 
energy

$$$$
10:0
     RDKit          3D

 45 47  0  0  1  0  0  0  0  0999 V2000
   58.1290   26.7290   42.3250 C   0  0  0  0  0  0  0  0  0  0  0  0
   57.7950   26.8970   43.7640 C   0  0  0  0  0  0  0  0  0  0  0  0
   57.8620   25.8170   44.6060 C   0  0  0  0  0  0  0  0  0  0  0  0
   57.5490   25.9860   45.9400 C   0  0  0  0  0  0  0  0  0  0  0  0
   57.1700   27.2460   46.4050 C   0  0  0  0  0  0  0  0  0  0  0  0
   57.1030   28.3110   45.5760 N   0  0  0  0  0  0  0  0  0  0  0  0
   57.4120   28.1260   44.2820 C   0  0  0  0  0  0  0  0  0  0  0  0
   57.3560   29.1270   43.4710 N   0  0  0  0  0  0  0  0  0  0  0  0
   56.7850   30.3840   43.7990 C   0  0  0  0  0  0  0  0  0  0  0  0
   55.7480   30.4710   44.5090 O   0  0  0  0  0  0  0  0  0  0  0  0
   57.3930   31.6560   43.3160 C   0  0  0  0  0  0  0  0  0  0  0  0
   57.5880   32.8460   44.6630 S   0  0  0  0  0  0  0  0  0  0  0  0
   58.1580   32.0280   46.1580 C   0  0  0  0  0  0  0  0  0  0  0  0
   58.1920   30.7110   46.3890 N   0  0  0  0  0  0  0  0  0  0  0  0
   58.6820   30.4780   47.6180 N   0  0  0  0  0  0  0  0  0  0  0  0
   58.9470   31.6920   48.1320 C   0  0  0  0  0  0  0  0  0  0  0  0
   59.4290   31.8390   49.3000 O   0  0  0  0  0  0  0  0  0  0  0  0
   58.6300   32.6620   47.2440 N   0  0  0  0  0  0  0  0  0  0  0  0
   58.7960   34.0620   47.4950 C   0  0  0  0  0  0  0  0  0  0  0  0
   59.8720   34.7000   46.6070 C   0  0  0  0  0  0  0  0  0  0  0  0
   61.1770   34.2150   47.1700 C   0  0  0  0  0  0  0  0  0  0  0  0
   61.2900   34.2180   48.5640 C   0  0  0  0  0  0  0  0  0  0  0  0
   62.4920   33.7730   49.1220 C   0  0  0  0  0  0  0  0  0  0  0  0
   63.5270   33.3460   48.3170 C   0  0  0  0  0  0  0  0  0  0  0  0
   63.4070   33.3460   46.9260 C   0  0  0  0  0  0  0  0  0  0  0  0
   62.2100   33.7880   46.3570 C   0  0  0  0  0  0  0  0  0  0  0  0
   59.1081   26.2365   42.2309 H   0  0  0  0  0  0  0  0  0  0  0  0
   57.3594   26.1107   41.8397 H   0  0  0  0  0  0  0  0  0  0  0  0
   58.1666   27.7155   41.8397 H   0  0  0  0  0  0  0  0  0  0  0  0
   58.1609   24.8297   44.2240 H   0  0  0  0  0  0  0  0  0  0  0  0
   57.5981   25.1325   46.6322 H   0  0  0  0  0  0  0  0  0  0  0  0
   56.9206   27.3749   47.4686 H   0  0  0  0  0  0  0  0  0  0  0  0
   56.8220   29.2460   45.9190 H   0  0  0  0  0  0  0  0  0  0  0  0
   58.3811   31.4391   42.8840 H   0  0  0  0  0  0  0  0  0  0  0  0
   56.7247   32.0945   42.5603 H   0  0  0  0  0  0  0  0  0  0  0  0
   58.8240   29.5350   48.0750 H   0  0  0  0  0  0  0  0  0  0  0  0
   57.8383   34.5691   47.3065 H   0  0  0  0  0  0  0  0  0  0  0  0
   59.1182   34.1758   48.5406 H   0  0  0  0  0  0  0  0  0  0  0  0
   59.7558   34.3731   45.5631 H   0  0  0  0  0  0  0  0  0  0  0  0
   59.8064   35.7980   46.6019 H   0  0  0  0  0  0  0  0  0  0  0  0
   60.4603   34.5593   49.2004 H   0  0  0  0  0  0  0  0  0  0  0  0
   62.6136   33.7633   50.2152 H   0  0  0  0  0  0  0  0  0  0  0  0
   64.4633   32.9994   48.7788 H   0  0  0  0  0  0  0  0  0  0  0  0
   64.2380   33.0050   46.2910 H   0  0  0  0  0  0  0  0  0  0  0  0
   62.0899   33.7962   45.2636 H   0  0  0  0  0  0  0  0  0  0  0  0
  1  2  1  0
  2  3  2  0
  3  4  1  0
  4  5  2  0
  5  6  1  0
  6  7  1  0
  7  8  2  0
  8  9  1  0
  9 10  2  0
  9 11  1  0
 11 12  1  0
 12 13  1  0
 13 14  2  0
 14 15  1  0
 15 16  1  0
 16 17  2  0
 16 18  1  0
 18 19  1  0
 19 20  1  0
 20 21  1  0
 21 22  2  0
 22 23  1  0
 23 24  2  0
 24 25  1  0
 25 26  2  0
  7  2  1  0
 18 13  1  0
 26 21  1  0
  1 27  1  0
  1 28  1  0
  1 29  1  0
  3 30  1  0
  4 31  1  0
  5 32  1  0
  6 33  1  0
 11 34  1  0
 11 35  1  0
 15 36  1  0
 19 37  1  0
 19 38  1  0
 20 39  1  0
 20 40  1  0
 22 41  1  0
 23 42  1  0
 24 43  1  0
 25 44  1  0
 26 45  1  0
M  END
>  <smiles>  (11) 
Cc1ccc[nH]c1=NC(=O)CSc1n[nH]c(=O)n1CCc1ccccc1

>  <score_type>  (11) 
oracle

>  <origin>  (11) 
adg

>  <m_score__min__energy>  (11) 
-8.4800000000000004

>  <m_primary>  (11) 
energy

$$$$
11:0
     RDKit          3D

 49 50  0  0  0  0  0  0  0  0999 V2000
   59.3220   28.5460   44.7580 C   0  0  0  0  0  0  0  0  0  0  0  0
   58.3590   27.8210   45.7140 C   0  0  0  0  0  0  0  0  0  0  0  0
   58.5100   28.4260   47.1210 C   0  0  0  0  0  0  0  0  0  0  0  0
   56.8840   27.9090   45.2190 C   0  0  1  0  0  0  0  0  0  0  0  0
   55.9860   27.0580   46.0060 N   0  0  0  0  0  0  0  0  0  0  0  0
   55.5680   25.7130   45.7310 C   0  0  0  0  0  0  0  0  0  0  0  0
   54.3610   25.4050   45.9130 O   0  0  0  0  0  0  0  0  0  0  0  0
   56.4930   24.6750   45.2540 C   0  0  0  0  0  0  0  0  0  0  0  0
   56.1760   23.9320   44.1060 C   0  0  0  0  0  0  0  0  0  0  0  0
   57.0100   22.8890   43.6930 C   0  0  0  0  0  0  0  0  0  0  0  0
   58.1490   22.5680   44.4360 C   0  0  0  0  0  0  0  0  0  0  0  0
   58.4620   23.2950   45.5870 C   0  0  0  0  0  0  0  0  0  0  0  0
   57.6340   24.3430   46.0030 C   0  0  0  0  0  0  0  0  0  0  0  0
   57.9350   25.0200   47.1410 F   0  0  0  0  0  0  0  0  0  0  0  0
   56.3390   29.3150   45.1460 C   0  0  0  0  0  0  0  0  0  0  0  0
   55.1410   29.4900   44.7920 O   0  0  0  0  0  0  0  0  0  0  0  0
   57.1550   30.4430   45.4810 N   0  0  0  0  0  0  0  0  0  0  0  0
   57.2820   31.6150   44.6290 C   0  0  0  0  0  0  0  0  0  0  0  0
   57.4280   32.8290   45.4830 C   0  0  0  0  0  0  0  0  0  0  0  0
   57.3790   32.7240   46.7380 O   0  0  0  0  0  0  0  0  0  0  0  0
   57.5930   34.1090   44.8720 N   0  0  0  0  0  0  0  0  0  0  0  0
   58.8600   34.8280   44.8750 C   0  0  0  0  0  0  0  0  0  0  0  0
   59.6390   34.4560   46.1030 C   0  0  0  0  0  0  0  0  0  0  0  0
   59.2120   34.8820   47.3710 C   0  0  0  0  0  0  0  0  0  0  0  0
   59.9650   34.5720   48.5080 C   0  0  0  0  0  0  0  0  0  0  0  0
   61.1560   33.8480   48.3850 C   0  0  0  0  0  0  0  0  0  0  0  0
   62.1020   33.4670   49.8110 Cl  0  0  0  0  0  0  0  0  0  0  0  0
   61.5930   33.4330   47.1230 C   0  0  0  0  0  0  0  0  0  0  0  0
   60.8420   33.7390   45.9830 C   0  0  0  0  0  0  0  0  0  0  0  0
   60.0664   29.1064   45.3427 H   0  0  0  0  0  0  0  0  0  0  0  0
   59.8343   27.8075   44.1239 H   0  0  0  0  0  0  0  0  0  0  0  0
   58.7539   29.2425   44.1239 H   0  0  0  0  0  0  0  0  0  0  0  0
   58.6172   26.7521   45.7428 H   0  0  0  0  0  0  0  0  0  0  0  0
   58.3164   27.6502   47.8764 H   0  0  0  0  0  0  0  0  0  0  0  0
   59.5322   28.8126   47.2461 H   0  0  0  0  0  0  0  0  0  0  0  0
   57.7894   29.2476   47.2461 H   0  0  0  0  0  0  0  0  0  0  0  0
   56.9185   27.5317   44.1863 H   0  0  0  0  0  0  0  0  0  0  0  0
   55.2696   24.1710   43.5303 H   0  0  0  0  0  0  0  0  0  0  0  0
   56.7695   22.3206   42.7825 H   0  0  0  0  0  0  0  0  0  0  0  0
   58.8000   21.7418   44.1142 H   0  0  0  0  0  0  0  0  0  0  0  0
   59.3616   23.0428   46.1676 H   0  0  0  0  0  0  0  0  0  0  0  0
   58.1685   31.5084   43.9865 H   0  0  0  0  0  0  0  0  0  0  0  0
   56.3858   31.7124   43.9986 H   0  0  0  0  0  0  0  0  0  0  0  0
   59.4373   34.5588   43.9782 H   0  0  0  0  0  0  0  0  0  0  0  0
   58.6688   35.9113   44.8742 H   0  0  0  0  0  0  0  0  0  0  0  0
   58.2823   35.4614   47.4704 H   0  0  0  0  0  0  0  0  0  0  0  0
   59.6204   34.8978   49.5005 H   0  0  0  0  0  0  0  0  0  0  0  0
   62.5297   32.8645   47.0265 H   0  0  0  0  0  0  0  0  0  0  0  0
   61.1935   33.4180   44.9913 H   0  0  0  0  0  0  0  0  0  0  0  0
  1  2  1  0
  2  3  1  0
  2  4  1  0
  4  5  1  0
  5  6  1  0
  6  7  2  0
  6  8  1  0
  8  9  2  0
  9 10  1  0
 10 11  2  0
 11 12  1  0
 12 13  2  0
 13 14  1  0
  4 15  1  0
 15 16  2  0
 15 17  1  0
 17 18  1  0
 18 19  1  0
 19 20  2  0
 19 21  1  0
 21 22  1  0
 22 23  1  0
 23 24  2  0
 24 25  1  0
 25 26  2  0
 26 27  1  0
 26 28  1  0
 28 29  2  0
 13  8  1  0
 29 23  1  0
  1 30  1  0
  1 31  1  0
  1 32  1  0
  2 33  1  0
  3 34  1  0
  3 35  1  0
  3 36  1  0
  4 37  1  6
  9 38  1  0
 10 39  1  0
 11 40  1  0
 12 41  1  0
 18 42  1  0
 18 43  1  0
 22 44  1  0
 22 45  1  0
 24 46  1  0
 25 47  1  0
 28 48  1  0
 29 49  1  0
M  CHG  3   5  -1  17  -1  21  -1
M  END
>  <UniqueID>  (12) 
11

>  <SMILES>  (12) 
CC(C)[C@@H]([N-]C(=O)c1ccccc1F)C(=O)[N-]CC(=O)[N-]Cc1ccc(Cl)cc1

>  <Energy>  (12) 
41.80195771568248

>  <Genealogy>  (12) 
CC(C)C([N-]C(=O)c1ccccc1F)C(=O)[N-]CC(=O)[N-]Cc1ccc(Cl)cc1 (protonated)
CC(C)[C@@H]([N-]C(=O)c1ccccc1F)C(=O)[N-]CC(=O)[N-]Cc1ccc(Cl)cc1 (chirality)
CC(C)[C@@H]([N-]C(=O)c1ccccc1F)C(=O)[N-]CC(=O)[N-]Cc1ccc(Cl)cc1 (3D coordinates assigned)
CC(C)[C@@H]([N-]C(=O)c1ccccc1F)C(=O)[N-]CC(=O)[N-]Cc1ccc(Cl)cc1 (optimized conformer: 41.80195771568248 kcal/mol)

>  <smiles>  (12) 
CC(C)C(NC(=O)c1ccccc1F)C(=O)NCC(=O)NCc1ccc(Cl)cc1

>  <score_type>  (12) 
oracle

>  <origin>  (12) 
adg

>  <m_score__min__energy>  (12) 
-13.84

>  <m_primary>  (12) 
energy

$$$$
12:0
     RDKit          3D

 50 52  0  0  0  0  0  0  0  0999 V2000
   58.0630   32.3460   43.9080 C   0  0  0  0  0  0  0  0  0  0  0  0
   58.7540   32.1470   45.1890 N   0  0  0  0  0  0  0  0  0  0  0  0
   58.1260   31.0400   45.9380 C   0  0  0  0  0  0  0  0  0  0  0  0
   57.3440   30.1480   45.0090 C   0  0  0  0  0  0  0  0  0  0  0  0
   56.2530   30.5690   44.5360 O   0  0  0  0  0  0  0  0  0  0  0  0
   57.8000   28.8230   44.6700 N   0  0  0  0  0  0  0  0  0  0  0  0
   58.7480   28.0980   45.5330 C   0  0  0  0  0  0  0  0  0  0  0  0
   58.4190   26.5980   45.5690 C   0  0  0  0  0  0  0  0  0  0  0  0
   58.0940   26.0720   44.2350 N   0  0  0  0  0  0  0  0  0  0  0  0
   57.6470   24.7100   44.0980 C   0  0  0  0  0  0  0  0  0  0  0  0
   56.6760   24.3730   43.1400 C   0  0  0  0  0  0  0  0  0  0  0  0
   56.2340   23.0540   43.0150 C   0  0  0  0  0  0  0  0  0  0  0  0
   56.7550   22.0540   43.8480 C   0  0  0  0  0  0  0  0  0  0  0  0
   56.3230   20.7350   43.7330 O   0  0  0  0  0  0  0  0  0  0  0  0
   57.7190   22.3840   44.8060 C   0  0  0  0  0  0  0  0  0  0  0  0
   58.1620   23.7040   44.9340 C   0  0  0  0  0  0  0  0  0  0  0  0
   58.1470   26.9610   43.0690 C   0  0  0  0  0  0  0  0  0  0  0  0
   57.3880   28.2520   43.3780 C   0  0  0  0  0  0  0  0  0  0  0  0
   58.6750   33.6300   46.1160 S   0  0  0  0  0  0  0  0  0  0  0  0
   58.5510   34.8110   45.1920 O   0  0  0  0  0  0  0  0  0  0  0  0
   57.4820   33.6120   47.0300 O   0  0  0  0  0  0  0  0  0  0  0  0
   60.1270   33.7850   47.1010 C   0  0  0  0  0  0  0  0  0  0  0  0
   60.0090   34.0800   48.4670 C   0  0  0  0  0  0  0  0  0  0  0  0
   61.1540   34.1920   49.2620 C   0  0  0  0  0  0  0  0  0  0  0  0
   62.4190   34.0070   48.6990 C   0  0  0  0  0  0  0  0  0  0  0  0
   62.5420   33.7070   47.3390 C   0  0  0  0  0  0  0  0  0  0  0  0
   63.7700   33.5240   46.7940 F   0  0  0  0  0  0  0  0  0  0  0  0
   61.3990   33.5950   46.5400 C   0  0  0  0  0  0  0  0  0  0  0  0
   57.0215   32.6459   44.0959 H   0  0  0  0  0  0  0  0  0  0  0  0
   58.5736   33.1336   43.3344 H   0  0  0  0  0  0  0  0  0  0  0  0
   58.0765   31.4075   43.3344 H   0  0  0  0  0  0  0  0  0  0  0  0
   58.9098   30.4480   46.4331 H   0  0  0  0  0  0  0  0  0  0  0  0
   57.4390   31.4626   46.6859 H   0  0  0  0  0  0  0  0  0  0  0  0
   59.7673   28.2340   45.1423 H   0  0  0  0  0  0  0  0  0  0  0  0
   58.6715   28.4994   46.5543 H   0  0  0  0  0  0  0  0  0  0  0  0
   59.2895   26.0531   45.9630 H   0  0  0  0  0  0  0  0  0  0  0  0
   57.5375   26.4594   46.2123 H   0  0  0  0  0  0  0  0  0  0  0  0
   56.2613   25.1528   42.4843 H   0  0  0  0  0  0  0  0  0  0  0  0
   55.4749   22.7991   42.2608 H   0  0  0  0  0  0  0  0  0  0  0  0
   56.9800   19.9630   43.7290 H   0  0  0  0  0  0  0  0  0  0  0  0
   58.1303   21.6021   45.4613 H   0  0  0  0  0  0  0  0  0  0  0  0
   58.9173   23.9566   45.6927 H   0  0  0  0  0  0  0  0  0  0  0  0
   59.1955   27.1987   42.8364 H   0  0  0  0  0  0  0  0  0  0  0  0
   57.6843   26.4612   42.2053 H   0  0  0  0  0  0  0  0  0  0  0  0
   57.5899   28.9846   42.5827 H   0  0  0  0  0  0  0  0  0  0  0  0
   56.3146   28.0174   43.4306 H   0  0  0  0  0  0  0  0  0  0  0  0
   59.0141   34.2235   48.9138 H   0  0  0  0  0  0  0  0  0  0  0  0
   61.0584   34.4262   50.3325 H   0  0  0  0  0  0  0  0  0  0  0  0
   63.3184   34.0974   49.3258 H   0  0  0  0  0  0  0  0  0  0  0  0
   61.4977   33.3576   45.4705 H   0  0  0  0  0  0  0  0  0  0  0  0
  1  2  1  0
  2  3  1  0
  3  4  1  0
  4  5  2  0
  4  6  1  0
  6  7  1  0
  7  8  1  0
  8  9  1  0
  9 10  1  0
 10 11  2  0
 11 12  1  0
 12 13  2  0
 13 14  1  0
 13 15  1  0
 15 16  2  0
  9 17  1  0
 17 18  1  0
  2 19  1  0
 19 20  2  0
 19 21  2  0
 19 22  1  0
 22 23  2  0
 23 24  1  0
 24 25  2  0
 25 26  1  0
 26 27  1  0
 26 28  2  0
 18  6  1  0
 28 22  1  0
 16 10  1  0
  1 29  1  0
  1 30  1  0
  1 31  1  0
  3 32  1  0
  3 33  1  0
  7 34  1  0
  7 35  1  0
  8 36  1  0
  8 37  1  0
 11 38  1  0
 12 39  1  0
 14 40  1  0
 15 41  1  0
 16 42  1  0
 17 43  1  0
 17 44  1  0
 18 45  1  0
 18 46  1  0
 23 47  1  0
 24 48  1  0
 25 49  1  0
 28 50  1  0
M  END
>  <UniqueID>  (13) 
12

>  <SMILES>  (13) 
CN(CC(=O)N1CCN(c2ccc(O)cc2)CC1)S(=O)(=O)c1cccc(F)c1

>  <Energy>  (13) 
55.28939610531018

>  <Genealogy>  (13) 
CN(CC(=O)N1CCN(c2ccc(O)cc2)CC1)S(=O)(=O)c1cccc(F)c1 (3D coordinates assigned)
CN(CC(=O)N1CCN(c2ccc(O)cc2)CC1)S(=O)(=O)c1cccc(F)c1 (nonaromatic ring conformer: 55.28939610531018 kcal/mol)

>  <smiles>  (13) 
CN(CC(=O)N1CCN(c2ccc(O)cc2)CC1)S(=O)(=O)c1cccc(F)c1

>  <score_type>  (13) 
oracle

>  <origin>  (13) 
adg

>  <m_score__min__energy>  (13) 
-9.4100000000000001

>  <m_primary>  (13) 
energy

$$$$
13:0
     RDKit          3D

 38 40  0  0  0  0  0  0  0  0999 V2000
   57.1140   34.5950   44.8760 C   0  0  0  0  0  0  0  0  0  0  0  0
   57.7650   33.4880   45.5820 C   0  0  0  0  0  0  0  0  0  0  0  0
   57.4090   32.1930   45.2740 C   0  0  0  0  0  0  0  0  0  0  0  0
   58.0000   31.1000   45.9190 C   0  0  0  0  0  0  0  0  0  0  0  0
   57.5690   29.7790   45.5340 C   0  0  0  0  0  0  0  0  0  0  0  0
   56.4890   29.6470   44.8600 O   0  0  0  0  0  0  0  0  0  0  0  0
   58.2410   28.5700   45.8330 N   0  0  0  0  0  0  0  0  0  0  0  0
   57.7470   27.2850   45.4120 C   0  0  0  0  0  0  0  0  0  0  0  0
   56.8780   26.6620   46.2960 C   0  0  0  0  0  0  0  0  0  0  0  0
   56.3920   25.4300   45.9140 C   0  0  0  0  0  0  0  0  0  0  0  0
   56.7430   24.8330   44.7150 C   0  0  0  0  0  0  0  0  0  0  0  0
   57.6130   25.4790   43.8540 C   0  0  0  0  0  0  0  0  0  0  0  0
   58.1190   26.7200   44.2100 C   0  0  0  0  0  0  0  0  0  0  0  0
   58.9410   31.4060   46.8630 C   0  0  0  0  0  0  0  0  0  0  0  0
   59.5210   30.5230   47.4890 O   0  0  0  0  0  0  0  0  0  0  0  0
   59.2750   32.6970   47.1520 N   0  0  0  0  0  0  0  0  0  0  0  0
   60.2950   32.9560   48.1790 C   0  0  0  0  0  0  0  0  0  0  0  0
   61.6570   32.9510   47.6010 C   0  0  0  0  0  0  0  0  0  0  0  0
   62.0860   33.9330   46.7110 C   0  0  0  0  0  0  0  0  0  0  0  0
   63.3980   33.5840   46.4020 C   0  0  0  0  0  0  0  0  0  0  0  0
   63.7270   32.4590   47.0710 N   0  0  0  0  0  0  0  0  0  0  0  0
   62.6730   32.0840   47.7900 N   0  0  0  0  0  0  0  0  0  0  0  0
   58.6970   33.7180   46.5220 N   0  0  0  0  0  0  0  0  0  0  0  0
   56.6979   35.3026   45.6082 H   0  0  0  0  0  0  0  0  0  0  0  0
   57.8519   35.1119   44.2450 H   0  0  0  0  0  0  0  0  0  0  0  0
   56.3036   34.2014   44.2450 H   0  0  0  0  0  0  0  0  0  0  0  0
   56.6436   32.0141   44.5044 H   0  0  0  0  0  0  0  0  0  0  0  0
   59.1220   28.5560   46.3710 H   0  0  0  0  0  0  0  0  0  0  0  0
   56.5920   27.1266   47.2512 H   0  0  0  0  0  0  0  0  0  0  0  0
   55.6999   24.9017   46.5863 H   0  0  0  0  0  0  0  0  0  0  0  0
   56.3317   23.8484   44.4476 H   0  0  0  0  0  0  0  0  0  0  0  0
   57.8995   25.0138   42.8993 H   0  0  0  0  0  0  0  0  0  0  0  0
   58.8115   27.2496   43.5392 H   0  0  0  0  0  0  0  0  0  0  0  0
   60.1030   33.9389   48.6341 H   0  0  0  0  0  0  0  0  0  0  0  0
   60.2365   32.1580   48.9338 H   0  0  0  0  0  0  0  0  0  0  0  0
   61.5143   34.7943   46.3352 H   0  0  0  0  0  0  0  0  0  0  0  0
   64.0611   34.1374   45.7208 H   0  0  0  0  0  0  0  0  0  0  0  0
   64.6620   31.9700   47.0230 H   0  0  0  0  0  0  0  0  0  0  0  0
  1  2  1  0
  2  3  1  0
  3  4  2  0
  4  5  1  0
  5  6  2  0
  5  7  1  0
  7  8  1  0
  8  9  2  0
  9 10  1  0
 10 11  2  0
 11 12  1  0
 12 13  2  0
  4 14  1  0
 14 15  2  0
 14 16  1  0
 16 17  1  0
 17 18  1  0
 18 19  1  0
 19 20  2  0
 20 21  1  0
 21 22  1  0
 16 23  1  0
 23  2  2  0
 13  8  1  0
 22 18  2  0
  1 24  1  0
  1 25  1  0
  1 26  1  0
  3 27  1  0
  7 28  1  0
  9 29  1  0
 10 30  1  0
 11 31  1  0
 12 32  1  0
 13 33  1  0
 17 34  1  0
 17 35  1  0
 19 36  1  0
 20 37  1  0
 21 38  1  0
M  END
>  <smiles>  (14) 
Cc1cc(C(=O)Nc2ccccc2)c(=O)n(Cc2cc[nH]n2)n1

>  <score_type>  (14) 
oracle

>  <origin>  (14) 
adg

>  <m_score__min__energy>  (14) 
-7.1500000000000004

>  <m_primary>  (14) 
energy

$$$$
14:0
     RDKit          3D

 44 46  0  0  0  0  0  0  0  0999 V2000
   54.4590   24.7870   45.9730 O   0  0  0  0  0  0  0  0  0  0  0  0
   55.5450   25.4260   46.0180 C   0  0  0  0  0  0  0  0  0  0  0  0
   56.8380   24.6850   46.1270 C   0  0  0  0  0  0  0  0  0  0  0  0
   56.9180   23.6370   45.0590 C   0  0  0  0  0  0  0  0  0  0  0  0
   56.2030   23.7790   43.8600 C   0  0  0  0  0  0  0  0  0  0  0  0
   56.2670   22.7670   42.8990 C   0  0  0  0  0  0  0  0  0  0  0  0
   57.0380   21.6280   43.1420 C   0  0  0  0  0  0  0  0  0  0  0  0
   57.7300   21.5140   44.3500 C   0  0  0  0  0  0  0  0  0  0  0  0
   57.6520   22.5080   45.2750 N   0  0  0  0  0  0  0  0  0  0  0  0
   55.5520   26.8550   45.9230 N   0  0  0  0  0  0  0  0  0  0  0  0
   56.6800   27.6180   45.4050 C   0  0  0  0  0  0  0  0  0  0  0  0
   56.2870   29.0600   45.2460 C   0  0  0  0  0  0  0  0  0  0  0  0
   55.1890   29.3330   44.6940 O   0  0  0  0  0  0  0  0  0  0  0  0
   57.0770   30.1330   45.7780 N   0  0  0  0  0  0  0  0  0  0  0  0
   57.5630   31.2570   45.0340 C   0  0  0  0  0  0  0  0  0  0  0  0
   57.6060   31.1680   43.6360 C   0  0  0  0  0  0  0  0  0  0  0  0
   58.0730   32.2410   42.8730 C   0  0  0  0  0  0  0  0  0  0  0  0
   58.5190   33.4040   43.5030 C   0  0  0  0  0  0  0  0  0  0  0  0
   58.5160   33.4900   44.8980 C   0  0  0  0  0  0  0  0  0  0  0  0
   58.0560   32.4160   45.6720 C   0  0  0  0  0  0  0  0  0  0  0  0
   58.1620   32.5390   47.4650 S   0  0  0  0  0  0  0  0  0  0  0  0
   59.9550   32.5650   47.4560 C   0  0  0  0  0  0  0  0  0  0  0  0
   60.6400   33.7870   47.4110 C   0  0  0  0  0  0  0  0  0  0  0  0
   62.0390   33.8080   47.4090 C   0  0  0  0  0  0  0  0  0  0  0  0
   62.7560   32.6080   47.4500 C   0  0  0  0  0  0  0  0  0  0  0  0
   62.0750   31.3860   47.4870 C   0  0  0  0  0  0  0  0  0  0  0  0
   60.6760   31.3640   47.4870 C   0  0  0  0  0  0  0  0  0  0  0  0
   57.6736   25.3905   46.0087 H   0  0  0  0  0  0  0  0  0  0  0  0
   56.8957   24.2014   47.1133 H   0  0  0  0  0  0  0  0  0  0  0  0
   55.5975   24.6792   43.6784 H   0  0  0  0  0  0  0  0  0  0  0  0
   55.7122   22.8669   41.9544 H   0  0  0  0  0  0  0  0  0  0  0  0
   57.0997   20.8283   42.3892 H   0  0  0  0  0  0  0  0  0  0  0  0
   58.3381   20.6202   44.5532 H   0  0  0  0  0  0  0  0  0  0  0  0
   57.5240   27.5444   46.1066 H   0  0  0  0  0  0  0  0  0  0  0  0
   56.9758   27.2114   44.4266 H   0  0  0  0  0  0  0  0  0  0  0  0
   57.2699   30.2474   43.1364 H   0  0  0  0  0  0  0  0  0  0  0  0
   58.0893   32.1694   41.7755 H   0  0  0  0  0  0  0  0  0  0  0  0
   58.8732   34.2537   42.9009 H   0  0  0  0  0  0  0  0  0  0  0  0
   58.8764   34.4050   45.3908 H   0  0  0  0  0  0  0  0  0  0  0  0
   60.0767   34.7312   47.3772 H   0  0  0  0  0  0  0  0  0  0  0  0
   62.5748   34.7681   47.3752 H   0  0  0  0  0  0  0  0  0  0  0  0
   63.8559   32.6247   47.4532 H   0  0  0  0  0  0  0  0  0  0  0  0
   62.6397   30.4425   47.5161 H   0  0  0  0  0  0  0  0  0  0  0  0
   60.1416   30.4028   47.5114 H   0  0  0  0  0  0  0  0  0  0  0  0
  1  2  2  0
  2  3  1  0
  3  4  1  0
  4  5  2  0
  5  6  1  0
  6  7  2  0
  7  8  1  0
  8  9  2  0
  2 10  1  0
 10 11  1  0
 11 12  1  0
 12 13  2  0
 12 14  1  0
 14 15  1  0
 15 16  2  0
 16 17  1  0
 17 18  2  0
 18 19  1  0
 19 20  2  0
 20 21  1  0
 21 22  1  0
 22 23  2  0
 23 24  1  0
 24 25  2  0
 25 26  1  0
 26 27  2  0
  9  4  1  0
 20 15  1  0
 27 22  1  0
  3 28  1  0
  3 29  1  0
  5 30  1  0
  6 31  1  0
  7 32  1  0
  8 33  1  0
 11 34  1  0
 11 35  1  0
 16 36  1  0
 17 37  1  0
 18 38  1  0
 19 39  1  0
 23 40  1  0
 24 41  1  0
 25 42  1  0
 26 43  1  0
 27 44  1  0
M  CHG  2  10  -1  14  -1
M  END
>  <UniqueID>  (15) 
13

>  <SMILES>  (15) 
O=C(Cc1ccccn1)[N-]CC(=O)[N-]c1ccccc1Sc1ccccc1

>  <Energy>  (15) 
44.4149783644891

>  <Genealogy>  (15) 
O=C(Cc1ccccn1)[N-]CC(=O)[N-]c1ccccc1Sc1ccccc1 (protonated)
O=C(Cc1ccccn1)[N-]CC(=O)[N-]c1ccccc1Sc1ccccc1 (3D coordinates assigned)
O=C(Cc1ccccn1)[N-]CC(=O)[N-]c1ccccc1Sc1ccccc1 (optimized conformer: 44.4149783644891 kcal/mol)

>  <smiles>  (15) 
O=C(Cc1ccccn1)NCC(=O)Nc1ccccc1Sc1ccccc1

>  <score_type>  (15) 
oracle

>  <origin>  (15) 
adg

>  <m_score__min__energy>  (15) 
-12.800000000000001

>  <m_primary>  (15) 
energy

$$$$
15:0
     RDKit          3D

 39 41  0  0  0  0  0  0  0  0999 V2000
   53.4670   24.4670   45.4950 C   0  0  0  0  0  0  0  0  0  0  0  0
   54.7680   24.6230   45.2840 C   0  0  0  0  0  0  0  0  0  0  0  0
   55.5830   25.5080   45.9710 O   0  0  0  0  0  0  0  0  0  0  0  0
   56.8840   25.3620   45.4760 C   0  0  0  0  0  0  0  0  0  0  0  0
   58.0410   26.2060   45.9740 C   0  0  2  0  0  0  0  0  0  0  0  0
   57.7380   27.0890   47.1800 C   0  0  0  0  0  0  0  0  0  0  0  0
   58.8080   28.1630   47.1300 C   0  0  0  0  0  0  0  0  0  0  0  0
   59.3790   28.1200   45.7120 C   0  0  0  0  0  0  0  0  0  0  0  0
   58.6660   27.0760   44.9540 N   0  0  0  0  0  0  0  0  0  0  0  0
   57.7710   27.6490   43.9130 C   0  0  0  0  0  0  0  0  0  0  0  0
   57.3850   29.0820   44.1590 C   0  0  0  0  0  0  0  0  0  0  0  0
   58.1010   30.1420   43.7500 N   0  0  0  0  0  0  0  0  0  0  0  0
   57.3510   31.1800   44.1620 C   0  0  0  0  0  0  0  0  0  0  0  0
   57.7050   32.6170   43.9340 C   0  0  0  0  0  0  0  0  0  0  0  0
   58.7290   33.0250   44.8220 O   0  0  0  0  0  0  0  0  0  0  0  0
   58.3620   34.2240   45.4690 C   0  0  0  0  0  0  0  0  0  0  0  0
   56.2430   30.7700   44.8110 N   0  0  0  0  0  0  0  0  0  0  0  0
   56.3000   29.4690   44.7890 O   0  0  0  0  0  0  0  0  0  0  0  0
   56.9380   24.4540   44.4920 C   0  0  0  0  0  0  0  0  0  0  0  0
   55.5960   23.9250   44.3250 C   0  0  0  0  0  0  0  0  0  0  0  0
   55.2340   23.0360   43.5080 O   0  0  0  0  0  0  0  0  0  0  0  0
   52.8969   23.7382   44.9002 H   0  0  0  0  0  0  0  0  0  0  0  0
   52.9589   25.0665   46.2646 H   0  0  0  0  0  0  0  0  0  0  0  0
   58.7424   25.4119   46.2696 H   0  0  0  0  0  0  0  0  0  0  0  0
   56.7350   27.5329   47.0969 H   0  0  0  0  0  0  0  0  0  0  0  0
   57.7462   26.5285   48.1265 H   0  0  0  0  0  0  0  0  0  0  0  0
   58.3690   29.1504   47.3359 H   0  0  0  0  0  0  0  0  0  0  0  0
   59.5889   27.9906   47.8853 H   0  0  0  0  0  0  0  0  0  0  0  0
   59.2364   29.0957   45.2245 H   0  0  0  0  0  0  0  0  0  0  0  0
   60.4551   27.8944   45.7449 H   0  0  0  0  0  0  0  0  0  0  0  0
   58.2871   27.5914   42.9433 H   0  0  0  0  0  0  0  0  0  0  0  0
   56.8415   27.0611   43.9338 H   0  0  0  0  0  0  0  0  0  0  0  0
   59.0090   30.1590   43.2340 H   0  0  0  0  0  0  0  0  0  0  0  0
   58.0531   32.7436   42.8982 H   0  0  0  0  0  0  0  0  0  0  0  0
   56.8128   33.2348   44.1139 H   0  0  0  0  0  0  0  0  0  0  0  0
   58.4058   34.0808   46.5588 H   0  0  0  0  0  0  0  0  0  0  0  0
   59.0558   35.0258   45.1763 H   0  0  0  0  0  0  0  0  0  0  0  0
   57.3382   34.5001   45.1763 H   0  0  0  0  0  0  0  0  0  0  0  0
   57.8308   24.1640   43.9187 H   0  0  0  0  0  0  0  0  0  0  0  0
  1  2  2  0
  2  3  1  0
  3  4  1  0
  4  5  1  0
  5  6  1  0
  6  7  1  0
  7  8  1  0
  8  9  1  0
  9 10  1  0
 10 11  1  0
 11 12  2  0
 12 13  1  0
 13 14  1  0
 14 15  1  0
 15 16  1  0
 13 17  2  0
 17 18  1  0
  4 19  2  0
 19 20  1  0
 20 21  2  0
 20  2  1  0
  9  5  1  0
 18 11  1  0
  1 22  1  0
  1 23  1  0
  5 24  1  1
  6 25  1  0
  6 26  1  0
  7 27  1  0
  7 28  1  0
  8 29  1  0
  8 30  1  0
 10 31  1  0
 10 32  1  0
 12 33  1  0
 14 34  1  0
 14 35  1  0
 16 36  1  0
 16 37  1  0
 16 38  1  0
 19 39  1  0
M  CHG  1  12   1
M  END
>  <UniqueID>  (16) 
14

>  <SMILES>  (16) 
C=C1OC([C@@H]2CCCN2Cc2[nH+]c(COC)no2)=CC1=O

>  <Energy>  (16) 
108.99510365726111

>  <Genealogy>  (16) 
C=C1OC(C2CCCN2Cc2[nH+]c(COC)no2)=CC1=O (protonated)
C=C1OC([C@@H]2CCCN2Cc2[nH+]c(COC)no2)=CC1=O (chirality)
C=C1OC([C@@H]2CCCN2Cc2[nH+]c(COC)no2)=CC1=O (3D coordinates assigned)
C=C1OC([C@@H]2CCCN2Cc2[nH+]c(COC)no2)=CC1=O (nonaromatic ring conformer: 108.99510365726111 kcal/mol)

>  <smiles>  (16) 
C=C1OC(C2CCCN2Cc2nc(COC)no2)=CC1=O

>  <score_type>  (16) 
oracle

>  <origin>  (16) 
adg

>  <m_score__min__energy>  (16) 
-6.0300000000000002

>  <m_primary>  (16) 
energy

$$$$
16:0
     RDKit          3D

 46 49  0  0  0  0  0  0  0  0999 V2000
   57.0050   34.2000   45.9760 O   0  0  0  0  0  0  0  0  0  0  0  0
   57.9380   33.5750   45.4070 C   0  0  0  0  0  0  0  0  0  0  0  0
   59.2930   33.8780   45.7670 N   0  0  0  0  0  0  0  0  0  0  0  0
   59.7950   33.7990   46.9650 C   0  0  0  0  0  0  0  0  0  0  0  0
   61.0740   34.1420   47.2300 N   0  0  0  0  0  0  0  0  0  0  0  0
   61.3670   34.0170   48.5510 C   0  0  0  0  0  0  0  0  0  0  0  0
   60.3120   33.5710   49.3420 C   0  0  0  0  0  0  0  0  0  0  0  0
   60.3370   33.4030   50.8270 C   0  0  0  0  0  0  0  0  0  0  0  0
   59.1280   32.6480   51.2800 C   0  0  0  0  0  0  0  0  0  0  0  0
   58.7900   31.0420   50.9000 S   0  0  0  0  0  0  0  0  0  0  0  0
   57.4030   31.0240   51.8480 C   0  0  0  0  0  0  0  0  0  0  0  0
   56.6500   30.0270   51.9840 O   0  0  0  0  0  0  0  0  0  0  0  0
   57.1820   32.2010   52.4690 N   0  0  0  0  0  0  0  0  0  0  0  0
   58.1500   33.1060   52.1590 C   0  0  0  0  0  0  0  0  0  0  0  0
   58.1540   34.3910   52.6910 O   0  0  0  0  0  0  0  0  0  0  0  0
   58.9600   33.3510   48.3640 S   0  0  0  0  0  0  0  0  0  0  0  0
   57.6040   32.5870   44.3590 C   0  0  0  0  0  0  0  0  0  0  0  0
   58.0990   32.7140   43.0520 C   0  0  0  0  0  0  0  0  0  0  0  0
   57.7560   31.7580   42.0940 C   0  0  0  0  0  0  0  0  0  0  0  0
   56.9290   30.6890   42.4410 C   0  0  0  0  0  0  0  0  0  0  0  0
   56.4530   30.5870   43.7560 C   0  0  0  0  0  0  0  0  0  0  0  0
   55.5650   29.4860   44.1660 C   0  0  0  0  0  0  0  0  0  0  0  0
   54.4640   29.3410   43.5740 O   0  0  0  0  0  0  0  0  0  0  0  0
   55.8870   28.6080   45.2520 N   0  0  0  0  0  0  0  0  0  0  0  0
   57.0510   27.7310   45.3010 C   0  0  0  0  0  0  0  0  0  0  0  0
   58.2580   28.5310   45.6890 C   0  0  0  0  0  0  0  0  0  0  0  0
   58.2160   29.3880   46.8030 C   0  0  0  0  0  0  0  0  0  0  0  0
   59.3320   30.1610   47.1390 C   0  0  0  0  0  0  0  0  0  0  0  0
   60.4910   30.0930   46.3610 C   0  0  0  0  0  0  0  0  0  0  0  0
   60.5350   29.2560   45.2430 C   0  0  0  0  0  0  0  0  0  0  0  0
   59.4220   28.4810   44.9040 C   0  0  0  0  0  0  0  0  0  0  0  0
   56.7860   31.5430   44.6660 N   0  0  0  0  0  0  0  0  0  0  0  0
   62.3600   34.2500   48.9629 H   0  0  0  0  0  0  0  0  0  0  0  0
   61.2417   32.8475   51.1150 H   0  0  0  0  0  0  0  0  0  0  0  0
   60.3399   34.3955   51.3013 H   0  0  0  0  0  0  0  0  0  0  0  0
   58.1320   35.2010   52.0850 H   0  0  0  0  0  0  0  0  0  0  0  0
   58.7510   33.5587   42.7848 H   0  0  0  0  0  0  0  0  0  0  0  0
   58.1375   31.8475   41.0662 H   0  0  0  0  0  0  0  0  0  0  0  0
   56.6532   29.9337   41.6903 H   0  0  0  0  0  0  0  0  0  0  0  0
   56.8820   26.9372   46.0435 H   0  0  0  0  0  0  0  0  0  0  0  0
   57.2121   27.2769   44.3122 H   0  0  0  0  0  0  0  0  0  0  0  0
   57.3023   29.4506   47.4123 H   0  0  0  0  0  0  0  0  0  0  0  0
   59.2975   30.8233   48.0166 H   0  0  0  0  0  0  0  0  0  0  0  0
   61.3692   30.6988   46.6290 H   0  0  0  0  0  0  0  0  0  0  0  0
   61.4464   29.2068   44.6290 H   0  0  0  0  0  0  0  0  0  0  0  0
   59.4578   27.8291   44.0187 H   0  0  0  0  0  0  0  0  0  0  0  0
  1  2  2  0
  2  3  1  0
  3  4  2  3
  4  5  1  0
  5  6  1  0
  6  7  2  0
  7  8  1  0
  8  9  1  0
  9 10  1  0
 10 11  1  0
 11 12  2  0
 11 13  1  0
 13 14  1  0
 14 15  1  0
  7 16  1  0
  2 17  1  0
 17 18  2  0
 18 19  1  0
 19 20  2  0
 20 21  1  0
 21 22  1  0
 22 23  2  0
 22 24  1  0
 24 25  1  0
 25 26  1  0
 26 27  2  0
 27 28  1  0
 28 29  2  0
 29 30  1  0
 30 31  2  0
 21 32  2  0
 16  4  1  0
 32 17  1  0
 14  9  2  0
 31 26  1  0
  6 33  1  0
  8 34  1  0
  8 35  1  0
 15 36  1  0
 18 37  1  0
 19 38  1  0
 20 39  1  0
 25 40  1  0
 25 41  1  0
 27 42  1  0
 28 43  1  0
 29 44  1  0
 30 45  1  0
 31 46  1  0
M  CHG  3   5  -1  13  -1  24  -1
M  END
>  <UniqueID>  (17) 
15

>  <SMILES>  (17) 
O=C(N=c1[n-]cc(Cc2sc(=O)[n-]c2O)s1)c1cccc(C(=O)[N-]Cc2ccccc2)n1

>  <Energy>  (17) 
119.70601859860284

>  <Genealogy>  (17) 
O=C(N=c1[n-]cc(Cc2sc(=O)[n-]c2O)s1)c1cccc(C(=O)[N-]Cc2ccccc2)n1 (protonated)
O=C(N=c1[n-]cc(Cc2sc(=O)[n-]c2O)s1)c1cccc(C(=O)[N-]Cc2ccccc2)n1 (3D coordinates assigned)
O=C(N=c1[n-]cc(Cc2sc(=O)[n-]c2O)s1)c1cccc(C(=O)[N-]Cc2ccccc2)n1 (optimized conformer: 119.70601859860284 kcal/mol)

>  <smiles>  (17) 
O=C(N=c1[nH]cc(Cc2sc(=O)[nH]c2O)s1)c1cccc(C(=O)NCc2ccccc2)n1

>  <score_type>  (17) 
oracle

>  <origin>  (17) 
adg

>  <m_score__min__energy>  (17) 
-14.720000000000001

>  <m_primary>  (17) 
energy

$$$$
17:0
     RDKit          3D

 62 65  0  0  0  0  0  0  0  0999 V2000
   52.5440   24.0880   44.8550 C   0  0  0  0  0  0  0  0  0  0  0  0
   52.0890   22.7450   46.0040 S   0  0  0  0  0  0  0  0  0  0  0  0
   53.7940   22.1480   46.2950 C   0  0  0  0  0  0  0  0  0  0  0  0
   54.4780   22.9680   47.3840 C   0  0  0  0  0  0  0  0  0  0  0  0
   55.1520   24.1150   46.7800 N   0  0  0  0  0  0  0  0  0  0  0  0
   56.5070   24.1500   46.3040 C   0  0  0  0  0  0  0  0  0  0  0  0
   57.4080   24.4390   47.1390 O   0  0  0  0  0  0  0  0  0  0  0  0
   56.8920   23.8670   44.8480 C   0  0  0  0  0  0  0  0  0  0  0  0
   57.4860   25.1210   44.1990 C   0  0  0  0  0  0  0  0  0  0  0  0
   57.5800   25.1810   42.9430 O   0  0  0  0  0  0  0  0  0  0  0  0
   58.0340   26.1760   44.9960 N   0  0  0  0  0  0  0  0  0  0  0  0
   57.0620   27.3920   45.7540 S   0  0  0  0  0  0  0  0  0  0  0  0
   57.3990   27.4510   47.2170 O   0  0  0  0  0  0  0  0  0  0  0  0
   55.6180   26.9940   45.6320 O   0  0  0  0  0  0  0  0  0  0  0  0
   57.2800   28.9390   44.9050 C   0  0  0  0  0  0  0  0  0  0  0  0
   56.1160   29.5220   44.3750 C   0  0  0  0  0  0  0  0  0  0  0  0
   56.1580   30.7580   43.7370 C   0  0  0  0  0  0  0  0  0  0  0  0
   57.3620   31.4480   43.6370 C   0  0  0  0  0  0  0  0  0  0  0  0
   58.5320   30.8940   44.1540 C   0  0  0  0  0  0  0  0  0  0  0  0
   58.5280   29.6160   44.7620 C   0  0  0  0  0  0  0  0  0  0  0  0
   59.8170   29.0030   45.2870 C   0  0  0  0  0  0  0  0  0  0  0  0
   60.1990   29.4070   46.6870 C   0  0  0  0  0  0  0  0  0  0  0  0
   60.4850   30.7000   47.1160 C   0  0  0  0  0  0  0  0  0  0  0  0
   60.7700   30.7080   48.4380 N   0  0  0  0  0  0  0  0  0  0  0  0
   60.6710   29.4310   48.8480 C   0  0  0  0  0  0  0  0  0  0  0  0
   60.8980   28.9430   50.1320 C   0  0  0  0  0  0  0  0  0  0  0  0
   60.7680   27.5590   50.3440 C   0  0  0  0  0  0  0  0  0  0  0  0
   60.4130   26.7010   49.2800 C   0  0  0  0  0  0  0  0  0  0  0  0
   60.1840   27.2220   47.9900 C   0  0  0  0  0  0  0  0  0  0  0  0
   59.8440   26.3850   46.9290 O   0  0  0  0  0  0  0  0  0  0  0  0
   60.3220   28.6020   47.8090 C   0  0  0  0  0  0  0  0  0  0  0  0
   55.6800   23.4500   43.9930 C   0  0  0  0  0  0  0  0  0  0  0  0
   56.2350   22.5250   42.9220 C   0  0  0  0  0  0  0  0  0  0  0  0
   57.4700   21.8620   43.5210 C   0  0  0  0  0  0  0  0  0  0  0  0
   57.8690   22.6710   44.7560 C   0  0  0  0  0  0  0  0  0  0  0  0
   52.8449   24.9762   45.4299 H   0  0  0  0  0  0  0  0  0  0  0  0
   53.3813   23.7604   44.2213 H   0  0  0  0  0  0  0  0  0  0  0  0
   51.6800   24.3368   44.2213 H   0  0  0  0  0  0  0  0  0  0  0  0
   53.7584   21.0936   46.6066 H   0  0  0  0  0  0  0  0  0  0  0  0
   54.3678   22.2532   45.3624 H   0  0  0  0  0  0  0  0  0  0  0  0
   53.7251   23.3224   48.1034 H   0  0  0  0  0  0  0  0  0  0  0  0
   55.2169   22.3414   47.9048 H   0  0  0  0  0  0  0  0  0  0  0  0
   55.1561   28.9925   44.4660 H   0  0  0  0  0  0  0  0  0  0  0  0
   55.2397   31.1893   43.3119 H   0  0  0  0  0  0  0  0  0  0  0  0
   57.3907   32.4333   43.1487 H   0  0  0  0  0  0  0  0  0  0  0  0
   59.4734   31.4592   44.0884 H   0  0  0  0  0  0  0  0  0  0  0  0
   59.7054   27.9088   45.2676 H   0  0  0  0  0  0  0  0  0  0  0  0
   60.6193   29.3761   44.6334 H   0  0  0  0  0  0  0  0  0  0  0  0
   60.4799   31.5905   46.4702 H   0  0  0  0  0  0  0  0  0  0  0  0
   61.0250   31.5390   49.0180 H   0  0  0  0  0  0  0  0  0  0  0  0
   61.1707   29.6194   50.9555 H   0  0  0  0  0  0  0  0  0  0  0  0
   60.9442   27.1415   51.3463 H   0  0  0  0  0  0  0  0  0  0  0  0
   60.3146   25.6201   49.4586 H   0  0  0  0  0  0  0  0  0  0  0  0
   58.8900   26.0710   46.7870 H   0  0  0  0  0  0  0  0  0  0  0  0
   54.9382   22.9217   44.6100 H   0  0  0  0  0  0  0  0  0  0  0  0
   55.1715   24.3215   43.5549 H   0  0  0  0  0  0  0  0  0  0  0  0
   55.4879   21.7639   42.6527 H   0  0  0  0  0  0  0  0  0  0  0  0
   56.4863   23.0813   42.0069 H   0  0  0  0  0  0  0  0  0  0  0  0
   57.2384   20.8259   43.8088 H   0  0  0  0  0  0  0  0  0  0  0  0
   58.2915   21.8382   42.7899 H   0  0  0  0  0  0  0  0  0  0  0  0
   57.7886   22.0472   45.6585 H   0  0  0  0  0  0  0  0  0  0  0  0
   58.9096   23.0191   44.6780 H   0  0  0  0  0  0  0  0  0  0  0  0
  1  2  1  0
  2  3  1  0
  3  4  1  0
  4  5  1  0
  5  6  1  0
  6  7  2  0
  6  8  1  0
  8  9  1  0
  9 10  2  0
  9 11  1  0
 11 12  1  0
 12 13  2  0
 12 14  2  0
 12 15  1  0
 15 16  2  0
 16 17  1  0
 17 18  2  0
 18 19  1  0
 19 20  2  0
 20 21  1  0
 21 22  1  0
 22 23  2  0
 23 24  1  0
 24 25  1  0
 25 26  2  0
 26 27  1  0
 27 28  2  0
 28 29  1  0
 29 30  1  0
 29 31  2  0
  8 32  1  0
 32 33  1  0
 33 34  1  0
 34 35  1  0
 35  8  1  0
 20 15  1  0
 31 22  1  0
 31 25  1  0
  1 36  1  0
  1 37  1  0
  1 38  1  0
  3 39  1  0
  3 40  1  0
  4 41  1  0
  4 42  1  0
 16 43  1  0
 17 44  1  0
 18 45  1  0
 19 46  1  0
 21 47  1  0
 21 48  1  0
 23 49  1  0
 24 50  1  0
 26 51  1  0
 27 52  1  0
 28 53  1  0
 30 54  1  0
 32 55  1  0
 32 56  1  0
 33 57  1  0
 33 58  1  0
 34 59  1  0
 34 60  1  0
 35 61  1  0
 35 62  1  0
M  CHG  2   5  -1  11  -1
M  END
>  <UniqueID>  (18) 
16

>  <SMILES>  (18) 
CSCC[N-]C(=O)C1(C(=O)[N-]S(=O)(=O)c2ccccc2Cc2c[nH]c3cccc(O)c23)CCCC1

>  <Energy>  (18) 
110.23787675546774

>  <Genealogy>  (18) 
CSCC[N-]C(=O)C1(C(=O)[N-]S(=O)(=O)c2ccccc2Cc2c[nH]c3cccc(O)c23)CCCC1 (protonated)
CSCC[N-]C(=O)C1(C(=O)[N-]S(=O)(=O)c2ccccc2Cc2c[nH]c3cccc(O)c23)CCCC1 (3D coordinates assigned)
CSCC[N-]C(=O)C1(C(=O)[N-]S(=O)(=O)c2ccccc2Cc2c[nH]c3cccc(O)c23)CCCC1 (nonaromatic ring conformer: 110.23787675546774 kcal/mol)

>  <smiles>  (18) 
CSCCNC(=O)C1(C(=O)NS(=O)(=O)c2ccccc2Cc2c[nH]c3cccc(O)c23)CCCC1

>  <score_type>  (18) 
oracle

>  <origin>  (18) 
adg

>  <m_score__min__energy>  (18) 
-13.130000000000001

>  <m_primary>  (18) 
energy

$$$$
18:0
     RDKit          3D

 42 43  0  0  0  0  0  0  0  0999 V2000
   66.8300   33.1010   50.4490 C   0  0  0  0  0  0  0  0  0  0  0  0
   65.4620   32.6870   49.9100 C   0  0  0  0  0  0  0  0  0  0  0  0
   64.3100   33.4050   50.6260 C   0  0  0  0  0  0  0  0  0  0  0  0
   63.0970   33.5150   49.7550 C   0  0  0  0  0  0  0  0  0  0  0  0
   63.1510   33.5850   48.4080 N   0  0  0  0  0  0  0  0  0  0  0  0
   61.9140   33.7220   47.8590 C   0  0  0  0  0  0  0  0  0  0  0  0
   61.7220   33.8690   46.3790 C   0  0  0  0  0  0  0  0  0  0  0  0
   60.3220   34.3220   46.0530 C   0  0  0  0  0  0  0  0  0  0  0  0
   60.0460   35.5520   46.1070 O   0  0  0  0  0  0  0  0  0  0  0  0
   59.2820   33.3760   45.7310 N   0  0  0  0  0  0  0  0  0  0  0  0
   58.0810   33.8330   45.0230 C   0  0  0  0  0  0  0  0  0  0  0  0
   57.4240   32.6610   44.2890 C   0  0  0  0  0  0  0  0  0  0  0  0
   57.0610   31.5630   45.2120 N   0  0  0  0  0  0  0  0  0  0  0  0
   56.8430   30.0780   44.3160 S   0  0  0  0  0  0  0  0  0  0  0  0
   58.2790   29.0340   44.4790 C   0  0  0  0  0  0  0  0  0  0  0  0
   56.6520   30.3950   42.8600 O   0  0  0  0  0  0  0  0  0  0  0  0
   55.6360   29.3420   44.8260 O   0  0  0  0  0  0  0  0  0  0  0  0
   57.9980   31.3650   46.3450 C   0  0  0  0  0  0  0  0  0  0  0  0
   59.3930   31.9590   46.1010 C   0  0  0  0  0  0  0  0  0  0  0  0
   60.8640   33.7860   48.7720 C   0  0  0  0  0  0  0  0  0  0  0  0
   61.5180   33.6490   50.3150 S   0  0  0  0  0  0  0  0  0  0  0  0
   66.8081   33.0944   51.5488 H   0  0  0  0  0  0  0  0  0  0  0  0
   67.5937   32.3937   50.0932 H   0  0  0  0  0  0  0  0  0  0  0  0
   67.0734   34.1130   50.0932 H   0  0  0  0  0  0  0  0  0  0  0  0
   65.4168   32.9284   48.8378 H   0  0  0  0  0  0  0  0  0  0  0  0
   65.3450   31.6073   50.0850 H   0  0  0  0  0  0  0  0  0  0  0  0
   64.0473   32.8405   51.5328 H   0  0  0  0  0  0  0  0  0  0  0  0
   64.6444   34.4225   50.8770 H   0  0  0  0  0  0  0  0  0  0  0  0
   62.4376   34.6117   45.9964 H   0  0  0  0  0  0  0  0  0  0  0  0
   61.8898   32.8896   45.9072 H   0  0  0  0  0  0  0  0  0  0  0  0
   57.3688   34.2529   45.7486 H   0  0  0  0  0  0  0  0  0  0  0  0
   58.3663   34.6020   44.2900 H   0  0  0  0  0  0  0  0  0  0  0  0
   56.5126   33.0209   43.7892 H   0  0  0  0  0  0  0  0  0  0  0  0
   58.1480   32.2673   43.5604 H   0  0  0  0  0  0  0  0  0  0  0  0
   58.4976   28.8750   45.5453 H   0  0  0  0  0  0  0  0  0  0  0  0
   58.0845   28.0650   43.9961 H   0  0  0  0  0  0  0  0  0  0  0  0
   59.1408   29.5179   43.9961 H   0  0  0  0  0  0  0  0  0  0  0  0
   57.5686   31.8416   47.2386 H   0  0  0  0  0  0  0  0  0  0  0  0
   58.1272   30.2798   46.4705 H   0  0  0  0  0  0  0  0  0  0  0  0
   59.9922   31.8688   47.0190 H   0  0  0  0  0  0  0  0  0  0  0  0
   59.8789   31.4103   45.2807 H   0  0  0  0  0  0  0  0  0  0  0  0
   59.7981   33.9048   48.5275 H   0  0  0  0  0  0  0  0  0  0  0  0
  1  2  1  0
  2  3  1  0
  3  4  1  0
  4  5  2  0
  5  6  1  0
  6  7  1  0
  7  8  1  0
  8  9  2  0
  8 10  1  0
 10 11  1  0
 11 12  1  0
 12 13  1  0
 13 14  1  0
 14 15  1  0
 14 16  2  0
 14 17  2  0
 13 18  1  0
 18 19  1  0
  6 20  2  0
 20 21  1  0
 21  4  1  0
 19 10  1  0
  1 22  1  0
  1 23  1  0
  1 24  1  0
  2 25  1  0
  2 26  1  0
  3 27  1  0
  3 28  1  0
  7 29  1  0
  7 30  1  0
 11 31  1  0
 11 32  1  0
 12 33  1  0
 12 34  1  0
 15 35  1  0
 15 36  1  0
 15 37  1  0
 18 38  1  0
 18 39  1  0
 19 40  1  0
 19 41  1  0
 20 42  1  0
M  END
>  <UniqueID>  (19) 
17

>  <SMILES>  (19) 
CCCc1nc(CC(=O)N2CCN(S(C)(=O)=O)CC2)cs1

>  <Energy>  (19) 
64.31818850736869

>  <Genealogy>  (19) 
CCCc1nc(CC(=O)N2CCN(S(C)(=O)=O)CC2)cs1 (3D coordinates assigned)
CCCc1nc(CC(=O)N2CCN(S(C)(=O)=O)CC2)cs1 (nonaromatic ring conformer: 64.31818850736869 kcal/mol)

>  <smiles>  (19) 
CCCc1nc(CC(=O)N2CCN(S(C)(=O)=O)CC2)cs1

>  <score_type>  (19) 
oracle

>  <origin>  (19) 
adg

>  <m_score__min__energy>  (19) 
-7.54

>  <m_primary>  (19) 
energy

$$$$
19:0
     RDKit          3D

 54 57  0  0  0  0  0  0  0  0999 V2000
   59.2220   34.7950   45.0450 C   0  0  0  0  0  0  0  0  0  0  0  0
   58.6230   33.4590   44.7240 C   0  0  0  0  0  0  0  0  0  0  0  0
   58.3940   33.0950   43.3910 C   0  0  0  0  0  0  0  0  0  0  0  0
   57.7810   31.8740   43.0930 C   0  0  0  0  0  0  0  0  0  0  0  0
   57.3840   31.0120   44.1240 C   0  0  0  0  0  0  0  0  0  0  0  0
   56.5210   29.5280   43.7270 S   0  0  0  0  0  0  0  0  0  0  0  0
   55.2520   29.4810   44.5400 O   0  0  0  0  0  0  0  0  0  0  0  0
   56.1740   29.4780   42.2590 O   0  0  0  0  0  0  0  0  0  0  0  0
   57.5150   28.1640   44.1340 N   0  0  0  0  0  0  0  0  0  0  0  0
   58.3320   28.0920   45.3110 C   0  0  0  0  0  0  0  0  0  0  0  0
   59.6650   28.5370   45.3160 C   0  0  0  0  0  0  0  0  0  0  0  0
   60.4010   28.5550   46.5060 C   0  0  0  0  0  0  0  0  0  0  0  0
   59.8160   28.1240   47.7070 C   0  0  0  0  0  0  0  0  0  0  0  0
   60.5670   28.2270   48.9800 C   0  0  0  0  0  0  0  0  0  0  0  0
   60.9300   27.1770   49.5730 O   0  0  0  0  0  0  0  0  0  0  0  0
   60.9370   29.5060   49.5230 N   0  0  0  0  0  0  0  0  0  0  0  0
   61.6600   30.4570   48.6610 C   0  0  0  0  0  0  0  0  0  0  0  0
   62.2460   31.6050   49.4790 C   0  0  0  0  0  0  0  0  0  0  0  0
   61.2170   32.1170   50.3960 N   0  0  0  0  0  0  0  0  0  0  0  0
   60.7640   33.4860   50.3450 C   0  0  0  0  0  0  0  0  0  0  0  0
   60.1910   33.9880   51.3520 O   0  0  0  0  0  0  0  0  0  0  0  0
   60.9270   34.3080   49.0890 C   0  0  0  0  0  0  0  0  0  0  0  0
   60.6500   33.6180   47.7500 C   0  0  0  0  0  0  0  0  0  0  0  0
   59.6190   34.5720   48.3480 C   0  0  0  0  0  0  0  0  0  0  0  0
   60.5300   31.1790   51.2910 C   0  0  0  0  0  0  0  0  0  0  0  0
   60.8820   29.7150   50.9740 C   0  0  0  0  0  0  0  0  0  0  0  0
   58.5090   27.6070   47.6820 C   0  0  0  0  0  0  0  0  0  0  0  0
   57.7740   27.5920   46.4910 C   0  0  0  0  0  0  0  0  0  0  0  0
   57.5990   31.3760   45.4610 C   0  0  0  0  0  0  0  0  0  0  0  0
   58.2080   32.5970   45.7610 C   0  0  0  0  0  0  0  0  0  0  0  0
   59.2777   34.9191   46.1366 H   0  0  0  0  0  0  0  0  0  0  0  0
   60.2335   34.8557   44.6170 H   0  0  0  0  0  0  0  0  0  0  0  0
   58.5944   35.5906   44.6170 H   0  0  0  0  0  0  0  0  0  0  0  0
   58.6968   33.7706   42.5774 H   0  0  0  0  0  0  0  0  0  0  0  0
   57.6097   31.5889   42.0445 H   0  0  0  0  0  0  0  0  0  0  0  0
   60.1326   28.8732   44.3788 H   0  0  0  0  0  0  0  0  0  0  0  0
   61.4426   28.9085   46.5003 H   0  0  0  0  0  0  0  0  0  0  0  0
   62.4768   29.9278   48.1483 H   0  0  0  0  0  0  0  0  0  0  0  0
   60.9513   30.8748   47.9308 H   0  0  0  0  0  0  0  0  0  0  0  0
   63.1079   31.2421   50.0582 H   0  0  0  0  0  0  0  0  0  0  0  0
   62.5752   32.4097   48.8052 H   0  0  0  0  0  0  0  0  0  0  0  0
   61.7641   34.9085   49.4747 H   0  0  0  0  0  0  0  0  0  0  0  0
   61.2152   33.9106   46.8528 H   0  0  0  0  0  0  0  0  0  0  0  0
   60.6349   32.5753   47.3999 H   0  0  0  0  0  0  0  0  0  0  0  0
   59.4406   35.5515   47.8803 H   0  0  0  0  0  0  0  0  0  0  0  0
   58.5521   34.4999   48.6061 H   0  0  0  0  0  0  0  0  0  0  0  0
   60.8240   31.3981   52.3281 H   0  0  0  0  0  0  0  0  0  0  0  0
   59.4467   31.3059   51.1485 H   0  0  0  0  0  0  0  0  0  0  0  0
   61.8618   29.4745   51.4124 H   0  0  0  0  0  0  0  0  0  0  0  0
   60.1070   29.0609   51.4001 H   0  0  0  0  0  0  0  0  0  0  0  0
   58.0606   27.2113   48.6053 H   0  0  0  0  0  0  0  0  0  0  0  0
   56.7522   27.1847   46.4835 H   0  0  0  0  0  0  0  0  0  0  0  0
   57.2886   30.7012   46.2724 H   0  0  0  0  0  0  0  0  0  0  0  0
   58.3646   32.8876   46.8103 H   0  0  0  0  0  0  0  0  0  0  0  0
  1  2  1  0
  2  3  2  0
  3  4  1  0
  4  5  2  0
  5  6  1  0
  6  7  2  0
  6  8  2  0
  6  9  1  0
  9 10  1  0
 10 11  2  0
 11 12  1  0
 12 13  2  0
 13 14  1  0
 14 15  2  0
 14 16  1  0
 16 17  1  0
 17 18  1  0
 18 19  1  0
 19 20  1  0
 20 21  2  0
 20 22  1  0
 22 23  1  0
 23 24  1  0
 19 25  1  0
 25 26  1  0
 13 27  1  0
 27 28  2  0
  5 29  1  0
 29 30  2  0
 30  2  1  0
 28 10  1  0
 26 16  1  0
 24 22  1  0
  1 31  1  0
  1 32  1  0
  1 33  1  0
  3 34  1  0
  4 35  1  0
 11 36  1  0
 12 37  1  0
 17 38  1  0
 17 39  1  0
 18 40  1  0
 18 41  1  0
 22 42  1  0
 23 43  1  0
 23 44  1  0
 24 45  1  0
 24 46  1  0
 25 47  1  0
 25 48  1  0
 26 49  1  0
 26 50  1  0
 27 51  1  0
 28 52  1  0
 29 53  1  0
 30 54  1  0
M  CHG  1   9  -1
M  END
>  <UniqueID>  (20) 
18

>  <SMILES>  (20) 
Cc1ccc(S(=O)(=O)[N-]c2ccc(C(=O)N3CCN(C(=O)C4CC4)CC3)cc2)cc1

>  <Energy>  (20) 
331.15501696088864

>  <Genealogy>  (20) 
Cc1ccc(S(=O)(=O)[N-]c2ccc(C(=O)N3CCN(C(=O)C4CC4)CC3)cc2)cc1 (protonated)
Cc1ccc(S(=O)(=O)[N-]c2ccc(C(=O)N3CCN(C(=O)C4CC4)CC3)cc2)cc1 (3D coordinates assigned)
Cc1ccc(S(=O)(=O)[N-]c2ccc(C(=O)N3CCN(C(=O)C4CC4)CC3)cc2)cc1 (nonaromatic ring conformer: 331.15501696088864 kcal/mol)

>  <smiles>  (20) 
Cc1ccc(S(=O)(=O)Nc2ccc(C(=O)N3CCN(C(=O)C4CC4)CC3)cc2)cc1

>  <score_type>  (20) 
oracle

>  <origin>  (20) 
adg

>  <m_score__min__energy>  (20) 
-10.74

>  <m_primary>  (20) 
energy

$$$$
20:0
     RDKit          3D

 35 36  0  0  0  0  0  0  0  0999 V2000
   55.6490   30.3770   43.9160 C   0  0  0  0  0  0  0  0  0  0  0  0
   56.4400   29.6330   44.6870 C   0  0  0  0  0  0  0  0  0  0  0  0
   57.7370   29.9430   45.0310 C   0  0  0  0  0  0  0  0  0  0  0  0
   58.2090   28.9050   45.8340 C   0  0  0  0  0  0  0  0  0  0  0  0
   59.6180   28.8350   46.4520 C   0  0  0  0  0  0  0  0  0  0  0  0
   59.5430   28.5110   47.9650 C   0  0  0  0  0  0  0  0  0  0  0  0
   60.3330   30.1970   46.3110 C   0  0  0  0  0  0  0  0  0  0  0  0
   60.4450   27.7130   45.7870 C   0  0  0  0  0  0  0  0  0  0  0  0
   57.1320   28.0010   45.9360 C   0  0  0  0  0  0  0  0  0  0  0  0
   57.1160   26.8230   46.5910 C   0  0  0  0  0  0  0  0  0  0  0  0
   56.6790   25.5520   45.9710 C   0  0  0  0  0  0  0  0  0  0  0  0
   55.3270   25.3530   45.6560 C   0  0  0  0  0  0  0  0  0  0  0  0
   54.3830   26.3290   45.9580 O   0  0  0  0  0  0  0  0  0  0  0  0
   54.9300   24.1980   45.0590 N   0  0  0  0  0  0  0  0  0  0  0  0
   55.8310   23.2280   44.7460 C   0  0  0  0  0  0  0  0  0  0  0  0
   55.4480   22.1600   44.1990 O   0  0  0  0  0  0  0  0  0  0  0  0
   57.1480   23.4100   45.0190 N   0  0  0  0  0  0  0  0  0  0  0  0
   57.5930   24.5470   45.6110 C   0  0  0  0  0  0  0  0  0  0  0  0
   58.8280   24.6930   45.8180 O   0  0  0  0  0  0  0  0  0  0  0  0
   56.0730   28.4620   45.2310 N   0  0  0  0  0  0  0  0  0  0  0  0
   54.6237   30.0443   43.6968 H   0  0  0  0  0  0  0  0  0  0  0  0
   56.0210   31.3242   43.4984 H   0  0  0  0  0  0  0  0  0  0  0  0
   58.2959   30.8410   44.7290 H   0  0  0  0  0  0  0  0  0  0  0  0
   59.7537   29.4211   48.5458 H   0  0  0  0  0  0  0  0  0  0  0  0
   58.5360   28.1435   48.2118 H   0  0  0  0  0  0  0  0  0  0  0  0
   60.2860   27.7384   48.2118 H   0  0  0  0  0  0  0  0  0  0  0  0
   60.5467   30.6041   47.3103 H   0  0  0  0  0  0  0  0  0  0  0  0
   61.2759   30.0609   45.7612 H   0  0  0  0  0  0  0  0  0  0  0  0
   59.6855   30.8959   45.7612 H   0  0  0  0  0  0  0  0  0  0  0  0
   60.9063   27.0871   46.5651 H   0  0  0  0  0  0  0  0  0  0  0  0
   59.7859   27.0935   45.1611 H   0  0  0  0  0  0  0  0  0  0  0  0
   61.2318   28.1592   45.1611 H   0  0  0  0  0  0  0  0  0  0  0  0
   57.4447   26.8053   47.6406 H   0  0  0  0  0  0  0  0  0  0  0  0
   53.9180   24.0550   44.8380 H   0  0  0  0  0  0  0  0  0  0  0  0
   55.1480   27.9950   45.0920 H   0  0  0  0  0  0  0  0  0  0  0  0
  1  2  2  0
  2  3  1  0
  3  4  2  0
  4  5  1  0
  5  6  1  0
  5  7  1  0
  5  8  1  0
  4  9  1  0
  9 10  2  3
 10 11  1  0
 11 12  2  0
 12 13  1  0
 12 14  1  0
 14 15  1  0
 15 16  2  0
 15 17  1  0
 17 18  1  0
 18 19  2  0
  9 20  1  0
 20  2  1  0
 18 11  1  0
  1 21  1  0
  1 22  1  0
  3 23  1  0
  6 24  1  0
  6 25  1  0
  6 26  1  0
  7 27  1  0
  7 28  1  0
  7 29  1  0
  8 30  1  0
  8 31  1  0
  8 32  1  0
 10 33  1  0
 14 34  1  0
 20 35  1  0
M  CHG  2  13  -1  17  -1
M  END
>  <UniqueID>  (21) 
19

>  <SMILES>  (21) 
C=c1cc(C(C)(C)C)c(=Cc2c([O-])[nH]c(=O)[n-]c2=O)[nH]1

>  <Energy>  (21) 
71.56185269205284

>  <Genealogy>  (21) 
C=c1cc(C(C)(C)C)c(=Cc2c([O-])[nH]c(=O)[n-]c2=O)[nH]1 (protonated)
C=c1cc(C(C)(C)C)c(=Cc2c([O-])[nH]c(=O)[n-]c2=O)[nH]1 (3D coordinates assigned)
C=c1cc(C(C)(C)C)c(=Cc2c([O-])[nH]c(=O)[n-]c2=O)[nH]1 (optimized conformer: 71.56185269205284 kcal/mol)

>  <smiles>  (21) 
C=c1cc(C(C)(C)C)c(=Cc2c(O)[nH]c(=O)[nH]c2=O)[nH]1

>  <score_type>  (21) 
oracle

>  <origin>  (21) 
adg

>  <m_score__min__energy>  (21) 
-12.69

>  <m_primary>  (21) 
energy

$$$$
21:0
     RDKit          3D

 69 72  0  0  0  0  0  0  0  0999 V2000
   57.6260   31.4110   43.5710 O   0  0  0  0  0  0  0  0  0  0  0  0
   57.9460   30.5050   44.3890 C   0  0  0  0  0  0  0  0  0  0  0  0
   58.9110   30.7660   45.4160 N   0  0  0  0  0  0  0  0  0  0  0  0
   58.6920   30.4920   46.8360 C   0  0  2  0  0  0  0  0  0  0  0  0
   58.4480   31.7950   47.6150 C   0  0  0  0  0  0  0  0  0  0  0  0
   58.7540   33.0100   46.7740 C   0  0  0  0  0  0  0  0  0  0  0  0
   57.8480   33.4520   45.7970 C   0  0  0  0  0  0  0  0  0  0  0  0
   58.1200   34.6030   45.0490 C   0  0  0  0  0  0  0  0  0  0  0  0
   59.2890   35.3300   45.2800 C   0  0  0  0  0  0  0  0  0  0  0  0
   60.1930   34.9010   46.2550 C   0  0  0  0  0  0  0  0  0  0  0  0
   59.9320   33.7420   46.9950 C   0  0  0  0  0  0  0  0  0  0  0  0
   59.8950   29.7720   47.4010 C   0  0  0  0  0  0  0  0  0  0  0  0
   59.7360   28.6580   47.9650 O   0  0  0  0  0  0  0  0  0  0  0  0
   61.2350   30.2480   47.1910 N   0  0  0  0  0  0  0  0  0  0  0  0
   61.8700   31.3170   47.9040 C   0  0  0  0  0  0  0  0  0  0  0  0
   62.9720   31.9570   47.3330 C   0  0  0  0  0  0  0  0  0  0  0  0
   63.5670   33.0400   47.9820 C   0  0  0  0  0  0  0  0  0  0  0  0
   63.0620   33.4940   49.2050 C   0  0  0  0  0  0  0  0  0  0  0  0
   61.9860   32.8300   49.8130 C   0  0  0  0  0  0  0  0  0  0  0  0
   61.3900   33.3460   51.0980 C   0  0  0  0  0  0  0  0  0  0  0  0
   59.8790   33.3820   51.0400 C   0  0  0  0  0  0  0  0  0  0  0  0
   59.3120   34.3540   50.4760 O   0  0  0  0  0  0  0  0  0  0  0  0
   59.0770   32.2760   51.5090 N   0  0  0  0  0  0  0  0  0  0  0  0
   57.6520   32.5350   51.7800 C   0  0  0  0  0  0  0  0  0  0  0  0
   56.9250   31.2850   52.2550 C   0  0  0  0  0  0  0  0  0  0  0  0
   57.3160   30.1690   51.3970 N   0  0  0  0  0  0  0  0  0  0  0  0
   58.6900   29.7660   51.7170 C   0  0  0  0  0  0  0  0  0  0  0  0
   59.6940   30.9440   51.6740 C   0  0  0  0  0  0  0  0  0  0  0  0
   61.4200   31.7160   49.1750 C   0  0  0  0  0  0  0  0  0  0  0  0
   57.2470   29.1760   44.3510 C   0  0  2  0  0  0  0  0  0  0  0  0
   55.5410   29.3420   44.8590 S   0  0  0  0  0  0  0  0  0  0  0  0
   57.9870   28.1080   45.1840 C   0  0  0  0  0  0  0  0  0  0  0  0
   57.4140   26.7170   45.0370 C   0  0  0  0  0  0  0  0  0  0  0  0
   56.4980   26.2260   45.9830 C   0  0  0  0  0  0  0  0  0  0  0  0
   55.9540   24.9470   45.8360 C   0  0  0  0  0  0  0  0  0  0  0  0
   56.3110   24.1540   44.7420 C   0  0  0  0  0  0  0  0  0  0  0  0
   57.2120   24.6370   43.7920 C   0  0  0  0  0  0  0  0  0  0  0  0
   57.7690   25.9120   43.9400 C   0  0  0  0  0  0  0  0  0  0  0  0
   57.7988   29.8582   46.9386 H   0  0  0  0  0  0  0  0  0  0  0  0
   57.3937   31.8327   47.9265 H   0  0  0  0  0  0  0  0  0  0  0  0
   59.1161   31.8040   48.4888 H   0  0  0  0  0  0  0  0  0  0  0  0
   56.9191   32.8905   45.6184 H   0  0  0  0  0  0  0  0  0  0  0  0
   57.4107   34.9357   44.2769 H   0  0  0  0  0  0  0  0  0  0  0  0
   59.4979   36.2384   44.6959 H   0  0  0  0  0  0  0  0  0  0  0  0
   61.1123   35.4756   46.4416 H   0  0  0  0  0  0  0  0  0  0  0  0
   60.6530   33.4028   47.7533 H   0  0  0  0  0  0  0  0  0  0  0  0
   63.3719   31.6070   46.3699 H   0  0  0  0  0  0  0  0  0  0  0  0
   64.4369   33.5387   47.5298 H   0  0  0  0  0  0  0  0  0  0  0  0
   63.5095   34.3735   49.6910 H   0  0  0  0  0  0  0  0  0  0  0  0
   61.6993   32.6882   51.9236 H   0  0  0  0  0  0  0  0  0  0  0  0
   61.7513   34.3730   51.2551 H   0  0  0  0  0  0  0  0  0  0  0  0
   57.5735   33.3086   52.5580 H   0  0  0  0  0  0  0  0  0  0  0  0
   57.1824   32.8649   50.8416 H   0  0  0  0  0  0  0  0  0  0  0  0
   57.2026   31.0673   53.2969 H   0  0  0  0  0  0  0  0  0  0  0  0
   55.8370   31.4382   52.2028 H   0  0  0  0  0  0  0  0  0  0  0  0
   56.6860   29.3610   51.6200 H   0  0  0  0  0  0  0  0  0  0  0  0
   58.7014   29.3330   52.7281 H   0  0  0  0  0  0  0  0  0  0  0  0
   59.0047   29.0388   50.9541 H   0  0  0  0  0  0  0  0  0  0  0  0
   60.2624   30.9441   52.6157 H   0  0  0  0  0  0  0  0  0  0  0  0
   60.3247   30.7821   50.7874 H   0  0  0  0  0  0  0  0  0  0  0  0
   60.6184   31.1506   49.6727 H   0  0  0  0  0  0  0  0  0  0  0  0
   57.2586   28.8253   43.3085 H   0  0  0  0  0  0  0  0  0  0  0  0
   59.0391   28.0856   44.8638 H   0  0  0  0  0  0  0  0  0  0  0  0
   57.8754   28.3912   46.2411 H   0  0  0  0  0  0  0  0  0  0  0  0
   56.2084   26.8499   46.8414 H   0  0  0  0  0  0  0  0  0  0  0  0
   55.2433   24.5637   46.5830 H   0  0  0  0  0  0  0  0  0  0  0  0
   55.8812   23.1477   44.6296 H   0  0  0  0  0  0  0  0  0  0  0  0
   57.4844   24.0151   42.9265 H   0  0  0  0  0  0  0  0  0  0  0  0
   58.4872   26.2860   43.1955 H   0  0  0  0  0  0  0  0  0  0  0  0
  1  2  2  0
  2  3  1  0
  3  4  1  0
  4  5  1  0
  5  6  1  0
  6  7  2  0
  7  8  1  0
  8  9  2  0
  9 10  1  0
 10 11  2  0
  4 12  1  0
 12 13  2  0
 12 14  1  0
 14 15  1  0
 15 16  2  0
 16 17  1  0
 17 18  2  0
 18 19  1  0
 19 20  1  0
 20 21  1  0
 21 22  2  0
 21 23  1  0
 23 24  1  0
 24 25  1  0
 25 26  1  0
 26 27  1  0
 27 28  1  0
 19 29  2  0
  2 30  1  0
 30 31  1  0
 30 32  1  0
 32 33  1  0
 33 34  2  0
 34 35  1  0
 35 36  2  0
 36 37  1  0
 37 38  2  0
 11  6  1  0
 29 15  1  0
 38 33  1  0
 28 23  1  0
  4 39  1  6
  5 40  1  0
  5 41  1  0
  7 42  1  0
  8 43  1  0
  9 44  1  0
 10 45  1  0
 11 46  1  0
 16 47  1  0
 17 48  1  0
 18 49  1  0
 20 50  1  0
 20 51  1  0
 24 52  1  0
 24 53  1  0
 25 54  1  0
 25 55  1  0
 26 56  1  0
 27 57  1  0
 27 58  1  0
 28 59  1  0
 28 60  1  0
 29 61  1  0
 30 62  1  6
 32 63  1  0
 32 64  1  0
 34 65  1  0
 35 66  1  0
 36 67  1  0
 37 68  1  0
 38 69  1  0
M  CHG  3   3  -1  14  -1  31  -1
M  END
>  <UniqueID>  (22) 
20

>  <SMILES>  (22) 
O=C([N-][C@H](Cc1ccccc1)C(=O)[N-]c1cccc(CC(=O)N2CCNCC2)c1)[C@H]([S-])Cc1ccccc1

>  <Energy>  (22) 
69.2342919463203

>  <Genealogy>  (22) 
O=C([N-]C(Cc1ccccc1)C(=O)[N-]c1cccc(CC(=O)N2CCNCC2)c1)C([S-])Cc1ccccc1 (protonated)
O=C([N-][C@H](Cc1ccccc1)C(=O)[N-]c1cccc(CC(=O)N2CCNCC2)c1)[C@H]([S-])Cc1ccccc1 (chirality)
O=C([N-][C@H](Cc1ccccc1)C(=O)[N-]c1cccc(CC(=O)N2CCNCC2)c1)[C@H]([S-])Cc1ccccc1 (3D coordinates assigned)
O=C([N-][C@H](Cc1ccccc1)C(=O)[N-]c1cccc(CC(=O)N2CCNCC2)c1)[C@H]([S-])Cc1ccccc1 (nonaromatic ring conformer: 69.2342919463203 kcal/mol)

>  <smiles>  (22) 
O=C(NC(Cc1ccccc1)C(=O)Nc1cccc(CC(=O)N2CCNCC2)c1)C(S)Cc1ccccc1

>  <score_type>  (22) 
oracle

>  <origin>  (22) 
adg

>  <m_score__min__energy>  (22) 
-16.469999999999999

>  <m_primary>  (22) 
energy

$$$$
22:0
     RDKit          3D

 53 56  0  0  0  0  0  0  0  0999 V2000
   54.3930   30.2520   53.4820 O   0  0  0  0  0  0  0  0  0  0  0  0
   54.3740   30.7480   52.3220 C   0  0  0  0  0  0  0  0  0  0  0  0
   55.6040   30.9670   51.6110 N   0  0  0  0  0  0  0  0  0  0  0  0
   56.8720   30.4210   52.0150 C   0  0  0  0  0  0  0  0  0  0  0  0
   56.9570   29.3490   52.9200 C   0  0  0  0  0  0  0  0  0  0  0  0
   58.2020   28.8190   53.2680 C   0  0  0  0  0  0  0  0  0  0  0  0
   59.3700   29.3360   52.7030 C   0  0  0  0  0  0  0  0  0  0  0  0
   59.2980   30.3870   51.7710 C   0  0  0  0  0  0  0  0  0  0  0  0
   60.4310   30.9290   51.1510 O   0  0  0  0  0  0  0  0  0  0  0  0
   61.3830   30.2070   50.3610 C   0  0  0  0  0  0  0  0  0  0  0  0
   62.7330   30.9420   50.4300 C   0  0  0  0  0  0  0  0  0  0  0  0
   62.7540   32.2230   49.5630 C   0  0  0  0  0  0  0  0  0  0  0  0
   61.3890   32.5890   49.1370 N   0  0  0  0  0  0  0  0  0  0  0  0
   61.3550   33.9150   48.4900 C   0  0  0  0  0  0  0  0  0  0  0  0
   60.2180   33.9710   47.5040 C   0  0  0  0  0  0  0  0  0  0  0  0
   60.4640   34.1560   46.1330 C   0  0  0  0  0  0  0  0  0  0  0  0
   59.4030   34.1530   45.2230 C   0  0  0  0  0  0  0  0  0  0  0  0
   58.0930   33.9630   45.6720 C   0  0  0  0  0  0  0  0  0  0  0  0
   57.0660   33.9630   44.7850 F   0  0  0  0  0  0  0  0  0  0  0  0
   57.8410   33.7770   47.0330 C   0  0  0  0  0  0  0  0  0  0  0  0
   58.8980   33.7810   47.9480 C   0  0  0  0  0  0  0  0  0  0  0  0
   60.8240   31.5410   48.2550 C   0  0  0  0  0  0  0  0  0  0  0  0
   60.9260   30.1370   48.8930 C   0  0  0  0  0  0  0  0  0  0  0  0
   58.0480   30.9250   51.4410 C   0  0  0  0  0  0  0  0  0  0  0  0
   53.0840   31.1450   51.7160 C   0  0  0  0  0  0  0  0  0  0  0  0
   52.6550   30.6020   50.4950 C   0  0  0  0  0  0  0  0  0  0  0  0
   51.4250   31.0100   49.9760 C   0  0  0  0  0  0  0  0  0  0  0  0
   51.0120   30.5430   48.8830 O   0  0  0  0  0  0  0  0  0  0  0  0
   50.6710   31.9160   50.6510 N   0  0  0  0  0  0  0  0  0  0  0  0
   51.0970   32.4360   51.8310 C   0  0  0  0  0  0  0  0  0  0  0  0
   50.3870   33.2770   52.4410 O   0  0  0  0  0  0  0  0  0  0  0  0
   52.2910   32.0510   52.3520 N   0  0  0  0  0  0  0  0  0  0  0  0
   55.6030   31.6510   50.8210 H   0  0  0  0  0  0  0  0  0  0  0  0
   56.0400   28.9258   53.3559 H   0  0  0  0  0  0  0  0  0  0  0  0
   58.2626   27.9912   53.9899 H   0  0  0  0  0  0  0  0  0  0  0  0
   60.3480   28.9205   52.9874 H   0  0  0  0  0  0  0  0  0  0  0  0
   61.4751   29.1830   50.7520 H   0  0  0  0  0  0  0  0  0  0  0  0
   62.9303   31.2203   51.4758 H   0  0  0  0  0  0  0  0  0  0  0  0
   63.5047   30.2617   50.0406 H   0  0  0  0  0  0  0  0  0  0  0  0
   63.1824   33.0489   50.1499 H   0  0  0  0  0  0  0  0  0  0  0  0
   63.3642   32.0333   48.6677 H   0  0  0  0  0  0  0  0  0  0  0  0
   61.2132   34.6918   49.2558 H   0  0  0  0  0  0  0  0  0  0  0  0
   62.3041   34.0861   47.9609 H   0  0  0  0  0  0  0  0  0  0  0  0
   61.4936   34.3035   45.7751 H   0  0  0  0  0  0  0  0  0  0  0  0
   59.5995   34.3005   44.1508 H   0  0  0  0  0  0  0  0  0  0  0  0
   56.8098   33.6272   47.3854 H   0  0  0  0  0  0  0  0  0  0  0  0
   58.6959   33.6349   49.0194 H   0  0  0  0  0  0  0  0  0  0  0  0
   59.7650   31.7692   48.0642 H   0  0  0  0  0  0  0  0  0  0  0  0
   61.4020   31.5339   47.3191 H   0  0  0  0  0  0  0  0  0  0  0  0
   59.9386   29.6541   48.8503 H   0  0  0  0  0  0  0  0  0  0  0  0
   61.6738   29.5595   48.3297 H   0  0  0  0  0  0  0  0  0  0  0  0
   57.9877   31.7547   50.7213 H   0  0  0  0  0  0  0  0  0  0  0  0
   53.2755   29.8696   49.9578 H   0  0  0  0  0  0  0  0  0  0  0  0
  1  2  2  0
  2  3  1  0
  3  4  1  0
  4  5  2  0
  5  6  1  0
  6  7  2  0
  7  8  1  0
  8  9  1  0
  9 10  1  0
 10 11  1  0
 11 12  1  0
 12 13  1  0
 13 14  1  0
 14 15  1  0
 15 16  2  0
 16 17  1  0
 17 18  2  0
 18 19  1  0
 18 20  1  0
 20 21  2  0
 13 22  1  0
 22 23  1  0
  8 24  2  0
  2 25  1  0
 25 26  2  0
 26 27  1  0
 27 28  2  0
 27 29  1  0
 29 30  1  0
 30 31  2  0
 30 32  1  0
 24  4  1  0
 32 25  1  0
 23 10  1  0
 21 15  1  0
  3 33  1  0
  5 34  1  0
  6 35  1  0
  7 36  1  0
 10 37  1  0
 11 38  1  0
 11 39  1  0
 12 40  1  0
 12 41  1  0
 14 42  1  0
 14 43  1  0
 16 44  1  0
 17 45  1  0
 20 46  1  0
 21 47  1  0
 22 48  1  0
 22 49  1  0
 23 50  1  0
 23 51  1  0
 24 52  1  0
 26 53  1  0
M  CHG  2  29  -1  32  -1
M  END
>  <UniqueID>  (23) 
21

>  <SMILES>  (23) 
O=C(Nc1cccc(OC2CCN(Cc3ccc(F)cc3)CC2)c1)c1cc(=O)[n-]c(=O)[n-]1

>  <Energy>  (23) 
66.71775879112403

>  <Genealogy>  (23) 
O=C(Nc1cccc(OC2CCN(Cc3ccc(F)cc3)CC2)c1)c1cc(=O)[n-]c(=O)[n-]1 (protonated)
O=C(Nc1cccc(OC2CCN(Cc3ccc(F)cc3)CC2)c1)c1cc(=O)[n-]c(=O)[n-]1 (3D coordinates assigned)
O=C(Nc1cccc(OC2CCN(Cc3ccc(F)cc3)CC2)c1)c1cc(=O)[n-]c(=O)[n-]1 (nonaromatic ring conformer: 66.71775879112403 kcal/mol)

>  <smiles>  (23) 
O=C(Nc1cccc(OC2CCN(Cc3ccc(F)cc3)CC2)c1)c1cc(=O)[nH]c(=O)[nH]1

>  <score_type>  (23) 
oracle

>  <origin>  (23) 
adg

>  <m_score__min__energy>  (23) 
-13.99

>  <m_primary>  (23) 
energy

$$$$
23:0
     RDKit          3D

 28 30  0  0  0  0  0  0  0  0999 V2000
   59.9020   35.2310   46.3820 C   0  0  0  0  0  0  0  0  0  0  0  0
   59.6370   33.9330   46.2790 C   0  0  0  0  0  0  0  0  0  0  0  0
   60.4100   32.9030   46.8040 C   0  0  0  0  0  0  0  0  0  0  0  0
   59.8840   31.6320   46.5400 C   0  0  0  0  0  0  0  0  0  0  0  0
   58.6960   31.6690   45.8090 C   0  0  0  0  0  0  0  0  0  0  0  0
   57.9790   30.6070   45.4210 C   0  0  0  0  0  0  0  0  0  0  0  0
   56.6430   30.6570   45.2120 N   0  0  0  0  0  0  0  0  0  0  0  0
   56.3460   29.4000   44.8440 C   0  0  0  0  0  0  0  0  0  0  0  0
   55.1830   29.0170   44.5480 O   0  0  0  0  0  0  0  0  0  0  0  0
   57.4790   28.6220   44.8400 C   0  0  0  0  0  0  0  0  0  0  0  0
   57.5550   27.3270   44.4980 C   0  0  0  0  0  0  0  0  0  0  0  0
   57.3920   26.2170   45.4640 C   0  0  0  0  0  0  0  0  0  0  0  0
   58.4470   25.3140   45.6470 C   0  0  0  0  0  0  0  0  0  0  0  0
   58.3210   24.2800   46.5200 N   0  0  0  0  0  0  0  0  0  0  0  0
   57.1680   24.0940   47.2170 C   0  0  0  0  0  0  0  0  0  0  0  0
   57.0670   23.1350   48.0280 O   0  0  0  0  0  0  0  0  0  0  0  0
   56.1200   24.9370   47.0350 N   0  0  0  0  0  0  0  0  0  0  0  0
   56.1990   25.9820   46.1720 C   0  0  0  0  0  0  0  0  0  0  0  0
   55.1870   26.7120   45.9980 O   0  0  0  0  0  0  0  0  0  0  0  0
   58.5260   29.3870   45.2010 N   0  0  0  0  0  0  0  0  0  0  0  0
   58.3020   33.2780   45.4920 S   0  0  0  0  0  0  0  0  0  0  0  0
   59.2233   35.9686   45.9288 H   0  0  0  0  0  0  0  0  0  0  0  0
   60.8001   35.5680   46.9204 H   0  0  0  0  0  0  0  0  0  0  0  0
   61.3392   33.0694   47.3687 H   0  0  0  0  0  0  0  0  0  0  0  0
   60.3596   30.6985   46.8752 H   0  0  0  0  0  0  0  0  0  0  0  0
   57.7486   27.0768   43.4445 H   0  0  0  0  0  0  0  0  0  0  0  0
   59.3818   25.4423   45.0816 H   0  0  0  0  0  0  0  0  0  0  0  0
   59.1250   23.6250   46.6540 H   0  0  0  0  0  0  0  0  0  0  0  0
  1  2  2  0
  2  3  1  0
  3  4  2  0
  4  5  1  0
  5  6  2  3
  6  7  1  0
  7  8  1  0
  8  9  2  0
  8 10  1  0
 10 11  2  3
 11 12  1  0
 12 13  2  0
 13 14  1  0
 14 15  1  0
 15 16  2  0
 15 17  1  0
 17 18  1  0
 18 19  2  0
 10 20  1  0
  5 21  1  0
 21  2  1  0
 20  6  1  0
 18 12  1  0
  1 22  1  0
  1 23  1  0
  3 24  1  0
  4 25  1  0
 11 26  1  0
 13 27  1  0
 14 28  1  0
M  CHG  3   7  -1  17  -1  20  -1
M  END
>  <UniqueID>  (24) 
22

>  <SMILES>  (24) 
C=c1ccc(=c2[n-]c(=O)c(=Cc3c[nH]c(=O)[n-]c3=O)[n-]2)s1

>  <Energy>  (24) 
94.56266135003781

>  <Genealogy>  (24) 
C=c1ccc(=c2[n-]c(=O)c(=Cc3c[nH]c(=O)[n-]c3=O)[n-]2)s1 (protonated)
C=c1ccc(=c2[n-]c(=O)c(=Cc3c[nH]c(=O)[n-]c3=O)[n-]2)s1 (3D coordinates assigned)
C=c1ccc(=c2[n-]c(=O)c(=Cc3c[nH]c(=O)[n-]c3=O)[n-]2)s1 (optimized conformer: 94.56266135003781 kcal/mol)

>  <smiles>  (24) 
C=c1ccc(=c2[nH]c(=O)c(=Cc3c[nH]c(=O)[nH]c3=O)[nH]2)s1

>  <score_type>  (24) 
oracle

>  <origin>  (24) 
adg

>  <m_score__min__energy>  (24) 
-12.630000000000001

>  <m_primary>  (24) 
energy

$$$$
24:0
     RDKit          3D

 60 63  0  0  0  0  0  0  0  0999 V2000
   58.6467   30.0338   51.3420 H   0  0  0  0  0  0  0  0  0  0  0  0
   58.7190   30.6490   50.4330 C   0  0  0  0  0  0  0  0  0  0  0  0
   58.2090   32.2460   50.2730 S   0  0  0  0  0  0  0  0  0  0  0  0
   58.6740   32.3400   48.6580 C   0  0  0  0  0  0  0  0  0  0  0  0
   58.5150   33.4000   47.9210 N   0  0  0  0  0  0  0  0  0  0  0  0
   59.5600   34.2920   47.4830 C   0  0  0  0  0  0  0  0  0  0  0  0
   59.2720   35.3510   46.8620 O   0  0  0  0  0  0  0  0  0  0  0  0
   60.9720   33.9870   47.7940 C   0  0  0  0  0  0  0  0  0  0  0  0
   61.4870   34.2160   49.0860 C   0  0  0  0  0  0  0  0  0  0  0  0
   60.8353   34.6363   49.8662 H   0  0  0  0  0  0  0  0  0  0  0  0
   62.8170   33.9140   49.3840 C   0  0  0  0  0  0  0  0  0  0  0  0
   63.2050   34.0790   50.4000 H   0  0  0  0  0  0  0  0  0  0  0  0
   63.6560   33.4010   48.3880 C   0  0  0  0  0  0  0  0  0  0  0  0
   64.9530   33.1180   48.6690 F   0  0  0  0  0  0  0  0  0  0  0  0
   63.1600   33.1820   47.1010 C   0  0  0  0  0  0  0  0  0  0  0  0
   63.8221   32.7817   46.3191 H   0  0  0  0  0  0  0  0  0  0  0  0
   61.8240   33.4700   46.8030 C   0  0  0  0  0  0  0  0  0  0  0  0
   61.4385   33.2910   45.7884 H   0  0  0  0  0  0  0  0  0  0  0  0
   59.2110   31.1800   48.2200 N   0  0  0  0  0  0  0  0  0  0  0  0
   59.2510   30.2440   49.2040 C   0  0  0  0  0  0  0  0  0  0  0  0
   59.7510   28.8630   48.9400 C   0  0  0  0  0  0  0  0  0  0  0  0
   60.8150   28.9048   48.6642 H   0  0  0  0  0  0  0  0  0  0  0  0
   59.6306   28.2502   49.8456 H   0  0  0  0  0  0  0  0  0  0  0  0
   58.9870   28.2690   47.8450 N   0  0  0  0  0  0  0  0  0  0  0  0
   59.2880   28.4900   46.4610 C   0  0  0  0  0  0  0  0  0  0  0  0
   60.3380   28.0010   45.9690 O   0  0  0  0  0  0  0  0  0  0  0  0
   58.3820   29.2660   45.5990 C   0  0  0  0  0  0  0  0  0  0  0  0
   58.6180   30.6340   45.4100 C   0  0  0  0  0  0  0  0  0  0  0  0
   59.4521   31.1220   45.9356 H   0  0  0  0  0  0  0  0  0  0  0  0
   57.7970   31.3870   44.5540 C   0  0  0  0  0  0  0  0  0  0  0  0
   58.0630   32.8530   44.3120 C   0  0  0  0  0  0  0  0  0  0  0  0
   59.2710   33.2360   44.8680 F   0  0  0  0  0  0  0  0  0  0  0  0
   57.0630   33.6230   44.8820 F   0  0  0  0  0  0  0  0  0  0  0  0
   58.0940   33.0910   42.9510 F   0  0  0  0  0  0  0  0  0  0  0  0
   56.7690   30.7380   43.8510 C   0  0  0  0  0  0  0  0  0  0  0  0
   56.1486   31.3080   43.1438 H   0  0  0  0  0  0  0  0  0  0  0  0
   56.5270   29.3770   44.0410 C   0  0  0  0  0  0  0  0  0  0  0  0
   55.7135   28.8835   43.4890 H   0  0  0  0  0  0  0  0  0  0  0  0
   57.3190   28.6320   44.9360 C   0  0  0  0  0  0  0  0  0  0  0  0
   57.0730   27.2730   45.1990 O   0  0  0  0  0  0  0  0  0  0  0  0
   57.7650   26.1960   44.5740 C   0  0  0  0  0  0  0  0  0  0  0  0
   57.2876   25.9626   43.6109 H   0  0  0  0  0  0  0  0  0  0  0  0
   58.8131   26.4827   44.4026 H   0  0  0  0  0  0  0  0  0  0  0  0
   57.7130   24.9540   45.4890 C   0  0  0  0  0  0  0  0  0  0  0  0
   58.7370   24.7238   45.8181 H   0  0  0  0  0  0  0  0  0  0  0  0
   57.0448   25.2035   46.3264 H   0  0  0  0  0  0  0  0  0  0  0  0
   57.1510   23.7480   44.8370 N   0  0  0  0  0  0  0  0  0  0  0  0
   58.1700   22.7430   44.4930 C   0  0  0  0  0  0  0  0  0  0  0  0
   58.8290   23.1444   43.7090 H   0  0  0  0  0  0  0  0  0  0  0  0
   58.7626   22.5048   45.3886 H   0  0  0  0  0  0  0  0  0  0  0  0
   57.4820   21.4550   43.9770 C   0  0  0  0  0  0  0  0  0  0  0  0
   58.1845   20.9372   43.3074 H   0  0  0  0  0  0  0  0  0  0  0  0
   57.2176   20.8680   44.8689 H   0  0  0  0  0  0  0  0  0  0  0  0
   56.2680   21.6680   43.2650 O   0  0  0  0  0  0  0  0  0  0  0  0
   56.2500   22.9420   42.6440 C   0  0  0  0  0  0  0  0  0  0  0  0
   57.1460   23.0516   42.0154 H   0  0  0  0  0  0  0  0  0  0  0  0
   55.3432   23.0257   42.0270 H   0  0  0  0  0  0  0  0  0  0  0  0
   56.2360   24.0620   43.7120 C   0  0  0  0  0  0  0  0  0  0  0  0
   56.5536   25.0060   43.2450 H   0  0  0  0  0  0  0  0  0  0  0  0
   55.2142   24.1482   44.1102 H   0  0  0  0  0  0  0  0  0  0  0  0
  1  2  1  0
  2  3  1  0
  3  4  1  0
  4  5  2  0
  5  6  1  0
  6  7  2  0
  6  8  1  0
  8  9  2  0
  9 10  1  0
  9 11  1  0
 11 12  1  0
 11 13  2  0
 13 14  1  0
 13 15  1  0
 15 16  1  0
 15 17  2  0
 17 18  1  0
  4 19  1  0
 19 20  1  0
 20 21  1  0
 21 22  1  0
 21 23  1  0
 21 24  1  0
 24 25  1  0
 25 26  2  0
 25 27  1  0
 27 28  2  0
 28 29  1  0
 28 30  1  0
 30 31  1  0
 31 32  1  0
 31 33  1  0
 31 34  1  0
 30 35  2  0
 35 36  1  0
 35 37  1  0
 37 38  1  0
 37 39  2  0
 39 40  1  0
 40 41  1  0
 41 42  1  0
 41 43  1  0
 41 44  1  0
 44 45  1  0
 44 46  1  0
 44 47  1  0
 47 48  1  0
 48 49  1  0
 48 50  1  0
 48 51  1  0
 51 52  1  0
 51 53  1  0
 51 54  1  0
 54 55  1  0
 55 56  1  0
 55 57  1  0
 55 58  1  0
 58 59  1  0
 58 60  1  0
 20  2  2  0
 39 27  1  0
 58 47  1  0
 17  8  1  0
M  CHG  2  19  -1  24  -1
M  END
>  <UniqueID>  (25) 
23

>  <SMILES>  (25) 
O=C(/N=c1\[n-]c(C[N-]C(=O)c2cc(C(F)(F)F)ccc2OCCN2CCOCC2)cs1)c1ccc(F)cc1

>  <Energy>  (25) 
113.91995953011792

>  <Genealogy>  (25) 
O=C(N=c1[n-]c(C[N-]C(=O)c2cc(C(F)(F)F)ccc2OCCN2CCOCC2)cs1)c1ccc(F)cc1 (protonated)
O=C(/N=c1\[n-]c(C[N-]C(=O)c2cc(C(F)(F)F)ccc2OCCN2CCOCC2)cs1)c1ccc(F)cc1 (cis-trans isomerization)
O=C(/N=c1\[n-]c(C[N-]C(=O)c2cc(C(F)(F)F)ccc2OCCN2CCOCC2)cs1)c1ccc(F)cc1 (3D coordinates assigned)
O=C(/N=c1\[n-]c(C[N-]C(=O)c2cc(C(F)(F)F)ccc2OCCN2CCOCC2)cs1)c1ccc(F)cc1 (nonaromatic ring conformer: 113.91995953011792 kcal/mol)

>  <smiles>  (25) 
O=C(N=c1[nH]c(CNC(=O)c2cc(C(F)(F)F)ccc2OCCN2CCOCC2)cs1)c1ccc(F)cc1

>  <score_type>  (25) 
oracle

>  <origin>  (25) 
adg

>  <m_score__min__energy>  (25) 
-13.119999999999999

>  <m_primary>  (25) 
energy

$$$$
25:0
     RDKit          3D

 44 46  0  0  0  0  0  0  0  0999 V2000
   60.9479   29.3964   49.5336 H   0  0  0  0  0  0  0  0  0  0  0  0
   60.3720   28.5630   49.1050 C   0  0  0  0  0  0  0  0  0  0  0  0
   60.2827   27.6153   49.6563 H   0  0  0  0  0  0  0  0  0  0  0  0
   59.7800   28.7020   47.9130 C   0  0  0  0  0  0  0  0  0  0  0  0
   59.7650   29.8120   47.0430 C   0  0  0  0  0  0  0  0  0  0  0  0
   60.3110   31.0440   47.1270 C   0  0  0  0  0  0  0  0  0  0  0  0
   61.2775   31.1856   46.6212 H   0  0  0  0  0  0  0  0  0  0  0  0
   59.7460   32.2430   47.8340 C   0  0  0  0  0  0  0  0  0  0  0  0
   59.9405   32.1469   48.9124 H   0  0  0  0  0  0  0  0  0  0  0  0
   60.2301   33.1435   47.4280 H   0  0  0  0  0  0  0  0  0  0  0  0
   58.2330   32.3660   47.6090 C   0  0  0  0  0  0  0  0  0  0  0  0
   57.9279   31.6820   46.8033 H   0  0  0  0  0  0  0  0  0  0  0  0
   57.7076   32.1050   48.5395 H   0  0  0  0  0  0  0  0  0  0  0  0
   57.8880   33.7540   47.2300 N   0  0  0  0  0  0  0  0  0  0  0  0
   59.0780   34.6420   47.1240 C   0  0  0  0  0  0  0  0  0  0  0  0
   58.8576   35.5797   47.6552 H   0  0  0  0  0  0  0  0  0  0  0  0
   59.9235   34.0927   47.5638 H   0  0  0  0  0  0  0  0  0  0  0  0
   59.4790   34.9890   45.6750 C   0  0  0  0  0  0  0  0  0  0  0  0
   58.8879   35.8527   45.3364 H   0  0  0  0  0  0  0  0  0  0  0  0
   60.5537   35.2231   45.6582 H   0  0  0  0  0  0  0  0  0  0  0  0
   59.2260   33.8120   44.7330 C   0  0  0  0  0  0  0  0  0  0  0  0
   59.4930   34.1109   43.7086 H   0  0  0  0  0  0  0  0  0  0  0  0
   59.8420   32.9645   45.0682 H   0  0  0  0  0  0  0  0  0  0  0  0
   57.7510   33.3740   44.7570 C   0  0  0  0  0  0  0  0  0  0  0  0
   57.2392   33.8162   43.8895 H   0  0  0  0  0  0  0  0  0  0  0  0
   57.7322   32.2746   44.7262 H   0  0  0  0  0  0  0  0  0  0  0  0
   57.0160   33.8140   46.0390 C   0  0  0  0  0  0  0  0  0  0  0  0
   56.6647   34.8482   45.9088 H   0  0  0  0  0  0  0  0  0  0  0  0
   56.1753   33.1233   46.2005 H   0  0  0  0  0  0  0  0  0  0  0  0
   59.0120   29.4170   45.9460 C   0  0  0  0  0  0  0  0  0  0  0  0
   58.7779   30.0254   45.0600 H   0  0  0  0  0  0  0  0  0  0  0  0
   58.6130   28.1180   46.1770 C   0  0  0  0  0  0  0  0  0  0  0  0
   57.7160   27.3150   45.2900 C   0  0  0  0  0  0  0  0  0  0  0  0
   56.8789   27.9439   44.9527 H   0  0  0  0  0  0  0  0  0  0  0  0
   58.2896   26.9609   44.4207 H   0  0  0  0  0  0  0  0  0  0  0  0
   57.1800   26.1360   46.0390 C   0  0  0  0  0  0  0  0  0  0  0  0
   57.9490   25.1780   46.5890 N   0  0  0  0  0  0  0  0  0  0  0  0
   57.0530   24.3800   47.2090 C   0  0  0  0  0  0  0  0  0  0  0  0
   57.3900   23.3480   47.8450 O   0  0  0  0  0  0  0  0  0  0  0  0
   55.7660   24.7780   47.1000 N   0  0  0  0  0  0  0  0  0  0  0  0
   55.8660   25.8940   46.3610 C   0  0  0  0  0  0  0  0  0  0  0  0
   54.7820   26.6810   45.9950 O   0  0  0  0  0  0  0  0  0  0  0  0
   59.0680   27.6930   47.3670 N   0  0  0  0  0  0  0  0  0  0  0  0
   58.8900   26.7520   47.7890 H   0  0  0  0  0  0  0  0  0  0  0  0
  1  2  1  0
  2  3  1  0
  2  4  2  0
  4  5  1  0
  5  6  2  0
  6  7  1  0
  6  8  1  0
  8  9  1  0
  8 10  1  0
  8 11  1  0
 11 12  1  0
 11 13  1  0
 11 14  1  0
 14 15  1  0
 15 16  1  0
 15 17  1  0
 15 18  1  0
 18 19  1  0
 18 20  1  0
 18 21  1  0
 21 22  1  0
 21 23  1  0
 21 24  1  0
 24 25  1  0
 24 26  1  0
 24 27  1  0
 27 28  1  0
 27 29  1  0
  5 30  1  0
 30 31  1  0
 30 32  2  0
 32 33  1  0
 33 34  1  0
 33 35  1  0
 33 36  1  0
 36 37  1  0
 37 38  1  0
 38 39  2  0
 38 40  1  0
 40 41  1  0
 41 42  1  0
 32 43  1  0
 43 44  1  0
 43  4  1  0
 27 14  1  0
 41 36  2  0
M  CHG  3  37  -1  40  -1  42  -1
M  END
>  <UniqueID>  (26) 
24

>  <SMILES>  (26) 
C=c1[nH]c(Cc2[n-]c(=O)[n-]c2[O-])c/c1=C/CCN1CCCCC1

>  <Energy>  (26) 
111.04200443146958

>  <Genealogy>  (26) 
C=c1[nH]c(Cc2[n-]c(=O)[n-]c2[O-])cc1=CCCN1CCCCC1 (protonated)
C=c1[nH]c(Cc2[n-]c(=O)[n-]c2[O-])c/c1=C/CCN1CCCCC1 (cis-trans isomerization)
C=c1[nH]c(Cc2[n-]c(=O)[n-]c2[O-])c/c1=C/CCN1CCCCC1 (3D coordinates assigned)
C=c1[nH]c(Cc2[n-]c(=O)[n-]c2[O-])c/c1=C/CCN1CCCCC1 (nonaromatic ring conformer: 111.04200443146958 kcal/mol)

>  <smiles>  (26) 
C=c1[nH]c(Cc2[nH]c(=O)[nH]c2O)cc1=CCCN1CCCCC1

>  <score_type>  (26) 
oracle

>  <origin>  (26) 
adg

>  <m_score__min__energy>  (26) 
-16.329999999999998

>  <m_primary>  (26) 
energy

$$$$
26:0
     RDKit          3D

 50 52  0  0  0  0  0  0  0  0999 V2000
   65.8040   32.6460   49.7350 C   0  0  0  0  0  0  0  0  0  0  0  0
   64.5390   32.7700   50.5350 C   0  0  0  0  0  0  0  0  0  0  0  0
   64.5560   32.4040   51.7420 O   0  0  0  0  0  0  0  0  0  0  0  0
   63.3180   33.2970   49.9600 N   0  0  0  0  0  0  0  0  0  0  0  0
   62.1510   33.4980   50.8370 C   0  0  0  0  0  0  0  0  0  0  0  0
   60.9770   34.1490   50.0940 C   0  0  0  0  0  0  0  0  0  0  0  0
   60.7670   33.4870   48.7990 N   0  0  0  0  0  0  0  0  0  0  0  0
   59.4510   33.0350   48.4220 C   0  0  0  0  0  0  0  0  0  0  0  0
   58.6940   32.5250   49.2920 O   0  0  0  0  0  0  0  0  0  0  0  0
   58.9830   33.1290   47.0240 C   0  0  0  0  0  0  0  0  0  0  0  0
   59.6080   34.0060   46.1250 C   0  0  0  0  0  0  0  0  0  0  0  0
   59.1470   34.1090   44.8130 C   0  0  0  0  0  0  0  0  0  0  0  0
   58.0730   33.3270   44.3800 C   0  0  0  0  0  0  0  0  0  0  0  0
   57.4530   32.4300   45.2570 C   0  0  0  0  0  0  0  0  0  0  0  0
   56.3590   31.6390   44.7730 N   0  0  0  0  0  0  0  0  0  0  0  0
   56.4720   29.9960   44.2330 S   0  0  0  0  0  0  0  0  0  0  0  0
   56.8280   29.9810   42.7750 O   0  0  0  0  0  0  0  0  0  0  0  0
   55.1380   29.3230   44.4070 O   0  0  0  0  0  0  0  0  0  0  0  0
   57.7280   29.1540   45.1320 C   0  0  0  0  0  0  0  0  0  0  0  0
   57.3870   28.0610   45.9360 C   0  0  0  0  0  0  0  0  0  0  0  0
   58.3750   27.3900   46.6650 C   0  0  0  0  0  0  0  0  0  0  0  0
   59.7120   27.8070   46.5960 C   0  0  0  0  0  0  0  0  0  0  0  0
   60.7660   27.0710   47.3680 C   0  0  0  0  0  0  0  0  0  0  0  0
   60.0530   28.8860   45.7670 C   0  0  0  0  0  0  0  0  0  0  0  0
   59.0660   29.5580   45.0430 C   0  0  0  0  0  0  0  0  0  0  0  0
   57.9170   32.3320   46.5790 C   0  0  0  0  0  0  0  0  0  0  0  0
   61.9190   33.1790   47.9380 C   0  0  0  0  0  0  0  0  0  0  0  0
   63.2270   33.6920   48.5440 C   0  0  0  0  0  0  0  0  0  0  0  0
   66.6626   32.5618   50.4174 H   0  0  0  0  0  0  0  0  0  0  0  0
   65.7503   31.7488   49.1008 H   0  0  0  0  0  0  0  0  0  0  0  0
   65.9256   33.5365   49.1008 H   0  0  0  0  0  0  0  0  0  0  0  0
   61.8270   32.5214   51.2260 H   0  0  0  0  0  0  0  0  0  0  0  0
   62.4518   34.1721   51.6525 H   0  0  0  0  0  0  0  0  0  0  0  0
   60.0652   34.0554   50.7022 H   0  0  0  0  0  0  0  0  0  0  0  0
   61.2057   35.2111   49.9216 H   0  0  0  0  0  0  0  0  0  0  0  0
   60.4633   34.6135   46.4556 H   0  0  0  0  0  0  0  0  0  0  0  0
   59.6309   34.8089   44.1159 H   0  0  0  0  0  0  0  0  0  0  0  0
   57.7131   33.4170   43.3445 H   0  0  0  0  0  0  0  0  0  0  0  0
   56.3401   27.7285   45.9952 H   0  0  0  0  0  0  0  0  0  0  0  0
   58.1015   26.5310   47.2954 H   0  0  0  0  0  0  0  0  0  0  0  0
   60.5860   27.1967   48.4459 H   0  0  0  0  0  0  0  0  0  0  0  0
   60.7284   26.0018   47.1122 H   0  0  0  0  0  0  0  0  0  0  0  0
   61.7568   27.4746   47.1122 H   0  0  0  0  0  0  0  0  0  0  0  0
   61.1029   29.2043   45.6869 H   0  0  0  0  0  0  0  0  0  0  0  0
   59.3404   30.4077   44.4005 H   0  0  0  0  0  0  0  0  0  0  0  0
   57.4402   31.6236   47.2724 H   0  0  0  0  0  0  0  0  0  0  0  0
   61.9880   32.0886   47.8103 H   0  0  0  0  0  0  0  0  0  0  0  0
   61.7687   33.6787   46.9697 H   0  0  0  0  0  0  0  0  0  0  0  0
   64.0764   33.2639   47.9916 H   0  0  0  0  0  0  0  0  0  0  0  0
   63.2500   34.7895   48.4742 H   0  0  0  0  0  0  0  0  0  0  0  0
  1  2  1  0
  2  3  2  0
  2  4  1  0
  4  5  1  0
  5  6  1  0
  6  7  1  0
  7  8  1  0
  8  9  2  0
  8 10  1  0
 10 11  2  0
 11 12  1  0
 12 13  2  0
 13 14  1  0
 14 15  1  0
 15 16  1  0
 16 17  2  0
 16 18  2  0
 16 19  1  0
 19 20  2  0
 20 21  1  0
 21 22  2  0
 22 23  1  0
 22 24  1  0
 24 25  2  0
 14 26  2  0
  7 27  1  0
 27 28  1  0
 28  4  1  0
 26 10  1  0
 25 19  1  0
  1 29  1  0
  1 30  1  0
  1 31  1  0
  5 32  1  0
  5 33  1  0
  6 34  1  0
  6 35  1  0
 11 36  1  0
 12 37  1  0
 13 38  1  0
 20 39  1  0
 21 40  1  0
 23 41  1  0
 23 42  1  0
 23 43  1  0
 24 44  1  0
 25 45  1  0
 26 46  1  0
 27 47  1  0
 27 48  1  0
 28 49  1  0
 28 50  1  0
M  CHG  1  15  -1
M  END
>  <UniqueID>  (27) 
25

>  <SMILES>  (27) 
CC(=O)N1CCN(C(=O)c2cccc([N-]S(=O)(=O)c3ccc(C)cc3)c2)CC1

>  <Energy>  (27) 
58.04747688205845

>  <Genealogy>  (27) 
CC(=O)N1CCN(C(=O)c2cccc([N-]S(=O)(=O)c3ccc(C)cc3)c2)CC1 (protonated)
CC(=O)N1CCN(C(=O)c2cccc([N-]S(=O)(=O)c3ccc(C)cc3)c2)CC1 (3D coordinates assigned)
CC(=O)N1CCN(C(=O)c2cccc([N-]S(=O)(=O)c3ccc(C)cc3)c2)CC1 (nonaromatic ring conformer: 58.04747688205845 kcal/mol)

>  <smiles>  (27) 
CC(=O)N1CCN(C(=O)c2cccc(NS(=O)(=O)c3ccc(C)cc3)c2)CC1

>  <score_type>  (27) 
oracle

>  <origin>  (27) 
adg

>  <m_score__min__energy>  (27) 
-10.550000000000001

>  <m_primary>  (27) 
energy

$$$$
27:0
     RDKit          3D

 40 42  0  0  0  0  0  0  0  0999 V2000
   63.9400   33.1120   46.3690 N   0  0  0  0  0  0  0  0  0  0  0  0
   63.3920   33.3230   47.5260 C   0  0  0  0  0  0  0  0  0  0  0  0
   62.1220   33.8290   47.6650 C   0  0  0  0  0  0  0  0  0  0  0  0
   61.5350   34.0550   48.9110 C   0  0  0  0  0  0  0  0  0  0  0  0
   60.1720   34.5970   48.9180 C   0  0  0  0  0  0  0  0  0  0  0  0
   59.2940   34.0770   47.8410 C   0  0  0  0  0  0  0  0  0  0  0  0
   59.0530   34.7420   46.6610 C   0  0  0  0  0  0  0  0  0  0  0  0
   59.6430   35.9750   46.4290 O   0  0  0  0  0  0  0  0  0  0  0  0
   58.2410   34.1850   45.7380 N   0  0  0  0  0  0  0  0  0  0  0  0
   57.6540   32.9970   45.9280 C   0  0  0  0  0  0  0  0  0  0  0  0
   56.7940   32.3760   44.9810 N   0  0  0  0  0  0  0  0  0  0  0  0
   57.0750   31.3010   44.3670 C   0  0  0  0  0  0  0  0  0  0  0  0
   56.2090   30.2490   43.7730 C   0  0  0  0  0  0  0  0  0  0  0  0
   56.9800   28.9710   44.0670 C   0  0  0  0  0  0  0  0  0  0  0  0
   58.3740   29.3890   44.4890 C   0  0  0  0  0  0  0  0  0  0  0  0
   58.4720   30.8490   44.0990 C   0  0  0  0  0  0  0  0  0  0  0  0
   57.8680   32.3120   47.0780 N   0  0  0  0  0  0  0  0  0  0  0  0
   58.6710   32.8450   48.0110 C   0  0  0  0  0  0  0  0  0  0  0  0
   58.8640   32.1700   49.1120 N   0  0  0  0  0  0  0  0  0  0  0  0
   62.2840   33.7480   50.0070 C   0  0  0  0  0  0  0  0  0  0  0  0
   63.5570   33.2400   49.8540 C   0  0  0  0  0  0  0  0  0  0  0  0
   64.0980   33.0330   48.6390 N   0  0  0  0  0  0  0  0  0  0  0  0
   64.8960   32.7120   46.3130 H   0  0  0  0  0  0  0  0  0  0  0  0
   61.5453   34.0652   46.7586 H   0  0  0  0  0  0  0  0  0  0  0  0
   59.7102   34.3511   49.8856 H   0  0  0  0  0  0  0  0  0  0  0  0
   60.2666   35.6795   48.7471 H   0  0  0  0  0  0  0  0  0  0  0  0
   59.3510   36.7360   47.0290 H   0  0  0  0  0  0  0  0  0  0  0  0
   58.0760   34.7020   44.8620 H   0  0  0  0  0  0  0  0  0  0  0  0
   55.2191   30.2336   44.2524 H   0  0  0  0  0  0  0  0  0  0  0  0
   56.0116   30.4015   42.7016 H   0  0  0  0  0  0  0  0  0  0  0  0
   56.4906   28.4113   44.8777 H   0  0  0  0  0  0  0  0  0  0  0  0
   57.0142   28.3179   43.1825 H   0  0  0  0  0  0  0  0  0  0  0  0
   58.5033   29.2679   45.5746 H   0  0  0  0  0  0  0  0  0  0  0  0
   59.1542   28.7775   44.0121 H   0  0  0  0  0  0  0  0  0  0  0  0
   59.1993   31.3877   44.7242 H   0  0  0  0  0  0  0  0  0  0  0  0
   58.8194   31.0246   43.0702 H   0  0  0  0  0  0  0  0  0  0  0  0
   59.7590   31.6730   49.2960 H   0  0  0  0  0  0  0  0  0  0  0  0
   61.8729   33.9055   51.0150 H   0  0  0  0  0  0  0  0  0  0  0  0
   64.1469   32.9971   50.7502 H   0  0  0  0  0  0  0  0  0  0  0  0
   65.0640   32.6470   48.5110 H   0  0  0  0  0  0  0  0  0  0  0  0
  1  2  2  3
  2  3  1  0
  3  4  2  0
  4  5  1  0
  5  6  1  0
  6  7  2  0
  7  8  1  0
  7  9  1  0
  9 10  1  0
 10 11  1  0
 11 12  2  3
 12 13  1  0
 13 14  1  0
 14 15  1  0
 15 16  1  0
 10 17  2  0
 17 18  1  0
 18 19  2  3
  4 20  1  0
 20 21  2  0
 21 22  1  0
 22  2  1  0
 18  6  1  0
 16 12  1  0
  1 23  1  0
  3 24  1  0
  5 25  1  0
  5 26  1  0
  8 27  1  0
  9 28  1  0
 13 29  1  0
 13 30  1  0
 14 31  1  0
 14 32  1  0
 15 33  1  0
 15 34  1  0
 16 35  1  0
 16 36  1  0
 19 37  1  0
 20 38  1  0
 21 39  1  0
 22 40  1  0
M  END
>  <smiles>  (28) 
N=c1cc(Cc2c(O)[nH]c(N=C3CCCC3)nc2=N)cc[nH]1

>  <score_type>  (28) 
oracle

>  <origin>  (28) 
adg

>  <m_score__min__energy>  (28) 
-8.2400000000000002

>  <m_primary>  (28) 
energy

$$$$
28:0
     RDKit          3D

 56 58  0  0  0  0  0  0  0  0999 V2000
   62.2690   31.1190   49.6220 C   0  0  0  0  0  0  0  0  0  0  0  0
   62.6860   31.8650   48.3840 C   0  0  0  0  0  0  0  0  0  0  0  0
   62.9670   31.2140   47.3880 O   0  0  0  0  0  0  0  0  0  0  0  0
   62.7520   33.3180   48.3670 N   0  0  1  0  0  0  0  0  0  0  0  0
   62.7090   33.8660   46.9890 C   0  0  0  0  0  0  0  0  0  0  0  0
   61.2970   33.8740   46.3790 C   0  0  0  0  0  0  0  0  0  0  0  0
   60.3070   34.5920   47.2960 C   0  0  1  0  0  0  0  0  0  0  0  0
   59.0010   34.4980   46.7220 O   0  0  0  0  0  0  0  0  0  0  0  0
   58.5360   33.4530   45.9060 C   0  0  0  0  0  0  0  0  0  0  0  0
   58.2120   33.6310   44.5470 C   0  0  0  0  0  0  0  0  0  0  0  0
   57.7540   32.5520   43.7840 C   0  0  0  0  0  0  0  0  0  0  0  0
   57.6070   31.2830   44.3650 C   0  0  0  0  0  0  0  0  0  0  0  0
   57.1390   30.1130   43.5380 C   0  0  0  0  0  0  0  0  0  0  0  0
   55.9260   29.4630   44.1540 C   0  0  0  0  0  0  0  0  0  0  0  0
   54.7800   29.8060   43.7580 O   0  0  0  0  0  0  0  0  0  0  0  0
   56.0180   28.5330   45.2420 N   0  0  0  0  0  0  0  0  0  0  0  0
   57.0080   27.4670   45.4010 C   0  0  2  0  0  0  0  0  0  0  0  0
   56.4760   26.3850   46.3440 C   0  0  0  0  0  0  0  0  0  0  0  0
   58.2930   28.0470   45.9510 C   0  0  0  0  0  0  0  0  0  0  0  0
   59.3870   28.2750   45.1000 C   0  0  0  0  0  0  0  0  0  0  0  0
   60.5860   28.7850   45.6090 C   0  0  0  0  0  0  0  0  0  0  0  0
   60.7050   29.0650   46.9730 C   0  0  0  0  0  0  0  0  0  0  0  0
   59.6270   28.8310   47.8310 C   0  0  0  0  0  0  0  0  0  0  0  0
   58.4280   28.3220   47.3260 C   0  0  0  0  0  0  0  0  0  0  0  0
   57.9470   31.1040   45.7140 C   0  0  0  0  0  0  0  0  0  0  0  0
   58.4050   32.1820   46.4760 C   0  0  0  0  0  0  0  0  0  0  0  0
   60.3270   33.9410   48.6850 C   0  0  0  0  0  0  0  0  0  0  0  0
   61.7500   33.9360   49.2670 C   0  0  0  0  0  0  0  0  0  0  0  0
   62.5838   31.6822   50.5129 H   0  0  0  0  0  0  0  0  0  0  0  0
   61.1752   31.0029   49.6292 H   0  0  0  0  0  0  0  0  0  0  0  0
   62.7431   30.1264   49.6292 H   0  0  0  0  0  0  0  0  0  0  0  0
   63.6860   33.5970   48.7510 H   0  0  0  0  0  0  0  0  0  0  0  0
   63.3617   33.2535   46.3496 H   0  0  0  0  0  0  0  0  0  0  0  0
   63.0448   34.9120   47.0447 H   0  0  0  0  0  0  0  0  0  0  0  0
   60.9631   32.8363   46.2317 H   0  0  0  0  0  0  0  0  0  0  0  0
   61.3340   34.4076   45.4178 H   0  0  0  0  0  0  0  0  0  0  0  0
   60.5859   35.6508   47.4019 H   0  0  0  0  0  0  0  0  0  0  0  0
   58.3196   34.6228   44.0837 H   0  0  0  0  0  0  0  0  0  0  0  0
   57.5075   32.6989   42.7221 H   0  0  0  0  0  0  0  0  0  0  0  0
   56.8833   30.4663   42.5282 H   0  0  0  0  0  0  0  0  0  0  0  0
   57.9490   29.3700   43.4943 H   0  0  0  0  0  0  0  0  0  0  0  0
   57.2051   27.0108   44.4196 H   0  0  0  0  0  0  0  0  0  0  0  0
   56.6305   26.6992   47.3868 H   0  0  0  0  0  0  0  0  0  0  0  0
   55.4016   26.2354   46.1614 H   0  0  0  0  0  0  0  0  0  0  0  0
   57.0136   25.4428   46.1614 H   0  0  0  0  0  0  0  0  0  0  0  0
   59.3003   28.0511   44.0265 H   0  0  0  0  0  0  0  0  0  0  0  0
   61.4362   28.9659   44.9348 H   0  0  0  0  0  0  0  0  0  0  0  0
   61.6472   29.4696   47.3713 H   0  0  0  0  0  0  0  0  0  0  0  0
   59.7227   29.0478   48.9052 H   0  0  0  0  0  0  0  0  0  0  0  0
   57.5841   28.1348   48.0063 H   0  0  0  0  0  0  0  0  0  0  0  0
   57.8526   30.1095   46.1746 H   0  0  0  0  0  0  0  0  0  0  0  0
   58.6650   32.0299   47.5340 H   0  0  0  0  0  0  0  0  0  0  0  0
   59.9678   32.9046   48.6024 H   0  0  0  0  0  0  0  0  0  0  0  0
   59.6749   34.5208   49.3548 H   0  0  0  0  0  0  0  0  0  0  0  0
   61.7378   33.3747   50.2129 H   0  0  0  0  0  0  0  0  0  0  0  0
   62.0459   34.9857   49.4101 H   0  0  0  0  0  0  0  0  0  0  0  0
  1  2  1  0
  2  3  2  0
  2  4  1  0
  4  5  1  0
  5  6  1  0
  6  7  1  0
  7  8  1  0
  8  9  1  0
  9 10  2  0
 10 11  1  0
 11 12  2  0
 12 13  1  0
 13 14  1  0
 14 15  2  0
 14 16  1  0
 16 17  1  0
 17 18  1  0
 17 19  1  0
 19 20  2  0
 20 21  1  0
 21 22  2  0
 22 23  1  0
 23 24  2  0
 12 25  1  0
 25 26  2  0
  7 27  1  0
 27 28  1  0
 28  4  1  0
 26  9  1  0
 24 19  1  0
  1 29  1  0
  1 30  1  0
  1 31  1  0
  4 32  1  1
  5 33  1  0
  5 34  1  0
  6 35  1  0
  6 36  1  0
  7 37  1  1
 10 38  1  0
 11 39  1  0
 13 40  1  0
 13 41  1  0
 17 42  1  6
 18 43  1  0
 18 44  1  0
 18 45  1  0
 20 46  1  0
 21 47  1  0
 22 48  1  0
 23 49  1  0
 24 50  1  0
 25 51  1  0
 26 52  1  0
 27 53  1  0
 27 54  1  0
 28 55  1  0
 28 56  1  0
M  CHG  2   4   1  16  -1
M  END
>  <UniqueID>  (29) 
26

>  <SMILES>  (29) 
CC(=O)[NH+]1CCC(Oc2ccc(CC(=O)[N-][C@H](C)c3ccccc3)cc2)CC1

>  <Energy>  (29) 
54.83114637201748

>  <Genealogy>  (29) 
CC(=O)[NH+]1CCC(Oc2ccc(CC(=O)[N-]C(C)c3ccccc3)cc2)CC1 (protonated)
CC(=O)[NH+]1CCC(Oc2ccc(CC(=O)[N-][C@H](C)c3ccccc3)cc2)CC1 (chirality)
CC(=O)[NH+]1CCC(Oc2ccc(CC(=O)[N-][C@H](C)c3ccccc3)cc2)CC1 (3D coordinates assigned)
CC(=O)[NH+]1CCC(Oc2ccc(CC(=O)[N-][C@H](C)c3ccccc3)cc2)CC1 (nonaromatic ring conformer: 54.83114637201748 kcal/mol)

>  <smiles>  (29) 
CC(=O)N1CCC(Oc2ccc(CC(=O)NC(C)c3ccccc3)cc2)CC1

>  <score_type>  (29) 
oracle

>  <origin>  (29) 
adg

>  <m_score__min__energy>  (29) 
-9.2300000000000004

>  <m_primary>  (29) 
energy

$$$$
29:0
     RDKit          3D

 60 64  0  0  0  0  0  0  0  0999 V2000
   54.0250   26.3330   46.3930 H   0  0  0  0  0  0  0  0  0  0  0  0
   54.8010   26.3510   45.7430 O   0  0  0  0  0  0  0  0  0  0  0  0
   56.1090   26.4540   46.2050 C   0  0  0  0  0  0  0  0  0  0  0  0
   56.6330   25.6630   47.1560 N   0  0  0  0  0  0  0  0  0  0  0  0
   57.9110   26.0940   47.2280 C   0  0  0  0  0  0  0  0  0  0  0  0
   58.7520   25.5890   48.0150 O   0  0  0  0  0  0  0  0  0  0  0  0
   58.2200   27.0980   46.3790 N   0  0  0  0  0  0  0  0  0  0  0  0
   57.0570   27.3430   45.7510 C   0  0  0  0  0  0  0  0  0  0  0  0
   56.9210   28.2910   44.6350 C   0  0  0  0  0  0  0  0  0  0  0  0
   56.3807   27.9418   43.7427 H   0  0  0  0  0  0  0  0  0  0  0  0
   57.4000   29.5490   44.6100 C   0  0  0  0  0  0  0  0  0  0  0  0
   57.3830   30.3370   43.4700 C   0  0  0  0  0  0  0  0  0  0  0  0
   57.0429   30.0337   42.4688 H   0  0  0  0  0  0  0  0  0  0  0  0
   57.8740   31.5740   43.8310 C   0  0  0  0  0  0  0  0  0  0  0  0
   58.0230   32.7370   42.8960 C   0  0  0  0  0  0  0  0  0  0  0  0
   58.1416   33.6627   43.4782 H   0  0  0  0  0  0  0  0  0  0  0  0
   58.9092   32.5865   42.2620 H   0  0  0  0  0  0  0  0  0  0  0  0
   57.1275   32.8148   42.2620 H   0  0  0  0  0  0  0  0  0  0  0  0
   58.2370   31.5750   45.1320 N   0  0  0  0  0  0  0  0  0  0  0  0
   58.8320   32.6800   45.8360 C   0  0  0  0  0  0  0  0  0  0  0  0
   60.2180   32.7160   46.0430 C   0  0  0  0  0  0  0  0  0  0  0  0
   60.8460   31.8895   45.6790 H   0  0  0  0  0  0  0  0  0  0  0  0
   60.8110   33.8000   46.7120 C   0  0  0  0  0  0  0  0  0  0  0  0
   62.2720   33.8220   46.9380 C   0  0  0  0  0  0  0  0  0  0  0  0
   63.0380   34.0750   45.9680 O   0  0  0  0  0  0  0  0  0  0  0  0
   62.8350   33.5710   48.2390 N   0  0  0  0  0  0  0  0  0  0  0  0
   62.2010   34.1490   49.4330 C   0  0  0  0  0  0  0  0  0  0  0  0
   61.8217   35.1526   49.1905 H   0  0  0  0  0  0  0  0  0  0  0  0
   61.3745   33.4944   49.7467 H   0  0  0  0  0  0  0  0  0  0  0  0
   63.2070   34.2560   50.5810 C   0  0  0  0  0  0  0  0  0  0  0  0
   63.9908   34.9784   50.3093 H   0  0  0  0  0  0  0  0  0  0  0  0
   62.6794   34.5913   51.4861 H   0  0  0  0  0  0  0  0  0  0  0  0
   63.8280   32.9430   50.8490 N   0  0  0  0  0  0  0  0  0  0  0  0
   64.8050   32.9970   51.9570 C   0  0  0  0  0  0  0  0  0  0  0  0
   64.2826   33.3148   52.8714 H   0  0  0  0  0  0  0  0  0  0  0  0
   65.2403   31.9925   52.0647 H   0  0  0  0  0  0  0  0  0  0  0  0
   65.9630   33.9790   51.6840 C   0  0  0  0  0  0  0  0  0  0  0  0
   65.3387   34.8846   51.6735 H   0  0  0  0  0  0  0  0  0  0  0  0
   67.0730   33.4020   50.8180 C   0  0  0  0  0  0  0  0  0  0  0  0
   66.9854   32.3800   50.4207 H   0  0  0  0  0  0  0  0  0  0  0  0
   67.5828   33.7172   49.8956 H   0  0  0  0  0  0  0  0  0  0  0  0
   67.3070   33.6220   52.3030 C   0  0  0  0  0  0  0  0  0  0  0  0
   67.3886   32.7593   52.9806 H   0  0  0  0  0  0  0  0  0  0  0  0
   68.0560   34.1623   52.9005 H   0  0  0  0  0  0  0  0  0  0  0  0
   64.3330   32.2180   49.6520 C   0  0  0  0  0  0  0  0  0  0  0  0
   65.3990   31.9942   49.8055 H   0  0  0  0  0  0  0  0  0  0  0  0
   63.7244   31.3078   49.5466 H   0  0  0  0  0  0  0  0  0  0  0  0
   64.1870   33.0100   48.3440 C   0  0  0  0  0  0  0  0  0  0  0  0
   64.9219   33.8284   48.3309 H   0  0  0  0  0  0  0  0  0  0  0  0
   64.3620   32.3342   47.4939 H   0  0  0  0  0  0  0  0  0  0  0  0
   59.9960   34.8350   47.1990 C   0  0  0  0  0  0  0  0  0  0  0  0
   60.4477   35.6772   47.7436 H   0  0  0  0  0  0  0  0  0  0  0  0
   58.6140   34.8000   46.9950 C   0  0  0  0  0  0  0  0  0  0  0  0
   57.9830   35.6174   47.3741 H   0  0  0  0  0  0  0  0  0  0  0  0
   58.0310   33.7300   46.3110 C   0  0  0  0  0  0  0  0  0  0  0  0
   56.6900   33.7160   46.1080 F   0  0  0  0  0  0  0  0  0  0  0  0
   57.9820   30.3330   45.6200 C   0  0  0  0  0  0  0  0  0  0  0  0
   58.3880   29.9240   46.8330 C   0  0  0  0  0  0  0  0  0  0  0  0
   58.8311   30.6443   47.5365 H   0  0  0  0  0  0  0  0  0  0  0  0
   58.2774   28.8687   47.1231 H   0  0  0  0  0  0  0  0  0  0  0  0
  1  2  1  0
  2  3  1  0
  3  4  1  0
  4  5  1  0
  5  6  2  0
  5  7  1  0
  7  8  1  0
  8  9  1  0
  9 10  1  0
  9 11  2  0
 11 12  1  0
 12 13  1  0
 12 14  2  0
 14 15  1  0
 15 16  1  0
 15 17  1  0
 15 18  1  0
 14 19  1  0
 19 20  1  0
 20 21  2  0
 21 22  1  0
 21 23  1  0
 23 24  1  0
 24 25  2  0
 24 26  1  0
 26 27  1  0
 27 28  1  0
 27 29  1  0
 27 30  1  0
 30 31  1  0
 30 32  1  0
 30 33  1  0
 33 34  1  0
 34 35  1  0
 34 36  1  0
 34 37  1  0
 37 38  1  0
 37 39  1  0
 39 40  1  0
 39 41  1  0
 39 42  1  0
 42 43  1  0
 42 44  1  0
 33 45  1  0
 45 46  1  0
 45 47  1  0
 45 48  1  0
 48 49  1  0
 48 50  1  0
 23 51  2  0
 51 52  1  0
 51 53  1  0
 53 54  1  0
 53 55  2  0
 55 56  1  0
 19 57  1  0
 57 58  2  0
 58 59  1  0
 58 60  1  0
  8  3  2  0
 57 11  1  0
 55 20  1  0
 48 26  1  0
 42 37  1  0
M  CHG  2   4  -1   7  -1
M  END
>  <UniqueID>  (30) 
27

>  <SMILES>  (30) 
C=c1/c(=C\c2[n-]c(=O)[n-]c2O)cc(C)n1-c1cc(C(=O)N2CCN(CC3CC3)CC2)ccc1F

>  <Energy>  (30) 
414.4383693941927

>  <Genealogy>  (30) 
C=c1c(=Cc2[n-]c(=O)[n-]c2O)cc(C)n1-c1cc(C(=O)N2CCN(CC3CC3)CC2)ccc1F (protonated)
C=c1/c(=C\c2[n-]c(=O)[n-]c2O)cc(C)n1-c1cc(C(=O)N2CCN(CC3CC3)CC2)ccc1F (cis-trans isomerization)
C=c1/c(=C\c2[n-]c(=O)[n-]c2O)cc(C)n1-c1cc(C(=O)N2CCN(CC3CC3)CC2)ccc1F (3D coordinates assigned)
C=c1/c(=C\c2[n-]c(=O)[n-]c2O)cc(C)n1-c1cc(C(=O)N2CCN(CC3CC3)CC2)ccc1F (nonaromatic ring conformer: 414.4383693941927 kcal/mol)

>  <smiles>  (30) 
C=c1c(=Cc2[nH]c(=O)[nH]c2O)cc(C)n1-c1cc(C(=O)N2CCN(CC3CC3)CC2)ccc1F

>  <score_type>  (30) 
oracle

>  <origin>  (30) 
adg

>  <m_score__min__energy>  (30) 
-14.390000000000001

>  <m_primary>  (30) 
energy

$$$$
30:0
     RDKit          3D

 57 61  0  0  0  0  0  0  0  0999 V2000
   58.9330   26.1620   45.9090 O   0  0  0  0  0  0  0  0  0  0  0  0
   57.9700   25.8390   45.1580 C   0  0  0  0  0  0  0  0  0  0  0  0
   57.8150   26.4910   43.8860 N   0  0  0  0  0  0  0  0  0  0  0  0
   58.7940   27.4480   43.3750 C   0  0  0  0  0  0  0  0  0  0  0  0
   59.0710   28.5110   44.4020 C   0  0  0  0  0  0  0  0  0  0  0  0
   60.3410   28.6060   44.9890 C   0  0  0  0  0  0  0  0  0  0  0  0
   60.6120   29.6030   45.9300 C   0  0  0  0  0  0  0  0  0  0  0  0
   59.6200   30.5300   46.3000 C   0  0  0  0  0  0  0  0  0  0  0  0
   59.9170   31.5850   47.3020 C   0  0  0  0  0  0  0  0  0  0  0  0
   59.1280   32.6960   47.6080 C   0  0  0  0  0  0  0  0  0  0  0  0
   59.6720   33.5170   48.6030 C   0  0  0  0  0  0  0  0  0  0  0  0
   60.8950   33.0650   49.0890 C   0  0  0  0  0  0  0  0  0  0  0  0
   61.7320   33.7100   50.1600 C   0  0  0  0  0  0  0  0  0  0  0  0
   63.2100   33.8150   49.7330 C   0  0  0  0  0  0  0  0  0  0  0  0
   64.1320   34.0090   50.9520 C   0  0  0  0  0  0  0  0  0  0  0  0
   63.4230   34.5630   52.0420 O   0  0  0  0  0  0  0  0  0  0  0  0
   62.5160   33.6070   52.5720 C   0  0  0  0  0  0  0  0  0  0  0  0
   61.6120   32.9620   51.4950 C   0  0  0  0  0  0  0  0  0  0  0  0
   61.2910   31.6460   48.2820 S   0  0  0  0  0  0  0  0  0  0  0  0
   58.3480   30.4300   45.7040 C   0  0  0  0  0  0  0  0  0  0  0  0
   58.0780   29.4320   44.7640 C   0  0  0  0  0  0  0  0  0  0  0  0
   57.0100   24.8050   45.6150 C   0  0  0  0  0  0  0  0  0  0  0  0
   56.4500   23.9090   44.6860 C   0  0  0  0  0  0  0  0  0  0  0  0
   55.5390   22.9330   45.1010 C   0  0  0  0  0  0  0  0  0  0  0  0
   55.1720   22.8330   46.4500 C   0  0  0  0  0  0  0  0  0  0  0  0
   54.1640   21.8090   46.8900 C   0  0  0  0  0  0  0  0  0  0  0  0
   52.9460   21.8870   46.0270 C   0  0  0  0  0  0  0  0  0  0  0  0
   52.6190   22.9500   45.2710 N   0  0  0  0  0  0  0  0  0  0  0  0
   51.5230   22.5790   44.6300 N   0  0  0  0  0  0  0  0  0  0  0  0
   51.2010   21.3410   44.9730 N   0  0  0  0  0  0  0  0  0  0  0  0
   52.0800   20.8740   45.8450 N   0  0  0  0  0  0  0  0  0  0  0  0
   55.7090   23.7400   47.3770 C   0  0  0  0  0  0  0  0  0  0  0  0
   56.6210   24.7170   46.9640 C   0  0  0  0  0  0  0  0  0  0  0  0
   56.9500   26.3370   43.3230 H   0  0  0  0  0  0  0  0  0  0  0  0
   59.7292   26.9192   43.1390 H   0  0  0  0  0  0  0  0  0  0  0  0
   58.3903   27.9230   42.4687 H   0  0  0  0  0  0  0  0  0  0  0  0
   61.1285   27.8916   44.7071 H   0  0  0  0  0  0  0  0  0  0  0  0
   61.6111   29.6638   46.3862 H   0  0  0  0  0  0  0  0  0  0  0  0
   58.1683   32.9064   47.1132 H   0  0  0  0  0  0  0  0  0  0  0  0
   59.1799   34.4315   48.9657 H   0  0  0  0  0  0  0  0  0  0  0  0
   61.3427   34.7288   50.3030 H   0  0  0  0  0  0  0  0  0  0  0  0
   63.4981   32.8917   49.2090 H   0  0  0  0  0  0  0  0  0  0  0  0
   63.3195   34.6876   49.0723 H   0  0  0  0  0  0  0  0  0  0  0  0
   64.5442   33.0336   51.2498 H   0  0  0  0  0  0  0  0  0  0  0  0
   64.9404   34.7007   50.6726 H   0  0  0  0  0  0  0  0  0  0  0  0
   63.0946   32.8118   53.0647 H   0  0  0  0  0  0  0  0  0  0  0  0
   61.8579   34.1364   53.2768 H   0  0  0  0  0  0  0  0  0  0  0  0
   61.9158   31.9148   51.3497 H   0  0  0  0  0  0  0  0  0  0  0  0
   60.5672   33.0151   51.8351 H   0  0  0  0  0  0  0  0  0  0  0  0
   57.5591   31.1447   45.9812 H   0  0  0  0  0  0  0  0  0  0  0  0
   57.0802   29.3686   44.3053 H   0  0  0  0  0  0  0  0  0  0  0  0
   56.7312   23.9769   43.6247 H   0  0  0  0  0  0  0  0  0  0  0  0
   55.1076   22.2393   44.3643 H   0  0  0  0  0  0  0  0  0  0  0  0
   54.6052   20.8047   46.8076 H   0  0  0  0  0  0  0  0  0  0  0  0
   53.8801   22.0072   47.9341 H   0  0  0  0  0  0  0  0  0  0  0  0
   55.4110   23.6822   48.4343 H   0  0  0  0  0  0  0  0  0  0  0  0
   57.0369   25.4215   47.6993 H   0  0  0  0  0  0  0  0  0  0  0  0
  1  2  2  0
  2  3  1  0
  3  4  1  0
  4  5  1  0
  5  6  2  0
  6  7  1  0
  7  8  2  0
  8  9  1  0
  9 10  2  0
 10 11  1  0
 11 12  2  0
 12 13  1  0
 13 14  1  0
 14 15  1  0
 15 16  1  0
 16 17  1  0
 17 18  1  0
 12 19  1  0
  8 20  1  0
 20 21  2  0
  2 22  1  0
 22 23  2  0
 23 24  1  0
 24 25  2  0
 25 26  1  0
 26 27  1  0
 27 28  1  0
 28 29  2  0
 29 30  1  0
 30 31  1  0
 25 32  1  0
 32 33  2  0
 21  5  1  0
 33 22  1  0
 19  9  1  0
 31 27  2  0
 18 13  1  0
  3 34  1  0
  4 35  1  0
  4 36  1  0
  6 37  1  0
  7 38  1  0
 10 39  1  0
 11 40  1  0
 13 41  1  0
 14 42  1  0
 14 43  1  0
 15 44  1  0
 15 45  1  0
 17 46  1  0
 17 47  1  0
 18 48  1  0
 18 49  1  0
 20 50  1  0
 21 51  1  0
 23 52  1  0
 24 53  1  0
 26 54  1  0
 26 55  1  0
 32 56  1  0
 33 57  1  0
M  CHG  1  30  -1
M  END
>  <UniqueID>  (31) 
28

>  <SMILES>  (31) 
O=C(NCc1ccc(-c2ccc(C3CCOCC3)s2)cc1)c1ccc(Cc2nn[n-]n2)cc1

>  <Energy>  (31) 
132.84886516148367

>  <Genealogy>  (31) 
O=C(NCc1ccc(-c2ccc(C3CCOCC3)s2)cc1)c1ccc(Cc2nn[n-]n2)cc1 (protonated)
O=C(NCc1ccc(-c2ccc(C3CCOCC3)s2)cc1)c1ccc(Cc2nn[n-]n2)cc1 (3D coordinates assigned)
O=C(NCc1ccc(-c2ccc(C3CCOCC3)s2)cc1)c1ccc(Cc2nn[n-]n2)cc1 (nonaromatic ring conformer: 132.84886516148367 kcal/mol)

>  <smiles>  (31) 
O=C(NCc1ccc(-c2ccc(C3CCOCC3)s2)cc1)c1ccc(Cc2nn[nH]n2)cc1

>  <score_type>  (31) 
oracle

>  <origin>  (31) 
adg

>  <m_score__min__energy>  (31) 
-10.77

>  <m_primary>  (31) 
energy

$$$$
31:0
     RDKit          3D

 53 55  0  0  0  0  0  0  0  0999 V2000
   63.3370   33.9310   46.3800 C   0  0  0  0  0  0  0  0  0  0  0  0
   63.3960   33.0910   47.4150 C   0  0  0  0  0  0  0  0  0  0  0  0
   62.3760   33.1520   48.5200 C   0  0  0  0  0  0  0  0  0  0  0  0
   61.8870   31.8120   48.8670 N   0  0  0  0  0  0  0  0  0  0  0  0
   62.2770   31.2260   50.1170 C   0  0  0  0  0  0  0  0  0  0  0  0
   63.3400   30.5460   50.1660 O   0  0  0  0  0  0  0  0  0  0  0  0
   61.3950   31.3680   51.3430 C   0  0  0  0  0  0  0  0  0  0  0  0
   61.9960   30.5340   52.4890 C   0  0  0  0  0  0  0  0  0  0  0  0
   61.3310   32.8470   51.7960 C   0  0  0  0  0  0  0  0  0  0  0  0
   60.0030   30.8450   51.0390 C   0  0  0  0  0  0  0  0  0  0  0  0
   59.5320   29.8650   51.6810 O   0  0  0  0  0  0  0  0  0  0  0  0
   59.2460   31.3820   49.9460 N   0  0  0  0  0  0  0  0  0  0  0  0
   58.4560   32.5910   50.1830 C   0  0  0  0  0  0  0  0  0  0  0  0
   59.5680   30.9840   48.6010 C   0  0  0  0  0  0  0  0  0  0  0  0
   58.5780   30.4010   47.7910 C   0  0  0  0  0  0  0  0  0  0  0  0
   58.8620   30.0280   46.4740 C   0  0  0  0  0  0  0  0  0  0  0  0
   57.7740   29.5730   45.5950 C   0  0  0  0  0  0  0  0  0  0  0  0
   57.7610   28.3780   45.1990 O   0  0  0  0  0  0  0  0  0  0  0  0
   56.6910   30.4420   45.2340 N   0  0  0  0  0  0  0  0  0  0  0  0
   56.8180   31.6790   44.4650 C   0  0  0  0  0  0  0  0  0  0  0  0
   57.6940   32.6810   45.1780 C   0  0  0  0  0  0  0  0  0  0  0  0
   58.8220   33.2180   44.5370 C   0  0  0  0  0  0  0  0  0  0  0  0
   59.6040   34.1830   45.1810 C   0  0  0  0  0  0  0  0  0  0  0  0
   59.2710   34.6120   46.4680 C   0  0  0  0  0  0  0  0  0  0  0  0
   58.1580   34.0720   47.1180 C   0  0  0  0  0  0  0  0  0  0  0  0
   57.3780   33.1030   46.4820 C   0  0  0  0  0  0  0  0  0  0  0  0
   60.1600   30.1750   45.9770 C   0  0  0  0  0  0  0  0  0  0  0  0
   61.1560   30.7360   46.7770 C   0  0  0  0  0  0  0  0  0  0  0  0
   60.8670   31.1710   48.0810 C   0  0  0  0  0  0  0  0  0  0  0  0
   64.0906   33.8728   45.5808 H   0  0  0  0  0  0  0  0  0  0  0  0
   62.5348   34.6817   46.3259 H   0  0  0  0  0  0  0  0  0  0  0  0
   64.2015   32.3433   47.4613 H   0  0  0  0  0  0  0  0  0  0  0  0
   62.8372   33.6068   49.4091 H   0  0  0  0  0  0  0  0  0  0  0  0
   61.5234   33.7545   48.1735 H   0  0  0  0  0  0  0  0  0  0  0  0
   61.6878   30.9617   53.4544 H   0  0  0  0  0  0  0  0  0  0  0  0
   61.6362   29.4971   52.4157 H   0  0  0  0  0  0  0  0  0  0  0  0
   63.0935   30.5473   52.4157 H   0  0  0  0  0  0  0  0  0  0  0  0
   61.3290   32.8941   52.8950 H   0  0  0  0  0  0  0  0  0  0  0  0
   62.2066   33.3877   51.4074 H   0  0  0  0  0  0  0  0  0  0  0  0
   60.4120   33.3101   51.4074 H   0  0  0  0  0  0  0  0  0  0  0  0
   58.3499   32.7533   51.2658 H   0  0  0  0  0  0  0  0  0  0  0  0
   58.9640   33.4555   49.7307 H   0  0  0  0  0  0  0  0  0  0  0  0
   57.4603   32.4729   49.7307 H   0  0  0  0  0  0  0  0  0  0  0  0
   57.5693   30.2366   48.1977 H   0  0  0  0  0  0  0  0  0  0  0  0
   57.2620   31.4479   43.4855 H   0  0  0  0  0  0  0  0  0  0  0  0
   55.8163   32.1173   44.3447 H   0  0  0  0  0  0  0  0  0  0  0  0
   59.0916   32.8791   43.5258 H   0  0  0  0  0  0  0  0  0  0  0  0
   60.4834   34.6050   44.6725 H   0  0  0  0  0  0  0  0  0  0  0  0
   59.8847   35.3747   46.9697 H   0  0  0  0  0  0  0  0  0  0  0  0
   57.8958   34.4102   48.1313 H   0  0  0  0  0  0  0  0  0  0  0  0
   56.5126   32.6680   47.0035 H   0  0  0  0  0  0  0  0  0  0  0  0
   60.3967   29.8480   44.9538 H   0  0  0  0  0  0  0  0  0  0  0  0
   62.1777   30.8387   46.3826 H   0  0  0  0  0  0  0  0  0  0  0  0
  1  2  2  0
  2  3  1  0
  3  4  1  0
  4  5  1  0
  5  6  2  0
  5  7  1  0
  7  8  1  0
  7  9  1  0
  7 10  1  0
 10 11  2  0
 10 12  1  0
 12 13  1  0
 12 14  1  0
 14 15  2  0
 15 16  1  0
 16 17  1  0
 17 18  2  0
 17 19  1  0
 19 20  1  0
 20 21  1  0
 21 22  2  0
 22 23  1  0
 23 24  2  0
 24 25  1  0
 25 26  2  0
 16 27  2  0
 27 28  1  0
 28 29  2  0
 29  4  1  0
 29 14  1  0
 26 21  1  0
  1 30  1  0
  1 31  1  0
  2 32  1  0
  3 33  1  0
  3 34  1  0
  8 35  1  0
  8 36  1  0
  8 37  1  0
  9 38  1  0
  9 39  1  0
  9 40  1  0
 13 41  1  0
 13 42  1  0
 13 43  1  0
 15 44  1  0
 20 45  1  0
 20 46  1  0
 22 47  1  0
 23 48  1  0
 24 49  1  0
 25 50  1  0
 26 51  1  0
 27 52  1  0
 28 53  1  0
M  CHG  1  19  -1
M  END
>  <UniqueID>  (32) 
29

>  <SMILES>  (32) 
C=CCN1C(=O)C(C)(C)C(=O)N(C)c2cc(C(=O)[N-]Cc3ccccc3)ccc21

>  <Energy>  (32) 
74.80556674263939

>  <Genealogy>  (32) 
C=CCN1C(=O)C(C)(C)C(=O)N(C)c2cc(C(=O)[N-]Cc3ccccc3)ccc21 (protonated)
C=CCN1C(=O)C(C)(C)C(=O)N(C)c2cc(C(=O)[N-]Cc3ccccc3)ccc21 (3D coordinates assigned)
C=CCN1C(=O)C(C)(C)C(=O)N(C)c2cc(C(=O)[N-]Cc3ccccc3)ccc21 (nonaromatic ring conformer: 74.80556674263939 kcal/mol)

>  <smiles>  (32) 
C=CCN1C(=O)C(C)(C)C(=O)N(C)c2cc(C(=O)NCc3ccccc3)ccc21

>  <score_type>  (32) 
oracle

>  <origin>  (32) 
adg

>  <m_score__min__energy>  (32) 
-8.6300000000000008

>  <m_primary>  (32) 
energy

$$$$
32:0
     RDKit          3D

 56 59  0  0  0  0  0  0  0  0999 V2000
   54.4170   25.0130   45.7440 N   0  0  0  0  0  0  0  0  0  0  0  0
   54.1250   23.4180   45.1430 S   0  0  0  0  0  0  0  0  0  0  0  0
   54.9730   23.1880   43.9230 O   0  0  0  0  0  0  0  0  0  0  0  0
   52.6720   23.3100   44.7730 O   0  0  0  0  0  0  0  0  0  0  0  0
   54.5200   22.2100   46.3780 C   0  0  0  0  0  0  0  0  0  0  0  0
   53.5850   21.2070   46.6770 C   0  0  0  0  0  0  0  0  0  0  0  0
   53.8860   20.2090   47.6080 C   0  0  0  0  0  0  0  0  0  0  0  0
   55.1220   20.2050   48.2550 C   0  0  0  0  0  0  0  0  0  0  0  0
   56.0580   21.2020   47.9800 C   0  0  0  0  0  0  0  0  0  0  0  0
   55.7670   22.2150   47.0530 C   0  0  0  0  0  0  0  0  0  0  0  0
   56.7820   23.2570   46.8080 C   0  0  0  0  0  0  0  0  0  0  0  0
   57.7270   23.0910   45.7860 C   0  0  0  0  0  0  0  0  0  0  0  0
   58.6820   24.0820   45.5440 C   0  0  0  0  0  0  0  0  0  0  0  0
   58.7080   25.2510   46.3240 C   0  0  0  0  0  0  0  0  0  0  0  0
   59.7270   26.2960   46.0680 C   0  0  0  0  0  0  0  0  0  0  0  0
   60.9470   25.9750   46.0390 O   0  0  0  0  0  0  0  0  0  0  0  0
   59.3580   27.6740   45.8720 N   0  0  0  0  0  0  0  0  0  0  0  0
   58.3360   28.0310   44.8760 C   0  0  0  0  0  0  0  0  0  0  0  0
   57.4120   29.1350   45.4120 C   0  0  0  0  0  0  0  0  0  0  0  0
   58.1600   30.2060   46.2470 C   0  0  0  0  0  0  0  0  0  0  0  0
   57.6620   31.5630   45.9740 N   0  0  0  0  0  0  0  0  0  0  0  0
   58.3190   32.8120   46.2870 C   0  0  0  0  0  0  0  0  0  0  0  0
   58.5260   33.7420   45.2540 C   0  0  0  0  0  0  0  0  0  0  0  0
   59.1590   34.9640   45.5080 C   0  0  0  0  0  0  0  0  0  0  0  0
   59.3350   35.8580   44.5040 F   0  0  0  0  0  0  0  0  0  0  0  0
   59.6080   35.2630   46.7940 C   0  0  0  0  0  0  0  0  0  0  0  0
   59.4210   34.3460   47.8300 C   0  0  0  0  0  0  0  0  0  0  0  0
   59.8580   34.6400   49.0790 F   0  0  0  0  0  0  0  0  0  0  0  0
   58.7830   33.1260   47.5800 C   0  0  0  0  0  0  0  0  0  0  0  0
   59.6940   30.1270   46.1260 C   0  0  0  0  0  0  0  0  0  0  0  0
   60.1860   28.7210   46.4910 C   0  0  0  0  0  0  0  0  0  0  0  0
   57.7780   25.3960   47.3670 C   0  0  0  0  0  0  0  0  0  0  0  0
   56.8200   24.4080   47.6050 C   0  0  0  0  0  0  0  0  0  0  0  0
   55.2240   25.3990   45.2020 H   0  0  0  0  0  0  0  0  0  0  0  0
   54.7450   24.9120   46.7310 H   0  0  0  0  0  0  0  0  0  0  0  0
   52.6066   21.2063   46.1742 H   0  0  0  0  0  0  0  0  0  0  0  0
   53.1470   19.4253   47.8310 H   0  0  0  0  0  0  0  0  0  0  0  0
   55.3587   19.4148   48.9827 H   0  0  0  0  0  0  0  0  0  0  0  0
   57.0309   21.1943   48.4932 H   0  0  0  0  0  0  0  0  0  0  0  0
   57.7168   22.1779   45.1727 H   0  0  0  0  0  0  0  0  0  0  0  0
   59.4181   23.9464   44.7379 H   0  0  0  0  0  0  0  0  0  0  0  0
   58.8329   28.3890   43.9623 H   0  0  0  0  0  0  0  0  0  0  0  0
   57.7297   27.1393   44.6587 H   0  0  0  0  0  0  0  0  0  0  0  0
   56.9293   29.6322   44.5577 H   0  0  0  0  0  0  0  0  0  0  0  0
   56.6803   28.6540   46.0778 H   0  0  0  0  0  0  0  0  0  0  0  0
   57.9316   29.9700   47.2968 H   0  0  0  0  0  0  0  0  0  0  0  0
   56.6840   31.6210   45.6080 H   0  0  0  0  0  0  0  0  0  0  0  0
   58.1867   33.5068   44.2344 H   0  0  0  0  0  0  0  0  0  0  0  0
   60.1097   36.2217   46.9922 H   0  0  0  0  0  0  0  0  0  0  0  0
   58.6425   32.4060   48.3997 H   0  0  0  0  0  0  0  0  0  0  0  0
   59.9885   30.3571   45.0915 H   0  0  0  0  0  0  0  0  0  0  0  0
   60.1450   30.8541   46.8173 H   0  0  0  0  0  0  0  0  0  0  0  0
   61.2235   28.6058   46.1442 H   0  0  0  0  0  0  0  0  0  0  0  0
   60.1191   28.6084   47.5832 H   0  0  0  0  0  0  0  0  0  0  0  0
   57.8046   26.2945   48.0010 H   0  0  0  0  0  0  0  0  0  0  0  0
   56.0931   24.5342   48.4209 H   0  0  0  0  0  0  0  0  0  0  0  0
  1  2  1  0
  2  3  2  0
  2  4  2  0
  2  5  1  0
  5  6  2  0
  6  7  1  0
  7  8  2  0
  8  9  1  0
  9 10  2  0
 10 11  1  0
 11 12  2  0
 12 13  1  0
 13 14  2  0
 14 15  1  0
 15 16  2  0
 15 17  1  0
 17 18  1  0
 18 19  1  0
 19 20  1  0
 20 21  1  0
 21 22  1  0
 22 23  2  0
 23 24  1  0
 24 25  1  0
 24 26  2  0
 26 27  1  0
 27 28  1  0
 27 29  2  0
 20 30  1  0
 30 31  1  0
 14 32  1  0
 32 33  2  0
 10  5  1  0
 33 11  1  0
 31 17  1  0
 29 22  1  0
  1 34  1  0
  1 35  1  0
  6 36  1  0
  7 37  1  0
  8 38  1  0
  9 39  1  0
 12 40  1  0
 13 41  1  0
 18 42  1  0
 18 43  1  0
 19 44  1  0
 19 45  1  0
 20 46  1  0
 21 47  1  0
 23 48  1  0
 26 49  1  0
 29 50  1  0
 30 51  1  0
 30 52  1  0
 31 53  1  0
 31 54  1  0
 32 55  1  0
 33 56  1  0
M  END
>  <UniqueID>  (33) 
30

>  <SMILES>  (33) 
NS(=O)(=O)c1ccccc1-c1ccc(C(=O)N2CCC(Nc3cc(F)cc(F)c3)CC2)cc1

>  <Energy>  (33) 
76.22985511440197

>  <Genealogy>  (33) 
NS(=O)(=O)c1ccccc1-c1ccc(C(=O)N2CCC(Nc3cc(F)cc(F)c3)CC2)cc1 (3D coordinates assigned)
NS(=O)(=O)c1ccccc1-c1ccc(C(=O)N2CCC(Nc3cc(F)cc(F)c3)CC2)cc1 (nonaromatic ring conformer: 76.22985511440197 kcal/mol)

>  <smiles>  (33) 
NS(=O)(=O)c1ccccc1-c1ccc(C(=O)N2CCC(Nc3cc(F)cc(F)c3)CC2)cc1

>  <score_type>  (33) 
oracle

>  <origin>  (33) 
adg

>  <m_score__min__energy>  (33) 
-8.7599999999999998

>  <m_primary>  (33) 
energy

$$$$
33:0
     RDKit          3D

 54 57  0  0  0  0  0  0  0  0999 V2000
   67.1370   30.1850   51.0540 N   0  0  0  0  0  0  0  0  0  0  0  0
   66.6960   31.5420   51.1400 C   0  0  0  0  0  0  0  0  0  0  0  0
   65.3620   31.8630   50.8450 C   0  0  0  0  0  0  0  0  0  0  0  0
   64.9120   33.1920   50.9330 C   0  0  0  0  0  0  0  0  0  0  0  0
   63.4980   33.5290   50.6630 C   0  0  0  0  0  0  0  0  0  0  0  0
   62.7030   33.6270   51.6410 O   0  0  0  0  0  0  0  0  0  0  0  0
   63.0040   33.6950   49.3110 N   0  0  0  0  0  0  0  0  0  0  0  0
   61.7320   34.3950   49.0700 C   0  0  0  0  0  0  0  0  0  0  0  0
   60.6900   33.3940   48.5450 C   0  0  0  0  0  0  0  0  0  0  0  0
   61.2880   32.4600   47.5780 N   0  0  0  0  0  0  0  0  0  0  0  0
   60.5940   31.2360   47.2680 C   0  0  0  0  0  0  0  0  0  0  0  0
   61.1410   30.2910   46.3850 C   0  0  0  0  0  0  0  0  0  0  0  0
   60.4690   29.0900   46.1570 C   0  0  0  0  0  0  0  0  0  0  0  0
   59.2630   28.8210   46.8190 C   0  0  0  0  0  0  0  0  0  0  0  0
   58.5460   27.5410   46.6020 C   0  0  0  0  0  0  0  0  0  0  0  0
   58.7950   26.4700   47.4810 C   0  0  0  0  0  0  0  0  0  0  0  0
   58.1040   25.2630   47.3450 C   0  0  0  0  0  0  0  0  0  0  0  0
   57.1620   25.1070   46.3290 C   0  0  0  0  0  0  0  0  0  0  0  0
   56.9090   26.1550   45.4400 C   0  0  0  0  0  0  0  0  0  0  0  0
   57.5930   27.3790   45.5600 C   0  0  0  0  0  0  0  0  0  0  0  0
   57.3600   28.4330   44.5420 C   0  0  0  0  0  0  0  0  0  0  0  0
   58.0160   28.4090   43.4650 O   0  0  0  0  0  0  0  0  0  0  0  0
   56.3780   29.5140   44.7540 C   0  0  0  0  0  0  0  0  0  0  0  0
   55.1520   29.2530   44.8710 O   0  0  0  0  0  0  0  0  0  0  0  0
   56.8060   30.8310   44.8630 O   0  0  0  0  0  0  0  0  0  0  0  0
   58.7450   29.7910   47.6880 C   0  0  0  0  0  0  0  0  0  0  0  0
   59.4180   30.9540   47.8960 N   0  0  0  0  0  0  0  0  0  0  0  0
   62.6270   32.7520   47.0420 C   0  0  0  0  0  0  0  0  0  0  0  0
   63.6110   32.9260   48.2060 C   0  0  0  0  0  0  0  0  0  0  0  0
   65.8180   34.2030   51.2710 C   0  0  0  0  0  0  0  0  0  0  0  0
   67.1460   33.8890   51.5710 C   0  0  0  0  0  0  0  0  0  0  0  0
   67.5890   32.5600   51.5180 C   0  0  0  0  0  0  0  0  0  0  0  0
   68.9100   32.2490   51.8400 O   0  0  0  0  0  0  0  0  0  0  0  0
   66.4760   29.4140   50.8060 H   0  0  0  0  0  0  0  0  0  0  0  0
   68.1340   29.9360   51.2420 H   0  0  0  0  0  0  0  0  0  0  0  0
   64.6634   31.0689   50.5427 H   0  0  0  0  0  0  0  0  0  0  0  0
   61.3734   34.8388   50.0105 H   0  0  0  0  0  0  0  0  0  0  0  0
   61.8854   35.1902   48.3256 H   0  0  0  0  0  0  0  0  0  0  0  0
   60.2838   32.8218   49.3921 H   0  0  0  0  0  0  0  0  0  0  0  0
   59.8921   33.9563   48.0378 H   0  0  0  0  0  0  0  0  0  0  0  0
   62.0942   30.4967   45.8759 H   0  0  0  0  0  0  0  0  0  0  0  0
   60.8865   28.3522   45.4560 H   0  0  0  0  0  0  0  0  0  0  0  0
   59.5401   26.5842   48.2821 H   0  0  0  0  0  0  0  0  0  0  0  0
   58.3036   24.4346   48.0407 H   0  0  0  0  0  0  0  0  0  0  0  0
   56.6169   24.1570   46.2270 H   0  0  0  0  0  0  0  0  0  0  0  0
   56.1677   26.0219   44.6383 H   0  0  0  0  0  0  0  0  0  0  0  0
   57.7903   29.6107   48.2038 H   0  0  0  0  0  0  0  0  0  0  0  0
   62.9568   31.9195   46.4031 H   0  0  0  0  0  0  0  0  0  0  0  0
   62.5926   33.6763   46.4467 H   0  0  0  0  0  0  0  0  0  0  0  0
   63.9042   31.9335   48.5788 H   0  0  0  0  0  0  0  0  0  0  0  0
   64.4885   33.4787   47.8393 H   0  0  0  0  0  0  0  0  0  0  0  0
   65.4832   35.2504   51.3007 H   0  0  0  0  0  0  0  0  0  0  0  0
   67.8476   34.6888   51.8502 H   0  0  0  0  0  0  0  0  0  0  0  0
   69.1330   31.6130   52.6000 H   0  0  0  0  0  0  0  0  0  0  0  0
  1  2  1  0
  2  3  2  0
  3  4  1  0
  4  5  1  0
  5  6  2  0
  5  7  1  0
  7  8  1  0
  8  9  1  0
  9 10  1  0
 10 11  1  0
 11 12  2  0
 12 13  1  0
 13 14  2  0
 14 15  1  0
 15 16  2  0
 16 17  1  0
 17 18  2  0
 18 19  1  0
 19 20  2  0
 20 21  1  0
 21 22  2  0
 21 23  1  0
 23 24  2  0
 23 25  1  0
 14 26  1  0
 26 27  2  0
 10 28  1  0
 28 29  1  0
  4 30  2  0
 30 31  1  0
 31 32  2  0
 32 33  1  0
 32  2  1  0
 29  7  1  0
 27 11  1  0
 20 15  1  0
  1 34  1  0
  1 35  1  0
  3 36  1  0
  8 37  1  0
  8 38  1  0
  9 39  1  0
  9 40  1  0
 12 41  1  0
 13 42  1  0
 16 43  1  0
 17 44  1  0
 18 45  1  0
 19 46  1  0
 26 47  1  0
 28 48  1  0
 28 49  1  0
 29 50  1  0
 29 51  1  0
 30 52  1  0
 31 53  1  0
 33 54  1  0
M  CHG  1  25  -1
M  END
>  <UniqueID>  (34) 
31

>  <SMILES>  (34) 
Nc1cc(C(=O)N2CCN(c3ccc(-c4ccccc4C(=O)C(=O)[O-])cn3)CC2)ccc1O

>  <Energy>  (34) 
79.97497070862794

>  <Genealogy>  (34) 
Nc1cc(C(=O)N2CCN(c3ccc(-c4ccccc4C(=O)C(=O)[O-])cn3)CC2)ccc1O (protonated)
Nc1cc(C(=O)N2CCN(c3ccc(-c4ccccc4C(=O)C(=O)[O-])cn3)CC2)ccc1O (3D coordinates assigned)
Nc1cc(C(=O)N2CCN(c3ccc(-c4ccccc4C(=O)C(=O)[O-])cn3)CC2)ccc1O (nonaromatic ring conformer: 79.97497070862794 kcal/mol)

>  <smiles>  (34) 
Nc1cc(C(=O)N2CCN(c3ccc(-c4ccccc4C(=O)C(=O)O)cn3)CC2)ccc1O

>  <score_type>  (34) 
oracle

>  <origin>  (34) 
adg

>  <m_score__min__energy>  (34) 
-11.44

>  <m_primary>  (34) 
energy

$$$$
34:0
     RDKit          3D

 64 67  0  0  0  0  0  0  0  0999 V2000
   59.0970   29.5810   48.9220 C   0  0  0  0  0  0  0  0  0  0  0  0
   60.1190   30.1970   48.0530 N   0  0  0  0  0  0  0  0  0  0  0  0
   60.5310   29.2500   46.9940 C   0  0  0  0  0  0  0  0  0  0  0  0
   59.4150   28.2860   46.6840 C   0  0  0  0  0  0  0  0  0  0  0  0
   59.4360   26.9780   47.1940 C   0  0  0  0  0  0  0  0  0  0  0  0
   58.3890   26.0950   46.9130 C   0  0  0  0  0  0  0  0  0  0  0  0
   57.3120   26.5070   46.1170 C   0  0  0  0  0  0  0  0  0  0  0  0
   55.9870   25.4000   45.7750 S   0  0  0  0  0  0  0  0  0  0  0  0
   56.2770   24.6060   44.2670 N   0  0  0  0  0  0  0  0  0  0  0  0
   54.6920   26.1610   45.7050 O   0  0  0  0  0  0  0  0  0  0  0  0
   55.8860   24.3760   46.8710 O   0  0  0  0  0  0  0  0  0  0  0  0
   57.2840   27.8160   45.6160 C   0  0  0  0  0  0  0  0  0  0  0  0
   58.3300   28.7000   45.8960 C   0  0  0  0  0  0  0  0  0  0  0  0
   61.2930   30.6120   48.8510 C   0  0  0  0  0  0  0  0  0  0  0  0
   60.8940   31.6080   49.9200 C   0  0  0  0  0  0  0  0  0  0  0  0
   60.5890   31.1140   51.2010 C   0  0  0  0  0  0  0  0  0  0  0  0
   60.2760   31.9860   52.2460 C   0  0  0  0  0  0  0  0  0  0  0  0
   60.2650   33.3620   52.0290 C   0  0  0  0  0  0  0  0  0  0  0  0
   60.5610   33.8720   50.7630 C   0  0  0  0  0  0  0  0  0  0  0  0
   60.8730   33.0100   49.7000 C   0  0  0  0  0  0  0  0  0  0  0  0
   61.1420   33.6080   48.3740 C   0  0  0  0  0  0  0  0  0  0  0  0
   62.3220   33.9600   48.1010 O   0  0  0  0  0  0  0  0  0  0  0  0
   60.1080   33.7300   47.3750 N   0  0  0  0  0  0  0  0  0  0  0  0
   60.4940   34.0080   45.9860 C   0  0  0  0  0  0  0  0  0  0  0  0
   59.2750   33.9790   45.0620 C   0  0  0  0  0  0  0  0  0  0  0  0
   58.4340   32.8200   45.4160 N   0  0  0  0  0  0  0  0  0  0  0  0
   57.4000   32.6030   44.3790 C   0  0  0  0  0  0  0  0  0  0  0  0
   56.7560   31.2130   44.4390 C   0  0  0  0  0  0  0  0  0  0  0  0
   57.3120   30.8890   43.0620 C   0  0  0  0  0  0  0  0  0  0  0  0
   57.9910   32.2490   43.0120 C   0  0  0  0  0  0  0  0  0  0  0  0
   57.8090   33.0130   46.7510 C   0  0  0  0  0  0  0  0  0  0  0  0
   58.6860   33.8110   47.7410 C   0  0  0  0  0  0  0  0  0  0  0  0
   59.3660   29.7432   49.9762 H   0  0  0  0  0  0  0  0  0  0  0  0
   58.1181   30.0396   48.7187 H   0  0  0  0  0  0  0  0  0  0  0  0
   59.0453   28.5012   48.7187 H   0  0  0  0  0  0  0  0  0  0  0  0
   60.7860   29.8131   46.0841 H   0  0  0  0  0  0  0  0  0  0  0  0
   61.4045   28.6814   47.3457 H   0  0  0  0  0  0  0  0  0  0  0  0
   60.2797   26.6466   47.8172 H   0  0  0  0  0  0  0  0  0  0  0  0
   58.4109   25.0727   47.3185 H   0  0  0  0  0  0  0  0  0  0  0  0
   56.3300   25.3500   43.5350 H   0  0  0  0  0  0  0  0  0  0  0  0
   57.2250   24.1720   44.3270 H   0  0  0  0  0  0  0  0  0  0  0  0
   56.4355   28.1488   45.0001 H   0  0  0  0  0  0  0  0  0  0  0  0
   58.3026   29.7247   45.4969 H   0  0  0  0  0  0  0  0  0  0  0  0
   61.7340   29.7258   49.3308 H   0  0  0  0  0  0  0  0  0  0  0  0
   62.0233   31.0889   48.1807 H   0  0  0  0  0  0  0  0  0  0  0  0
   60.5971   30.0290   51.3818 H   0  0  0  0  0  0  0  0  0  0  0  0
   60.0377   31.5855   53.2424 H   0  0  0  0  0  0  0  0  0  0  0  0
   60.0231   34.0470   52.8550 H   0  0  0  0  0  0  0  0  0  0  0  0
   60.5495   34.9594   50.5973 H   0  0  0  0  0  0  0  0  0  0  0  0
   60.9608   35.0027   45.9346 H   0  0  0  0  0  0  0  0  0  0  0  0
   61.2017   33.2328   45.6570 H   0  0  0  0  0  0  0  0  0  0  0  0
   58.6963   34.9063   45.1851 H   0  0  0  0  0  0  0  0  0  0  0  0
   59.6029   33.8955   44.0153 H   0  0  0  0  0  0  0  0  0  0  0  0
   56.7925   33.5093   44.5192 H   0  0  0  0  0  0  0  0  0  0  0  0
   57.1476   30.5720   45.2426 H   0  0  0  0  0  0  0  0  0  0  0  0
   55.6798   31.1086   44.6412 H   0  0  0  0  0  0  0  0  0  0  0  0
   58.0096   30.0386   43.0487 H   0  0  0  0  0  0  0  0  0  0  0  0
   56.6387   30.5741   42.2511 H   0  0  0  0  0  0  0  0  0  0  0  0
   59.0899   32.2008   42.9980 H   0  0  0  0  0  0  0  0  0  0  0  0
   57.8341   32.9154   42.1510 H   0  0  0  0  0  0  0  0  0  0  0  0
   56.8604   33.5531   46.6149 H   0  0  0  0  0  0  0  0  0  0  0  0
   57.6656   32.0125   47.1850 H   0  0  0  0  0  0  0  0  0  0  0  0
   58.3719   34.8651   47.7297 H   0  0  0  0  0  0  0  0  0  0  0  0
   58.5592   33.3798   48.7450 H   0  0  0  0  0  0  0  0  0  0  0  0
  1  2  1  0
  2  3  1  0
  3  4  1  0
  4  5  2  0
  5  6  1  0
  6  7  2  0
  7  8  1  0
  8  9  1  0
  8 10  2  0
  8 11  2  0
  7 12  1  0
 12 13  2  0
  2 14  1  0
 14 15  1  0
 15 16  2  0
 16 17  1  0
 17 18  2  0
 18 19  1  0
 19 20  2  0
 20 21  1  0
 21 22  2  0
 21 23  1  0
 23 24  1  0
 24 25  1  0
 25 26  1  0
 26 27  1  0
 27 28  1  0
 28 29  1  0
 29 30  1  0
 26 31  1  0
 31 32  1  0
 13  4  1  0
 20 15  1  0
 32 23  1  0
 30 27  1  0
  1 33  1  0
  1 34  1  0
  1 35  1  0
  3 36  1  0
  3 37  1  0
  5 38  1  0
  6 39  1  0
  9 40  1  0
  9 41  1  0
 12 42  1  0
 13 43  1  0
 14 44  1  0
 14 45  1  0
 16 46  1  0
 17 47  1  0
 18 48  1  0
 19 49  1  0
 24 50  1  0
 24 51  1  0
 25 52  1  0
 25 53  1  0
 27 54  1  0
 28 55  1  0
 28 56  1  0
 29 57  1  0
 29 58  1  0
 30 59  1  0
 30 60  1  0
 31 61  1  0
 31 62  1  0
 32 63  1  0
 32 64  1  0
M  END
>  <UniqueID>  (35) 
32

>  <SMILES>  (35) 
CN(Cc1ccc(S(N)(=O)=O)cc1)Cc1ccccc1C(=O)N1CCN(C2CCC2)CC1

>  <Energy>  (35) 
138.77699772171263

>  <Genealogy>  (35) 
CN(Cc1ccc(S(N)(=O)=O)cc1)Cc1ccccc1C(=O)N1CCN(C2CCC2)CC1 (3D coordinates assigned)
CN(Cc1ccc(S(N)(=O)=O)cc1)Cc1ccccc1C(=O)N1CCN(C2CCC2)CC1 (nonaromatic ring conformer: 138.77699772171263 kcal/mol)

>  <smiles>  (35) 
CN(Cc1ccc(S(N)(=O)=O)cc1)Cc1ccccc1C(=O)N1CCN(C2CCC2)CC1

>  <score_type>  (35) 
oracle

>  <origin>  (35) 
adg

>  <m_score__min__energy>  (35) 
-9.6500000000000004

>  <m_primary>  (35) 
energy

$$$$
35:0
     RDKit          3D

 58 61  0  0  0  0  0  0  0  0999 V2000
   57.4050   30.4930   43.4700 C   0  0  0  0  0  0  0  0  0  0  0  0
   58.0070   30.8490   44.6150 C   0  0  0  0  0  0  0  0  0  0  0  0
   58.4660   29.9980   45.6360 C   0  0  0  0  0  0  0  0  0  0  0  0
   58.5820   28.6570   45.6900 C   0  0  0  0  0  0  0  0  0  0  0  0
   57.5040   27.7150   46.0170 C   0  0  0  0  0  0  0  0  0  0  0  0
   57.7070   26.5460   46.6490 N   0  0  0  0  0  0  0  0  0  0  0  0
   56.4840   25.9730   46.6480 C   0  0  0  0  0  0  0  0  0  0  0  0
   56.2620   24.8500   47.1730 O   0  0  0  0  0  0  0  0  0  0  0  0
   55.5220   26.6910   46.0330 N   0  0  0  0  0  0  0  0  0  0  0  0
   56.1820   27.7850   45.6210 C   0  0  0  0  0  0  0  0  0  0  0  0
   55.5890   28.8040   44.8790 O   0  0  0  0  0  0  0  0  0  0  0  0
   58.8330   30.8210   46.6880 C   0  0  0  0  0  0  0  0  0  0  0  0
   58.6290   32.1200   46.2730 C   0  0  0  0  0  0  0  0  0  0  0  0
   58.8960   33.3030   47.1120 C   0  0  0  0  0  0  0  0  0  0  0  0
   57.9610   34.1180   47.3400 O   0  0  0  0  0  0  0  0  0  0  0  0
   60.2090   33.5570   47.6410 N   0  0  0  0  0  0  0  0  0  0  0  0
   60.3540   34.1980   48.9540 C   0  0  0  0  0  0  0  0  0  0  0  0
   61.4920   33.5490   49.7600 C   0  0  0  0  0  0  0  0  0  0  0  0
   62.7150   33.1310   48.8860 C   0  0  0  0  0  0  0  0  0  0  0  0
   64.0300   33.3410   49.5490 N   0  0  0  0  0  0  0  0  0  0  0  0
   64.7750   32.0810   49.7340 C   0  0  0  0  0  0  0  0  0  0  0  0
   66.2370   32.3730   50.1260 C   0  0  0  0  0  0  0  0  0  0  0  0
   66.3940   33.7090   50.7430 N   0  0  0  0  0  0  0  0  0  0  0  0
   67.6610   33.7870   51.4860 C   0  0  0  0  0  0  0  0  0  0  0  0
   65.2580   34.0130   51.6290 C   0  0  0  0  0  0  0  0  0  0  0  0
   63.9750   34.1510   50.7910 C   0  0  0  0  0  0  0  0  0  0  0  0
   62.6800   33.7730   47.4850 C   0  0  0  0  0  0  0  0  0  0  0  0
   61.3800   33.3910   46.7650 C   0  0  0  0  0  0  0  0  0  0  0  0
   58.1570   32.1420   45.0040 N   0  0  0  0  0  0  0  0  0  0  0  0
   57.8800   33.3340   44.1930 C   0  0  0  0  0  0  0  0  0  0  0  0
   57.0927   31.2638   42.7500 H   0  0  0  0  0  0  0  0  0  0  0  0
   57.2237   29.4303   43.2512 H   0  0  0  0  0  0  0  0  0  0  0  0
   59.5715   28.2299   45.4697 H   0  0  0  0  0  0  0  0  0  0  0  0
   55.6230   28.8100   43.8680 H   0  0  0  0  0  0  0  0  0  0  0  0
   59.2147   30.4994   47.6682 H   0  0  0  0  0  0  0  0  0  0  0  0
   60.5777   35.2654   48.8107 H   0  0  0  0  0  0  0  0  0  0  0  0
   59.4138   34.0734   49.5112 H   0  0  0  0  0  0  0  0  0  0  0  0
   61.8356   34.2682   50.5181 H   0  0  0  0  0  0  0  0  0  0  0  0
   61.0867   32.6303   50.2092 H   0  0  0  0  0  0  0  0  0  0  0  0
   62.6130   32.0432   48.7582 H   0  0  0  0  0  0  0  0  0  0  0  0
   64.2973   31.4912   50.5302 H   0  0  0  0  0  0  0  0  0  0  0  0
   64.7648   31.5187   48.7886 H   0  0  0  0  0  0  0  0  0  0  0  0
   66.5704   31.6096   50.8444 H   0  0  0  0  0  0  0  0  0  0  0  0
   66.8435   32.3513   49.2086 H   0  0  0  0  0  0  0  0  0  0  0  0
   67.4540   33.7743   52.5663 H   0  0  0  0  0  0  0  0  0  0  0  0
   68.2935   32.9261   51.2237 H   0  0  0  0  0  0  0  0  0  0  0  0
   68.1831   34.7190   51.2237 H   0  0  0  0  0  0  0  0  0  0  0  0
   65.1337   33.1987   52.3580 H   0  0  0  0  0  0  0  0  0  0  0  0
   65.4509   34.9561   52.1612 H   0  0  0  0  0  0  0  0  0  0  0  0
   63.1189   33.8162   51.3952 H   0  0  0  0  0  0  0  0  0  0  0  0
   63.8708   35.2073   50.5023 H   0  0  0  0  0  0  0  0  0  0  0  0
   62.7334   34.8672   47.5843 H   0  0  0  0  0  0  0  0  0  0  0  0
   63.5373   33.4092   46.8996 H   0  0  0  0  0  0  0  0  0  0  0  0
   61.2589   34.0341   45.8808 H   0  0  0  0  0  0  0  0  0  0  0  0
   61.4454   32.3324   46.4734 H   0  0  0  0  0  0  0  0  0  0  0  0
   57.6811   34.1897   44.8549 H   0  0  0  0  0  0  0  0  0  0  0  0
   58.7505   33.5560   43.5582 H   0  0  0  0  0  0  0  0  0  0  0  0
   57.0008   33.1494   43.5582 H   0  0  0  0  0  0  0  0  0  0  0  0
  1  2  2  0
  2  3  1  0
  3  4  2  3
  4  5  1  0
  5  6  1  0
  6  7  1  0
  7  8  2  0
  7  9  1  0
  9 10  1  0
 10 11  1  0
  3 12  1  0
 12 13  2  0
 13 14  1  0
 14 15  2  0
 14 16  1  0
 16 17  1  0
 17 18  1  0
 18 19  1  0
 19 20  1  0
 20 21  1  0
 21 22  1  0
 22 23  1  0
 23 24  1  0
 23 25  1  0
 25 26  1  0
 19 27  1  0
 27 28  1  0
 13 29  1  0
 29 30  1  0
 29  2  1  0
 10  5  2  0
 28 16  1  0
 26 20  1  0
  1 31  1  0
  1 32  1  0
  4 33  1  0
 11 34  1  0
 12 35  1  0
 17 36  1  0
 17 37  1  0
 18 38  1  0
 18 39  1  0
 19 40  1  0
 21 41  1  0
 21 42  1  0
 22 43  1  0
 22 44  1  0
 24 45  1  0
 24 46  1  0
 24 47  1  0
 25 48  1  0
 25 49  1  0
 26 50  1  0
 26 51  1  0
 27 52  1  0
 27 53  1  0
 28 54  1  0
 28 55  1  0
 30 56  1  0
 30 57  1  0
 30 58  1  0
M  CHG  2   6  -1   9  -1
M  END
>  <UniqueID>  (36) 
33

>  <SMILES>  (36) 
C=c1c(=Cc2[n-]c(=O)[n-]c2O)cc(C(=O)N2CCC(N3CCN(C)CC3)CC2)n1C

>  <Energy>  (36) 
149.12860936071922

>  <Genealogy>  (36) 
C=c1c(=Cc2[n-]c(=O)[n-]c2O)cc(C(=O)N2CCC(N3CCN(C)CC3)CC2)n1C (protonated)
C=c1c(=Cc2[n-]c(=O)[n-]c2O)cc(C(=O)N2CCC(N3CCN(C)CC3)CC2)n1C (3D coordinates assigned)
C=c1c(=Cc2[n-]c(=O)[n-]c2O)cc(C(=O)N2CCC(N3CCN(C)CC3)CC2)n1C (nonaromatic ring conformer: 149.12860936071922 kcal/mol)

>  <smiles>  (36) 
C=c1c(=Cc2[nH]c(=O)[nH]c2O)cc(C(=O)N2CCC(N3CCN(C)CC3)CC2)n1C

>  <score_type>  (36) 
oracle

>  <origin>  (36) 
adg

>  <m_score__min__energy>  (36) 
-13.48

>  <m_primary>  (36) 
energy

$$$$
36:0
     RDKit          3D

 54 57  0  0  0  0  0  0  0  0999 V2000
   55.9410   31.5890   51.7240 N   0  0  0  0  0  0  0  0  0  0  0  0
   57.6210   31.1790   51.6340 S   0  0  0  0  0  0  0  0  0  0  0  0
   58.2200   31.2280   53.0130 O   0  0  0  0  0  0  0  0  0  0  0  0
   57.7700   29.7820   51.0970 O   0  0  0  0  0  0  0  0  0  0  0  0
   58.4560   32.3150   50.5750 C   0  0  0  0  0  0  0  0  0  0  0  0
   59.2640   33.3180   51.1180 C   0  0  0  0  0  0  0  0  0  0  0  0
   59.9230   34.2150   50.2760 C   0  0  0  0  0  0  0  0  0  0  0  0
   59.7730   34.1220   48.8900 C   0  0  0  0  0  0  0  0  0  0  0  0
   58.9490   33.1290   48.3250 C   0  0  0  0  0  0  0  0  0  0  0  0
   58.7530   33.0390   46.8540 C   0  0  0  0  0  0  0  0  0  0  0  0
   59.2750   33.8990   45.8840 C   0  0  0  0  0  0  0  0  0  0  0  0
   58.8780   33.5850   44.5780 C   0  0  0  0  0  0  0  0  0  0  0  0
   58.0430   32.4790   44.5080 C   0  0  0  0  0  0  0  0  0  0  0  0
   57.4250   31.9190   43.2630 C   0  0  0  0  0  0  0  0  0  0  0  0
   57.3080   30.4480   43.3590 N   0  0  0  0  0  0  0  0  0  0  0  0
   55.9640   30.0300   43.8530 C   0  0  0  0  0  0  0  0  0  0  0  0
   56.0020   29.3310   45.2190 C   0  0  0  0  0  0  0  0  0  0  0  0
   56.9590   28.2210   45.1700 N   0  0  0  0  0  0  0  0  0  0  0  0
   56.7300   27.0160   45.9240 C   0  0  0  0  0  0  0  0  0  0  0  0
   57.6760   26.4960   46.5740 O   0  0  0  0  0  0  0  0  0  0  0  0
   55.4340   26.4080   45.9830 N   0  0  0  0  0  0  0  0  0  0  0  0
   55.1650   25.0060   45.8660 C   0  0  0  0  0  0  0  0  0  0  0  0
   53.8500   24.5850   45.6280 C   0  0  0  0  0  0  0  0  0  0  0  0
   53.5540   23.2220   45.5310 C   0  0  0  0  0  0  0  0  0  0  0  0
   54.5660   22.2720   45.6900 C   0  0  0  0  0  0  0  0  0  0  0  0
   55.8750   22.6830   45.9530 C   0  0  0  0  0  0  0  0  0  0  0  0
   56.1760   24.0460   46.0460 C   0  0  0  0  0  0  0  0  0  0  0  0
   58.2460   28.4260   44.4950 C   0  0  0  0  0  0  0  0  0  0  0  0
   58.4460   29.9030   44.1350 C   0  0  0  0  0  0  0  0  0  0  0  0
   57.8000   31.8910   46.0600 S   0  0  0  0  0  0  0  0  0  0  0  0
   58.2940   32.2260   49.1840 C   0  0  0  0  0  0  0  0  0  0  0  0
   55.8810   32.5780   52.0580 H   0  0  0  0  0  0  0  0  0  0  0  0
   55.5700   31.5830   50.7460 H   0  0  0  0  0  0  0  0  0  0  0  0
   59.3805   33.4003   52.2087 H   0  0  0  0  0  0  0  0  0  0  0  0
   60.5637   34.9991   50.7057 H   0  0  0  0  0  0  0  0  0  0  0  0
   60.3024   34.8296   48.2350 H   0  0  0  0  0  0  0  0  0  0  0  0
   59.9366   34.7444   46.1240 H   0  0  0  0  0  0  0  0  0  0  0  0
   59.1967   34.1585   43.6951 H   0  0  0  0  0  0  0  0  0  0  0  0
   56.4235   32.3538   43.1289 H   0  0  0  0  0  0  0  0  0  0  0  0
   58.0654   32.1695   42.4044 H   0  0  0  0  0  0  0  0  0  0  0  0
   55.3307   30.9254   43.9379 H   0  0  0  0  0  0  0  0  0  0  0  0
   55.5658   29.3033   43.1295 H   0  0  0  0  0  0  0  0  0  0  0  0
   56.3129   30.0502   45.9911 H   0  0  0  0  0  0  0  0  0  0  0  0
   55.0015   28.9439   45.4624 H   0  0  0  0  0  0  0  0  0  0  0  0
   53.0477   25.3294   45.5171 H   0  0  0  0  0  0  0  0  0  0  0  0
   52.5226   22.8971   45.3292 H   0  0  0  0  0  0  0  0  0  0  0  0
   54.3320   21.2003   45.6081 H   0  0  0  0  0  0  0  0  0  0  0  0
   56.6697   21.9343   46.0871 H   0  0  0  0  0  0  0  0  0  0  0  0
   57.2060   24.3672   46.2604 H   0  0  0  0  0  0  0  0  0  0  0  0
   59.0584   28.1051   45.1635 H   0  0  0  0  0  0  0  0  0  0  0  0
   58.2548   27.8340   43.5679 H   0  0  0  0  0  0  0  0  0  0  0  0
   58.5518   30.4830   45.0637 H   0  0  0  0  0  0  0  0  0  0  0  0
   59.3484   29.9796   43.5107 H   0  0  0  0  0  0  0  0  0  0  0  0
   57.6485   31.4425   48.7603 H   0  0  0  0  0  0  0  0  0  0  0  0
  1  2  1  0
  2  3  2  0
  2  4  2  0
  2  5  1  0
  5  6  2  0
  6  7  1  0
  7  8  2  0
  8  9  1  0
  9 10  1  0
 10 11  2  0
 11 12  1  0
 12 13  2  0
 13 14  1  0
 14 15  1  0
 15 16  1  0
 16 17  1  0
 17 18  1  0
 18 19  1  0
 19 20  2  0
 19 21  1  0
 21 22  1  0
 22 23  2  0
 23 24  1  0
 24 25  2  0
 25 26  1  0
 26 27  2  0
 18 28  1  0
 28 29  1  0
 13 30  1  0
  9 31  2  0
 31  5  1  0
 30 10  1  0
 29 15  1  0
 27 22  1  0
  1 32  1  0
  1 33  1  0
  6 34  1  0
  7 35  1  0
  8 36  1  0
 11 37  1  0
 12 38  1  0
 14 39  1  0
 14 40  1  0
 16 41  1  0
 16 42  1  0
 17 43  1  0
 17 44  1  0
 23 45  1  0
 24 46  1  0
 25 47  1  0
 26 48  1  0
 27 49  1  0
 28 50  1  0
 28 51  1  0
 29 52  1  0
 29 53  1  0
 31 54  1  0
M  CHG  1  21  -1
M  END
>  <UniqueID>  (37) 
34

>  <SMILES>  (37) 
NS(=O)(=O)c1cccc(-c2ccc(CN3CCN(C(=O)[N-]c4ccccc4)CC3)s2)c1

>  <Energy>  (37) 
96.28099298981572

>  <Genealogy>  (37) 
NS(=O)(=O)c1cccc(-c2ccc(CN3CCN(C(=O)[N-]c4ccccc4)CC3)s2)c1 (protonated)
NS(=O)(=O)c1cccc(-c2ccc(CN3CCN(C(=O)[N-]c4ccccc4)CC3)s2)c1 (3D coordinates assigned)
NS(=O)(=O)c1cccc(-c2ccc(CN3CCN(C(=O)[N-]c4ccccc4)CC3)s2)c1 (nonaromatic ring conformer: 96.28099298981572 kcal/mol)

>  <smiles>  (37) 
NS(=O)(=O)c1cccc(-c2ccc(CN3CCN(C(=O)Nc4ccccc4)CC3)s2)c1

>  <score_type>  (37) 
oracle

>  <origin>  (37) 
adg

>  <m_score__min__energy>  (37) 
-11.27

>  <m_primary>  (37) 
energy

$$$$
37:0
     RDKit          3D

 57 60  0  0  0  0  0  0  0  0999 V2000
   53.8527   23.0241   45.7119 H   0  0  0  0  0  0  0  0  0  0  0  0
   54.1990   24.0260   45.4180 C   0  0  0  0  0  0  0  0  0  0  0  0
   53.6438   24.5998   44.6614 H   0  0  0  0  0  0  0  0  0  0  0  0
   55.2920   24.5450   45.9790 C   0  0  0  0  0  0  0  0  0  0  0  0
   56.0870   23.9400   46.9410 C   0  0  0  0  0  0  0  0  0  0  0  0
   55.9040   22.5880   47.5550 C   0  0  0  0  0  0  0  0  0  0  0  0
   55.9162   22.6784   48.6512 H   0  0  0  0  0  0  0  0  0  0  0  0
   54.9406   22.1662   47.2326 H   0  0  0  0  0  0  0  0  0  0  0  0
   56.7206   21.9253   47.2326 H   0  0  0  0  0  0  0  0  0  0  0  0
   57.1130   24.8260   47.2200 C   0  0  0  0  0  0  0  0  0  0  0  0
   57.9382   24.6788   47.9323 H   0  0  0  0  0  0  0  0  0  0  0  0
   56.8900   25.9400   46.4180 C   0  0  0  0  0  0  0  0  0  0  0  0
   57.6140   27.0680   46.3880 C   0  0  0  0  0  0  0  0  0  0  0  0
   58.5367   27.1032   46.9858 H   0  0  0  0  0  0  0  0  0  0  0  0
   57.2540   28.2620   45.6070 C   0  0  0  0  0  0  0  0  0  0  0  0
   55.9880   28.5570   45.2430 N   0  0  0  0  0  0  0  0  0  0  0  0
   56.1190   29.6780   44.5000 C   0  0  0  0  0  0  0  0  0  0  0  0
   55.1350   30.2810   43.9950 O   0  0  0  0  0  0  0  0  0  0  0  0
   57.3970   30.0830   44.3500 N   0  0  0  0  0  0  0  0  0  0  0  0
   57.8870   31.2750   43.6600 C   0  0  0  0  0  0  0  0  0  0  0  0
   58.7767   31.0144   43.0680 H   0  0  0  0  0  0  0  0  0  0  0  0
   57.0992   31.6595   42.9956 H   0  0  0  0  0  0  0  0  0  0  0  0
   58.2490   32.3340   44.6660 C   0  0  0  0  0  0  0  0  0  0  0  0
   57.7020   33.6200   44.5700 C   0  0  0  0  0  0  0  0  0  0  0  0
   57.0340   33.8715   43.7330 H   0  0  0  0  0  0  0  0  0  0  0  0
   58.0030   34.5820   45.5340 C   0  0  0  0  0  0  0  0  0  0  0  0
   57.5774   35.5929   45.4501 H   0  0  0  0  0  0  0  0  0  0  0  0
   58.8420   34.2680   46.6050 C   0  0  0  0  0  0  0  0  0  0  0  0
   59.0720   35.0341   47.3601 H   0  0  0  0  0  0  0  0  0  0  0  0
   59.3960   32.9800   46.7270 C   0  0  0  0  0  0  0  0  0  0  0  0
   60.2630   32.6580   47.8950 C   0  0  0  0  0  0  0  0  0  0  0  0
   60.9830   33.5730   48.3850 O   0  0  0  0  0  0  0  0  0  0  0  0
   60.2570   31.3440   48.5150 N   0  0  0  0  0  0  0  0  0  0  0  0
   60.7260   31.4170   49.4470 H   0  0  0  0  0  0  0  0  0  0  0  0
   58.8780   30.8950   48.7810 C   0  0  0  0  0  0  0  0  0  0  0  0
   58.3520   31.6658   49.3634 H   0  0  0  0  0  0  0  0  0  0  0  0
   58.3655   30.7301   47.8218 H   0  0  0  0  0  0  0  0  0  0  0  0
   58.8860   29.5740   49.5770 C   0  0  0  0  0  0  0  0  0  0  0  0
   59.0383   29.8089   50.6408 H   0  0  0  0  0  0  0  0  0  0  0  0
   57.9207   29.0791   49.3944 H   0  0  0  0  0  0  0  0  0  0  0  0
   59.9500   28.6320   49.1460 N   0  0  0  0  0  0  0  0  0  0  0  0
   61.0260   28.4970   50.1440 C   0  0  0  0  0  0  0  0  0  0  0  0
   60.5969   28.5508   51.1554 H   0  0  0  0  0  0  0  0  0  0  0  0
   61.5303   27.5285   50.0107 H   0  0  0  0  0  0  0  0  0  0  0  0
   61.7539   29.3109   50.0107 H   0  0  0  0  0  0  0  0  0  0  0  0
   60.4790   28.9240   47.8010 C   0  0  0  0  0  0  0  0  0  0  0  0
   61.3100   28.2342   47.5924 H   0  0  0  0  0  0  0  0  0  0  0  0
   59.6540   28.7959   47.0848 H   0  0  0  0  0  0  0  0  0  0  0  0
   60.9950   30.3760   47.6640 C   0  0  0  0  0  0  0  0  0  0  0  0
   62.0568   30.3978   47.9505 H   0  0  0  0  0  0  0  0  0  0  0  0
   60.8420   30.6790   46.6177 H   0  0  0  0  0  0  0  0  0  0  0  0
   59.0840   32.0150   45.7490 C   0  0  0  0  0  0  0  0  0  0  0  0
   59.4993   31.0000   45.8348 H   0  0  0  0  0  0  0  0  0  0  0  0
   58.1140   29.1850   45.0470 C   0  0  0  0  0  0  0  0  0  0  0  0
   59.5020   29.1820   45.1320 O   0  0  0  0  0  0  0  0  0  0  0  0
   55.7780   25.7620   45.6730 N   0  0  0  0  0  0  0  0  0  0  0  0
   55.3740   26.4400   44.9870 H   0  0  0  0  0  0  0  0  0  0  0  0
  1  2  1  0
  2  3  1  0
  2  4  2  0
  4  5  1  0
  5  6  1  0
  6  7  1  0
  6  8  1  0
  6  9  1  0
  5 10  2  0
 10 11  1  0
 10 12  1  0
 12 13  2  0
 13 14  1  0
 13 15  1  0
 15 16  1  0
 16 17  1  0
 17 18  2  0
 17 19  1  0
 19 20  1  0
 20 21  1  0
 20 22  1  0
 20 23  1  0
 23 24  2  0
 24 25  1  0
 24 26  1  0
 26 27  1  0
 26 28  2  0
 28 29  1  0
 28 30  1  0
 30 31  1  0
 31 32  2  0
 31 33  1  0
 33 34  1  0
 33 35  1  0
 35 36  1  0
 35 37  1  0
 35 38  1  0
 38 39  1  0
 38 40  1  0
 38 41  1  0
 41 42  1  0
 42 43  1  0
 42 44  1  0
 42 45  1  0
 41 46  1  0
 46 47  1  0
 46 48  1  0
 46 49  1  0
 49 50  1  0
 49 51  1  0
 30 52  2  0
 52 53  1  0
 19 54  1  0
 54 55  1  0
 12 56  1  0
 56 57  1  0
 56  4  1  0
 54 15  2  0
 52 23  1  0
 49 33  1  0
M  CHG  3  16  -1  33   1  55  -1
M  END
>  <UniqueID>  (38) 
35

>  <SMILES>  (38) 
C=c1[nH]/c(=C/c2[n-]c(=O)n(Cc3cccc(C(=O)[NH+]4CCN(C)CC4)c3)c2[O-])cc1C

>  <Energy>  (38) 
135.26784588438923

>  <Genealogy>  (38) 
C=c1[nH]c(=Cc2[n-]c(=O)n(Cc3cccc(C(=O)[NH+]4CCN(C)CC4)c3)c2[O-])cc1C (protonated)
C=c1[nH]/c(=C/c2[n-]c(=O)n(Cc3cccc(C(=O)[NH+]4CCN(C)CC4)c3)c2[O-])cc1C (cis-trans isomerization)
C=c1[nH]/c(=C/c2[n-]c(=O)n(Cc3cccc(C(=O)[NH+]4CCN(C)CC4)c3)c2[O-])cc1C (3D coordinates assigned)
C=c1[nH]/c(=C/c2[n-]c(=O)n(Cc3cccc(C(=O)[NH+]4CCN(C)CC4)c3)c2[O-])cc1C (nonaromatic ring conformer: 135.26784588438923 kcal/mol)

>  <smiles>  (38) 
C=c1[nH]c(=Cc2[nH]c(=O)n(Cc3cccc(C(=O)N4CCN(C)CC4)c3)c2O)cc1C

>  <score_type>  (38) 
oracle

>  <origin>  (38) 
adg

>  <m_score__min__energy>  (38) 
-12.720000000000001

>  <m_primary>  (38) 
energy

$$$$
38:0
     RDKit          3D

 38 41  0  0  0  0  0  0  0  0999 V2000
   57.4530   26.8310   43.5920 O   0  0  0  0  0  0  0  0  0  0  0  0
   57.4380   27.2730   44.7700 C   0  0  0  0  0  0  0  0  0  0  0  0
   57.7830   28.6870   45.0050 C   0  0  0  0  0  0  0  0  0  0  0  0
   59.0410   29.1740   45.3090 C   0  0  0  0  0  0  0  0  0  0  0  0
   58.8940   30.5380   45.4670 C   0  0  0  0  0  0  0  0  0  0  0  0
   59.9490   31.3970   45.7750 O   0  0  0  0  0  0  0  0  0  0  0  0
   57.6040   30.9120   45.2950 N   0  0  0  0  0  0  0  0  0  0  0  0
   57.0450   32.2690   45.2990 C   0  0  0  0  0  0  0  0  0  0  0  0
   58.0820   33.2610   45.7930 C   0  0  0  0  0  0  0  0  0  0  0  0
   58.5330   34.2240   44.8710 C   0  0  0  0  0  0  0  0  0  0  0  0
   59.4380   35.2130   45.2450 C   0  0  0  0  0  0  0  0  0  0  0  0
   59.9110   35.2740   46.5510 C   0  0  0  0  0  0  0  0  0  0  0  0
   59.4850   34.3370   47.5010 C   0  0  0  0  0  0  0  0  0  0  0  0
   59.9720   34.4170   48.8160 C   0  0  0  0  0  0  0  0  0  0  0  0
   59.5630   33.4930   49.7750 C   0  0  0  0  0  0  0  0  0  0  0  0
   58.6720   32.4800   49.4320 C   0  0  0  0  0  0  0  0  0  0  0  0
   58.1780   32.3820   48.1290 C   0  0  0  0  0  0  0  0  0  0  0  0
   58.5650   33.3120   47.1360 C   0  0  0  0  0  0  0  0  0  0  0  0
   56.9280   29.7760   45.0250 C   0  0  0  0  0  0  0  0  0  0  0  0
   55.5530   29.7160   44.8370 O   0  0  0  0  0  0  0  0  0  0  0  0
   57.0730   26.3590   45.8680 C   0  0  0  0  0  0  0  0  0  0  0  0
   57.9780   25.7180   46.6300 N   0  0  0  0  0  0  0  0  0  0  0  0
   57.2180   24.9670   47.4560 C   0  0  0  0  0  0  0  0  0  0  0  0
   57.7120   24.2180   48.3390 O   0  0  0  0  0  0  0  0  0  0  0  0
   55.8870   25.0750   47.2570 N   0  0  0  0  0  0  0  0  0  0  0  0
   55.8110   25.9520   46.2430 C   0  0  0  0  0  0  0  0  0  0  0  0
   54.6140   26.3400   45.6540 O   0  0  0  0  0  0  0  0  0  0  0  0
   59.9700   28.5930   45.4054 H   0  0  0  0  0  0  0  0  0  0  0  0
   60.3700   31.4380   46.6920 H   0  0  0  0  0  0  0  0  0  0  0  0
   56.7408   32.5398   44.2772 H   0  0  0  0  0  0  0  0  0  0  0  0
   56.1736   32.2965   45.9697 H   0  0  0  0  0  0  0  0  0  0  0  0
   58.1633   34.1944   43.8354 H   0  0  0  0  0  0  0  0  0  0  0  0
   59.7807   35.9500   44.5038 H   0  0  0  0  0  0  0  0  0  0  0  0
   60.6228   36.0615   46.8394 H   0  0  0  0  0  0  0  0  0  0  0  0
   60.6798   35.2132   49.0900 H   0  0  0  0  0  0  0  0  0  0  0  0
   59.9445   33.5640   50.8043 H   0  0  0  0  0  0  0  0  0  0  0  0
   58.3546   31.7514   50.1925 H   0  0  0  0  0  0  0  0  0  0  0  0
   57.4797   31.5719   47.8721 H   0  0  0  0  0  0  0  0  0  0  0  0
  1  2  2  0
  2  3  1  0
  3  4  1  0
  4  5  2  0
  5  6  1  0
  5  7  1  0
  7  8  1  0
  8  9  1  0
  9 10  2  0
 10 11  1  0
 11 12  2  0
 12 13  1  0
 13 14  2  0
 14 15  1  0
 15 16  2  0
 16 17  1  0
 17 18  2  0
  7 19  1  0
 19 20  1  0
  2 21  1  0
 21 22  1  0
 22 23  1  0
 23 24  2  0
 23 25  1  0
 25 26  1  0
 26 27  1  0
 19  3  2  0
 26 21  2  0
 18  9  1  0
 18 13  1  0
  4 28  1  0
  6 29  1  0
  8 30  1  0
  8 31  1  0
 10 32  1  0
 11 33  1  0
 12 34  1  0
 14 35  1  0
 15 36  1  0
 16 37  1  0
 17 38  1  0
M  CHG  4  20  -1  22  -1  25  -1  27  -1
M  END
>  <UniqueID>  (39) 
36

>  <SMILES>  (39) 
O=C(c1cc(O)n(Cc2cccc3ccccc23)c1[O-])c1[n-]c(=O)[n-]c1[O-]

>  <Energy>  (39) 
111.40308829192792

>  <Genealogy>  (39) 
O=C(c1cc(O)n(Cc2cccc3ccccc23)c1[O-])c1[n-]c(=O)[n-]c1[O-] (protonated)
O=C(c1cc(O)n(Cc2cccc3ccccc23)c1[O-])c1[n-]c(=O)[n-]c1[O-] (3D coordinates assigned)
O=C(c1cc(O)n(Cc2cccc3ccccc23)c1[O-])c1[n-]c(=O)[n-]c1[O-] (optimized conformer: 111.40308829192792 kcal/mol)

>  <smiles>  (39) 
O=C(c1cc(O)n(Cc2cccc3ccccc23)c1O)c1[nH]c(=O)[nH]c1O

>  <score_type>  (39) 
oracle

>  <origin>  (39) 
adg

>  <m_score__min__energy>  (39) 
-17.390000000000001

>  <m_primary>  (39) 
energy

$$$$
39:0
     RDKit          3D

 36 37  0  0  0  0  0  0  0  0999 V2000
   58.3310   34.7630   46.6160 O   0  0  0  0  0  0  0  0  0  0  0  0
   57.9850   33.6830   46.0640 C   0  0  0  0  0  0  0  0  0  0  0  0
   57.9070   33.6050   44.5700 C   0  0  0  0  0  0  0  0  0  0  0  0
   57.7720   32.1440   44.1430 C   0  0  0  0  0  0  0  0  0  0  0  0
   56.4990   31.6060   44.6140 N   0  0  0  0  0  0  0  0  0  0  0  0
   56.4410   29.8970   44.3010 S   0  0  0  0  0  0  0  0  0  0  0  0
   56.4370   29.6630   42.8180 O   0  0  0  0  0  0  0  0  0  0  0  0
   55.1820   29.3240   44.8930 O   0  0  0  0  0  0  0  0  0  0  0  0
   57.8390   29.1010   45.0020 C   0  0  0  0  0  0  0  0  0  0  0  0
   59.1320   29.1640   44.5040 C   0  0  0  0  0  0  0  0  0  0  0  0
   60.0490   28.4420   45.2740 C   0  0  0  0  0  0  0  0  0  0  0  0
   59.4700   27.8130   46.3680 C   0  0  0  0  0  0  0  0  0  0  0  0
   60.3830   26.7250   47.6390 Br  0  0  0  0  0  0  0  0  0  0  0  0
   57.8220   28.1510   46.3910 S   0  0  0  0  0  0  0  0  0  0  0  0
   57.7780   32.5060   46.8510 N   0  0  0  0  0  0  0  0  0  0  0  0
   58.5240   32.2770   48.0850 C   0  0  0  0  0  0  0  0  0  0  0  0
   59.9980   32.4510   47.8270 C   0  0  0  0  0  0  0  0  0  0  0  0
   60.7690   31.3840   47.3340 C   0  0  0  0  0  0  0  0  0  0  0  0
   62.1500   31.5370   47.1570 C   0  0  0  0  0  0  0  0  0  0  0  0
   62.7680   32.7500   47.4740 C   0  0  0  0  0  0  0  0  0  0  0  0
   64.1040   32.8960   47.3000 F   0  0  0  0  0  0  0  0  0  0  0  0
   62.0070   33.8110   47.9730 C   0  0  0  0  0  0  0  0  0  0  0  0
   60.6270   33.6640   48.1500 C   0  0  0  0  0  0  0  0  0  0  0  0
   57.0326   34.1722   44.2183 H   0  0  0  0  0  0  0  0  0  0  0  0
   58.8212   34.0322   44.1321 H   0  0  0  0  0  0  0  0  0  0  0  0
   57.8121   32.0792   43.0456 H   0  0  0  0  0  0  0  0  0  0  0  0
   58.5962   31.5607   44.5794 H   0  0  0  0  0  0  0  0  0  0  0  0
   59.4073   29.7236   43.5979 H   0  0  0  0  0  0  0  0  0  0  0  0
   61.1213   28.3787   45.0369 H   0  0  0  0  0  0  0  0  0  0  0  0
   57.2580   31.7030   46.4310 H   0  0  0  0  0  0  0  0  0  0  0  0
   58.1987   32.9992   48.8483 H   0  0  0  0  0  0  0  0  0  0  0  0
   58.3348   31.2534   48.4404 H   0  0  0  0  0  0  0  0  0  0  0  0
   60.2867   30.4268   47.0867 H   0  0  0  0  0  0  0  0  0  0  0  0
   62.7494   30.7009   46.7677 H   0  0  0  0  0  0  0  0  0  0  0  0
   62.4943   34.7638   48.2271 H   0  0  0  0  0  0  0  0  0  0  0  0
   60.0326   34.5017   48.5436 H   0  0  0  0  0  0  0  0  0  0  0  0
  1  2  2  0
  2  3  1  0
  3  4  1  0
  4  5  1  0
  5  6  1  0
  6  7  2  0
  6  8  2  0
  6  9  1  0
  9 10  2  0
 10 11  1  0
 11 12  2  0
 12 13  1  0
 12 14  1  0
  2 15  1  0
 15 16  1  0
 16 17  1  0
 17 18  2  0
 18 19  1  0
 19 20  2  0
 20 21  1  0
 20 22  1  0
 22 23  2  0
 14  9  1  0
 23 17  1  0
  3 24  1  0
  3 25  1  0
  4 26  1  0
  4 27  1  0
 10 28  1  0
 11 29  1  0
 15 30  1  0
 16 31  1  0
 16 32  1  0
 18 33  1  0
 19 34  1  0
 22 35  1  0
 23 36  1  0
M  CHG  1   5  -1
M  END
>  <UniqueID>  (40) 
37

>  <SMILES>  (40) 
O=C(CC[N-]S(=O)(=O)c1ccc(Br)s1)NCc1ccc(F)cc1

>  <Energy>  (40) 
52.40071831956329

>  <Genealogy>  (40) 
O=C(CC[N-]S(=O)(=O)c1ccc(Br)s1)NCc1ccc(F)cc1 (protonated)
O=C(CC[N-]S(=O)(=O)c1ccc(Br)s1)NCc1ccc(F)cc1 (3D coordinates assigned)
O=C(CC[N-]S(=O)(=O)c1ccc(Br)s1)NCc1ccc(F)cc1 (optimized conformer: 52.40071831956329 kcal/mol)

>  <smiles>  (40) 
O=C(CCNS(=O)(=O)c1ccc(Br)s1)NCc1ccc(F)cc1

>  <score_type>  (40) 
oracle

>  <origin>  (40) 
adg

>  <m_score__min__energy>  (40) 
-9

>  <m_primary>  (40) 
energy

$$$$
40:0
     RDKit          3D

 32 34  0  0  0  0  0  0  0  0999 V2000
   56.2190   28.8190   55.1050 C   0  0  0  0  0  0  0  0  0  0  0  0
   55.3570   29.4260   54.2870 C   0  0  0  0  0  0  0  0  0  0  0  0
   53.7010   29.4690   54.5610 S   0  0  0  0  0  0  0  0  0  0  0  0
   53.3580   30.3700   53.1820 C   0  0  0  0  0  0  0  0  0  0  0  0
   52.1080   30.7300   52.8420 C   0  0  0  0  0  0  0  0  0  0  0  0
   51.6200   30.9850   51.4740 C   0  0  0  0  0  0  0  0  0  0  0  0
   51.6780   30.1160   50.4490 N   0  0  0  0  0  0  0  0  0  0  0  0
   51.2320   30.8370   49.3980 C   0  0  0  0  0  0  0  0  0  0  0  0
   51.1280   30.3550   48.2400 O   0  0  0  0  0  0  0  0  0  0  0  0
   50.9150   32.1180   49.6830 N   0  0  0  0  0  0  0  0  0  0  0  0
   51.1780   32.1970   50.9980 C   0  0  0  0  0  0  0  0  0  0  0  0
   51.0210   33.3560   51.7480 O   0  0  0  0  0  0  0  0  0  0  0  0
   54.5740   30.5940   52.5150 C   0  0  0  0  0  0  0  0  0  0  0  0
   54.6540   31.1860   51.4070 O   0  0  0  0  0  0  0  0  0  0  0  0
   55.6790   30.0810   53.1380 N   0  0  0  0  0  0  0  0  0  0  0  0
   57.3050   30.2520   52.5220 S   0  0  0  0  0  0  0  0  0  0  0  0
   57.3290   30.1280   51.0240 O   0  0  0  0  0  0  0  0  0  0  0  0
   58.1640   29.1620   53.1020 O   0  0  0  0  0  0  0  0  0  0  0  0
   57.9350   31.8390   52.9580 C   0  0  0  0  0  0  0  0  0  0  0  0
   57.9740   32.8730   52.0100 C   0  0  0  0  0  0  0  0  0  0  0  0
   58.4830   34.1280   52.3570 C   0  0  0  0  0  0  0  0  0  0  0  0
   58.9530   34.3590   53.6530 C   0  0  0  0  0  0  0  0  0  0  0  0
   58.9130   33.3350   54.6030 C   0  0  0  0  0  0  0  0  0  0  0  0
   58.4050   32.0770   54.2600 C   0  0  0  0  0  0  0  0  0  0  0  0
   58.3700   31.0970   55.1980 F   0  0  0  0  0  0  0  0  0  0  0  0
   57.2942   28.8241   54.8729 H   0  0  0  0  0  0  0  0  0  0  0  0
   55.8544   28.3136   56.0114 H   0  0  0  0  0  0  0  0  0  0  0  0
   51.3819   30.8450   53.6603 H   0  0  0  0  0  0  0  0  0  0  0  0
   57.6026   32.6953   50.9899 H   0  0  0  0  0  0  0  0  0  0  0  0
   58.5137   34.9344   51.6095 H   0  0  0  0  0  0  0  0  0  0  0  0
   59.3542   35.3465   53.9249 H   0  0  0  0  0  0  0  0  0  0  0  0
   59.2818   33.5182   55.6230 H   0  0  0  0  0  0  0  0  0  0  0  0
  1  2  2  0
  2  3  1  0
  3  4  1  0
  4  5  2  3
  5  6  1  0
  6  7  1  0
  7  8  1  0
  8  9  2  0
  8 10  1  0
 10 11  1  0
 11 12  1  0
  4 13  1  0
 13 14  2  0
 13 15  1  0
 15 16  1  0
 16 17  2  0
 16 18  2  0
 16 19  1  0
 19 20  2  0
 20 21  1  0
 21 22  2  0
 22 23  1  0
 23 24  2  0
 24 25  1  0
 15  2  1  0
 24 19  1  0
 11  6  2  0
  1 26  1  0
  1 27  1  0
  5 28  1  0
 20 29  1  0
 21 30  1  0
 22 31  1  0
 23 32  1  0
M  CHG  3   7  -1  10  -1  12  -1
M  END
>  <UniqueID>  (41) 
38

>  <SMILES>  (41) 
C=c1sc(=Cc2[n-]c(=O)[n-]c2[O-])c(=O)n1S(=O)(=O)c1ccccc1F

>  <Energy>  (41) 
105.79575391349576

>  <Genealogy>  (41) 
C=c1sc(=Cc2[n-]c(=O)[n-]c2[O-])c(=O)n1S(=O)(=O)c1ccccc1F (protonated)
C=c1sc(=Cc2[n-]c(=O)[n-]c2[O-])c(=O)n1S(=O)(=O)c1ccccc1F (3D coordinates assigned)
C=c1sc(=Cc2[n-]c(=O)[n-]c2[O-])c(=O)n1S(=O)(=O)c1ccccc1F (optimized conformer: 105.79575391349576 kcal/mol)

>  <smiles>  (41) 
C=c1sc(=Cc2[nH]c(=O)[nH]c2O)c(=O)n1S(=O)(=O)c1ccccc1F

>  <score_type>  (41) 
oracle

>  <origin>  (41) 
adg

>  <m_score__min__energy>  (41) 
-16.18

>  <m_primary>  (41) 
energy

$$$$
41:0
     RDKit          3D

 72 75  0  0  0  0  0  0  0  0999 V2000
   54.7690   27.4750   46.3410 H   0  0  0  0  0  0  0  0  0  0  0  0
   55.4110   26.7090   46.1780 O   0  0  0  0  0  0  0  0  0  0  0  0
   56.7350   26.9670   45.9140 N   0  0  0  0  0  0  0  0  0  0  0  0
   57.1850   28.1740   45.7350 C   0  0  0  0  0  0  0  0  0  0  0  0
   56.5220   29.0840   44.7650 C   0  0  0  0  0  0  0  0  0  0  0  0
   55.2820   29.2790   44.8650 O   0  0  0  0  0  0  0  0  0  0  0  0
   57.2210   29.7510   43.7020 N   0  0  0  0  0  0  0  0  0  0  0  0
   56.6900   30.7940   42.8280 C   0  0  0  0  0  0  0  0  0  0  0  0
   55.6841   31.0819   43.1676 H   0  0  0  0  0  0  0  0  0  0  0  0
   56.6308   30.4173   41.7962 H   0  0  0  0  0  0  0  0  0  0  0  0
   57.6000   31.9910   42.8780 C   0  0  0  0  0  0  0  0  0  0  0  0
   58.0800   32.4130   41.7860 O   0  0  0  0  0  0  0  0  0  0  0  0
   57.9210   32.6740   44.1170 N   0  0  0  0  0  0  0  0  0  0  0  0
   58.9500   33.7220   44.1200 C   0  0  0  0  0  0  0  0  0  0  0  0
   58.4661   34.6966   43.9584 H   0  0  0  0  0  0  0  0  0  0  0  0
   59.6676   33.4989   43.3167 H   0  0  0  0  0  0  0  0  0  0  0  0
   59.7220   33.7630   45.4550 C   0  0  0  0  0  0  0  0  0  0  0  0
   60.0972   34.7860   45.6053 H   0  0  0  0  0  0  0  0  0  0  0  0
   60.5296   33.0203   45.3763 H   0  0  0  0  0  0  0  0  0  0  0  0
   58.9090   33.3860   46.6400 N   0  0  0  0  0  0  0  0  0  0  0  0
   59.2960   34.1800   47.8150 C   0  0  0  0  0  0  0  0  0  0  0  0
   59.0293   33.6329   48.7313 H   0  0  0  0  0  0  0  0  0  0  0  0
   60.3815   34.3571   47.7965 H   0  0  0  0  0  0  0  0  0  0  0  0
   58.7668   35.1442   47.7965 H   0  0  0  0  0  0  0  0  0  0  0  0
   57.4600   33.4920   46.4040 C   0  0  0  0  0  0  0  0  0  0  0  0
   57.2111   34.5175   46.0936 H   0  0  0  0  0  0  0  0  0  0  0  0
   56.9147   33.2519   47.3287 H   0  0  0  0  0  0  0  0  0  0  0  0
   57.0620   32.5130   45.3020 C   0  0  0  0  0  0  0  0  0  0  0  0
   56.0162   32.6991   45.0161 H   0  0  0  0  0  0  0  0  0  0  0  0
   57.1808   31.4884   45.6841 H   0  0  0  0  0  0  0  0  0  0  0  0
   58.3670   28.6430   46.4940 C   0  0  0  0  0  0  0  0  0  0  0  0
   59.4930   29.1270   45.8120 C   0  0  0  0  0  0  0  0  0  0  0  0
   59.4944   29.1608   44.7125 H   0  0  0  0  0  0  0  0  0  0  0  0
   60.6120   29.5660   46.5220 C   0  0  0  0  0  0  0  0  0  0  0  0
   61.5001   29.9231   45.9800 H   0  0  0  0  0  0  0  0  0  0  0  0
   60.6070   29.5530   47.9190 C   0  0  0  0  0  0  0  0  0  0  0  0
   61.4942   29.8921   48.4739 H   0  0  0  0  0  0  0  0  0  0  0  0
   59.4720   29.1080   48.6170 C   0  0  0  0  0  0  0  0  0  0  0  0
   59.4220   29.1170   50.0500 N   0  0  0  0  0  0  0  0  0  0  0  0
   58.7060   30.0760   50.8360 C   0  0  0  0  0  0  0  0  0  0  0  0
   57.5720   29.7730   51.2890 O   0  0  0  0  0  0  0  0  0  0  0  0
   59.2740   31.3670   51.0940 N   0  0  0  0  0  0  0  0  0  0  0  0
   60.6050   31.8080   50.7970 C   0  0  0  0  0  0  0  0  0  0  0  0
   60.8670   33.0510   50.1960 C   0  0  0  0  0  0  0  0  0  0  0  0
   60.0386   33.7418   49.9805 H   0  0  0  0  0  0  0  0  0  0  0  0
   62.1800   33.4120   49.8710 C   0  0  0  0  0  0  0  0  0  0  0  0
   62.3776   34.3855   49.3985 H   0  0  0  0  0  0  0  0  0  0  0  0
   63.2470   32.5400   50.1440 C   0  0  0  0  0  0  0  0  0  0  0  0
   64.6300   32.9230   49.7810 C   0  0  0  0  0  0  0  0  0  0  0  0
   64.8840   33.2430   48.5870 O   0  0  0  0  0  0  0  0  0  0  0  0
   65.6850   32.9510   50.7610 N   0  0  0  0  0  0  0  0  0  0  0  0
   65.4600   33.6100   52.0580 C   0  0  0  0  0  0  0  0  0  0  0  0
   64.7513   34.4398   51.9197 H   0  0  0  0  0  0  0  0  0  0  0  0
   65.0564   32.8651   52.7596 H   0  0  0  0  0  0  0  0  0  0  0  0
   66.7700   34.1630   52.6400 C   0  0  0  0  0  0  0  0  0  0  0  0
   66.5372   34.9167   53.4067 H   0  0  0  0  0  0  0  0  0  0  0  0
   67.3411   33.3360   53.0871 H   0  0  0  0  0  0  0  0  0  0  0  0
   67.6120   34.8110   51.5310 C   0  0  0  0  0  0  0  0  0  0  0  0
   67.0418   35.6453   51.0964 H   0  0  0  0  0  0  0  0  0  0  0  0
   68.5526   35.1580   51.9836 H   0  0  0  0  0  0  0  0  0  0  0  0
   67.9700   33.8160   50.4060 C   0  0  0  0  0  0  0  0  0  0  0  0
   67.8908   34.3370   49.4405 H   0  0  0  0  0  0  0  0  0  0  0  0
   68.9917   33.4576   50.6003 H   0  0  0  0  0  0  0  0  0  0  0  0
   67.0530   32.5830   50.3720 C   0  0  0  0  0  0  0  0  0  0  0  0
   67.0409   32.1683   49.3532 H   0  0  0  0  0  0  0  0  0  0  0  0
   67.4361   31.8339   51.0806 H   0  0  0  0  0  0  0  0  0  0  0  0
   62.9740   31.2880   50.7140 C   0  0  0  0  0  0  0  0  0  0  0  0
   63.7979   30.5861   50.9104 H   0  0  0  0  0  0  0  0  0  0  0  0
   61.6640   30.9260   51.0340 C   0  0  0  0  0  0  0  0  0  0  0  0
   61.4633   29.9390   51.4761 H   0  0  0  0  0  0  0  0  0  0  0  0
   58.3710   28.6180   47.9000 C   0  0  0  0  0  0  0  0  0  0  0  0
   57.5042   28.2111   48.4413 H   0  0  0  0  0  0  0  0  0  0  0  0
  1  2  1  0
  2  3  1  0
  3  4  2  0
  4  5  1  0
  5  6  2  0
  5  7  1  0
  7  8  1  0
  8  9  1  0
  8 10  1  0
  8 11  1  0
 11 12  2  0
 11 13  1  0
 13 14  1  0
 14 15  1  0
 14 16  1  0
 14 17  1  0
 17 18  1  0
 17 19  1  0
 17 20  1  0
 20 21  1  0
 21 22  1  0
 21 23  1  0
 21 24  1  0
 20 25  1  0
 25 26  1  0
 25 27  1  0
 25 28  1  0
 28 29  1  0
 28 30  1  0
  4 31  1  0
 31 32  2  0
 32 33  1  0
 32 34  1  0
 34 35  1  0
 34 36  2  0
 36 37  1  0
 36 38  1  0
 38 39  1  0
 39 40  1  0
 40 41  2  0
 40 42  1  0
 42 43  1  0
 43 44  2  0
 44 45  1  0
 44 46  1  0
 46 47  1  0
 46 48  2  0
 48 49  1  0
 49 50  2  0
 49 51  1  0
 51 52  1  0
 52 53  1  0
 52 54  1  0
 52 55  1  0
 55 56  1  0
 55 57  1  0
 55 58  1  0
 58 59  1  0
 58 60  1  0
 58 61  1  0
 61 62  1  0
 61 63  1  0
 61 64  1  0
 64 65  1  0
 64 66  1  0
 48 67  1  0
 67 68  1  0
 67 69  2  0
 69 70  1  0
 38 71  2  0
 71 72  1  0
 28 13  1  0
 71 31  1  0
 69 43  1  0
 64 51  1  0
M  CHG  3   7  -1  39  -1  42  -1
M  END
>  <UniqueID>  (42) 
39

>  <SMILES>  (42) 
CN1CCN(C(=O)C[N-]C(=O)/C(=N/O)c2cccc([N-]C(=O)[N-]c3ccc(C(=O)N4CCCCC4)cc3)c2)CC1

>  <Energy>  (42) 
100.61524836892117

>  <Genealogy>  (42) 
CN1CCN(C(=O)C[N-]C(=O)C(=NO)c2cccc([N-]C(=O)[N-]c3ccc(C(=O)N4CCCCC4)cc3)c2)CC1 (protonated)
CN1CCN(C(=O)C[N-]C(=O)/C(=N/O)c2cccc([N-]C(=O)[N-]c3ccc(C(=O)N4CCCCC4)cc3)c2)CC1 (cis-trans isomerization)
CN1CCN(C(=O)C[N-]C(=O)/C(=N/O)c2cccc([N-]C(=O)[N-]c3ccc(C(=O)N4CCCCC4)cc3)c2)CC1 (3D coordinates assigned)
CN1CCN(C(=O)C[N-]C(=O)/C(=N/O)c2cccc([N-]C(=O)[N-]c3ccc(C(=O)N4CCCCC4)cc3)c2)CC1 (nonaromatic ring conformer: 100.61524836892117 kcal/mol)

>  <smiles>  (42) 
CN1CCN(C(=O)CNC(=O)C(=NO)c2cccc(NC(=O)Nc3ccc(C(=O)N4CCCCC4)cc3)c2)CC1

>  <score_type>  (42) 
oracle

>  <origin>  (42) 
adg

>  <m_score__min__energy>  (42) 
-13.890000000000001

>  <m_primary>  (42) 
energy

$$$$
42:0
     RDKit          3D

 64 67  0  0  0  0  0  0  0  0999 V2000
   54.7200   26.3190   45.9120 N   0  0  0  0  0  0  0  0  0  0  0  0
   56.1700   25.3910   46.0550 S   0  0  0  0  0  0  0  0  0  0  0  0
   55.9990   24.3550   47.1300 O   0  0  0  0  0  0  0  0  0  0  0  0
   56.4530   24.6930   44.7530 O   0  0  0  0  0  0  0  0  0  0  0  0
   57.5110   26.4580   46.4600 C   0  0  0  0  0  0  0  0  0  0  0  0
   57.7370   27.6200   45.7110 C   0  0  0  0  0  0  0  0  0  0  0  0
   58.7910   28.4770   46.0410 C   0  0  0  0  0  0  0  0  0  0  0  0
   59.6220   28.1950   47.1390 C   0  0  0  0  0  0  0  0  0  0  0  0
   60.7680   29.1230   47.4970 C   0  0  0  0  0  0  0  0  0  0  0  0
   60.4330   30.1470   48.5190 N   0  0  0  0  0  0  0  0  0  0  0  0
   61.2250   30.0070   49.7530 C   0  0  0  0  0  0  0  0  0  0  0  0
   61.0900   31.2650   50.6250 C   0  0  0  0  0  0  0  0  0  0  0  0
   59.7290   31.8440   50.6000 N   0  0  0  0  0  0  0  0  0  0  0  0
   59.6340   33.2710   50.2240 C   0  0  0  0  0  0  0  0  0  0  0  0
   60.2330   33.5770   48.8720 C   0  0  0  0  0  0  0  0  0  0  0  0
   61.6230   33.5760   48.6910 C   0  0  0  0  0  0  0  0  0  0  0  0
   62.1680   33.8330   47.4330 C   0  0  0  0  0  0  0  0  0  0  0  0
   61.3340   34.1000   46.3450 C   0  0  0  0  0  0  0  0  0  0  0  0
   59.9390   34.1240   46.5080 C   0  0  0  0  0  0  0  0  0  0  0  0
   59.0530   34.3640   45.3410 C   0  0  0  0  0  0  0  0  0  0  0  0
   58.9470   35.5280   44.8650 O   0  0  0  0  0  0  0  0  0  0  0  0
   58.3470   33.2850   44.7090 N   0  0  0  0  0  0  0  0  0  0  0  0
   58.5120   33.0920   43.2620 C   0  0  0  0  0  0  0  0  0  0  0  0
   57.7870   31.8310   42.7740 C   0  0  0  0  0  0  0  0  0  0  0  0
   57.9570   30.6980   43.7890 C   0  0  0  0  0  0  0  0  0  0  0  0
   57.3460   31.0530   45.1600 C   0  0  0  0  0  0  0  0  0  0  0  0
   57.2870   32.5700   45.4330 C   0  0  0  0  0  0  0  0  0  0  0  0
   59.4000   33.8650   47.7810 C   0  0  0  0  0  0  0  0  0  0  0  0
   58.6440   30.9640   50.1190 C   0  0  0  0  0  0  0  0  0  0  0  0
   58.9820   30.1970   48.8170 C   0  0  0  0  0  0  0  0  0  0  0  0
   59.4010   27.0190   47.8760 C   0  0  0  0  0  0  0  0  0  0  0  0
   58.3480   26.1620   47.5440 C   0  0  0  0  0  0  0  0  0  0  0  0
   54.7830   27.0900   46.6140 H   0  0  0  0  0  0  0  0  0  0  0  0
   57.0825   27.8591   44.8598 H   0  0  0  0  0  0  0  0  0  0  0  0
   58.9713   29.3785   45.4370 H   0  0  0  0  0  0  0  0  0  0  0  0
   61.5979   28.5120   47.8816 H   0  0  0  0  0  0  0  0  0  0  0  0
   61.0272   29.6699   46.5785 H   0  0  0  0  0  0  0  0  0  0  0  0
   60.6940   31.0620   48.0790 H   0  0  0  0  0  0  0  0  0  0  0  0
   60.8641   29.1347   50.3177 H   0  0  0  0  0  0  0  0  0  0  0  0
   62.2830   29.8730   49.4833 H   0  0  0  0  0  0  0  0  0  0  0  0
   61.3388   30.9999   51.6632 H   0  0  0  0  0  0  0  0  0  0  0  0
   61.7764   32.0220   50.2179 H   0  0  0  0  0  0  0  0  0  0  0  0
   58.5720   33.5571   50.2075 H   0  0  0  0  0  0  0  0  0  0  0  0
   60.2073   33.8417   50.9694 H   0  0  0  0  0  0  0  0  0  0  0  0
   62.2865   33.3718   49.5443 H   0  0  0  0  0  0  0  0  0  0  0  0
   63.2596   33.8253   47.2972 H   0  0  0  0  0  0  0  0  0  0  0  0
   61.7721   34.2926   45.3546 H   0  0  0  0  0  0  0  0  0  0  0  0
   58.1008   33.9663   42.7361 H   0  0  0  0  0  0  0  0  0  0  0  0
   59.5852   32.9753   43.0507 H   0  0  0  0  0  0  0  0  0  0  0  0
   56.7163   32.0517   42.6516 H   0  0  0  0  0  0  0  0  0  0  0  0
   58.2182   31.5186   41.8115 H   0  0  0  0  0  0  0  0  0  0  0  0
   57.4598   29.7966   43.4014 H   0  0  0  0  0  0  0  0  0  0  0  0
   59.0345   30.5285   43.9312 H   0  0  0  0  0  0  0  0  0  0  0  0
   56.3224   30.6521   45.1994 H   0  0  0  0  0  0  0  0  0  0  0  0
   57.9970   30.6110   45.9286 H   0  0  0  0  0  0  0  0  0  0  0  0
   56.3090   32.9547   45.1080 H   0  0  0  0  0  0  0  0  0  0  0  0
   57.4315   32.7344   46.5110 H   0  0  0  0  0  0  0  0  0  0  0  0
   58.3095   33.8887   47.9230 H   0  0  0  0  0  0  0  0  0  0  0  0
   58.4219   30.2280   50.9057 H   0  0  0  0  0  0  0  0  0  0  0  0
   57.7864   31.6139   49.8906 H   0  0  0  0  0  0  0  0  0  0  0  0
   58.6109   29.1660   48.9141 H   0  0  0  0  0  0  0  0  0  0  0  0
   58.5005   30.7379   47.9890 H   0  0  0  0  0  0  0  0  0  0  0  0
   60.0614   26.7712   48.7201 H   0  0  0  0  0  0  0  0  0  0  0  0
   58.1756   25.2512   48.1363 H   0  0  0  0  0  0  0  0  0  0  0  0
  1  2  1  0
  2  3  2  0
  2  4  2  0
  2  5  1  0
  5  6  2  0
  6  7  1  0
  7  8  2  0
  8  9  1  0
  9 10  1  0
 10 11  1  0
 11 12  1  0
 12 13  1  0
 13 14  1  0
 14 15  1  0
 15 16  2  0
 16 17  1  0
 17 18  2  0
 18 19  1  0
 19 20  1  0
 20 21  2  0
 20 22  1  0
 22 23  1  0
 23 24  1  0
 24 25  1  0
 25 26  1  0
 26 27  1  0
 19 28  2  0
 13 29  1  0
 29 30  1  0
  8 31  1  0
 31 32  2  0
 32  5  1  0
 30 10  1  0
 28 15  1  0
 27 22  1  0
  1 33  1  0
  6 34  1  0
  7 35  1  0
  9 36  1  0
  9 37  1  0
 10 38  1  0
 11 39  1  0
 11 40  1  0
 12 41  1  0
 12 42  1  0
 14 43  1  0
 14 44  1  0
 16 45  1  0
 17 46  1  0
 18 47  1  0
 23 48  1  0
 23 49  1  0
 24 50  1  0
 24 51  1  0
 25 52  1  0
 25 53  1  0
 26 54  1  0
 26 55  1  0
 27 56  1  0
 27 57  1  0
 28 58  1  0
 29 59  1  0
 29 60  1  0
 30 61  1  0
 30 62  1  0
 31 63  1  0
 32 64  1  0
M  CHG  2   1  -1  10   1
M  END
>  <UniqueID>  (43) 
40

>  <SMILES>  (43) 
[NH-]S(=O)(=O)c1ccc(C[NH+]2CCN(Cc3cccc(C(=O)N4CCCCC4)c3)CC2)cc1

>  <Energy>  (43) 
89.09741070966133

>  <Genealogy>  (43) 
[NH-]S(=O)(=O)c1ccc(C[NH+]2CCN(Cc3cccc(C(=O)N4CCCCC4)c3)CC2)cc1 (protonated)
[NH-]S(=O)(=O)c1ccc(C[NH+]2CCN(Cc3cccc(C(=O)N4CCCCC4)c3)CC2)cc1 (3D coordinates assigned)
[NH-]S(=O)(=O)c1ccc(C[NH+]2CCN(Cc3cccc(C(=O)N4CCCCC4)c3)CC2)cc1 (nonaromatic ring conformer: 89.09741070966133 kcal/mol)

>  <smiles>  (43) 
NS(=O)(=O)c1ccc(CN2CCN(Cc3cccc(C(=O)N4CCCCC4)c3)CC2)cc1

>  <score_type>  (43) 
oracle

>  <origin>  (43) 
adg

>  <m_score__min__energy>  (43) 
-11.31

>  <m_primary>  (43) 
energy

$$$$
43:0
     RDKit          3D

 50 53  0  0  1  0  0  0  0  0999 V2000
   59.9500   34.8180   47.3110 C   0  0  0  0  0  0  0  0  0  0  0  0
   59.2610   35.0240   46.1990 C   0  0  0  0  0  0  0  0  0  0  0  0
   58.3850   33.9300   45.7290 C   0  0  0  0  0  0  0  0  0  0  0  0
   57.4470   33.5900   46.4740 O   0  0  0  0  0  0  0  0  0  0  0  0
   58.6740   33.3510   44.4700 N   0  0  0  0  0  0  0  0  0  0  0  0
   57.9180   32.2920   43.8950 C   0  0  0  0  0  0  0  0  0  0  0  0
   57.7630   32.3430   42.5040 C   0  0  0  0  0  0  0  0  0  0  0  0
   57.0300   31.3210   41.9210 C   0  0  0  0  0  0  0  0  0  0  0  0
   56.4820   30.3070   42.6790 C   0  0  0  0  0  0  0  0  0  0  0  0
   56.6380   30.2640   44.0510 C   0  0  0  0  0  0  0  0  0  0  0  0
   56.0680   29.2130   44.8240 N   0  0  0  0  0  0  0  0  0  0  0  0
   56.8200   28.4620   45.5540 C   0  0  0  0  0  0  0  0  0  0  0  0
   57.7050   29.1210   46.3530 N   0  0  0  0  0  0  0  0  0  0  0  0
   58.5110   28.3780   47.1320 C   0  0  0  0  0  0  0  0  0  0  0  0
   59.4350   29.0590   47.9660 N   0  0  0  0  0  0  0  0  0  0  0  0
   59.5610   30.4100   48.5110 C   0  0  0  0  0  0  0  0  0  0  0  0
   60.3240   29.8260   49.6960 C   0  0  0  0  0  0  0  0  0  0  0  0
   61.3980   30.5980   50.1260 O   0  0  0  0  0  0  0  0  0  0  0  0
   62.0700   31.5660   49.4040 C   0  0  0  0  0  0  0  0  0  0  0  0
   62.7710   31.3220   48.2450 C   0  0  0  0  0  0  0  0  0  0  0  0
   63.4350   32.3350   47.5490 C   0  0  0  0  0  0  0  0  0  0  0  0
   63.3530   33.6040   48.0850 C   0  0  0  0  0  0  0  0  0  0  0  0
   63.9700   34.6170   47.4630 F   0  0  0  0  0  0  0  0  0  0  0  0
   62.6600   33.8910   49.2450 C   0  0  0  0  0  0  0  0  0  0  0  0
   62.0210   32.8590   49.8970 C   0  0  0  0  0  0  0  0  0  0  0  0
   61.3500   33.1780   51.0330 F   0  0  0  0  0  0  0  0  0  0  0  0
   60.6810   28.7480   48.6730 C   0  0  0  0  0  0  0  0  0  0  0  0
   58.4830   26.9990   47.1590 C   0  0  0  0  0  0  0  0  0  0  0  0
   57.5530   26.3840   46.3160 C   0  0  0  0  0  0  0  0  0  0  0  0
   56.7400   27.1190   45.5310 N   0  0  0  0  0  0  0  0  0  0  0  0
   57.3620   31.2700   44.6340 C   0  0  0  0  0  0  0  0  0  0  0  0
   60.6151   35.6034   47.6994 H   0  0  0  0  0  0  0  0  0  0  0  0
   59.8572   33.8615   47.8463 H   0  0  0  0  0  0  0  0  0  0  0  0
   59.3376   35.9722   45.6466 H   0  0  0  0  0  0  0  0  0  0  0  0
   59.4920   33.6930   43.8880 H   0  0  0  0  0  0  0  0  0  0  0  0
   58.2013   33.1540   41.9038 H   0  0  0  0  0  0  0  0  0  0  0  0
   56.8822   31.3185   40.8310 H   0  0  0  0  0  0  0  0  0  0  0  0
   55.9070   29.5137   42.1790 H   0  0  0  0  0  0  0  0  0  0  0  0
   60.1499   31.0981   47.8867 H   0  0  0  0  0  0  0  0  0  0  0  0
   58.6759   31.0451   48.6635 H   0  0  0  0  0  0  0  0  0  0  0  0
   59.8846   29.6239   50.6840 H   0  0  0  0  0  0  0  0  0  0  0  0
   62.8097   30.2947   47.8535 H   0  0  0  0  0  0  0  0  0  0  0  0
   63.9933   32.1320   46.6232 H   0  0  0  0  0  0  0  0  0  0  0  0
   62.6193   34.9175   49.6383 H   0  0  0  0  0  0  0  0  0  0  0  0
   61.5947   28.9534   48.0960 H   0  0  0  0  0  0  0  0  0  0  0  0
   60.9163   27.7204   48.9871 H   0  0  0  0  0  0  0  0  0  0  0  0
   59.1544   26.4165   47.8071 H   0  0  0  0  0  0  0  0  0  0  0  0
   57.4836   25.2864   46.2928 H   0  0  0  0  0  0  0  0  0  0  0  0
   56.0480   26.6540   44.9030 H   0  0  0  0  0  0  0  0  0  0  0  0
   57.5040   31.2620   45.7248 H   0  0  0  0  0  0  0  0  0  0  0  0
  1  2  2  0
  2  3  1  0
  3  4  2  0
  3  5  1  0
  5  6  1  0
  6  7  2  0
  7  8  1  0
  8  9  2  0
  9 10  1  0
 10 11  1  0
 11 12  2  0
 12 13  1  0
 13 14  2  0
 14 15  1  0
 15 16  1  0
 16 17  1  0
 17 18  1  0
 18 19  1  0
 19 20  2  0
 20 21  1  0
 21 22  2  0
 22 23  1  0
 22 24  1  0
 24 25  2  0
 25 26  1  0
 17 27  1  0
 14 28  1  0
 28 29  2  0
 29 30  1  0
 10 31  2  0
 31  6  1  0
 30 12  1  0
 27 15  1  0
 25 19  1  0
  1 32  1  0
  1 33  1  0
  2 34  1  0
  5 35  1  0
  7 36  1  0
  8 37  1  0
  9 38  1  0
 16 39  1  0
 16 40  1  0
 17 41  1  0
 20 42  1  0
 21 43  1  0
 24 44  1  0
 27 45  1  0
 27 46  1  0
 28 47  1  0
 29 48  1  0
 30 49  1  0
 31 50  1  0
M  END
>  <smiles>  (44) 
C=CC(=O)Nc1cccc(N=c2nc(N3CC(Oc4ccc(F)cc4F)C3)cc[nH]2)c1

>  <score_type>  (44) 
oracle

>  <origin>  (44) 
adg

>  <m_score__min__energy>  (44) 
-8.6300000000000008

>  <m_primary>  (44) 
energy

$$$$
44:0
     RDKit          3D

 44 46  0  0  0  0  0  0  0  0999 V2000
   61.8170   32.5040   50.9700 C   0  0  0  0  0  0  0  0  0  0  0  0
   62.0930   33.8350   50.2830 C   0  0  0  0  0  0  0  0  0  0  0  0
   61.9730   33.6920   48.8310 N   0  0  0  0  0  0  0  0  0  0  0  0
   62.9630   33.7190   47.9050 C   0  0  0  0  0  0  0  0  0  0  0  0
   64.1860   33.8180   48.1920 O   0  0  0  0  0  0  0  0  0  0  0  0
   62.5150   33.6370   46.6640 O   0  0  0  0  0  0  0  0  0  0  0  0
   61.2080   33.5690   46.7660 C   0  0  0  0  0  0  0  0  0  0  0  0
   60.2630   33.4790   45.7500 C   0  0  0  0  0  0  0  0  0  0  0  0
   58.9020   33.4370   46.1210 C   0  0  0  0  0  0  0  0  0  0  0  0
   57.6480   33.3000   44.8910 S   0  0  0  0  0  0  0  0  0  0  0  0
   58.2700   33.1840   43.5270 O   0  0  0  0  0  0  0  0  0  0  0  0
   56.7940   34.5360   44.9220 O   0  0  0  0  0  0  0  0  0  0  0  0
   56.6530   31.9110   45.2050 N   0  0  0  0  0  0  0  0  0  0  0  0
   56.6630   31.0240   44.0460 C   0  0  0  0  0  0  0  0  0  0  0  0
   56.3310   29.6380   44.4900 C   0  0  0  0  0  0  0  0  0  0  0  0
   55.1620   29.3690   44.8790 O   0  0  0  0  0  0  0  0  0  0  0  0
   57.3530   28.6340   44.4850 N   0  0  0  0  0  0  0  0  0  0  0  0
   58.0050   28.0680   45.6350 C   0  0  0  0  0  0  0  0  0  0  0  0
   57.7540   26.7380   46.0220 C   0  0  0  0  0  0  0  0  0  0  0  0
   58.3890   26.1940   47.1380 C   0  0  0  0  0  0  0  0  0  0  0  0
   59.2840   26.9640   47.8780 C   0  0  0  0  0  0  0  0  0  0  0  0
   59.5690   28.2780   47.4970 C   0  0  0  0  0  0  0  0  0  0  0  0
   60.7000   29.2010   48.4850 Cl  0  0  0  0  0  0  0  0  0  0  0  0
   58.9530   28.8350   46.3530 C   0  0  0  0  0  0  0  0  0  0  0  0
   59.2550   30.2590   45.9570 C   0  0  0  0  0  0  0  0  0  0  0  0
   58.5380   33.4790   47.4910 C   0  0  0  0  0  0  0  0  0  0  0  0
   59.5220   33.5710   48.4920 C   0  0  0  0  0  0  0  0  0  0  0  0
   60.8550   33.6080   48.0860 C   0  0  0  0  0  0  0  0  0  0  0  0
   61.8455   32.6416   52.0610 H   0  0  0  0  0  0  0  0  0  0  0  0
   60.8236   32.1369   50.6726 H   0  0  0  0  0  0  0  0  0  0  0  0
   62.5825   31.7722   50.6726 H   0  0  0  0  0  0  0  0  0  0  0  0
   61.3670   34.5825   50.6352 H   0  0  0  0  0  0  0  0  0  0  0  0
   63.1156   34.1584   50.5273 H   0  0  0  0  0  0  0  0  0  0  0  0
   60.5659   33.4418   44.6932 H   0  0  0  0  0  0  0  0  0  0  0  0
   55.9161   31.3654   43.3142 H   0  0  0  0  0  0  0  0  0  0  0  0
   57.6587   31.0354   43.5787 H   0  0  0  0  0  0  0  0  0  0  0  0
   57.0518   26.1233   45.4398 H   0  0  0  0  0  0  0  0  0  0  0  0
   58.1829   25.1550   47.4347 H   0  0  0  0  0  0  0  0  0  0  0  0
   59.7690   26.5351   48.7673 H   0  0  0  0  0  0  0  0  0  0  0  0
   59.3849   30.8714   46.8615 H   0  0  0  0  0  0  0  0  0  0  0  0
   60.1788   30.2856   45.3604 H   0  0  0  0  0  0  0  0  0  0  0  0
   58.4216   30.6583   45.3604 H   0  0  0  0  0  0  0  0  0  0  0  0
   57.4757   33.4392   47.7737 H   0  0  0  0  0  0  0  0  0  0  0  0
   59.2494   33.6123   49.5569 H   0  0  0  0  0  0  0  0  0  0  0  0
  1  2  1  0
  2  3  1  0
  3  4  1  0
  4  5  2  0
  4  6  1  0
  6  7  1  0
  7  8  2  0
  8  9  1  0
  9 10  1  0
 10 11  2  0
 10 12  2  0
 10 13  1  0
 13 14  1  0
 14 15  1  0
 15 16  2  0
 15 17  1  0
 17 18  1  0
 18 19  2  0
 19 20  1  0
 20 21  2  0
 21 22  1  0
 22 23  1  0
 22 24  2  0
 24 25  1  0
  9 26  2  0
 26 27  1  0
 27 28  2  0
 28  3  1  0
 28  7  1  0
 24 18  1  0
  1 29  1  0
  1 30  1  0
  1 31  1  0
  2 32  1  0
  2 33  1  0
  8 34  1  0
 14 35  1  0
 14 36  1  0
 19 37  1  0
 20 38  1  0
 21 39  1  0
 25 40  1  0
 25 41  1  0
 25 42  1  0
 26 43  1  0
 27 44  1  0
M  CHG  2  13  -1  17  -1
M  END
>  <UniqueID>  (45) 
41

>  <SMILES>  (45) 
CCn1c(=O)oc2cc(S(=O)(=O)[N-]CC(=O)[N-]c3cccc(Cl)c3C)ccc21

>  <Energy>  (45) 
86.5827004175279

>  <Genealogy>  (45) 
CCn1c(=O)oc2cc(S(=O)(=O)[N-]CC(=O)[N-]c3cccc(Cl)c3C)ccc21 (protonated)
CCn1c(=O)oc2cc(S(=O)(=O)[N-]CC(=O)[N-]c3cccc(Cl)c3C)ccc21 (3D coordinates assigned)
CCn1c(=O)oc2cc(S(=O)(=O)[N-]CC(=O)[N-]c3cccc(Cl)c3C)ccc21 (optimized conformer: 86.5827004175279 kcal/mol)

>  <smiles>  (45) 
CCn1c(=O)oc2cc(S(=O)(=O)NCC(=O)Nc3cccc(Cl)c3C)ccc21

>  <score_type>  (45) 
oracle

>  <origin>  (45) 
adg

>  <m_score__min__energy>  (45) 
-12.41

>  <m_primary>  (45) 
energy

$$$$
45:0
     RDKit          3D

 47 49  0  0  0  0  0  0  0  0999 V2000
   55.5720   30.6080   51.3050 O   0  0  0  0  0  0  0  0  0  0  0  0
   56.1150   30.8640   52.4110 C   0  0  0  0  0  0  0  0  0  0  0  0
   55.8850   29.9190   53.5640 C   0  0  0  0  0  0  0  0  0  0  0  0
   54.8260   28.9530   53.2780 N   0  0  0  0  0  0  0  0  0  0  0  0
   53.4150   29.1960   53.3590 C   0  0  0  0  0  0  0  0  0  0  0  0
   52.7750   28.7300   54.3390 O   0  0  0  0  0  0  0  0  0  0  0  0
   52.6990   30.0110   52.3610 C   0  0  0  0  0  0  0  0  0  0  0  0
   52.6780   29.6370   51.0090 C   0  0  0  0  0  0  0  0  0  0  0  0
   51.9920   30.4150   50.0730 C   0  0  0  0  0  0  0  0  0  0  0  0
   51.3130   31.5670   50.4790 C   0  0  0  0  0  0  0  0  0  0  0  0
   50.6350   32.3310   49.5360 O   0  0  0  0  0  0  0  0  0  0  0  0
   51.3160   31.9430   51.8330 C   0  0  0  0  0  0  0  0  0  0  0  0
   50.6450   33.0860   52.2670 O   0  0  0  0  0  0  0  0  0  0  0  0
   52.0030   31.1600   52.7680 C   0  0  0  0  0  0  0  0  0  0  0  0
   56.8890   32.0670   52.5340 N   0  0  0  0  0  0  0  0  0  0  0  0
   58.1910   32.3060   51.9850 C   0  0  0  0  0  0  0  0  0  0  0  0
   58.6500   31.4890   50.9460 C   0  0  0  0  0  0  0  0  0  0  0  0
   59.9150   31.6980   50.3890 C   0  0  0  0  0  0  0  0  0  0  0  0
   60.7450   32.7120   50.8860 C   0  0  0  0  0  0  0  0  0  0  0  0
   62.3390   32.9870   50.1710 S   0  0  0  0  0  0  0  0  0  0  0  0
   63.3210   32.0270   50.7850 O   0  0  0  0  0  0  0  0  0  0  0  0
   62.7870   34.3830   50.5000 O   0  0  0  0  0  0  0  0  0  0  0  0
   62.3530   32.7800   48.4360 N   0  0  0  0  0  0  0  0  0  0  0  0
   63.6090   33.2280   47.8390 C   0  0  0  0  0  0  0  0  0  0  0  0
   63.2930   33.5830   46.3950 C   0  0  0  0  0  0  0  0  0  0  0  0
   61.7870   33.8060   46.3570 C   0  0  0  0  0  0  0  0  0  0  0  0
   61.3080   33.5610   47.7800 C   0  0  0  0  0  0  0  0  0  0  0  0
   60.2960   33.5160   51.9420 C   0  0  0  0  0  0  0  0  0  0  0  0
   59.0310   33.3070   52.4980 C   0  0  0  0  0  0  0  0  0  0  0  0
   56.8181   29.3731   53.7672 H   0  0  0  0  0  0  0  0  0  0  0  0
   55.5747   30.5151   54.4349 H   0  0  0  0  0  0  0  0  0  0  0  0
   53.2040   28.7271   50.6844 H   0  0  0  0  0  0  0  0  0  0  0  0
   51.9863   30.1199   49.0133 H   0  0  0  0  0  0  0  0  0  0  0  0
   50.3570   33.8150   51.6270 H   0  0  0  0  0  0  0  0  0  0  0  0
   51.9974   31.4473   53.8298 H   0  0  0  0  0  0  0  0  0  0  0  0
   58.0120   30.6778   50.5654 H   0  0  0  0  0  0  0  0  0  0  0  0
   60.2599   31.0648   49.5583 H   0  0  0  0  0  0  0  0  0  0  0  0
   63.9911   34.1104   48.3732 H   0  0  0  0  0  0  0  0  0  0  0  0
   64.3809   32.4466   47.8986 H   0  0  0  0  0  0  0  0  0  0  0  0
   63.8258   34.4983   46.0977 H   0  0  0  0  0  0  0  0  0  0  0  0
   63.6083   32.7914   45.6994 H   0  0  0  0  0  0  0  0  0  0  0  0
   61.5579   34.8358   46.0454 H   0  0  0  0  0  0  0  0  0  0  0  0
   61.2918   33.1376   45.6372 H   0  0  0  0  0  0  0  0  0  0  0  0
   61.1627   34.5178   48.3029 H   0  0  0  0  0  0  0  0  0  0  0  0
   60.3451   33.0294   47.7915 H   0  0  0  0  0  0  0  0  0  0  0  0
   60.9419   34.3150   52.3350 H   0  0  0  0  0  0  0  0  0  0  0  0
   58.6925   33.9286   53.3400 H   0  0  0  0  0  0  0  0  0  0  0  0
  1  2  2  0
  2  3  1  0
  3  4  1  0
  4  5  1  0
  5  6  2  0
  5  7  1  0
  7  8  2  0
  8  9  1  0
  9 10  2  0
 10 11  1  0
 10 12  1  0
 12 13  1  0
 12 14  2  0
  2 15  1  0
 15 16  1  0
 16 17  2  0
 17 18  1  0
 18 19  2  0
 19 20  1  0
 20 21  2  0
 20 22  2  0
 20 23  1  0
 23 24  1  0
 24 25  1  0
 25 26  1  0
 26 27  1  0
 19 28  1  0
 28 29  2  0
 14  7  1  0
 29 16  1  0
 27 23  1  0
  3 30  1  0
  3 31  1  0
  8 32  1  0
  9 33  1  0
 13 34  1  0
 14 35  1  0
 17 36  1  0
 18 37  1  0
 24 38  1  0
 24 39  1  0
 25 40  1  0
 25 41  1  0
 26 42  1  0
 26 43  1  0
 27 44  1  0
 27 45  1  0
 28 46  1  0
 29 47  1  0
M  CHG  3   4  -1  11  -1  15  -1
M  END
>  <UniqueID>  (46) 
42

>  <SMILES>  (46) 
O=C(C[N-]C(=O)c1ccc([O-])c(O)c1)[N-]c1ccc(S(=O)(=O)N2CCCC2)cc1

>  <Energy>  (46) 
57.27347734946177

>  <Genealogy>  (46) 
O=C(C[N-]C(=O)c1ccc([O-])c(O)c1)[N-]c1ccc(S(=O)(=O)N2CCCC2)cc1 (protonated)
O=C(C[N-]C(=O)c1ccc([O-])c(O)c1)[N-]c1ccc(S(=O)(=O)N2CCCC2)cc1 (3D coordinates assigned)
O=C(C[N-]C(=O)c1ccc([O-])c(O)c1)[N-]c1ccc(S(=O)(=O)N2CCCC2)cc1 (nonaromatic ring conformer: 57.27347734946177 kcal/mol)

>  <smiles>  (46) 
O=C(CNC(=O)c1ccc(O)c(O)c1)Nc1ccc(S(=O)(=O)N2CCCC2)cc1

>  <score_type>  (46) 
oracle

>  <origin>  (46) 
adg

>  <m_score__min__energy>  (46) 
-14.85

>  <m_primary>  (46) 
energy

$$$$
46:0
     RDKit          3D

 53 55  0  0  0  0  0  0  0  0999 V2000
   56.2810   22.4940   43.2030 C   0  0  0  0  0  0  0  0  0  0  0  0
   57.4900   22.0280   44.0120 C   0  0  0  0  0  0  0  0  0  0  0  0
   57.5730   22.6890   45.3660 C   0  0  0  0  0  0  0  0  0  0  0  0
   57.7640   21.9750   46.3910 O   0  0  0  0  0  0  0  0  0  0  0  0
   57.4910   24.1230   45.5100 N   0  0  0  0  0  0  0  0  0  0  0  0
   57.1070   24.6750   46.8190 C   0  0  0  0  0  0  0  0  0  0  0  0
   56.8360   26.1800   46.7400 C   0  0  0  0  0  0  0  0  0  0  0  0
   57.9340   26.8430   46.0350 N   0  0  0  0  0  0  0  0  0  0  0  0
   58.5510   28.0050   46.6050 C   0  0  0  0  0  0  0  0  0  0  0  0
   59.7120   27.8600   47.3800 C   0  0  0  0  0  0  0  0  0  0  0  0
   60.3250   28.9800   47.9460 C   0  0  0  0  0  0  0  0  0  0  0  0
   59.7870   30.2510   47.7390 C   0  0  0  0  0  0  0  0  0  0  0  0
   58.6280   30.4050   46.9740 C   0  0  0  0  0  0  0  0  0  0  0  0
   57.9870   29.2820   46.4210 C   0  0  0  0  0  0  0  0  0  0  0  0
   56.7980   29.4230   45.6310 N   0  0  0  0  0  0  0  0  0  0  0  0
   56.6340   30.2730   44.4890 C   0  0  0  0  0  0  0  0  0  0  0  0
   55.4690   30.6090   44.1450 O   0  0  0  0  0  0  0  0  0  0  0  0
   57.8150   30.8070   43.7200 C   0  0  0  0  0  0  0  0  0  0  0  0
   57.6550   32.3050   43.4330 C   0  0  0  0  0  0  0  0  0  0  0  0
   58.0720   33.1220   44.6270 C   0  0  0  0  0  0  0  0  0  0  0  0
   59.2160   33.9370   44.5610 C   0  0  0  0  0  0  0  0  0  0  0  0
   59.6180   34.6780   45.6770 C   0  0  0  0  0  0  0  0  0  0  0  0
   58.8850   34.6060   46.8670 C   0  0  0  0  0  0  0  0  0  0  0  0
   57.7540   33.7880   46.9430 C   0  0  0  0  0  0  0  0  0  0  0  0
   57.3490   33.0430   45.8310 C   0  0  0  0  0  0  0  0  0  0  0  0
   58.4680   26.2800   44.7870 C   0  0  0  0  0  0  0  0  0  0  0  0
   57.7010   25.0210   44.3600 C   0  0  0  0  0  0  0  0  0  0  0  0
   55.4783   22.8034   43.8885 H   0  0  0  0  0  0  0  0  0  0  0  0
   56.5701   23.3451   42.5690 H   0  0  0  0  0  0  0  0  0  0  0  0
   55.9240   21.6690   42.5690 H   0  0  0  0  0  0  0  0  0  0  0  0
   57.4196   20.9396   44.1552 H   0  0  0  0  0  0  0  0  0  0  0  0
   58.3937   22.3061   43.4500 H   0  0  0  0  0  0  0  0  0  0  0  0
   56.1960   24.1663   47.1673 H   0  0  0  0  0  0  0  0  0  0  0  0
   57.9404   24.5123   47.5183 H   0  0  0  0  0  0  0  0  0  0  0  0
   55.8951   26.3540   46.1973 H   0  0  0  0  0  0  0  0  0  0  0  0
   56.7568   26.5896   47.7578 H   0  0  0  0  0  0  0  0  0  0  0  0
   60.1409   26.8602   47.5423 H   0  0  0  0  0  0  0  0  0  0  0  0
   61.2328   28.8602   48.5556 H   0  0  0  0  0  0  0  0  0  0  0  0
   60.2761   31.1327   48.1787 H   0  0  0  0  0  0  0  0  0  0  0  0
   58.2147   31.4100   46.8034 H   0  0  0  0  0  0  0  0  0  0  0  0
   58.7293   30.6501   44.3111 H   0  0  0  0  0  0  0  0  0  0  0  0
   57.8783   30.2722   42.7608 H   0  0  0  0  0  0  0  0  0  0  0  0
   58.2831   32.5770   42.5719 H   0  0  0  0  0  0  0  0  0  0  0  0
   56.5972   32.5126   43.2138 H   0  0  0  0  0  0  0  0  0  0  0  0
   59.7968   33.9919   43.6284 H   0  0  0  0  0  0  0  0  0  0  0  0
   60.5109   35.3178   45.6193 H   0  0  0  0  0  0  0  0  0  0  0  0
   59.1989   35.1932   47.7426 H   0  0  0  0  0  0  0  0  0  0  0  0
   57.1810   33.7302   47.8802 H   0  0  0  0  0  0  0  0  0  0  0  0
   56.4634   32.3940   45.8980 H   0  0  0  0  0  0  0  0  0  0  0  0
   58.3858   27.0349   43.9912 H   0  0  0  0  0  0  0  0  0  0  0  0
   59.5183   26.0010   44.9577 H   0  0  0  0  0  0  0  0  0  0  0  0
   56.7241   25.3155   43.9489 H   0  0  0  0  0  0  0  0  0  0  0  0
   58.2909   24.4888   43.5992 H   0  0  0  0  0  0  0  0  0  0  0  0
  1  2  1  0
  2  3  1  0
  3  4  2  0
  3  5  1  0
  5  6  1  0
  6  7  1  0
  7  8  1  0
  8  9  1  0
  9 10  2  0
 10 11  1  0
 11 12  2  0
 12 13  1  0
 13 14  2  0
 14 15  1  0
 15 16  1  0
 16 17  2  0
 16 18  1  0
 18 19  1  0
 19 20  1  0
 20 21  2  0
 21 22  1  0
 22 23  2  0
 23 24  1  0
 24 25  2  0
  8 26  1  0
 26 27  1  0
 27  5  1  0
 14  9  1  0
 25 20  1  0
  1 28  1  0
  1 29  1  0
  1 30  1  0
  2 31  1  0
  2 32  1  0
  6 33  1  0
  6 34  1  0
  7 35  1  0
  7 36  1  0
 10 37  1  0
 11 38  1  0
 12 39  1  0
 13 40  1  0
 18 41  1  0
 18 42  1  0
 19 43  1  0
 19 44  1  0
 21 45  1  0
 22 46  1  0
 23 47  1  0
 24 48  1  0
 25 49  1  0
 26 50  1  0
 26 51  1  0
 27 52  1  0
 27 53  1  0
M  CHG  1  15  -1
M  END
>  <UniqueID>  (47) 
43

>  <SMILES>  (47) 
CCC(=O)N1CCN(c2ccccc2[N-]C(=O)CCc2ccccc2)CC1

>  <Energy>  (47) 
59.66621595123099

>  <Genealogy>  (47) 
CCC(=O)N1CCN(c2ccccc2[N-]C(=O)CCc2ccccc2)CC1 (protonated)
CCC(=O)N1CCN(c2ccccc2[N-]C(=O)CCc2ccccc2)CC1 (3D coordinates assigned)
CCC(=O)N1CCN(c2ccccc2[N-]C(=O)CCc2ccccc2)CC1 (nonaromatic ring conformer: 59.66621595123099 kcal/mol)

>  <smiles>  (47) 
CCC(=O)N1CCN(c2ccccc2NC(=O)CCc2ccccc2)CC1

>  <score_type>  (47) 
oracle

>  <origin>  (47) 
adg

>  <m_score__min__energy>  (47) 
-9.8499999999999996

>  <m_primary>  (47) 
energy

$$$$
47:0
     RDKit          3D

 35 37  0  0  0  0  0  0  0  0999 V2000
   60.5050   27.4600   51.7670 C   0  0  0  0  0  0  0  0  0  0  0  0
   60.3950   28.3460   50.9570 C   0  0  0  0  0  0  0  0  0  0  0  0
   60.2640   29.4050   49.9900 C   0  0  0  0  0  0  0  0  0  0  0  0
   61.1170   29.4500   48.8820 C   0  0  0  0  0  0  0  0  0  0  0  0
   60.9930   30.4800   47.9440 C   0  0  0  0  0  0  0  0  0  0  0  0
   60.0220   31.4800   48.1100 C   0  0  0  0  0  0  0  0  0  0  0  0
   59.9220   32.5660   47.1110 C   0  0  0  0  0  0  0  0  0  0  0  0
   59.1350   32.6070   46.0310 C   0  0  0  0  0  0  0  0  0  0  0  0
   58.1030   31.6220   45.6350 C   0  0  0  0  0  0  0  0  0  0  0  0
   56.9980   32.0110   44.8580 C   0  0  0  0  0  0  0  0  0  0  0  0
   56.0290   31.0760   44.4900 C   0  0  0  0  0  0  0  0  0  0  0  0
   56.1530   29.7410   44.8860 C   0  0  0  0  0  0  0  0  0  0  0  0
   55.1750   28.8250   44.5100 O   0  0  0  0  0  0  0  0  0  0  0  0
   57.2570   29.3340   45.6530 C   0  0  0  0  0  0  0  0  0  0  0  0
   57.4200   27.6490   46.1520 S   0  0  0  0  0  0  0  0  0  0  0  0
   55.9210   26.8270   45.9070 N   0  0  0  0  0  0  0  0  0  0  0  0
   58.4900   26.9640   45.3500 O   0  0  0  0  0  0  0  0  0  0  0  0
   57.7930   27.5950   47.6080 O   0  0  0  0  0  0  0  0  0  0  0  0
   58.2280   30.2780   46.0200 C   0  0  0  0  0  0  0  0  0  0  0  0
   59.4280   33.8610   45.3320 C   0  0  0  0  0  0  0  0  0  0  0  0
   58.8580   34.2530   44.2800 O   0  0  0  0  0  0  0  0  0  0  0  0
   60.4230   34.6250   46.0020 N   0  0  0  0  0  0  0  0  0  0  0  0
   60.7160   33.7950   47.1190 C   0  0  0  0  0  0  0  0  0  0  0  0
   61.5760   34.0930   47.9890 O   0  0  0  0  0  0  0  0  0  0  0  0
   59.1490   31.4170   49.2150 C   0  0  0  0  0  0  0  0  0  0  0  0
   58.1400   32.3600   49.3800 O   0  0  0  0  0  0  0  0  0  0  0  0
   59.2800   30.3880   50.1530 C   0  0  0  0  0  0  0  0  0  0  0  0
   60.6054   26.6515   52.5061 H   0  0  0  0  0  0  0  0  0  0  0  0
   61.8858   28.6747   48.7485 H   0  0  0  0  0  0  0  0  0  0  0  0
   61.6608   30.5066   47.0703 H   0  0  0  0  0  0  0  0  0  0  0  0
   56.8963   33.0585   44.5380 H   0  0  0  0  0  0  0  0  0  0  0  0
   55.1649   31.3907   43.8864 H   0  0  0  0  0  0  0  0  0  0  0  0
   55.1620   27.4830   46.1970 H   0  0  0  0  0  0  0  0  0  0  0  0
   59.0967   29.9614   46.6159 H   0  0  0  0  0  0  0  0  0  0  0  0
   58.6073   30.3506   51.0225 H   0  0  0  0  0  0  0  0  0  0  0  0
  1  2  3  0
  2  3  1  0
  3  4  2  0
  4  5  1  0
  5  6  2  0
  6  7  1  0
  7  8  2  0
  8  9  1  0
  9 10  2  0
 10 11  1  0
 11 12  2  0
 12 13  1  0
 12 14  1  0
 14 15  1  0
 15 16  1  0
 15 17  2  0
 15 18  2  0
 14 19  2  0
  8 20  1  0
 20 21  2  0
 20 22  1  0
 22 23  1  0
 23 24  2  0
  6 25  1  0
 25 26  1  0
 25 27  2  0
 27  3  1  0
 23  7  1  0
 19  9  1  0
  1 28  1  0
  4 29  1  0
  5 30  1  0
 10 31  1  0
 11 32  1  0
 16 33  1  0
 19 34  1  0
 27 35  1  0
M  CHG  4  13  -1  16  -1  22  -1  26  -1
M  END
>  <UniqueID>  (48) 
44

>  <SMILES>  (48) 
C#Cc1ccc(C2=C(c3ccc([O-])c(S([NH-])(=O)=O)c3)C(=O)[N-]C2=O)c([O-])c1

>  <Energy>  (48) 
71.4733487871752

>  <Genealogy>  (48) 
C#Cc1ccc(C2=C(c3ccc([O-])c(S([NH-])(=O)=O)c3)C(=O)[N-]C2=O)c([O-])c1 (protonated)
C#Cc1ccc(C2=C(c3ccc([O-])c(S([NH-])(=O)=O)c3)C(=O)[N-]C2=O)c([O-])c1 (3D coordinates assigned)
C#Cc1ccc(C2=C(c3ccc([O-])c(S([NH-])(=O)=O)c3)C(=O)[N-]C2=O)c([O-])c1 (nonaromatic ring conformer: 71.4733487871752 kcal/mol)

>  <smiles>  (48) 
C#Cc1ccc(C2=C(c3ccc(O)c(S(N)(=O)=O)c3)C(=O)NC2=O)c(O)c1

>  <score_type>  (48) 
oracle

>  <origin>  (48) 
adg

>  <m_score__min__energy>  (48) 
-14.789999999999999

>  <m_primary>  (48) 
energy

$$$$
48:0
     RDKit          3D

 40 42  0  0  0  0  0  0  0  0999 V2000
   57.4810   31.6970   42.1330 C   0  0  0  0  0  0  0  0  0  0  0  0
   57.9670   31.8780   43.5440 C   0  0  0  0  0  0  0  0  0  0  0  0
   58.2310   33.1450   43.9560 N   0  0  0  0  0  0  0  0  0  0  0  0
   58.6660   33.4150   45.2090 C   0  0  0  0  0  0  0  0  0  0  0  0
   58.9300   34.7370   45.5890 C   0  0  0  0  0  0  0  0  0  0  0  0
   59.3810   35.0160   46.8810 C   0  0  0  0  0  0  0  0  0  0  0  0
   59.5710   33.9760   47.7960 C   0  0  0  0  0  0  0  0  0  0  0  0
   59.3100   32.6540   47.4230 C   0  0  0  0  0  0  0  0  0  0  0  0
   58.8540   32.3650   46.1220 C   0  0  0  0  0  0  0  0  0  0  0  0
   58.5770   31.0560   45.6950 C   0  0  0  0  0  0  0  0  0  0  0  0
   58.7400   30.0930   46.4960 O   0  0  0  0  0  0  0  0  0  0  0  0
   58.1320   30.8170   44.4140 N   0  0  0  0  0  0  0  0  0  0  0  0
   57.8640   29.4770   44.0140 N   0  0  0  0  0  0  0  0  0  0  0  0
   56.4860   29.1260   44.2850 C   0  0  0  0  0  0  0  0  0  0  0  0
   55.2620   30.0750   43.7290 S   0  0  0  0  0  0  0  0  0  0  0  0
   56.1570   28.0970   45.2360 N   0  0  0  0  0  0  0  0  0  0  0  0
   57.1380   27.3880   46.0590 C   0  0  0  0  0  0  0  0  0  0  0  0
   57.0920   25.9070   45.7880 C   0  0  0  0  0  0  0  0  0  0  0  0
   57.6520   25.3890   44.6080 C   0  0  0  0  0  0  0  0  0  0  0  0
   57.6040   24.0160   44.3500 C   0  0  0  0  0  0  0  0  0  0  0  0
   57.0040   23.1510   45.2680 C   0  0  0  0  0  0  0  0  0  0  0  0
   56.4540   23.6570   46.4480 C   0  0  0  0  0  0  0  0  0  0  0  0
   56.5000   25.0290   46.7110 C   0  0  0  0  0  0  0  0  0  0  0  0
   56.4502   31.3131   42.1466 H   0  0  0  0  0  0  0  0  0  0  0  0
   57.5051   32.6644   41.6100 H   0  0  0  0  0  0  0  0  0  0  0  0
   58.1320   30.9811   41.6100 H   0  0  0  0  0  0  0  0  0  0  0  0
   58.7821   35.5558   44.8695 H   0  0  0  0  0  0  0  0  0  0  0  0
   59.5869   36.0547   47.1790 H   0  0  0  0  0  0  0  0  0  0  0  0
   59.9270   34.1986   48.8127 H   0  0  0  0  0  0  0  0  0  0  0  0
   59.4609   31.8390   48.1461 H   0  0  0  0  0  0  0  0  0  0  0  0
   58.0680   29.3980   42.9930 H   0  0  0  0  0  0  0  0  0  0  0  0
   58.4870   28.7910   44.4910 H   0  0  0  0  0  0  0  0  0  0  0  0
   55.1480   27.8650   45.3860 H   0  0  0  0  0  0  0  0  0  0  0  0
   58.1445   27.7662   45.8267 H   0  0  0  0  0  0  0  0  0  0  0  0
   56.8998   27.5604   47.1190 H   0  0  0  0  0  0  0  0  0  0  0  0
   58.1298   26.0662   43.8848 H   0  0  0  0  0  0  0  0  0  0  0  0
   58.0395   23.6161   43.4224 H   0  0  0  0  0  0  0  0  0  0  0  0
   56.9646   22.0712   45.0617 H   0  0  0  0  0  0  0  0  0  0  0  0
   55.9839   22.9747   47.1715 H   0  0  0  0  0  0  0  0  0  0  0  0
   56.0710   25.4227   47.6443 H   0  0  0  0  0  0  0  0  0  0  0  0
  1  2  1  0
  2  3  2  0
  3  4  1  0
  4  5  2  0
  5  6  1  0
  6  7  2  0
  7  8  1  0
  8  9  2  0
  9 10  1  0
 10 11  2  0
 10 12  1  0
 12 13  1  0
 13 14  1  0
 14 15  2  0
 14 16  1  0
 16 17  1  0
 17 18  1  0
 18 19  2  0
 19 20  1  0
 20 21  2  0
 21 22  1  0
 22 23  2  0
 12  2  1  0
 23 18  1  0
  9  4  1  0
  1 24  1  0
  1 25  1  0
  1 26  1  0
  5 27  1  0
  6 28  1  0
  7 29  1  0
  8 30  1  0
 13 31  1  0
 13 32  1  0
 16 33  1  0
 17 34  1  0
 17 35  1  0
 19 36  1  0
 20 37  1  0
 21 38  1  0
 22 39  1  0
 23 40  1  0
M  CHG  1  13   1
M  END
>  <UniqueID>  (49) 
45

>  <SMILES>  (49) 
Cc1nc2ccccc2c(=O)n1[NH2+]C(=S)NCc1ccccc1

>  <Energy>  (49) 
51.914327427017966

>  <Genealogy>  (49) 
Cc1nc2ccccc2c(=O)n1[NH2+]C(=S)NCc1ccccc1 (protonated)
Cc1nc2ccccc2c(=O)n1[NH2+]C(=S)NCc1ccccc1 (3D coordinates assigned)
Cc1nc2ccccc2c(=O)n1[NH2+]C(=S)NCc1ccccc1 (optimized conformer: 51.914327427017966 kcal/mol)

>  <smiles>  (49) 
Cc1nc2ccccc2c(=O)n1NC(=S)NCc1ccccc1

>  <score_type>  (49) 
oracle

>  <origin>  (49) 
adg

>  <m_score__min__energy>  (49) 
-6.7400000000000002

>  <m_primary>  (49) 
energy

$$$$
49:0
     RDKit          3D

 23 24  0  0  1  0  0  0  0  0999 V2000
   60.2280   29.1160   45.0170 C   0  0  0  0  0  0  0  0  0  0  0  0
   58.9600   29.3640   44.7460 C   0  0  0  0  0  0  0  0  0  0  0  0
   58.4450   30.1360   43.7860 N   0  0  0  0  0  0  0  0  0  0  0  0
   57.1230   30.1370   43.8290 N   0  0  0  0  0  0  0  0  0  0  0  0
   56.7030   29.3450   44.8450 C   0  0  0  0  0  0  0  0  0  0  0  0
   55.5370   29.0980   45.1950 O   0  0  0  0  0  0  0  0  0  0  0  0
   57.8560   28.8540   45.4280 C   0  0  0  0  0  0  0  0  0  0  0  0
   57.9010   28.0340   46.4640 C   0  0  0  0  0  0  0  0  0  0  0  0
   57.5680   26.6120   46.3320 C   0  0  0  0  0  0  0  0  0  0  0  0
   58.5170   25.6550   46.4300 N   0  0  0  0  0  0  0  0  0  0  0  0
   57.9160   24.4570   46.2660 C   0  0  0  0  0  0  0  0  0  0  0  0
   58.4870   23.3130   46.2940 O   0  0  0  0  0  0  0  0  0  0  0  0
   56.6050   24.6910   46.0690 N   0  0  0  0  0  0  0  0  0  0  0  0
   56.3670   26.0170   46.1050 C   0  0  0  0  0  0  0  0  0  0  0  0
   55.1720   26.7030   45.9510 O   0  0  0  0  0  0  0  0  0  0  0  0
   60.4920   28.4498   45.8516 H   0  0  0  0  0  0  0  0  0  0  0  0
   61.0206   29.5756   44.4082 H   0  0  0  0  0  0  0  0  0  0  0  0
   58.9730   30.6910   43.0660 H   0  0  0  0  0  0  0  0  0  0  0  0
   56.4410   30.6480   43.2040 H   0  0  0  0  0  0  0  0  0  0  0  0
   58.1951   28.4276   47.4481 H   0  0  0  0  0  0  0  0  0  0  0  0
   59.5540   25.7960   46.6040 H   0  0  0  0  0  0  0  0  0  0  0  0
   55.8890   23.9720   45.9140 H   0  0  0  0  0  0  0  0  0  0  0  0
   55.1360   27.5190   45.3480 H   0  0  0  0  0  0  0  0  0  0  0  0
  1  2  2  0
  2  3  1  0
  3  4  1  0
  4  5  1  0
  5  6  2  0
  5  7  1  0
  7  8  2  0
  8  9  1  0
  9 10  1  0
 10 11  1  0
 11 12  2  0
 11 13  1  0
 13 14  1  0
 14 15  1  0
  7  2  1  0
 14  9  2  0
  1 16  1  0
  1 17  1  0
  3 18  1  0
  4 19  1  0
  8 20  1  0
 10 21  1  0
 13 22  1  0
 15 23  1  0
M  END
>  <smiles>  (50) 
C=c1[nH][nH]c(=O)c1=Cc1[nH]c(=O)[nH]c1O

>  <score_type>  (50) 
oracle

>  <origin>  (50) 
adg

>  <m_score__min__energy>  (50) 
-6.4400000000000004

>  <m_primary>  (50) 
energy

$$$$
50:0
     RDKit          3D

 52 54  0  0  0  0  0  0  0  0999 V2000
   62.0034   33.1262   50.0189 H   0  0  0  0  0  0  0  0  0  0  0  0
   60.9480   32.8560   49.8670 C   0  0  0  0  0  0  0  0  0  0  0  0
   60.5310   31.4810   50.2280 C   0  0  0  0  0  0  0  0  0  0  0  0
   60.3030   31.2120   51.4390 O   0  0  0  0  0  0  0  0  0  0  0  0
   60.4270   30.4410   49.2300 N   0  0  0  0  0  0  0  0  0  0  0  0
   60.9050   30.6730   47.8560 C   0  0  0  0  0  0  0  0  0  0  0  0
   60.2964   31.4669   47.3984 H   0  0  0  0  0  0  0  0  0  0  0  0
   61.9647   30.9629   47.9113 H   0  0  0  0  0  0  0  0  0  0  0  0
   60.8060   29.4120   46.9880 C   0  0  0  0  0  0  0  0  0  0  0  0
   60.9429   29.6892   45.9323 H   0  0  0  0  0  0  0  0  0  0  0  0
   61.5878   28.7050   47.3027 H   0  0  0  0  0  0  0  0  0  0  0  0
   59.4950   28.7680   47.1510 N   0  0  0  0  0  0  0  0  0  0  0  0
   58.8870   28.0960   46.0260 C   0  0  0  0  0  0  0  0  0  0  0  0
   59.5770   27.8400   45.0020 O   0  0  0  0  0  0  0  0  0  0  0  0
   57.4470   27.6550   46.0420 C   0  0  0  0  0  0  0  0  0  0  0  0
   57.3248   26.7926   45.3701 H   0  0  0  0  0  0  0  0  0  0  0  0
   57.1711   27.3763   47.0697 H   0  0  0  0  0  0  0  0  0  0  0  0
   56.5960   28.7150   45.6060 O   0  0  0  0  0  0  0  0  0  0  0  0
   56.9080   29.6320   44.5890 C   0  0  0  0  0  0  0  0  0  0  0  0
   57.8130   30.6960   44.7760 C   0  0  0  0  0  0  0  0  0  0  0  0
   58.3050   30.8323   45.7504 H   0  0  0  0  0  0  0  0  0  0  0  0
   58.0880   31.5800   43.7260 C   0  0  0  0  0  0  0  0  0  0  0  0
   58.7967   32.4077   43.8766 H   0  0  0  0  0  0  0  0  0  0  0  0
   57.4640   31.4130   42.4870 C   0  0  0  0  0  0  0  0  0  0  0  0
   57.8090   32.5220   41.1730 Cl  0  0  0  0  0  0  0  0  0  0  0  0
   56.5630   30.3600   42.2960 C   0  0  0  0  0  0  0  0  0  0  0  0
   56.0710   30.2280   41.3210 H   0  0  0  0  0  0  0  0  0  0  0  0
   56.2870   29.4750   43.3430 C   0  0  0  0  0  0  0  0  0  0  0  0
   55.5770   28.6494   43.1871 H   0  0  0  0  0  0  0  0  0  0  0  0
   58.8930   28.6660   48.4910 C   0  0  0  0  0  0  0  0  0  0  0  0
   57.9900   29.2933   48.5249 H   0  0  0  0  0  0  0  0  0  0  0  0
   58.6465   27.6102   48.6770 H   0  0  0  0  0  0  0  0  0  0  0  0
   59.8610   29.1300   49.5830 C   0  0  0  0  0  0  0  0  0  0  0  0
   59.3209   29.2116   50.5378 H   0  0  0  0  0  0  0  0  0  0  0  0
   60.6768   28.3981   49.6770 H   0  0  0  0  0  0  0  0  0  0  0  0
   60.1300   33.7950   49.3680 C   0  0  0  0  0  0  0  0  0  0  0  0
   59.8200   34.6057   50.0437 H   0  0  0  0  0  0  0  0  0  0  0  0
   59.6120   33.8290   47.9860 C   0  0  0  0  0  0  0  0  0  0  0  0
   60.2950   34.1930   46.8350 C   0  0  0  0  0  0  0  0  0  0  0  0
   61.3639   34.4383   46.7496 H   0  0  0  0  0  0  0  0  0  0  0  0
   59.3600   34.1850   45.8170 C   0  0  0  0  0  0  0  0  0  0  0  0
   59.6300   34.5760   44.3990 C   0  0  0  0  0  0  0  0  0  0  0  0
   60.2550   35.4810   44.3808 H   0  0  0  0  0  0  0  0  0  0  0  0
   60.1559   33.7569   43.8866 H   0  0  0  0  0  0  0  0  0  0  0  0
   58.6778   34.7776   43.8866 H   0  0  0  0  0  0  0  0  0  0  0  0
   58.1450   33.8600   46.3060 N   0  0  0  0  0  0  0  0  0  0  0  0
   56.8870   33.8150   45.5650 C   0  0  0  0  0  0  0  0  0  0  0  0
   56.0455   33.7849   46.2727 H   0  0  0  0  0  0  0  0  0  0  0  0
   56.8020   34.7107   44.9321 H   0  0  0  0  0  0  0  0  0  0  0  0
   56.8662   32.9155   44.9321 H   0  0  0  0  0  0  0  0  0  0  0  0
   58.2880   33.6550   47.6300 C   0  0  0  0  0  0  0  0  0  0  0  0
   57.4751   33.3897   48.3219 H   0  0  0  0  0  0  0  0  0  0  0  0
  1  2  1  0
  2  3  1  0
  3  4  2  0
  3  5  1  0
  5  6  1  0
  6  7  1  0
  6  8  1  0
  6  9  1  0
  9 10  1  0
  9 11  1  0
  9 12  1  0
 12 13  1  0
 13 14  2  0
 13 15  1  0
 15 16  1  0
 15 17  1  0
 15 18  1  0
 18 19  1  0
 19 20  2  0
 20 21  1  0
 20 22  1  0
 22 23  1  0
 22 24  2  0
 24 25  1  0
 24 26  1  0
 26 27  1  0
 26 28  2  0
 28 29  1  0
 12 30  1  0
 30 31  1  0
 30 32  1  0
 30 33  1  0
 33 34  1  0
 33 35  1  0
  2 36  2  0
 36 37  1  0
 36 38  1  0
 38 39  1  0
 39 40  1  0
 39 41  2  0
 41 42  1  0
 42 43  1  0
 42 44  1  0
 42 45  1  0
 41 46  1  0
 46 47  1  0
 47 48  1  0
 47 49  1  0
 47 50  1  0
 46 51  1  0
 51 52  1  0
 33  5  1  0
 51 38  2  0
 28 19  1  0
M  END
>  <UniqueID>  (51) 
46

>  <SMILES>  (51) 
Cc1cc(/C=C\C(=O)N2CCN(C(=O)COc3ccc(Cl)cc3)CC2)cn1C

>  <Energy>  (51) 
84.37927135924429

>  <Genealogy>  (51) 
Cc1cc(/C=C\C(=O)N2CCN(C(=O)COc3ccc(Cl)cc3)CC2)cn1C (cis-trans isomerization)
Cc1cc(/C=C\C(=O)N2CCN(C(=O)COc3ccc(Cl)cc3)CC2)cn1C (3D coordinates assigned)
Cc1cc(/C=C\C(=O)N2CCN(C(=O)COc3ccc(Cl)cc3)CC2)cn1C (nonaromatic ring conformer: 84.37927135924429 kcal/mol)

>  <smiles>  (51) 
Cc1cc(C=CC(=O)N2CCN(C(=O)COc3ccc(Cl)cc3)CC2)cn1C

>  <score_type>  (51) 
oracle

>  <origin>  (51) 
adg

>  <m_score__min__energy>  (51) 
-7.4900000000000002

>  <m_primary>  (51) 
energy

$$$$
51:0
     RDKit          3D

 60 63  0  0  0  0  0  0  0  0999 V2000
   56.6850   26.5860   45.9640 C   0  0  0  0  0  0  0  0  0  0  0  0
   57.8940   27.4380   45.7890 C   0  0  0  0  0  0  0  0  0  0  0  0
   58.6800   27.4940   44.6570 C   0  0  0  0  0  0  0  0  0  0  0  0
   59.6720   28.4100   44.9380 C   0  0  0  0  0  0  0  0  0  0  0  0
   59.4280   28.8510   46.2290 C   0  0  0  0  0  0  0  0  0  0  0  0
   60.1880   29.8580   46.9890 C   0  0  0  0  0  0  0  0  0  0  0  0
   61.1120   30.4850   46.4080 O   0  0  0  0  0  0  0  0  0  0  0  0
   59.9560   30.1120   48.3790 N   0  0  0  0  0  0  0  0  0  0  0  0
   60.7540   29.6290   49.4670 C   0  0  0  0  0  0  0  0  0  0  0  0
   60.4070   28.3930   50.0310 C   0  0  0  0  0  0  0  0  0  0  0  0
   61.1330   27.8700   51.0990 C   0  0  0  0  0  0  0  0  0  0  0  0
   62.2420   28.5560   51.5880 C   0  0  0  0  0  0  0  0  0  0  0  0
   62.6230   29.7740   51.0190 C   0  0  0  0  0  0  0  0  0  0  0  0
   61.8820   30.3400   49.9600 C   0  0  0  0  0  0  0  0  0  0  0  0
   62.3420   31.6100   49.3250 C   0  0  0  0  0  0  0  0  0  0  0  0
   63.5520   31.9450   49.4630 O   0  0  0  0  0  0  0  0  0  0  0  0
   61.4530   32.4050   48.4900 N   0  0  0  0  0  0  0  0  0  0  0  0
   60.5660   33.3060   49.2720 C   0  0  0  0  0  0  0  0  0  0  0  0
   60.1140   34.5730   48.4980 C   0  0  0  0  0  0  0  0  0  0  0  0
   60.1230   34.4250   47.0260 N   0  0  0  0  0  0  0  0  0  0  0  0
   58.7970   34.2100   46.3880 C   0  0  0  0  0  0  0  0  0  0  0  0
   58.9290   33.9320   44.8720 C   0  0  0  0  0  0  0  0  0  0  0  0
   57.6080   33.3800   44.3200 C   0  0  0  0  0  0  0  0  0  0  0  0
   57.2250   32.0840   44.9380 N   0  0  0  0  0  0  0  0  0  0  0  0
   57.5650   30.9530   44.0580 C   0  0  0  0  0  0  0  0  0  0  0  0
   57.7760   31.8550   46.2990 C   0  0  0  0  0  0  0  0  0  0  0  0
   57.9140   33.1540   47.1070 C   0  0  0  0  0  0  0  0  0  0  0  0
   61.2940   33.7360   46.4370 C   0  0  0  0  0  0  0  0  0  0  0  0
   62.2350   33.1490   47.4930 C   0  0  0  0  0  0  0  0  0  0  0  0
   58.3580   28.2540   46.7040 O   0  0  0  0  0  0  0  0  0  0  0  0
   56.4870   26.4464   47.0370 H   0  0  0  0  0  0  0  0  0  0  0  0
   55.8202   27.0753   45.4921 H   0  0  0  0  0  0  0  0  0  0  0  0
   56.8549   25.6070   45.4921 H   0  0  0  0  0  0  0  0  0  0  0  0
   58.5440   26.9265   43.7246 H   0  0  0  0  0  0  0  0  0  0  0  0
   60.4896   28.7259   44.2734 H   0  0  0  0  0  0  0  0  0  0  0  0
   59.5528   27.8305   49.6261 H   0  0  0  0  0  0  0  0  0  0  0  0
   60.8305   26.9160   51.5556 H   0  0  0  0  0  0  0  0  0  0  0  0
   62.8200   28.1375   52.4251 H   0  0  0  0  0  0  0  0  0  0  0  0
   63.5114   30.2980   51.4013 H   0  0  0  0  0  0  0  0  0  0  0  0
   60.8320   31.7520   47.9670 H   0  0  0  0  0  0  0  0  0  0  0  0
   59.6689   32.7404   49.5639 H   0  0  0  0  0  0  0  0  0  0  0  0
   61.1482   33.6528   50.1385 H   0  0  0  0  0  0  0  0  0  0  0  0
   59.0896   34.8213   48.8126 H   0  0  0  0  0  0  0  0  0  0  0  0
   60.8398   35.3638   48.7387 H   0  0  0  0  0  0  0  0  0  0  0  0
   58.2546   35.1598   46.5049 H   0  0  0  0  0  0  0  0  0  0  0  0
   59.1782   34.8681   44.3508 H   0  0  0  0  0  0  0  0  0  0  0  0
   59.7248   33.1901   44.7100 H   0  0  0  0  0  0  0  0  0  0  0  0
   56.8112   34.1125   44.5162 H   0  0  0  0  0  0  0  0  0  0  0  0
   57.7449   33.2066   43.2424 H   0  0  0  0  0  0  0  0  0  0  0  0
   57.8280   30.0780   44.6705 H   0  0  0  0  0  0  0  0  0  0  0  0
   56.7003   30.7096   43.4231 H   0  0  0  0  0  0  0  0  0  0  0  0
   58.4206   31.2267   43.4231 H   0  0  0  0  0  0  0  0  0  0  0  0
   57.1043   31.1729   46.8408 H   0  0  0  0  0  0  0  0  0  0  0  0
   58.7824   31.4264   46.1831 H   0  0  0  0  0  0  0  0  0  0  0  0
   56.9121   33.5799   47.2642 H   0  0  0  0  0  0  0  0  0  0  0  0
   58.4013   32.9043   48.0611 H   0  0  0  0  0  0  0  0  0  0  0  0
   60.9337   32.9186   45.7950 H   0  0  0  0  0  0  0  0  0  0  0  0
   61.8642   34.4842   45.8669 H   0  0  0  0  0  0  0  0  0  0  0  0
   62.9513   32.4695   47.0081 H   0  0  0  0  0  0  0  0  0  0  0  0
   62.7804   33.9645   47.9905 H   0  0  0  0  0  0  0  0  0  0  0  0
  1  2  1  0
  2  3  2  0
  3  4  1  0
  4  5  2  0
  5  6  1  0
  6  7  2  0
  6  8  1  0
  8  9  1  0
  9 10  2  0
 10 11  1  0
 11 12  2  0
 12 13  1  0
 13 14  2  0
 14 15  1  0
 15 16  2  0
 15 17  1  0
 17 18  1  0
 18 19  1  0
 19 20  1  0
 20 21  1  0
 21 22  1  0
 22 23  1  0
 23 24  1  0
 24 25  1  0
 24 26  1  0
 26 27  1  0
 20 28  1  0
 28 29  1  0
  5 30  1  0
 30  2  1  0
 14  9  1  0
 29 17  1  0
 27 21  1  0
  1 31  1  0
  1 32  1  0
  1 33  1  0
  3 34  1  0
  4 35  1  0
 10 36  1  0
 11 37  1  0
 12 38  1  0
 13 39  1  0
 17 40  1  0
 18 41  1  0
 18 42  1  0
 19 43  1  0
 19 44  1  0
 21 45  1  0
 22 46  1  0
 22 47  1  0
 23 48  1  0
 23 49  1  0
 25 50  1  0
 25 51  1  0
 25 52  1  0
 26 53  1  0
 26 54  1  0
 27 55  1  0
 27 56  1  0
 28 57  1  0
 28 58  1  0
 29 59  1  0
 29 60  1  0
M  CHG  2   8  -1  17   1
M  END
>  <UniqueID>  (52) 
47

>  <SMILES>  (52) 
Cc1ccc(C(=O)[N-]c2ccccc2C(=O)[NH+]2CCN(C3CCN(C)CC3)CC2)o1

>  <Energy>  (52) 
130.8309953048265

>  <Genealogy>  (52) 
Cc1ccc(C(=O)[N-]c2ccccc2C(=O)[NH+]2CCN(C3CCN(C)CC3)CC2)o1 (protonated)
Cc1ccc(C(=O)[N-]c2ccccc2C(=O)[NH+]2CCN(C3CCN(C)CC3)CC2)o1 (3D coordinates assigned)
Cc1ccc(C(=O)[N-]c2ccccc2C(=O)[NH+]2CCN(C3CCN(C)CC3)CC2)o1 (nonaromatic ring conformer: 130.8309953048265 kcal/mol)

>  <smiles>  (52) 
Cc1ccc(C(=O)Nc2ccccc2C(=O)N2CCN(C3CCN(C)CC3)CC2)o1

>  <score_type>  (52) 
oracle

>  <origin>  (52) 
adg

>  <m_score__min__energy>  (52) 
-8.5

>  <m_primary>  (52) 
energy

$$$$
52:0
     RDKit          3D

 59 62  0  0  0  0  0  0  0  0999 V2000
   63.7190   33.8550   50.2300 C   0  0  0  0  0  0  0  0  0  0  0  0
   63.7990   33.5140   48.7460 C   0  0  0  0  0  0  0  0  0  0  0  0
   62.8650   32.3840   48.4110 C   0  0  0  0  0  0  0  0  0  0  0  0
   62.3750   32.2330   47.1050 C   0  0  0  0  0  0  0  0  0  0  0  0
   61.4800   31.2040   46.8000 C   0  0  0  0  0  0  0  0  0  0  0  0
   61.0390   30.3220   47.8030 C   0  0  0  0  0  0  0  0  0  0  0  0
   60.0630   29.2560   47.4790 C   0  0  0  0  0  0  0  0  0  0  0  0
   60.0370   28.6050   46.2940 N   0  0  0  0  0  0  0  0  0  0  0  0
   59.0330   27.6880   46.2300 C   0  0  0  0  0  0  0  0  0  0  0  0
   58.7960   26.8670   45.0030 C   0  0  0  0  0  0  0  0  0  0  0  0
   58.3210   27.9030   43.6300 S   0  0  0  0  0  0  0  0  0  0  0  0
   57.9840   26.9660   42.2780 O   0  0  0  0  0  0  0  0  0  0  0  0
   56.9310   28.9630   43.9940 C   0  0  0  0  0  0  0  0  0  0  0  0
   57.3940   30.3430   44.3700 C   0  0  0  0  0  0  0  0  0  0  0  0
   57.4790   31.3510   43.3960 C   0  0  0  0  0  0  0  0  0  0  0  0
   57.9360   32.6270   43.7390 C   0  0  0  0  0  0  0  0  0  0  0  0
   58.3240   32.9080   45.0580 C   0  0  0  0  0  0  0  0  0  0  0  0
   58.8080   34.2530   45.4190 C   0  0  0  0  0  0  0  0  0  0  0  0
   59.1870   35.0360   44.5080 O   0  0  0  0  0  0  0  0  0  0  0  0
   58.8570   34.6970   46.7800 N   0  0  0  0  0  0  0  0  0  0  0  0
   60.0360   34.5800   47.6330 C   0  0  0  0  0  0  0  0  0  0  0  0
   59.6830   33.8040   48.8690 C   0  0  0  0  0  0  0  0  0  0  0  0
   58.7420   32.7660   48.8070 C   0  0  0  0  0  0  0  0  0  0  0  0
   58.3950   32.0620   49.9640 C   0  0  0  0  0  0  0  0  0  0  0  0
   58.9760   32.3960   51.1890 C   0  0  0  0  0  0  0  0  0  0  0  0
   59.9040   33.4390   51.2620 C   0  0  0  0  0  0  0  0  0  0  0  0
   60.2540   34.1460   50.1060 C   0  0  0  0  0  0  0  0  0  0  0  0
   58.2090   31.9120   46.0380 C   0  0  0  0  0  0  0  0  0  0  0  0
   57.7470   30.6380   45.6970 C   0  0  0  0  0  0  0  0  0  0  0  0
   58.2400   27.5990   47.3700 C   0  0  0  0  0  0  0  0  0  0  0  0
   58.8270   28.7100   48.4850 S   0  0  0  0  0  0  0  0  0  0  0  0
   61.5260   30.4830   49.1120 C   0  0  0  0  0  0  0  0  0  0  0  0
   62.4290   31.5040   49.4130 C   0  0  0  0  0  0  0  0  0  0  0  0
   63.9303   32.9543   50.8251 H   0  0  0  0  0  0  0  0  0  0  0  0
   64.4589   34.6335   50.4677 H   0  0  0  0  0  0  0  0  0  0  0  0
   62.7101   34.2232   50.4677 H   0  0  0  0  0  0  0  0  0  0  0  0
   63.5208   34.3998   48.1561 H   0  0  0  0  0  0  0  0  0  0  0  0
   64.8278   33.2058   48.5081 H   0  0  0  0  0  0  0  0  0  0  0  0
   62.6973   32.9288   46.3164 H   0  0  0  0  0  0  0  0  0  0  0  0
   61.1179   31.0830   45.7684 H   0  0  0  0  0  0  0  0  0  0  0  0
   59.7198   26.3281   44.7456 H   0  0  0  0  0  0  0  0  0  0  0  0
   57.9820   26.1556   45.2063 H   0  0  0  0  0  0  0  0  0  0  0  0
   57.0000   26.8510   42.2960 H   0  0  0  0  0  0  0  0  0  0  0  0
   56.2858   29.0290   43.1055 H   0  0  0  0  0  0  0  0  0  0  0  0
   56.3748   28.5354   44.8412 H   0  0  0  0  0  0  0  0  0  0  0  0
   57.1846   31.1356   42.3582 H   0  0  0  0  0  0  0  0  0  0  0  0
   57.9916   33.4136   42.9721 H   0  0  0  0  0  0  0  0  0  0  0  0
   60.8339   34.0561   47.0863 H   0  0  0  0  0  0  0  0  0  0  0  0
   60.3849   35.5838   47.9168 H   0  0  0  0  0  0  0  0  0  0  0  0
   58.2757   32.5050   47.8455 H   0  0  0  0  0  0  0  0  0  0  0  0
   57.6626   31.2431   49.9092 H   0  0  0  0  0  0  0  0  0  0  0  0
   58.7034   31.8382   52.0970 H   0  0  0  0  0  0  0  0  0  0  0  0
   60.3590   33.7039   52.2278 H   0  0  0  0  0  0  0  0  0  0  0  0
   60.9782   34.9718   50.1663 H   0  0  0  0  0  0  0  0  0  0  0  0
   58.4836   32.1343   47.0797 H   0  0  0  0  0  0  0  0  0  0  0  0
   57.6594   29.8622   46.4719 H   0  0  0  0  0  0  0  0  0  0  0  0
   57.3839   26.9236   47.5148 H   0  0  0  0  0  0  0  0  0  0  0  0
   61.1925   29.7985   49.9059 H   0  0  0  0  0  0  0  0  0  0  0  0
   62.8009   31.6193   50.4418 H   0  0  0  0  0  0  0  0  0  0  0  0
  1  2  1  0
  2  3  1  0
  3  4  2  0
  4  5  1  0
  5  6  2  0
  6  7  1  0
  7  8  2  0
  8  9  1  0
  9 10  1  0
 10 11  1  0
 11 12  1  6
 11 13  1  0
 13 14  1  0
 14 15  2  0
 15 16  1  0
 16 17  2  0
 17 18  1  0
 18 19  2  0
 18 20  1  0
 20 21  1  0
 21 22  1  0
 22 23  2  0
 23 24  1  0
 24 25  2  0
 25 26  1  0
 26 27  2  0
 17 28  1  0
 28 29  2  0
  9 30  2  0
 30 31  1  0
  6 32  1  0
 32 33  2  0
 33  3  1  0
 31  7  1  0
 29 14  1  0
 27 22  1  0
  1 34  1  0
  1 35  1  0
  1 36  1  0
  2 37  1  0
  2 38  1  0
  4 39  1  0
  5 40  1  0
 10 41  1  0
 10 42  1  0
 12 43  1  0
 13 44  1  0
 13 45  1  0
 15 46  1  0
 16 47  1  0
 21 48  1  0
 21 49  1  0
 23 50  1  0
 24 51  1  0
 25 52  1  0
 26 53  1  0
 27 54  1  0
 28 55  1  0
 29 56  1  0
 30 57  1  0
 32 58  1  0
 33 59  1  0
M  CHG  2  11   1  20  -1
M  END
>  <UniqueID>  (53) 
48

>  <SMILES>  (53) 
CCc1ccc(-c2nc(C[S@@+](O)Cc3ccc(C(=O)[N-]Cc4ccccc4)cc3)cs2)cc1

>  <Energy>  (53) 
81.60488928166237

>  <Genealogy>  (53) 
CCc1ccc(-c2nc(C[S+](O)Cc3ccc(C(=O)[N-]Cc4ccccc4)cc3)cs2)cc1 (protonated)
CCc1ccc(-c2nc(C[S@@+](O)Cc3ccc(C(=O)[N-]Cc4ccccc4)cc3)cs2)cc1 (chirality)
CCc1ccc(-c2nc(C[S@@+](O)Cc3ccc(C(=O)[N-]Cc4ccccc4)cc3)cs2)cc1 (3D coordinates assigned)
CCc1ccc(-c2nc(C[S@@+](O)Cc3ccc(C(=O)[N-]Cc4ccccc4)cc3)cs2)cc1 (optimized conformer: 81.60488928166237 kcal/mol)

>  <smiles>  (53) 
CCc1ccc(-c2nc(C[S+]([O-])Cc3ccc(C(=O)NCc4ccccc4)cc3)cs2)cc1

>  <score_type>  (53) 
oracle

>  <origin>  (53) 
adg

>  <m_score__min__energy>  (53) 
-9.0500000000000007

>  <m_primary>  (53) 
energy

$$$$
53:0
     RDKit          3D

 60 63  0  0  0  0  0  0  0  0999 V2000
   54.7860   29.2990   44.3580 O   0  0  0  0  0  0  0  0  0  0  0  0
   56.0080   29.5970   44.4530 C   0  0  0  0  0  0  0  0  0  0  0  0
   56.6640   30.3870   43.3660 C   0  0  0  0  0  0  0  0  0  0  0  0
   57.3200   31.5990   43.9470 C   0  0  0  0  0  0  0  0  0  0  0  0
   57.4140   31.8430   45.2730 N   0  0  0  0  0  0  0  0  0  0  0  0
   58.1260   32.9710   45.5460 C   0  0  0  0  0  0  0  0  0  0  0  0
   58.4150   33.4200   46.9430 C   0  0  0  0  0  0  0  0  0  0  0  0
   58.0090   32.4040   47.8520 O   0  0  0  0  0  0  0  0  0  0  0  0
   58.8590   31.8730   48.8250 C   0  0  0  0  0  0  0  0  0  0  0  0
   58.6280   32.0540   50.0490 O   0  0  0  0  0  0  0  0  0  0  0  0
   60.0330   31.0510   48.4070 C   0  0  0  0  0  0  0  0  0  0  0  0
   61.2370   31.9260   48.2120 C   0  0  0  0  0  0  0  0  0  0  0  0
   62.2400   31.5600   47.3000 C   0  0  0  0  0  0  0  0  0  0  0  0
   63.3660   32.3670   47.1290 C   0  0  0  0  0  0  0  0  0  0  0  0
   63.5090   33.5370   47.8800 C   0  0  0  0  0  0  0  0  0  0  0  0
   62.5260   33.8990   48.8050 C   0  0  0  0  0  0  0  0  0  0  0  0
   62.6740   35.0270   49.5440 F   0  0  0  0  0  0  0  0  0  0  0  0
   61.3910   33.0960   48.9700 C   0  0  0  0  0  0  0  0  0  0  0  0
   58.6180   33.6340   44.4230 C   0  0  0  0  0  0  0  0  0  0  0  0
   58.1410   32.7670   43.0610 S   0  0  0  0  0  0  0  0  0  0  0  0
   56.7680   29.2150   45.6080 N   0  0  0  0  0  0  0  0  0  0  0  0
   57.5160   28.0020   45.7610 C   0  0  0  0  0  0  0  0  0  0  0  0
   58.9210   27.9860   45.7210 C   0  0  0  0  0  0  0  0  0  0  0  0
   59.6150   26.7870   45.9030 C   0  0  0  0  0  0  0  0  0  0  0  0
   58.9180   25.6020   46.1400 C   0  0  0  0  0  0  0  0  0  0  0  0
   57.5190   25.6110   46.2130 C   0  0  0  0  0  0  0  0  0  0  0  0
   56.6360   24.1200   46.5470 S   0  0  0  0  0  0  0  0  0  0  0  0
   55.2770   24.4640   47.0930 O   0  0  0  0  0  0  0  0  0  0  0  0
   57.3700   23.3360   47.5980 O   0  0  0  0  0  0  0  0  0  0  0  0
   56.4560   23.1330   45.1160 N   0  0  0  0  0  0  0  0  0  0  0  0
   56.1650   23.9710   43.9410 C   0  0  0  0  0  0  0  0  0  0  0  0
   56.2010   23.1270   42.6510 C   0  0  0  0  0  0  0  0  0  0  0  0
   56.2780   21.7450   42.9420 O   0  0  0  0  0  0  0  0  0  0  0  0
   57.4920   21.4650   43.6210 C   0  0  0  0  0  0  0  0  0  0  0  0
   57.6730   22.3420   44.8790 C   0  0  0  0  0  0  0  0  0  0  0  0
   56.8240   26.8130   46.0260 C   0  0  0  0  0  0  0  0  0  0  0  0
   57.4221   29.7644   42.8684 H   0  0  0  0  0  0  0  0  0  0  0  0
   55.9041   30.7001   42.6349 H   0  0  0  0  0  0  0  0  0  0  0  0
   57.0070   31.2220   46.0040 H   0  0  0  0  0  0  0  0  0  0  0  0
   59.4936   33.6047   47.0548 H   0  0  0  0  0  0  0  0  0  0  0  0
   57.8646   34.3485   47.1551 H   0  0  0  0  0  0  0  0  0  0  0  0
   60.2490   30.3043   49.1853 H   0  0  0  0  0  0  0  0  0  0  0  0
   59.7982   30.5476   47.4575 H   0  0  0  0  0  0  0  0  0  0  0  0
   62.1379   30.6326   46.7173 H   0  0  0  0  0  0  0  0  0  0  0  0
   64.1413   32.0819   46.4027 H   0  0  0  0  0  0  0  0  0  0  0  0
   64.3958   34.1733   47.7429 H   0  0  0  0  0  0  0  0  0  0  0  0
   60.6171   33.3838   49.6969 H   0  0  0  0  0  0  0  0  0  0  0  0
   59.2125   34.5595   44.4261 H   0  0  0  0  0  0  0  0  0  0  0  0
   59.4755   28.9197   45.5460 H   0  0  0  0  0  0  0  0  0  0  0  0
   60.7141   26.7774   45.8593 H   0  0  0  0  0  0  0  0  0  0  0  0
   59.4682   24.6584   46.2699 H   0  0  0  0  0  0  0  0  0  0  0  0
   55.1658   24.4171   44.0535 H   0  0  0  0  0  0  0  0  0  0  0  0
   56.9280   24.7602   43.8702 H   0  0  0  0  0  0  0  0  0  0  0  0
   55.2867   23.3204   42.0708 H   0  0  0  0  0  0  0  0  0  0  0  0
   57.0947   23.4106   42.0759 H   0  0  0  0  0  0  0  0  0  0  0  0
   57.4928   20.4074   43.9235 H   0  0  0  0  0  0  0  0  0  0  0  0
   58.3218   21.6857   42.9335 H   0  0  0  0  0  0  0  0  0  0  0  0
   57.8641   21.6968   45.7492 H   0  0  0  0  0  0  0  0  0  0  0  0
   58.5238   23.0225   44.7272 H   0  0  0  0  0  0  0  0  0  0  0  0
   55.7258   26.8233   46.0878 H   0  0  0  0  0  0  0  0  0  0  0  0
  1  2  2  0
  2  3  1  0
  3  4  1  0
  4  5  2  0
  5  6  1  0
  6  7  1  0
  7  8  1  0
  8  9  1  0
  9 10  2  0
  9 11  1  0
 11 12  1  0
 12 13  2  0
 13 14  1  0
 14 15  2  0
 15 16  1  0
 16 17  1  0
 16 18  2  0
  6 19  2  0
 19 20  1  0
  2 21  1  0
 21 22  1  0
 22 23  2  0
 23 24  1  0
 24 25  2  0
 25 26  1  0
 26 27  1  0
 27 28  2  0
 27 29  2  0
 27 30  1  0
 30 31  1  0
 31 32  1  0
 32 33  1  0
 33 34  1  0
 34 35  1  0
 26 36  2  0
 20  4  1  0
 36 22  1  0
 18 12  1  0
 35 30  1  0
  3 37  1  0
  3 38  1  0
  5 39  1  0
  7 40  1  0
  7 41  1  0
 11 42  1  0
 11 43  1  0
 13 44  1  0
 14 45  1  0
 15 46  1  0
 18 47  1  0
 19 48  1  0
 23 49  1  0
 24 50  1  0
 25 51  1  0
 31 52  1  0
 31 53  1  0
 32 54  1  0
 32 55  1  0
 34 56  1  0
 34 57  1  0
 35 58  1  0
 35 59  1  0
 36 60  1  0
M  CHG  2   5   1  21  -1
M  END
>  <UniqueID>  (54) 
49

>  <SMILES>  (54) 
O=C(Cc1[nH+]c(COC(=O)Cc2cccc(F)c2)cs1)[N-]c1cccc(S(=O)(=O)N2CCOCC2)c1

>  <Energy>  (54) 
94.4902330680066

>  <Genealogy>  (54) 
O=C(Cc1[nH+]c(COC(=O)Cc2cccc(F)c2)cs1)[N-]c1cccc(S(=O)(=O)N2CCOCC2)c1 (protonated)
O=C(Cc1[nH+]c(COC(=O)Cc2cccc(F)c2)cs1)[N-]c1cccc(S(=O)(=O)N2CCOCC2)c1 (3D coordinates assigned)
O=C(Cc1[nH+]c(COC(=O)Cc2cccc(F)c2)cs1)[N-]c1cccc(S(=O)(=O)N2CCOCC2)c1 (nonaromatic ring conformer: 94.4902330680066 kcal/mol)

>  <smiles>  (54) 
O=C(Cc1nc(COC(=O)Cc2cccc(F)c2)cs1)Nc1cccc(S(=O)(=O)N2CCOCC2)c1

>  <score_type>  (54) 
oracle

>  <origin>  (54) 
adg

>  <m_score__min__energy>  (54) 
-11.220000000000001

>  <m_primary>  (54) 
energy

$$$$
54:0
     RDKit          3D

 46 48  0  0  0  0  0  0  0  0999 V2000
   56.3720   24.6530   47.3230 C   0  0  0  0  0  0  0  0  0  0  0  0
   57.1810   25.7300   46.6590 C   0  0  0  0  0  0  0  0  0  0  0  0
   58.5810   25.6420   46.6380 C   0  0  0  0  0  0  0  0  0  0  0  0
   59.3370   26.6140   45.9830 C   0  0  0  0  0  0  0  0  0  0  0  0
   58.7070   27.6840   45.3450 C   0  0  0  0  0  0  0  0  0  0  0  0
   57.3090   27.7940   45.3560 C   0  0  0  0  0  0  0  0  0  0  0  0
   56.6650   28.9310   44.6670 C   0  0  0  0  0  0  0  0  0  0  0  0
   55.4420   29.1700   44.8700 O   0  0  0  0  0  0  0  0  0  0  0  0
   57.4100   29.7480   43.7520 N   0  0  0  0  0  0  0  0  0  0  0  0
   57.0120   31.1150   43.4290 C   0  0  0  0  0  0  0  0  0  0  0  0
   57.6390   32.0680   44.4070 C   0  0  0  0  0  0  0  0  0  0  0  0
   58.1870   33.2740   43.9480 C   0  0  0  0  0  0  0  0  0  0  0  0
   58.8340   34.1340   44.8360 C   0  0  0  0  0  0  0  0  0  0  0  0
   58.9370   33.7980   46.1890 C   0  0  0  0  0  0  0  0  0  0  0  0
   58.3860   32.6040   46.6660 C   0  0  0  0  0  0  0  0  0  0  0  0
   58.4950   32.3070   48.0630 N   0  0  0  0  0  0  0  0  0  0  0  0
   59.3980   30.9820   48.7270 S   0  0  0  0  0  0  0  0  0  0  0  0
   58.7420   30.5140   49.9950 O   0  0  0  0  0  0  0  0  0  0  0  0
   59.4130   29.8540   47.7360 O   0  0  0  0  0  0  0  0  0  0  0  0
   61.0580   31.4910   49.0140 C   0  0  0  0  0  0  0  0  0  0  0  0
   61.7340   31.0250   50.1480 C   0  0  0  0  0  0  0  0  0  0  0  0
   63.0590   31.4010   50.3780 C   0  0  0  0  0  0  0  0  0  0  0  0
   63.7160   32.2500   49.4800 C   0  0  0  0  0  0  0  0  0  0  0  0
   65.3800   32.7220   49.7730 Cl  0  0  0  0  0  0  0  0  0  0  0  0
   63.0420   32.7220   48.3490 C   0  0  0  0  0  0  0  0  0  0  0  0
   61.7170   32.3450   48.1150 C   0  0  0  0  0  0  0  0  0  0  0  0
   57.7480   31.7320   45.7680 C   0  0  0  0  0  0  0  0  0  0  0  0
   56.5430   26.7980   45.9990 C   0  0  0  0  0  0  0  0  0  0  0  0
   55.1520   26.8460   45.9570 O   0  0  0  0  0  0  0  0  0  0  0  0
   56.4499   24.7567   48.4153 H   0  0  0  0  0  0  0  0  0  0  0  0
   55.3187   24.7461   47.0200 H   0  0  0  0  0  0  0  0  0  0  0  0
   56.7549   23.6673   47.0200 H   0  0  0  0  0  0  0  0  0  0  0  0
   59.0846   24.8029   47.1402 H   0  0  0  0  0  0  0  0  0  0  0  0
   60.4342   26.5371   45.9691 H   0  0  0  0  0  0  0  0  0  0  0  0
   59.3111   28.4457   44.8303 H   0  0  0  0  0  0  0  0  0  0  0  0
   58.3150   29.3920   43.3680 H   0  0  0  0  0  0  0  0  0  0  0  0
   57.3468   31.3627   42.4109 H   0  0  0  0  0  0  0  0  0  0  0  0
   55.9169   31.1998   43.4879 H   0  0  0  0  0  0  0  0  0  0  0  0
   58.1066   33.5431   42.8845 H   0  0  0  0  0  0  0  0  0  0  0  0
   59.2639   35.0783   44.4707 H   0  0  0  0  0  0  0  0  0  0  0  0
   59.4545   34.4767   46.8829 H   0  0  0  0  0  0  0  0  0  0  0  0
   61.2204   30.3614   50.8592 H   0  0  0  0  0  0  0  0  0  0  0  0
   63.5880   31.0288   51.2677 H   0  0  0  0  0  0  0  0  0  0  0  0
   63.5557   33.3909   47.6428 H   0  0  0  0  0  0  0  0  0  0  0  0
   61.1892   32.7179   47.2249 H   0  0  0  0  0  0  0  0  0  0  0  0
   57.3314   30.7811   46.1317 H   0  0  0  0  0  0  0  0  0  0  0  0
  1  2  1  0
  2  3  2  0
  3  4  1  0
  4  5  2  0
  5  6  1  0
  6  7  1  0
  7  8  2  0
  7  9  1  0
  9 10  1  0
 10 11  1  0
 11 12  2  0
 12 13  1  0
 13 14  2  0
 14 15  1  0
 15 16  1  0
 16 17  1  0
 17 18  2  0
 17 19  2  0
 17 20  1  0
 20 21  2  0
 21 22  1  0
 22 23  2  0
 23 24  1  0
 23 25  1  0
 25 26  2  0
 15 27  2  0
  6 28  2  0
 28 29  1  0
 28  2  1  0
 27 11  1  0
 26 20  1  0
  1 30  1  0
  1 31  1  0
  1 32  1  0
  3 33  1  0
  4 34  1  0
  5 35  1  0
  9 36  1  0
 10 37  1  0
 10 38  1  0
 12 39  1  0
 13 40  1  0
 14 41  1  0
 21 42  1  0
 22 43  1  0
 25 44  1  0
 26 45  1  0
 27 46  1  0
M  CHG  2  16  -1  29  -1
M  END
>  <UniqueID>  (55) 
50

>  <SMILES>  (55) 
Cc1cccc(C(=O)NCc2cccc([N-]S(=O)(=O)c3ccc(Cl)cc3)c2)c1[O-]

>  <Energy>  (55) 
53.3726577857587

>  <Genealogy>  (55) 
Cc1cccc(C(=O)NCc2cccc([N-]S(=O)(=O)c3ccc(Cl)cc3)c2)c1[O-] (protonated)
Cc1cccc(C(=O)NCc2cccc([N-]S(=O)(=O)c3ccc(Cl)cc3)c2)c1[O-] (3D coordinates assigned)
Cc1cccc(C(=O)NCc2cccc([N-]S(=O)(=O)c3ccc(Cl)cc3)c2)c1[O-] (optimized conformer: 53.3726577857587 kcal/mol)

>  <smiles>  (55) 
Cc1cccc(C(=O)NCc2cccc(NS(=O)(=O)c3ccc(Cl)cc3)c2)c1O

>  <score_type>  (55) 
oracle

>  <origin>  (55) 
adg

>  <m_score__min__energy>  (55) 
-14.67

>  <m_primary>  (55) 
energy

$$$$
55:0
     RDKit          3D

 25 26  0  0  0  0  0  0  0  0999 V2000
   60.3940   29.4230   47.0820 C   0  0  0  0  0  0  0  0  0  0  0  0
   59.5690   30.3790   46.6210 C   0  0  0  0  0  0  0  0  0  0  0  0
   59.6590   31.5580   47.2310 O   0  0  0  0  0  0  0  0  0  0  0  0
   58.9430   32.6190   46.8960 C   0  0  0  0  0  0  0  0  0  0  0  0
   58.0240   32.5480   45.8590 C   0  0  0  0  0  0  0  0  0  0  0  0
   57.2460   33.7160   45.5170 C   0  0  0  0  0  0  0  0  0  0  0  0
   56.6220   34.6530   45.2460 N   0  0  0  0  0  0  0  0  0  0  0  0
   57.8570   31.3370   45.1780 C   0  0  0  0  0  0  0  0  0  0  0  0
   56.9810   31.2740   44.2730 O   0  0  0  0  0  0  0  0  0  0  0  0
   58.6440   30.2010   45.5350 C   0  0  0  0  0  0  0  0  0  0  0  0
   58.5070   29.0020   44.8970 C   0  0  0  0  0  0  0  0  0  0  0  0
   57.6620   27.8740   45.3480 C   0  0  0  0  0  0  0  0  0  0  0  0
   56.2690   28.0210   45.4940 C   0  0  0  0  0  0  0  0  0  0  0  0
   55.6190   29.2120   45.1720 O   0  0  0  0  0  0  0  0  0  0  0  0
   55.5310   26.9760   45.9510 N   0  0  0  0  0  0  0  0  0  0  0  0
   56.1070   25.7930   46.2810 C   0  0  0  0  0  0  0  0  0  0  0  0
   55.3960   24.8420   46.6990 O   0  0  0  0  0  0  0  0  0  0  0  0
   57.4490   25.6350   46.1650 N   0  0  0  0  0  0  0  0  0  0  0  0
   58.2380   26.6440   45.7140 C   0  0  0  0  0  0  0  0  0  0  0  0
   59.4830   26.4680   45.6340 O   0  0  0  0  0  0  0  0  0  0  0  0
   60.3805   28.4201   46.6302 H   0  0  0  0  0  0  0  0  0  0  0  0
   61.0826   29.6436   47.9110 H   0  0  0  0  0  0  0  0  0  0  0  0
   59.0772   33.5637   47.4433 H   0  0  0  0  0  0  0  0  0  0  0  0
   59.0749   28.8619   43.9654 H   0  0  0  0  0  0  0  0  0  0  0  0
   55.8170   30.0880   45.6400 H   0  0  0  0  0  0  0  0  0  0  0  0
  1  2  2  0
  2  3  1  0
  3  4  1  0
  4  5  2  0
  5  6  1  0
  6  7  3  0
  5  8  1  0
  8  9  2  0
  8 10  1  0
 10 11  2  3
 11 12  1  0
 12 13  2  0
 13 14  1  0
 13 15  1  0
 15 16  1  0
 16 17  2  0
 16 18  1  0
 18 19  1  0
 19 20  2  0
 10  2  1  0
 19 12  1  0
  1 21  1  0
  1 22  1  0
  4 23  1  0
 11 24  1  0
 14 25  1  0
M  CHG  2  15  -1  18  -1
M  END
>  <UniqueID>  (56) 
51

>  <SMILES>  (56) 
C=c1occ(C#N)c(=O)c1=Cc1c(O)[n-]c(=O)[n-]c1=O

>  <Energy>  (56) 
51.053693711556285

>  <Genealogy>  (56) 
C=c1occ(C#N)c(=O)c1=Cc1c(O)[n-]c(=O)[n-]c1=O (protonated)
C=c1occ(C#N)c(=O)c1=Cc1c(O)[n-]c(=O)[n-]c1=O (3D coordinates assigned)
C=c1occ(C#N)c(=O)c1=Cc1c(O)[n-]c(=O)[n-]c1=O (optimized conformer: 51.053693711556285 kcal/mol)

>  <smiles>  (56) 
C=c1occ(C#N)c(=O)c1=Cc1c(O)[nH]c(=O)[nH]c1=O

>  <score_type>  (56) 
oracle

>  <origin>  (56) 
adg

>  <m_score__min__energy>  (56) 
-10.82

>  <m_primary>  (56) 
energy

$$$$
56:0
     RDKit          3D

 69 73  0  0  0  0  0  0  0  0999 V2000
   55.9490   28.2960   45.2520 O   0  0  0  0  0  0  0  0  0  0  0  0
   56.5270   29.1410   44.5190 C   0  0  0  0  0  0  0  0  0  0  0  0
   55.9420   30.5240   44.3950 C   0  0  0  0  0  0  0  0  0  0  0  0
   57.0030   31.5200   44.0310 C   0  0  0  0  0  0  0  0  0  0  0  0
   57.5740   31.7010   42.7740 C   0  0  0  0  0  0  0  0  0  0  0  0
   58.4830   32.7020   42.8100 N   0  0  0  0  0  0  0  0  0  0  0  0
   58.4820   33.1620   44.0740 C   0  0  0  0  0  0  0  0  0  0  0  0
   59.2600   34.1930   44.5990 C   0  0  0  0  0  0  0  0  0  0  0  0
   59.0980   34.5110   45.9600 C   0  0  0  0  0  0  0  0  0  0  0  0
   58.1690   33.8020   46.7570 C   0  0  0  0  0  0  0  0  0  0  0  0
   57.3970   32.7660   46.2000 C   0  0  0  0  0  0  0  0  0  0  0  0
   57.5850   32.4700   44.8490 C   0  0  0  0  0  0  0  0  0  0  0  0
   57.7470   28.7630   43.8680 N   0  0  0  0  0  0  0  0  0  0  0  0
   58.5440   27.5870   44.2020 C   0  0  0  0  0  0  0  0  0  0  0  0
   59.8840   28.0260   44.7910 C   0  0  0  0  0  0  0  0  0  0  0  0
   59.6770   28.8800   46.0150 C   0  0  0  0  0  0  0  0  0  0  0  0
   58.9930   28.3720   47.1310 C   0  0  0  0  0  0  0  0  0  0  0  0
   58.8140   29.1630   48.2700 C   0  0  0  0  0  0  0  0  0  0  0  0
   59.3260   30.4660   48.3120 C   0  0  0  0  0  0  0  0  0  0  0  0
   59.1150   31.4620   49.7530 S   0  0  0  0  0  0  0  0  0  0  0  0
   58.2360   32.6390   49.4300 O   0  0  0  0  0  0  0  0  0  0  0  0
   58.4470   30.6300   50.8110 O   0  0  0  0  0  0  0  0  0  0  0  0
   60.6560   32.0360   50.3440 N   0  0  0  0  0  0  0  0  0  0  0  0
   61.6570   30.9430   50.3210 C   0  0  0  0  0  0  0  0  0  0  0  0
   63.1050   31.4710   50.3720 C   0  0  0  0  0  0  0  0  0  0  0  0
   63.1380   32.8240   50.9630 N   0  0  0  0  0  0  0  0  0  0  0  0
   64.5150   33.2400   51.3470 C   0  0  0  0  0  0  0  0  0  0  0  0
   65.4340   33.3990   50.1310 C   0  0  0  0  0  0  0  0  0  0  0  0
   66.3530   32.1900   50.1400 C   0  0  0  0  0  0  0  0  0  0  0  0
   66.5030   31.8080   51.6030 C   0  0  0  0  0  0  0  0  0  0  0  0
   65.2320   32.2670   52.3080 C   0  0  0  0  0  0  0  0  0  0  0  0
   62.3820   33.8050   50.1410 C   0  0  0  0  0  0  0  0  0  0  0  0
   61.1070   33.1840   49.5370 C   0  0  0  0  0  0  0  0  0  0  0  0
   60.0310   30.9680   47.2070 C   0  0  0  0  0  0  0  0  0  0  0  0
   60.2000   30.1830   46.0630 C   0  0  0  0  0  0  0  0  0  0  0  0
   55.1680   30.5195   43.6134 H   0  0  0  0  0  0  0  0  0  0  0  0
   55.5062   30.8108   45.3634 H   0  0  0  0  0  0  0  0  0  0  0  0
   57.3217   31.1135   41.8789 H   0  0  0  0  0  0  0  0  0  0  0  0
   59.0690   33.0430   42.0140 H   0  0  0  0  0  0  0  0  0  0  0  0
   59.9773   34.7401   43.9695 H   0  0  0  0  0  0  0  0  0  0  0  0
   59.6982   35.3169   46.4075 H   0  0  0  0  0  0  0  0  0  0  0  0
   58.0494   34.0623   47.8190 H   0  0  0  0  0  0  0  0  0  0  0  0
   56.6700   32.2083   46.8086 H   0  0  0  0  0  0  0  0  0  0  0  0
   58.0030   26.9754   44.9390 H   0  0  0  0  0  0  0  0  0  0  0  0
   58.7214   26.9955   43.2917 H   0  0  0  0  0  0  0  0  0  0  0  0
   60.4657   27.1343   45.0677 H   0  0  0  0  0  0  0  0  0  0  0  0
   60.4240   28.6168   44.0364 H   0  0  0  0  0  0  0  0  0  0  0  0
   58.5959   27.3464   47.1091 H   0  0  0  0  0  0  0  0  0  0  0  0
   58.2689   28.7604   49.1365 H   0  0  0  0  0  0  0  0  0  0  0  0
   60.5140   32.3540   51.3320 H   0  0  0  0  0  0  0  0  0  0  0  0
   61.4880   30.2908   51.1905 H   0  0  0  0  0  0  0  0  0  0  0  0
   61.5331   30.3945   49.3756 H   0  0  0  0  0  0  0  0  0  0  0  0
   63.7170   30.7926   50.9846 H   0  0  0  0  0  0  0  0  0  0  0  0
   63.5042   31.5185   49.3481 H   0  0  0  0  0  0  0  0  0  0  0  0
   64.3493   34.1999   51.8581 H   0  0  0  0  0  0  0  0  0  0  0  0
   64.8415   33.4218   49.2045 H   0  0  0  0  0  0  0  0  0  0  0  0
   66.0040   34.3387   50.1768 H   0  0  0  0  0  0  0  0  0  0  0  0
   65.9057   31.3623   49.5700 H   0  0  0  0  0  0  0  0  0  0  0  0
   67.3242   32.4110   49.6733 H   0  0  0  0  0  0  0  0  0  0  0  0
   66.6182   30.7184   51.7004 H   0  0  0  0  0  0  0  0  0  0  0  0
   67.3931   32.2789   52.0457 H   0  0  0  0  0  0  0  0  0  0  0  0
   64.5859   31.4034   52.5240 H   0  0  0  0  0  0  0  0  0  0  0  0
   65.4664   32.7578   53.2641 H   0  0  0  0  0  0  0  0  0  0  0  0
   62.0968   34.6567   50.7760 H   0  0  0  0  0  0  0  0  0  0  0  0
   63.0299   34.1285   49.3130 H   0  0  0  0  0  0  0  0  0  0  0  0
   60.3116   33.9435   49.5128 H   0  0  0  0  0  0  0  0  0  0  0  0
   61.3312   32.8348   48.5183 H   0  0  0  0  0  0  0  0  0  0  0  0
   60.4523   31.9835   47.2415 H   0  0  0  0  0  0  0  0  0  0  0  0
   60.7446   30.5870   45.1969 H   0  0  0  0  0  0  0  0  0  0  0  0
  1  2  2  0
  2  3  1  0
  3  4  1  0
  4  5  2  0
  5  6  1  0
  6  7  1  0
  7  8  2  0
  8  9  1  0
  9 10  2  0
 10 11  1  0
 11 12  2  0
  2 13  1  0
 13 14  1  0
 14 15  1  0
 15 16  1  0
 16 17  2  0
 17 18  1  0
 18 19  2  0
 19 20  1  0
 20 21  2  0
 20 22  2  0
 20 23  1  0
 23 24  1  0
 24 25  1  0
 25 26  1  0
 26 27  1  0
 27 28  1  0
 28 29  1  0
 29 30  1  0
 30 31  1  0
 26 32  1  0
 32 33  1  0
 19 34  1  0
 34 35  2  0
 12  4  1  0
 35 16  1  0
 12  7  1  0
 33 23  1  0
 31 27  1  0
  3 36  1  0
  3 37  1  0
  5 38  1  0
  6 39  1  0
  8 40  1  0
  9 41  1  0
 10 42  1  0
 11 43  1  0
 14 44  1  0
 14 45  1  0
 15 46  1  0
 15 47  1  0
 17 48  1  0
 18 49  1  0
 23 50  1  0
 24 51  1  0
 24 52  1  0
 25 53  1  0
 25 54  1  0
 27 55  1  0
 28 56  1  0
 28 57  1  0
 29 58  1  0
 29 59  1  0
 30 60  1  0
 30 61  1  0
 31 62  1  0
 31 63  1  0
 32 64  1  0
 32 65  1  0
 33 66  1  0
 33 67  1  0
 34 68  1  0
 35 69  1  0
M  CHG  2  13  -1  23   1
M  END
>  <UniqueID>  (57) 
52

>  <SMILES>  (57) 
O=C(Cc1c[nH]c2ccccc12)[N-]CCc1ccc(S(=O)(=O)[NH+]2CCN(C3CCCC3)CC2)cc1

>  <Energy>  (57) 
113.55380325018481

>  <Genealogy>  (57) 
O=C(Cc1c[nH]c2ccccc12)[N-]CCc1ccc(S(=O)(=O)[NH+]2CCN(C3CCCC3)CC2)cc1 (protonated)
O=C(Cc1c[nH]c2ccccc12)[N-]CCc1ccc(S(=O)(=O)[NH+]2CCN(C3CCCC3)CC2)cc1 (3D coordinates assigned)
O=C(Cc1c[nH]c2ccccc12)[N-]CCc1ccc(S(=O)(=O)[NH+]2CCN(C3CCCC3)CC2)cc1 (nonaromatic ring conformer: 113.55380325018481 kcal/mol)

>  <smiles>  (57) 
O=C(Cc1c[nH]c2ccccc12)NCCc1ccc(S(=O)(=O)N2CCN(C3CCCC3)CC2)cc1

>  <score_type>  (57) 
oracle

>  <origin>  (57) 
adg

>  <m_score__min__energy>  (57) 
-10.07

>  <m_primary>  (57) 
energy

$$$$
57:0
     RDKit          3D

 40 42  0  0  0  0  0  0  0  0999 V2000
   56.3414   30.1965   42.3461 H   0  0  0  0  0  0  0  0  0  0  0  0
   56.6320   29.2780   42.8770 C   0  0  0  0  0  0  0  0  0  0  0  0
   56.3429   28.2956   42.4753 H   0  0  0  0  0  0  0  0  0  0  0  0
   57.3400   29.3560   44.0160 C   0  0  0  0  0  0  0  0  0  0  0  0
   57.7750   28.2760   44.7910 C   0  0  0  0  0  0  0  0  0  0  0  0
   57.5150   26.9690   44.5900 C   0  0  0  0  0  0  0  0  0  0  0  0
   57.6053   26.5767   43.5663 H   0  0  0  0  0  0  0  0  0  0  0  0
   57.1170   26.0320   45.6570 C   0  0  0  0  0  0  0  0  0  0  0  0
   57.9820   25.2010   46.2650 N   0  0  0  0  0  0  0  0  0  0  0  0
   57.2310   24.6090   47.2190 C   0  0  0  0  0  0  0  0  0  0  0  0
   57.6930   23.7420   48.0050 O   0  0  0  0  0  0  0  0  0  0  0  0
   55.9500   25.0310   47.2750 N   0  0  0  0  0  0  0  0  0  0  0  0
   55.8960   25.9410   46.2890 C   0  0  0  0  0  0  0  0  0  0  0  0
   54.7710   26.7090   46.0150 O   0  0  0  0  0  0  0  0  0  0  0  0
   58.5020   28.8180   45.8400 C   0  0  0  0  0  0  0  0  0  0  0  0
   58.9824   28.2651   46.6606 H   0  0  0  0  0  0  0  0  0  0  0  0
   58.5060   30.1850   45.6550 C   0  0  0  0  0  0  0  0  0  0  0  0
   59.2680   31.1190   46.5130 C   0  0  0  0  0  0  0  0  0  0  0  0
   60.5210   31.1540   46.3650 O   0  0  0  0  0  0  0  0  0  0  0  0
   58.6090   31.9590   47.5080 N   0  0  0  0  0  0  0  0  0  0  0  0
   58.0580   31.3260   48.1310 H   0  0  0  0  0  0  0  0  0  0  0  0
   57.6490   32.9140   46.8990 C   0  0  0  0  0  0  0  0  0  0  0  0
   56.9526   32.3536   46.2580 H   0  0  0  0  0  0  0  0  0  0  0  0
   57.1222   33.4261   47.7177 H   0  0  0  0  0  0  0  0  0  0  0  0
   58.3450   33.9860   46.0500 C   0  0  0  0  0  0  0  0  0  0  0  0
   58.7773   33.5180   45.1533 H   0  0  0  0  0  0  0  0  0  0  0  0
   57.6096   34.7479   45.7522 H   0  0  0  0  0  0  0  0  0  0  0  0
   59.4350   34.6350   46.8470 C   0  0  0  0  0  0  0  0  0  0  0  0
   59.6350   35.8360   46.7540 O   0  0  0  0  0  0  0  0  0  0  0  0
   60.3550   33.7770   47.6630 C   0  0  0  0  0  0  0  0  0  0  0  0
   61.0962   33.3079   46.9992 H   0  0  0  0  0  0  0  0  0  0  0  0
   60.8598   34.4072   48.4100 H   0  0  0  0  0  0  0  0  0  0  0  0
   59.5610   32.6770   48.3940 C   0  0  0  0  0  0  0  0  0  0  0  0
   60.2729   31.9474   48.8073 H   0  0  0  0  0  0  0  0  0  0  0  0
   58.9700   33.1674   49.1815 H   0  0  0  0  0  0  0  0  0  0  0  0
   57.7730   30.5200   44.5670 N   0  0  0  0  0  0  0  0  0  0  0  0
   57.4900   31.8800   44.0980 C   0  0  0  0  0  0  0  0  0  0  0  0
   57.3516   32.5449   44.9633 H   0  0  0  0  0  0  0  0  0  0  0  0
   58.3323   32.2407   43.4894 H   0  0  0  0  0  0  0  0  0  0  0  0
   56.5737   31.8747   43.4894 H   0  0  0  0  0  0  0  0  0  0  0  0
  1  2  1  0
  2  3  1  0
  2  4  2  0
  4  5  1  0
  5  6  2  0
  6  7  1  0
  6  8  1  0
  8  9  1  0
  9 10  1  0
 10 11  2  0
 10 12  1  0
 12 13  1  0
 13 14  1  0
  5 15  1  0
 15 16  1  0
 15 17  2  0
 17 18  1  0
 18 19  2  0
 18 20  1  0
 20 21  1  0
 20 22  1  0
 22 23  1  0
 22 24  1  0
 22 25  1  0
 25 26  1  0
 25 27  1  0
 25 28  1  0
 28 29  2  0
 28 30  1  0
 30 31  1  0
 30 32  1  0
 30 33  1  0
 33 34  1  0
 33 35  1  0
 17 36  1  0
 36 37  1  0
 37 38  1  0
 37 39  1  0
 37 40  1  0
 36  4  1  0
 13  8  2  0
 33 20  1  0
M  CHG  4   9  -1  12  -1  14  -1  20   1
M  END
>  <UniqueID>  (58) 
53

>  <SMILES>  (58) 
C=c1/c(=C/c2[n-]c(=O)[n-]c2[O-])cc(C(=O)[NH+]2CCC(=O)CC2)n1C

>  <Energy>  (58) 
118.03894901822814

>  <Genealogy>  (58) 
C=c1c(=Cc2[n-]c(=O)[n-]c2[O-])cc(C(=O)[NH+]2CCC(=O)CC2)n1C (protonated)
C=c1/c(=C/c2[n-]c(=O)[n-]c2[O-])cc(C(=O)[NH+]2CCC(=O)CC2)n1C (cis-trans isomerization)
C=c1/c(=C/c2[n-]c(=O)[n-]c2[O-])cc(C(=O)[NH+]2CCC(=O)CC2)n1C (3D coordinates assigned)
C=c1/c(=C/c2[n-]c(=O)[n-]c2[O-])cc(C(=O)[NH+]2CCC(=O)CC2)n1C (nonaromatic ring conformer: 118.03894901822814 kcal/mol)

>  <smiles>  (58) 
C=c1c(=Cc2[nH]c(=O)[nH]c2O)cc(C(=O)N2CCC(=O)CC2)n1C

>  <score_type>  (58) 
oracle

>  <origin>  (58) 
adg

>  <m_score__min__energy>  (58) 
-15.300000000000001

>  <m_primary>  (58) 
energy

$$$$
58:0
     RDKit          3D

 39 41  0  0  0  0  0  0  0  0999 V2000
   56.8500   29.4690   43.2720 C   0  0  0  0  0  0  0  0  0  0  0  0
   57.1740   30.2870   44.2790 C   0  0  0  0  0  0  0  0  0  0  0  0
   57.0490   31.6260   44.1690 N   0  0  0  0  0  0  0  0  0  0  0  0
   57.6290   32.1770   45.2500 C   0  0  0  0  0  0  0  0  0  0  0  0
   57.7370   33.6520   45.4720 C   0  0  0  0  0  0  0  0  0  0  0  0
   58.1250   31.1890   46.0810 C   0  0  0  0  0  0  0  0  0  0  0  0
   58.8040   31.4160   47.3740 C   0  0  0  0  0  0  0  0  0  0  0  0
   58.5150   30.6710   48.3490 O   0  0  0  0  0  0  0  0  0  0  0  0
   59.8040   32.4430   47.5310 N   0  0  0  0  0  0  0  0  0  0  0  0
   60.5750   32.9340   46.3830 C   0  0  0  0  0  0  0  0  0  0  0  0
   61.9960   33.2900   46.8310 C   0  0  0  0  0  0  0  0  0  0  0  0
   61.9660   34.1680   47.9400 O   0  0  0  0  0  0  0  0  0  0  0  0
   61.4000   33.5080   49.0580 C   0  0  0  0  0  0  0  0  0  0  0  0
   59.9290   33.1640   48.8010 C   0  0  0  0  0  0  0  0  0  0  0  0
   57.8150   29.9650   45.4880 C   0  0  0  0  0  0  0  0  0  0  0  0
   58.1370   28.7620   46.0080 C   0  0  0  0  0  0  0  0  0  0  0  0
   57.2470   27.5920   46.0640 C   0  0  0  0  0  0  0  0  0  0  0  0
   55.9830   27.5750   45.6000 N   0  0  0  0  0  0  0  0  0  0  0  0
   55.5210   26.3690   45.9930 C   0  0  0  0  0  0  0  0  0  0  0  0
   54.3570   25.9710   45.7290 O   0  0  0  0  0  0  0  0  0  0  0  0
   56.4010   25.6280   46.6990 N   0  0  0  0  0  0  0  0  0  0  0  0
   57.4850   26.4200   46.7480 C   0  0  0  0  0  0  0  0  0  0  0  0
   58.6610   26.0710   47.4070 O   0  0  0  0  0  0  0  0  0  0  0  0
   56.9620   28.3810   43.3894 H   0  0  0  0  0  0  0  0  0  0  0  0
   56.4715   29.8841   42.3263 H   0  0  0  0  0  0  0  0  0  0  0  0
   56.6360   32.1480   43.3620 H   0  0  0  0  0  0  0  0  0  0  0  0
   57.7522   33.8601   46.5520 H   0  0  0  0  0  0  0  0  0  0  0  0
   58.6648   34.0248   45.0136 H   0  0  0  0  0  0  0  0  0  0  0  0
   56.8734   34.1560   45.0136 H   0  0  0  0  0  0  0  0  0  0  0  0
   60.6200   32.1517   45.6110 H   0  0  0  0  0  0  0  0  0  0  0  0
   60.0868   33.8301   45.9722 H   0  0  0  0  0  0  0  0  0  0  0  0
   62.5267   32.3690   47.1140 H   0  0  0  0  0  0  0  0  0  0  0  0
   62.5143   33.7891   45.9990 H   0  0  0  0  0  0  0  0  0  0  0  0
   61.9589   32.5802   49.2498 H   0  0  0  0  0  0  0  0  0  0  0  0
   61.4581   34.1776   49.9288 H   0  0  0  0  0  0  0  0  0  0  0  0
   59.5533   32.5316   49.6188 H   0  0  0  0  0  0  0  0  0  0  0  0
   59.3414   34.0926   48.7517 H   0  0  0  0  0  0  0  0  0  0  0  0
   59.1486   28.6468   46.4244 H   0  0  0  0  0  0  0  0  0  0  0  0
   59.1830   26.7500   47.9480 H   0  0  0  0  0  0  0  0  0  0  0  0
  1  2  2  0
  2  3  1  0
  3  4  1  0
  4  5  1  0
  4  6  2  0
  6  7  1  0
  7  8  2  0
  7  9  1  0
  9 10  1  0
 10 11  1  0
 11 12  1  0
 12 13  1  0
 13 14  1  0
  6 15  1  0
 15 16  2  3
 16 17  1  0
 17 18  1  0
 18 19  1  0
 19 20  2  0
 19 21  1  0
 21 22  1  0
 22 23  1  0
 15  2  1  0
 22 17  2  0
 14  9  1  0
  1 24  1  0
  1 25  1  0
  3 26  1  0
  5 27  1  0
  5 28  1  0
  5 29  1  0
 10 30  1  0
 10 31  1  0
 11 32  1  0
 11 33  1  0
 13 34  1  0
 13 35  1  0
 14 36  1  0
 14 37  1  0
 16 38  1  0
 23 39  1  0
M  CHG  2  18  -1  21  -1
M  END
>  <UniqueID>  (59) 
54

>  <SMILES>  (59) 
C=c1[nH]c(C)c(C(=O)N2CCOCC2)c1=Cc1[n-]c(=O)[n-]c1O

>  <Energy>  (59) 
113.40136964727697

>  <Genealogy>  (59) 
C=c1[nH]c(C)c(C(=O)N2CCOCC2)c1=Cc1[n-]c(=O)[n-]c1O (protonated)
C=c1[nH]c(C)c(C(=O)N2CCOCC2)c1=Cc1[n-]c(=O)[n-]c1O (3D coordinates assigned)
C=c1[nH]c(C)c(C(=O)N2CCOCC2)c1=Cc1[n-]c(=O)[n-]c1O (nonaromatic ring conformer: 113.40136964727697 kcal/mol)

>  <smiles>  (59) 
C=c1[nH]c(C)c(C(=O)N2CCOCC2)c1=Cc1[nH]c(=O)[nH]c1O

>  <score_type>  (59) 
oracle

>  <origin>  (59) 
adg

>  <m_score__min__energy>  (59) 
-11.43

>  <m_primary>  (59) 
energy

$$$$
59:0
     RDKit          3D

 58 60  0  0  0  0  0  0  0  0999 V2000
   53.4120   23.4330   45.5190 C   0  0  0  0  0  0  0  0  0  0  0  0
   54.5410   24.2520   44.8830 C   0  0  0  0  0  0  0  0  0  0  0  0
   54.7900   25.5780   45.6090 C   0  0  0  0  0  0  0  0  0  0  0  0
   55.7840   23.3960   44.6130 C   0  0  0  0  0  0  0  0  0  0  0  0
   55.9470   22.9700   43.2750 C   0  0  0  0  0  0  0  0  0  0  0  0
   57.0060   22.1490   42.8940 C   0  0  0  0  0  0  0  0  0  0  0  0
   57.9360   21.7330   43.8360 C   0  0  0  0  0  0  0  0  0  0  0  0
   57.8070   22.1270   45.1640 C   0  0  0  0  0  0  0  0  0  0  0  0
   56.7380   22.9400   45.5880 C   0  0  0  0  0  0  0  0  0  0  0  0
   56.7110   23.3470   47.3210 S   0  0  0  0  0  0  0  0  0  0  0  0
   57.1690   22.1680   48.1320 O   0  0  0  0  0  0  0  0  0  0  0  0
   55.3160   23.6890   47.7570 O   0  0  0  0  0  0  0  0  0  0  0  0
   57.7940   24.6700   47.6180 N   0  0  0  0  0  0  0  0  0  0  0  0
   57.9540   25.8060   46.7620 C   0  0  0  0  0  0  0  0  0  0  0  0
   57.9810   25.6030   45.3770 C   0  0  0  0  0  0  0  0  0  0  0  0
   58.0760   26.6900   44.5030 C   0  0  0  0  0  0  0  0  0  0  0  0
   58.1710   27.9970   45.0060 C   0  0  0  0  0  0  0  0  0  0  0  0
   58.1950   29.1770   44.0640 C   0  0  0  0  0  0  0  0  0  0  0  0
   57.1040   30.1780   44.3730 C   0  0  0  0  0  0  0  0  0  0  0  0
   56.0330   29.7770   44.9160 O   0  0  0  0  0  0  0  0  0  0  0  0
   57.2820   31.5920   44.1110 N   0  0  0  0  0  0  0  0  0  0  0  0
   57.7660   32.0110   42.7890 C   0  0  0  0  0  0  0  0  0  0  0  0
   57.0300   32.6060   45.1460 C   0  0  0  0  0  0  0  0  0  0  0  0
   58.2020   32.6960   46.0830 C   0  0  0  0  0  0  0  0  0  0  0  0
   58.5200   31.7030   46.9430 N   0  0  0  0  0  0  0  0  0  0  0  0
   59.6500   32.1260   47.5400 C   0  0  0  0  0  0  0  0  0  0  0  0
   60.0130   33.3510   47.0270 C   0  0  0  0  0  0  0  0  0  0  0  0
   59.0940   33.7110   46.1160 N   0  0  0  0  0  0  0  0  0  0  0  0
   59.1490   34.9030   45.2710 C   0  0  0  0  0  0  0  0  0  0  0  0
   58.1650   28.2010   46.3960 C   0  0  0  0  0  0  0  0  0  0  0  0
   58.0630   27.1130   47.2690 C   0  0  0  0  0  0  0  0  0  0  0  0
   53.4902   23.4898   46.6147 H   0  0  0  0  0  0  0  0  0  0  0  0
   52.4404   23.8378   45.1993 H   0  0  0  0  0  0  0  0  0  0  0  0
   53.4952   22.3838   45.1993 H   0  0  0  0  0  0  0  0  0  0  0  0
   54.2090   24.5704   43.8838 H   0  0  0  0  0  0  0  0  0  0  0  0
   54.7589   25.4123   46.6960 H   0  0  0  0  0  0  0  0  0  0  0  0
   55.7777   25.9711   45.3261 H   0  0  0  0  0  0  0  0  0  0  0  0
   54.0122   26.3026   45.3261 H   0  0  0  0  0  0  0  0  0  0  0  0
   55.2199   23.2947   42.5161 H   0  0  0  0  0  0  0  0  0  0  0  0
   57.1050   21.8303   41.8458 H   0  0  0  0  0  0  0  0  0  0  0  0
   58.7761   21.0910   43.5325 H   0  0  0  0  0  0  0  0  0  0  0  0
   58.5560   21.7964   45.8986 H   0  0  0  0  0  0  0  0  0  0  0  0
   57.9271   24.5810   44.9737 H   0  0  0  0  0  0  0  0  0  0  0  0
   58.0763   26.5203   43.4162 H   0  0  0  0  0  0  0  0  0  0  0  0
   59.1703   29.6785   44.1494 H   0  0  0  0  0  0  0  0  0  0  0  0
   58.0269   28.7986   43.0449 H   0  0  0  0  0  0  0  0  0  0  0  0
   58.5925   32.7265   42.9110 H   0  0  0  0  0  0  0  0  0  0  0  0
   58.1218   31.1311   42.2330 H   0  0  0  0  0  0  0  0  0  0  0  0
   56.9461   32.4892   42.2330 H   0  0  0  0  0  0  0  0  0  0  0  0
   56.8729   33.5833   44.6662 H   0  0  0  0  0  0  0  0  0  0  0  0
   56.1352   32.3194   45.7180 H   0  0  0  0  0  0  0  0  0  0  0  0
   60.1994   31.5768   48.3188 H   0  0  0  0  0  0  0  0  0  0  0  0
   60.9011   33.9335   47.3134 H   0  0  0  0  0  0  0  0  0  0  0  0
   59.1904   35.8006   45.9055 H   0  0  0  0  0  0  0  0  0  0  0  0
   60.0462   34.8612   44.6359 H   0  0  0  0  0  0  0  0  0  0  0  0
   58.2518   34.9440   44.6359 H   0  0  0  0  0  0  0  0  0  0  0  0
   58.2409   29.2214   46.7997 H   0  0  0  0  0  0  0  0  0  0  0  0
   58.0681   27.2804   48.3562 H   0  0  0  0  0  0  0  0  0  0  0  0
  1  2  1  0
  2  3  1  0
  2  4  1  0
  4  5  2  0
  5  6  1  0
  6  7  2  0
  7  8  1  0
  8  9  2  0
  9 10  1  0
 10 11  2  0
 10 12  2  0
 10 13  1  0
 13 14  1  0
 14 15  2  0
 15 16  1  0
 16 17  2  0
 17 18  1  0
 18 19  1  0
 19 20  2  0
 19 21  1  0
 21 22  1  0
 21 23  1  0
 23 24  1  0
 24 25  2  0
 25 26  1  0
 26 27  2  0
 27 28  1  0
 28 29  1  0
 17 30  1  0
 30 31  2  0
  9  4  1  0
 31 14  1  0
 28 24  1  0
  1 32  1  0
  1 33  1  0
  1 34  1  0
  2 35  1  0
  3 36  1  0
  3 37  1  0
  3 38  1  0
  5 39  1  0
  6 40  1  0
  7 41  1  0
  8 42  1  0
 15 43  1  0
 16 44  1  0
 18 45  1  0
 18 46  1  0
 22 47  1  0
 22 48  1  0
 22 49  1  0
 23 50  1  0
 23 51  1  0
 26 52  1  0
 27 53  1  0
 29 54  1  0
 29 55  1  0
 29 56  1  0
 30 57  1  0
 31 58  1  0
M  CHG  1  13  -1
M  END
>  <UniqueID>  (60) 
55

>  <SMILES>  (60) 
CC(C)c1ccccc1S(=O)(=O)[N-]c1ccc(CC(=O)N(C)Cc2nccn2C)cc1

>  <Energy>  (60) 
98.14172493013794

>  <Genealogy>  (60) 
CC(C)c1ccccc1S(=O)(=O)[N-]c1ccc(CC(=O)N(C)Cc2nccn2C)cc1 (protonated)
CC(C)c1ccccc1S(=O)(=O)[N-]c1ccc(CC(=O)N(C)Cc2nccn2C)cc1 (3D coordinates assigned)
CC(C)c1ccccc1S(=O)(=O)[N-]c1ccc(CC(=O)N(C)Cc2nccn2C)cc1 (optimized conformer: 98.14172493013794 kcal/mol)

>  <smiles>  (60) 
CC(C)c1ccccc1S(=O)(=O)Nc1ccc(CC(=O)N(C)Cc2nccn2C)cc1

>  <score_type>  (60) 
oracle

>  <origin>  (60) 
adg

>  <m_score__min__energy>  (60) 
-9.9800000000000004

>  <m_primary>  (60) 
energy

$$$$
60:0
     RDKit          3D

 59 62  0  0  0  0  0  0  0  0999 V2000
   67.7170   30.1550   52.2060 C   0  0  0  0  0  0  0  0  0  0  0  0
   66.9510   31.2530   51.5140 C   0  0  0  0  0  0  0  0  0  0  0  0
   67.6480   32.3920   51.0770 C   0  0  0  0  0  0  0  0  0  0  0  0
   66.9770   33.4360   50.4400 C   0  0  0  0  0  0  0  0  0  0  0  0
   65.6010   33.3600   50.2370 C   0  0  0  0  0  0  0  0  0  0  0  0
   64.8820   32.2320   50.6540 C   0  0  0  0  0  0  0  0  0  0  0  0
   63.4590   32.2050   50.4630 N   0  0  0  0  0  0  0  0  0  0  0  0
   62.6080   33.0750   51.2850 C   0  0  0  0  0  0  0  0  0  0  0  0
   61.1270   32.8510   50.9690 C   0  0  0  0  0  0  0  0  0  0  0  0
   60.9360   32.7930   49.5140 N   0  0  0  0  0  0  0  0  0  0  0  0
   60.1390   33.7940   48.8470 C   0  0  0  0  0  0  0  0  0  0  0  0
   60.0490   34.9500   49.3410 O   0  0  0  0  0  0  0  0  0  0  0  0
   59.4500   33.5040   47.5740 C   0  0  0  0  0  0  0  0  0  0  0  0
   59.7990   34.2060   46.4090 C   0  0  0  0  0  0  0  0  0  0  0  0
   59.1640   33.9220   45.1970 C   0  0  0  0  0  0  0  0  0  0  0  0
   58.1630   32.9410   45.1330 C   0  0  0  0  0  0  0  0  0  0  0  0
   57.5060   32.6220   43.8170 C   0  0  0  0  0  0  0  0  0  0  0  0
   56.8120   31.3750   43.8920 O   0  0  0  0  0  0  0  0  0  0  0  0
   57.3760   30.1540   44.2990 C   0  0  0  0  0  0  0  0  0  0  0  0
   58.7600   29.9020   44.2190 C   0  0  0  0  0  0  0  0  0  0  0  0
   59.2800   28.6710   44.6250 C   0  0  0  0  0  0  0  0  0  0  0  0
   58.4290   27.6800   45.1180 C   0  0  0  0  0  0  0  0  0  0  0  0
   57.0570   27.9200   45.2090 C   0  0  0  0  0  0  0  0  0  0  0  0
   56.5270   29.1510   44.8040 C   0  0  0  0  0  0  0  0  0  0  0  0
   55.1510   29.3550   44.9050 O   0  0  0  0  0  0  0  0  0  0  0  0
   57.7850   32.2700   46.3060 C   0  0  0  0  0  0  0  0  0  0  0  0
   58.4240   32.5490   47.5160 C   0  0  0  0  0  0  0  0  0  0  0  0
   61.7600   31.8680   48.7150 C   0  0  0  0  0  0  0  0  0  0  0  0
   62.8670   31.2170   49.5550 C   0  0  0  0  0  0  0  0  0  0  0  0
   65.5580   31.1470   51.2650 C   0  0  0  0  0  0  0  0  0  0  0  0
   64.7810   29.9210   51.6890 C   0  0  0  0  0  0  0  0  0  0  0  0
   67.6309   30.2784   53.2957 H   0  0  0  0  0  0  0  0  0  0  0  0
   67.3030   29.1787   51.9137 H   0  0  0  0  0  0  0  0  0  0  0  0
   68.7762   30.2065   51.9137 H   0  0  0  0  0  0  0  0  0  0  0  0
   68.7338   32.4612   51.2388 H   0  0  0  0  0  0  0  0  0  0  0  0
   67.5350   34.3200   50.0977 H   0  0  0  0  0  0  0  0  0  0  0  0
   65.0749   34.1918   49.7456 H   0  0  0  0  0  0  0  0  0  0  0  0
   62.7867   32.8531   52.3475 H   0  0  0  0  0  0  0  0  0  0  0  0
   62.8593   34.1226   51.0625 H   0  0  0  0  0  0  0  0  0  0  0  0
   60.7959   31.9037   51.4196 H   0  0  0  0  0  0  0  0  0  0  0  0
   60.5361   33.6820   51.3817 H   0  0  0  0  0  0  0  0  0  0  0  0
   60.5761   34.9834   46.4506 H   0  0  0  0  0  0  0  0  0  0  0  0
   59.4507   34.4708   44.2878 H   0  0  0  0  0  0  0  0  0  0  0  0
   56.7909   33.4195   43.5670 H   0  0  0  0  0  0  0  0  0  0  0  0
   58.2820   32.5505   43.0407 H   0  0  0  0  0  0  0  0  0  0  0  0
   59.4355   30.6802   43.8341 H   0  0  0  0  0  0  0  0  0  0  0  0
   60.3615   28.4820   44.5563 H   0  0  0  0  0  0  0  0  0  0  0  0
   58.8398   26.7100   45.4347 H   0  0  0  0  0  0  0  0  0  0  0  0
   56.3892   27.1385   45.6006 H   0  0  0  0  0  0  0  0  0  0  0  0
   54.7070   30.2090   44.5890 H   0  0  0  0  0  0  0  0  0  0  0  0
   56.9809   31.5201   46.2723 H   0  0  0  0  0  0  0  0  0  0  0  0
   58.1209   32.0165   48.4295 H   0  0  0  0  0  0  0  0  0  0  0  0
   61.1129   31.0781   48.3059 H   0  0  0  0  0  0  0  0  0  0  0  0
   62.2378   32.4456   47.9100 H   0  0  0  0  0  0  0  0  0  0  0  0
   62.4392   30.3923   50.1439 H   0  0  0  0  0  0  0  0  0  0  0  0
   63.6486   30.8320   48.8835 H   0  0  0  0  0  0  0  0  0  0  0  0
   64.7483   29.8693   52.7873 H   0  0  0  0  0  0  0  0  0  0  0  0
   63.7561   29.9817   51.2941 H   0  0  0  0  0  0  0  0  0  0  0  0
   65.2734   29.0201   51.2941 H   0  0  0  0  0  0  0  0  0  0  0  0
  1  2  1  0
  2  3  2  0
  3  4  1  0
  4  5  2  0
  5  6  1  0
  6  7  1  0
  7  8  1  0
  8  9  1  0
  9 10  1  0
 10 11  1  0
 11 12  2  0
 11 13  1  0
 13 14  2  0
 14 15  1  0
 15 16  2  0
 16 17  1  0
 17 18  1  0
 18 19  1  0
 19 20  2  0
 20 21  1  0
 21 22  2  0
 22 23  1  0
 23 24  2  0
 24 25  1  0
 16 26  1  0
 26 27  2  0
 10 28  1  0
 28 29  1  0
  6 30  2  0
 30 31  1  0
 30  2  1  0
 29  7  1  0
 27 13  1  0
 24 19  1  0
  1 32  1  0
  1 33  1  0
  1 34  1  0
  3 35  1  0
  4 36  1  0
  5 37  1  0
  8 38  1  0
  8 39  1  0
  9 40  1  0
  9 41  1  0
 14 42  1  0
 15 43  1  0
 17 44  1  0
 17 45  1  0
 20 46  1  0
 21 47  1  0
 22 48  1  0
 23 49  1  0
 25 50  1  0
 26 51  1  0
 27 52  1  0
 28 53  1  0
 28 54  1  0
 29 55  1  0
 29 56  1  0
 31 57  1  0
 31 58  1  0
 31 59  1  0
M  END
>  <UniqueID>  (61) 
56

>  <SMILES>  (61) 
Cc1cccc(N2CCN(C(=O)c3ccc(COc4ccccc4O)cc3)CC2)c1C

>  <Energy>  (61) 
74.32101227704936

>  <Genealogy>  (61) 
Cc1cccc(N2CCN(C(=O)c3ccc(COc4ccccc4O)cc3)CC2)c1C (3D coordinates assigned)
Cc1cccc(N2CCN(C(=O)c3ccc(COc4ccccc4O)cc3)CC2)c1C (nonaromatic ring conformer: 74.32101227704936 kcal/mol)

>  <smiles>  (61) 
Cc1cccc(N2CCN(C(=O)c3ccc(COc4ccccc4O)cc3)CC2)c1C

>  <score_type>  (61) 
oracle

>  <origin>  (61) 
adg

>  <m_score__min__energy>  (61) 
-9.2100000000000009

>  <m_primary>  (61) 
energy

$$$$
61:0
     RDKit          3D

 53 56  0  0  0  0  0  0  0  0999 V2000
   68.1350   32.4620   52.2260 C   0  0  0  0  0  0  0  0  0  0  0  0
   67.1770   32.6150   50.7350 S   0  0  0  0  0  0  0  0  0  0  0  0
   66.9440   31.2590   50.1300 O   0  0  0  0  0  0  0  0  0  0  0  0
   67.9320   33.4640   49.7510 O   0  0  0  0  0  0  0  0  0  0  0  0
   65.6560   33.3630   51.0950 N   0  0  0  0  0  0  0  0  0  0  0  0
   65.2760   33.8650   52.4130 C   0  0  0  0  0  0  0  0  0  0  0  0
   63.8070   34.3380   52.2760 C   0  0  0  0  0  0  0  0  0  0  0  0
   63.4700   34.0120   50.8610 C   0  0  0  0  0  0  0  0  0  0  0  0
   62.2580   34.2150   50.1990 C   0  0  0  0  0  0  0  0  0  0  0  0
   62.1470   33.8330   48.8430 C   0  0  0  0  0  0  0  0  0  0  0  0
   60.8830   34.0360   48.0980 C   0  0  0  0  0  0  0  0  0  0  0  0
   59.9440   34.6880   48.6320 O   0  0  0  0  0  0  0  0  0  0  0  0
   60.7310   33.5390   46.7560 N   0  0  0  0  0  0  0  0  0  0  0  0
   59.4570   33.3110   46.1290 C   0  0  0  0  0  0  0  0  0  0  0  0
   58.6060   34.3990   45.8820 C   0  0  0  0  0  0  0  0  0  0  0  0
   57.3720   34.2030   45.2570 C   0  0  0  0  0  0  0  0  0  0  0  0
   56.9830   32.9230   44.8570 C   0  0  0  0  0  0  0  0  0  0  0  0
   57.8360   31.8290   45.0670 C   0  0  0  0  0  0  0  0  0  0  0  0
   57.3500   30.2100   44.5480 S   0  0  0  0  0  0  0  0  0  0  0  0
   57.3470   30.1580   43.0460 O   0  0  0  0  0  0  0  0  0  0  0  0
   55.9480   29.9450   45.0250 O   0  0  0  0  0  0  0  0  0  0  0  0
   58.4040   28.9570   45.1600 N   0  0  0  0  0  0  0  0  0  0  0  0
   58.6100   29.0660   46.6030 C   0  0  0  0  0  0  0  0  0  0  0  0
   59.9390   28.3890   46.8950 C   0  0  0  0  0  0  0  0  0  0  0  0
   60.6850   28.3760   45.5680 C   0  0  0  0  0  0  0  0  0  0  0  0
   59.7370   29.0220   44.5680 C   0  0  0  0  0  0  0  0  0  0  0  0
   59.0690   32.0270   45.7050 C   0  0  0  0  0  0  0  0  0  0  0  0
   63.2740   33.2690   48.1920 C   0  0  0  0  0  0  0  0  0  0  0  0
   64.4800   33.0780   48.8840 C   0  0  0  0  0  0  0  0  0  0  0  0
   64.5450   33.4620   50.2240 C   0  0  0  0  0  0  0  0  0  0  0  0
   67.4741   32.5676   53.0989 H   0  0  0  0  0  0  0  0  0  0  0  0
   68.6200   31.4750   52.2505 H   0  0  0  0  0  0  0  0  0  0  0  0
   68.9033   33.2488   52.2505 H   0  0  0  0  0  0  0  0  0  0  0  0
   65.3526   33.0653   53.1644 H   0  0  0  0  0  0  0  0  0  0  0  0
   65.9358   34.6817   52.7413 H   0  0  0  0  0  0  0  0  0  0  0  0
   63.1517   33.7940   52.9721 H   0  0  0  0  0  0  0  0  0  0  0  0
   63.6748   35.4037   52.5145 H   0  0  0  0  0  0  0  0  0  0  0  0
   61.4029   34.6652   50.7245 H   0  0  0  0  0  0  0  0  0  0  0  0
   61.5890   33.4460   46.1680 H   0  0  0  0  0  0  0  0  0  0  0  0
   58.9122   35.4120   46.1822 H   0  0  0  0  0  0  0  0  0  0  0  0
   56.7050   35.0595   45.0795 H   0  0  0  0  0  0  0  0  0  0  0  0
   56.0053   32.7720   44.3760 H   0  0  0  0  0  0  0  0  0  0  0  0
   58.6467   30.1234   46.9040 H   0  0  0  0  0  0  0  0  0  0  0  0
   57.7886   28.5934   47.1616 H   0  0  0  0  0  0  0  0  0  0  0  0
   60.5035   28.9578   47.6485 H   0  0  0  0  0  0  0  0  0  0  0  0
   59.8021   27.3746   47.2978 H   0  0  0  0  0  0  0  0  0  0  0  0
   61.6173   28.9548   45.6444 H   0  0  0  0  0  0  0  0  0  0  0  0
   60.9671   27.3565   45.2661 H   0  0  0  0  0  0  0  0  0  0  0  0
   60.0247   30.0692   44.3932 H   0  0  0  0  0  0  0  0  0  0  0  0
   59.7676   28.5037   43.5983 H   0  0  0  0  0  0  0  0  0  0  0  0
   59.7385   31.1710   45.8754 H   0  0  0  0  0  0  0  0  0  0  0  0
   63.2020   32.9782   47.1336 H   0  0  0  0  0  0  0  0  0  0  0  0
   65.3533   32.6361   48.3820 H   0  0  0  0  0  0  0  0  0  0  0  0
  1  2  1  0
  2  3  2  0
  2  4  2  0
  2  5  1  0
  5  6  1  0
  6  7  1  0
  7  8  1  0
  8  9  2  0
  9 10  1  0
 10 11  1  0
 11 12  2  0
 11 13  1  0
 13 14  1  0
 14 15  2  0
 15 16  1  0
 16 17  2  0
 17 18  1  0
 18 19  1  0
 19 20  2  0
 19 21  2  0
 19 22  1  0
 22 23  1  0
 23 24  1  0
 24 25  1  0
 25 26  1  0
 18 27  2  0
 10 28  2  0
 28 29  1  0
 29 30  2  0
 30  5  1  0
 30  8  1  0
 27 14  1  0
 26 22  1  0
  1 31  1  0
  1 32  1  0
  1 33  1  0
  6 34  1  0
  6 35  1  0
  7 36  1  0
  7 37  1  0
  9 38  1  0
 13 39  1  0
 15 40  1  0
 16 41  1  0
 17 42  1  0
 23 43  1  0
 23 44  1  0
 24 45  1  0
 24 46  1  0
 25 47  1  0
 25 48  1  0
 26 49  1  0
 26 50  1  0
 27 51  1  0
 28 52  1  0
 29 53  1  0
M  END
>  <UniqueID>  (62) 
57

>  <SMILES>  (62) 
CS(=O)(=O)N1CCc2cc(C(=O)Nc3cccc(S(=O)(=O)N4CCCC4)c3)ccc21

>  <Energy>  (62) 
72.89120668210249

>  <Genealogy>  (62) 
CS(=O)(=O)N1CCc2cc(C(=O)Nc3cccc(S(=O)(=O)N4CCCC4)c3)ccc21 (3D coordinates assigned)
CS(=O)(=O)N1CCc2cc(C(=O)Nc3cccc(S(=O)(=O)N4CCCC4)c3)ccc21 (nonaromatic ring conformer: 72.89120668210249 kcal/mol)

>  <smiles>  (62) 
CS(=O)(=O)N1CCc2cc(C(=O)Nc3cccc(S(=O)(=O)N4CCCC4)c3)ccc21

>  <score_type>  (62) 
oracle

>  <origin>  (62) 
adg

>  <m_score__min__energy>  (62) 
-9.9000000000000004

>  <m_primary>  (62) 
energy

$$$$
62:0
     RDKit          3D

 57 60  0  0  0  0  0  0  0  0999 V2000
   60.6820   28.3720   50.4510 O   0  0  0  0  0  0  0  0  0  0  0  0
   61.1130   29.2910   49.7040 C   0  0  0  0  0  0  0  0  0  0  0  0
   62.0440   30.2370   50.2420 N   0  0  0  0  0  0  0  0  0  0  0  0
   62.1110   31.6310   49.9080 C   0  0  0  0  0  0  0  0  0  0  0  0
   63.2530   32.4030   50.1830 C   0  0  0  0  0  0  0  0  0  0  0  0
   63.2720   33.7650   49.8740 C   0  0  0  0  0  0  0  0  0  0  0  0
   62.1500   34.3720   49.3030 C   0  0  0  0  0  0  0  0  0  0  0  0
   60.9970   33.6170   49.0400 C   0  0  0  0  0  0  0  0  0  0  0  0
   59.7670   34.2710   48.4640 C   0  0  0  0  0  0  0  0  0  0  0  0
   59.0380   33.3390   47.5760 N   0  0  0  0  0  0  0  0  0  0  0  0
   57.7600   33.9280   47.1070 C   0  0  0  0  0  0  0  0  0  0  0  0
   57.2820   33.2680   45.8080 C   0  0  0  0  0  0  0  0  0  0  0  0
   58.2400   33.5000   44.6980 N   0  0  0  0  0  0  0  0  0  0  0  0
   58.0990   32.4760   43.6410 C   0  0  0  0  0  0  0  0  0  0  0  0
   57.4080   31.2460   44.1720 C   0  0  0  0  0  0  0  0  0  0  0  0
   56.1680   30.8410   43.6510 C   0  0  0  0  0  0  0  0  0  0  0  0
   55.5470   29.6840   44.1320 C   0  0  0  0  0  0  0  0  0  0  0  0
   56.1600   28.9210   45.1300 C   0  0  0  0  0  0  0  0  0  0  0  0
   55.5430   27.7710   45.6050 O   0  0  0  0  0  0  0  0  0  0  0  0
   57.3980   29.3140   45.6470 C   0  0  0  0  0  0  0  0  0  0  0  0
   58.0220   30.4710   45.1690 C   0  0  0  0  0  0  0  0  0  0  0  0
   59.6480   33.6180   45.1570 C   0  0  0  0  0  0  0  0  0  0  0  0
   59.9020   32.8570   46.4680 C   0  0  0  0  0  0  0  0  0  0  0  0
   60.9800   32.2500   49.3600 C   0  0  0  0  0  0  0  0  0  0  0  0
   60.5930   29.4440   48.3740 N   0  0  0  0  0  0  0  0  0  0  0  0
   59.9470   28.3920   47.6370 C   0  0  0  0  0  0  0  0  0  0  0  0
   60.3970   28.0780   46.3450 C   0  0  0  0  0  0  0  0  0  0  0  0
   59.8000   27.0450   45.6170 C   0  0  0  0  0  0  0  0  0  0  0  0
   58.7570   26.3020   46.1800 C   0  0  0  0  0  0  0  0  0  0  0  0
   58.0110   25.0030   45.2680 Cl  0  0  0  0  0  0  0  0  0  0  0  0
   58.3160   26.5930   47.4750 C   0  0  0  0  0  0  0  0  0  0  0  0
   58.9110   27.6260   48.2040 C   0  0  0  0  0  0  0  0  0  0  0  0
   64.1347   31.9329   50.6431 H   0  0  0  0  0  0  0  0  0  0  0  0
   64.1727   34.3617   50.0807 H   0  0  0  0  0  0  0  0  0  0  0  0
   62.1709   35.4444   49.0592 H   0  0  0  0  0  0  0  0  0  0  0  0
   59.1038   34.5773   49.2864 H   0  0  0  0  0  0  0  0  0  0  0  0
   60.0786   35.1457   47.8743 H   0  0  0  0  0  0  0  0  0  0  0  0
   56.9941   33.7854   47.8836 H   0  0  0  0  0  0  0  0  0  0  0  0
   57.9236   34.9980   46.9113 H   0  0  0  0  0  0  0  0  0  0  0  0
   57.1808   32.1852   45.9730 H   0  0  0  0  0  0  0  0  0  0  0  0
   56.3152   33.7125   45.5293 H   0  0  0  0  0  0  0  0  0  0  0  0
   57.5068   32.8925   42.8129 H   0  0  0  0  0  0  0  0  0  0  0  0
   59.1024   32.1918   43.2911 H   0  0  0  0  0  0  0  0  0  0  0  0
   55.6840   31.4357   42.8623 H   0  0  0  0  0  0  0  0  0  0  0  0
   54.5738   29.3736   43.7240 H   0  0  0  0  0  0  0  0  0  0  0  0
   57.8820   28.7126   46.4307 H   0  0  0  0  0  0  0  0  0  0  0  0
   58.9977   30.7750   45.5758 H   0  0  0  0  0  0  0  0  0  0  0  0
   60.3090   33.2103   44.3780 H   0  0  0  0  0  0  0  0  0  0  0  0
   59.8526   34.6829   45.3420 H   0  0  0  0  0  0  0  0  0  0  0  0
   59.7006   31.7885   46.3015 H   0  0  0  0  0  0  0  0  0  0  0  0
   60.9490   33.0279   46.7589 H   0  0  0  0  0  0  0  0  0  0  0  0
   60.0699   31.6594   49.1787 H   0  0  0  0  0  0  0  0  0  0  0  0
   60.6110   30.4000   47.9530 H   0  0  0  0  0  0  0  0  0  0  0  0
   61.2260   28.6494   45.9020 H   0  0  0  0  0  0  0  0  0  0  0  0
   60.1508   26.8159   44.5999 H   0  0  0  0  0  0  0  0  0  0  0  0
   57.4986   26.0072   47.9208 H   0  0  0  0  0  0  0  0  0  0  0  0
   58.5679   27.8418   49.2266 H   0  0  0  0  0  0  0  0  0  0  0  0
  1  2  2  0
  2  3  1  0
  3  4  1  0
  4  5  2  0
  5  6  1  0
  6  7  2  0
  7  8  1  0
  8  9  1  0
  9 10  1  0
 10 11  1  0
 11 12  1  0
 12 13  1  0
 13 14  1  0
 14 15  1  0
 15 16  2  0
 16 17  1  0
 17 18  2  0
 18 19  1  0
 18 20  1  0
 20 21  2  0
 13 22  1  0
 22 23  1  0
  8 24  2  0
  2 25  1  0
 25 26  1  0
 26 27  2  0
 27 28  1  0
 28 29  2  0
 29 30  1  0
 29 31  1  0
 31 32  2  0
 24  4  1  0
 32 26  1  0
 23 10  1  0
 21 15  1  0
  5 33  1  0
  6 34  1  0
  7 35  1  0
  9 36  1  0
  9 37  1  0
 11 38  1  0
 11 39  1  0
 12 40  1  0
 12 41  1  0
 14 42  1  0
 14 43  1  0
 16 44  1  0
 17 45  1  0
 20 46  1  0
 21 47  1  0
 22 48  1  0
 22 49  1  0
 23 50  1  0
 23 51  1  0
 24 52  1  0
 25 53  1  0
 27 54  1  0
 28 55  1  0
 31 56  1  0
 32 57  1  0
M  CHG  2   3  -1  19  -1
M  END
>  <UniqueID>  (63) 
58

>  <SMILES>  (63) 
O=C([N-]c1cccc(CN2CCN(Cc3ccc([O-])cc3)CC2)c1)Nc1ccc(Cl)cc1

>  <Energy>  (63) 
80.36968224329186

>  <Genealogy>  (63) 
O=C([N-]c1cccc(CN2CCN(Cc3ccc([O-])cc3)CC2)c1)Nc1ccc(Cl)cc1 (protonated)
O=C([N-]c1cccc(CN2CCN(Cc3ccc([O-])cc3)CC2)c1)Nc1ccc(Cl)cc1 (3D coordinates assigned)
O=C([N-]c1cccc(CN2CCN(Cc3ccc([O-])cc3)CC2)c1)Nc1ccc(Cl)cc1 (nonaromatic ring conformer: 80.36968224329186 kcal/mol)

>  <smiles>  (63) 
O=C(Nc1ccc(Cl)cc1)Nc1cccc(CN2CCN(Cc3ccc(O)cc3)CC2)c1

>  <score_type>  (63) 
oracle

>  <origin>  (63) 
adg

>  <m_score__min__energy>  (63) 
-14.08

>  <m_primary>  (63) 
energy

$$$$
63:0
     RDKit          3D

 56 59  0  0  0  0  0  0  0  0999 V2000
   59.0533   30.4555   44.0797 H   0  0  0  0  0  0  0  0  0  0  0  0
   58.7650   29.4460   44.4080 C   0  0  0  0  0  0  0  0  0  0  0  0
   58.2563   28.7650   43.7098 H   0  0  0  0  0  0  0  0  0  0  0  0
   59.0340   29.0450   45.6610 C   0  0  0  0  0  0  0  0  0  0  0  0
   58.7250   27.7950   46.2080 C   0  0  0  0  0  0  0  0  0  0  0  0
   58.1010   26.7670   45.6000 C   0  0  0  0  0  0  0  0  0  0  0  0
   58.2011   26.6729   44.5086 H   0  0  0  0  0  0  0  0  0  0  0  0
   57.2920   25.7610   46.3120 C   0  0  0  0  0  0  0  0  0  0  0  0
   57.8030   24.6250   46.8190 N   0  0  0  0  0  0  0  0  0  0  0  0
   56.7180   23.9790   47.2970 C   0  0  0  0  0  0  0  0  0  0  0  0
   56.7940   22.8600   47.8680 O   0  0  0  0  0  0  0  0  0  0  0  0
   55.5460   24.6180   47.1020 N   0  0  0  0  0  0  0  0  0  0  0  0
   55.9230   25.7390   46.4670 C   0  0  0  0  0  0  0  0  0  0  0  0
   55.0310   26.6950   45.9960 O   0  0  0  0  0  0  0  0  0  0  0  0
   59.2620   27.7860   47.4870 C   0  0  0  0  0  0  0  0  0  0  0  0
   59.2220   26.9581   48.2102 H   0  0  0  0  0  0  0  0  0  0  0  0
   59.8560   29.0170   47.6760 C   0  0  0  0  0  0  0  0  0  0  0  0
   60.6550   29.3890   48.8870 C   0  0  0  0  0  0  0  0  0  0  0  0
   60.0904   29.1261   49.7937 H   0  0  0  0  0  0  0  0  0  0  0  0
   61.6098   28.8428   48.8783 H   0  0  0  0  0  0  0  0  0  0  0  0
   60.8516   30.4713   48.8783 H   0  0  0  0  0  0  0  0  0  0  0  0
   59.6900   29.8010   46.5830 N   0  0  0  0  0  0  0  0  0  0  0  0
   60.2210   31.1650   46.4190 C   0  0  0  0  0  0  0  0  0  0  0  0
   60.7988   31.4271   47.3176 H   0  0  0  0  0  0  0  0  0  0  0  0
   60.8467   31.1691   45.5143 H   0  0  0  0  0  0  0  0  0  0  0  0
   59.1320   32.2030   46.2240 C   0  0  0  0  0  0  0  0  0  0  0  0
   58.8480   32.6280   44.9110 C   0  0  0  0  0  0  0  0  0  0  0  0
   59.3794   32.1682   44.0647 H   0  0  0  0  0  0  0  0  0  0  0  0
   57.9010   33.6250   44.6700 C   0  0  0  0  0  0  0  0  0  0  0  0
   57.6828   33.9365   43.6378 H   0  0  0  0  0  0  0  0  0  0  0  0
   57.2320   34.2260   45.7330 C   0  0  0  0  0  0  0  0  0  0  0  0
   56.4853   35.0104   45.5402 H   0  0  0  0  0  0  0  0  0  0  0  0
   57.5090   33.8330   47.0430 C   0  0  0  0  0  0  0  0  0  0  0  0
   56.9806   34.3142   47.8792 H   0  0  0  0  0  0  0  0  0  0  0  0
   58.4550   32.8300   47.3040 C   0  0  0  0  0  0  0  0  0  0  0  0
   58.6890   32.4690   48.7150 C   0  0  0  0  0  0  0  0  0  0  0  0
   58.1990   31.3930   49.1500 O   0  0  0  0  0  0  0  0  0  0  0  0
   59.3540   33.3780   49.6160 N   0  0  0  0  0  0  0  0  0  0  0  0
   59.2560   33.1760   51.0650 C   0  0  0  0  0  0  0  0  0  0  0  0
   59.6788   34.0476   51.5861 H   0  0  0  0  0  0  0  0  0  0  0  0
   58.1998   33.0565   51.3479 H   0  0  0  0  0  0  0  0  0  0  0  0
   59.8159   32.2724   51.3479 H   0  0  0  0  0  0  0  0  0  0  0  0
   60.1590   34.4880   49.0860 C   0  0  0  0  0  0  0  0  0  0  0  0
   59.6179   34.9605   48.2530 H   0  0  0  0  0  0  0  0  0  0  0  0
   60.3306   35.2161   49.8925 H   0  0  0  0  0  0  0  0  0  0  0  0
   61.4920   33.9920   48.5910 C   0  0  0  0  0  0  0  0  0  0  0  0
   61.7530   33.9250   47.2120 C   0  0  0  0  0  0  0  0  0  0  0  0
   60.9812   34.2367   46.4928 H   0  0  0  0  0  0  0  0  0  0  0  0
   62.9890   33.4640   46.7500 C   0  0  0  0  0  0  0  0  0  0  0  0
   63.1885   33.4162   45.6693 H   0  0  0  0  0  0  0  0  0  0  0  0
   63.9710   33.0640   47.6590 C   0  0  0  0  0  0  0  0  0  0  0  0
   64.9444   32.7046   47.2937 H   0  0  0  0  0  0  0  0  0  0  0  0
   63.7180   33.1200   49.0320 C   0  0  0  0  0  0  0  0  0  0  0  0
   64.4915   32.8025   49.7467 H   0  0  0  0  0  0  0  0  0  0  0  0
   62.4830   33.5790   49.4980 C   0  0  0  0  0  0  0  0  0  0  0  0
   62.2857   33.6172   50.5795 H   0  0  0  0  0  0  0  0  0  0  0  0
  1  2  1  0
  2  3  1  0
  2  4  2  0
  4  5  1  0
  5  6  2  0
  6  7  1  0
  6  8  1  0
  8  9  1  0
  9 10  1  0
 10 11  2  0
 10 12  1  0
 12 13  1  0
 13 14  1  0
  5 15  1  0
 15 16  1  0
 15 17  2  0
 17 18  1  0
 18 19  1  0
 18 20  1  0
 18 21  1  0
 17 22  1  0
 22 23  1  0
 23 24  1  0
 23 25  1  0
 23 26  1  0
 26 27  2  0
 27 28  1  0
 27 29  1  0
 29 30  1  0
 29 31  2  0
 31 32  1  0
 31 33  1  0
 33 34  1  0
 33 35  2  0
 35 36  1  0
 36 37  2  0
 36 38  1  0
 38 39  1  0
 39 40  1  0
 39 41  1  0
 39 42  1  0
 38 43  1  0
 43 44  1  0
 43 45  1  0
 43 46  1  0
 46 47  2  0
 47 48  1  0
 47 49  1  0
 49 50  1  0
 49 51  2  0
 51 52  1  0
 51 53  1  0
 53 54  1  0
 53 55  2  0
 55 56  1  0
 22  4  1  0
 35 26  1  0
 55 46  1  0
 13  8  2  0
M  CHG  3   9  -1  12  -1  14  -1
M  END
>  <UniqueID>  (64) 
59

>  <SMILES>  (64) 
C=c1/c(=C/c2[n-]c(=O)[n-]c2[O-])cc(C)n1Cc1ccccc1C(=O)N(C)Cc1ccccc1

>  <Energy>  (64) 
127.09901445252198

>  <Genealogy>  (64) 
C=c1c(=Cc2[n-]c(=O)[n-]c2[O-])cc(C)n1Cc1ccccc1C(=O)N(C)Cc1ccccc1 (protonated)
C=c1/c(=C/c2[n-]c(=O)[n-]c2[O-])cc(C)n1Cc1ccccc1C(=O)N(C)Cc1ccccc1 (cis-trans isomerization)
C=c1/c(=C/c2[n-]c(=O)[n-]c2[O-])cc(C)n1Cc1ccccc1C(=O)N(C)Cc1ccccc1 (3D coordinates assigned)
C=c1/c(=C/c2[n-]c(=O)[n-]c2[O-])cc(C)n1Cc1ccccc1C(=O)N(C)Cc1ccccc1 (optimized conformer: 127.09901445252198 kcal/mol)

>  <smiles>  (64) 
C=c1c(=Cc2[nH]c(=O)[nH]c2O)cc(C)n1Cc1ccccc1C(=O)N(C)Cc1ccccc1

>  <score_type>  (64) 
oracle

>  <origin>  (64) 
adg

>  <m_score__min__energy>  (64) 
-18.010000000000002

>  <m_primary>  (64) 
energy

$$$$
64:0
     RDKit          3D

 48 50  0  0  0  0  0  0  0  0999 V2000
   50.9900   31.6250   50.2850 N   0  0  0  0  0  0  0  0  0  0  0  0
   51.2810   31.7240   51.9850 S   0  0  0  0  0  0  0  0  0  0  0  0
   50.2580   30.8930   52.7070 O   0  0  0  0  0  0  0  0  0  0  0  0
   51.1530   33.1520   52.4390 O   0  0  0  0  0  0  0  0  0  0  0  0
   52.9040   31.1380   52.3400 C   0  0  0  0  0  0  0  0  0  0  0  0
   53.9030   31.2320   51.3630 C   0  0  0  0  0  0  0  0  0  0  0  0
   55.1950   30.7690   51.6300 C   0  0  0  0  0  0  0  0  0  0  0  0
   55.5010   30.2020   52.8770 C   0  0  0  0  0  0  0  0  0  0  0  0
   56.8990   29.7300   53.1670 C   0  0  0  0  0  0  0  0  0  0  0  0
   57.6250   29.5080   51.9180 N   0  0  0  0  0  0  0  0  0  0  0  0
   58.8160   30.2370   51.5820 C   0  0  0  0  0  0  0  0  0  0  0  0
   59.3140   31.0420   52.4170 O   0  0  0  0  0  0  0  0  0  0  0  0
   59.4600   30.0560   50.2620 C   0  0  0  0  0  0  0  0  0  0  0  0
   60.2860   31.0520   49.7160 C   0  0  0  0  0  0  0  0  0  0  0  0
   60.8720   30.8470   48.4650 C   0  0  0  0  0  0  0  0  0  0  0  0
   61.6150   31.7330   47.9640 O   0  0  0  0  0  0  0  0  0  0  0  0
   60.6330   29.6600   47.7680 C   0  0  0  0  0  0  0  0  0  0  0  0
   59.8040   28.6820   48.3380 C   0  0  0  0  0  0  0  0  0  0  0  0
   59.5210   27.4140   47.6410 C   0  0  0  0  0  0  0  0  0  0  0  0
   60.1590   26.3740   47.9600 O   0  0  0  0  0  0  0  0  0  0  0  0
   58.5270   27.3570   46.6120 N   0  0  0  0  0  0  0  0  0  0  0  0
   57.1410   26.9620   46.8450 C   0  0  0  0  0  0  0  0  0  0  0  0
   56.8070   25.7280   46.0460 C   0  0  0  0  0  0  0  0  0  0  0  0
   57.8280   24.8150   45.7320 C   0  0  0  0  0  0  0  0  0  0  0  0
   57.5430   23.6570   45.0040 C   0  0  0  0  0  0  0  0  0  0  0  0
   56.2370   23.3980   44.5840 C   0  0  0  0  0  0  0  0  0  0  0  0
   55.2120   24.2960   44.8920 C   0  0  0  0  0  0  0  0  0  0  0  0
   55.4880   25.4590   45.6210 C   0  0  0  0  0  0  0  0  0  0  0  0
   54.4500   26.3360   45.9170 O   0  0  0  0  0  0  0  0  0  0  0  0
   59.2460   28.9100   49.5590 N   0  0  0  0  0  0  0  0  0  0  0  0
   54.4970   30.1110   53.8560 C   0  0  0  0  0  0  0  0  0  0  0  0
   53.2060   30.5750   53.5870 C   0  0  0  0  0  0  0  0  0  0  0  0
   50.2460   32.3210   50.0600 H   0  0  0  0  0  0  0  0  0  0  0  0
   53.6703   31.6717   50.3819 H   0  0  0  0  0  0  0  0  0  0  0  0
   55.9755   30.8495   50.8590 H   0  0  0  0  0  0  0  0  0  0  0  0
   57.4238   30.4919   53.7621 H   0  0  0  0  0  0  0  0  0  0  0  0
   56.8502   28.7846   53.7272 H   0  0  0  0  0  0  0  0  0  0  0  0
   57.2530   28.7890   51.2590 H   0  0  0  0  0  0  0  0  0  0  0  0
   60.4697   31.9851   50.2687 H   0  0  0  0  0  0  0  0  0  0  0  0
   61.0905   29.4937   46.7816 H   0  0  0  0  0  0  0  0  0  0  0  0
   56.9989   26.7508   47.9151 H   0  0  0  0  0  0  0  0  0  0  0  0
   56.4779   27.7816   46.5312 H   0  0  0  0  0  0  0  0  0  0  0  0
   58.8586   25.0133   46.0616 H   0  0  0  0  0  0  0  0  0  0  0  0
   58.3487   22.9485   44.7615 H   0  0  0  0  0  0  0  0  0  0  0  0
   56.0149   22.4862   44.0101 H   0  0  0  0  0  0  0  0  0  0  0  0
   54.1839   24.0884   44.5604 H   0  0  0  0  0  0  0  0  0  0  0  0
   54.7279   29.6728   54.8382 H   0  0  0  0  0  0  0  0  0  0  0  0
   52.4244   30.4978   54.3572 H   0  0  0  0  0  0  0  0  0  0  0  0
  1  2  1  0
  2  3  2  0
  2  4  2  0
  2  5  1  0
  5  6  2  0
  6  7  1  0
  7  8  2  0
  8  9  1  0
  9 10  1  0
 10 11  1  0
 11 12  2  0
 11 13  1  0
 13 14  2  0
 14 15  1  0
 15 16  2  0
 15 17  1  0
 17 18  2  0
 18 19  1  0
 19 20  2  0
 19 21  1  0
 21 22  1  0
 22 23  1  0
 23 24  2  0
 24 25  1  0
 25 26  2  0
 26 27  1  0
 27 28  2  0
 28 29  1  0
 18 30  1  0
  8 31  1  0
 31 32  2  0
 32  5  1  0
 30 13  1  0
 28 23  1  0
  1 33  1  0
  6 34  1  0
  7 35  1  0
  9 36  1  0
  9 37  1  0
 10 38  1  0
 14 39  1  0
 17 40  1  0
 22 41  1  0
 22 42  1  0
 24 43  1  0
 25 44  1  0
 26 45  1  0
 27 46  1  0
 31 47  1  0
 32 48  1  0
M  CHG  4   1  -1  21  -1  29  -1  30  -1
M  END
>  <UniqueID>  (65) 
60

>  <SMILES>  (65) 
[NH-]S(=O)(=O)c1ccc(CNC(=O)c2cc(=O)cc(C(=O)[N-]Cc3ccccc3[O-])[n-]2)cc1

>  <Energy>  (65) 
47.48273757205512

>  <Genealogy>  (65) 
[NH-]S(=O)(=O)c1ccc(CNC(=O)c2cc(=O)cc(C(=O)[N-]Cc3ccccc3[O-])[n-]2)cc1 (protonated)
[NH-]S(=O)(=O)c1ccc(CNC(=O)c2cc(=O)cc(C(=O)[N-]Cc3ccccc3[O-])[n-]2)cc1 (3D coordinates assigned)
[NH-]S(=O)(=O)c1ccc(CNC(=O)c2cc(=O)cc(C(=O)[N-]Cc3ccccc3[O-])[n-]2)cc1 (optimized conformer: 47.48273757205512 kcal/mol)

>  <smiles>  (65) 
NS(=O)(=O)c1ccc(CNC(=O)c2cc(=O)cc(C(=O)NCc3ccccc3O)[nH]2)cc1

>  <score_type>  (65) 
oracle

>  <origin>  (65) 
adg

>  <m_score__min__energy>  (65) 
-18.460000000000001

>  <m_primary>  (65) 
energy

$$$$
65:0
     RDKit          3D

 51 54  0  0  0  0  0  0  0  0999 V2000
   60.6350   34.1690   47.9840 C   0  0  0  0  0  0  0  0  0  0  0  0
   59.2620   34.6770   47.5590 C   0  0  0  0  0  0  0  0  0  0  0  0
   58.6540   33.7700   46.5230 C   0  0  0  0  0  0  0  0  0  0  0  0
   57.9270   34.3080   45.4520 C   0  0  0  0  0  0  0  0  0  0  0  0
   57.4000   33.4710   44.4680 C   0  0  0  0  0  0  0  0  0  0  0  0
   57.6000   32.0910   44.5400 C   0  0  0  0  0  0  0  0  0  0  0  0
   58.3270   31.5270   45.6040 C   0  0  0  0  0  0  0  0  0  0  0  0
   58.5430   30.0590   45.6540 C   0  0  0  0  0  0  0  0  0  0  0  0
   59.8290   29.4960   45.5680 C   0  0  0  0  0  0  0  0  0  0  0  0
   59.9890   28.1080   45.6220 C   0  0  0  0  0  0  0  0  0  0  0  0
   61.1470   27.6160   45.5410 O   0  0  0  0  0  0  0  0  0  0  0  0
   58.8610   27.2810   45.7670 C   0  0  0  0  0  0  0  0  0  0  0  0
   58.9660   25.8800   45.8240 C   0  0  0  0  0  0  0  0  0  0  0  0
   57.8190   25.0940   45.9730 C   0  0  0  0  0  0  0  0  0  0  0  0
   56.5540   25.6860   46.0680 C   0  0  0  0  0  0  0  0  0  0  0  0
   55.4370   24.8460   46.2130 O   0  0  0  0  0  0  0  0  0  0  0  0
   55.4000   23.6590   47.0070 C   0  0  0  0  0  0  0  0  0  0  0  0
   56.3600   22.6300   46.4720 C   0  0  0  0  0  0  0  0  0  0  0  0
   57.0280   21.9420   47.2910 O   0  0  0  0  0  0  0  0  0  0  0  0
   56.4940   22.3770   45.0600 N   0  0  0  0  0  0  0  0  0  0  0  0
   57.3630   21.3420   44.5300 C   0  0  0  0  0  0  0  0  0  0  0  0
   57.0460   21.2580   43.0430 C   0  0  0  0  0  0  0  0  0  0  0  0
   56.2950   22.5420   42.7000 C   0  0  0  0  0  0  0  0  0  0  0  0
   55.7610   23.0830   44.0210 C   0  0  0  0  0  0  0  0  0  0  0  0
   56.4450   27.0900   46.0150 C   0  0  0  0  0  0  0  0  0  0  0  0
   57.5880   27.8820   45.8630 C   0  0  0  0  0  0  0  0  0  0  0  0
   57.4680   29.2350   45.8060 N   0  0  0  0  0  0  0  0  0  0  0  0
   58.8650   32.3820   46.5860 C   0  0  0  0  0  0  0  0  0  0  0  0
   60.6941   34.1471   49.0822 H   0  0  0  0  0  0  0  0  0  0  0  0
   60.7892   33.1543   47.5882 H   0  0  0  0  0  0  0  0  0  0  0  0
   61.4125   34.8390   47.5882 H   0  0  0  0  0  0  0  0  0  0  0  0
   58.6025   34.7129   48.4387 H   0  0  0  0  0  0  0  0  0  0  0  0
   59.3763   35.6813   47.1251 H   0  0  0  0  0  0  0  0  0  0  0  0
   57.7713   35.3950   45.3871 H   0  0  0  0  0  0  0  0  0  0  0  0
   56.8255   33.8993   43.6334 H   0  0  0  0  0  0  0  0  0  0  0  0
   57.1852   31.4388   43.7574 H   0  0  0  0  0  0  0  0  0  0  0  0
   60.7086   30.1474   45.4583 H   0  0  0  0  0  0  0  0  0  0  0  0
   59.9534   25.4008   45.7512 H   0  0  0  0  0  0  0  0  0  0  0  0
   57.9118   23.9988   46.0160 H   0  0  0  0  0  0  0  0  0  0  0  0
   55.6776   23.9081   48.0418 H   0  0  0  0  0  0  0  0  0  0  0  0
   54.3820   23.2434   46.9741 H   0  0  0  0  0  0  0  0  0  0  0  0
   58.4183   21.6124   44.6823 H   0  0  0  0  0  0  0  0  0  0  0  0
   57.2003   20.3781   45.0345 H   0  0  0  0  0  0  0  0  0  0  0  0
   57.9747   21.1903   42.4574 H   0  0  0  0  0  0  0  0  0  0  0  0
   56.4469   20.3658   42.8084 H   0  0  0  0  0  0  0  0  0  0  0  0
   56.9761   23.2707   42.2361 H   0  0  0  0  0  0  0  0  0  0  0  0
   55.4816   22.3535   41.9839 H   0  0  0  0  0  0  0  0  0  0  0  0
   55.9409   24.1658   44.0929 H   0  0  0  0  0  0  0  0  0  0  0  0
   54.6757   22.9295   44.1138 H   0  0  0  0  0  0  0  0  0  0  0  0
   55.4562   27.5655   46.0935 H   0  0  0  0  0  0  0  0  0  0  0  0
   59.4567   31.9586   47.4110 H   0  0  0  0  0  0  0  0  0  0  0  0
  1  2  1  0
  2  3  1  0
  3  4  2  0
  4  5  1  0
  5  6  2  0
  6  7  1  0
  7  8  1  0
  8  9  2  0
  9 10  1  0
 10 11  2  0
 10 12  1  0
 12 13  2  0
 13 14  1  0
 14 15  2  0
 15 16  1  0
 16 17  1  0
 17 18  1  0
 18 19  2  0
 18 20  1  0
 20 21  1  0
 21 22  1  0
 22 23  1  0
 23 24  1  0
 15 25  1  0
 25 26  2  0
 26 27  1  0
  7 28  2  0
 28  3  1  0
 27  8  1  0
 26 12  1  0
 24 20  1  0
  1 29  1  0
  1 30  1  0
  1 31  1  0
  2 32  1  0
  2 33  1  0
  4 34  1  0
  5 35  1  0
  6 36  1  0
  9 37  1  0
 13 38  1  0
 14 39  1  0
 17 40  1  0
 17 41  1  0
 21 42  1  0
 21 43  1  0
 22 44  1  0
 22 45  1  0
 23 46  1  0
 23 47  1  0
 24 48  1  0
 24 49  1  0
 25 50  1  0
 28 51  1  0
M  CHG  1  27  -1
M  END
>  <UniqueID>  (66) 
61

>  <SMILES>  (66) 
CCc1cccc(-c2cc(=O)c3ccc(OCC(=O)N4CCCC4)cc3[n-]2)c1

>  <Energy>  (66) 
57.51200300470739

>  <Genealogy>  (66) 
CCc1cccc(-c2cc(=O)c3ccc(OCC(=O)N4CCCC4)cc3[n-]2)c1 (protonated)
CCc1cccc(-c2cc(=O)c3ccc(OCC(=O)N4CCCC4)cc3[n-]2)c1 (3D coordinates assigned)
CCc1cccc(-c2cc(=O)c3ccc(OCC(=O)N4CCCC4)cc3[n-]2)c1 (nonaromatic ring conformer: 57.51200300470739 kcal/mol)

>  <smiles>  (66) 
CCc1cccc(-c2cc(=O)c3ccc(OCC(=O)N4CCCC4)cc3[nH]2)c1

>  <score_type>  (66) 
oracle

>  <origin>  (66) 
adg

>  <m_score__min__energy>  (66) 
-10.44

>  <m_primary>  (66) 
energy

$$$$
66:0
     RDKit          3D

 49 52  0  0  0  0  0  0  0  0999 V2000
   55.1430   27.4720   45.4190 H   0  0  0  0  0  0  0  0  0  0  0  0
   55.1450   26.6580   46.0210 O   0  0  0  0  0  0  0  0  0  0  0  0
   55.1100   25.3520   45.5290 C   0  0  0  0  0  0  0  0  0  0  0  0
   53.9690   24.6310   45.6830 N   0  0  0  0  0  0  0  0  0  0  0  0
   53.8730   23.3550   45.2300 C   0  0  0  0  0  0  0  0  0  0  0  0
   52.8040   22.7110   45.3920 O   0  0  0  0  0  0  0  0  0  0  0  0
   54.9250   22.7770   44.6000 N   0  0  0  0  0  0  0  0  0  0  0  0
   56.0890   23.4500   44.4160 C   0  0  0  0  0  0  0  0  0  0  0  0
   57.0340   22.8880   43.8000 O   0  0  0  0  0  0  0  0  0  0  0  0
   56.2230   24.7670   44.8950 C   0  0  0  0  0  0  0  0  0  0  0  0
   57.4660   25.5390   44.6770 C   0  0  0  0  0  0  0  0  0  0  0  0
   58.2486   25.1001   44.0407 H   0  0  0  0  0  0  0  0  0  0  0  0
   57.6870   26.7490   45.2170 C   0  0  0  0  0  0  0  0  0  0  0  0
   58.2580   26.9870   46.4640 C   0  0  0  0  0  0  0  0  0  0  0  0
   58.7190   25.9560   47.4540 C   0  0  0  0  0  0  0  0  0  0  0  0
   58.5525   26.3284   48.4756 H   0  0  0  0  0  0  0  0  0  0  0  0
   58.1512   25.0256   47.3058 H   0  0  0  0  0  0  0  0  0  0  0  0
   59.7910   25.7589   47.3058 H   0  0  0  0  0  0  0  0  0  0  0  0
   58.2970   28.3660   46.6210 C   0  0  0  0  0  0  0  0  0  0  0  0
   58.7790   29.1010   47.8080 C   0  0  0  0  0  0  0  0  0  0  0  0
   58.3870   28.7410   48.9510 O   0  0  0  0  0  0  0  0  0  0  0  0
   59.6900   30.2090   47.6770 N   0  0  0  0  0  0  0  0  0  0  0  0
   60.7050   30.1950   46.6160 C   0  0  0  0  0  0  0  0  0  0  0  0
   61.1809   29.2037   46.5869 H   0  0  0  0  0  0  0  0  0  0  0  0
   60.2122   30.4149   45.6575 H   0  0  0  0  0  0  0  0  0  0  0  0
   61.7780   31.2580   46.8670 C   0  0  0  0  0  0  0  0  0  0  0  0
   62.3702   30.9739   47.7494 H   0  0  0  0  0  0  0  0  0  0  0  0
   62.4272   31.3255   45.9816 H   0  0  0  0  0  0  0  0  0  0  0  0
   61.1530   32.5750   47.1040 N   0  0  0  0  0  0  0  0  0  0  0  0
   62.0510   33.7530   47.2080 C   0  0  0  0  0  0  0  0  0  0  0  0
   61.2196   34.4581   47.3552 H   0  0  0  0  0  0  0  0  0  0  0  0
   63.4060   33.4610   47.8470 C   0  0  0  0  0  0  0  0  0  0  0  0
   63.8435   34.1777   48.5576 H   0  0  0  0  0  0  0  0  0  0  0  0
   63.8254   32.6264   48.4279 H   0  0  0  0  0  0  0  0  0  0  0  0
   63.3330   33.8070   46.3700 C   0  0  0  0  0  0  0  0  0  0  0  0
   63.7158   34.7742   46.0122 H   0  0  0  0  0  0  0  0  0  0  0  0
   63.6757   33.3276   45.4411 H   0  0  0  0  0  0  0  0  0  0  0  0
   60.0670   32.6010   48.1170 C   0  0  0  0  0  0  0  0  0  0  0  0
   60.3642   33.2833   48.9271 H   0  0  0  0  0  0  0  0  0  0  0  0
   59.1544   32.9339   47.6010 H   0  0  0  0  0  0  0  0  0  0  0  0
   59.7600   31.2270   48.7290 C   0  0  0  0  0  0  0  0  0  0  0  0
   60.5553   30.9602   49.4406 H   0  0  0  0  0  0  0  0  0  0  0  0
   58.7916   31.2736   49.2486 H   0  0  0  0  0  0  0  0  0  0  0  0
   57.7550   28.9060   45.4610 C   0  0  0  0  0  0  0  0  0  0  0  0
   57.5530   30.2010   45.2080 C   0  0  0  0  0  0  0  0  0  0  0  0
   57.8662   30.9598   45.9402 H   0  0  0  0  0  0  0  0  0  0  0  0
   57.0733   30.5093   44.2674 H   0  0  0  0  0  0  0  0  0  0  0  0
   57.3970   27.9230   44.6100 N   0  0  0  0  0  0  0  0  0  0  0  0
   56.9760   28.0580   43.6630 H   0  0  0  0  0  0  0  0  0  0  0  0
  1  2  1  0
  2  3  1  0
  3  4  1  0
  4  5  1  0
  5  6  2  0
  5  7  1  0
  7  8  1  0
  8  9  2  0
  8 10  1  0
 10 11  1  0
 11 12  1  0
 11 13  2  0
 13 14  1  0
 14 15  1  0
 15 16  1  0
 15 17  1  0
 15 18  1  0
 14 19  2  0
 19 20  1  0
 20 21  2  0
 20 22  1  0
 22 23  1  0
 23 24  1  0
 23 25  1  0
 23 26  1  0
 26 27  1  0
 26 28  1  0
 26 29  1  0
 29 30  1  0
 30 31  1  0
 30 32  1  0
 32 33  1  0
 32 34  1  0
 32 35  1  0
 35 36  1  0
 35 37  1  0
 29 38  1  0
 38 39  1  0
 38 40  1  0
 38 41  1  0
 41 42  1  0
 41 43  1  0
 19 44  1  0
 44 45  2  0
 45 46  1  0
 45 47  1  0
 44 48  1  0
 48 49  1  0
 10  3  2  0
 48 13  1  0
 41 22  1  0
 35 30  1  0
M  CHG  2   4  -1   7  -1
M  END
>  <UniqueID>  (67) 
62

>  <SMILES>  (67) 
C=c1[nH]/c(=C\c2c(O)[n-]c(=O)[n-]c2=O)c(C)c1C(=O)N1CCN(C2CC2)CC1

>  <Energy>  (67) 
372.9138498958829

>  <Genealogy>  (67) 
C=c1[nH]c(=Cc2c(O)[n-]c(=O)[n-]c2=O)c(C)c1C(=O)N1CCN(C2CC2)CC1 (protonated)
C=c1[nH]/c(=C\c2c(O)[n-]c(=O)[n-]c2=O)c(C)c1C(=O)N1CCN(C2CC2)CC1 (cis-trans isomerization)
C=c1[nH]/c(=C\c2c(O)[n-]c(=O)[n-]c2=O)c(C)c1C(=O)N1CCN(C2CC2)CC1 (3D coordinates assigned)
C=c1[nH]/c(=C\c2c(O)[n-]c(=O)[n-]c2=O)c(C)c1C(=O)N1CCN(C2CC2)CC1 (nonaromatic ring conformer: 372.9138498958829 kcal/mol)

>  <smiles>  (67) 
C=c1[nH]c(=Cc2c(O)[nH]c(=O)[nH]c2=O)c(C)c1C(=O)N1CCN(C2CC2)CC1

>  <score_type>  (67) 
oracle

>  <origin>  (67) 
adg

>  <m_score__min__energy>  (67) 
-13.279999999999999

>  <m_primary>  (67) 
energy

$$$$
67:0
     RDKit          3D

 61 64  0  0  0  0  0  0  0  0999 V2000
   66.8290   30.8100   50.8490 C   0  0  0  0  0  0  0  0  0  0  0  0
   65.9450   31.7950   51.5030 N   0  0  0  0  0  0  0  0  0  0  0  0
   64.5560   31.2960   51.6080 C   0  0  0  0  0  0  0  0  0  0  0  0
   63.8440   31.2120   50.2370 C   0  0  0  0  0  0  0  0  0  0  0  0
   64.4960   32.0590   49.2200 N   0  0  0  0  0  0  0  0  0  0  0  0
   63.4300   32.3030   47.8580 S   0  0  0  0  0  0  0  0  0  0  0  0
   64.1430   33.1070   46.8060 O   0  0  0  0  0  0  0  0  0  0  0  0
   63.0750   30.9690   47.2630 O   0  0  0  0  0  0  0  0  0  0  0  0
   61.9530   33.1470   48.3300 C   0  0  0  0  0  0  0  0  0  0  0  0
   61.5080   33.1000   49.6580 C   0  0  0  0  0  0  0  0  0  0  0  0
   60.3270   33.7500   50.0260 C   0  0  0  0  0  0  0  0  0  0  0  0
   59.5950   34.4680   49.0750 C   0  0  0  0  0  0  0  0  0  0  0  0
   60.0470   34.5510   47.7540 C   0  0  0  0  0  0  0  0  0  0  0  0
   59.2860   35.3110   46.8020 N   0  0  0  0  0  0  0  0  0  0  0  0
   59.0180   34.9190   45.4480 C   0  0  0  0  0  0  0  0  0  0  0  0
   59.2410   35.7430   44.5230 O   0  0  0  0  0  0  0  0  0  0  0  0
   58.5240   33.5640   45.1140 C   0  0  0  0  0  0  0  0  0  0  0  0
   58.3070   32.6120   46.1250 C   0  0  0  0  0  0  0  0  0  0  0  0
   57.7890   31.3540   45.8110 C   0  0  0  0  0  0  0  0  0  0  0  0
   57.4920   31.0250   44.4830 C   0  0  0  0  0  0  0  0  0  0  0  0
   56.7590   29.4710   44.1020 S   0  0  0  0  0  0  0  0  0  0  0  0
   56.4730   29.3960   42.6260 O   0  0  0  0  0  0  0  0  0  0  0  0
   55.4610   29.3340   44.8490 O   0  0  0  0  0  0  0  0  0  0  0  0
   57.8460   28.1930   44.5840 N   0  0  0  0  0  0  0  0  0  0  0  0
   57.6280   27.8100   45.9780 C   0  0  0  0  0  0  0  0  0  0  0  0
   58.9370   27.2130   46.4620 C   0  0  0  0  0  0  0  0  0  0  0  0
   60.0030   27.8110   45.5560 C   0  0  0  0  0  0  0  0  0  0  0  0
   59.2430   28.6220   44.5140 C   0  0  0  0  0  0  0  0  0  0  0  0
   57.7280   31.9620   43.4680 C   0  0  0  0  0  0  0  0  0  0  0  0
   58.2520   33.2200   43.7800 C   0  0  0  0  0  0  0  0  0  0  0  0
   61.2160   33.8660   47.3790 C   0  0  0  0  0  0  0  0  0  0  0  0
   64.9040   33.3460   49.7940 C   0  0  0  0  0  0  0  0  0  0  0  0
   66.0120   33.1260   50.8440 C   0  0  0  0  0  0  0  0  0  0  0  0
   67.3554   30.2234   51.6163 H   0  0  0  0  0  0  0  0  0  0  0  0
   66.2267   30.1364   50.2217 H   0  0  0  0  0  0  0  0  0  0  0  0
   67.5636   31.3362   50.2217 H   0  0  0  0  0  0  0  0  0  0  0  0
   66.3040   31.9090   52.4800 H   0  0  0  0  0  0  0  0  0  0  0  0
   64.5763   30.2914   52.0556 H   0  0  0  0  0  0  0  0  0  0  0  0
   63.9942   32.0085   52.2299 H   0  0  0  0  0  0  0  0  0  0  0  0
   63.8605   30.1676   49.8922 H   0  0  0  0  0  0  0  0  0  0  0  0
   62.8132   31.5729   50.3680 H   0  0  0  0  0  0  0  0  0  0  0  0
   62.0897   32.5501   50.4125 H   0  0  0  0  0  0  0  0  0  0  0  0
   59.9724   33.6968   51.0659 H   0  0  0  0  0  0  0  0  0  0  0  0
   58.6604   34.9693   49.3669 H   0  0  0  0  0  0  0  0  0  0  0  0
   58.5467   32.8595   47.1697 H   0  0  0  0  0  0  0  0  0  0  0  0
   57.6136   30.6186   46.6100 H   0  0  0  0  0  0  0  0  0  0  0  0
   57.3658   28.6928   46.5796 H   0  0  0  0  0  0  0  0  0  0  0  0
   56.8004   27.0915   46.0719 H   0  0  0  0  0  0  0  0  0  0  0  0
   59.1227   27.4880   47.5108 H   0  0  0  0  0  0  0  0  0  0  0  0
   58.9295   26.1138   46.4205 H   0  0  0  0  0  0  0  0  0  0  0  0
   60.6771   28.4614   46.1327 H   0  0  0  0  0  0  0  0  0  0  0  0
   60.6275   27.0334   45.0921 H   0  0  0  0  0  0  0  0  0  0  0  0
   59.3214   29.6960   44.7385 H   0  0  0  0  0  0  0  0  0  0  0  0
   59.6567   28.4598   43.5077 H   0  0  0  0  0  0  0  0  0  0  0  0
   57.5002   31.7069   42.4225 H   0  0  0  0  0  0  0  0  0  0  0  0
   58.4522   33.9440   42.9764 H   0  0  0  0  0  0  0  0  0  0  0  0
   61.5544   33.8945   46.3327 H   0  0  0  0  0  0  0  0  0  0  0  0
   65.2844   33.9979   48.9938 H   0  0  0  0  0  0  0  0  0  0  0  0
   64.0359   33.8178   50.2776 H   0  0  0  0  0  0  0  0  0  0  0  0
   66.9882   33.2196   50.3457 H   0  0  0  0  0  0  0  0  0  0  0  0
   65.8712   33.8842   51.6284 H   0  0  0  0  0  0  0  0  0  0  0  0
  1  2  1  0
  2  3  1  0
  3  4  1  0
  4  5  1  0
  5  6  1  0
  6  7  2  0
  6  8  2  0
  6  9  1  0
  9 10  2  0
 10 11  1  0
 11 12  2  0
 12 13  1  0
 13 14  1  0
 14 15  1  0
 15 16  2  0
 15 17  1  0
 17 18  2  0
 18 19  1  0
 19 20  2  0
 20 21  1  0
 21 22  2  0
 21 23  2  0
 21 24  1  0
 24 25  1  0
 25 26  1  0
 26 27  1  0
 27 28  1  0
 20 29  1  0
 29 30  2  0
 13 31  2  0
  5 32  1  0
 32 33  1  0
 33  2  1  0
 31  9  1  0
 30 17  1  0
 28 24  1  0
  1 34  1  0
  1 35  1  0
  1 36  1  0
  2 37  1  0
  3 38  1  0
  3 39  1  0
  4 40  1  0
  4 41  1  0
 10 42  1  0
 11 43  1  0
 12 44  1  0
 18 45  1  0
 19 46  1  0
 25 47  1  0
 25 48  1  0
 26 49  1  0
 26 50  1  0
 27 51  1  0
 27 52  1  0
 28 53  1  0
 28 54  1  0
 29 55  1  0
 30 56  1  0
 31 57  1  0
 32 58  1  0
 32 59  1  0
 33 60  1  0
 33 61  1  0
M  CHG  2   2   1  14  -1
M  END
>  <UniqueID>  (68) 
63

>  <SMILES>  (68) 
C[NH+]1CCN(S(=O)(=O)c2cccc([N-]C(=O)c3ccc(S(=O)(=O)N4CCCC4)cc3)c2)CC1

>  <Energy>  (68) 
76.9810573542897

>  <Genealogy>  (68) 
C[NH+]1CCN(S(=O)(=O)c2cccc([N-]C(=O)c3ccc(S(=O)(=O)N4CCCC4)cc3)c2)CC1 (protonated)
C[NH+]1CCN(S(=O)(=O)c2cccc([N-]C(=O)c3ccc(S(=O)(=O)N4CCCC4)cc3)c2)CC1 (3D coordinates assigned)
C[NH+]1CCN(S(=O)(=O)c2cccc([N-]C(=O)c3ccc(S(=O)(=O)N4CCCC4)cc3)c2)CC1 (nonaromatic ring conformer: 76.9810573542897 kcal/mol)

>  <smiles>  (68) 
CN1CCN(S(=O)(=O)c2cccc(NC(=O)c3ccc(S(=O)(=O)N4CCCC4)cc3)c2)CC1

>  <score_type>  (68) 
oracle

>  <origin>  (68) 
adg

>  <m_score__min__energy>  (68) 
-11.23

>  <m_primary>  (68) 
energy

$$$$
68:0
     RDKit          3D

 51 53  0  0  0  0  0  0  0  0999 V2000
   54.0150   28.7250   54.2550 C   0  0  0  0  0  0  0  0  0  0  0  0
   54.4380   29.7800   53.5370 C   0  0  0  0  0  0  0  0  0  0  0  0
   53.7140   30.4470   52.5360 C   0  0  0  0  0  0  0  0  0  0  0  0
   52.4090   30.3980   52.2030 C   0  0  0  0  0  0  0  0  0  0  0  0
   51.8340   30.8440   50.9230 C   0  0  0  0  0  0  0  0  0  0  0  0
   51.7230   30.0770   49.8220 N   0  0  0  0  0  0  0  0  0  0  0  0
   51.0220   30.8570   48.9700 C   0  0  0  0  0  0  0  0  0  0  0  0
   50.7240   30.4880   47.8040 O   0  0  0  0  0  0  0  0  0  0  0  0
   50.6570   32.0580   49.4690 N   0  0  0  0  0  0  0  0  0  0  0  0
   51.1670   32.0250   50.7100 C   0  0  0  0  0  0  0  0  0  0  0  0
   51.0220   33.0540   51.6330 O   0  0  0  0  0  0  0  0  0  0  0  0
   54.6230   31.2480   51.8720 C   0  0  0  0  0  0  0  0  0  0  0  0
   55.8270   31.1230   52.5310 C   0  0  0  0  0  0  0  0  0  0  0  0
   57.0680   31.7870   52.0740 C   0  0  0  0  0  0  0  0  0  0  0  0
   57.0650   33.0490   52.0410 O   0  0  0  0  0  0  0  0  0  0  0  0
   58.2410   31.0490   51.6170 N   0  0  0  0  0  0  0  0  0  0  0  0
   59.5270   31.6090   52.0970 C   0  0  0  0  0  0  0  0  0  0  0  0
   59.8450   32.9740   51.4660 C   0  0  0  0  0  0  0  0  0  0  0  0
   59.7180   32.9210   50.0020 N   0  0  0  0  0  0  0  0  0  0  0  0
   60.5160   33.8180   49.1940 C   0  0  0  0  0  0  0  0  0  0  0  0
   60.1810   34.1030   47.7590 C   0  0  0  0  0  0  0  0  0  0  0  0
   61.5370   34.3700   49.6870 O   0  0  0  0  0  0  0  0  0  0  0  0
   58.5330   32.2560   49.4420 C   0  0  0  0  0  0  0  0  0  0  0  0
   58.2830   30.9130   50.1420 C   0  0  0  0  0  0  0  0  0  0  0  0
   55.7210   30.2370   53.5520 N   0  0  0  0  0  0  0  0  0  0  0  0
   56.8370   29.7120   54.3560 C   0  0  0  0  0  0  0  0  0  0  0  0
   57.3480   28.3960   53.7660 C   0  0  0  0  0  0  0  0  0  0  0  0
   58.8700   28.3950   53.6530 C   0  0  0  0  0  0  0  0  0  0  0  0
   54.6709   28.2803   55.0179 H   0  0  0  0  0  0  0  0  0  0  0  0
   53.0130   28.3065   54.0795 H   0  0  0  0  0  0  0  0  0  0  0  0
   51.7139   29.9899   52.9515 H   0  0  0  0  0  0  0  0  0  0  0  0
   54.4236   31.8679   50.9855 H   0  0  0  0  0  0  0  0  0  0  0  0
   58.1560   30.0780   51.9960 H   0  0  0  0  0  0  0  0  0  0  0  0
   59.4742   31.7287   53.1892 H   0  0  0  0  0  0  0  0  0  0  0  0
   60.3257   30.9111   51.8055 H   0  0  0  0  0  0  0  0  0  0  0  0
   59.1445   33.7246   51.8608 H   0  0  0  0  0  0  0  0  0  0  0  0
   60.8813   33.2433   51.7180 H   0  0  0  0  0  0  0  0  0  0  0  0
   59.3439   34.8151   47.7123 H   0  0  0  0  0  0  0  0  0  0  0  0
   61.0588   34.5354   47.2565 H   0  0  0  0  0  0  0  0  0  0  0  0
   59.8948   33.1673   47.2565 H   0  0  0  0  0  0  0  0  0  0  0  0
   57.6555   32.9045   49.5811 H   0  0  0  0  0  0  0  0  0  0  0  0
   58.7045   32.0703   48.3714 H   0  0  0  0  0  0  0  0  0  0  0  0
   57.3208   30.5072   49.7963 H   0  0  0  0  0  0  0  0  0  0  0  0
   59.1158   30.2404   49.8888 H   0  0  0  0  0  0  0  0  0  0  0  0
   57.6551   30.4473   54.3639 H   0  0  0  0  0  0  0  0  0  0  0  0
   56.4825   29.5291   55.3811 H   0  0  0  0  0  0  0  0  0  0  0  0
   57.0362   27.5660   54.4171 H   0  0  0  0  0  0  0  0  0  0  0  0
   56.9241   28.2789   52.7577 H   0  0  0  0  0  0  0  0  0  0  0  0
   59.3124   28.3947   54.6601 H   0  0  0  0  0  0  0  0  0  0  0  0
   59.1967   27.4966   53.1087 H   0  0  0  0  0  0  0  0  0  0  0  0
   59.1979   29.2929   53.1087 H   0  0  0  0  0  0  0  0  0  0  0  0
  1  2  2  0
  2  3  1  0
  3  4  2  3
  4  5  1  0
  5  6  1  0
  6  7  1  0
  7  8  2  0
  7  9  1  0
  9 10  1  0
 10 11  1  0
  3 12  1  0
 12 13  2  0
 13 14  1  0
 14 15  2  0
 14 16  1  0
 16 17  1  0
 17 18  1  0
 18 19  1  0
 19 20  1  0
 20 21  1  0
 20 22  2  0
 19 23  1  0
 23 24  1  0
 13 25  1  0
 25 26  1  0
 26 27  1  0
 27 28  1  0
 25  2  1  0
 10  5  2  0
 24 16  1  0
  1 29  1  0
  1 30  1  0
  4 31  1  0
 12 32  1  0
 16 33  1  0
 17 34  1  0
 17 35  1  0
 18 36  1  0
 18 37  1  0
 21 38  1  0
 21 39  1  0
 21 40  1  0
 23 41  1  0
 23 42  1  0
 24 43  1  0
 24 44  1  0
 26 45  1  0
 26 46  1  0
 27 47  1  0
 27 48  1  0
 28 49  1  0
 28 50  1  0
 28 51  1  0
M  CHG  4   6  -1   9  -1  11  -1  16   1
M  END
>  <UniqueID>  (69) 
64

>  <SMILES>  (69) 
C=c1c(=Cc2[n-]c(=O)[n-]c2[O-])cc(C(=O)[NH+]2CCN(C(C)=O)CC2)n1CCC

>  <Energy>  (69) 
128.81472799022222

>  <Genealogy>  (69) 
C=c1c(=Cc2[n-]c(=O)[n-]c2[O-])cc(C(=O)[NH+]2CCN(C(C)=O)CC2)n1CCC (protonated)
C=c1c(=Cc2[n-]c(=O)[n-]c2[O-])cc(C(=O)[NH+]2CCN(C(C)=O)CC2)n1CCC (3D coordinates assigned)
C=c1c(=Cc2[n-]c(=O)[n-]c2[O-])cc(C(=O)[NH+]2CCN(C(C)=O)CC2)n1CCC (nonaromatic ring conformer: 128.81472799022222 kcal/mol)

>  <smiles>  (69) 
C=c1c(=Cc2[nH]c(=O)[nH]c2O)cc(C(=O)N2CCN(C(C)=O)CC2)n1CCC

>  <score_type>  (69) 
oracle

>  <origin>  (69) 
adg

>  <m_score__min__energy>  (69) 
-15.24

>  <m_primary>  (69) 
energy

$$$$
69:0
     RDKit          3D

 34 36  0  0  0  0  0  0  0  0999 V2000
   61.3031   27.0823   45.7238 H   0  0  0  0  0  0  0  0  0  0  0  0
   60.2410   26.8710   45.9170 C   0  0  0  0  0  0  0  0  0  0  0  0
   59.3050   27.8240   45.6790 N   0  0  0  0  0  0  0  0  0  0  0  0
   57.9750   27.6310   45.8950 C   0  0  0  0  0  0  0  0  0  0  0  0
   57.1900   28.6550   45.6810 N   0  0  0  0  0  0  0  0  0  0  0  0
   57.5150   30.0360   45.4850 C   0  0  0  0  0  0  0  0  0  0  0  0
   57.1070   30.7130   44.3270 C   0  0  0  0  0  0  0  0  0  0  0  0
   56.5548   30.1740   43.5431 H   0  0  0  0  0  0  0  0  0  0  0  0
   57.3990   32.0690   44.1650 C   0  0  0  0  0  0  0  0  0  0  0  0
   57.0978   32.5882   43.2432 H   0  0  0  0  0  0  0  0  0  0  0  0
   58.0740   32.7700   45.1720 C   0  0  0  0  0  0  0  0  0  0  0  0
   58.4250   34.4760   44.9340 Cl  0  0  0  0  0  0  0  0  0  0  0  0
   58.4430   32.1070   46.3550 C   0  0  0  0  0  0  0  0  0  0  0  0
   59.2700   32.9550   47.6550 Cl  0  0  0  0  0  0  0  0  0  0  0  0
   58.1490   30.7470   46.5130 C   0  0  0  0  0  0  0  0  0  0  0  0
   58.4170   30.2342   47.4485 H   0  0  0  0  0  0  0  0  0  0  0  0
   57.5340   26.3440   46.3420 C   0  0  0  0  0  0  0  0  0  0  0  0
   56.1170   25.9150   46.3920 C   0  0  0  0  0  0  0  0  0  0  0  0
   55.2310   26.7120   45.9860 O   0  0  0  0  0  0  0  0  0  0  0  0
   55.7220   24.5650   46.6960 N   0  0  0  0  0  0  0  0  0  0  0  0
   54.7160   23.8540   46.2590 C   0  0  0  0  0  0  0  0  0  0  0  0
   54.3760   22.5840   46.7700 C   0  0  0  0  0  0  0  0  0  0  0  0
   54.9755   22.1335   47.5748 H   0  0  0  0  0  0  0  0  0  0  0  0
   53.2740   21.9010   46.2490 C   0  0  0  0  0  0  0  0  0  0  0  0
   53.0109   20.9067   46.6390 H   0  0  0  0  0  0  0  0  0  0  0  0
   52.5260   22.4610   45.2620 N   0  0  0  0  0  0  0  0  0  0  0  0
   52.8210   23.6870   44.7580 C   0  0  0  0  0  0  0  0  0  0  0  0
   52.1981   24.1163   43.9594 H   0  0  0  0  0  0  0  0  0  0  0  0
   53.9130   24.4040   45.2510 C   0  0  0  0  0  0  0  0  0  0  0  0
   54.1430   25.4013   44.8478 H   0  0  0  0  0  0  0  0  0  0  0  0
   58.5070   25.3630   46.6060 C   0  0  0  0  0  0  0  0  0  0  0  0
   58.1962   24.3747   46.9758 H   0  0  0  0  0  0  0  0  0  0  0  0
   59.8570   25.6280   46.4050 C   0  0  0  0  0  0  0  0  0  0  0  0
   60.6132   24.8615   46.6300 H   0  0  0  0  0  0  0  0  0  0  0  0
  1  2  1  0
  2  3  1  0
  3  4  1  0
  4  5  2  0
  5  6  1  0
  6  7  2  0
  7  8  1  0
  7  9  1  0
  9 10  1  0
  9 11  2  0
 11 12  1  0
 11 13  1  0
 13 14  1  0
 13 15  2  0
 15 16  1  0
  4 17  1  0
 17 18  1  0
 18 19  2  0
 18 20  1  0
 20 21  2  3
 21 22  1  0
 22 23  1  0
 22 24  2  0
 24 25  1  0
 24 26  1  0
 26 27  1  0
 27 28  1  0
 27 29  2  0
 29 30  1  0
 17 31  2  0
 31 32  1  0
 31 33  1  0
 33 34  1  0
 33  2  2  0
 15  6  1  0
 29 21  1  0
M  CHG  2   3  -1  26  -1
M  END
>  <UniqueID>  (70) 
65

>  <SMILES>  (70) 
O=C(N=c1cc[n-]cc1)c1ccc[n-]/c1=N/c1ccc(Cl)c(Cl)c1

>  <Energy>  (70) 
68.61960305539823

>  <Genealogy>  (70) 
O=C(N=c1cc[n-]cc1)c1ccc[n-]c1=Nc1ccc(Cl)c(Cl)c1 (protonated)
O=C(N=c1cc[n-]cc1)c1ccc[n-]/c1=N/c1ccc(Cl)c(Cl)c1 (cis-trans isomerization)
O=C(N=c1cc[n-]cc1)c1ccc[n-]/c1=N/c1ccc(Cl)c(Cl)c1 (3D coordinates assigned)
O=C(N=c1cc[n-]cc1)c1ccc[n-]/c1=N/c1ccc(Cl)c(Cl)c1 (optimized conformer: 68.61960305539823 kcal/mol)

>  <smiles>  (70) 
O=C(N=c1cc[nH]cc1)c1ccc[nH]c1=Nc1ccc(Cl)c(Cl)c1

>  <score_type>  (70) 
oracle

>  <origin>  (70) 
adg

>  <m_score__min__energy>  (70) 
-10.77

>  <m_primary>  (70) 
energy

$$$$
70:0
     RDKit          3D

 44 46  0  0  0  0  0  0  0  0999 V2000
   62.8690   32.4070   47.4670 C   0  0  0  0  0  0  0  0  0  0  0  0
   62.0530   32.7910   48.7000 C   0  0  0  0  0  0  0  0  0  0  0  0
   61.1200   31.7180   49.0650 N   0  0  0  0  0  0  0  0  0  0  0  0
   61.4730   30.4520   49.3550 C   0  0  0  0  0  0  0  0  0  0  0  0
   60.3410   29.7480   49.6880 C   0  0  0  0  0  0  0  0  0  0  0  0
   59.2700   30.5640   49.6250 N   0  0  0  0  0  0  0  0  0  0  0  0
   59.7750   31.7590   49.2540 C   0  0  0  0  0  0  0  0  0  0  0  0
   58.8890   32.9650   49.0840 C   0  0  0  0  0  0  0  0  0  0  0  0
   58.5680   33.1620   47.6570 N   0  0  0  0  0  0  0  0  0  0  0  0
   59.5460   33.9970   46.9140 C   0  0  0  0  0  0  0  0  0  0  0  0
   60.0290   33.4430   45.5600 C   0  0  0  0  0  0  0  0  0  0  0  0
   58.9320   33.4000   44.4940 C   0  0  0  0  0  0  0  0  0  0  0  0
   57.7290   32.7650   45.0330 N   0  0  0  0  0  0  0  0  0  0  0  0
   57.5760   31.3380   44.9270 C   0  0  0  0  0  0  0  0  0  0  0  0
   56.4280   30.8460   44.7520 O   0  0  0  0  0  0  0  0  0  0  0  0
   58.7340   30.4350   45.0550 C   0  0  0  0  0  0  0  0  0  0  0  0
   59.0640   29.4080   44.1760 C   0  0  0  0  0  0  0  0  0  0  0  0
   60.1920   28.6790   44.5740 C   0  0  0  0  0  0  0  0  0  0  0  0
   60.7490   29.1180   45.7670 C   0  0  0  0  0  0  0  0  0  0  0  0
   59.8350   30.4130   46.3290 S   0  0  0  0  0  0  0  0  0  0  0  0
   56.8150   33.5440   45.8730 C   0  0  0  0  0  0  0  0  0  0  0  0
   57.1310   33.3620   47.3680 C   0  0  0  0  0  0  0  0  0  0  0  0
   63.8223   31.9584   47.7833 H   0  0  0  0  0  0  0  0  0  0  0  0
   62.3037   31.6804   46.8649 H   0  0  0  0  0  0  0  0  0  0  0  0
   63.0686   33.3057   46.8649 H   0  0  0  0  0  0  0  0  0  0  0  0
   62.7370   32.9754   49.5415 H   0  0  0  0  0  0  0  0  0  0  0  0
   61.4739   33.6975   48.4702 H   0  0  0  0  0  0  0  0  0  0  0  0
   62.4961   30.0486   49.3297 H   0  0  0  0  0  0  0  0  0  0  0  0
   60.3131   28.6834   49.9634 H   0  0  0  0  0  0  0  0  0  0  0  0
   57.9573   32.8144   49.6490 H   0  0  0  0  0  0  0  0  0  0  0  0
   59.4157   33.8543   49.4604 H   0  0  0  0  0  0  0  0  0  0  0  0
   59.0782   34.9750   46.7280 H   0  0  0  0  0  0  0  0  0  0  0  0
   60.4419   34.0350   47.5511 H   0  0  0  0  0  0  0  0  0  0  0  0
   60.8462   34.0817   45.1936 H   0  0  0  0  0  0  0  0  0  0  0  0
   60.3556   32.4067   45.7314 H   0  0  0  0  0  0  0  0  0  0  0  0
   58.6912   34.4260   44.1787 H   0  0  0  0  0  0  0  0  0  0  0  0
   59.2907   32.8171   43.6328 H   0  0  0  0  0  0  0  0  0  0  0  0
   58.4956   29.1903   43.2597 H   0  0  0  0  0  0  0  0  0  0  0  0
   60.5986   27.8368   43.9948 H   0  0  0  0  0  0  0  0  0  0  0  0
   61.6354   28.6923   46.2599 H   0  0  0  0  0  0  0  0  0  0  0  0
   56.9113   34.6088   45.6142 H   0  0  0  0  0  0  0  0  0  0  0  0
   55.7902   33.1882   45.6907 H   0  0  0  0  0  0  0  0  0  0  0  0
   56.7913   34.2596   47.9056 H   0  0  0  0  0  0  0  0  0  0  0  0
   56.6096   32.4506   47.6959 H   0  0  0  0  0  0  0  0  0  0  0  0
  1  2  1  0
  2  3  1  0
  3  4  1  0
  4  5  2  0
  5  6  1  0
  6  7  2  0
  7  8  1  0
  8  9  1  0
  9 10  1  0
 10 11  1  0
 11 12  1  0
 12 13  1  0
 13 14  1  0
 14 15  2  0
 14 16  1  0
 16 17  2  0
 17 18  1  0
 18 19  2  0
 19 20  1  0
 13 21  1  0
 21 22  1  0
  7  3  1  0
 22  9  1  0
 20 16  1  0
  1 23  1  0
  1 24  1  0
  1 25  1  0
  2 26  1  0
  2 27  1  0
  4 28  1  0
  5 29  1  0
  8 30  1  0
  8 31  1  0
 10 32  1  0
 10 33  1  0
 11 34  1  0
 11 35  1  0
 12 36  1  0
 12 37  1  0
 17 38  1  0
 18 39  1  0
 19 40  1  0
 21 41  1  0
 21 42  1  0
 22 43  1  0
 22 44  1  0
M  END
>  <UniqueID>  (71) 
66

>  <SMILES>  (71) 
CCn1ccnc1CN1CCCN(C(=O)c2cccs2)CC1

>  <Energy>  (71) 
113.54587356764172

>  <Genealogy>  (71) 
CCn1ccnc1CN1CCCN(C(=O)c2cccs2)CC1 (3D coordinates assigned)
CCn1ccnc1CN1CCCN(C(=O)c2cccs2)CC1 (nonaromatic ring conformer: 113.54587356764172 kcal/mol)

>  <smiles>  (71) 
CCn1ccnc1CN1CCCN(C(=O)c2cccs2)CC1

>  <score_type>  (71) 
oracle

>  <origin>  (71) 
adg

>  <m_score__min__energy>  (71) 
-4.6799999999999997

>  <m_primary>  (71) 
energy

$$$$
71:0
     RDKit          3D

 55 58  0  0  0  0  0  0  0  0999 V2000
   59.6380   35.1720   45.8760 C   0  0  0  0  0  0  0  0  0  0  0  0
   60.4770   34.1800   46.6290 C   0  0  0  0  0  0  0  0  0  0  0  0
   61.8240   34.1940   46.4250 N   0  0  0  0  0  0  0  0  0  0  0  0
   62.6610   33.3160   47.0330 C   0  0  0  0  0  0  0  0  0  0  0  0
   63.8990   33.3750   46.8120 O   0  0  0  0  0  0  0  0  0  0  0  0
   62.1470   32.3470   47.8930 C   0  0  0  0  0  0  0  0  0  0  0  0
   60.7750   32.3040   48.1310 C   0  0  0  0  0  0  0  0  0  0  0  0
   59.9160   33.2400   47.5290 C   0  0  0  0  0  0  0  0  0  0  0  0
   58.4300   33.1680   47.8130 C   0  0  0  0  0  0  0  0  0  0  0  0
   57.7940   32.1030   47.0390 N   0  0  0  0  0  0  0  0  0  0  0  0
   57.4710   32.1560   45.6420 C   0  0  0  0  0  0  0  0  0  0  0  0
   56.6640   33.0380   45.2440 O   0  0  0  0  0  0  0  0  0  0  0  0
   58.1070   31.2270   44.6360 C   0  0  2  0  0  0  0  0  0  0  0  0
   57.7770   31.6420   43.1990 C   0  0  0  0  0  0  0  0  0  0  0  0
   56.7250   30.6510   42.6940 C   0  0  0  0  0  0  0  0  0  0  0  0
   56.7850   29.4470   43.6370 C   0  0  1  0  0  0  0  0  0  0  0  0
   57.4610   28.2170   43.0040 C   0  0  0  0  0  0  0  0  0  0  0  0
   57.7790   27.0920   44.0290 C   0  0  0  0  0  0  0  0  0  0  0  0
   57.6700   27.4850   45.5290 C   0  0  2  0  0  0  0  0  0  0  0  0
   56.3070   27.2820   46.0140 N   0  0  0  0  0  0  0  0  0  0  0  0
   55.6380   26.0190   45.9980 C   0  0  0  0  0  0  0  0  0  0  0  0
   54.3930   25.9890   45.8140 O   0  0  0  0  0  0  0  0  0  0  0  0
   56.3890   24.8050   46.1430 N   0  0  0  0  0  0  0  0  0  0  0  0
   56.6420   23.8190   45.1320 C   0  0  0  0  0  0  0  0  0  0  0  0
   55.9850   23.8360   43.8860 C   0  0  0  0  0  0  0  0  0  0  0  0
   56.2500   22.8410   42.9390 C   0  0  0  0  0  0  0  0  0  0  0  0
   57.1530   21.8160   43.2320 C   0  0  0  0  0  0  0  0  0  0  0  0
   57.7850   21.7780   44.4760 C   0  0  0  0  0  0  0  0  0  0  0  0
   57.5250   22.7720   45.4250 C   0  0  0  0  0  0  0  0  0  0  0  0
   58.0390   28.9240   45.7270 C   0  0  0  0  0  0  0  0  0  0  0  0
   58.7290   29.2820   46.7190 O   0  0  0  0  0  0  0  0  0  0  0  0
   57.5690   29.8850   44.7750 N   0  0  0  0  0  0  0  0  0  0  0  0
   59.0973   35.8113   46.5894 H   0  0  0  0  0  0  0  0  0  0  0  0
   60.2868   35.7957   45.2435 H   0  0  0  0  0  0  0  0  0  0  0  0
   58.9153   34.6357   45.2435 H   0  0  0  0  0  0  0  0  0  0  0  0
   62.8180   31.6234   48.3790 H   0  0  0  0  0  0  0  0  0  0  0  0
   60.3605   31.5314   48.7953 H   0  0  0  0  0  0  0  0  0  0  0  0
   58.2788   32.9718   48.8847 H   0  0  0  0  0  0  0  0  0  0  0  0
   57.9739   34.1269   47.5257 H   0  0  0  0  0  0  0  0  0  0  0  0
   59.1898   31.2675   44.8254 H   0  0  0  0  0  0  0  0  0  0  0  0
   57.3748   32.6657   43.1814 H   0  0  0  0  0  0  0  0  0  0  0  0
   58.6749   31.6287   42.5638 H   0  0  0  0  0  0  0  0  0  0  0  0
   55.7251   31.1086   42.7230 H   0  0  0  0  0  0  0  0  0  0  0  0
   56.9205   30.3548   41.6528 H   0  0  0  0  0  0  0  0  0  0  0  0
   55.7643   29.1324   43.8999 H   0  0  0  0  0  0  0  0  0  0  0  0
   56.7902   27.8080   42.2341 H   0  0  0  0  0  0  0  0  0  0  0  0
   58.4199   28.5538   42.5832 H   0  0  0  0  0  0  0  0  0  0  0  0
   57.0791   26.2632   43.8467 H   0  0  0  0  0  0  0  0  0  0  0  0
   58.8358   26.8334   43.8666 H   0  0  0  0  0  0  0  0  0  0  0  0
   58.3644   26.8449   46.0930 H   0  0  0  0  0  0  0  0  0  0  0  0
   55.2623   24.6331   43.6573 H   0  0  0  0  0  0  0  0  0  0  0  0
   55.7462   22.8657   41.9614 H   0  0  0  0  0  0  0  0  0  0  0  0
   57.3658   21.0393   42.4827 H   0  0  0  0  0  0  0  0  0  0  0  0
   58.4884   20.9653   44.7103 H   0  0  0  0  0  0  0  0  0  0  0  0
   58.0172   22.7312   46.4079 H   0  0  0  0  0  0  0  0  0  0  0  0
  1  2  1  0
  2  3  1  0
  3  4  1  0
  4  5  2  0
  4  6  1  0
  6  7  2  0
  7  8  1  0
  8  9  1  0
  9 10  1  0
 10 11  1  0
 11 12  2  0
 11 13  1  0
 13 14  1  0
 14 15  1  0
 15 16  1  0
 16 17  1  0
 17 18  1  0
 18 19  1  0
 19 20  1  0
 20 21  1  0
 21 22  2  0
 21 23  1  0
 23 24  1  0
 24 25  2  0
 25 26  1  0
 26 27  2  0
 27 28  1  0
 28 29  2  0
 19 30  1  0
 30 31  2  0
 30 32  1  0
  8  2  2  0
 32 13  1  0
 32 16  1  0
 29 24  1  0
  1 33  1  0
  1 34  1  0
  1 35  1  0
  6 36  1  0
  7 37  1  0
  9 38  1  0
  9 39  1  0
 13 40  1  6
 14 41  1  0
 14 42  1  0
 15 43  1  0
 15 44  1  0
 16 45  1  1
 17 46  1  0
 17 47  1  0
 18 48  1  0
 18 49  1  0
 19 50  1  1
 25 51  1  0
 26 52  1  0
 27 53  1  0
 28 54  1  0
 29 55  1  0
M  CHG  4   3  -1  10  -1  20  -1  23  -1
M  END
>  <UniqueID>  (72) 
67

>  <SMILES>  (72) 
Cc1[n-]c(=O)ccc1C[N-]C(=O)[C@@H]1CC[C@H]2CCC([N-]C(=O)[N-]c3ccccc3)C(=O)N21

>  <Energy>  (72) 
63.021072948573064

>  <Genealogy>  (72) 
Cc1[n-]c(=O)ccc1C[N-]C(=O)C1CCC2CCC([N-]C(=O)[N-]c3ccccc3)C(=O)N21 (protonated)
Cc1[n-]c(=O)ccc1C[N-]C(=O)[C@@H]1CC[C@H]2CCC([N-]C(=O)[N-]c3ccccc3)C(=O)N21 (chirality)
Cc1[n-]c(=O)ccc1C[N-]C(=O)[C@@H]1CC[C@H]2CCC([N-]C(=O)[N-]c3ccccc3)C(=O)N21 (3D coordinates assigned)
Cc1[n-]c(=O)ccc1C[N-]C(=O)[C@@H]1CC[C@H]2CCC([N-]C(=O)[N-]c3ccccc3)C(=O)N21 (nonaromatic ring conformer: 63.021072948573064 kcal/mol)

>  <smiles>  (72) 
Cc1[nH]c(=O)ccc1CNC(=O)C1CCC2CCC(NC(=O)Nc3ccccc3)C(=O)N21

>  <score_type>  (72) 
oracle

>  <origin>  (72) 
adg

>  <m_score__min__energy>  (72) 
-15.15

>  <m_primary>  (72) 
energy

$$$$
72:0
     RDKit          3D

 46 48  0  0  0  0  0  0  0  0999 V2000
   51.0210   32.7150   50.1280 H   0  0  0  0  0  0  0  0  0  0  0  0
   51.7130   32.6630   50.9090 N   0  0  0  0  0  0  0  0  0  0  0  0
   51.6250   31.0630   51.5540 S   0  0  0  0  0  0  0  0  0  0  0  0
   50.3520   30.9080   52.3390 O   0  0  0  0  0  0  0  0  0  0  0  0
   51.6200   30.0680   50.4270 O   0  0  0  0  0  0  0  0  0  0  0  0
   53.0140   30.7710   52.5990 C   0  0  0  0  0  0  0  0  0  0  0  0
   52.8210   30.3890   53.9300 C   0  0  0  0  0  0  0  0  0  0  0  0
   51.8013   30.2766   54.3269 H   0  0  0  0  0  0  0  0  0  0  0  0
   53.9210   30.1500   54.7560 C   0  0  0  0  0  0  0  0  0  0  0  0
   53.7648   29.8494   55.8025 H   0  0  0  0  0  0  0  0  0  0  0  0
   55.2200   30.2910   54.2590 C   0  0  0  0  0  0  0  0  0  0  0  0
   56.0799   30.1022   54.9186 H   0  0  0  0  0  0  0  0  0  0  0  0
   55.4370   30.6730   52.9200 C   0  0  0  0  0  0  0  0  0  0  0  0
   56.8080   30.8500   52.3660 C   0  0  0  0  0  0  0  0  0  0  0  0
   57.2080   30.1800   51.2470 N   0  0  0  0  0  0  0  0  0  0  0  0
   58.4680   30.4900   50.8840 C   0  0  0  0  0  0  0  0  0  0  0  0
   59.0360   29.9440   49.8500 N   0  0  0  0  0  0  0  0  0  0  0  0
   59.2870   30.5450   48.5690 C   0  0  0  0  0  0  0  0  0  0  0  0
   59.0490   29.9150   47.5040 O   0  0  0  0  0  0  0  0  0  0  0  0
   59.8570   31.9450   48.4740 C   0  0  0  0  0  0  0  0  0  0  0  0
   60.5506   32.0549   49.3207 H   0  0  0  0  0  0  0  0  0  0  0  0
   58.7840   33.0440   48.6330 C   0  0  0  0  0  0  0  0  0  0  0  0
   59.2889   33.9946   48.8596 H   0  0  0  0  0  0  0  0  0  0  0  0
   58.1118   32.7278   49.4443 H   0  0  0  0  0  0  0  0  0  0  0  0
   57.9150   33.2390   47.3680 C   0  0  0  0  0  0  0  0  0  0  0  0
   58.0151   34.2789   47.0238 H   0  0  0  0  0  0  0  0  0  0  0  0
   56.8718   33.0088   47.6302 H   0  0  0  0  0  0  0  0  0  0  0  0
   58.3250   32.3340   46.2790 N   0  0  0  0  0  0  0  0  0  0  0  0
   57.3330   32.5870   44.8630 S   0  0  0  0  0  0  0  0  0  0  0  0
   56.2610   31.5360   44.8220 O   0  0  0  0  0  0  0  0  0  0  0  0
   56.6790   33.9380   44.9480 O   0  0  0  0  0  0  0  0  0  0  0  0
   58.2750   32.5020   43.3490 C   0  0  0  0  0  0  0  0  0  0  0  0
   59.3445   32.4055   43.5875 H   0  0  0  0  0  0  0  0  0  0  0  0
   57.9498   31.6296   42.7633 H   0  0  0  0  0  0  0  0  0  0  0  0
   58.1112   33.4186   42.7633 H   0  0  0  0  0  0  0  0  0  0  0  0
   59.7490   32.5200   45.9590 C   0  0  0  0  0  0  0  0  0  0  0  0
   59.9247   33.5753   45.7032 H   0  0  0  0  0  0  0  0  0  0  0  0
   60.0040   31.8684   45.1103 H   0  0  0  0  0  0  0  0  0  0  0  0
   60.6440   32.1360   47.1580 C   0  0  0  0  0  0  0  0  0  0  0  0
   61.3867   32.9333   47.3083 H   0  0  0  0  0  0  0  0  0  0  0  0
   61.1136   31.1709   46.9171 H   0  0  0  0  0  0  0  0  0  0  0  0
   59.1570   31.6080   51.9400 S   0  0  0  0  0  0  0  0  0  0  0  0
   57.7810   31.7040   52.9020 C   0  0  0  0  0  0  0  0  0  0  0  0
   57.6647   32.3302   53.7988 H   0  0  0  0  0  0  0  0  0  0  0  0
   54.3170   30.9030   52.0950 C   0  0  0  0  0  0  0  0  0  0  0  0
   54.4664   31.1894   51.0435 H   0  0  0  0  0  0  0  0  0  0  0  0
  1  2  1  0
  2  3  1  0
  3  4  2  0
  3  5  2  0
  3  6  1  0
  6  7  2  0
  7  8  1  0
  7  9  1  0
  9 10  1  0
  9 11  2  0
 11 12  1  0
 11 13  1  0
 13 14  1  0
 14 15  1  0
 15 16  1  0
 16 17  2  0
 17 18  1  0
 18 19  2  0
 18 20  1  0
 20 21  1  0
 20 22  1  0
 22 23  1  0
 22 24  1  0
 22 25  1  0
 25 26  1  0
 25 27  1  0
 25 28  1  0
 28 29  1  0
 29 30  2  0
 29 31  2  0
 29 32  1  0
 32 33  1  0
 32 34  1  0
 32 35  1  0
 28 36  1  0
 36 37  1  0
 36 38  1  0
 36 39  1  0
 39 40  1  0
 39 41  1  0
 16 42  1  0
 42 43  1  0
 43 44  1  0
 13 45  2  0
 45 46  1  0
 45  6  1  0
 43 14  2  0
 39 20  1  0
M  CHG  2   2  -1  15  -1
M  END
>  <UniqueID>  (73) 
68

>  <SMILES>  (73) 
CS(=O)(=O)N1CCC(C(=O)/N=c2/[n-]c(-c3cccc(S([NH-])(=O)=O)c3)cs2)CC1

>  <Energy>  (73) 
83.51647183802797

>  <Genealogy>  (73) 
CS(=O)(=O)N1CCC(C(=O)N=c2[n-]c(-c3cccc(S([NH-])(=O)=O)c3)cs2)CC1 (protonated)
CS(=O)(=O)N1CCC(C(=O)/N=c2/[n-]c(-c3cccc(S([NH-])(=O)=O)c3)cs2)CC1 (cis-trans isomerization)
CS(=O)(=O)N1CCC(C(=O)/N=c2/[n-]c(-c3cccc(S([NH-])(=O)=O)c3)cs2)CC1 (3D coordinates assigned)
CS(=O)(=O)N1CCC(C(=O)/N=c2/[n-]c(-c3cccc(S([NH-])(=O)=O)c3)cs2)CC1 (nonaromatic ring conformer: 83.51647183802797 kcal/mol)

>  <smiles>  (73) 
CS(=O)(=O)N1CCC(C(=O)N=c2[nH]c(-c3cccc(S(N)(=O)=O)c3)cs2)CC1

>  <score_type>  (73) 
oracle

>  <origin>  (73) 
adg

>  <m_score__min__energy>  (73) 
-13.359999999999999

>  <m_primary>  (73) 
energy

$$$$
73:0
     RDKit          3D

 55 57  0  0  0  0  0  0  0  0999 V2000
   61.3390   33.1520   49.9100 C   0  0  0  0  0  0  0  0  0  0  0  0
   60.0720   32.3420   49.9170 C   0  0  0  0  0  0  0  0  0  0  0  0
   59.0770   32.8210   49.3960 O   0  0  0  0  0  0  0  0  0  0  0  0
   60.0290   31.0240   50.5320 N   0  0  0  0  0  0  0  0  0  0  0  0
   58.7420   30.3380   50.2730 C   0  0  0  0  0  0  0  0  0  0  0  0
   58.6410   29.7770   48.8500 C   0  0  0  0  0  0  0  0  0  0  0  0
   59.8200   28.9550   48.5680 N   0  0  0  0  0  0  0  0  0  0  0  0
   59.7130   27.5910   48.1070 C   0  0  0  0  0  0  0  0  0  0  0  0
   60.6250   26.7670   48.3870 O   0  0  0  0  0  0  0  0  0  0  0  0
   58.5590   27.1280   47.3060 C   0  0  0  0  0  0  0  0  0  0  0  0
   58.2220   25.7660   47.2550 C   0  0  0  0  0  0  0  0  0  0  0  0
   57.1340   25.3330   46.4920 C   0  0  0  0  0  0  0  0  0  0  0  0
   56.3680   26.2540   45.7810 C   0  0  0  0  0  0  0  0  0  0  0  0
   56.6880   27.6250   45.8250 C   0  0  0  0  0  0  0  0  0  0  0  0
   55.9140   28.6040   45.1180 N   0  0  0  0  0  0  0  0  0  0  0  0
   56.4360   29.6540   44.2890 C   0  0  0  0  0  0  0  0  0  0  0  0
   56.1030   29.6840   43.0690 O   0  0  0  0  0  0  0  0  0  0  0  0
   57.3100   30.7240   44.8360 C   0  0  0  0  0  0  0  0  0  0  0  0
   56.8800   32.0600   44.8680 C   0  0  0  0  0  0  0  0  0  0  0  0
   57.7020   33.0610   45.3910 C   0  0  0  0  0  0  0  0  0  0  0  0
   58.9890   32.7570   45.8850 C   0  0  0  0  0  0  0  0  0  0  0  0
   59.8490   33.8010   46.4280 N   0  0  0  0  0  0  0  0  0  0  0  0
   61.3080   33.6340   46.4420 C   0  0  0  0  0  0  0  0  0  0  0  0
   59.2720   35.0310   46.9860 C   0  0  0  0  0  0  0  0  0  0  0  0
   59.4200   31.4120   45.8280 C   0  0  0  0  0  0  0  0  0  0  0  0
   58.5920   30.4110   45.3070 C   0  0  0  0  0  0  0  0  0  0  0  0
   57.7660   28.0550   46.6090 C   0  0  0  0  0  0  0  0  0  0  0  0
   61.1300   29.5750   48.7780 C   0  0  0  0  0  0  0  0  0  0  0  0
   61.2070   30.1890   50.1870 C   0  0  0  0  0  0  0  0  0  0  0  0
   61.6520   33.3521   50.9454 H   0  0  0  0  0  0  0  0  0  0  0  0
   62.1297   32.5915   49.3898 H   0  0  0  0  0  0  0  0  0  0  0  0
   61.1621   34.1049   49.3898 H   0  0  0  0  0  0  0  0  0  0  0  0
   60.0780   31.1610   51.5700 H   0  0  0  0  0  0  0  0  0  0  0  0
   58.6374   29.5070   50.9861 H   0  0  0  0  0  0  0  0  0  0  0  0
   57.9412   31.0827   50.3919 H   0  0  0  0  0  0  0  0  0  0  0  0
   57.7340   29.1609   48.7616 H   0  0  0  0  0  0  0  0  0  0  0  0
   58.5901   30.6070   48.1299 H   0  0  0  0  0  0  0  0  0  0  0  0
   58.8186   25.0344   47.8196 H   0  0  0  0  0  0  0  0  0  0  0  0
   56.8821   24.2629   46.4529 H   0  0  0  0  0  0  0  0  0  0  0  0
   55.5109   25.9097   45.1836 H   0  0  0  0  0  0  0  0  0  0  0  0
   55.8855   32.3213   44.4772 H   0  0  0  0  0  0  0  0  0  0  0  0
   57.3417   34.1000   45.4183 H   0  0  0  0  0  0  0  0  0  0  0  0
   61.6624   33.5934   47.4825 H   0  0  0  0  0  0  0  0  0  0  0  0
   61.5750   32.6994   45.9270 H   0  0  0  0  0  0  0  0  0  0  0  0
   61.7793   34.4841   45.9270 H   0  0  0  0  0  0  0  0  0  0  0  0
   59.2953   34.9814   48.0846 H   0  0  0  0  0  0  0  0  0  0  0  0
   59.8574   35.8979   46.6456 H   0  0  0  0  0  0  0  0  0  0  0  0
   58.2312   35.1350   46.6456 H   0  0  0  0  0  0  0  0  0  0  0  0
   60.4214   31.1480   46.1988 H   0  0  0  0  0  0  0  0  0  0  0  0
   58.9501   29.3717   45.2670 H   0  0  0  0  0  0  0  0  0  0  0  0
   57.9940   29.1288   46.6797 H   0  0  0  0  0  0  0  0  0  0  0  0
   61.9148   28.8117   48.6708 H   0  0  0  0  0  0  0  0  0  0  0  0
   61.2750   30.3698   48.0315 H   0  0  0  0  0  0  0  0  0  0  0  0
   61.2817   29.3719   50.9197 H   0  0  0  0  0  0  0  0  0  0  0  0
   62.0882   30.8472   50.2065 H   0  0  0  0  0  0  0  0  0  0  0  0
  1  2  1  0
  2  3  2  0
  2  4  1  0
  4  5  1  0
  5  6  1  0
  6  7  1  0
  7  8  1  0
  8  9  2  0
  8 10  1  0
 10 11  2  0
 11 12  1  0
 12 13  2  0
 13 14  1  0
 14 15  1  0
 15 16  1  0
 16 17  2  0
 16 18  1  0
 18 19  2  0
 19 20  1  0
 20 21  2  0
 21 22  1  0
 22 23  1  0
 22 24  1  0
 21 25  1  0
 25 26  2  0
 14 27  2  0
  7 28  1  0
 28 29  1  0
 29  4  1  0
 27 10  1  0
 26 18  1  0
  1 30  1  0
  1 31  1  0
  1 32  1  0
  4 33  1  0
  5 34  1  0
  5 35  1  0
  6 36  1  0
  6 37  1  0
 11 38  1  0
 12 39  1  0
 13 40  1  0
 19 41  1  0
 20 42  1  0
 23 43  1  0
 23 44  1  0
 23 45  1  0
 24 46  1  0
 24 47  1  0
 24 48  1  0
 25 49  1  0
 26 50  1  0
 27 51  1  0
 28 52  1  0
 28 53  1  0
 29 54  1  0
 29 55  1  0
M  CHG  2   4   1  15  -1
M  END
>  <UniqueID>  (74) 
69

>  <SMILES>  (74) 
CC(=O)[NH+]1CCN(C(=O)c2cccc([N-]C(=O)c3ccc(N(C)C)cc3)c2)CC1

>  <Energy>  (74) 
73.15402935499074

>  <Genealogy>  (74) 
CC(=O)[NH+]1CCN(C(=O)c2cccc([N-]C(=O)c3ccc(N(C)C)cc3)c2)CC1 (protonated)
CC(=O)[NH+]1CCN(C(=O)c2cccc([N-]C(=O)c3ccc(N(C)C)cc3)c2)CC1 (3D coordinates assigned)
CC(=O)[NH+]1CCN(C(=O)c2cccc([N-]C(=O)c3ccc(N(C)C)cc3)c2)CC1 (nonaromatic ring conformer: 73.15402935499074 kcal/mol)

>  <smiles>  (74) 
CC(=O)N1CCN(C(=O)c2cccc(NC(=O)c3ccc(N(C)C)cc3)c2)CC1

>  <score_type>  (74) 
oracle

>  <origin>  (74) 
adg

>  <m_score__min__energy>  (74) 
-9.4199999999999999

>  <m_primary>  (74) 
energy

$$$$
74:0
     RDKit          3D

 51 54  0  0  0  0  0  0  0  0999 V2000
   59.4710   27.8400   47.0790 C   0  0  0  0  0  0  0  0  0  0  0  0
   58.9120   28.5860   46.1120 C   0  0  0  0  0  0  0  0  0  0  0  0
   58.0030   28.1600   45.1310 C   0  0  0  0  0  0  0  0  0  0  0  0
   57.6090   26.9230   44.7690 C   0  0  0  0  0  0  0  0  0  0  0  0
   57.0900   25.8880   45.6750 C   0  0  0  0  0  0  0  0  0  0  0  0
   57.8530   24.9230   46.2160 N   0  0  0  0  0  0  0  0  0  0  0  0
   57.0080   24.2930   47.0610 C   0  0  0  0  0  0  0  0  0  0  0  0
   57.3560   23.3020   47.7530 O   0  0  0  0  0  0  0  0  0  0  0  0
   55.7650   24.8160   47.1140 N   0  0  0  0  0  0  0  0  0  0  0  0
   55.8360   25.8340   46.2420 C   0  0  0  0  0  0  0  0  0  0  0  0
   54.7880   26.7120   45.9920 O   0  0  0  0  0  0  0  0  0  0  0  0
   57.5340   29.3060   44.5130 C   0  0  0  0  0  0  0  0  0  0  0  0
   58.2070   30.3720   45.0760 C   0  0  0  0  0  0  0  0  0  0  0  0
   58.0500   31.8010   44.6300 C   0  0  0  0  0  0  0  0  0  0  0  0
   57.7820   31.8810   43.1310 C   0  0  0  0  0  0  0  0  0  0  0  0
   59.0460   29.9360   46.0440 N   0  0  0  0  0  0  0  0  0  0  0  0
   59.9270   30.7520   46.8360 C   0  0  0  0  0  0  0  0  0  0  0  0
   61.3160   30.6370   46.7020 C   0  0  0  0  0  0  0  0  0  0  0  0
   62.1650   31.4370   47.4710 C   0  0  0  0  0  0  0  0  0  0  0  0
   61.6300   32.3700   48.3650 C   0  0  0  0  0  0  0  0  0  0  0  0
   60.2380   32.5150   48.4910 C   0  0  0  0  0  0  0  0  0  0  0  0
   59.6750   33.5150   49.4250 C   0  0  0  0  0  0  0  0  0  0  0  0
   59.6490   34.7270   49.0770 O   0  0  0  0  0  0  0  0  0  0  0  0
   59.1480   33.1360   50.7120 N   0  0  0  0  0  0  0  0  0  0  0  0
   59.3610   33.9890   51.8840 C   0  0  0  0  0  0  0  0  0  0  0  0
   58.0950   34.0060   52.7450 C   0  0  0  0  0  0  0  0  0  0  0  0
   57.6700   32.6880   53.0410 O   0  0  0  0  0  0  0  0  0  0  0  0
   57.2830   32.0290   51.8500 C   0  0  0  0  0  0  0  0  0  0  0  0
   58.4840   31.8440   50.9180 C   0  0  0  0  0  0  0  0  0  0  0  0
   59.3930   31.6830   47.7380 C   0  0  0  0  0  0  0  0  0  0  0  0
   60.1735   28.2985   47.7905 H   0  0  0  0  0  0  0  0  0  0  0  0
   59.2263   26.7706   47.1594 H   0  0  0  0  0  0  0  0  0  0  0  0
   57.6822   26.6652   43.7021 H   0  0  0  0  0  0  0  0  0  0  0  0
   56.7701   29.3578   43.7232 H   0  0  0  0  0  0  0  0  0  0  0  0
   57.2068   32.2557   45.1706 H   0  0  0  0  0  0  0  0  0  0  0  0
   58.9839   32.3399   44.8476 H   0  0  0  0  0  0  0  0  0  0  0  0
   56.7407   32.1919   42.9608 H   0  0  0  0  0  0  0  0  0  0  0  0
   58.4629   32.6150   42.6754 H   0  0  0  0  0  0  0  0  0  0  0  0
   57.9491   30.8938   42.6754 H   0  0  0  0  0  0  0  0  0  0  0  0
   61.7401   29.9146   45.9891 H   0  0  0  0  0  0  0  0  0  0  0  0
   63.2557   31.3329   47.3731 H   0  0  0  0  0  0  0  0  0  0  0  0
   62.3023   32.9935   48.9726 H   0  0  0  0  0  0  0  0  0  0  0  0
   60.2006   33.5951   52.4756 H   0  0  0  0  0  0  0  0  0  0  0  0
   59.5912   35.0126   51.5534 H   0  0  0  0  0  0  0  0  0  0  0  0
   58.3055   34.5367   53.6852 H   0  0  0  0  0  0  0  0  0  0  0  0
   57.2963   34.5169   52.1873 H   0  0  0  0  0  0  0  0  0  0  0  0
   56.8666   31.0426   52.1022 H   0  0  0  0  0  0  0  0  0  0  0  0
   56.5282   32.6423   51.3361 H   0  0  0  0  0  0  0  0  0  0  0  0
   59.1933   31.1354   51.3705 H   0  0  0  0  0  0  0  0  0  0  0  0
   58.1394   31.4509   49.9502 H   0  0  0  0  0  0  0  0  0  0  0  0
   58.3024   31.7627   47.8572 H   0  0  0  0  0  0  0  0  0  0  0  0
  1  2  2  0
  2  3  1  0
  3  4  2  3
  4  5  1  0
  5  6  1  0
  6  7  1  0
  7  8  2  0
  7  9  1  0
  9 10  1  0
 10 11  1  0
  3 12  1  0
 12 13  2  0
 13 14  1  0
 14 15  1  0
 13 16  1  0
 16 17  1  0
 17 18  2  0
 18 19  1  0
 19 20  2  0
 20 21  1  0
 21 22  1  0
 22 23  2  0
 22 24  1  0
 24 25  1  0
 25 26  1  0
 26 27  1  0
 27 28  1  0
 28 29  1  0
 21 30  2  0
 16  2  1  0
 30 17  1  0
 10  5  2  0
 29 24  1  0
  1 31  1  0
  1 32  1  0
  4 33  1  0
 12 34  1  0
 14 35  1  0
 14 36  1  0
 15 37  1  0
 15 38  1  0
 15 39  1  0
 18 40  1  0
 19 41  1  0
 20 42  1  0
 25 43  1  0
 25 44  1  0
 26 45  1  0
 26 46  1  0
 28 47  1  0
 28 48  1  0
 29 49  1  0
 29 50  1  0
 30 51  1  0
M  CHG  3   6  -1   9  -1  11  -1
M  END
>  <UniqueID>  (75) 
70

>  <SMILES>  (75) 
C=c1c(=Cc2[n-]c(=O)[n-]c2[O-])cc(CC)n1-c1cccc(C(=O)N2CCOCC2)c1

>  <Energy>  (75) 
133.14690933354524

>  <Genealogy>  (75) 
C=c1c(=Cc2[n-]c(=O)[n-]c2[O-])cc(CC)n1-c1cccc(C(=O)N2CCOCC2)c1 (protonated)
C=c1c(=Cc2[n-]c(=O)[n-]c2[O-])cc(CC)n1-c1cccc(C(=O)N2CCOCC2)c1 (3D coordinates assigned)
C=c1c(=Cc2[n-]c(=O)[n-]c2[O-])cc(CC)n1-c1cccc(C(=O)N2CCOCC2)c1 (nonaromatic ring conformer: 133.14690933354524 kcal/mol)

>  <smiles>  (75) 
C=c1c(=Cc2[nH]c(=O)[nH]c2O)cc(CC)n1-c1cccc(C(=O)N2CCOCC2)c1

>  <score_type>  (75) 
oracle

>  <origin>  (75) 
adg

>  <m_score__min__energy>  (75) 
-17.059999999999999

>  <m_primary>  (75) 
energy

$$$$
75:0
     RDKit          3D

 51 53  0  0  0  0  0  0  0  0999 V2000
   63.3720   32.8550   48.2860 C   0  0  0  0  0  0  0  0  0  0  0  0
   62.9410   34.1000   49.0540 C   0  0  0  0  0  0  0  0  0  0  0  0
   61.5170   34.1840   49.1240 O   0  0  0  0  0  0  0  0  0  0  0  0
   60.6260   33.9340   48.0650 C   0  0  0  0  0  0  0  0  0  0  0  0
   60.9470   34.2250   46.7230 C   0  0  0  0  0  0  0  0  0  0  0  0
   60.0270   33.9700   45.7040 C   0  0  0  0  0  0  0  0  0  0  0  0
   58.7690   33.4410   46.0060 C   0  0  0  0  0  0  0  0  0  0  0  0
   57.8030   33.1730   44.9180 C   0  0  0  0  0  0  0  0  0  0  0  0
   56.9650   32.1240   44.9030 C   0  0  0  0  0  0  0  0  0  0  0  0
   57.2520   30.8610   44.1950 C   0  0  0  0  0  0  0  0  0  0  0  0
   57.3020   30.8620   42.9340 O   0  0  0  0  0  0  0  0  0  0  0  0
   57.5000   29.5990   44.9360 C   0  0  0  0  0  0  0  0  0  0  0  0
   56.4380   28.7470   45.2660 C   0  0  0  0  0  0  0  0  0  0  0  0
   55.1460   29.0110   44.8260 O   0  0  0  0  0  0  0  0  0  0  0  0
   56.6640   27.6440   46.0190 N   0  0  0  0  0  0  0  0  0  0  0  0
   57.9020   27.3340   46.4760 C   0  0  0  0  0  0  0  0  0  0  0  0
   58.0430   26.3080   47.1950 O   0  0  0  0  0  0  0  0  0  0  0  0
   58.9740   28.1340   46.1700 N   0  0  0  0  0  0  0  0  0  0  0  0
   60.3070   27.8400   46.7310 C   0  0  0  0  0  0  0  0  0  0  0  0
   60.5660   28.7080   47.9240 C   0  0  0  0  0  0  0  0  0  0  0  0
   60.5150   28.3020   49.2520 C   0  0  0  0  0  0  0  0  0  0  0  0
   60.8850   29.3100   50.1500 C   0  0  0  0  0  0  0  0  0  0  0  0
   61.2420   30.5030   49.5330 C   0  0  0  0  0  0  0  0  0  0  0  0
   61.0970   30.3030   47.8680 S   0  0  0  0  0  0  0  0  0  0  0  0
   58.7850   29.2610   45.4080 C   0  0  0  0  0  0  0  0  0  0  0  0
   59.7630   30.0190   45.1540 O   0  0  0  0  0  0  0  0  0  0  0  0
   58.4600   33.1160   47.3350 C   0  0  0  0  0  0  0  0  0  0  0  0
   59.3740   33.3770   48.3710 C   0  0  0  0  0  0  0  0  0  0  0  0
   59.0820   33.0900   49.7180 O   0  0  0  0  0  0  0  0  0  0  0  0
   58.3110   31.9800   50.1840 C   0  0  0  0  0  0  0  0  0  0  0  0
   57.7750   32.2350   51.5900 C   0  0  0  0  0  0  0  0  0  0  0  0
   63.6465   32.0621   48.9973 H   0  0  0  0  0  0  0  0  0  0  0  0
   62.5415   32.5086   47.6534 H   0  0  0  0  0  0  0  0  0  0  0  0
   64.2389   33.0962   47.6534 H   0  0  0  0  0  0  0  0  0  0  0  0
   63.3503   34.0544   50.0740 H   0  0  0  0  0  0  0  0  0  0  0  0
   63.3216   34.9883   48.5285 H   0  0  0  0  0  0  0  0  0  0  0  0
   61.9288   34.6558   46.4773 H   0  0  0  0  0  0  0  0  0  0  0  0
   60.2935   34.1864   44.6589 H   0  0  0  0  0  0  0  0  0  0  0  0
   57.7693   33.8745   44.0714 H   0  0  0  0  0  0  0  0  0  0  0  0
   56.0133   32.2105   45.4477 H   0  0  0  0  0  0  0  0  0  0  0  0
   60.3494   26.7833   47.0337 H   0  0  0  0  0  0  0  0  0  0  0  0
   61.0718   28.0411   45.9664 H   0  0  0  0  0  0  0  0  0  0  0  0
   60.2145   27.2914   49.5656 H   0  0  0  0  0  0  0  0  0  0  0  0
   60.8925   29.1710   51.2412 H   0  0  0  0  0  0  0  0  0  0  0  0
   61.5644   31.4214   50.0454 H   0  0  0  0  0  0  0  0  0  0  0  0
   57.4909   32.6513   47.5695 H   0  0  0  0  0  0  0  0  0  0  0  0
   57.4643   31.8185   49.5006 H   0  0  0  0  0  0  0  0  0  0  0  0
   58.9593   31.0918   50.2130 H   0  0  0  0  0  0  0  0  0  0  0  0
   58.5090   31.8858   52.3311 H   0  0  0  0  0  0  0  0  0  0  0  0
   57.6007   33.3125   51.7261 H   0  0  0  0  0  0  0  0  0  0  0  0
   56.8290   31.6905   51.7261 H   0  0  0  0  0  0  0  0  0  0  0  0
  1  2  1  0
  2  3  1  0
  3  4  1  0
  4  5  2  0
  5  6  1  0
  6  7  2  0
  7  8  1  0
  8  9  2  3
  9 10  1  0
 10 11  2  0
 10 12  1  0
 12 13  2  0
 13 14  1  0
 13 15  1  0
 15 16  1  0
 16 17  2  0
 16 18  1  0
 18 19  1  0
 19 20  1  0
 20 21  2  0
 21 22  1  0
 22 23  2  0
 23 24  1  0
 18 25  1  0
 25 26  2  0
  7 27  1  0
 27 28  2  0
 28 29  1  0
 29 30  1  0
 30 31  1  0
 28  4  1  0
 25 12  1  0
 24 20  1  0
  1 32  1  0
  1 33  1  0
  1 34  1  0
  2 35  1  0
  2 36  1  0
  5 37  1  0
  6 38  1  0
  8 39  1  0
  9 40  1  0
 19 41  1  0
 19 42  1  0
 21 43  1  0
 22 44  1  0
 23 45  1  0
 27 46  1  0
 30 47  1  0
 30 48  1  0
 31 49  1  0
 31 50  1  0
 31 51  1  0
M  CHG  2  14  -1  15  -1
M  END
>  <UniqueID>  (76) 
71

>  <SMILES>  (76) 
CCOc1ccc(C=CC(=O)c2c([O-])[n-]c(=O)n(Cc3cccs3)c2=O)cc1OCC

>  <Energy>  (76) 
88.87898941792763

>  <Genealogy>  (76) 
CCOc1ccc(C=CC(=O)c2c([O-])[n-]c(=O)n(Cc3cccs3)c2=O)cc1OCC (protonated)
CCOc1ccc(C=CC(=O)c2c([O-])[n-]c(=O)n(Cc3cccs3)c2=O)cc1OCC (3D coordinates assigned)
CCOc1ccc(C=CC(=O)c2c([O-])[n-]c(=O)n(Cc3cccs3)c2=O)cc1OCC (optimized conformer: 88.87898941792763 kcal/mol)

>  <smiles>  (76) 
CCOc1ccc(C=CC(=O)c2c(O)[nH]c(=O)n(Cc3cccs3)c2=O)cc1OCC

>  <score_type>  (76) 
oracle

>  <origin>  (76) 
adg

>  <m_score__min__energy>  (76) 
-12.6

>  <m_primary>  (76) 
energy

$$$$
76:0
     RDKit          3D

 44 46  0  0  0  0  0  0  0  0999 V2000
   57.1420   34.2820   44.9340 C   0  0  0  0  0  0  0  0  0  0  0  0
   57.5710   33.0500   45.2140 C   0  0  0  0  0  0  0  0  0  0  0  0
   57.4850   32.0350   44.3230 N   0  0  0  0  0  0  0  0  0  0  0  0
   58.0340   30.9770   44.9550 C   0  0  0  0  0  0  0  0  0  0  0  0
   58.1510   29.7700   44.3780 C   0  0  0  0  0  0  0  0  0  0  0  0
   57.6640   28.5110   44.9780 C   0  0  0  0  0  0  0  0  0  0  0  0
   56.3010   28.3130   45.2590 C   0  0  0  0  0  0  0  0  0  0  0  0
   55.3710   29.3150   44.9910 O   0  0  0  0  0  0  0  0  0  0  0  0
   55.8840   27.1310   45.7830 N   0  0  0  0  0  0  0  0  0  0  0  0
   56.7590   26.1240   46.0290 C   0  0  0  0  0  0  0  0  0  0  0  0
   56.2270   24.7160   46.6600 S   0  0  0  0  0  0  0  0  0  0  0  0
   58.0760   26.2820   45.7390 N   0  0  0  0  0  0  0  0  0  0  0  0
   58.5440   27.4440   45.2150 C   0  0  0  0  0  0  0  0  0  0  0  0
   59.7720   27.5540   44.9540 O   0  0  0  0  0  0  0  0  0  0  0  0
   58.4550   31.3800   46.2100 C   0  0  0  0  0  0  0  0  0  0  0  0
   59.0690   30.6800   47.0600 O   0  0  0  0  0  0  0  0  0  0  0  0
   58.1490   32.6780   46.3850 N   0  0  0  0  0  0  0  0  0  0  0  0
   58.4830   33.5030   47.5510 C   0  0  0  0  0  0  0  0  0  0  0  0
   59.4840   34.5940   47.1570 C   0  0  0  0  0  0  0  0  0  0  0  0
   60.7250   34.0420   46.4430 C   0  0  0  0  0  0  0  0  0  0  0  0
   61.9360   34.2160   47.2790 N   0  0  0  0  0  0  0  0  0  0  0  0
   63.1870   33.8080   46.5880 C   0  0  0  0  0  0  0  0  0  0  0  0
   63.7750   32.5100   47.1690 C   0  0  0  0  0  0  0  0  0  0  0  0
   64.0690   32.6030   48.5560 O   0  0  0  0  0  0  0  0  0  0  0  0
   63.1450   33.4020   49.2860 C   0  0  0  0  0  0  0  0  0  0  0  0
   61.7800   33.5720   48.6000 C   0  0  0  0  0  0  0  0  0  0  0  0
   57.2302   35.0794   45.6866 H   0  0  0  0  0  0  0  0  0  0  0  0
   56.7002   34.5003   43.9506 H   0  0  0  0  0  0  0  0  0  0  0  0
   58.6413   29.7153   43.3948 H   0  0  0  0  0  0  0  0  0  0  0  0
   55.2600   30.1020   45.6190 H   0  0  0  0  0  0  0  0  0  0  0  0
   57.5669   33.9729   47.9382 H   0  0  0  0  0  0  0  0  0  0  0  0
   58.9335   32.8648   48.3255 H   0  0  0  0  0  0  0  0  0  0  0  0
   58.9807   35.3050   46.4852 H   0  0  0  0  0  0  0  0  0  0  0  0
   59.8262   35.0760   48.0847 H   0  0  0  0  0  0  0  0  0  0  0  0
   60.5777   32.9708   46.2407 H   0  0  0  0  0  0  0  0  0  0  0  0
   60.8646   34.5946   45.5022 H   0  0  0  0  0  0  0  0  0  0  0  0
   62.9677   33.6513   45.5215 H   0  0  0  0  0  0  0  0  0  0  0  0
   63.9282   34.6082   46.7309 H   0  0  0  0  0  0  0  0  0  0  0  0
   63.0478   31.6984   47.0190 H   0  0  0  0  0  0  0  0  0  0  0  0
   64.7227   32.3161   46.6452 H   0  0  0  0  0  0  0  0  0  0  0  0
   62.9820   32.9317   50.2669 H   0  0  0  0  0  0  0  0  0  0  0  0
   63.5873   34.4062   49.3632 H   0  0  0  0  0  0  0  0  0  0  0  0
   61.3169   32.5831   48.4672 H   0  0  0  0  0  0  0  0  0  0  0  0
   61.1438   34.2096   49.2314 H   0  0  0  0  0  0  0  0  0  0  0  0
  1  2  2  0
  2  3  1  0
  3  4  1  0
  4  5  2  3
  5  6  1  0
  6  7  2  0
  7  8  1  0
  7  9  1  0
  9 10  1  0
 10 11  2  0
 10 12  1  0
 12 13  1  0
 13 14  2  0
  4 15  1  0
 15 16  2  0
 15 17  1  0
 17 18  1  0
 18 19  1  0
 19 20  1  0
 20 21  1  0
 21 22  1  0
 22 23  1  0
 23 24  1  0
 24 25  1  0
 25 26  1  0
 17  2  1  0
 26 21  1  0
 13  6  1  0
  1 27  1  0
  1 28  1  0
  5 29  1  0
  8 30  1  0
 18 31  1  0
 18 32  1  0
 19 33  1  0
 19 34  1  0
 20 35  1  0
 20 36  1  0
 22 37  1  0
 22 38  1  0
 23 39  1  0
 23 40  1  0
 25 41  1  0
 25 42  1  0
 26 43  1  0
 26 44  1  0
M  CHG  3   3  -1   9  -1  12  -1
M  END
>  <UniqueID>  (77) 
72

>  <SMILES>  (77) 
C=c1[n-]c(=Cc2c(O)[n-]c(=S)[n-]c2=O)c(=O)n1CCCN1CCOCC1

>  <Energy>  (77) 
99.59656105019637

>  <Genealogy>  (77) 
C=c1[n-]c(=Cc2c(O)[n-]c(=S)[n-]c2=O)c(=O)n1CCCN1CCOCC1 (protonated)
C=c1[n-]c(=Cc2c(O)[n-]c(=S)[n-]c2=O)c(=O)n1CCCN1CCOCC1 (3D coordinates assigned)
C=c1[n-]c(=Cc2c(O)[n-]c(=S)[n-]c2=O)c(=O)n1CCCN1CCOCC1 (nonaromatic ring conformer: 99.59656105019637 kcal/mol)

>  <smiles>  (77) 
C=c1[nH]c(=Cc2c(O)[nH]c(=S)[nH]c2=O)c(=O)n1CCCN1CCOCC1

>  <score_type>  (77) 
oracle

>  <origin>  (77) 
adg

>  <m_score__min__energy>  (77) 
-13.08

>  <m_primary>  (77) 
energy

$$$$
77:0
     RDKit          3D

 67 71  0  0  0  0  0  0  0  0999 V2000
   66.6240   34.2560   51.2840 C   0  0  0  0  0  0  0  0  0  0  0  0
   66.0730   33.1080   50.4860 C   0  0  0  0  0  0  0  0  0  0  0  0
   66.8520   32.1710   50.1680 O   0  0  0  0  0  0  0  0  0  0  0  0
   64.7000   33.1130   50.1160 N   0  0  0  0  0  0  0  0  0  0  0  0
   63.7810   34.1740   50.4660 C   0  0  0  0  0  0  0  0  0  0  0  0
   62.5090   33.6620   51.1140 C   0  0  0  0  0  0  0  0  0  0  0  0
   62.0190   32.5290   50.3930 N   0  0  0  0  0  0  0  0  0  0  0  0
   60.6230   32.3950   50.1500 C   0  0  0  0  0  0  0  0  0  0  0  0
   59.8450   33.2980   50.5860 O   0  0  0  0  0  0  0  0  0  0  0  0
   60.0250   31.2910   49.4350 C   0  0  0  0  0  0  0  0  0  0  0  0
   59.6250   30.1640   50.1210 C   0  0  0  0  0  0  0  0  0  0  0  0
   59.0420   29.0800   49.4530 C   0  0  0  0  0  0  0  0  0  0  0  0
   58.8360   29.0730   48.0970 C   0  0  0  0  0  0  0  0  0  0  0  0
   58.2630   28.0370   47.3490 N   0  0  0  0  0  0  0  0  0  0  0  0
   58.8880   26.8610   46.8970 C   0  0  0  0  0  0  0  0  0  0  0  0
   60.0970   26.6390   47.1500 O   0  0  0  0  0  0  0  0  0  0  0  0
   58.2040   25.8220   46.1140 C   0  0  0  0  0  0  0  0  0  0  0  0
   57.9300   24.5680   46.6070 C   0  0  0  0  0  0  0  0  0  0  0  0
   57.2780   23.6150   45.8200 C   0  0  0  0  0  0  0  0  0  0  0  0
   57.0120   22.3490   46.3460 C   0  0  0  0  0  0  0  0  0  0  0  0
   57.3560   22.0630   47.5220 O   0  0  0  0  0  0  0  0  0  0  0  0
   56.3780   21.4190   45.5820 N   0  0  0  0  0  0  0  0  0  0  0  0
   56.0090   21.7180   44.3280 N   0  0  0  0  0  0  0  0  0  0  0  0
   56.2480   22.9200   43.7960 C   0  0  0  0  0  0  0  0  0  0  0  0
   55.9160   23.2410   42.6150 O   0  0  0  0  0  0  0  0  0  0  0  0
   56.8900   23.8990   44.5280 C   0  0  0  0  0  0  0  0  0  0  0  0
   57.1650   25.1540   44.0380 C   0  0  0  0  0  0  0  0  0  0  0  0
   57.8180   26.1120   44.8220 C   0  0  0  0  0  0  0  0  0  0  0  0
   58.0490   27.3740   44.2140 N   0  0  0  0  0  0  0  0  0  0  0  0
   57.1450   28.4520   44.4940 C   0  0  0  0  0  0  0  0  0  0  0  0
   56.1960   28.1660   45.2830 O   0  0  0  0  0  0  0  0  0  0  0  0
   57.3140   29.7780   43.9090 C   0  0  0  0  0  0  0  0  0  0  0  0
   56.8290   30.1320   42.6740 C   0  0  0  0  0  0  0  0  0  0  0  0
   57.0620   31.4400   42.2320 C   0  0  0  0  0  0  0  0  0  0  0  0
   57.7510   32.3560   42.9960 C   0  0  0  0  0  0  0  0  0  0  0  0
   58.2380   32.0020   44.2370 C   0  0  0  0  0  0  0  0  0  0  0  0
   58.0080   30.7080   44.6730 C   0  0  0  0  0  0  0  0  0  0  0  0
   59.2490   30.2260   47.4200 C   0  0  0  0  0  0  0  0  0  0  0  0
   59.8230   31.2940   48.0720 C   0  0  0  0  0  0  0  0  0  0  0  0
   62.8800   31.4860   49.8840 C   0  0  0  0  0  0  0  0  0  0  0  0
   64.1760   32.0040   49.3490 C   0  0  0  0  0  0  0  0  0  0  0  0
   66.5201   34.0396   52.3575 H   0  0  0  0  0  0  0  0  0  0  0  0
   67.6873   34.3957   51.0393 H   0  0  0  0  0  0  0  0  0  0  0  0
   66.0679   35.1730   51.0393 H   0  0  0  0  0  0  0  0  0  0  0  0
   64.2829   34.8559   51.1682 H   0  0  0  0  0  0  0  0  0  0  0  0
   63.4950   34.6842   49.5344 H   0  0  0  0  0  0  0  0  0  0  0  0
   62.7209   33.3696   52.1530 H   0  0  0  0  0  0  0  0  0  0  0  0
   61.7492   34.4573   51.0997 H   0  0  0  0  0  0  0  0  0  0  0  0
   59.7661   30.1155   51.2108 H   0  0  0  0  0  0  0  0  0  0  0  0
   58.7375   28.2000   50.0385 H   0  0  0  0  0  0  0  0  0  0  0  0
   57.2370   28.1370   47.0860 H   0  0  0  0  0  0  0  0  0  0  0  0
   58.2280   24.3116   47.6344 H   0  0  0  0  0  0  0  0  0  0  0  0
   56.1620   20.4570   45.9430 H   0  0  0  0  0  0  0  0  0  0  0  0
   55.5230   21.0040   43.7440 H   0  0  0  0  0  0  0  0  0  0  0  0
   56.8662   25.4098   43.0107 H   0  0  0  0  0  0  0  0  0  0  0  0
   58.8620   27.5150   43.5740 H   0  0  0  0  0  0  0  0  0  0  0  0
   56.2760   29.4121   42.0528 H   0  0  0  0  0  0  0  0  0  0  0  0
   56.6836   31.7452   41.2453 H   0  0  0  0  0  0  0  0  0  0  0  0
   57.9136   33.3748   42.6145 H   0  0  0  0  0  0  0  0  0  0  0  0
   58.7898   32.7225   44.8586 H   0  0  0  0  0  0  0  0  0  0  0  0
   58.3885   30.4055   45.6598 H   0  0  0  0  0  0  0  0  0  0  0  0
   59.1103   30.2808   46.3302 H   0  0  0  0  0  0  0  0  0  0  0  0
   60.1291   32.1747   47.4883 H   0  0  0  0  0  0  0  0  0  0  0  0
   63.0952   30.7805   50.7000 H   0  0  0  0  0  0  0  0  0  0  0  0
   62.3509   31.0022   49.0497 H   0  0  0  0  0  0  0  0  0  0  0  0
   64.9131   31.1876   49.3642 H   0  0  0  0  0  0  0  0  0  0  0  0
   63.9890   32.3685   48.3282 H   0  0  0  0  0  0  0  0  0  0  0  0
  1  2  1  0
  2  3  2  0
  2  4  1  0
  4  5  1  0
  5  6  1  0
  6  7  1  0
  7  8  1  0
  8  9  2  0
  8 10  1  0
 10 11  2  0
 11 12  1  0
 12 13  2  0
 13 14  1  0
 14 15  1  0
 15 16  2  0
 15 17  1  0
 17 18  2  0
 18 19  1  0
 19 20  1  0
 20 21  2  0
 20 22  1  0
 22 23  1  0
 23 24  1  0
 24 25  2  0
 24 26  1  0
 26 27  1  0
 27 28  2  0
 28 29  1  0
 29 30  1  0
 30 31  2  0
 30 32  1  0
 32 33  2  0
 33 34  1  0
 34 35  2  0
 35 36  1  0
 36 37  2  0
 13 38  1  0
 38 39  2  0
  7 40  1  0
 40 41  1  0
 41  4  1  0
 39 10  1  0
 28 17  1  0
 37 32  1  0
 26 19  2  0
  1 42  1  0
  1 43  1  0
  1 44  1  0
  5 45  1  0
  5 46  1  0
  6 47  1  0
  6 48  1  0
 11 49  1  0
 12 50  1  0
 14 51  1  0
 18 52  1  0
 22 53  1  0
 23 54  1  0
 27 55  1  0
 29 56  1  0
 33 57  1  0
 34 58  1  0
 35 59  1  0
 36 60  1  0
 37 61  1  0
 38 62  1  0
 39 63  1  0
 40 64  1  0
 40 65  1  0
 41 66  1  0
 41 67  1  0
M  END
>  <smiles>  (78) 
CC(=O)N1CCN(C(=O)c2ccc(NC(=O)c3cc4c(=O)[nH][nH]c(=O)c4cc3NC(=O)c3ccccc3)cc2)CC1

>  <score_type>  (78) 
oracle

>  <origin>  (78) 
adg

>  <m_score__min__energy>  (78) 
-10.07

>  <m_primary>  (78) 
energy

$$$$
78:0
     RDKit          3D

 53 55  0  0  0  0  0  0  0  0999 V2000
   63.7690   33.3310   47.1410 C   0  0  0  0  0  0  0  0  0  0  0  0
   62.5700   33.8580   47.3930 C   0  0  0  0  0  0  0  0  0  0  0  0
   61.2860   33.2110   47.0280 C   0  0  0  0  0  0  0  0  0  0  0  0
   60.1510   33.9460   46.6480 C   0  0  0  0  0  0  0  0  0  0  0  0
   58.9670   33.2930   46.3010 C   0  0  0  0  0  0  0  0  0  0  0  0
   58.8920   31.8880   46.3220 C   0  0  0  0  0  0  0  0  0  0  0  0
   57.7410   31.1990   45.9040 O   0  0  0  0  0  0  0  0  0  0  0  0
   57.5780   30.5050   44.6680 C   0  0  0  0  0  0  0  0  0  0  0  0
   56.6630   29.3150   44.8050 C   0  0  0  0  0  0  0  0  0  0  0  0
   55.4210   29.5290   44.8650 O   0  0  0  0  0  0  0  0  0  0  0  0
   57.1590   27.9620   44.9270 N   0  0  0  0  0  0  0  0  0  0  0  0
   57.9380   27.3960   43.8200 C   0  0  0  0  0  0  0  0  0  0  0  0
   57.0350   27.1840   46.1680 C   0  0  0  0  0  0  0  0  0  0  0  0
   56.2060   25.9600   45.9290 C   0  0  0  0  0  0  0  0  0  0  0  0
   56.6940   24.6800   45.7520 C   0  0  0  0  0  0  0  0  0  0  0  0
   55.5870   23.8820   45.5540 C   0  0  0  0  0  0  0  0  0  0  0  0
   54.4980   24.7310   45.6120 C   0  0  0  0  0  0  0  0  0  0  0  0
   53.0720   24.3320   45.4320 C   0  0  0  0  0  0  0  0  0  0  0  0
   54.8950   25.9610   45.8360 O   0  0  0  0  0  0  0  0  0  0  0  0
   60.0100   31.1450   46.7500 C   0  0  0  0  0  0  0  0  0  0  0  0
   59.9500   29.7070   46.8330 N   0  0  0  0  0  0  0  0  0  0  0  0
   60.4650   28.8980   45.7200 C   0  0  0  0  0  0  0  0  0  0  0  0
   60.3440   27.4080   46.0470 C   0  0  0  0  0  0  0  0  0  0  0  0
   60.6700   27.2020   47.4050 O   0  0  0  0  0  0  0  0  0  0  0  0
   59.6280   27.6810   48.2400 C   0  0  0  0  0  0  0  0  0  0  0  0
   59.0830   29.0700   47.8300 C   0  0  0  0  0  0  0  0  0  0  0  0
   61.1960   31.8130   47.0940 C   0  0  0  0  0  0  0  0  0  0  0  0
   64.6803   33.8689   47.4413 H   0  0  0  0  0  0  0  0  0  0  0  0
   63.8466   32.3585   46.6329 H   0  0  0  0  0  0  0  0  0  0  0  0
   62.5309   34.8320   47.9027 H   0  0  0  0  0  0  0  0  0  0  0  0
   60.1955   35.0448   46.6236 H   0  0  0  0  0  0  0  0  0  0  0  0
   58.0851   33.8818   46.0086 H   0  0  0  0  0  0  0  0  0  0  0  0
   57.1526   31.1965   43.9258 H   0  0  0  0  0  0  0  0  0  0  0  0
   58.5658   30.1394   44.3508 H   0  0  0  0  0  0  0  0  0  0  0  0
   58.7657   26.7946   44.2240 H   0  0  0  0  0  0  0  0  0  0  0  0
   57.2882   26.7579   43.2030 H   0  0  0  0  0  0  0  0  0  0  0  0
   58.3441   28.2111   43.2030 H   0  0  0  0  0  0  0  0  0  0  0  0
   58.0363   26.8838   46.5105 H   0  0  0  0  0  0  0  0  0  0  0  0
   56.5471   27.8046   46.9341 H   0  0  0  0  0  0  0  0  0  0  0  0
   57.7472   24.3630   45.7661 H   0  0  0  0  0  0  0  0  0  0  0  0
   55.5735   22.7952   45.3850 H   0  0  0  0  0  0  0  0  0  0  0  0
   52.6010   24.2002   46.4173 H   0  0  0  0  0  0  0  0  0  0  0  0
   52.5397   25.1157   44.8730 H   0  0  0  0  0  0  0  0  0  0  0  0
   53.0237   23.3859   44.8730 H   0  0  0  0  0  0  0  0  0  0  0  0
   59.8847   29.1187   44.8119 H   0  0  0  0  0  0  0  0  0  0  0  0
   61.5248   29.1443   45.5586 H   0  0  0  0  0  0  0  0  0  0  0  0
   59.3127   27.0734   45.8615 H   0  0  0  0  0  0  0  0  0  0  0  0
   61.0330   26.8332   45.4106 H   0  0  0  0  0  0  0  0  0  0  0  0
   58.7981   26.9598   48.2062 H   0  0  0  0  0  0  0  0  0  0  0  0
   60.0525   27.7902   49.2489 H   0  0  0  0  0  0  0  0  0  0  0  0
   58.0758   28.9489   47.4046 H   0  0  0  0  0  0  0  0  0  0  0  0
   59.0521   29.7098   48.7243 H   0  0  0  0  0  0  0  0  0  0  0  0
   62.0696   31.2299   47.4209 H   0  0  0  0  0  0  0  0  0  0  0  0
  1  2  2  0
  2  3  1  0
  3  4  2  0
  4  5  1  0
  5  6  2  0
  6  7  1  0
  7  8  1  0
  8  9  1  0
  9 10  2  0
  9 11  1  0
 11 12  1  0
 11 13  1  0
 13 14  1  0
 14 15  2  0
 15 16  1  0
 16 17  2  0
 17 18  1  0
 17 19  1  0
  6 20  1  0
 20 21  1  0
 21 22  1  0
 22 23  1  0
 23 24  1  0
 24 25  1  0
 25 26  1  0
 20 27  2  0
 27  3  1  0
 19 14  1  0
 26 21  1  0
  1 28  1  0
  1 29  1  0
  2 30  1  0
  4 31  1  0
  5 32  1  0
  8 33  1  0
  8 34  1  0
 12 35  1  0
 12 36  1  0
 12 37  1  0
 13 38  1  0
 13 39  1  0
 15 40  1  0
 16 41  1  0
 18 42  1  0
 18 43  1  0
 18 44  1  0
 22 45  1  0
 22 46  1  0
 23 47  1  0
 23 48  1  0
 25 49  1  0
 25 50  1  0
 26 51  1  0
 26 52  1  0
 27 53  1  0
M  END
>  <UniqueID>  (79) 
73

>  <SMILES>  (79) 
C=Cc1ccc(OCC(=O)N(C)Cc2ccc(C)o2)c(N2CCOCC2)c1

>  <Energy>  (79) 
82.52020476575973

>  <Genealogy>  (79) 
C=Cc1ccc(OCC(=O)N(C)Cc2ccc(C)o2)c(N2CCOCC2)c1 (3D coordinates assigned)
C=Cc1ccc(OCC(=O)N(C)Cc2ccc(C)o2)c(N2CCOCC2)c1 (nonaromatic ring conformer: 82.52020476575973 kcal/mol)

>  <smiles>  (79) 
C=Cc1ccc(OCC(=O)N(C)Cc2ccc(C)o2)c(N2CCOCC2)c1

>  <score_type>  (79) 
oracle

>  <origin>  (79) 
adg

>  <m_score__min__energy>  (79) 
-8.3200000000000003

>  <m_primary>  (79) 
energy

$$$$
79:0
     RDKit          3D

 49 52  0  0  0  0  0  0  0  0999 V2000
   51.2360   32.3160   51.2900 N   0  0  0  0  0  0  0  0  0  0  0  0
   51.6400   30.6760   51.6500 S   0  0  0  0  0  0  0  0  0  0  0  0
   51.4420   29.8400   50.4170 O   0  0  0  0  0  0  0  0  0  0  0  0
   50.7400   30.1630   52.7380 O   0  0  0  0  0  0  0  0  0  0  0  0
   53.3140   30.5890   52.1890 C   0  0  0  0  0  0  0  0  0  0  0  0
   54.3330   31.2430   51.4830 C   0  0  0  0  0  0  0  0  0  0  0  0
   55.6570   31.1610   51.9220 C   0  0  0  0  0  0  0  0  0  0  0  0
   55.9790   30.4250   53.0730 C   0  0  0  0  0  0  0  0  0  0  0  0
   57.4060   30.3060   53.5350 C   0  0  0  0  0  0  0  0  0  0  0  0
   58.3040   30.9280   52.5650 N   0  0  0  0  0  0  0  0  0  0  0  0
   58.4150   30.4590   51.2100 C   0  0  0  0  0  0  0  0  0  0  0  0
   57.7590   29.4430   50.8490 O   0  0  0  0  0  0  0  0  0  0  0  0
   59.3050   31.1320   50.2330 C   0  0  0  0  0  0  0  0  0  0  0  0
   60.3820   31.9270   50.6580 C   0  0  0  0  0  0  0  0  0  0  0  0
   61.2010   32.5660   49.7260 C   0  0  0  0  0  0  0  0  0  0  0  0
   60.9580   32.4370   48.3500 C   0  0  0  0  0  0  0  0  0  0  0  0
   61.8410   33.1820   47.3790 C   0  0  0  0  0  0  0  0  0  0  0  0
   63.0900   33.8190   47.9790 C   0  0  0  0  0  0  0  0  0  0  0  0
   63.2130   32.5580   47.1480 C   0  0  0  0  0  0  0  0  0  0  0  0
   59.9090   31.5950   47.9140 C   0  0  0  0  0  0  0  0  0  0  0  0
   59.6370   31.3780   46.5230 N   0  0  0  0  0  0  0  0  0  0  0  0
   59.1730   30.1380   45.9760 C   0  0  0  0  0  0  0  0  0  0  0  0
   59.9270   29.1290   45.9580 O   0  0  0  0  0  0  0  0  0  0  0  0
   57.8020   30.0370   45.4610 C   0  0  0  0  0  0  0  0  0  0  0  0
   57.0860   31.0040   44.7890 C   0  0  0  0  0  0  0  0  0  0  0  0
   55.8650   30.5170   44.4980 N   0  0  0  0  0  0  0  0  0  0  0  0
   55.7810   29.2780   44.9640 N   0  0  0  0  0  0  0  0  0  0  0  0
   56.9480   28.9610   45.5560 C   0  0  0  0  0  0  0  0  0  0  0  0
   59.0710   30.9870   48.8550 C   0  0  0  0  0  0  0  0  0  0  0  0
   54.9570   29.7690   53.7770 C   0  0  0  0  0  0  0  0  0  0  0  0
   53.6320   29.8530   53.3380 C   0  0  0  0  0  0  0  0  0  0  0  0
   50.2760   32.3090   50.8810 H   0  0  0  0  0  0  0  0  0  0  0  0
   54.0896   31.8227   50.5804 H   0  0  0  0  0  0  0  0  0  0  0  0
   56.4516   31.6762   51.3623 H   0  0  0  0  0  0  0  0  0  0  0  0
   57.5164   30.8091   54.5070 H   0  0  0  0  0  0  0  0  0  0  0  0
   57.6643   29.2411   53.6318 H   0  0  0  0  0  0  0  0  0  0  0  0
   58.9290   31.6910   52.9050 H   0  0  0  0  0  0  0  0  0  0  0  0
   60.5814   32.0468   51.7331 H   0  0  0  0  0  0  0  0  0  0  0  0
   62.0465   33.1776   50.0740 H   0  0  0  0  0  0  0  0  0  0  0  0
   61.0195   33.5336   46.7375 H   0  0  0  0  0  0  0  0  0  0  0  0
   63.4626   34.7757   47.5842 H   0  0  0  0  0  0  0  0  0  0  0  0
   63.4007   34.1150   48.9918 H   0  0  0  0  0  0  0  0  0  0  0  0
   63.6749   32.6002   46.1506 H   0  0  0  0  0  0  0  0  0  0  0  0
   63.6499   31.5614   47.3091 H   0  0  0  0  0  0  0  0  0  0  0  0
   57.4521   32.0091   44.5324 H   0  0  0  0  0  0  0  0  0  0  0  0
   57.1811   27.9996   46.0369 H   0  0  0  0  0  0  0  0  0  0  0  0
   58.2161   30.3864   48.5110 H   0  0  0  0  0  0  0  0  0  0  0  0
   55.1995   29.1863   54.6779 H   0  0  0  0  0  0  0  0  0  0  0  0
   52.8361   29.3391   53.8970 H   0  0  0  0  0  0  0  0  0  0  0  0
  1  2  1  0
  2  3  2  0
  2  4  2  0
  2  5  1  0
  5  6  2  0
  6  7  1  0
  7  8  2  0
  8  9  1  0
  9 10  1  0
 10 11  1  0
 11 12  2  0
 11 13  1  0
 13 14  2  0
 14 15  1  0
 15 16  2  0
 16 17  1  0
 17 18  1  0
 18 19  1  0
 16 20  1  0
 20 21  1  0
 21 22  1  0
 22 23  2  0
 22 24  1  0
 24 25  1  0
 25 26  2  0
 26 27  1  0
 27 28  1  0
 20 29  2  0
  8 30  1  0
 30 31  2  0
 31  5  1  0
 29 13  1  0
 19 17  1  0
 28 24  2  0
  1 32  1  0
  6 33  1  0
  7 34  1  0
  9 35  1  0
  9 36  1  0
 10 37  1  0
 14 38  1  0
 15 39  1  0
 17 40  1  0
 18 41  1  0
 18 42  1  0
 19 43  1  0
 19 44  1  0
 25 45  1  0
 28 46  1  0
 29 47  1  0
 30 48  1  0
 31 49  1  0
M  CHG  3   1  -1  21  -1  27  -1
M  END
>  <UniqueID>  (80) 
74

>  <SMILES>  (80) 
[NH-]S(=O)(=O)c1ccc(CNC(=O)c2ccc(C3CC3)c([N-]C(=O)c3cn[n-]c3)c2)cc1

>  <Energy>  (80) 
351.16348809240003

>  <Genealogy>  (80) 
[NH-]S(=O)(=O)c1ccc(CNC(=O)c2ccc(C3CC3)c([N-]C(=O)c3cn[n-]c3)c2)cc1 (protonated)
[NH-]S(=O)(=O)c1ccc(CNC(=O)c2ccc(C3CC3)c([N-]C(=O)c3cn[n-]c3)c2)cc1 (3D coordinates assigned)
[NH-]S(=O)(=O)c1ccc(CNC(=O)c2ccc(C3CC3)c([N-]C(=O)c3cn[n-]c3)c2)cc1 (nonaromatic ring conformer: 351.16348809240003 kcal/mol)

>  <smiles>  (80) 
NS(=O)(=O)c1ccc(CNC(=O)c2ccc(C3CC3)c(NC(=O)c3cn[nH]c3)c2)cc1

>  <score_type>  (80) 
oracle

>  <origin>  (80) 
adg

>  <m_score__min__energy>  (80) 
-14.210000000000001

>  <m_primary>  (80) 
energy

$$$$
80:0
     RDKit          3D

 45 47  0  0  0  0  0  0  0  0999 V2000
   61.4650   31.8830   47.5900 C   0  0  0  0  0  0  0  0  0  0  0  0
   61.4840   33.6640   47.4840 S   0  0  0  0  0  0  0  0  0  0  0  0
   61.8020   34.2260   48.8420 O   0  0  0  0  0  0  0  0  0  0  0  0
   62.5650   34.0820   46.5260 O   0  0  0  0  0  0  0  0  0  0  0  0
   59.9470   34.3010   46.9470 N   0  0  0  0  0  0  0  0  0  0  0  0
   59.9270   34.4120   45.4730 C   0  0  0  0  0  0  0  0  0  0  0  0
   58.5030   34.6420   44.9530 C   0  0  0  0  0  0  0  0  0  0  0  0
   57.5530   33.4690   45.3200 C   0  0  0  0  0  0  0  0  0  0  0  0
   57.3270   32.5980   44.1510 N   0  0  0  0  0  0  0  0  0  0  0  0
   56.9340   31.2450   44.5900 C   0  0  1  0  0  0  0  0  0  0  0  0
   56.3580   30.3780   43.4710 C   0  0  0  0  0  0  0  0  0  0  0  0
   57.7640   30.1050   44.0030 C   0  0  2  0  0  0  0  0  0  0  0  0
   57.9510   28.8760   44.8750 C   0  0  0  0  0  0  0  0  0  0  0  0
   59.2390   28.6200   45.3690 C   0  0  0  0  0  0  0  0  0  0  0  0
   59.4830   27.5120   46.1820 C   0  0  0  0  0  0  0  0  0  0  0  0
   58.4460   26.6410   46.5150 C   0  0  0  0  0  0  0  0  0  0  0  0
   57.1440   26.8700   46.0370 C   0  0  0  0  0  0  0  0  0  0  0  0
   56.0410   25.9450   46.3910 C   0  0  0  0  0  0  0  0  0  0  0  0
   54.7290   26.1450   45.8670 N   0  0  0  0  0  0  0  0  0  0  0  0
   56.2500   24.9700   47.1620 O   0  0  0  0  0  0  0  0  0  0  0  0
   56.9050   27.9890   45.2180 C   0  0  0  0  0  0  0  0  0  0  0  0
   58.1060   32.6420   46.5050 C   0  0  0  0  0  0  0  0  0  0  0  0
   58.8100   33.5440   47.5270 C   0  0  0  0  0  0  0  0  0  0  0  0
   61.4618   31.5786   48.6470 H   0  0  0  0  0  0  0  0  0  0  0  0
   60.5627   31.4958   47.0942 H   0  0  0  0  0  0  0  0  0  0  0  0
   62.3589   31.4766   47.0942 H   0  0  0  0  0  0  0  0  0  0  0  0
   60.5611   35.2576   45.1683 H   0  0  0  0  0  0  0  0  0  0  0  0
   60.3050   33.4705   45.0479 H   0  0  0  0  0  0  0  0  0  0  0  0
   58.1092   35.5694   45.3944 H   0  0  0  0  0  0  0  0  0  0  0  0
   58.5489   34.7117   43.8562 H   0  0  0  0  0  0  0  0  0  0  0  0
   56.5917   33.9048   45.6297 H   0  0  0  0  0  0  0  0  0  0  0  0
   58.2060   32.5510   43.5810 H   0  0  0  0  0  0  0  0  0  0  0  0
   56.6230   31.5301   45.6059 H   0  0  0  0  0  0  0  0  0  0  0  0
   55.5418   29.6727   43.6863 H   0  0  0  0  0  0  0  0  0  0  0  0
   55.9263   30.5744   42.4785 H   0  0  0  0  0  0  0  0  0  0  0  0
   58.7620   30.0189   43.5486 H   0  0  0  0  0  0  0  0  0  0  0  0
   60.0652   29.2996   45.1129 H   0  0  0  0  0  0  0  0  0  0  0  0
   60.4982   27.3249   46.5619 H   0  0  0  0  0  0  0  0  0  0  0  0
   58.6480   25.7698   47.1554 H   0  0  0  0  0  0  0  0  0  0  0  0
   54.0340   26.7380   46.3720 H   0  0  0  0  0  0  0  0  0  0  0  0
   55.8894   28.1763   44.8391 H   0  0  0  0  0  0  0  0  0  0  0  0
   57.2728   32.1211   46.9994 H   0  0  0  0  0  0  0  0  0  0  0  0
   58.8373   31.9186   46.1151 H   0  0  0  0  0  0  0  0  0  0  0  0
   58.0773   34.2619   47.9242 H   0  0  0  0  0  0  0  0  0  0  0  0
   59.2163   32.8930   48.3151 H   0  0  0  0  0  0  0  0  0  0  0  0
  1  2  1  0
  2  3  2  0
  2  4  2  0
  2  5  1  0
  5  6  1  0
  6  7  1  0
  7  8  1  0
  8  9  1  0
  9 10  1  0
 10 11  1  0
 11 12  1  0
 12 13  1  0
 13 14  2  0
 14 15  1  0
 15 16  2  0
 16 17  1  0
 17 18  1  0
 18 19  1  0
 18 20  2  0
 17 21  2  0
  8 22  1  0
 22 23  1  0
 23  5  1  0
 12 10  1  0
 21 13  1  0
  1 24  1  0
  1 25  1  0
  1 26  1  0
  6 27  1  0
  6 28  1  0
  7 29  1  0
  7 30  1  0
  8 31  1  0
  9 32  1  0
 10 33  1  1
 11 34  1  0
 11 35  1  0
 12 36  1  6
 14 37  1  0
 15 38  1  0
 16 39  1  0
 19 40  1  0
 21 41  1  0
 22 42  1  0
 22 43  1  0
 23 44  1  0
 23 45  1  0
M  CHG  1  19  -1
M  END
>  <UniqueID>  (81) 
75

>  <SMILES>  (81) 
CS(=O)(=O)N1CCC(N[C@H]2C[C@@H]2c2cccc(C([NH-])=O)c2)CC1

>  <Energy>  (81) 
319.63962483466014

>  <Genealogy>  (81) 
CS(=O)(=O)N1CCC(NC2CC2c2cccc(C([NH-])=O)c2)CC1 (protonated)
CS(=O)(=O)N1CCC(N[C@H]2C[C@@H]2c2cccc(C([NH-])=O)c2)CC1 (chirality)
CS(=O)(=O)N1CCC(N[C@H]2C[C@@H]2c2cccc(C([NH-])=O)c2)CC1 (3D coordinates assigned)
CS(=O)(=O)N1CCC(N[C@H]2C[C@@H]2c2cccc(C([NH-])=O)c2)CC1 (nonaromatic ring conformer: 319.63962483466014 kcal/mol)

>  <smiles>  (81) 
CS(=O)(=O)N1CCC(NC2CC2c2cccc(C(N)=O)c2)CC1

>  <score_type>  (81) 
oracle

>  <origin>  (81) 
adg

>  <m_score__min__energy>  (81) 
-12.51

>  <m_primary>  (81) 
energy

$$$$
81:0
     RDKit          3D

 51 54  0  0  0  0  0  0  0  0999 V2000
   54.7730   26.3340   45.9820 N   0  0  0  0  0  0  0  0  0  0  0  0
   56.0480   25.1760   46.1310 S   0  0  0  0  0  0  0  0  0  0  0  0
   56.0200   24.2480   44.9500 O   0  0  0  0  0  0  0  0  0  0  0  0
   55.8480   24.3680   47.3830 O   0  0  0  0  0  0  0  0  0  0  0  0
   57.5960   26.0110   46.2030 C   0  0  0  0  0  0  0  0  0  0  0  0
   58.7710   25.2970   46.4720 C   0  0  0  0  0  0  0  0  0  0  0  0
   60.0000   25.9570   46.5020 C   0  0  0  0  0  0  0  0  0  0  0  0
   60.0650   27.3320   46.2650 C   0  0  0  0  0  0  0  0  0  0  0  0
   58.8960   28.0680   46.0010 C   0  0  0  0  0  0  0  0  0  0  0  0
   58.9870   29.5240   45.7450 C   0  0  0  0  0  0  0  0  0  0  0  0
   60.0920   30.0100   45.3780 O   0  0  0  0  0  0  0  0  0  0  0  0
   57.8410   30.3840   45.9000 N   0  0  0  0  0  0  0  0  0  0  0  0
   57.8900   31.8130   45.7580 C   0  0  0  0  0  0  0  0  0  0  0  0
   57.2980   32.4130   44.6370 C   0  0  0  0  0  0  0  0  0  0  0  0
   57.3240   33.8010   44.4800 C   0  0  0  0  0  0  0  0  0  0  0  0
   57.9240   34.6050   45.4510 C   0  0  0  0  0  0  0  0  0  0  0  0
   58.4850   34.0260   46.6000 C   0  0  0  0  0  0  0  0  0  0  0  0
   59.1500   34.8930   47.6410 C   0  0  0  0  0  0  0  0  0  0  0  0
   60.0660   34.1090   48.5550 C   0  0  0  0  0  0  0  0  0  0  0  0
   59.7350   33.9520   49.8670 N   0  0  0  0  0  0  0  0  0  0  0  0
   60.4980   33.2620   50.7150 N   0  0  0  0  0  0  0  0  0  0  0  0
   61.6530   32.6750   50.3150 C   0  0  0  0  0  0  0  0  0  0  0  0
   62.3310   32.0140   51.1450 O   0  0  0  0  0  0  0  0  0  0  0  0
   62.0720   32.8130   48.9840 C   0  0  0  0  0  0  0  0  0  0  0  0
   61.2750   33.5450   48.0900 C   0  0  0  0  0  0  0  0  0  0  0  0
   61.7420   33.6450   46.6550 C   0  0  0  0  0  0  0  0  0  0  0  0
   63.2450   33.9550   46.6010 C   0  0  0  0  0  0  0  0  0  0  0  0
   64.1120   33.0650   47.5270 C   0  0  0  0  0  0  0  0  0  0  0  0
   63.3140   32.1340   48.4580 C   0  0  0  0  0  0  0  0  0  0  0  0
   58.4680   32.6290   46.7480 C   0  0  0  0  0  0  0  0  0  0  0  0
   57.6610   27.3910   45.9590 C   0  0  0  0  0  0  0  0  0  0  0  0
   55.2100   27.2800   46.0590 H   0  0  0  0  0  0  0  0  0  0  0  0
   58.7246   24.2142   46.6599 H   0  0  0  0  0  0  0  0  0  0  0  0
   60.9204   25.3928   46.7129 H   0  0  0  0  0  0  0  0  0  0  0  0
   61.0387   27.8435   46.2850 H   0  0  0  0  0  0  0  0  0  0  0  0
   56.9040   29.9600   46.0750 H   0  0  0  0  0  0  0  0  0  0  0  0
   56.8098   31.7863   43.8761 H   0  0  0  0  0  0  0  0  0  0  0  0
   56.8709   34.2613   43.5896 H   0  0  0  0  0  0  0  0  0  0  0  0
   57.9572   35.6961   45.3151 H   0  0  0  0  0  0  0  0  0  0  0  0
   59.7414   35.6665   47.1292 H   0  0  0  0  0  0  0  0  0  0  0  0
   58.3567   35.3329   48.2632 H   0  0  0  0  0  0  0  0  0  0  0  0
   61.5505   32.6898   46.1442 H   0  0  0  0  0  0  0  0  0  0  0  0
   61.1923   34.4572   46.1569 H   0  0  0  0  0  0  0  0  0  0  0  0
   63.5892   33.8136   45.5659 H   0  0  0  0  0  0  0  0  0  0  0  0
   63.3666   34.9898   46.9536 H   0  0  0  0  0  0  0  0  0  0  0  0
   64.7607   32.4419   46.8938 H   0  0  0  0  0  0  0  0  0  0  0  0
   64.6725   33.7503   48.1799 H   0  0  0  0  0  0  0  0  0  0  0  0
   63.0199   31.2342   47.8978 H   0  0  0  0  0  0  0  0  0  0  0  0
   63.9528   31.8699   49.3137 H   0  0  0  0  0  0  0  0  0  0  0  0
   58.9098   32.1696   47.6445 H   0  0  0  0  0  0  0  0  0  0  0  0
   56.7404   27.9490   45.7331 H   0  0  0  0  0  0  0  0  0  0  0  0
  1  2  1  0
  2  3  2  0
  2  4  2  0
  2  5  1  0
  5  6  2  0
  6  7  1  0
  7  8  2  0
  8  9  1  0
  9 10  1  0
 10 11  2  0
 10 12  1  0
 12 13  1  0
 13 14  2  0
 14 15  1  0
 15 16  2  0
 16 17  1  0
 17 18  1  0
 18 19  1  0
 19 20  2  0
 20 21  1  0
 21 22  1  0
 22 23  2  0
 22 24  1  0
 24 25  2  0
 25 26  1  0
 26 27  1  0
 27 28  1  0
 28 29  1  0
 17 30  2  0
  9 31  2  0
 31  5  1  0
 30 13  1  0
 25 19  1  0
 29 24  1  0
  1 32  1  0
  6 33  1  0
  7 34  1  0
  8 35  1  0
 12 36  1  0
 14 37  1  0
 15 38  1  0
 16 39  1  0
 18 40  1  0
 18 41  1  0
 26 42  1  0
 26 43  1  0
 27 44  1  0
 27 45  1  0
 28 46  1  0
 28 47  1  0
 29 48  1  0
 29 49  1  0
 30 50  1  0
 31 51  1  0
M  CHG  2   1  -1  21  -1
M  END
>  <UniqueID>  (82) 
76

>  <SMILES>  (82) 
[NH-]S(=O)(=O)c1cccc(C(=O)Nc2cccc(Cc3n[n-]c(=O)c4c3CCCC4)c2)c1

>  <Energy>  (82) 
70.07253376499655

>  <Genealogy>  (82) 
[NH-]S(=O)(=O)c1cccc(C(=O)Nc2cccc(Cc3n[n-]c(=O)c4c3CCCC4)c2)c1 (protonated)
[NH-]S(=O)(=O)c1cccc(C(=O)Nc2cccc(Cc3n[n-]c(=O)c4c3CCCC4)c2)c1 (3D coordinates assigned)
[NH-]S(=O)(=O)c1cccc(C(=O)Nc2cccc(Cc3n[n-]c(=O)c4c3CCCC4)c2)c1 (nonaromatic ring conformer: 70.07253376499655 kcal/mol)

>  <smiles>  (82) 
NS(=O)(=O)c1cccc(C(=O)Nc2cccc(Cc3n[nH]c(=O)c4c3CCCC4)c2)c1

>  <score_type>  (82) 
oracle

>  <origin>  (82) 
adg

>  <m_score__min__energy>  (82) 
-14.99

>  <m_primary>  (82) 
energy

$$$$
82:0
     RDKit          3D

 52 55  0  0  0  0  0  0  0  0999 V2000
   62.4910   30.9690   47.7200 O   0  0  0  0  0  0  0  0  0  0  0  0
   61.9150   31.7290   48.6150 C   0  0  0  0  0  0  0  0  0  0  0  0
   61.6540   31.0830   49.8820 C   0  0  0  0  0  0  0  0  0  0  0  0
   61.0960   29.7750   49.8940 N   0  0  0  0  0  0  0  0  0  0  0  0
   59.5520   29.8850   49.0720 S   0  0  0  0  0  0  0  0  0  0  0  0
   58.4640   29.3150   49.9030 O   0  0  0  0  0  0  0  0  0  0  0  0
   59.2170   31.3180   48.7690 O   0  0  0  0  0  0  0  0  0  0  0  0
   59.6220   28.9940   47.5570 C   0  0  0  0  0  0  0  0  0  0  0  0
   60.3590   29.4550   46.4810 C   0  0  0  0  0  0  0  0  0  0  0  0
   60.3560   28.6830   45.3210 C   0  0  0  0  0  0  0  0  0  0  0  0
   59.6410   27.5020   45.2520 C   0  0  0  0  0  0  0  0  0  0  0  0
   58.9110   27.0570   46.3370 C   0  0  0  0  0  0  0  0  0  0  0  0
   58.8970   27.8010   47.4960 C   0  0  0  0  0  0  0  0  0  0  0  0
   61.6630   33.0280   48.1680 N   0  0  0  0  0  0  0  0  0  0  0  0
   62.1280   33.3260   46.7900 C   0  0  0  0  0  0  0  0  0  0  0  0
   61.0190   33.8600   45.9730 C   0  0  0  0  0  0  0  0  0  0  0  0
   60.1690   34.8070   46.6080 N   0  0  0  0  0  0  0  0  0  0  0  0
   58.8870   34.9230   45.9480 C   0  0  0  0  0  0  0  0  0  0  0  0
   58.4220   33.6540   45.3670 C   0  0  0  0  0  0  0  0  0  0  0  0
   58.1410   33.3400   44.1100 N   0  0  0  0  0  0  0  0  0  0  0  0
   57.7410   32.0710   43.9670 C   0  0  0  0  0  0  0  0  0  0  0  0
   57.3430   31.2640   42.9100 C   0  0  0  0  0  0  0  0  0  0  0  0
   56.9860   29.9400   43.1520 C   0  0  0  0  0  0  0  0  0  0  0  0
   57.0170   29.4030   44.4330 C   0  0  0  0  0  0  0  0  0  0  0  0
   57.4170   30.2180   45.4870 C   0  0  0  0  0  0  0  0  0  0  0  0
   57.7780   31.5440   45.2620 C   0  0  0  0  0  0  0  0  0  0  0  0
   58.1970   32.5320   46.1010 N   0  0  0  0  0  0  0  0  0  0  0  0
   59.9250   34.6540   47.9770 C   0  0  0  0  0  0  0  0  0  0  0  0
   61.0110   34.1040   48.8510 C   0  0  0  0  0  0  0  0  0  0  0  0
   62.6132   31.0277   50.4177 H   0  0  0  0  0  0  0  0  0  0  0  0
   60.8685   31.7057   50.3351 H   0  0  0  0  0  0  0  0  0  0  0  0
   61.6830   29.1870   49.2110 H   0  0  0  0  0  0  0  0  0  0  0  0
   60.9262   30.3957   46.5389 H   0  0  0  0  0  0  0  0  0  0  0  0
   60.9319   29.0188   44.4460 H   0  0  0  0  0  0  0  0  0  0  0  0
   59.6534   26.9110   44.3243 H   0  0  0  0  0  0  0  0  0  0  0  0
   58.3452   26.1157   46.2758 H   0  0  0  0  0  0  0  0  0  0  0  0
   58.3193   27.4586   48.3672 H   0  0  0  0  0  0  0  0  0  0  0  0
   62.9363   34.0708   46.8340 H   0  0  0  0  0  0  0  0  0  0  0  0
   62.4932   32.3963   46.3293 H   0  0  0  0  0  0  0  0  0  0  0  0
   61.4574   34.3436   45.0876 H   0  0  0  0  0  0  0  0  0  0  0  0
   60.3780   32.9952   45.7468 H   0  0  0  0  0  0  0  0  0  0  0  0
   58.1439   35.2648   46.6835 H   0  0  0  0  0  0  0  0  0  0  0  0
   59.0064   35.6388   45.1214 H   0  0  0  0  0  0  0  0  0  0  0  0
   57.3098   31.6680   41.8874 H   0  0  0  0  0  0  0  0  0  0  0  0
   56.6725   29.3051   42.3102 H   0  0  0  0  0  0  0  0  0  0  0  0
   56.7313   28.3556   44.6100 H   0  0  0  0  0  0  0  0  0  0  0  0
   57.4485   29.8109   46.5084 H   0  0  0  0  0  0  0  0  0  0  0  0
   58.3140   32.4060   47.1390 H   0  0  0  0  0  0  0  0  0  0  0  0
   59.6659   35.6477   48.3714 H   0  0  0  0  0  0  0  0  0  0  0  0
   59.1373   33.8875   48.0207 H   0  0  0  0  0  0  0  0  0  0  0  0
   61.7416   34.8958   49.0728 H   0  0  0  0  0  0  0  0  0  0  0  0
   60.5778   33.7363   49.7929 H   0  0  0  0  0  0  0  0  0  0  0  0
  1  2  2  0
  2  3  1  0
  3  4  1  0
  4  5  1  0
  5  6  2  0
  5  7  2  0
  5  8  1  0
  8  9  2  0
  9 10  1  0
 10 11  2  0
 11 12  1  0
 12 13  2  0
  2 14  1  0
 14 15  1  0
 15 16  1  0
 16 17  1  0
 17 18  1  0
 18 19  1  0
 19 20  2  0
 20 21  1  0
 21 22  2  0
 22 23  1  0
 23 24  2  0
 24 25  1  0
 25 26  2  0
 26 27  1  0
 17 28  1  0
 28 29  1  0
 13  8  1  0
 29 14  1  0
 27 19  1  0
 26 21  1  0
  3 30  1  0
  3 31  1  0
  4 32  1  0
  9 33  1  0
 10 34  1  0
 11 35  1  0
 12 36  1  0
 13 37  1  0
 15 38  1  0
 15 39  1  0
 16 40  1  0
 16 41  1  0
 18 42  1  0
 18 43  1  0
 22 44  1  0
 23 45  1  0
 24 46  1  0
 25 47  1  0
 27 48  1  0
 28 49  1  0
 28 50  1  0
 29 51  1  0
 29 52  1  0
M  END
>  <smiles>  (83) 
O=C(CNS(=O)(=O)c1ccccc1)N1CCN(Cc2nc3ccccc3[nH]2)CC1

>  <score_type>  (83) 
oracle

>  <origin>  (83) 
adg

>  <m_score__min__energy>  (83) 
-8.6899999999999995

>  <m_primary>  (83) 
energy

$$$$
83:0
     RDKit          3D

 52 55  0  0  0  0  0  0  0  0999 V2000
   57.6271   32.0068   41.6473 H   0  0  0  0  0  0  0  0  0  0  0  0
   57.3260   31.5130   42.5830 C   0  0  0  0  0  0  0  0  0  0  0  0
   56.7230   29.9480   42.7260 S   0  0  0  0  0  0  0  0  0  0  0  0
   56.5610   30.0570   44.3920 C   0  0  0  0  0  0  0  0  0  0  0  0
   56.0790   29.1040   45.1330 N   0  0  0  0  0  0  0  0  0  0  0  0
   56.8070   27.9510   45.5830 C   0  0  0  0  0  0  0  0  0  0  0  0
   58.2010   28.0380   45.6890 C   0  0  0  0  0  0  0  0  0  0  0  0
   58.7130   28.9729   45.4175 H   0  0  0  0  0  0  0  0  0  0  0  0
   58.9450   26.9430   46.1380 C   0  0  0  0  0  0  0  0  0  0  0  0
   60.0407   27.0136   46.2044 H   0  0  0  0  0  0  0  0  0  0  0  0
   58.3000   25.7610   46.5020 C   0  0  0  0  0  0  0  0  0  0  0  0
   58.8884   24.8961   46.8421 H   0  0  0  0  0  0  0  0  0  0  0  0
   56.9090   25.6750   46.4350 C   0  0  0  0  0  0  0  0  0  0  0  0
   56.4024   24.7443   46.7301 H   0  0  0  0  0  0  0  0  0  0  0  0
   56.1570   26.7680   45.9940 C   0  0  0  0  0  0  0  0  0  0  0  0
   54.7710   26.6810   45.9980 O   0  0  0  0  0  0  0  0  0  0  0  0
   56.9370   31.2670   44.8630 N   0  0  0  0  0  0  0  0  0  0  0  0
   57.3770   32.0740   43.8590 C   0  0  0  0  0  0  0  0  0  0  0  0
   57.8350   33.4770   44.1210 C   0  0  0  0  0  0  0  0  0  0  0  0
   56.9574   34.1398   44.1452 H   0  0  0  0  0  0  0  0  0  0  0  0
   58.5266   33.7678   43.3166 H   0  0  0  0  0  0  0  0  0  0  0  0
   58.5650   33.5880   45.4290 C   0  0  0  0  0  0  0  0  0  0  0  0
   59.5860   34.3220   45.5220 O   0  0  0  0  0  0  0  0  0  0  0  0
   58.0270   32.9480   46.5950 N   0  0  0  0  0  0  0  0  0  0  0  0
   57.0340   32.6280   46.5580 H   0  0  0  0  0  0  0  0  0  0  0  0
   58.7280   32.8320   47.8440 C   0  0  0  0  0  0  0  0  0  0  0  0
   59.3140   33.9500   48.4630 C   0  0  0  0  0  0  0  0  0  0  0  0
   59.2124   34.9450   48.0052 H   0  0  0  0  0  0  0  0  0  0  0  0
   60.0260   33.8030   49.6590 C   0  0  0  0  0  0  0  0  0  0  0  0
   60.4757   34.6838   50.1407 H   0  0  0  0  0  0  0  0  0  0  0  0
   60.1680   32.5410   50.2440 C   0  0  0  0  0  0  0  0  0  0  0  0
   61.0600   32.3730   51.7550 S   0  0  0  0  0  0  0  0  0  0  0  0
   61.9200   33.5910   51.9310 O   0  0  0  0  0  0  0  0  0  0  0  0
   61.9570   31.1700   51.6850 O   0  0  0  0  0  0  0  0  0  0  0  0
   59.9680   32.2440   53.1200 N   0  0  0  0  0  0  0  0  0  0  0  0
   59.7820   33.5360   53.8030 C   0  0  0  0  0  0  0  0  0  0  0  0
   59.2997   33.3566   54.7752 H   0  0  0  0  0  0  0  0  0  0  0  0
   60.7724   33.9983   53.9268 H   0  0  0  0  0  0  0  0  0  0  0  0
   58.9020   34.5100   52.9820 C   0  0  0  0  0  0  0  0  0  0  0  0
   58.2379   35.0467   53.6754 H   0  0  0  0  0  0  0  0  0  0  0  0
   59.5843   35.1866   52.4465 H   0  0  0  0  0  0  0  0  0  0  0  0
   58.1030   33.8680   52.0040 O   0  0  0  0  0  0  0  0  0  0  0  0
   57.5640   32.6710   52.5200 C   0  0  0  0  0  0  0  0  0  0  0  0
   57.0753   32.8787   53.4833 H   0  0  0  0  0  0  0  0  0  0  0  0
   56.8309   32.2708   51.8042 H   0  0  0  0  0  0  0  0  0  0  0  0
   58.6790   31.6300   52.7300 C   0  0  0  0  0  0  0  0  0  0  0  0
   58.3663   30.9346   53.5229 H   0  0  0  0  0  0  0  0  0  0  0  0
   58.8343   31.1118   51.7722 H   0  0  0  0  0  0  0  0  0  0  0  0
   59.5910   31.4240   49.6270 C   0  0  0  0  0  0  0  0  0  0  0  0
   59.6930   30.4298   50.0865 H   0  0  0  0  0  0  0  0  0  0  0  0
   58.8860   31.5690   48.4290 C   0  0  0  0  0  0  0  0  0  0  0  0
   58.4515   30.6839   47.9413 H   0  0  0  0  0  0  0  0  0  0  0  0
  1  2  1  0
  2  3  1  0
  3  4  1  0
  4  5  2  0
  5  6  1  0
  6  7  2  0
  7  8  1  0
  7  9  1  0
  9 10  1  0
  9 11  2  0
 11 12  1  0
 11 13  1  0
 13 14  1  0
 13 15  2  0
 15 16  1  0
  4 17  1  0
 17 18  1  0
 18 19  1  0
 19 20  1  0
 19 21  1  0
 19 22  1  0
 22 23  2  0
 22 24  1  0
 24 25  1  0
 24 26  1  0
 26 27  2  0
 27 28  1  0
 27 29  1  0
 29 30  1  0
 29 31  2  0
 31 32  1  0
 32 33  2  0
 32 34  2  0
 32 35  1  0
 35 36  1  0
 36 37  1  0
 36 38  1  0
 36 39  1  0
 39 40  1  0
 39 41  1  0
 39 42  1  0
 42 43  1  0
 43 44  1  0
 43 45  1  0
 43 46  1  0
 46 47  1  0
 46 48  1  0
 31 49  1  0
 49 50  1  0
 49 51  2  0
 51 52  1  0
 18  2  2  0
 51 26  1  0
 15  6  1  0
 46 35  1  0
M  CHG  2  16  -1  17  -1
M  END
>  <UniqueID>  (84) 
77

>  <SMILES>  (84) 
O=C(Cc1cs/c(=N/c2ccccc2[O-])[n-]1)Nc1ccc(S(=O)(=O)N2CCOCC2)cc1

>  <Energy>  (84) 
105.48334441247619

>  <Genealogy>  (84) 
O=C(Cc1csc(=Nc2ccccc2[O-])[n-]1)Nc1ccc(S(=O)(=O)N2CCOCC2)cc1 (protonated)
O=C(Cc1cs/c(=N/c2ccccc2[O-])[n-]1)Nc1ccc(S(=O)(=O)N2CCOCC2)cc1 (cis-trans isomerization)
O=C(Cc1cs/c(=N/c2ccccc2[O-])[n-]1)Nc1ccc(S(=O)(=O)N2CCOCC2)cc1 (3D coordinates assigned)
O=C(Cc1cs/c(=N/c2ccccc2[O-])[n-]1)Nc1ccc(S(=O)(=O)N2CCOCC2)cc1 (nonaromatic ring conformer: 105.48334441247619 kcal/mol)

>  <smiles>  (84) 
O=C(Cc1csc(=Nc2ccccc2O)[nH]1)Nc1ccc(S(=O)(=O)N2CCOCC2)cc1

>  <score_type>  (84) 
oracle

>  <origin>  (84) 
adg

>  <m_score__min__energy>  (84) 
-14.800000000000001

>  <m_primary>  (84) 
energy

$$$$
84:0
     RDKit          3D

 51 54  0  0  0  0  0  0  0  0999 V2000
   60.4260   27.6300   49.5320 C   0  0  0  0  0  0  0  0  0  0  0  0
   60.7790   29.0790   49.3610 C   0  0  0  0  0  0  0  0  0  0  0  0
   60.4190   29.7610   48.1900 C   0  0  0  0  0  0  0  0  0  0  0  0
   60.7830   31.0980   48.0110 C   0  0  0  0  0  0  0  0  0  0  0  0
   61.5290   31.7640   48.9950 C   0  0  0  0  0  0  0  0  0  0  0  0
   62.0220   33.4420   48.7540 S   0  0  0  0  0  0  0  0  0  0  0  0
   62.2170   34.0990   50.0920 O   0  0  0  0  0  0  0  0  0  0  0  0
   63.3370   33.4730   48.0250 O   0  0  0  0  0  0  0  0  0  0  0  0
   60.8320   34.3330   47.8320 N   0  0  0  0  0  0  0  0  0  0  0  0
   61.0620   34.2000   46.3750 C   0  0  0  0  0  0  0  0  0  0  0  0
   60.1160   33.1990   45.6950 C   0  0  0  0  0  0  0  0  0  0  0  0
   58.7150   33.5150   46.0040 N   0  0  0  0  0  0  0  0  0  0  0  0
   57.6440   33.0840   45.1380 C   0  0  0  0  0  0  0  0  0  0  0  0
   56.5080   33.6260   45.2390 O   0  0  0  0  0  0  0  0  0  0  0  0
   57.8740   32.0260   44.0850 C   0  0  0  0  0  0  0  0  0  0  0  0
   57.3890   30.6640   44.5220 C   0  0  0  0  0  0  0  0  0  0  0  0
   56.0460   30.4490   44.5540 N   0  0  0  0  0  0  0  0  0  0  0  0
   55.5210   29.2810   44.9210 N   0  0  0  0  0  0  0  0  0  0  0  0
   56.2980   28.2310   45.2820 C   0  0  0  0  0  0  0  0  0  0  0  0
   55.7500   27.1480   45.6240 O   0  0  0  0  0  0  0  0  0  0  0  0
   57.6950   28.3640   45.2650 C   0  0  0  0  0  0  0  0  0  0  0  0
   58.5380   27.2950   45.6240 C   0  0  0  0  0  0  0  0  0  0  0  0
   59.9240   27.4470   45.5870 C   0  0  0  0  0  0  0  0  0  0  0  0
   60.4850   28.6600   45.1920 C   0  0  0  0  0  0  0  0  0  0  0  0
   59.6650   29.7330   44.8350 C   0  0  0  0  0  0  0  0  0  0  0  0
   58.2600   29.6040   44.8710 C   0  0  0  0  0  0  0  0  0  0  0  0
   58.4120   34.2870   47.2150 C   0  0  0  0  0  0  0  0  0  0  0  0
   59.4650   33.9960   48.2870 C   0  0  0  0  0  0  0  0  0  0  0  0
   61.8960   31.0810   50.1620 C   0  0  0  0  0  0  0  0  0  0  0  0
   61.5310   29.7430   50.3400 C   0  0  0  0  0  0  0  0  0  0  0  0
   60.3677   27.3909   50.6041 H   0  0  0  0  0  0  0  0  0  0  0  0
   59.4532   27.4313   49.0586 H   0  0  0  0  0  0  0  0  0  0  0  0
   61.1984   27.0061   49.0586 H   0  0  0  0  0  0  0  0  0  0  0  0
   59.8468   29.2405   47.4079 H   0  0  0  0  0  0  0  0  0  0  0  0
   60.4838   31.6300   47.0959 H   0  0  0  0  0  0  0  0  0  0  0  0
   60.9196   35.1859   45.9085 H   0  0  0  0  0  0  0  0  0  0  0  0
   62.0856   33.8199   46.2421 H   0  0  0  0  0  0  0  0  0  0  0  0
   60.2646   33.2445   44.6060 H   0  0  0  0  0  0  0  0  0  0  0  0
   60.3413   32.1896   46.0695 H   0  0  0  0  0  0  0  0  0  0  0  0
   57.3366   32.3156   43.1699 H   0  0  0  0  0  0  0  0  0  0  0  0
   58.9579   31.9562   43.9107 H   0  0  0  0  0  0  0  0  0  0  0  0
   58.1012   26.3347   45.9354 H   0  0  0  0  0  0  0  0  0  0  0  0
   60.5758   26.6074   45.8703 H   0  0  0  0  0  0  0  0  0  0  0  0
   61.5787   28.7730   45.1612 H   0  0  0  0  0  0  0  0  0  0  0  0
   60.1178   30.6858   44.5234 H   0  0  0  0  0  0  0  0  0  0  0  0
   58.4200   35.3607   46.9761 H   0  0  0  0  0  0  0  0  0  0  0  0
   57.4189   34.0006   47.5915 H   0  0  0  0  0  0  0  0  0  0  0  0
   59.2328   34.5908   49.1827 H   0  0  0  0  0  0  0  0  0  0  0  0
   59.4371   32.9181   48.5047 H   0  0  0  0  0  0  0  0  0  0  0  0
   62.4737   31.5995   50.9414 H   0  0  0  0  0  0  0  0  0  0  0  0
   61.8353   29.2091   51.2523 H   0  0  0  0  0  0  0  0  0  0  0  0
  1  2  1  0
  2  3  2  0
  3  4  1  0
  4  5  2  0
  5  6  1  0
  6  7  2  0
  6  8  2  0
  6  9  1  0
  9 10  1  0
 10 11  1  0
 11 12  1  0
 12 13  1  0
 13 14  2  0
 13 15  1  0
 15 16  1  0
 16 17  2  0
 17 18  1  0
 18 19  1  0
 19 20  2  0
 19 21  1  0
 21 22  2  0
 22 23  1  0
 23 24  2  0
 24 25  1  0
 25 26  2  0
 12 27  1  0
 27 28  1  0
  5 29  1  0
 29 30  2  0
 30  2  1  0
 28  9  1  0
 26 16  1  0
 26 21  1  0
  1 31  1  0
  1 32  1  0
  1 33  1  0
  3 34  1  0
  4 35  1  0
 10 36  1  0
 10 37  1  0
 11 38  1  0
 11 39  1  0
 15 40  1  0
 15 41  1  0
 22 42  1  0
 23 43  1  0
 24 44  1  0
 25 45  1  0
 27 46  1  0
 27 47  1  0
 28 48  1  0
 28 49  1  0
 29 50  1  0
 30 51  1  0
M  CHG  1  18  -1
M  END
>  <UniqueID>  (85) 
78

>  <SMILES>  (85) 
Cc1ccc(S(=O)(=O)N2CCN(C(=O)Cc3n[n-]c(=O)c4ccccc34)CC2)cc1

>  <Energy>  (85) 
66.44686429430287

>  <Genealogy>  (85) 
Cc1ccc(S(=O)(=O)N2CCN(C(=O)Cc3n[n-]c(=O)c4ccccc34)CC2)cc1 (protonated)
Cc1ccc(S(=O)(=O)N2CCN(C(=O)Cc3n[n-]c(=O)c4ccccc34)CC2)cc1 (3D coordinates assigned)
Cc1ccc(S(=O)(=O)N2CCN(C(=O)Cc3n[n-]c(=O)c4ccccc34)CC2)cc1 (nonaromatic ring conformer: 66.44686429430287 kcal/mol)

>  <smiles>  (85) 
Cc1ccc(S(=O)(=O)N2CCN(C(=O)Cc3n[nH]c(=O)c4ccccc34)CC2)cc1

>  <score_type>  (85) 
oracle

>  <origin>  (85) 
adg

>  <m_score__min__energy>  (85) 
-12.31

>  <m_primary>  (85) 
energy

$$$$
