0:0
     RDKit          3D

 45 48  0  0  0  0  0  0  0  0999 V2000
   53.3670   24.5080   45.2740 O   0  0  0  0  0  0  0  0  0  0  0  0
   54.7000   24.4950   45.9690 S   0  0  0  0  0  0  0  0  0  0  0  0
   54.5730   23.7250   47.2590 O   0  0  0  0  0  0  0  0  0  0  0  0
   55.1680   26.1290   46.3360 N   0  0  0  0  0  0  0  0  0  0  0  0
   56.4720   26.6710   46.0930 C   0  0  0  0  0  0  0  0  0  0  0  0
   56.6600   27.7800   45.2440 C   0  0  0  0  0  0  0  0  0  0  0  0
   57.9480   28.2710   44.9860 C   0  0  0  0  0  0  0  0  0  0  0  0
   58.1200   29.3660   44.0670 N   0  0  0  0  0  0  0  0  0  0  0  0
   57.0710   30.7520   44.0670 S   0  0  0  0  0  0  0  0  0  0  0  0
   56.9330   31.2830   42.6670 O   0  0  0  0  0  0  0  0  0  0  0  0
   55.7090   30.3540   44.5660 O   0  0  0  0  0  0  0  0  0  0  0  0
   57.7870   32.0020   45.0820 C   0  0  0  0  0  0  0  0  0  0  0  0
   57.0860   33.1880   45.2980 C   0  0  0  0  0  0  0  0  0  0  0  0
   57.6690   34.2250   46.0210 C   0  0  0  0  0  0  0  0  0  0  0  0
   58.9630   34.0900   46.5260 C   0  0  0  0  0  0  0  0  0  0  0  0
   59.6880   32.8950   46.3280 C   0  0  0  0  0  0  0  0  0  0  0  0
   61.0720   32.7500   46.8570 C   0  0  0  0  0  0  0  0  0  0  0  0
   61.5600   31.5680   47.4590 C   0  0  0  0  0  0  0  0  0  0  0  0
   62.8760   31.6560   47.8850 C   0  0  0  0  0  0  0  0  0  0  0  0
   63.4420   33.1940   47.5180 S   0  0  0  0  0  0  0  0  0  0  0  0
   62.0270   33.7690   46.8160 C   0  0  0  0  0  0  0  0  0  0  0  0
   59.0790   31.8470   45.6080 C   0  0  0  0  0  0  0  0  0  0  0  0
   59.0490   27.6740   45.6330 C   0  0  0  0  0  0  0  0  0  0  0  0
   58.8630   26.5980   46.5050 C   0  0  0  0  0  0  0  0  0  0  0  0
   57.5780   26.1000   46.7410 C   0  0  0  0  0  0  0  0  0  0  0  0
   57.4090   25.0270   47.6100 O   0  0  0  0  0  0  0  0  0  0  0  0
   55.8810   23.6780   44.9630 C   0  0  0  0  0  0  0  0  0  0  0  0
   55.8710   23.6150   43.5750 C   0  0  0  0  0  0  0  0  0  0  0  0
   56.9410   22.8730   43.0540 C   0  0  0  0  0  0  0  0  0  0  0  0
   57.7870   22.3540   44.0280 C   0  0  0  0  0  0  0  0  0  0  0  0
   57.2110   22.8190   45.5390 S   0  0  0  0  0  0  0  0  0  0  0  0
   55.7887   28.2648   44.7795 H   0  0  0  0  0  0  0  0  0  0  0  0
   59.0140   29.4460   43.5320 H   0  0  0  0  0  0  0  0  0  0  0  0
   56.0689   33.3045   44.8957 H   0  0  0  0  0  0  0  0  0  0  0  0
   57.1074   35.1547   46.1950 H   0  0  0  0  0  0  0  0  0  0  0  0
   59.4214   34.9209   47.0824 H   0  0  0  0  0  0  0  0  0  0  0  0
   60.9504   30.6602   47.5786 H   0  0  0  0  0  0  0  0  0  0  0  0
   63.4499   30.8574   48.3778 H   0  0  0  0  0  0  0  0  0  0  0  0
   61.8784   34.7749   46.3964 H   0  0  0  0  0  0  0  0  0  0  0  0
   59.6202   30.9012   45.4574 H   0  0  0  0  0  0  0  0  0  0  0  0
   60.0632   28.0584   45.4499 H   0  0  0  0  0  0  0  0  0  0  0  0
   59.7292   26.1419   47.0067 H   0  0  0  0  0  0  0  0  0  0  0  0
   55.1043   24.0966   42.9503 H   0  0  0  0  0  0  0  0  0  0  0  0
   57.0964   22.7163   41.9764 H   0  0  0  0  0  0  0  0  0  0  0  0
   58.6822   21.7424   43.8419 H   0  0  0  0  0  0  0  0  0  0  0  0
  1  2  2  0
  2  3  2  0
  2  4  1  0
  4  5  1  0
  5  6  2  0
  6  7  1  0
  7  8  1  0
  8  9  1  0
  9 10  2  0
  9 11  2  0
  9 12  1  0
 12 13  2  0
 13 14  1  0
 14 15  2  0
 15 16  1  0
 16 17  1  0
 17 18  1  0
 18 19  2  0
 19 20  1  0
 20 21  1  0
 16 22  2  0
  7 23  2  0
 23 24  1  0
 24 25  2  0
 25 26  1  0
  2 27  1  0
 27 28  2  0
 28 29  1  0
 29 30  2  0
 30 31  1  0
 25  5  1  0
 31 27  1  0
 22 12  1  0
 21 17  2  0
  6 32  1  0
  8 33  1  0
 13 34  1  0
 14 35  1  0
 15 36  1  0
 18 37  1  0
 19 38  1  0
 21 39  1  0
 22 40  1  0
 23 41  1  0
 24 42  1  0
 28 43  1  0
 29 44  1  0
 30 45  1  0
M  CHG  2   4  -1  26  -1
M  END
>  <UniqueID>  (1) 
1

>  <SMILES>  (1) 
O=S(=O)([N-]c1cc(NS(=O)(=O)c2cccc(-c3ccsc3)c2)ccc1[O-])c1cccs1

>  <Energy>  (1) 
113.23515007017474

>  <Genealogy>  (1) 
O=S(=O)([N-]c1cc(NS(=O)(=O)c2cccc(-c3ccsc3)c2)ccc1[O-])c1cccs1 (protonated)
O=S(=O)([N-]c1cc(NS(=O)(=O)c2cccc(-c3ccsc3)c2)ccc1[O-])c1cccs1 (3D coordinates assigned)
O=S(=O)([N-]c1cc(NS(=O)(=O)c2cccc(-c3ccsc3)c2)ccc1[O-])c1cccs1 (optimized conformer: 113.23515007017474 kcal/mol)

>  <smiles>  (1) 
O=S(=O)(Nc1ccc(O)c(NS(=O)(=O)c2cccs2)c1)c1cccc(-c2ccsc2)c1

>  <score_type>  (1) 
oracle

>  <origin>  (1) 
adg

>  <m_score__min__energy>  (1) 
-14.640000000000001

>  <m_primary>  (1) 
energy

$$$$
1:0
     RDKit          3D

 50 53  0  0  0  0  0  0  0  0999 V2000
   57.0270   22.6010   43.4280 C   0  0  0  0  0  0  0  0  0  0  0  0
   56.5040   23.5470   44.3540 O   0  0  0  0  0  0  0  0  0  0  0  0
   56.9930   24.8540   44.5150 C   0  0  0  0  0  0  0  0  0  0  0  0
   57.7390   25.5100   43.5170 C   0  0  0  0  0  0  0  0  0  0  0  0
   58.2120   26.8090   43.7330 C   0  0  0  0  0  0  0  0  0  0  0  0
   57.9370   27.4780   44.9370 C   0  0  0  0  0  0  0  0  0  0  0  0
   58.3470   28.9230   45.1350 C   0  0  2  0  0  0  0  0  0  0  0  0
   59.8570   29.2180   45.2370 C   0  0  0  0  0  0  0  0  0  0  0  0
   60.2540   29.6570   46.6200 C   0  0  0  0  0  0  0  0  0  0  0  0
   60.2440   28.8150   47.5550 O   0  0  0  0  0  0  0  0  0  0  0  0
   60.7750   30.9690   46.8680 N   0  0  0  0  0  0  0  0  0  0  0  0
   62.1360   31.2110   47.3520 C   0  0  0  0  0  0  0  0  0  0  0  0
   62.3700   32.7380   47.2090 C   0  0  0  0  0  0  0  0  0  0  0  0
   61.0400   33.2550   46.7790 C   0  0  0  0  0  0  0  0  0  0  0  0
   60.6240   34.5820   46.6880 C   0  0  0  0  0  0  0  0  0  0  0  0
   59.2840   34.8500   46.3820 C   0  0  0  0  0  0  0  0  0  0  0  0
   58.3770   33.7890   46.1880 C   0  0  0  0  0  0  0  0  0  0  0  0
   58.8110   32.4630   46.3090 C   0  0  0  0  0  0  0  0  0  0  0  0
   60.1630   32.2220   46.5870 C   0  0  0  0  0  0  0  0  0  0  0  0
   57.4100   29.8060   45.9720 C   0  0  0  0  0  0  0  0  0  0  0  0
   57.4880   30.0120   44.4620 C   0  0  2  0  0  0  0  0  0  0  0  0
   56.2060   29.6050   43.7070 C   0  0  0  0  0  0  0  0  0  0  0  0
   56.5530   28.9680   42.4360 N   0  0  0  0  0  0  0  0  0  0  0  0
   57.1800   26.8270   45.9220 C   0  0  0  0  0  0  0  0  0  0  0  0
   56.7240   25.5200   45.7160 C   0  0  0  0  0  0  0  0  0  0  0  0
   57.4882   21.7668   43.9771 H   0  0  0  0  0  0  0  0  0  0  0  0
   56.2125   22.2180   42.7957 H   0  0  0  0  0  0  0  0  0  0  0  0
   57.7845   23.0871   42.7957 H   0  0  0  0  0  0  0  0  0  0  0  0
   57.9504   25.0001   42.5655 H   0  0  0  0  0  0  0  0  0  0  0  0
   58.8042   27.3105   42.9534 H   0  0  0  0  0  0  0  0  0  0  0  0
   60.4151   28.3055   44.9803 H   0  0  0  0  0  0  0  0  0  0  0  0
   60.0907   30.0369   44.5407 H   0  0  0  0  0  0  0  0  0  0  0  0
   62.2280   30.9063   48.4050 H   0  0  0  0  0  0  0  0  0  0  0  0
   62.8775   30.6325   46.7815 H   0  0  0  0  0  0  0  0  0  0  0  0
   62.6723   33.1811   48.1694 H   0  0  0  0  0  0  0  0  0  0  0  0
   63.1747   32.9836   46.5004 H   0  0  0  0  0  0  0  0  0  0  0  0
   61.3356   35.4043   46.8536 H   0  0  0  0  0  0  0  0  0  0  0  0
   58.9388   35.8906   46.2929 H   0  0  0  0  0  0  0  0  0  0  0  0
   57.3266   34.0027   45.9412 H   0  0  0  0  0  0  0  0  0  0  0  0
   58.1051   31.6280   46.1883 H   0  0  0  0  0  0  0  0  0  0  0  0
   56.5037   29.3732   46.4207 H   0  0  0  0  0  0  0  0  0  0  0  0
   57.5368   30.4558   46.8505 H   0  0  0  0  0  0  0  0  0  0  0  0
   57.7288   30.8308   43.7681 H   0  0  0  0  0  0  0  0  0  0  0  0
   55.6296   28.8988   44.3227 H   0  0  0  0  0  0  0  0  0  0  0  0
   55.6044   30.5040   43.5073 H   0  0  0  0  0  0  0  0  0  0  0  0
   56.4820   27.9280   42.5450 H   0  0  0  0  0  0  0  0  0  0  0  0
   55.8900   29.2860   41.6870 H   0  0  0  0  0  0  0  0  0  0  0  0
   57.5370   29.2130   42.1640 H   0  0  0  0  0  0  0  0  0  0  0  0
   56.9433   27.3468   46.8621 H   0  0  0  0  0  0  0  0  0  0  0  0
   56.1494   25.0121   46.5046 H   0  0  0  0  0  0  0  0  0  0  0  0
  1  2  1  0
  2  3  1  0
  3  4  2  0
  4  5  1  0
  5  6  2  0
  6  7  1  0
  7  8  1  1
  8  9  1  0
  9 10  2  0
  9 11  1  0
 11 12  1  0
 12 13  1  0
 13 14  1  0
 14 15  2  0
 15 16  1  0
 16 17  2  0
 17 18  1  0
 18 19  2  0
  7 20  1  0
 20 21  1  0
 21 22  1  0
 22 23  1  0
  6 24  1  0
 24 25  2  0
 25  3  1  0
 21  7  1  0
 19 11  1  0
 19 14  1  0
  1 26  1  0
  1 27  1  0
  1 28  1  0
  4 29  1  0
  5 30  1  0
  8 31  1  0
  8 32  1  0
 12 33  1  0
 12 34  1  0
 13 35  1  0
 13 36  1  0
 15 37  1  0
 16 38  1  0
 17 39  1  0
 18 40  1  0
 20 41  1  0
 20 42  1  0
 21 43  1  1
 22 44  1  0
 22 45  1  0
 23 46  1  0
 23 47  1  0
 23 48  1  0
 24 49  1  0
 25 50  1  0
M  CHG  1  23   1
M  END
>  <UniqueID>  (2) 
2

>  <SMILES>  (2) 
COc1ccc([C@]2(CC(=O)N3CCc4ccccc43)C[C@@H]2C[NH3+])cc1

>  <Energy>  (2) 
335.55034851698053

>  <Genealogy>  (2) 
COc1ccc(C2(CC(=O)N3CCc4ccccc43)CC2C[NH3+])cc1 (protonated)
COc1ccc([C@]2(CC(=O)N3CCc4ccccc43)C[C@@H]2C[NH3+])cc1 (chirality)
COc1ccc([C@]2(CC(=O)N3CCc4ccccc43)C[C@@H]2C[NH3+])cc1 (3D coordinates assigned)
COc1ccc([C@]2(CC(=O)N3CCc4ccccc43)C[C@@H]2C[NH3+])cc1 (nonaromatic ring conformer: 335.55034851698053 kcal/mol)

>  <smiles>  (2) 
COc1ccc(C2(CC(=O)N3CCc4ccccc43)CC2CN)cc1

>  <score_type>  (2) 
oracle

>  <origin>  (2) 
adg

>  <m_score__min__energy>  (2) 
-6.79

>  <m_primary>  (2) 
energy

$$$$
2:0
     RDKit          3D

 48 50  0  0  0  0  0  0  0  0999 V2000
   54.0590   25.1920   45.6130 C   0  0  0  0  0  0  0  0  0  0  0  0
   54.8370   26.3280   45.9770 O   0  0  0  0  0  0  0  0  0  0  0  0
   56.2330   26.3140   46.1470 C   0  0  0  0  0  0  0  0  0  0  0  0
   56.8890   25.2450   46.7930 C   0  0  0  0  0  0  0  0  0  0  0  0
   58.2740   25.2550   46.9490 C   0  0  0  0  0  0  0  0  0  0  0  0
   59.0280   26.3120   46.4370 C   0  0  0  0  0  0  0  0  0  0  0  0
   58.3850   27.3770   45.7960 C   0  0  0  0  0  0  0  0  0  0  0  0
   56.9860   27.3990   45.6620 C   0  0  0  0  0  0  0  0  0  0  0  0
   56.3040   28.6140   45.0920 C   0  0  0  0  0  0  0  0  0  0  0  0
   56.9420   29.8250   45.6060 N   0  0  0  0  0  0  0  0  0  0  0  0
   57.9210   30.6170   44.9100 C   0  0  0  0  0  0  0  0  0  0  0  0
   57.7940   30.7810   43.6680 O   0  0  0  0  0  0  0  0  0  0  0  0
   59.1120   31.2230   45.6060 C   0  0  0  0  0  0  0  0  0  0  0  0
   60.1010   29.9510   46.4660 S   0  0  0  0  0  0  0  0  0  0  0  0
   59.4570   30.3190   48.1030 C   0  0  0  0  0  0  0  0  0  0  0  0
   58.5410   29.5570   48.7360 N   0  0  0  0  0  0  0  0  0  0  0  0
   58.2950   30.1350   49.9010 N   0  0  0  0  0  0  0  0  0  0  0  0
   59.0600   31.2420   49.9460 C   0  0  0  0  0  0  0  0  0  0  0  0
   59.0350   32.0740   50.8930 O   0  0  0  0  0  0  0  0  0  0  0  0
   59.8110   31.3830   48.8430 N   0  0  0  0  0  0  0  0  0  0  0  0
   60.6690   32.5110   48.4680 C   0  0  0  0  0  0  0  0  0  0  0  0
   59.8840   33.8270   48.4670 C   0  0  0  0  0  0  0  0  0  0  0  0
   59.0690   33.9860   47.2110 C   0  0  0  0  0  0  0  0  0  0  0  0
   57.7510   33.5030   47.1610 C   0  0  0  0  0  0  0  0  0  0  0  0
   57.0020   33.6250   45.9860 C   0  0  0  0  0  0  0  0  0  0  0  0
   57.5640   34.2270   44.8560 C   0  0  0  0  0  0  0  0  0  0  0  0
   58.8770   34.7050   44.8960 C   0  0  0  0  0  0  0  0  0  0  0  0
   59.6260   34.5900   46.0710 C   0  0  0  0  0  0  0  0  0  0  0  0
   53.7089   24.6808   46.5219 H   0  0  0  0  0  0  0  0  0  0  0  0
   53.1926   25.5164   45.0180 H   0  0  0  0  0  0  0  0  0  0  0  0
   54.6746   24.5014   45.0180 H   0  0  0  0  0  0  0  0  0  0  0  0
   56.3028   24.3969   47.1766 H   0  0  0  0  0  0  0  0  0  0  0  0
   58.7734   24.4288   47.4763 H   0  0  0  0  0  0  0  0  0  0  0  0
   60.1234   26.3080   46.5369 H   0  0  0  0  0  0  0  0  0  0  0  0
   58.9822   28.2077   45.3918 H   0  0  0  0  0  0  0  0  0  0  0  0
   56.3832   28.5966   43.9950 H   0  0  0  0  0  0  0  0  0  0  0  0
   55.2442   28.6081   45.3864 H   0  0  0  0  0  0  0  0  0  0  0  0
   59.7455   31.7246   44.8596 H   0  0  0  0  0  0  0  0  0  0  0  0
   58.7465   31.9414   46.3545 H   0  0  0  0  0  0  0  0  0  0  0  0
   61.4968   32.5874   49.1884 H   0  0  0  0  0  0  0  0  0  0  0  0
   61.0539   32.3339   47.4529 H   0  0  0  0  0  0  0  0  0  0  0  0
   59.2083   33.8401   49.3349 H   0  0  0  0  0  0  0  0  0  0  0  0
   60.6042   34.6569   48.5168 H   0  0  0  0  0  0  0  0  0  0  0  0
   57.3068   33.0277   48.0480 H   0  0  0  0  0  0  0  0  0  0  0  0
   55.9696   33.2469   45.9509 H   0  0  0  0  0  0  0  0  0  0  0  0
   56.9719   34.3246   43.9341 H   0  0  0  0  0  0  0  0  0  0  0  0
   59.3205   35.1712   44.0039 H   0  0  0  0  0  0  0  0  0  0  0  0
   60.6562   34.9742   46.1032 H   0  0  0  0  0  0  0  0  0  0  0  0
  1  2  1  0
  2  3  1  0
  3  4  2  0
  4  5  1  0
  5  6  2  0
  6  7  1  0
  7  8  2  0
  8  9  1  0
  9 10  1  0
 10 11  1  0
 11 12  2  0
 11 13  1  0
 13 14  1  0
 14 15  1  0
 15 16  2  0
 16 17  1  0
 17 18  1  0
 18 19  2  0
 18 20  1  0
 20 21  1  0
 21 22  1  0
 22 23  1  0
 23 24  2  0
 24 25  1  0
 25 26  2  0
 26 27  1  0
 27 28  2  0
  8  3  1  0
 20 15  1  0
 28 23  1  0
  1 29  1  0
  1 30  1  0
  1 31  1  0
  4 32  1  0
  5 33  1  0
  6 34  1  0
  7 35  1  0
  9 36  1  0
  9 37  1  0
 13 38  1  0
 13 39  1  0
 21 40  1  0
 21 41  1  0
 22 42  1  0
 22 43  1  0
 24 44  1  0
 25 45  1  0
 26 46  1  0
 27 47  1  0
 28 48  1  0
M  CHG  2  10  -1  17  -1
M  END
>  <UniqueID>  (3) 
3

>  <SMILES>  (3) 
COc1ccccc1C[N-]C(=O)CSc1n[n-]c(=O)n1CCc1ccccc1

>  <Energy>  (3) 
77.8898017662022

>  <Genealogy>  (3) 
COc1ccccc1C[N-]C(=O)CSc1n[n-]c(=O)n1CCc1ccccc1 (protonated)
COc1ccccc1C[N-]C(=O)CSc1n[n-]c(=O)n1CCc1ccccc1 (3D coordinates assigned)
COc1ccccc1C[N-]C(=O)CSc1n[n-]c(=O)n1CCc1ccccc1 (optimized conformer: 77.8898017662022 kcal/mol)

>  <smiles>  (3) 
COc1ccccc1CNC(=O)CSc1n[nH]c(=O)n1CCc1ccccc1

>  <score_type>  (3) 
oracle

>  <origin>  (3) 
adg

>  <m_score__min__energy>  (3) 
-12.140000000000001

>  <m_primary>  (3) 
energy

$$$$
3:0
     RDKit          3D

 49 51  0  0  0  0  0  0  0  0999 V2000
   60.9367   29.8852   48.1526 H   0  0  0  0  0  0  0  0  0  0  0  0
   61.0820   30.4030   47.1930 C   0  0  0  0  0  0  0  0  0  0  0  0
   61.7450   31.7320   47.2340 C   0  0  0  0  0  0  0  0  0  0  0  0
   62.9930   31.8350   47.1040 O   0  0  0  0  0  0  0  0  0  0  0  0
   60.9890   32.9190   47.5000 N   0  0  0  0  0  0  0  0  0  0  0  0
   59.7850   33.3250   46.8320 C   0  0  0  0  0  0  0  0  0  0  0  0
   58.5140   33.0290   47.3550 C   0  0  0  0  0  0  0  0  0  0  0  0
   58.4258   32.4818   48.3052 H   0  0  0  0  0  0  0  0  0  0  0  0
   57.3620   33.4280   46.6710 C   0  0  0  0  0  0  0  0  0  0  0  0
   56.3694   33.2097   47.0918 H   0  0  0  0  0  0  0  0  0  0  0  0
   57.4710   34.1040   45.4530 C   0  0  0  0  0  0  0  0  0  0  0  0
   56.5641   34.4238   44.9189 H   0  0  0  0  0  0  0  0  0  0  0  0
   58.7310   34.3740   44.9130 C   0  0  0  0  0  0  0  0  0  0  0  0
   58.8153   34.8995   43.9503 H   0  0  0  0  0  0  0  0  0  0  0  0
   59.8840   33.9770   45.5950 C   0  0  0  0  0  0  0  0  0  0  0  0
   60.8740   34.1770   45.1592 H   0  0  0  0  0  0  0  0  0  0  0  0
   60.6450   29.7790   46.0890 C   0  0  0  0  0  0  0  0  0  0  0  0
   61.3988   29.4294   45.3682 H   0  0  0  0  0  0  0  0  0  0  0  0
   59.2280   29.5280   45.7720 C   0  0  0  0  0  0  0  0  0  0  0  0
   58.4880   30.5220   45.1220 C   0  0  0  0  0  0  0  0  0  0  0  0
   58.9755   31.4628   44.8267 H   0  0  0  0  0  0  0  0  0  0  0  0
   57.1350   30.3250   44.8470 C   0  0  0  0  0  0  0  0  0  0  0  0
   56.4160   31.3140   44.1830 O   0  0  0  0  0  0  0  0  0  0  0  0
   56.5020   29.1400   45.2390 C   0  0  0  0  0  0  0  0  0  0  0  0
   55.1520   28.9680   44.9500 O   0  0  0  0  0  0  0  0  0  0  0  0
   57.2260   28.1360   45.9150 C   0  0  0  0  0  0  0  0  0  0  0  0
   56.5280   26.8810   46.3960 C   0  0  0  0  0  0  0  0  0  0  0  0
   55.4794   27.1182   46.6287 H   0  0  0  0  0  0  0  0  0  0  0  0
   57.0454   26.5119   47.2938 H   0  0  0  0  0  0  0  0  0  0  0  0
   56.5690   25.8040   45.3360 C   0  0  0  0  0  0  0  0  0  0  0  0
   57.5310   25.8770   44.3140 C   0  0  0  0  0  0  0  0  0  0  0  0
   58.2251   26.7296   44.2772 H   0  0  0  0  0  0  0  0  0  0  0  0
   57.6120   24.8750   43.3450 C   0  0  0  0  0  0  0  0  0  0  0  0
   58.3726   24.9386   42.5529 H   0  0  0  0  0  0  0  0  0  0  0  0
   56.7320   23.7940   43.3780 C   0  0  0  0  0  0  0  0  0  0  0  0
   56.8062   23.0045   42.6156 H   0  0  0  0  0  0  0  0  0  0  0  0
   55.7510   23.7080   44.3800 C   0  0  0  0  0  0  0  0  0  0  0  0
   54.8170   22.6200   44.4370 N   0  0  0  0  0  0  0  0  0  0  0  0
   54.7620   21.3910   45.6600 S   0  0  0  0  0  0  0  0  0  0  0  0
   55.4160   20.1490   45.1240 O   0  0  0  0  0  0  0  0  0  0  0  0
   53.3350   21.0740   46.0090 O   0  0  0  0  0  0  0  0  0  0  0  0
   55.6530   21.9260   47.1060 C   0  0  0  0  0  0  0  0  0  0  0  0
   55.1145   21.6026   48.0090 H   0  0  0  0  0  0  0  0  0  0  0  0
   56.6598   21.4829   47.1011 H   0  0  0  0  0  0  0  0  0  0  0  0
   55.7351   23.0229   47.1011 H   0  0  0  0  0  0  0  0  0  0  0  0
   55.6750   24.7140   45.3580 C   0  0  0  0  0  0  0  0  0  0  0  0
   54.6970   24.6260   46.3450 O   0  0  0  0  0  0  0  0  0  0  0  0
   58.5970   28.3410   46.1810 C   0  0  0  0  0  0  0  0  0  0  0  0
   59.3360   27.3700   46.8510 O   0  0  0  0  0  0  0  0  0  0  0  0
  1  2  1  0
  2  3  1  0
  3  4  2  0
  3  5  1  0
  5  6  1  0
  6  7  2  0
  7  8  1  0
  7  9  1  0
  9 10  1  0
  9 11  2  0
 11 12  1  0
 11 13  1  0
 13 14  1  0
 13 15  2  0
 15 16  1  0
  2 17  2  0
 17 18  1  0
 17 19  1  0
 19 20  2  0
 20 21  1  0
 20 22  1  0
 22 23  1  0
 22 24  2  0
 24 25  1  0
 24 26  1  0
 26 27  1  0
 27 28  1  0
 27 29  1  0
 27 30  1  0
 30 31  2  0
 31 32  1  0
 31 33  1  0
 33 34  1  0
 33 35  2  0
 35 36  1  0
 35 37  1  0
 37 38  1  0
 38 39  1  0
 39 40  2  0
 39 41  2  0
 39 42  1  0
 42 43  1  0
 42 44  1  0
 42 45  1  0
 37 46  2  0
 46 47  1  0
 26 48  2  0
 48 49  1  0
 15  6  1  0
 48 19  1  0
 46 30  1  0
M  CHG  6   5  -1  23  -1  25  -1  38  -1  47  -1  49  -1
M  END
>  <UniqueID>  (4) 
4

>  <SMILES>  (4) 
CS(=O)(=O)[N-]c1cccc(Cc2c([O-])c([O-])cc(/C=C\C(=O)[N-]c3ccccc3)c2[O-])c1[O-]

>  <Energy>  (4) 
67.66336756377687

>  <Genealogy>  (4) 
CS(=O)(=O)[N-]c1cccc(Cc2c([O-])c([O-])cc(C=CC(=O)[N-]c3ccccc3)c2[O-])c1[O-] (protonated)
CS(=O)(=O)[N-]c1cccc(Cc2c([O-])c([O-])cc(/C=C\C(=O)[N-]c3ccccc3)c2[O-])c1[O-] (cis-trans isomerization)
CS(=O)(=O)[N-]c1cccc(Cc2c([O-])c([O-])cc(/C=C\C(=O)[N-]c3ccccc3)c2[O-])c1[O-] (3D coordinates assigned)
CS(=O)(=O)[N-]c1cccc(Cc2c([O-])c([O-])cc(/C=C\C(=O)[N-]c3ccccc3)c2[O-])c1[O-] (optimized conformer: 67.66336756377687 kcal/mol)

>  <smiles>  (4) 
CS(=O)(=O)Nc1cccc(Cc2c(O)c(O)cc(C=CC(=O)Nc3ccccc3)c2O)c1O

>  <score_type>  (4) 
oracle

>  <origin>  (4) 
adg

>  <m_score__min__energy>  (4) 
-20.420000000000002

>  <m_primary>  (4) 
energy

$$$$
4:0
     RDKit          3D

 48 51  0  0  0  0  0  0  0  0999 V2000
   56.7630   33.9390   45.2760 C   0  0  0  0  0  0  0  0  0  0  0  0
   57.4790   34.5000   46.3710 O   0  0  0  0  0  0  0  0  0  0  0  0
   58.8320   34.2500   46.6430 C   0  0  0  0  0  0  0  0  0  0  0  0
   59.7800   34.0330   45.6250 C   0  0  0  0  0  0  0  0  0  0  0  0
   61.1180   33.7880   45.9490 C   0  0  0  0  0  0  0  0  0  0  0  0
   61.5330   33.7690   47.2840 C   0  0  0  0  0  0  0  0  0  0  0  0
   62.8810   33.5040   47.5660 O   0  0  0  0  0  0  0  0  0  0  0  0
   63.3580   32.8420   48.7090 C   0  0  0  0  0  0  0  0  0  0  0  0
   64.4160   33.3800   49.4650 C   0  0  0  0  0  0  0  0  0  0  0  0
   64.9290   32.6890   50.5700 C   0  0  0  0  0  0  0  0  0  0  0  0
   66.0280   33.2930   51.3930 C   0  0  0  0  0  0  0  0  0  0  0  0
   64.3690   31.4580   50.9330 C   0  0  0  0  0  0  0  0  0  0  0  0
   63.3290   30.9080   50.1810 C   0  0  0  0  0  0  0  0  0  0  0  0
   62.8150   31.5890   49.0660 C   0  0  0  0  0  0  0  0  0  0  0  0
   61.6980   30.9920   48.2940 C   0  0  0  0  0  0  0  0  0  0  0  0
   60.4670   30.7190   48.9110 C   0  0  0  0  0  0  0  0  0  0  0  0
   59.4190   30.1510   48.1820 C   0  0  0  0  0  0  0  0  0  0  0  0
   59.5860   29.8330   46.8230 C   0  0  0  0  0  0  0  0  0  0  0  0
   58.4990   29.2530   46.0750 N   0  0  0  0  0  0  0  0  0  0  0  0
   57.2290   29.7060   46.0160 C   0  0  0  0  0  0  0  0  0  0  0  0
   56.5160   28.8600   45.1970 C   0  0  0  0  0  0  0  0  0  0  0  0
   55.1710   28.9840   44.8750 O   0  0  0  0  0  0  0  0  0  0  0  0
   57.3130   27.8770   44.7430 N   0  0  0  0  0  0  0  0  0  0  0  0
   58.5110   28.1420   45.2990 C   0  0  0  0  0  0  0  0  0  0  0  0
   59.5200   27.4070   45.1320 O   0  0  0  0  0  0  0  0  0  0  0  0
   60.8190   30.1050   46.2070 C   0  0  0  0  0  0  0  0  0  0  0  0
   61.8660   30.6740   46.9370 C   0  0  0  0  0  0  0  0  0  0  0  0
   60.5840   33.9680   48.3030 C   0  0  0  0  0  0  0  0  0  0  0  0
   59.2460   34.2120   47.9800 C   0  0  0  0  0  0  0  0  0  0  0  0
   55.9506   33.3025   45.6566 H   0  0  0  0  0  0  0  0  0  0  0  0
   56.3386   34.7475   44.6626 H   0  0  0  0  0  0  0  0  0  0  0  0
   57.4465   33.3335   44.6626 H   0  0  0  0  0  0  0  0  0  0  0  0
   59.4669   34.0563   44.5707 H   0  0  0  0  0  0  0  0  0  0  0  0
   61.8497   33.6088   45.1474 H   0  0  0  0  0  0  0  0  0  0  0  0
   64.8447   34.3536   49.1851 H   0  0  0  0  0  0  0  0  0  0  0  0
   65.7980   33.1666   52.4612 H   0  0  0  0  0  0  0  0  0  0  0  0
   66.9786   32.7906   51.1607 H   0  0  0  0  0  0  0  0  0  0  0  0
   66.1134   34.3648   51.1607 H   0  0  0  0  0  0  0  0  0  0  0  0
   64.7501   30.9218   51.8146 H   0  0  0  0  0  0  0  0  0  0  0  0
   62.9084   29.9320   50.4648 H   0  0  0  0  0  0  0  0  0  0  0  0
   60.3264   30.9540   49.9764 H   0  0  0  0  0  0  0  0  0  0  0  0
   58.4563   29.9512   48.6752 H   0  0  0  0  0  0  0  0  0  0  0  0
   56.8337   30.5939   46.5311 H   0  0  0  0  0  0  0  0  0  0  0  0
   57.0570   27.0840   44.1150 H   0  0  0  0  0  0  0  0  0  0  0  0
   60.9613   29.8683   45.1422 H   0  0  0  0  0  0  0  0  0  0  0  0
   62.8291   30.8742   46.4446 H   0  0  0  0  0  0  0  0  0  0  0  0
   60.8957   33.9315   49.3573 H   0  0  0  0  0  0  0  0  0  0  0  0
   58.5122   34.3755   48.7830 H   0  0  0  0  0  0  0  0  0  0  0  0
  1  2  1  0
  2  3  1  0
  3  4  2  0
  4  5  1  0
  5  6  2  0
  6  7  1  0
  7  8  1  0
  8  9  2  0
  9 10  1  0
 10 11  1  0
 10 12  2  0
 12 13  1  0
 13 14  2  0
 14 15  1  0
 15 16  2  0
 16 17  1  0
 17 18  2  0
 18 19  1  0
 19 20  1  0
 20 21  2  0
 21 22  1  0
 21 23  1  0
 23 24  1  0
 24 25  2  0
 18 26  1  0
 26 27  2  0
  6 28  1  0
 28 29  2  0
 29  3  1  0
 14  8  1  0
 27 15  1  0
 24 19  1  0
  1 30  1  0
  1 31  1  0
  1 32  1  0
  4 33  1  0
  5 34  1  0
  9 35  1  0
 11 36  1  0
 11 37  1  0
 11 38  1  0
 12 39  1  0
 13 40  1  0
 16 41  1  0
 17 42  1  0
 20 43  1  0
 23 44  1  0
 26 45  1  0
 27 46  1  0
 28 47  1  0
 29 48  1  0
M  CHG  1  22  -1
M  END
>  <UniqueID>  (5) 
5

>  <SMILES>  (5) 
COc1ccc(Oc2cc(C)ccc2-c2ccc(-n3cc([O-])[nH]c3=O)cc2)cc1

>  <Energy>  (5) 
101.2397784060148

>  <Genealogy>  (5) 
COc1ccc(Oc2cc(C)ccc2-c2ccc(-n3cc([O-])[nH]c3=O)cc2)cc1 (protonated)
COc1ccc(Oc2cc(C)ccc2-c2ccc(-n3cc([O-])[nH]c3=O)cc2)cc1 (3D coordinates assigned)
COc1ccc(Oc2cc(C)ccc2-c2ccc(-n3cc([O-])[nH]c3=O)cc2)cc1 (optimized conformer: 101.2397784060148 kcal/mol)

>  <smiles>  (5) 
COc1ccc(Oc2cc(C)ccc2-c2ccc(-n3cc(O)[nH]c3=O)cc2)cc1

>  <score_type>  (5) 
oracle

>  <origin>  (5) 
adg

>  <m_score__min__energy>  (5) 
-10.470000000000001

>  <m_primary>  (5) 
energy

$$$$
5:0
     RDKit          3D

 45 47  0  0  0  0  0  0  0  0999 V2000
   52.0640   22.0340   47.7350 C   0  0  0  0  0  0  0  0  0  0  0  0
   52.8090   22.5320   46.5380 C   0  0  0  0  0  0  0  0  0  0  0  0
   52.1750   23.3460   45.5930 C   0  0  0  0  0  0  0  0  0  0  0  0
   52.9020   23.7610   44.4780 C   0  0  0  0  0  0  0  0  0  0  0  0
   54.1920   23.3680   44.3250 N   0  0  0  0  0  0  0  0  0  0  0  0
   54.7960   22.5660   45.2470 C   0  0  0  0  0  0  0  0  0  0  0  0
   56.0270   22.1850   45.0950 N   0  0  0  0  0  0  0  0  0  0  0  0
   57.3620   22.8640   45.9720 S   0  0  0  0  0  0  0  0  0  0  0  0
   58.6480   22.3460   45.3930 O   0  0  0  0  0  0  0  0  0  0  0  0
   57.2690   22.4430   47.4120 O   0  0  0  0  0  0  0  0  0  0  0  0
   57.3370   24.6190   45.8340 C   0  0  0  0  0  0  0  0  0  0  0  0
   56.1540   25.3210   46.0980 C   0  0  0  0  0  0  0  0  0  0  0  0
   56.1230   26.7140   45.9960 C   0  0  0  0  0  0  0  0  0  0  0  0
   57.2840   27.4260   45.6410 C   0  0  0  0  0  0  0  0  0  0  0  0
   57.2750   28.8580   45.5050 N   0  0  0  0  0  0  0  0  0  0  0  0
   56.2360   29.6040   44.8580 C   0  0  0  0  0  0  0  0  0  0  0  0
   55.1570   29.0440   44.5220 O   0  0  0  0  0  0  0  0  0  0  0  0
   56.4200   31.0040   44.6290 N   0  0  0  0  0  0  0  0  0  0  0  0
   57.6500   31.5820   44.0980 C   0  0  0  0  0  0  0  0  0  0  0  0
   58.1620   32.6580   45.0150 C   0  0  0  0  0  0  0  0  0  0  0  0
   58.7320   33.8330   44.4910 C   0  0  0  0  0  0  0  0  0  0  0  0
   59.1890   34.8360   45.3500 C   0  0  0  0  0  0  0  0  0  0  0  0
   59.0790   34.6770   46.7350 C   0  0  0  0  0  0  0  0  0  0  0  0
   58.5080   33.5160   47.2620 C   0  0  0  0  0  0  0  0  0  0  0  0
   58.0490   32.5090   46.4070 C   0  0  0  0  0  0  0  0  0  0  0  0
   58.4590   26.7150   45.3530 C   0  0  0  0  0  0  0  0  0  0  0  0
   58.4880   25.3210   45.4540 C   0  0  0  0  0  0  0  0  0  0  0  0
   54.1000   22.1540   46.3390 N   0  0  0  0  0  0  0  0  0  0  0  0
   52.5715   22.3733   48.6501 H   0  0  0  0  0  0  0  0  0  0  0  0
   51.0371   22.4279   47.7178 H   0  0  0  0  0  0  0  0  0  0  0  0
   52.0353   20.9345   47.7178 H   0  0  0  0  0  0  0  0  0  0  0  0
   51.1268   23.6516   45.7267 H   0  0  0  0  0  0  0  0  0  0  0  0
   52.4302   24.4067   43.7227 H   0  0  0  0  0  0  0  0  0  0  0  0
   55.2451   24.7729   46.3870 H   0  0  0  0  0  0  0  0  0  0  0  0
   55.1870   27.2568   46.1940 H   0  0  0  0  0  0  0  0  0  0  0  0
   58.0300   29.4030   45.9820 H   0  0  0  0  0  0  0  0  0  0  0  0
   58.4106   30.7928   44.0050 H   0  0  0  0  0  0  0  0  0  0  0  0
   57.4405   32.0231   43.1123 H   0  0  0  0  0  0  0  0  0  0  0  0
   58.8181   33.9624   43.4020 H   0  0  0  0  0  0  0  0  0  0  0  0
   59.6359   35.7520   44.9361 H   0  0  0  0  0  0  0  0  0  0  0  0
   59.4422   35.4663   47.4097 H   0  0  0  0  0  0  0  0  0  0  0  0
   58.4193   33.3937   48.3516 H   0  0  0  0  0  0  0  0  0  0  0  0
   57.5980   31.5974   46.8260 H   0  0  0  0  0  0  0  0  0  0  0  0
   59.3643   27.2588   45.0454 H   0  0  0  0  0  0  0  0  0  0  0  0
   59.4169   24.7741   45.2345 H   0  0  0  0  0  0  0  0  0  0  0  0
  1  2  1  0
  2  3  1  0
  3  4  2  0
  4  5  1  0
  5  6  1  0
  6  7  2  3
  7  8  1  0
  8  9  2  0
  8 10  2  0
  8 11  1  0
 11 12  2  0
 12 13  1  0
 13 14  2  0
 14 15  1  0
 15 16  1  0
 16 17  2  0
 16 18  1  0
 18 19  1  0
 19 20  1  0
 20 21  2  0
 21 22  1  0
 22 23  2  0
 23 24  1  0
 24 25  2  0
 14 26  1  0
 26 27  2  0
  6 28  1  0
 28  2  2  0
 27 11  1  0
 25 20  1  0
  1 29  1  0
  1 30  1  0
  1 31  1  0
  3 32  1  0
  4 33  1  0
 12 34  1  0
 13 35  1  0
 15 36  1  0
 19 37  1  0
 19 38  1  0
 21 39  1  0
 22 40  1  0
 23 41  1  0
 24 42  1  0
 25 43  1  0
 26 44  1  0
 27 45  1  0
M  CHG  2   5  -1  18  -1
M  END
>  <UniqueID>  (6) 
6

>  <SMILES>  (6) 
Cc1cc[n-]c(=NS(=O)(=O)c2ccc(NC(=O)[N-]Cc3ccccc3)cc2)n1

>  <Energy>  (6) 
50.82448074356011

>  <Genealogy>  (6) 
Cc1cc[n-]c(=NS(=O)(=O)c2ccc(NC(=O)[N-]Cc3ccccc3)cc2)n1 (protonated)
Cc1cc[n-]c(=NS(=O)(=O)c2ccc(NC(=O)[N-]Cc3ccccc3)cc2)n1 (3D coordinates assigned)
Cc1cc[n-]c(=NS(=O)(=O)c2ccc(NC(=O)[N-]Cc3ccccc3)cc2)n1 (optimized conformer: 50.82448074356011 kcal/mol)

>  <smiles>  (6) 
Cc1cc[nH]c(=NS(=O)(=O)c2ccc(NC(=O)NCc3ccccc3)cc2)n1

>  <score_type>  (6) 
oracle

>  <origin>  (6) 
adg

>  <m_score__min__energy>  (6) 
-11.539999999999999

>  <m_primary>  (6) 
energy

$$$$
6:0
     RDKit          3D

 44 46  0  0  0  0  0  0  0  0999 V2000
   65.0970   38.0260   53.3090 C   0  0  0  0  0  0  0  0  0  0  0  0
   64.5310   36.7320   53.1330 O   0  0  0  0  0  0  0  0  0  0  0  0
   65.1240   35.7030   52.3840 C   0  0  0  0  0  0  0  0  0  0  0  0
   66.5140   35.4920   52.3610 C   0  0  0  0  0  0  0  0  0  0  0  0
   67.0540   34.4510   51.6020 C   0  0  0  0  0  0  0  0  0  0  0  0
   66.2180   33.6130   50.8630 C   0  0  0  0  0  0  0  0  0  0  0  0
   64.8260   33.8080   50.8710 C   0  0  0  0  0  0  0  0  0  0  0  0
   63.9340   32.9190   50.0830 C   0  0  0  0  0  0  0  0  0  0  0  0
   63.3720   31.7720   50.6690 C   0  0  0  0  0  0  0  0  0  0  0  0
   62.5320   30.9340   49.9300 C   0  0  0  0  0  0  0  0  0  0  0  0
   62.0030   29.8340   50.5220 F   0  0  0  0  0  0  0  0  0  0  0  0
   62.2510   31.2170   48.5840 C   0  0  0  0  0  0  0  0  0  0  0  0
   61.3750   30.3510   47.8440 N   0  0  0  0  0  0  0  0  0  0  0  0
   59.9420   30.4160   47.9420 C   0  0  0  0  0  0  0  0  0  0  0  0
   59.3960   31.4490   48.4170 O   0  0  0  0  0  0  0  0  0  0  0  0
   59.0950   29.3020   47.4510 C   0  0  0  0  0  0  0  0  0  0  0  0
   58.1730   29.5000   46.4060 C   0  0  0  0  0  0  0  0  0  0  0  0
   57.3850   28.4410   45.9470 C   0  0  0  0  0  0  0  0  0  0  0  0
   57.5030   27.1700   46.5210 C   0  0  0  0  0  0  0  0  0  0  0  0
   56.5180   25.8360   45.9280 S   0  0  0  0  0  0  0  0  0  0  0  0
   54.8500   26.2890   45.9690 N   0  0  0  0  0  0  0  0  0  0  0  0
   56.9090   25.5010   44.5170 O   0  0  0  0  0  0  0  0  0  0  0  0
   56.7310   24.6240   46.7890 O   0  0  0  0  0  0  0  0  0  0  0  0
   58.4290   26.9610   47.5490 C   0  0  0  0  0  0  0  0  0  0  0  0
   59.2210   28.0170   48.0110 C   0  0  0  0  0  0  0  0  0  0  0  0
   62.7950   32.3770   48.0000 C   0  0  0  0  0  0  0  0  0  0  0  0
   62.4840   32.7230   46.7250 F   0  0  0  0  0  0  0  0  0  0  0  0
   63.6320   33.2140   48.7430 C   0  0  0  0  0  0  0  0  0  0  0  0
   64.2900   34.8600   51.6380 C   0  0  0  0  0  0  0  0  0  0  0  0
   65.1914   38.2419   54.3835 H   0  0  0  0  0  0  0  0  0  0  0  0
   66.0914   38.0582   52.8398 H   0  0  0  0  0  0  0  0  0  0  0  0
   64.4456   38.7780   52.8398 H   0  0  0  0  0  0  0  0  0  0  0  0
   67.1781   36.1485   52.9423 H   0  0  0  0  0  0  0  0  0  0  0  0
   68.1422   34.2913   51.5868 H   0  0  0  0  0  0  0  0  0  0  0  0
   66.6514   32.7941   50.2701 H   0  0  0  0  0  0  0  0  0  0  0  0
   63.5952   31.5314   51.7189 H   0  0  0  0  0  0  0  0  0  0  0  0
   61.7920   29.7620   47.0890 H   0  0  0  0  0  0  0  0  0  0  0  0
   58.0720   30.4948   45.9476 H   0  0  0  0  0  0  0  0  0  0  0  0
   56.6678   28.6074   45.1297 H   0  0  0  0  0  0  0  0  0  0  0  0
   54.7700   27.0960   46.6280 H   0  0  0  0  0  0  0  0  0  0  0  0
   58.5345   25.9614   47.9959 H   0  0  0  0  0  0  0  0  0  0  0  0
   59.9477   27.8420   48.8180 H   0  0  0  0  0  0  0  0  0  0  0  0
   64.0586   34.1128   48.2739 H   0  0  0  0  0  0  0  0  0  0  0  0
   63.2021   35.0221   51.6517 H   0  0  0  0  0  0  0  0  0  0  0  0
  1  2  1  0
  2  3  1  0
  3  4  2  0
  4  5  1  0
  5  6  2  0
  6  7  1  0
  7  8  1  0
  8  9  2  0
  9 10  1  0
 10 11  1  0
 10 12  2  0
 12 13  1  0
 13 14  1  0
 14 15  2  0
 14 16  1  0
 16 17  2  0
 17 18  1  0
 18 19  2  0
 19 20  1  0
 20 21  1  0
 20 22  2  0
 20 23  2  0
 19 24  1  0
 24 25  2  0
 12 26  1  0
 26 27  1  0
 26 28  2  0
  7 29  2  0
 29  3  1  0
 28  8  1  0
 25 16  1  0
  1 30  1  0
  1 31  1  0
  1 32  1  0
  4 33  1  0
  5 34  1  0
  6 35  1  0
  9 36  1  0
 13 37  1  0
 17 38  1  0
 18 39  1  0
 21 40  1  0
 24 41  1  0
 25 42  1  0
 28 43  1  0
 29 44  1  0
M  CHG  1  21  -1
M  END
>  <UniqueID>  (7) 
7

>  <SMILES>  (7) 
COc1cccc(-c2cc(F)c(NC(=O)c3ccc(S([NH-])(=O)=O)cc3)c(F)c2)c1

>  <Energy>  (7) 
58.33802279068787

>  <Genealogy>  (7) 
COc1cccc(-c2cc(F)c(NC(=O)c3ccc(S([NH-])(=O)=O)cc3)c(F)c2)c1 (protonated)
COc1cccc(-c2cc(F)c(NC(=O)c3ccc(S([NH-])(=O)=O)cc3)c(F)c2)c1 (3D coordinates assigned)
COc1cccc(-c2cc(F)c(NC(=O)c3ccc(S([NH-])(=O)=O)cc3)c(F)c2)c1 (optimized conformer: 58.33802279068787 kcal/mol)

>  <smiles>  (7) 
COc1cccc(-c2cc(F)c(NC(=O)c3ccc(S(N)(=O)=O)cc3)c(F)c2)c1

>  <score_type>  (7) 
oracle

>  <origin>  (7) 
adg

>  <m_score__min__energy>  (7) 
-9.4399999999999995

>  <m_primary>  (7) 
energy

$$$$
7:0
     RDKit          3D

 45 47  0  0  0  0  0  0  0  0999 V2000
   58.3930   30.2140   46.3380 C   0  0  0  0  0  0  0  0  0  0  0  0
   57.7220   31.4580   46.1670 O   0  0  0  0  0  0  0  0  0  0  0  0
   58.3410   32.7150   46.2610 C   0  0  0  0  0  0  0  0  0  0  0  0
   58.5900   33.5090   45.1280 C   0  0  0  0  0  0  0  0  0  0  0  0
   59.2080   34.7530   45.2600 C   0  0  0  0  0  0  0  0  0  0  0  0
   59.5780   35.2180   46.5210 C   0  0  0  0  0  0  0  0  0  0  0  0
   59.3330   34.4420   47.6520 C   0  0  0  0  0  0  0  0  0  0  0  0
   58.7130   33.1850   47.5310 C   0  0  0  0  0  0  0  0  0  0  0  0
   58.4400   32.3660   48.6780 N   0  0  0  0  0  0  0  0  0  0  0  0
   59.2340   32.5140   50.2120 S   0  0  0  0  0  0  0  0  0  0  0  0
   59.2180   33.9610   50.6270 O   0  0  0  0  0  0  0  0  0  0  0  0
   60.6590   32.0610   50.0830 O   0  0  0  0  0  0  0  0  0  0  0  0
   58.4040   31.4790   51.3790 C   0  0  0  0  0  0  0  0  0  0  0  0
   57.0350   31.2480   51.2000 C   0  0  0  0  0  0  0  0  0  0  0  0
   56.3050   30.5330   52.1500 C   0  0  0  0  0  0  0  0  0  0  0  0
   54.9020   30.3300   51.9470 N   0  0  0  0  0  0  0  0  0  0  0  0
   53.9160   30.3230   52.9850 C   0  0  0  0  0  0  0  0  0  0  0  0
   54.0030   29.4650   53.9010 O   0  0  0  0  0  0  0  0  0  0  0  0
   52.7040   31.2090   52.9270 C   0  0  0  0  0  0  0  0  0  0  0  0
   52.1540   31.2160   51.5330 C   0  0  0  0  0  0  0  0  0  0  0  0
   52.3030   29.9550   50.4200 S   0  0  0  0  0  0  0  0  0  0  0  0
   51.3820   30.7600   49.2650 C   0  0  0  0  0  0  0  0  0  0  0  0
   51.1190   30.3010   48.1200 O   0  0  0  0  0  0  0  0  0  0  0  0
   50.9420   31.9630   49.6940 N   0  0  0  0  0  0  0  0  0  0  0  0
   51.3680   32.2130   50.9620 C   0  0  0  0  0  0  0  0  0  0  0  0
   51.0270   33.3830   51.6340 O   0  0  0  0  0  0  0  0  0  0  0  0
   56.9580   29.9920   53.2670 C   0  0  0  0  0  0  0  0  0  0  0  0
   58.3370   30.1830   53.4450 C   0  0  0  0  0  0  0  0  0  0  0  0
   59.0250   29.6250   54.6580 C   0  0  0  0  0  0  0  0  0  0  0  0
   59.0610   30.9370   52.5020 C   0  0  0  0  0  0  0  0  0  0  0  0
   60.4240   31.1450   52.6920 O   0  0  0  0  0  0  0  0  0  0  0  0
   58.5067   30.0033   47.4116 H   0  0  0  0  0  0  0  0  0  0  0  0
   57.8049   29.4124   45.8672 H   0  0  0  0  0  0  0  0  0  0  0  0
   59.3859   30.2652   45.8672 H   0  0  0  0  0  0  0  0  0  0  0  0
   58.2959   33.1475   44.1316 H   0  0  0  0  0  0  0  0  0  0  0  0
   59.4033   35.3671   44.3685 H   0  0  0  0  0  0  0  0  0  0  0  0
   60.0643   36.1994   46.6233 H   0  0  0  0  0  0  0  0  0  0  0  0
   59.6259   34.8142   48.6448 H   0  0  0  0  0  0  0  0  0  0  0  0
   56.5301   31.6337   50.3021 H   0  0  0  0  0  0  0  0  0  0  0  0
   51.9393   30.8294   53.6206 H   0  0  0  0  0  0  0  0  0  0  0  0
   52.9853   32.2329   53.2144 H   0  0  0  0  0  0  0  0  0  0  0  0
   56.3859   29.4145   54.0081 H   0  0  0  0  0  0  0  0  0  0  0  0
   58.5425   30.0164   55.5657 H   0  0  0  0  0  0  0  0  0  0  0  0
   58.9524   28.5274   54.6483 H   0  0  0  0  0  0  0  0  0  0  0  0
   60.0839   29.9226   54.6483 H   0  0  0  0  0  0  0  0  0  0  0  0
  1  2  1  0
  2  3  1  0
  3  4  2  0
  4  5  1  0
  5  6  2  0
  6  7  1  0
  7  8  2  0
  8  9  1  0
  9 10  1  0
 10 11  2  0
 10 12  2  0
 10 13  1  0
 13 14  2  0
 14 15  1  0
 15 16  1  0
 16 17  1  0
 17 18  2  0
 17 19  1  0
 19 20  1  0
 20 21  1  0
 21 22  1  0
 22 23  2  0
 22 24  1  0
 24 25  1  0
 25 26  1  0
 15 27  2  0
 27 28  1  0
 28 29  1  0
 28 30  2  0
 30 31  1  0
  8  3  1  0
 30 13  1  0
 25 20  2  0
  1 32  1  0
  1 33  1  0
  1 34  1  0
  4 35  1  0
  5 36  1  0
  6 37  1  0
  7 38  1  0
 14 39  1  0
 19 40  1  0
 19 41  1  0
 27 42  1  0
 29 43  1  0
 29 44  1  0
 29 45  1  0
M  CHG  5   9  -1  16  -1  24  -1  26  -1  31  -1
M  END
>  <UniqueID>  (8) 
8

>  <SMILES>  (8) 
COc1ccccc1[N-]S(=O)(=O)c1cc([N-]C(=O)Cc2sc(=O)[n-]c2[O-])cc(C)c1[O-]

>  <Energy>  (8) 
83.26052470212099

>  <Genealogy>  (8) 
COc1ccccc1[N-]S(=O)(=O)c1cc([N-]C(=O)Cc2sc(=O)[n-]c2[O-])cc(C)c1[O-] (protonated)
COc1ccccc1[N-]S(=O)(=O)c1cc([N-]C(=O)Cc2sc(=O)[n-]c2[O-])cc(C)c1[O-] (3D coordinates assigned)
COc1ccccc1[N-]S(=O)(=O)c1cc([N-]C(=O)Cc2sc(=O)[n-]c2[O-])cc(C)c1[O-] (optimized conformer: 83.26052470212099 kcal/mol)

>  <smiles>  (8) 
COc1ccccc1NS(=O)(=O)c1cc(NC(=O)Cc2sc(=O)[nH]c2O)cc(C)c1O

>  <score_type>  (8) 
oracle

>  <origin>  (8) 
adg

>  <m_score__min__energy>  (8) 
-19

>  <m_primary>  (8) 
energy

$$$$
8:0
     RDKit          3D

 31 32  0  0  0  0  0  0  0  0999 V2000
   58.2710   34.8000   52.7370 N   0  0  0  0  0  0  0  0  0  0  0  0
   58.8790   33.4740   52.8040 C   0  0  0  0  0  0  0  0  0  0  0  0
   57.8240   32.3980   52.8630 C   0  0  0  0  0  0  0  0  0  0  0  0
   56.9600   32.1950   51.7760 C   0  0  0  0  0  0  0  0  0  0  0  0
   55.9620   31.2180   51.8420 C   0  0  0  0  0  0  0  0  0  0  0  0
   55.8130   30.4320   52.9960 C   0  0  0  0  0  0  0  0  0  0  0  0
   54.7310   29.3860   53.0620 C   0  0  0  0  0  0  0  0  0  0  0  0
   53.8070   29.5230   51.9360 N   0  0  0  0  0  0  0  0  0  0  0  0
   52.7570   30.5070   51.8580 C   0  0  0  0  0  0  0  0  0  0  0  0
   52.1320   31.0230   53.0080 C   0  0  0  0  0  0  0  0  0  0  0  0
   51.1180   31.9740   52.8740 C   0  0  0  0  0  0  0  0  0  0  0  0
   50.7390   32.4000   51.6410 N   0  0  0  0  0  0  0  0  0  0  0  0
   51.3260   31.9260   50.5120 C   0  0  0  0  0  0  0  0  0  0  0  0
   50.9500   32.3440   49.3860 O   0  0  0  0  0  0  0  0  0  0  0  0
   52.3460   30.9730   50.6000 C   0  0  0  0  0  0  0  0  0  0  0  0
   56.6620   30.6540   54.0920 C   0  0  0  0  0  0  0  0  0  0  0  0
   57.6590   31.6310   54.0260 C   0  0  0  0  0  0  0  0  0  0  0  0
   58.6930   35.3240   51.9350 H   0  0  0  0  0  0  0  0  0  0  0  0
   58.5020   35.3220   53.6130 H   0  0  0  0  0  0  0  0  0  0  0  0
   59.5020   33.3184   51.9109 H   0  0  0  0  0  0  0  0  0  0  0  0
   59.4912   33.4149   53.7160 H   0  0  0  0  0  0  0  0  0  0  0  0
   57.0683   32.8070   50.8684 H   0  0  0  0  0  0  0  0  0  0  0  0
   55.2897   31.0642   50.9850 H   0  0  0  0  0  0  0  0  0  0  0  0
   55.1920   28.3877   53.0309 H   0  0  0  0  0  0  0  0  0  0  0  0
   54.1686   29.5189   53.9980 H   0  0  0  0  0  0  0  0  0  0  0  0
   53.8980   28.8290   51.1590 H   0  0  0  0  0  0  0  0  0  0  0  0
   52.4401   30.6795   54.0066 H   0  0  0  0  0  0  0  0  0  0  0  0
   50.6247   32.3794   53.7697 H   0  0  0  0  0  0  0  0  0  0  0  0
   52.8242   30.5903   49.6863 H   0  0  0  0  0  0  0  0  0  0  0  0
   56.5418   30.0558   55.0073 H   0  0  0  0  0  0  0  0  0  0  0  0
   58.3179   31.7995   54.8905 H   0  0  0  0  0  0  0  0  0  0  0  0
  1  2  1  0
  2  3  1  0
  3  4  2  0
  4  5  1  0
  5  6  2  0
  6  7  1  0
  7  8  1  0
  8  9  1  0
  9 10  1  0
 10 11  2  0
 11 12  1  0
 12 13  1  0
 13 14  2  0
 13 15  1  0
  6 16  1  0
 16 17  2  0
 17  3  1  0
 15  9  2  0
  1 18  1  0
  1 19  1  0
  2 20  1  0
  2 21  1  0
  4 22  1  0
  5 23  1  0
  7 24  1  0
  7 25  1  0
  8 26  1  0
 10 27  1  0
 11 28  1  0
 15 29  1  0
 16 30  1  0
 17 31  1  0
M  CHG  1  12  -1
M  END
>  <UniqueID>  (9) 
9

>  <SMILES>  (9) 
NCc1ccc(CNc2cc[n-]c(=O)c2)cc1

>  <Energy>  (9) 
30.134757502299344

>  <Genealogy>  (9) 
NCc1ccc(CNc2cc[n-]c(=O)c2)cc1 (protonated)
NCc1ccc(CNc2cc[n-]c(=O)c2)cc1 (3D coordinates assigned)
NCc1ccc(CNc2cc[n-]c(=O)c2)cc1 (optimized conformer: 30.134757502299344 kcal/mol)

>  <smiles>  (9) 
NCc1ccc(CNc2cc[nH]c(=O)c2)cc1

>  <score_type>  (9) 
oracle

>  <origin>  (9) 
adg

>  <m_score__min__energy>  (9) 
-8.9299999999999997

>  <m_primary>  (9) 
energy

$$$$
9:0
     RDKit          3D

 59 62  0  0  0  0  0  0  0  0999 V2000
   52.8886   25.7032   45.4858 H   0  0  0  0  0  0  0  0  0  0  0  0
   53.5490   24.8340   45.6210 C   0  0  0  0  0  0  0  0  0  0  0  0
   54.8730   24.9610   45.9060 N   0  0  0  0  0  0  0  0  0  0  0  0
   55.4680   23.7540   46.0250 C   0  0  0  0  0  0  0  0  0  0  0  0
   56.7240   23.5880   46.3000 N   0  0  0  0  0  0  0  0  0  0  0  0
   58.0000   24.2710   45.3450 S   0  0  0  0  0  0  0  0  0  0  0  0
   57.6590   24.1410   43.8860 O   0  0  0  0  0  0  0  0  0  0  0  0
   59.2730   23.5190   45.6080 O   0  0  0  0  0  0  0  0  0  0  0  0
   58.2290   25.9610   45.7840 C   0  0  0  0  0  0  0  0  0  0  0  0
   58.2890   26.3460   47.1310 C   0  0  0  0  0  0  0  0  0  0  0  0
   58.1627   25.5931   47.9230 H   0  0  0  0  0  0  0  0  0  0  0  0
   58.5090   27.6850   47.4700 C   0  0  0  0  0  0  0  0  0  0  0  0
   58.5452   27.9828   48.5283 H   0  0  0  0  0  0  0  0  0  0  0  0
   58.6840   28.6520   46.4650 C   0  0  0  0  0  0  0  0  0  0  0  0
   58.9050   30.0350   46.7880 N   0  0  0  0  0  0  0  0  0  0  0  0
   59.5030   30.2520   47.6180 H   0  0  0  0  0  0  0  0  0  0  0  0
   58.2270   31.1250   46.1400 C   0  0  0  0  0  0  0  0  0  0  0  0
   57.3110   30.9040   45.3030 O   0  0  0  0  0  0  0  0  0  0  0  0
   58.5820   32.5430   46.4730 C   0  0  0  0  0  0  0  0  0  0  0  0
   59.0097   33.0278   45.5830 H   0  0  0  0  0  0  0  0  0  0  0  0
   57.6721   33.0722   46.7923 H   0  0  0  0  0  0  0  0  0  0  0  0
   59.5360   32.5830   47.5340 O   0  0  0  0  0  0  0  0  0  0  0  0
   60.9300   32.6780   47.3730 C   0  0  0  0  0  0  0  0  0  0  0  0
   61.5490   33.8270   46.8410 C   0  0  0  0  0  0  0  0  0  0  0  0
   60.9358   34.6873   46.5347 H   0  0  0  0  0  0  0  0  0  0  0  0
   62.9380   33.8780   46.7010 C   0  0  0  0  0  0  0  0  0  0  0  0
   63.4146   34.7769   46.2829 H   0  0  0  0  0  0  0  0  0  0  0  0
   63.7220   32.7920   47.0900 C   0  0  0  0  0  0  0  0  0  0  0  0
   64.8157   32.8364   46.9809 H   0  0  0  0  0  0  0  0  0  0  0  0
   63.1190   31.6480   47.6180 C   0  0  0  0  0  0  0  0  0  0  0  0
   63.7404   30.7936   47.9244 H   0  0  0  0  0  0  0  0  0  0  0  0
   61.7190   31.5830   47.7600 C   0  0  0  0  0  0  0  0  0  0  0  0
   61.0750   30.4460   48.2740 O   0  0  0  0  0  0  0  0  0  0  0  0
   60.8830   30.1840   49.6630 C   0  0  0  0  0  0  0  0  0  0  0  0
   61.1257   29.1315   49.8712 H   0  0  0  0  0  0  0  0  0  0  0  0
   61.5414   30.8439   50.2471 H   0  0  0  0  0  0  0  0  0  0  0  0
   59.4540   30.4500   50.0490 C   0  0  0  0  0  0  0  0  0  0  0  0
   58.5440   29.7520   49.5210 O   0  0  0  0  0  0  0  0  0  0  0  0
   59.1020   31.5070   50.9710 N   0  0  0  0  0  0  0  0  0  0  0  0
   60.1340   32.4040   51.5120 C   0  0  0  0  0  0  0  0  0  0  0  0
   60.6314   31.9120   52.3608 H   0  0  0  0  0  0  0  0  0  0  0  0
   60.8631   32.6242   50.7183 H   0  0  0  0  0  0  0  0  0  0  0  0
   59.5110   33.7200   51.9880 C   0  0  0  0  0  0  0  0  0  0  0  0
   60.2693   34.3008   52.5336 H   0  0  0  0  0  0  0  0  0  0  0  0
   59.1573   34.2793   51.1093 H   0  0  0  0  0  0  0  0  0  0  0  0
   58.4120   33.4780   52.8410 O   0  0  0  0  0  0  0  0  0  0  0  0
   57.3760   32.8580   52.1070 C   0  0  0  0  0  0  0  0  0  0  0  0
   56.4826   32.7748   52.7433 H   0  0  0  0  0  0  0  0  0  0  0  0
   57.1569   33.4694   51.2192 H   0  0  0  0  0  0  0  0  0  0  0  0
   57.7990   31.4590   51.6490 C   0  0  0  0  0  0  0  0  0  0  0  0
   57.8721   30.7986   52.5257 H   0  0  0  0  0  0  0  0  0  0  0  0
   57.0471   31.0749   50.9440 H   0  0  0  0  0  0  0  0  0  0  0  0
   58.5970   28.2650   45.1210 C   0  0  0  0  0  0  0  0  0  0  0  0
   58.6993   29.0198   44.3274 H   0  0  0  0  0  0  0  0  0  0  0  0
   58.3810   26.9260   44.7820 C   0  0  0  0  0  0  0  0  0  0  0  0
   58.3303   26.6299   43.7238 H   0  0  0  0  0  0  0  0  0  0  0  0
   54.3910   22.4890   45.7850 S   0  0  0  0  0  0  0  0  0  0  0  0
   53.0910   23.5250   45.5130 C   0  0  0  0  0  0  0  0  0  0  0  0
   52.0584   23.2193   45.2887 H   0  0  0  0  0  0  0  0  0  0  0  0
  1  2  1  0
  2  3  1  0
  3  4  1  0
  4  5  2  0
  5  6  1  0
  6  7  2  0
  6  8  2  0
  6  9  1  0
  9 10  2  0
 10 11  1  0
 10 12  1  0
 12 13  1  0
 12 14  2  0
 14 15  1  0
 15 16  1  0
 15 17  1  0
 17 18  2  0
 17 19  1  0
 19 20  1  0
 19 21  1  0
 19 22  1  0
 22 23  1  0
 23 24  2  0
 24 25  1  0
 24 26  1  0
 26 27  1  0
 26 28  2  0
 28 29  1  0
 28 30  1  0
 30 31  1  0
 30 32  2  0
 32 33  1  0
 33 34  1  0
 34 35  1  0
 34 36  1  0
 34 37  1  0
 37 38  2  0
 37 39  1  0
 39 40  1  0
 40 41  1  0
 40 42  1  0
 40 43  1  0
 43 44  1  0
 43 45  1  0
 43 46  1  0
 46 47  1  0
 47 48  1  0
 47 49  1  0
 47 50  1  0
 50 51  1  0
 50 52  1  0
 14 53  1  0
 53 54  1  0
 53 55  2  0
 55 56  1  0
  4 57  1  0
 57 58  1  0
 58 59  1  0
 58  2  2  0
 55  9  1  0
 32 23  1  0
 50 39  1  0
M  CHG  1   3  -1
M  END
>  <UniqueID>  (10) 
10

>  <SMILES>  (10) 
O=C(COc1ccccc1OCC(=O)N1CCOCC1)Nc1ccc(S(=O)(=O)/N=c2\[n-]ccs2)cc1

>  <Energy>  (10) 
99.17014854309161

>  <Genealogy>  (10) 
O=C(COc1ccccc1OCC(=O)N1CCOCC1)Nc1ccc(S(=O)(=O)N=c2[n-]ccs2)cc1 (protonated)
O=C(COc1ccccc1OCC(=O)N1CCOCC1)Nc1ccc(S(=O)(=O)/N=c2\[n-]ccs2)cc1 (cis-trans isomerization)
O=C(COc1ccccc1OCC(=O)N1CCOCC1)Nc1ccc(S(=O)(=O)/N=c2\[n-]ccs2)cc1 (3D coordinates assigned)
O=C(COc1ccccc1OCC(=O)N1CCOCC1)Nc1ccc(S(=O)(=O)/N=c2\[n-]ccs2)cc1 (nonaromatic ring conformer: 99.17014854309161 kcal/mol)

>  <smiles>  (10) 
O=C(COc1ccccc1OCC(=O)N1CCOCC1)Nc1ccc(S(=O)(=O)N=c2[nH]ccs2)cc1

>  <score_type>  (10) 
oracle

>  <origin>  (10) 
adg

>  <m_score__min__energy>  (10) 
-10.039999999999999

>  <m_primary>  (10) 
energy

$$$$
10:0
     RDKit          3D

 62 66  0  0  0  0  0  0  0  0999 V2000
   54.3700   26.6870   46.7460 H   0  0  0  0  0  0  0  0  0  0  0  0
   55.1050   26.6990   46.0490 O   0  0  0  0  0  0  0  0  0  0  0  0
   56.0530   25.6810   45.9900 C   0  0  0  0  0  0  0  0  0  0  0  0
   55.8240   24.5230   46.6680 N   0  0  0  0  0  0  0  0  0  0  0  0
   56.7310   23.5100   46.7110 C   0  0  0  0  0  0  0  0  0  0  0  0
   56.3850   22.3060   47.4140 N   0  0  0  0  0  0  0  0  0  0  0  0
   56.2620   22.1630   48.7010 C   0  0  0  0  0  0  0  0  0  0  0  0
   57.3800   22.0880   49.4680 N   0  0  0  0  0  0  0  0  0  0  0  0
   57.3210   21.9100   50.8160 C   0  0  0  0  0  0  0  0  0  0  0  0
   58.6090   21.8450   51.5840 C   0  0  0  0  0  0  0  0  0  0  0  0
   58.3937   21.8559   52.6627 H   0  0  0  0  0  0  0  0  0  0  0  0
   59.1434   20.9187   51.3261 H   0  0  0  0  0  0  0  0  0  0  0  0
   59.2339   22.7128   51.3261 H   0  0  0  0  0  0  0  0  0  0  0  0
   56.0600   21.7850   51.4400 C   0  0  0  0  0  0  0  0  0  0  0  0
   55.9070   21.5870   52.8280 C   0  0  0  0  0  0  0  0  0  0  0  0
   56.7974   21.5294   53.4713 H   0  0  0  0  0  0  0  0  0  0  0  0
   54.6330   21.4630   53.3950 C   0  0  0  0  0  0  0  0  0  0  0  0
   54.5390   21.2600   54.7800 O   0  0  0  0  0  0  0  0  0  0  0  0
   54.9910   22.1860   55.7620 C   0  0  0  0  0  0  0  0  0  0  0  0
   54.7936   21.7816   56.7657 H   0  0  0  0  0  0  0  0  0  0  0  0
   56.0715   22.3520   55.6396 H   0  0  0  0  0  0  0  0  0  0  0  0
   54.4572   23.1400   55.6396 H   0  0  0  0  0  0  0  0  0  0  0  0
   53.4960   21.5440   52.5670 C   0  0  0  0  0  0  0  0  0  0  0  0
   52.4915   21.4510   53.0055 H   0  0  0  0  0  0  0  0  0  0  0  0
   53.6390   21.7420   51.1910 C   0  0  0  0  0  0  0  0  0  0  0  0
   52.7467   21.8052   50.5509 H   0  0  0  0  0  0  0  0  0  0  0  0
   54.9120   21.8600   50.6250 C   0  0  0  0  0  0  0  0  0  0  0  0
   55.0390   22.0410   49.2850 N   0  0  0  0  0  0  0  0  0  0  0  0
   57.9380   23.6410   46.0090 C   0  0  0  0  0  0  0  0  0  0  0  0
   58.6736   22.8232   46.0146 H   0  0  0  0  0  0  0  0  0  0  0  0
   58.1990   24.8150   45.3040 C   0  0  0  0  0  0  0  0  0  0  0  0
   59.1560   24.9328   44.7746 H   0  0  0  0  0  0  0  0  0  0  0  0
   57.2510   25.8460   45.2650 C   0  0  0  0  0  0  0  0  0  0  0  0
   57.5670   27.0700   44.4930 C   0  0  0  0  0  0  0  0  0  0  0  0
   56.9040   27.3559   43.6631 H   0  0  0  0  0  0  0  0  0  0  0  0
   58.6280   27.8440   44.7640 C   0  0  0  0  0  0  0  0  0  0  0  0
   59.6309   27.4367   44.5680 H   0  0  0  0  0  0  0  0  0  0  0  0
   58.5260   29.2180   45.3130 C   0  0  0  0  0  0  0  0  0  0  0  0
   58.8910   29.5340   46.6360 C   0  0  0  0  0  0  0  0  0  0  0  0
   59.2516   28.7409   47.3075 H   0  0  0  0  0  0  0  0  0  0  0  0
   58.7980   30.8500   47.1020 C   0  0  0  0  0  0  0  0  0  0  0  0
   59.0921   31.0854   48.1355 H   0  0  0  0  0  0  0  0  0  0  0  0
   58.3320   31.8720   46.2600 C   0  0  0  0  0  0  0  0  0  0  0  0
   58.2360   33.2380   46.6850 N   0  0  0  0  0  0  0  0  0  0  0  0
   59.4360   34.4810   46.4920 S   0  0  0  0  0  0  0  0  0  0  0  0
   59.6340   34.8490   45.0500 O   0  0  0  0  0  0  0  0  0  0  0  0
   58.9500   35.7110   47.2060 O   0  0  0  0  0  0  0  0  0  0  0  0
   60.9570   33.9500   47.2270 C   0  0  0  0  0  0  0  0  0  0  0  0
   62.0990   33.8490   46.4110 C   0  0  0  0  0  0  0  0  0  0  0  0
   62.0259   34.0846   45.3390 H   0  0  0  0  0  0  0  0  0  0  0  0
   63.3250   33.4520   46.9510 C   0  0  0  0  0  0  0  0  0  0  0  0
   64.2102   33.3711   46.3030 H   0  0  0  0  0  0  0  0  0  0  0  0
   63.4280   33.1580   48.3110 C   0  0  0  0  0  0  0  0  0  0  0  0
   64.3936   32.8443   48.7343 H   0  0  0  0  0  0  0  0  0  0  0  0
   62.3050   33.2620   49.1350 C   0  0  0  0  0  0  0  0  0  0  0  0
   62.3910   33.0322   50.2073 H   0  0  0  0  0  0  0  0  0  0  0  0
   61.0700   33.6570   48.6050 C   0  0  0  0  0  0  0  0  0  0  0  0
   59.7080   33.7720   49.7120 Cl  0  0  0  0  0  0  0  0  0  0  0  0
   58.0070   31.5640   44.9340 C   0  0  0  0  0  0  0  0  0  0  0  0
   57.6752   32.3630   44.2546 H   0  0  0  0  0  0  0  0  0  0  0  0
   58.1000   30.2510   44.4650 C   0  0  0  0  0  0  0  0  0  0  0  0
   57.8367   30.0254   43.4211 H   0  0  0  0  0  0  0  0  0  0  0  0
  1  2  1  0
  2  3  1  0
  3  4  2  0
  4  5  1  0
  5  6  1  0
  6  7  2  3
  7  8  1  0
  8  9  2  0
  9 10  1  0
 10 11  1  0
 10 12  1  0
 10 13  1  0
  9 14  1  0
 14 15  2  0
 15 16  1  0
 15 17  1  0
 17 18  1  0
 18 19  1  0
 19 20  1  0
 19 21  1  0
 19 22  1  0
 17 23  2  0
 23 24  1  0
 23 25  1  0
 25 26  1  0
 25 27  2  0
 27 28  1  0
  5 29  2  0
 29 30  1  0
 29 31  1  0
 31 32  1  0
 31 33  2  0
 33 34  1  0
 34 35  1  0
 34 36  2  0
 36 37  1  0
 36 38  1  0
 38 39  2  0
 39 40  1  0
 39 41  1  0
 41 42  1  0
 41 43  2  0
 43 44  1  0
 44 45  1  0
 45 46  2  0
 45 47  2  0
 45 48  1  0
 48 49  2  0
 49 50  1  0
 49 51  1  0
 51 52  1  0
 51 53  2  0
 53 54  1  0
 53 55  1  0
 55 56  1  0
 55 57  2  0
 57 58  1  0
 43 59  1  0
 59 60  1  0
 59 61  2  0
 61 62  1  0
 33  3  1  0
 61 38  1  0
 28  7  1  0
 57 48  1  0
 27 14  1  0
M  CHG  2  28  -1  44  -1
M  END
>  <UniqueID>  (11) 
11

>  <SMILES>  (11) 
COc1ccc2[n-]c(=Nc3ccc(/C=C/c4ccc([N-]S(=O)(=O)c5ccccc5Cl)cc4)c(O)n3)nc(C)c2c1

>  <Energy>  (11) 
95.10486590499212

>  <Genealogy>  (11) 
COc1ccc2[n-]c(=Nc3ccc(C=Cc4ccc([N-]S(=O)(=O)c5ccccc5Cl)cc4)c(O)n3)nc(C)c2c1 (protonated)
COc1ccc2[n-]c(=Nc3ccc(/C=C/c4ccc([N-]S(=O)(=O)c5ccccc5Cl)cc4)c(O)n3)nc(C)c2c1 (cis-trans isomerization)
COc1ccc2[n-]c(=Nc3ccc(/C=C/c4ccc([N-]S(=O)(=O)c5ccccc5Cl)cc4)c(O)n3)nc(C)c2c1 (3D coordinates assigned)
COc1ccc2[n-]c(=Nc3ccc(/C=C/c4ccc([N-]S(=O)(=O)c5ccccc5Cl)cc4)c(O)n3)nc(C)c2c1 (optimized conformer: 95.10486590499212 kcal/mol)

>  <smiles>  (11) 
COc1ccc2[nH]c(=Nc3ccc(C=Cc4ccc(NS(=O)(=O)c5ccccc5Cl)cc4)c(O)n3)nc(C)c2c1

>  <score_type>  (11) 
oracle

>  <origin>  (11) 
adg

>  <m_score__min__energy>  (11) 
-13.640000000000001

>  <m_primary>  (11) 
energy

$$$$
11:0
     RDKit          3D

 49 51  0  0  0  0  0  0  0  0999 V2000
   55.2480   29.3360   44.9000 O   0  0  0  0  0  0  0  0  0  0  0  0
   56.4740   29.4280   44.6200 C   0  0  0  0  0  0  0  0  0  0  0  0
   57.4130   28.3980   45.1800 C   0  0  0  0  0  0  0  0  0  0  0  0
   58.6870   28.4460   44.4560 N   0  0  0  0  0  0  0  0  0  0  0  0
   59.9880   28.0050   45.5180 S   0  0  0  0  0  0  0  0  0  0  0  0
   59.8990   26.5410   45.8540 O   0  0  0  0  0  0  0  0  0  0  0  0
   61.3020   28.2680   44.8390 O   0  0  0  0  0  0  0  0  0  0  0  0
   59.8970   28.9760   46.9850 C   0  0  0  0  0  0  0  0  0  0  0  0
   60.7280   30.0920   47.1600 C   0  0  0  0  0  0  0  0  0  0  0  0
   60.6640   30.8360   48.3410 C   0  0  0  0  0  0  0  0  0  0  0  0
   59.7730   30.4660   49.3520 C   0  0  0  0  0  0  0  0  0  0  0  0
   58.9420   29.3560   49.1820 C   0  0  0  0  0  0  0  0  0  0  0  0
   59.0020   28.6120   48.0010 C   0  0  0  0  0  0  0  0  0  0  0  0
   56.9600   30.5520   43.7700 C   0  0  0  0  0  0  0  0  0  0  0  0
   56.6440   30.5750   42.3960 C   0  0  0  0  0  0  0  0  0  0  0  0
   57.0870   31.6160   41.5800 C   0  0  0  0  0  0  0  0  0  0  0  0
   57.8490   32.6490   42.1180 C   0  0  0  0  0  0  0  0  0  0  0  0
   58.1730   32.6470   43.4750 C   0  0  0  0  0  0  0  0  0  0  0  0
   57.7340   31.6060   44.3160 C   0  0  0  0  0  0  0  0  0  0  0  0
   58.0300   31.6170   45.7210 N   0  0  0  0  0  0  0  0  0  0  0  0
   57.8390   32.9720   46.7860 S   0  0  0  0  0  0  0  0  0  0  0  0
   56.4340   33.5010   46.6930 O   0  0  0  0  0  0  0  0  0  0  0  0
   58.1350   32.5550   48.1980 O   0  0  0  0  0  0  0  0  0  0  0  0
   58.9830   34.2530   46.3050 C   0  0  0  0  0  0  0  0  0  0  0  0
   60.2750   34.1040   47.0560 C   0  0  0  0  0  0  0  0  0  0  0  0
   60.3240   34.3700   48.4340 C   0  0  0  0  0  0  0  0  0  0  0  0
   61.5100   34.1740   49.1460 C   0  0  0  0  0  0  0  0  0  0  0  0
   62.6520   33.7050   48.4930 C   0  0  0  0  0  0  0  0  0  0  0  0
   62.6090   33.4330   47.1240 C   0  0  0  0  0  0  0  0  0  0  0  0
   61.4240   33.6250   46.4060 C   0  0  0  0  0  0  0  0  0  0  0  0
   57.5899   28.6053   46.2457 H   0  0  0  0  0  0  0  0  0  0  0  0
   56.9672   27.3987   45.0674 H   0  0  0  0  0  0  0  0  0  0  0  0
   58.6560   27.7300   43.6940 H   0  0  0  0  0  0  0  0  0  0  0  0
   61.4317   30.3823   46.3659 H   0  0  0  0  0  0  0  0  0  0  0  0
   61.3148   31.7127   48.4749 H   0  0  0  0  0  0  0  0  0  0  0  0
   59.7259   31.0497   50.2832 H   0  0  0  0  0  0  0  0  0  0  0  0
   58.2401   29.0676   49.9784 H   0  0  0  0  0  0  0  0  0  0  0  0
   58.3459   27.7391   47.8680 H   0  0  0  0  0  0  0  0  0  0  0  0
   56.0415   29.7630   41.9628 H   0  0  0  0  0  0  0  0  0  0  0  0
   56.8337   31.6205   40.5096 H   0  0  0  0  0  0  0  0  0  0  0  0
   58.1965   33.4687   41.4719 H   0  0  0  0  0  0  0  0  0  0  0  0
   58.7771   33.4662   43.8921 H   0  0  0  0  0  0  0  0  0  0  0  0
   59.1796   34.1777   45.2253 H   0  0  0  0  0  0  0  0  0  0  0  0
   58.5429   35.2335   46.5394 H   0  0  0  0  0  0  0  0  0  0  0  0
   59.4258   34.7338   48.9544 H   0  0  0  0  0  0  0  0  0  0  0  0
   61.5444   34.3897   50.2241 H   0  0  0  0  0  0  0  0  0  0  0  0
   63.5840   33.5501   49.0563 H   0  0  0  0  0  0  0  0  0  0  0  0
   63.5093   33.0668   46.6089 H   0  0  0  0  0  0  0  0  0  0  0  0
   61.3920   33.4003   45.3297 H   0  0  0  0  0  0  0  0  0  0  0  0
  1  2  2  0
  2  3  1  0
  3  4  1  0
  4  5  1  0
  5  6  2  0
  5  7  2  0
  5  8  1  0
  8  9  2  0
  9 10  1  0
 10 11  2  0
 11 12  1  0
 12 13  2  0
  2 14  1  0
 14 15  2  0
 15 16  1  0
 16 17  2  0
 17 18  1  0
 18 19  2  0
 19 20  1  0
 20 21  1  0
 21 22  2  0
 21 23  2  0
 21 24  1  0
 24 25  1  0
 25 26  2  0
 26 27  1  0
 27 28  2  0
 28 29  1  0
 29 30  2  0
 13  8  1  0
 19 14  1  0
 30 25  1  0
  3 31  1  0
  3 32  1  0
  4 33  1  0
  9 34  1  0
 10 35  1  0
 11 36  1  0
 12 37  1  0
 13 38  1  0
 15 39  1  0
 16 40  1  0
 17 41  1  0
 18 42  1  0
 24 43  1  0
 24 44  1  0
 26 45  1  0
 27 46  1  0
 28 47  1  0
 29 48  1  0
 30 49  1  0
M  CHG  1  20  -1
M  END
>  <UniqueID>  (12) 
12

>  <SMILES>  (12) 
O=C(CNS(=O)(=O)c1ccccc1)c1ccccc1[N-]S(=O)(=O)Cc1ccccc1

>  <Energy>  (12) 
49.357449701313406

>  <Genealogy>  (12) 
O=C(CNS(=O)(=O)c1ccccc1)c1ccccc1[N-]S(=O)(=O)Cc1ccccc1 (protonated)
O=C(CNS(=O)(=O)c1ccccc1)c1ccccc1[N-]S(=O)(=O)Cc1ccccc1 (3D coordinates assigned)
O=C(CNS(=O)(=O)c1ccccc1)c1ccccc1[N-]S(=O)(=O)Cc1ccccc1 (optimized conformer: 49.357449701313406 kcal/mol)

>  <smiles>  (12) 
O=C(CNS(=O)(=O)c1ccccc1)c1ccccc1NS(=O)(=O)Cc1ccccc1

>  <score_type>  (12) 
oracle

>  <origin>  (12) 
adg

>  <m_score__min__energy>  (12) 
-11.970000000000001

>  <m_primary>  (12) 
energy

$$$$
12:0
     RDKit          3D

 39 41  0  0  0  0  0  0  0  0999 V2000
   56.8263   22.6362   45.7631 H   0  0  0  0  0  0  0  0  0  0  0  0
   56.9370   23.7260   45.8640 C   0  0  0  0  0  0  0  0  0  0  0  0
   58.2080   24.2900   45.9850 C   0  0  0  0  0  0  0  0  0  0  0  0
   59.0982   23.6438   45.9836 H   0  0  0  0  0  0  0  0  0  0  0  0
   58.3510   25.6750   46.1080 C   0  0  0  0  0  0  0  0  0  0  0  0
   59.3563   26.1114   46.2028 H   0  0  0  0  0  0  0  0  0  0  0  0
   57.2220   26.5190   46.1120 C   0  0  0  0  0  0  0  0  0  0  0  0
   57.4080   27.9870   46.2500 C   0  0  0  0  0  0  0  0  0  0  0  0
   56.6490   28.7730   45.6200 O   0  0  0  0  0  0  0  0  0  0  0  0
   58.3990   28.5190   47.1470 N   0  0  0  0  0  0  0  0  0  0  0  0
   59.3970   29.2450   46.8120 N   0  0  0  0  0  0  0  0  0  0  0  0
   59.6090   30.6090   47.2190 C   0  0  0  0  0  0  0  0  0  0  0  0
   58.6820   31.5050   47.0320 N   0  0  0  0  0  0  0  0  0  0  0  0
   58.8540   32.8080   46.4480 C   0  0  0  0  0  0  0  0  0  0  0  0
   59.4630   33.8580   47.1620 C   0  0  0  0  0  0  0  0  0  0  0  0
   59.7946   33.6954   48.1981 H   0  0  0  0  0  0  0  0  0  0  0  0
   59.6480   35.1060   46.5600 C   0  0  0  0  0  0  0  0  0  0  0  0
   60.1102   35.9268   47.1281 H   0  0  0  0  0  0  0  0  0  0  0  0
   59.2470   35.3120   45.2390 C   0  0  0  0  0  0  0  0  0  0  0  0
   59.3831   36.2980   44.7708 H   0  0  0  0  0  0  0  0  0  0  0  0
   58.6730   34.2670   44.5110 C   0  0  0  0  0  0  0  0  0  0  0  0
   58.3687   34.4285   43.4663 H   0  0  0  0  0  0  0  0  0  0  0  0
   58.4840   33.0140   45.1080 C   0  0  0  0  0  0  0  0  0  0  0  0
   57.7620   31.7170   44.1660 Cl  0  0  0  0  0  0  0  0  0  0  0  0
   60.8770   31.0100   47.8830 C   0  0  0  0  0  0  0  0  0  0  0  0
   61.0520   30.8240   49.2680 C   0  0  0  0  0  0  0  0  0  0  0  0
   60.2469   30.3692   49.8638 H   0  0  0  0  0  0  0  0  0  0  0  0
   62.2410   31.2130   49.8910 C   0  0  0  0  0  0  0  0  0  0  0  0
   62.3666   31.0655   50.9738 H   0  0  0  0  0  0  0  0  0  0  0  0
   63.2710   31.7890   49.1420 C   0  0  0  0  0  0  0  0  0  0  0  0
   64.8910   32.3250   49.9970 Br  0  0  0  0  0  0  0  0  0  0  0  0
   63.1140   31.9690   47.7650 C   0  0  0  0  0  0  0  0  0  0  0  0
   63.9259   32.4182   47.1742 H   0  0  0  0  0  0  0  0  0  0  0  0
   61.9260   31.5790   47.1360 C   0  0  0  0  0  0  0  0  0  0  0  0
   61.8112   31.7180   46.0509 H   0  0  0  0  0  0  0  0  0  0  0  0
   55.9380   25.9330   46.0020 C   0  0  0  0  0  0  0  0  0  0  0  0
   54.7820   26.7060   46.0270 O   0  0  0  0  0  0  0  0  0  0  0  0
   55.8070   24.5440   45.8710 C   0  0  0  0  0  0  0  0  0  0  0  0
   54.8072   24.0960   45.7731 H   0  0  0  0  0  0  0  0  0  0  0  0
  1  2  1  0
  2  3  2  0
  3  4  1  0
  3  5  1  0
  5  6  1  0
  5  7  2  0
  7  8  1  0
  8  9  2  0
  8 10  1  0
 10 11  2  0
 11 12  1  0
 12 13  2  0
 13 14  1  0
 14 15  2  0
 15 16  1  0
 15 17  1  0
 17 18  1  0
 17 19  2  0
 19 20  1  0
 19 21  1  0
 21 22  1  0
 21 23  2  0
 23 24  1  0
 12 25  1  0
 25 26  2  0
 26 27  1  0
 26 28  1  0
 28 29  1  0
 28 30  2  0
 30 31  1  0
 30 32  1  0
 32 33  1  0
 32 34  2  0
 34 35  1  0
  7 36  1  0
 36 37  1  0
 36 38  2  0
 38 39  1  0
 38  2  1  0
 23 14  1  0
 34 25  1  0
M  CHG  1  37  -1
M  END
>  <UniqueID>  (13) 
13

>  <SMILES>  (13) 
O=C(N=N/C(=N\c1ccccc1Cl)c1ccc(Br)cc1)c1ccccc1[O-]

>  <Energy>  (13) 
63.63153566087232

>  <Genealogy>  (13) 
O=C(N=NC(=Nc1ccccc1Cl)c1ccc(Br)cc1)c1ccccc1[O-] (protonated)
O=C(N=N/C(=N\c1ccccc1Cl)c1ccc(Br)cc1)c1ccccc1[O-] (cis-trans isomerization)
O=C(N=N/C(=N\c1ccccc1Cl)c1ccc(Br)cc1)c1ccccc1[O-] (3D coordinates assigned)
O=C(N=N/C(=N\c1ccccc1Cl)c1ccc(Br)cc1)c1ccccc1[O-] (optimized conformer: 63.63153566087232 kcal/mol)

>  <smiles>  (13) 
O=C(N=NC(=Nc1ccccc1Cl)c1ccc(Br)cc1)c1ccccc1O

>  <score_type>  (13) 
oracle

>  <origin>  (13) 
adg

>  <m_score__min__energy>  (13) 
-12.92

>  <m_primary>  (13) 
energy

$$$$
13:0
     RDKit          3D

 40 41  0  0  0  0  0  0  0  0999 V2000
   57.3920   23.6280   44.3670 N   0  0  0  0  0  0  0  0  0  0  0  0
   58.2930   24.1460   45.7500 S   0  0  0  0  0  0  0  0  0  0  0  0
   57.6740   23.5520   46.9850 O   0  0  0  0  0  0  0  0  0  0  0  0
   59.7140   23.6730   45.6310 O   0  0  0  0  0  0  0  0  0  0  0  0
   58.2690   25.9040   45.8440 C   0  0  0  0  0  0  0  0  0  0  0  0
   59.4240   26.5950   46.2300 C   0  0  0  0  0  0  0  0  0  0  0  0
   59.4170   27.9900   46.2900 C   0  0  0  0  0  0  0  0  0  0  0  0
   58.2570   28.7030   45.9770 C   0  0  0  0  0  0  0  0  0  0  0  0
   57.0820   28.0180   45.6120 C   0  0  0  0  0  0  0  0  0  0  0  0
   55.8740   28.7010   45.2450 N   0  0  0  0  0  0  0  0  0  0  0  0
   55.7020   29.6870   44.2180 C   0  0  0  0  0  0  0  0  0  0  0  0
   54.7440   29.6130   43.4040 O   0  0  0  0  0  0  0  0  0  0  0  0
   56.7410   30.7490   44.0310 C   0  0  0  0  0  0  0  0  0  0  0  0
   56.8820   31.5730   45.2340 N   0  0  0  0  0  0  0  0  0  0  0  0
   57.7410   33.0510   44.9010 S   0  0  0  0  0  0  0  0  0  0  0  0
   58.3540   32.9590   43.5320 O   0  0  0  0  0  0  0  0  0  0  0  0
   56.7950   34.2210   44.9170 O   0  0  0  0  0  0  0  0  0  0  0  0
   59.0320   33.2880   46.0780 C   0  0  0  0  0  0  0  0  0  0  0  0
   59.2040   34.5240   46.7100 C   0  0  0  0  0  0  0  0  0  0  0  0
   60.2440   34.7050   47.6210 C   0  0  0  0  0  0  0  0  0  0  0  0
   61.1160   33.6530   47.9230 C   0  0  0  0  0  0  0  0  0  0  0  0
   62.4120   33.9580   49.0760 Cl  0  0  0  0  0  0  0  0  0  0  0  0
   60.9410   32.3900   47.3100 C   0  0  0  0  0  0  0  0  0  0  0  0
   61.8780   31.2420   47.6190 C   0  0  0  0  0  0  0  0  0  0  0  0
   63.1750   31.5920   47.2940 F   0  0  0  0  0  0  0  0  0  0  0  0
   61.8490   30.9010   48.9600 F   0  0  0  0  0  0  0  0  0  0  0  0
   61.5080   30.1350   46.8770 F   0  0  0  0  0  0  0  0  0  0  0  0
   59.8970   32.2280   46.3780 C   0  0  0  0  0  0  0  0  0  0  0  0
   57.1030   26.6190   45.5350 C   0  0  0  0  0  0  0  0  0  0  0  0
   58.0360   23.0490   43.7820 H   0  0  0  0  0  0  0  0  0  0  0  0
   57.1670   24.4830   43.8100 H   0  0  0  0  0  0  0  0  0  0  0  0
   60.3376   26.0385   46.4862 H   0  0  0  0  0  0  0  0  0  0  0  0
   60.3288   28.5300   46.5850 H   0  0  0  0  0  0  0  0  0  0  0  0
   58.2615   29.8023   46.0158 H   0  0  0  0  0  0  0  0  0  0  0  0
   57.7064   30.2707   43.8090 H   0  0  0  0  0  0  0  0  0  0  0  0
   56.4283   31.3983   43.2000 H   0  0  0  0  0  0  0  0  0  0  0  0
   58.5177   35.3545   46.4880 H   0  0  0  0  0  0  0  0  0  0  0  0
   60.3801   35.6827   48.1063 H   0  0  0  0  0  0  0  0  0  0  0  0
   59.7595   31.2570   45.8797 H   0  0  0  0  0  0  0  0  0  0  0  0
   56.1962   26.0765   45.2293 H   0  0  0  0  0  0  0  0  0  0  0  0
  1  2  1  0
  2  3  2  0
  2  4  2  0
  2  5  1  0
  5  6  2  0
  6  7  1  0
  7  8  2  0
  8  9  1  0
  9 10  1  0
 10 11  1  0
 11 12  2  0
 11 13  1  0
 13 14  1  0
 14 15  1  0
 15 16  2  0
 15 17  2  0
 15 18  1  0
 18 19  2  0
 19 20  1  0
 20 21  2  0
 21 22  1  0
 21 23  1  0
 23 24  1  0
 24 25  1  0
 24 26  1  0
 24 27  1  0
 23 28  2  0
  9 29  2  0
 29  5  1  0
 28 18  1  0
  1 30  1  0
  1 31  1  0
  6 32  1  0
  7 33  1  0
  8 34  1  0
 13 35  1  0
 13 36  1  0
 19 37  1  0
 20 38  1  0
 28 39  1  0
 29 40  1  0
M  CHG  2  10  -1  14  -1
M  END
>  <UniqueID>  (14) 
14

>  <SMILES>  (14) 
NS(=O)(=O)c1cccc([N-]C(=O)C[N-]S(=O)(=O)c2ccc(Cl)c(C(F)(F)F)c2)c1

>  <Energy>  (14) 
37.581601224947896

>  <Genealogy>  (14) 
NS(=O)(=O)c1cccc([N-]C(=O)C[N-]S(=O)(=O)c2ccc(Cl)c(C(F)(F)F)c2)c1 (protonated)
NS(=O)(=O)c1cccc([N-]C(=O)C[N-]S(=O)(=O)c2ccc(Cl)c(C(F)(F)F)c2)c1 (3D coordinates assigned)
NS(=O)(=O)c1cccc([N-]C(=O)C[N-]S(=O)(=O)c2ccc(Cl)c(C(F)(F)F)c2)c1 (optimized conformer: 37.581601224947896 kcal/mol)

>  <smiles>  (14) 
NS(=O)(=O)c1cccc(NC(=O)CNS(=O)(=O)c2ccc(Cl)c(C(F)(F)F)c2)c1

>  <score_type>  (14) 
oracle

>  <origin>  (14) 
adg

>  <m_score__min__energy>  (14) 
-13.08

>  <m_primary>  (14) 
energy

$$$$
14:0
     RDKit          3D

 70 74  0  0  0  0  0  0  0  0999 V2000
   49.8970   27.0960   52.3750 C   0  0  0  0  0  0  0  0  0  0  0  0
   50.6940   25.8720   52.0760 C   0  0  0  0  0  0  0  0  0  0  0  0
   50.4080   25.0200   51.0660 N   0  0  0  0  0  0  0  0  0  0  0  0
   51.2880   24.0260   50.9530 N   0  0  0  0  0  0  0  0  0  0  0  0
   52.2820   24.0970   51.8660 C   0  0  0  0  0  0  0  0  0  0  0  0
   53.2600   23.2460   51.9550 N   0  0  0  0  0  0  0  0  0  0  0  0
   53.4240   22.0500   51.1750 C   0  0  0  0  0  0  0  0  0  0  0  0
   53.2610   20.9180   51.7030 O   0  0  0  0  0  0  0  0  0  0  0  0
   53.7970   22.1450   49.7440 C   0  0  0  0  0  0  0  0  0  0  0  0
   52.8090   22.0960   48.7430 C   0  0  0  0  0  0  0  0  0  0  0  0
   53.1610   22.1810   47.3920 C   0  0  0  0  0  0  0  0  0  0  0  0
   54.5060   22.3010   47.0180 C   0  0  0  0  0  0  0  0  0  0  0  0
   54.8940   22.4120   45.5690 C   0  0  0  0  0  0  0  0  0  0  0  0
   55.9560   23.4030   45.4110 N   0  0  0  0  0  0  0  0  0  0  0  0
   55.7580   24.7960   45.7070 C   0  0  0  0  0  0  0  0  0  0  0  0
   54.5860   25.2530   45.8120 O   0  0  0  0  0  0  0  0  0  0  0  0
   56.9130   25.7090   45.8750 C   0  0  0  0  0  0  0  0  0  0  0  0
   58.2200   25.1980   45.9070 C   0  0  0  0  0  0  0  0  0  0  0  0
   59.3120   26.0580   46.0410 C   0  0  0  0  0  0  0  0  0  0  0  0
   59.1220   27.4410   46.1350 C   0  0  0  0  0  0  0  0  0  0  0  0
   60.2510   28.2590   46.2860 O   0  0  0  0  0  0  0  0  0  0  0  0
   60.3790   29.2970   47.2200 C   0  0  0  0  0  0  0  0  0  0  0  0
   59.7060   29.2800   48.4570 C   0  0  0  0  0  0  0  0  0  0  0  0
   59.8370   30.3520   49.3430 C   0  0  0  0  0  0  0  0  0  0  0  0
   60.6310   31.4510   49.0040 C   0  0  0  0  0  0  0  0  0  0  0  0
   61.3050   31.4800   47.7750 C   0  0  0  0  0  0  0  0  0  0  0  0
   62.2810   32.8750   47.3220 S   0  0  0  0  0  0  0  0  0  0  0  0
   62.3150   34.0010   48.6330 N   0  0  0  0  0  0  0  0  0  0  0  0
   61.6890   33.5370   46.1100 O   0  0  0  0  0  0  0  0  0  0  0  0
   63.6830   32.4400   46.9980 O   0  0  0  0  0  0  0  0  0  0  0  0
   61.1680   30.4050   46.8840 C   0  0  0  0  0  0  0  0  0  0  0  0
   57.8130   27.9650   46.1360 C   0  0  0  0  0  0  0  0  0  0  0  0
   57.6060   29.3730   46.2950 N   0  0  0  0  0  0  0  0  0  0  0  0
   57.3840   30.4690   44.9730 S   0  0  0  0  0  0  0  0  0  0  0  0
   58.0880   29.9120   43.7670 O   0  0  0  0  0  0  0  0  0  0  0  0
   55.9170   30.5610   44.6600 O   0  0  0  0  0  0  0  0  0  0  0  0
   57.9870   32.0970   45.3260 C   0  0  0  0  0  0  0  0  0  0  0  0
   58.1380   32.4960   46.6670 C   0  0  0  0  0  0  0  0  0  0  0  0
   58.6160   33.7720   46.9800 C   0  0  0  0  0  0  0  0  0  0  0  0
   58.9490   34.6640   45.9580 C   0  0  0  0  0  0  0  0  0  0  0  0
   58.8000   34.2850   44.6230 C   0  0  0  0  0  0  0  0  0  0  0  0
   58.3110   33.0090   44.2940 C   0  0  0  0  0  0  0  0  0  0  0  0
   58.1180   32.6790   42.9020 C   0  0  0  0  0  0  0  0  0  0  0  0
   57.9490   32.4130   41.7860 N   0  0  0  0  0  0  0  0  0  0  0  0
   56.7230   27.0980   45.9780 C   0  0  0  0  0  0  0  0  0  0  0  0
   55.4940   22.3550   48.0120 C   0  0  0  0  0  0  0  0  0  0  0  0
   55.1440   22.2790   49.3620 C   0  0  0  0  0  0  0  0  0  0  0  0
   52.1090   25.4260   52.8800 S   0  0  0  0  0  0  0  0  0  0  0  0
   49.8145   27.2227   53.4646 H   0  0  0  0  0  0  0  0  0  0  0  0
   50.3969   27.9743   51.9405 H   0  0  0  0  0  0  0  0  0  0  0  0
   48.8916   26.9941   51.9405 H   0  0  0  0  0  0  0  0  0  0  0  0
   51.7512   21.9900   49.0254 H   0  0  0  0  0  0  0  0  0  0  0  0
   52.3783   22.1535   46.6196 H   0  0  0  0  0  0  0  0  0  0  0  0
   55.2513   21.4350   45.2116 H   0  0  0  0  0  0  0  0  0  0  0  0
   54.0173   22.7255   44.9832 H   0  0  0  0  0  0  0  0  0  0  0  0
   56.8810   23.0750   45.0550 H   0  0  0  0  0  0  0  0  0  0  0  0
   58.3850   24.1135   45.8260 H   0  0  0  0  0  0  0  0  0  0  0  0
   60.3308   25.6444   46.0729 H   0  0  0  0  0  0  0  0  0  0  0  0
   59.0753   28.4200   48.7263 H   0  0  0  0  0  0  0  0  0  0  0  0
   59.3137   30.3311   50.3103 H   0  0  0  0  0  0  0  0  0  0  0  0
   60.7273   32.2950   49.7029 H   0  0  0  0  0  0  0  0  0  0  0  0
   62.1630   33.4530   49.5120 H   0  0  0  0  0  0  0  0  0  0  0  0
   61.6845   30.4323   45.9132 H   0  0  0  0  0  0  0  0  0  0  0  0
   57.8776   31.7978   47.4761 H   0  0  0  0  0  0  0  0  0  0  0  0
   58.7299   34.0736   48.0317 H   0  0  0  0  0  0  0  0  0  0  0  0
   59.3290   35.6661   46.2055 H   0  0  0  0  0  0  0  0  0  0  0  0
   59.0673   34.9903   43.8223 H   0  0  0  0  0  0  0  0  0  0  0  0
   55.7042   27.5105   45.9340 H   0  0  0  0  0  0  0  0  0  0  0  0
   56.5513   22.4579   47.7265 H   0  0  0  0  0  0  0  0  0  0  0  0
   55.9279   22.3243   50.1324 H   0  0  0  0  0  0  0  0  0  0  0  0
  1  2  1  0
  2  3  2  0
  3  4  1  0
  4  5  1  0
  5  6  2  3
  6  7  1  0
  7  8  2  0
  7  9  1  0
  9 10  2  0
 10 11  1  0
 11 12  2  0
 12 13  1  0
 13 14  1  0
 14 15  1  0
 15 16  2  0
 15 17  1  0
 17 18  2  0
 18 19  1  0
 19 20  2  0
 20 21  1  0
 21 22  1  0
 22 23  2  0
 23 24  1  0
 24 25  2  0
 25 26  1  0
 26 27  1  0
 27 28  1  0
 27 29  2  0
 27 30  2  0
 26 31  2  0
 20 32  1  0
 32 33  1  0
 33 34  1  0
 34 35  2  0
 34 36  2  0
 34 37  1  0
 37 38  2  0
 38 39  1  0
 39 40  2  0
 40 41  1  0
 41 42  2  0
 42 43  1  0
 43 44  3  0
 32 45  2  0
 12 46  1  0
 46 47  2  0
  5 48  1  0
 48  2  1  0
 47  9  1  0
 45 17  1  0
 31 22  1  0
 42 37  1  0
  1 49  1  0
  1 50  1  0
  1 51  1  0
 10 52  1  0
 11 53  1  0
 13 54  1  0
 13 55  1  0
 14 56  1  0
 18 57  1  0
 19 58  1  0
 23 59  1  0
 24 60  1  0
 25 61  1  0
 28 62  1  0
 31 63  1  0
 38 64  1  0
 39 65  1  0
 40 66  1  0
 41 67  1  0
 45 68  1  0
 46 69  1  0
 47 70  1  0
M  CHG  3   4  -1  28  -1  33  -1
M  END
>  <UniqueID>  (15) 
15

>  <SMILES>  (15) 
Cc1n[n-]c(=NC(=O)c2ccc(CNC(=O)c3ccc(Oc4cccc(S([NH-])(=O)=O)c4)c([N-]S(=O)(=O)c4ccccc4C#N)c3)cc2)s1

>  <Energy>  (15) 
125.13157831236563

>  <Genealogy>  (15) 
Cc1n[n-]c(=NC(=O)c2ccc(CNC(=O)c3ccc(Oc4cccc(S([NH-])(=O)=O)c4)c([N-]S(=O)(=O)c4ccccc4C#N)c3)cc2)s1 (protonated)
Cc1n[n-]c(=NC(=O)c2ccc(CNC(=O)c3ccc(Oc4cccc(S([NH-])(=O)=O)c4)c([N-]S(=O)(=O)c4ccccc4C#N)c3)cc2)s1 (3D coordinates assigned)
Cc1n[n-]c(=NC(=O)c2ccc(CNC(=O)c3ccc(Oc4cccc(S([NH-])(=O)=O)c4)c([N-]S(=O)(=O)c4ccccc4C#N)c3)cc2)s1 (optimized conformer: 125.13157831236563 kcal/mol)

>  <smiles>  (15) 
Cc1n[nH]c(=NC(=O)c2ccc(CNC(=O)c3ccc(Oc4cccc(S(N)(=O)=O)c4)c(NS(=O)(=O)c4ccccc4C#N)c3)cc2)s1

>  <score_type>  (15) 
oracle

>  <origin>  (15) 
adg

>  <m_score__min__energy>  (15) 
-14.92

>  <m_primary>  (15) 
energy

$$$$
15:0
     RDKit          3D

 45 47  0  0  0  0  0  0  0  0999 V2000
   57.4580   28.7660   43.6480 N   0  0  0  0  0  0  0  0  0  0  0  0
   56.7750   30.3070   44.0300 S   0  0  0  0  0  0  0  0  0  0  0  0
   56.7790   31.1800   42.8050 O   0  0  0  0  0  0  0  0  0  0  0  0
   55.3540   30.1260   44.4880 O   0  0  0  0  0  0  0  0  0  0  0  0
   57.7210   31.0670   45.3050 C   0  0  0  0  0  0  0  0  0  0  0  0
   58.5060   30.2850   46.1640 C   0  0  0  0  0  0  0  0  0  0  0  0
   59.2680   30.8910   47.1670 C   0  0  0  0  0  0  0  0  0  0  0  0
   59.2490   32.2860   47.3260 C   0  0  0  0  0  0  0  0  0  0  0  0
   60.0980   32.9400   48.3780 C   0  0  0  0  0  0  0  0  0  0  0  0
   59.2520   33.4010   49.4780 N   0  0  0  0  0  0  0  0  0  0  0  0
   59.9460   32.8700   51.0280 S   0  0  0  0  0  0  0  0  0  0  0  0
   58.4810   31.9780   51.5690 C   0  0  0  0  0  0  0  0  0  0  0  0
   57.3350   32.6780   51.9570 C   0  0  0  0  0  0  0  0  0  0  0  0
   56.1940   31.9850   52.3730 C   0  0  0  0  0  0  0  0  0  0  0  0
   56.1850   30.5770   52.4010 C   0  0  0  0  0  0  0  0  0  0  0  0
   54.9770   29.8410   52.8420 C   0  0  0  0  0  0  0  0  0  0  0  0
   54.9970   29.2030   53.9300 O   0  0  0  0  0  0  0  0  0  0  0  0
   53.8230   29.7850   51.9850 N   0  0  0  0  0  0  0  0  0  0  0  0
   52.8100   30.6060   51.9110 C   0  0  0  0  0  0  0  0  0  0  0  0
   52.4310   31.0730   50.6460 C   0  0  0  0  0  0  0  0  0  0  0  0
   51.3560   31.9570   50.5210 C   0  0  0  0  0  0  0  0  0  0  0  0
   50.6860   32.3750   51.6260 N   0  0  0  0  0  0  0  0  0  0  0  0
   51.0370   31.9580   52.8700 C   0  0  0  0  0  0  0  0  0  0  0  0
   52.1040   31.0730   53.0420 C   0  0  0  0  0  0  0  0  0  0  0  0
   57.3410   29.8820   51.9970 C   0  0  0  0  0  0  0  0  0  0  0  0
   58.4780   30.5790   51.5810 C   0  0  0  0  0  0  0  0  0  0  0  0
   58.4800   33.0670   46.4500 C   0  0  0  0  0  0  0  0  0  0  0  0
   57.7180   32.4600   45.4460 C   0  0  0  0  0  0  0  0  0  0  0  0
   56.6880   28.1800   43.2540 H   0  0  0  0  0  0  0  0  0  0  0  0
   58.1450   28.9200   42.8760 H   0  0  0  0  0  0  0  0  0  0  0  0
   58.5223   29.1912   46.0483 H   0  0  0  0  0  0  0  0  0  0  0  0
   59.8854   30.2722   47.8348 H   0  0  0  0  0  0  0  0  0  0  0  0
   60.8308   32.2139   48.7599 H   0  0  0  0  0  0  0  0  0  0  0  0
   60.6245   33.8000   47.9384 H   0  0  0  0  0  0  0  0  0  0  0  0
   58.2890   33.0080   49.3630 H   0  0  0  0  0  0  0  0  0  0  0  0
   57.3307   33.7778   51.9350 H   0  0  0  0  0  0  0  0  0  0  0  0
   55.2975   32.5433   52.6804 H   0  0  0  0  0  0  0  0  0  0  0  0
   52.9795   30.7439   49.7511 H   0  0  0  0  0  0  0  0  0  0  0  0
   51.0520   32.3148   49.5262 H   0  0  0  0  0  0  0  0  0  0  0  0
   50.4784   32.3189   53.7462 H   0  0  0  0  0  0  0  0  0  0  0  0
   52.3924   30.7422   54.0507 H   0  0  0  0  0  0  0  0  0  0  0  0
   57.3489   28.7821   52.0090 H   0  0  0  0  0  0  0  0  0  0  0  0
   59.3738   30.0261   51.2619 H   0  0  0  0  0  0  0  0  0  0  0  0
   58.4763   34.1621   46.5532 H   0  0  0  0  0  0  0  0  0  0  0  0
   57.1148   33.0789   44.7654 H   0  0  0  0  0  0  0  0  0  0  0  0
  1  2  1  0
  2  3  2  0
  2  4  2  0
  2  5  1  0
  5  6  2  0
  6  7  1  0
  7  8  2  0
  8  9  1  0
  9 10  1  0
 10 11  1  0
 11 12  1  0
 12 13  2  0
 13 14  1  0
 14 15  2  0
 15 16  1  0
 16 17  2  0
 16 18  1  0
 18 19  2  3
 19 20  1  0
 20 21  2  0
 21 22  1  0
 22 23  1  0
 23 24  2  0
 15 25  1  0
 25 26  2  0
  8 27  1  0
 27 28  2  0
 28  5  1  0
 26 12  1  0
 24 19  1  0
  1 29  1  0
  1 30  1  0
  6 31  1  0
  7 32  1  0
  9 33  1  0
  9 34  1  0
 10 35  1  0
 13 36  1  0
 14 37  1  0
 20 38  1  0
 21 39  1  0
 23 40  1  0
 24 41  1  0
 25 42  1  0
 26 43  1  0
 27 44  1  0
 28 45  1  0
M  CHG  1  22  -1
M  END
>  <UniqueID>  (16) 
16

>  <SMILES>  (16) 
NS(=O)(=O)c1ccc(CNSc2ccc(C(=O)N=c3cc[n-]cc3)cc2)cc1

>  <Energy>  (16) 
52.19957247808179

>  <Genealogy>  (16) 
NS(=O)(=O)c1ccc(CNSc2ccc(C(=O)N=c3cc[n-]cc3)cc2)cc1 (protonated)
NS(=O)(=O)c1ccc(CNSc2ccc(C(=O)N=c3cc[n-]cc3)cc2)cc1 (3D coordinates assigned)
NS(=O)(=O)c1ccc(CNSc2ccc(C(=O)N=c3cc[n-]cc3)cc2)cc1 (optimized conformer: 52.19957247808179 kcal/mol)

>  <smiles>  (16) 
NS(=O)(=O)c1ccc(CNSc2ccc(C(=O)N=c3cc[nH]cc3)cc2)cc1

>  <score_type>  (16) 
oracle

>  <origin>  (16) 
adg

>  <m_score__min__energy>  (16) 
-12.130000000000001

>  <m_primary>  (16) 
energy

$$$$
16:0
     RDKit          3D

 45 47  0  0  0  0  0  0  0  0999 V2000
   55.1590   26.6590   46.0910 N   0  0  0  0  0  0  0  0  0  0  0  0
   56.8640   26.9160   45.9730 S   0  0  0  0  0  0  0  0  0  0  0  0
   57.4480   26.8450   47.3560 O   0  0  0  0  0  0  0  0  0  0  0  0
   57.4630   25.8360   45.1170 O   0  0  0  0  0  0  0  0  0  0  0  0
   57.2030   28.4990   45.2510 C   0  0  0  0  0  0  0  0  0  0  0  0
   56.1870   29.1370   44.5210 C   0  0  0  0  0  0  0  0  0  0  0  0
   56.3880   30.4060   43.9780 C   0  0  0  0  0  0  0  0  0  0  0  0
   57.6080   31.0560   44.1550 C   0  0  0  0  0  0  0  0  0  0  0  0
   58.6340   30.4350   44.8670 C   0  0  0  0  0  0  0  0  0  0  0  0
   58.4520   29.1510   45.4150 C   0  0  0  0  0  0  0  0  0  0  0  0
   59.5960   28.5230   46.1160 C   0  0  0  0  0  0  0  0  0  0  0  0
   60.0180   27.3970   45.7420 O   0  0  0  0  0  0  0  0  0  0  0  0
   60.3030   29.2170   47.1510 N   0  0  0  0  0  0  0  0  0  0  0  0
   60.3600   28.7960   48.5210 C   0  0  0  0  0  0  0  0  0  0  0  0
   60.7790   27.4940   48.8430 C   0  0  0  0  0  0  0  0  0  0  0  0
   60.8200   27.0760   50.1750 C   0  0  0  0  0  0  0  0  0  0  0  0
   60.4460   27.9510   51.1940 C   0  0  0  0  0  0  0  0  0  0  0  0
   60.0220   29.2470   50.8870 C   0  0  0  0  0  0  0  0  0  0  0  0
   59.9790   29.6820   49.5510 C   0  0  0  0  0  0  0  0  0  0  0  0
   59.4480   31.0230   49.2300 C   0  0  0  0  0  0  0  0  0  0  0  0
   58.5460   31.5270   49.9520 O   0  0  0  0  0  0  0  0  0  0  0  0
   60.0030   31.7810   48.1460 N   0  0  0  0  0  0  0  0  0  0  0  0
   59.9940   33.2420   48.1570 C   0  0  0  0  0  0  0  0  0  0  0  0
   59.1320   33.7490   47.0330 C   0  0  0  0  0  0  0  0  0  0  0  0
   57.7990   33.3310   46.9190 C   0  0  0  0  0  0  0  0  0  0  0  0
   57.0260   33.7470   45.8330 C   0  0  0  0  0  0  0  0  0  0  0  0
   57.6000   34.5690   44.8610 C   0  0  0  0  0  0  0  0  0  0  0  0
   58.8980   34.9570   44.9760 N   0  0  0  0  0  0  0  0  0  0  0  0
   59.6700   34.5680   46.0270 C   0  0  0  0  0  0  0  0  0  0  0  0
   54.7740   26.7160   45.1200 H   0  0  0  0  0  0  0  0  0  0  0  0
   55.2216   28.6302   44.3758 H   0  0  0  0  0  0  0  0  0  0  0  0
   55.5827   30.8942   43.4095 H   0  0  0  0  0  0  0  0  0  0  0  0
   57.7619   32.0600   43.7327 H   0  0  0  0  0  0  0  0  0  0  0  0
   59.5947   30.9535   45.0017 H   0  0  0  0  0  0  0  0  0  0  0  0
   61.0761   26.8008   48.0423 H   0  0  0  0  0  0  0  0  0  0  0  0
   61.1478   26.0551   50.4205 H   0  0  0  0  0  0  0  0  0  0  0  0
   60.4847   27.6205   52.2425 H   0  0  0  0  0  0  0  0  0  0  0  0
   59.7205   29.9299   51.6949 H   0  0  0  0  0  0  0  0  0  0  0  0
   60.6420   31.3100   47.4660 H   0  0  0  0  0  0  0  0  0  0  0  0
   59.5916   33.5986   49.1167 H   0  0  0  0  0  0  0  0  0  0  0  0
   61.0207   33.6150   48.0273 H   0  0  0  0  0  0  0  0  0  0  0  0
   57.3614   32.6747   47.6857 H   0  0  0  0  0  0  0  0  0  0  0  0
   55.9762   33.4306   45.7442 H   0  0  0  0  0  0  0  0  0  0  0  0
   57.0011   34.9031   44.0010 H   0  0  0  0  0  0  0  0  0  0  0  0
   60.7182   34.8959   46.0887 H   0  0  0  0  0  0  0  0  0  0  0  0
  1  2  1  0
  2  3  2  0
  2  4  2  0
  2  5  1  0
  5  6  2  0
  6  7  1  0
  7  8  2  0
  8  9  1  0
  9 10  2  0
 10 11  1  0
 11 12  2  0
 11 13  1  0
 13 14  1  0
 14 15  2  0
 15 16  1  0
 16 17  2  0
 17 18  1  0
 18 19  2  0
 19 20  1  0
 20 21  2  0
 20 22  1  0
 22 23  1  0
 23 24  1  0
 24 25  2  0
 25 26  1  0
 26 27  2  0
 27 28  1  0
 28 29  2  0
 10  5  1  0
 19 14  1  0
 29 24  1  0
  1 30  1  0
  6 31  1  0
  7 32  1  0
  8 33  1  0
  9 34  1  0
 15 35  1  0
 16 36  1  0
 17 37  1  0
 18 38  1  0
 22 39  1  0
 23 40  1  0
 23 41  1  0
 25 42  1  0
 26 43  1  0
 27 44  1  0
 29 45  1  0
M  CHG  2   1  -1  13  -1
M  END
>  <UniqueID>  (17) 
17

>  <SMILES>  (17) 
[NH-]S(=O)(=O)c1ccccc1C(=O)[N-]c1ccccc1C(=O)NCc1cccnc1

>  <Energy>  (17) 
59.641710557625686

>  <Genealogy>  (17) 
[NH-]S(=O)(=O)c1ccccc1C(=O)[N-]c1ccccc1C(=O)NCc1cccnc1 (protonated)
[NH-]S(=O)(=O)c1ccccc1C(=O)[N-]c1ccccc1C(=O)NCc1cccnc1 (3D coordinates assigned)
[NH-]S(=O)(=O)c1ccccc1C(=O)[N-]c1ccccc1C(=O)NCc1cccnc1 (optimized conformer: 59.641710557625686 kcal/mol)

>  <smiles>  (17) 
NS(=O)(=O)c1ccccc1C(=O)Nc1ccccc1C(=O)NCc1cccnc1

>  <score_type>  (17) 
oracle

>  <origin>  (17) 
adg

>  <m_score__min__energy>  (17) 
-12.710000000000001

>  <m_primary>  (17) 
energy

$$$$
17:0
     RDKit          3D

 51 54  0  0  0  0  0  0  0  0999 V2000
   57.0230   20.9406   42.9372 H   0  0  0  0  0  0  0  0  0  0  0  0
   56.7910   21.8500   43.5110 C   0  0  0  0  0  0  0  0  0  0  0  0
   55.5130   22.2950   43.5890 N   0  0  0  0  0  0  0  0  0  0  0  0
   55.1650   23.4070   44.2990 C   0  0  0  0  0  0  0  0  0  0  0  0
   53.9290   23.8210   44.3080 N   0  0  0  0  0  0  0  0  0  0  0  0
   52.8870   23.4170   45.2120 C   0  0  0  0  0  0  0  0  0  0  0  0
   51.5300   23.6860   44.9520 C   0  0  0  0  0  0  0  0  0  0  0  0
   51.2457   24.2497   44.0512 H   0  0  0  0  0  0  0  0  0  0  0  0
   50.5420   23.2390   45.8350 C   0  0  0  0  0  0  0  0  0  0  0  0
   49.4840   23.4640   45.6350 H   0  0  0  0  0  0  0  0  0  0  0  0
   50.8970   22.5070   46.9710 C   0  0  0  0  0  0  0  0  0  0  0  0
   50.1198   22.1622   47.6689 H   0  0  0  0  0  0  0  0  0  0  0  0
   52.2420   22.2130   47.2200 C   0  0  0  0  0  0  0  0  0  0  0  0
   52.5208   21.6295   48.1098 H   0  0  0  0  0  0  0  0  0  0  0  0
   53.2310   22.6590   46.3410 C   0  0  0  0  0  0  0  0  0  0  0  0
   54.2858   22.4146   46.5350 H   0  0  0  0  0  0  0  0  0  0  0  0
   56.1710   24.1460   44.9750 C   0  0  0  0  0  0  0  0  0  0  0  0
   55.8690   25.3680   45.7730 C   0  0  0  0  0  0  0  0  0  0  0  0
   54.6760   25.7410   45.9410 O   0  0  0  0  0  0  0  0  0  0  0  0
   56.9360   26.0890   46.4070 N   0  0  0  0  0  0  0  0  0  0  0  0
   57.6980   27.1620   45.8370 C   0  0  0  0  0  0  0  0  0  0  0  0
   59.0910   27.2600   46.0070 C   0  0  0  0  0  0  0  0  0  0  0  0
   59.6293   26.4890   46.5777 H   0  0  0  0  0  0  0  0  0  0  0  0
   59.7930   28.3340   45.4530 C   0  0  0  0  0  0  0  0  0  0  0  0
   60.8838   28.3996   45.5791 H   0  0  0  0  0  0  0  0  0  0  0  0
   59.1140   29.3240   44.7400 C   0  0  0  0  0  0  0  0  0  0  0  0
   59.6712   30.1632   44.2982 H   0  0  0  0  0  0  0  0  0  0  0  0
   57.7230   29.2490   44.5870 C   0  0  0  0  0  0  0  0  0  0  0  0
   56.8450   30.5090   43.7250 S   0  0  0  0  0  0  0  0  0  0  0  0
   55.5980   30.8390   44.4970 O   0  0  0  0  0  0  0  0  0  0  0  0
   56.4490   30.0430   42.3500 O   0  0  0  0  0  0  0  0  0  0  0  0
   57.8270   31.9350   43.5860 N   0  0  0  0  0  0  0  0  0  0  0  0
   58.2710   32.1220   42.6580 H   0  0  0  0  0  0  0  0  0  0  0  0
   58.0390   32.7620   44.5680 C   0  0  0  0  0  0  0  0  0  0  0  0
   57.3310   32.6790   45.7880 N   0  0  0  0  0  0  0  0  0  0  0  0
   56.6180   31.9510   46.0200 H   0  0  0  0  0  0  0  0  0  0  0  0
   57.7660   33.7180   46.6970 C   0  0  0  0  0  0  0  0  0  0  0  0
   58.2346   33.2741   47.5877 H   0  0  0  0  0  0  0  0  0  0  0  0
   56.9194   34.3295   47.0425 H   0  0  0  0  0  0  0  0  0  0  0  0
   58.7910   34.5650   45.9200 C   0  0  0  0  0  0  0  0  0  0  0  0
   59.7347   34.6228   46.4822 H   0  0  0  0  0  0  0  0  0  0  0  0
   58.4178   35.5893   45.7731 H   0  0  0  0  0  0  0  0  0  0  0  0
   59.0260   33.8730   44.5680 C   0  0  0  0  0  0  0  0  0  0  0  0
   60.0532   33.4858   44.4983 H   0  0  0  0  0  0  0  0  0  0  0  0
   58.9036   34.5535   43.7125 H   0  0  0  0  0  0  0  0  0  0  0  0
   57.0200   28.1730   45.1440 C   0  0  0  0  0  0  0  0  0  0  0  0
   55.9265   28.1216   45.0363 H   0  0  0  0  0  0  0  0  0  0  0  0
   57.5000   23.6930   44.8860 C   0  0  0  0  0  0  0  0  0  0  0  0
   58.3014   24.2487   45.3949 H   0  0  0  0  0  0  0  0  0  0  0  0
   57.8090   22.5440   44.1570 C   0  0  0  0  0  0  0  0  0  0  0  0
   58.8486   22.1900   44.0937 H   0  0  0  0  0  0  0  0  0  0  0  0
  1  2  1  0
  2  3  1  0
  3  4  1  0
  4  5  2  0
  5  6  1  0
  6  7  2  0
  7  8  1  0
  7  9  1  0
  9 10  1  0
  9 11  2  0
 11 12  1  0
 11 13  1  0
 13 14  1  0
 13 15  2  0
 15 16  1  0
  4 17  1  0
 17 18  1  0
 18 19  2  0
 18 20  1  0
 20 21  1  0
 21 22  2  0
 22 23  1  0
 22 24  1  0
 24 25  1  0
 24 26  2  0
 26 27  1  0
 26 28  1  0
 28 29  1  0
 29 30  2  0
 29 31  2  0
 29 32  1  0
 32 33  1  0
 32 34  2  3
 34 35  1  0
 35 36  1  0
 35 37  1  0
 37 38  1  0
 37 39  1  0
 37 40  1  0
 40 41  1  0
 40 42  1  0
 40 43  1  0
 43 44  1  0
 43 45  1  0
 28 46  2  0
 46 47  1  0
 17 48  2  0
 48 49  1  0
 48 50  1  0
 50 51  1  0
 50  2  2  0
 15  6  1  0
 46 21  1  0
 43 34  1  0
M  CHG  3   3  -1  20  -1  32   1
M  END
>  <UniqueID>  (18) 
18

>  <SMILES>  (18) 
O=C([N-]c1cccc(S(=O)(=O)[NH+]=C2CCCN2)c1)c1ccc[n-]/c1=N\c1ccccc1

>  <Energy>  (18) 
76.04977070725815

>  <Genealogy>  (18) 
O=C([N-]c1cccc(S(=O)(=O)[NH+]=C2CCCN2)c1)c1ccc[n-]c1=Nc1ccccc1 (protonated)
O=C([N-]c1cccc(S(=O)(=O)[NH+]=C2CCCN2)c1)c1ccc[n-]/c1=N\c1ccccc1 (cis-trans isomerization)
O=C([N-]c1cccc(S(=O)(=O)[NH+]=C2CCCN2)c1)c1ccc[n-]/c1=N\c1ccccc1 (3D coordinates assigned)
O=C([N-]c1cccc(S(=O)(=O)[NH+]=C2CCCN2)c1)c1ccc[n-]/c1=N\c1ccccc1 (nonaromatic ring conformer: 76.04977070725815 kcal/mol)

>  <smiles>  (18) 
O=C(Nc1cccc(S(=O)(=O)N=C2CCCN2)c1)c1ccc[nH]c1=Nc1ccccc1

>  <score_type>  (18) 
oracle

>  <origin>  (18) 
adg

>  <m_score__min__energy>  (18) 
-11.74

>  <m_primary>  (18) 
energy

$$$$
18:0
     RDKit          3D

 45 46  0  0  0  0  0  0  0  0999 V2000
   55.1810   28.6200   45.6240 H   0  0  0  0  0  0  0  0  0  0  0  0
   55.1580   29.3390   44.8680 N   0  0  0  0  0  0  0  0  0  0  0  0
   56.7250   29.3580   44.1400 S   0  0  0  0  0  0  0  0  0  0  0  0
   57.3410   27.9910   44.2390 O   0  0  0  0  0  0  0  0  0  0  0  0
   56.6010   29.7280   42.6880 O   0  0  0  0  0  0  0  0  0  0  0  0
   57.7390   30.5340   44.9680 C   0  0  0  0  0  0  0  0  0  0  0  0
   57.4070   31.8950   44.9400 C   0  0  0  0  0  0  0  0  0  0  0  0
   56.5035   32.2290   44.4088 H   0  0  0  0  0  0  0  0  0  0  0  0
   58.2220   32.8290   45.5860 C   0  0  0  0  0  0  0  0  0  0  0  0
   57.9582   33.8966   45.5622 H   0  0  0  0  0  0  0  0  0  0  0  0
   59.3710   32.4100   46.2620 C   0  0  0  0  0  0  0  0  0  0  0  0
   60.0111   33.1499   46.7649 H   0  0  0  0  0  0  0  0  0  0  0  0
   59.7120   31.0480   46.3020 C   0  0  0  0  0  0  0  0  0  0  0  0
   60.9570   30.5910   47.0170 C   0  0  0  0  0  0  0  0  0  0  0  0
   61.2949   31.3876   47.6962 H   0  0  0  0  0  0  0  0  0  0  0  0
   61.7312   30.3703   46.2673 H   0  0  0  0  0  0  0  0  0  0  0  0
   60.6990   29.3760   47.7940 N   0  0  0  0  0  0  0  0  0  0  0  0
   60.0000   28.3380   47.4270 C   0  0  0  0  0  0  0  0  0  0  0  0
   58.6980   28.2660   47.8110 N   0  0  0  0  0  0  0  0  0  0  0  0
   57.8960   27.2200   47.4790 C   0  0  0  0  0  0  0  0  0  0  0  0
   56.8468   27.2094   47.8092 H   0  0  0  0  0  0  0  0  0  0  0  0
   58.3980   26.1540   46.7180 C   0  0  0  0  0  0  0  0  0  0  0  0
   57.5210   25.0140   46.3550 C   0  0  0  0  0  0  0  0  0  0  0  0
   57.7300   23.8850   46.8770 O   0  0  0  0  0  0  0  0  0  0  0  0
   56.4550   25.1730   45.4020 N   0  0  0  0  0  0  0  0  0  0  0  0
   56.4140   26.0350   44.8150 H   0  0  0  0  0  0  0  0  0  0  0  0
   55.5040   24.1050   45.0930 C   0  0  0  0  0  0  0  0  0  0  0  0
   54.4966   24.5363   44.9974 H   0  0  0  0  0  0  0  0  0  0  0  0
   55.5297   23.3653   45.9068 H   0  0  0  0  0  0  0  0  0  0  0  0
   55.8780   23.4000   43.7750 C   0  0  0  0  0  0  0  0  0  0  0  0
   54.9758   23.3617   43.1469 H   0  0  0  0  0  0  0  0  0  0  0  0
   56.9560   24.1790   43.0080 C   0  0  0  0  0  0  0  0  0  0  0  0
   57.6334   24.6685   43.7232 H   0  0  0  0  0  0  0  0  0  0  0  0
   57.5295   23.4853   42.3756 H   0  0  0  0  0  0  0  0  0  0  0  0
   56.4774   24.9413   42.3756 H   0  0  0  0  0  0  0  0  0  0  0  0
   56.3580   21.9710   44.0540 C   0  0  0  0  0  0  0  0  0  0  0  0
   56.4127   21.8081   45.1405 H   0  0  0  0  0  0  0  0  0  0  0  0
   55.6515   21.2538   43.6108 H   0  0  0  0  0  0  0  0  0  0  0  0
   57.3543   21.8257   43.6108 H   0  0  0  0  0  0  0  0  0  0  0  0
   59.7360   26.2130   46.2940 C   0  0  0  0  0  0  0  0  0  0  0  0
   60.1525   25.3993   45.6821 H   0  0  0  0  0  0  0  0  0  0  0  0
   60.5390   27.2980   46.6450 C   0  0  0  0  0  0  0  0  0  0  0  0
   61.5869   27.3412   46.3131 H   0  0  0  0  0  0  0  0  0  0  0  0
   58.8960   30.1150   45.6380 C   0  0  0  0  0  0  0  0  0  0  0  0
   59.1678   29.0491   45.6446 H   0  0  0  0  0  0  0  0  0  0  0  0
  1  2  1  0
  2  3  1  0
  3  4  2  0
  3  5  2  0
  3  6  1  0
  6  7  2  0
  7  8  1  0
  7  9  1  0
  9 10  1  0
  9 11  2  0
 11 12  1  0
 11 13  1  0
 13 14  1  0
 14 15  1  0
 14 16  1  0
 14 17  1  0
 17 18  2  0
 18 19  1  0
 19 20  1  0
 20 21  1  0
 20 22  2  0
 22 23  1  0
 23 24  2  0
 23 25  1  0
 25 26  1  0
 25 27  1  0
 27 28  1  0
 27 29  1  0
 27 30  1  0
 30 31  1  0
 30 32  1  0
 32 33  1  0
 32 34  1  0
 32 35  1  0
 30 36  1  0
 36 37  1  0
 36 38  1  0
 36 39  1  0
 22 40  1  0
 40 41  1  0
 40 42  2  0
 42 43  1  0
 13 44  2  0
 44 45  1  0
 44  6  1  0
 42 18  1  0
M  CHG  2   2  -1  19  -1
M  END
>  <UniqueID>  (19) 
19

>  <SMILES>  (19) 
CC(C)CNC(=O)c1cc/c(=N\Cc2cccc(S([NH-])(=O)=O)c2)[n-]c1

>  <Energy>  (19) 
42.26754295643385

>  <Genealogy>  (19) 
CC(C)CNC(=O)c1ccc(=NCc2cccc(S([NH-])(=O)=O)c2)[n-]c1 (protonated)
CC(C)CNC(=O)c1cc/c(=N\Cc2cccc(S([NH-])(=O)=O)c2)[n-]c1 (cis-trans isomerization)
CC(C)CNC(=O)c1cc/c(=N\Cc2cccc(S([NH-])(=O)=O)c2)[n-]c1 (3D coordinates assigned)
CC(C)CNC(=O)c1cc/c(=N\Cc2cccc(S([NH-])(=O)=O)c2)[n-]c1 (optimized conformer: 42.26754295643385 kcal/mol)

>  <smiles>  (19) 
CC(C)CNC(=O)c1ccc(=NCc2cccc(S(N)(=O)=O)c2)[nH]c1

>  <score_type>  (19) 
oracle

>  <origin>  (19) 
adg

>  <m_score__min__energy>  (19) 
-12.48

>  <m_primary>  (19) 
energy

$$$$
19:0
     RDKit          3D

 38 40  0  0  0  0  0  0  0  0999 V2000
   56.6779   27.4628   47.0123 H   0  0  0  0  0  0  0  0  0  0  0  0
   57.0230   27.0970   46.0340 C   0  0  0  0  0  0  0  0  0  0  0  0
   57.7410   27.9400   45.2760 C   0  0  0  0  0  0  0  0  0  0  0  0
   58.5664   27.5155   44.6857 H   0  0  0  0  0  0  0  0  0  0  0  0
   57.5060   29.4000   45.1740 C   0  0  0  0  0  0  0  0  0  0  0  0
   56.2230   29.8760   44.8950 C   0  0  0  0  0  0  0  0  0  0  0  0
   55.1670   28.9940   44.6930 O   0  0  0  0  0  0  0  0  0  0  0  0
   56.0010   31.2080   44.8060 N   0  0  0  0  0  0  0  0  0  0  0  0
   56.9970   32.1090   44.9910 C   0  0  0  0  0  0  0  0  0  0  0  0
   56.7300   33.3370   44.8860 O   0  0  0  0  0  0  0  0  0  0  0  0
   58.2690   31.6870   45.2900 N   0  0  0  0  0  0  0  0  0  0  0  0
   59.3480   32.6690   45.5280 C   0  0  0  0  0  0  0  0  0  0  0  0
   60.3060   32.2417   45.1968 H   0  0  0  0  0  0  0  0  0  0  0  0
   59.1262   33.5858   44.9621 H   0  0  0  0  0  0  0  0  0  0  0  0
   59.4370   33.0100   46.9940 C   0  0  0  0  0  0  0  0  0  0  0  0
   58.8970   32.1460   47.9610 C   0  0  0  0  0  0  0  0  0  0  0  0
   58.4252   31.2025   47.6492 H   0  0  0  0  0  0  0  0  0  0  0  0
   58.9560   32.4790   49.3180 C   0  0  0  0  0  0  0  0  0  0  0  0
   58.5328   31.7971   50.0703 H   0  0  0  0  0  0  0  0  0  0  0  0
   59.5530   33.6790   49.7190 C   0  0  0  0  0  0  0  0  0  0  0  0
   59.5996   33.9406   50.7864 H   0  0  0  0  0  0  0  0  0  0  0  0
   60.0900   34.5450   48.7630 C   0  0  0  0  0  0  0  0  0  0  0  0
   60.5593   35.4883   49.0789 H   0  0  0  0  0  0  0  0  0  0  0  0
   60.0320   34.2150   47.4060 C   0  0  0  0  0  0  0  0  0  0  0  0
   60.4539   34.9014   46.6571 H   0  0  0  0  0  0  0  0  0  0  0  0
   58.5260   30.3430   45.4040 C   0  0  0  0  0  0  0  0  0  0  0  0
   59.6780   29.9430   45.7340 O   0  0  0  0  0  0  0  0  0  0  0  0
   56.6590   25.7110   45.6550 C   0  0  0  0  0  0  0  0  0  0  0  0
   57.6410   24.7800   45.2690 C   0  0  0  0  0  0  0  0  0  0  0  0
   58.7005   25.0755   45.2584 H   0  0  0  0  0  0  0  0  0  0  0  0
   57.2780   23.4820   44.8990 C   0  0  0  0  0  0  0  0  0  0  0  0
   58.0530   22.7557   44.6128 H   0  0  0  0  0  0  0  0  0  0  0  0
   55.9350   23.1060   44.8920 C   0  0  0  0  0  0  0  0  0  0  0  0
   55.6527   22.0816   44.6074 H   0  0  0  0  0  0  0  0  0  0  0  0
   54.9480   24.0290   45.2460 C   0  0  0  0  0  0  0  0  0  0  0  0
   53.8889   23.7324   45.2302 H   0  0  0  0  0  0  0  0  0  0  0  0
   55.3030   25.3310   45.6210 C   0  0  0  0  0  0  0  0  0  0  0  0
   54.3050   26.2340   45.9690 O   0  0  0  0  0  0  0  0  0  0  0  0
  1  2  1  0
  2  3  2  0
  3  4  1  0
  3  5  1  0
  5  6  2  0
  6  7  1  0
  6  8  1  0
  8  9  1  0
  9 10  2  0
  9 11  1  0
 11 12  1  0
 12 13  1  0
 12 14  1  0
 12 15  1  0
 15 16  2  0
 16 17  1  0
 16 18  1  0
 18 19  1  0
 18 20  2  0
 20 21  1  0
 20 22  1  0
 22 23  1  0
 22 24  2  0
 24 25  1  0
 11 26  1  0
 26 27  2  0
  2 28  1  0
 28 29  2  0
 29 30  1  0
 29 31  1  0
 31 32  1  0
 31 33  2  0
 33 34  1  0
 33 35  1  0
 35 36  1  0
 35 37  2  0
 37 38  1  0
 26  5  1  0
 37 28  1  0
 24 15  1  0
M  CHG  3   7  -1   8  -1  38  -1
M  END
>  <UniqueID>  (20) 
20

>  <SMILES>  (20) 
O=c1[n-]c([O-])c(/C=C\c2ccccc2[O-])c(=O)n1Cc1ccccc1

>  <Energy>  (20) 
57.05531664375971

>  <Genealogy>  (20) 
O=c1[n-]c([O-])c(C=Cc2ccccc2[O-])c(=O)n1Cc1ccccc1 (protonated)
O=c1[n-]c([O-])c(/C=C\c2ccccc2[O-])c(=O)n1Cc1ccccc1 (cis-trans isomerization)
O=c1[n-]c([O-])c(/C=C\c2ccccc2[O-])c(=O)n1Cc1ccccc1 (3D coordinates assigned)
O=c1[n-]c([O-])c(/C=C\c2ccccc2[O-])c(=O)n1Cc1ccccc1 (optimized conformer: 57.05531664375971 kcal/mol)

>  <smiles>  (20) 
O=c1[nH]c(O)c(C=Cc2ccccc2O)c(=O)n1Cc1ccccc1

>  <score_type>  (20) 
oracle

>  <origin>  (20) 
adg

>  <m_score__min__energy>  (20) 
-16.649999999999999

>  <m_primary>  (20) 
energy

$$$$
20:0
     RDKit          3D

 46 48  0  0  0  0  0  0  0  0999 V2000
   56.5600   30.1490   44.0210 C   0  0  0  0  0  0  0  0  0  0  0  0
   57.0630   30.6780   45.2430 O   0  0  0  0  0  0  0  0  0  0  0  0
   57.8040   31.8660   45.3520 C   0  0  0  0  0  0  0  0  0  0  0  0
   57.3820   33.0640   44.7400 C   0  0  0  0  0  0  0  0  0  0  0  0
   58.1340   34.2330   44.8820 C   0  0  0  0  0  0  0  0  0  0  0  0
   59.3090   34.2240   45.6340 C   0  0  0  0  0  0  0  0  0  0  0  0
   59.7400   33.0440   46.2440 C   0  0  0  0  0  0  0  0  0  0  0  0
   59.0020   31.8570   46.0980 C   0  0  0  0  0  0  0  0  0  0  0  0
   59.4660   30.6000   46.7900 C   0  0  0  0  0  0  0  0  0  0  0  0
   58.8950   29.4160   46.1480 N   0  0  0  0  0  0  0  0  0  0  0  0
   58.6590   28.2090   46.8890 C   0  0  0  0  0  0  0  0  0  0  0  0
   59.0820   28.1140   48.0740 O   0  0  0  0  0  0  0  0  0  0  0  0
   57.9420   27.0620   46.2810 C   0  0  0  0  0  0  0  0  0  0  0  0
   58.1800   26.6670   44.9560 C   0  0  0  0  0  0  0  0  0  0  0  0
   57.4870   25.5870   44.4060 C   0  0  0  0  0  0  0  0  0  0  0  0
   56.5400   24.8950   45.1830 C   0  0  0  0  0  0  0  0  0  0  0  0
   55.7990   23.7660   44.6580 N   0  0  0  0  0  0  0  0  0  0  0  0
   55.9660   23.3330   43.2640 C   0  0  0  0  0  0  0  0  0  0  0  0
   54.9310   22.9800   45.5450 C   0  0  0  0  0  0  0  0  0  0  0  0
   53.4990   23.3360   45.3090 C   0  0  0  0  0  0  0  0  0  0  0  0
   52.5110   22.4190   45.2500 N   0  0  0  0  0  0  0  0  0  0  0  0
   51.4150   23.1460   44.9760 C   0  0  0  0  0  0  0  0  0  0  0  0
   51.7640   24.4700   44.8670 C   0  0  0  0  0  0  0  0  0  0  0  0
   53.0860   24.5980   45.0710 N   0  0  0  0  0  0  0  0  0  0  0  0
   56.3190   25.3090   46.4630 N   0  0  0  0  0  0  0  0  0  0  0  0
   56.9800   26.3570   47.0200 C   0  0  0  0  0  0  0  0  0  0  0  0
   55.8169   29.3675   44.2381 H   0  0  0  0  0  0  0  0  0  0  0  0
   56.0863   30.9542   43.4403 H   0  0  0  0  0  0  0  0  0  0  0  0
   57.3881   29.7165   43.4403 H   0  0  0  0  0  0  0  0  0  0  0  0
   56.4554   33.0784   44.1473 H   0  0  0  0  0  0  0  0  0  0  0  0
   57.7986   35.1629   44.3995 H   0  0  0  0  0  0  0  0  0  0  0  0
   59.8965   35.1471   45.7466 H   0  0  0  0  0  0  0  0  0  0  0  0
   60.6629   33.0437   46.8425 H   0  0  0  0  0  0  0  0  0  0  0  0
   60.5634   30.5442   46.7399 H   0  0  0  0  0  0  0  0  0  0  0  0
   59.1331   30.6295   47.8380 H   0  0  0  0  0  0  0  0  0  0  0  0
   58.7070   29.4340   45.1210 H   0  0  0  0  0  0  0  0  0  0  0  0
   58.9168   27.2113   44.3470 H   0  0  0  0  0  0  0  0  0  0  0  0
   57.6808   25.2780   43.3682 H   0  0  0  0  0  0  0  0  0  0  0  0
   56.3618   22.3069   43.2437 H   0  0  0  0  0  0  0  0  0  0  0  0
   54.9927   23.3608   42.7523 H   0  0  0  0  0  0  0  0  0  0  0  0
   56.6686   24.0072   42.7523 H   0  0  0  0  0  0  0  0  0  0  0  0
   55.0779   21.9089   45.3422 H   0  0  0  0  0  0  0  0  0  0  0  0
   55.1896   23.2016   46.5910 H   0  0  0  0  0  0  0  0  0  0  0  0
   50.3979   22.7441   44.8576 H   0  0  0  0  0  0  0  0  0  0  0  0
   51.0707   25.2953   44.6474 H   0  0  0  0  0  0  0  0  0  0  0  0
   56.7599   26.6545   48.0559 H   0  0  0  0  0  0  0  0  0  0  0  0
  1  2  1  0
  2  3  1  0
  3  4  2  0
  4  5  1  0
  5  6  2  0
  6  7  1  0
  7  8  2  0
  8  9  1  0
  9 10  1  0
 10 11  1  0
 11 12  2  0
 11 13  1  0
 13 14  2  0
 14 15  1  0
 15 16  2  0
 16 17  1  0
 17 18  1  0
 17 19  1  0
 19 20  1  0
 20 21  2  0
 21 22  1  0
 22 23  2  0
 23 24  1  0
 16 25  1  0
 25 26  2  0
  8  3  1  0
 26 13  1  0
 24 20  1  0
  1 27  1  0
  1 28  1  0
  1 29  1  0
  4 30  1  0
  5 31  1  0
  6 32  1  0
  7 33  1  0
  9 34  1  0
  9 35  1  0
 10 36  1  0
 14 37  1  0
 15 38  1  0
 18 39  1  0
 18 40  1  0
 18 41  1  0
 19 42  1  0
 19 43  1  0
 22 44  1  0
 23 45  1  0
 26 46  1  0
M  CHG  1  24  -1
M  END
>  <UniqueID>  (21) 
21

>  <SMILES>  (21) 
COc1ccccc1CNC(=O)c1ccc(N(C)Cc2ncc[n-]2)nc1

>  <Energy>  (21) 
74.75511454947456

>  <Genealogy>  (21) 
COc1ccccc1CNC(=O)c1ccc(N(C)Cc2ncc[n-]2)nc1 (protonated)
COc1ccccc1CNC(=O)c1ccc(N(C)Cc2ncc[n-]2)nc1 (3D coordinates assigned)
COc1ccccc1CNC(=O)c1ccc(N(C)Cc2ncc[n-]2)nc1 (optimized conformer: 74.75511454947456 kcal/mol)

>  <smiles>  (21) 
COc1ccccc1CNC(=O)c1ccc(N(C)Cc2ncc[nH]2)nc1

>  <score_type>  (21) 
oracle

>  <origin>  (21) 
adg

>  <m_score__min__energy>  (21) 
-8.5800000000000001

>  <m_primary>  (21) 
energy

$$$$
21:0
     RDKit          3D

 25 26  0  0  0  0  0  0  0  0999 V2000
   55.6620   27.4100   54.0580 H   0  0  0  0  0  0  0  0  0  0  0  0
   56.3900   27.8470   53.5070 O   0  0  0  0  0  0  0  0  0  0  0  0
   56.2740   29.1480   53.0140 C   0  0  0  0  0  0  0  0  0  0  0  0
   57.3410   29.7020   52.2990 C   0  0  0  0  0  0  0  0  0  0  0  0
   58.2544   29.1126   52.1305 H   0  0  0  0  0  0  0  0  0  0  0  0
   57.2480   31.0020   51.7990 C   0  0  0  0  0  0  0  0  0  0  0  0
   58.0831   31.4409   51.2333 H   0  0  0  0  0  0  0  0  0  0  0  0
   56.0860   31.7380   52.0240 C   0  0  0  0  0  0  0  0  0  0  0  0
   56.0020   32.7646   51.6379 H   0  0  0  0  0  0  0  0  0  0  0  0
   55.0570   31.1880   52.7200 N   0  0  0  0  0  0  0  0  0  0  0  0
   55.1110   29.9170   53.2130 C   0  0  0  0  0  0  0  0  0  0  0  0
   54.1130   29.4220   53.8900 N   0  0  0  0  0  0  0  0  0  0  0  0
   52.7480   29.3460   53.4500 C   0  0  0  0  0  0  0  0  0  0  0  0
   52.0010   28.4670   53.9580 O   0  0  0  0  0  0  0  0  0  0  0  0
   52.2130   30.2210   52.3780 C   0  0  0  0  0  0  0  0  0  0  0  0
   52.1750   29.7820   51.0430 C   0  0  0  0  0  0  0  0  0  0  0  0
   52.5545   28.7821   50.7857 H   0  0  0  0  0  0  0  0  0  0  0  0
   51.6580   30.6080   50.0400 C   0  0  0  0  0  0  0  0  0  0  0  0
   51.6350   30.1640   48.7230 O   0  0  0  0  0  0  0  0  0  0  0  0
   51.1630   31.8760   50.3630 C   0  0  0  0  0  0  0  0  0  0  0  0
   50.6510   32.6990   49.3660 O   0  0  0  0  0  0  0  0  0  0  0  0
   51.1810   32.3150   51.6920 C   0  0  0  0  0  0  0  0  0  0  0  0
   50.6870   33.5730   52.0190 O   0  0  0  0  0  0  0  0  0  0  0  0
   51.6980   31.4890   52.6960 C   0  0  0  0  0  0  0  0  0  0  0  0
   51.7013   31.8343   53.7404 H   0  0  0  0  0  0  0  0  0  0  0  0
  1  2  1  0
  2  3  1  0
  3  4  2  0
  4  5  1  0
  4  6  1  0
  6  7  1  0
  6  8  2  0
  8  9  1  0
  8 10  1  0
 10 11  1  0
 11 12  2  0
 12 13  1  0
 13 14  2  0
 13 15  1  0
 15 16  2  0
 16 17  1  0
 16 18  1  0
 18 19  1  0
 18 20  2  0
 20 21  1  0
 20 22  1  0
 22 23  1  0
 22 24  2  0
 24 25  1  0
 11  3  1  0
 24 15  1  0
M  CHG  4  10  -1  19  -1  21  -1  23  -1
M  END
>  <UniqueID>  (22) 
22

>  <SMILES>  (22) 
O=C(/N=c1\[n-]cccc1O)c1cc([O-])c([O-])c([O-])c1

>  <Energy>  (22) 
35.8039647793335

>  <Genealogy>  (22) 
O=C(N=c1[n-]cccc1O)c1cc([O-])c([O-])c([O-])c1 (protonated)
O=C(/N=c1\[n-]cccc1O)c1cc([O-])c([O-])c([O-])c1 (cis-trans isomerization)
O=C(/N=c1\[n-]cccc1O)c1cc([O-])c([O-])c([O-])c1 (3D coordinates assigned)
O=C(/N=c1\[n-]cccc1O)c1cc([O-])c([O-])c([O-])c1 (optimized conformer: 35.8039647793335 kcal/mol)

>  <smiles>  (22) 
O=C(N=c1[nH]cccc1O)c1cc(O)c(O)c(O)c1

>  <score_type>  (22) 
oracle

>  <origin>  (22) 
adg

>  <m_score__min__energy>  (22) 
-17.440000000000001

>  <m_primary>  (22) 
energy

$$$$
22:0
     RDKit          3D

 64 67  0  0  0  0  0  0  0  0999 V2000
   64.1550   33.4210   48.6220 C   0  0  0  0  0  0  0  0  0  0  0  0
   62.7610   33.6740   48.1330 C   0  0  0  0  0  0  0  0  0  0  0  0
   62.3970   33.3360   46.8250 C   0  0  0  0  0  0  0  0  0  0  0  0
   61.0880   33.5410   46.3860 C   0  0  0  0  0  0  0  0  0  0  0  0
   60.1430   34.0860   47.2680 C   0  0  0  0  0  0  0  0  0  0  0  0
   58.7250   34.3270   46.8420 C   0  0  0  0  0  0  0  0  0  0  0  0
   58.5420   33.9550   45.4740 O   0  0  0  0  0  0  0  0  0  0  0  0
   58.1410   32.6950   45.0010 C   0  0  0  0  0  0  0  0  0  0  0  0
   57.5350   32.4970   43.7280 C   0  0  0  0  0  0  0  0  0  0  0  0
   57.1670   31.2090   43.3010 C   0  0  0  0  0  0  0  0  0  0  0  0
   57.4270   30.1380   44.1510 C   0  0  0  0  0  0  0  0  0  0  0  0
   57.1200   28.8480   43.9440 N   0  0  0  0  0  0  0  0  0  0  0  0
   57.5310   28.1830   45.0500 C   0  0  0  0  0  0  0  0  0  0  0  0
   57.3000   26.7420   45.2500 C   0  0  0  0  0  0  0  0  0  0  0  0
   57.7770   25.8220   44.3030 C   0  0  0  0  0  0  0  0  0  0  0  0
   57.5390   24.4550   44.4660 C   0  0  0  0  0  0  0  0  0  0  0  0
   56.8290   23.9950   45.5810 C   0  0  0  0  0  0  0  0  0  0  0  0
   56.5100   22.2810   45.7760 Cl  0  0  0  0  0  0  0  0  0  0  0  0
   56.3680   24.9040   46.5380 C   0  0  0  0  0  0  0  0  0  0  0  0
   56.6060   26.2720   46.3760 C   0  0  0  0  0  0  0  0  0  0  0  0
   58.0960   29.0700   45.9750 C   0  0  0  0  0  0  0  0  0  0  0  0
   58.5370   28.7770   47.3880 C   0  0  0  0  0  0  0  0  0  0  0  0
   59.8890   29.4210   47.7070 C   0  0  0  0  0  0  0  0  0  0  0  0
   59.8610   30.0800   49.0120 N   0  0  0  0  0  0  0  0  0  0  0  0
   60.9660   30.8460   49.5070 C   0  0  0  0  0  0  0  0  0  0  0  0
   62.1120   30.7230   48.9900 O   0  0  0  0  0  0  0  0  0  0  0  0
   60.7770   31.7790   50.6690 C   0  0  0  0  0  0  0  0  0  0  0  0
   59.7520   31.2520   51.6790 C   0  0  0  0  0  0  0  0  0  0  0  0
   58.0650   31.4560   51.1180 S   0  0  0  0  0  0  0  0  0  0  0  0
   57.1900   32.4680   52.2910 C   0  0  0  0  0  0  0  0  0  0  0  0
   57.3980   30.1120   51.0320 O   0  0  0  0  0  0  0  0  0  0  0  0
   58.0420   32.1200   49.7690 O   0  0  0  0  0  0  0  0  0  0  0  0
   58.0100   30.3170   45.3770 C   0  0  0  0  0  0  0  0  0  0  0  0
   58.3720   31.5850   45.8360 C   0  0  0  0  0  0  0  0  0  0  0  0
   60.5170   34.3960   48.5420 N   0  0  0  0  0  0  0  0  0  0  0  0
   61.7840   34.1990   48.9910 C   0  0  0  0  0  0  0  0  0  0  0  0
   64.1631   33.4195   49.7220 H   0  0  0  0  0  0  0  0  0  0  0  0
   64.5021   32.4452   48.2515 H   0  0  0  0  0  0  0  0  0  0  0  0
   64.8229   34.2126   48.2515 H   0  0  0  0  0  0  0  0  0  0  0  0
   63.1443   32.9076   46.1409 H   0  0  0  0  0  0  0  0  0  0  0  0
   60.8000   33.2776   45.3576 H   0  0  0  0  0  0  0  0  0  0  0  0
   58.0511   33.7288   47.4729 H   0  0  0  0  0  0  0  0  0  0  0  0
   58.4979   35.3976   46.9525 H   0  0  0  0  0  0  0  0  0  0  0  0
   57.3528   33.3607   43.0717 H   0  0  0  0  0  0  0  0  0  0  0  0
   56.6875   31.0523   42.3235 H   0  0  0  0  0  0  0  0  0  0  0  0
   56.6450   28.4420   43.1070 H   0  0  0  0  0  0  0  0  0  0  0  0
   58.3408   26.1791   43.4286 H   0  0  0  0  0  0  0  0  0  0  0  0
   57.9100   23.7396   43.7173 H   0  0  0  0  0  0  0  0  0  0  0  0
   55.8176   24.5425   47.4191 H   0  0  0  0  0  0  0  0  0  0  0  0
   56.2477   26.9835   47.1345 H   0  0  0  0  0  0  0  0  0  0  0  0
   57.7822   29.1697   48.0852 H   0  0  0  0  0  0  0  0  0  0  0  0
   58.6440   27.6873   47.4937 H   0  0  0  0  0  0  0  0  0  0  0  0
   60.6657   28.6421   47.7140 H   0  0  0  0  0  0  0  0  0  0  0  0
   60.1074   30.1763   46.9377 H   0  0  0  0  0  0  0  0  0  0  0  0
   58.9380   30.1640   49.4960 H   0  0  0  0  0  0  0  0  0  0  0  0
   61.7427   31.9076   51.1798 H   0  0  0  0  0  0  0  0  0  0  0  0
   60.3998   32.7342   50.2749 H   0  0  0  0  0  0  0  0  0  0  0  0
   59.9406   30.1813   51.8462 H   0  0  0  0  0  0  0  0  0  0  0  0
   59.8676   31.8339   52.6053 H   0  0  0  0  0  0  0  0  0  0  0  0
   57.4569   32.1593   53.3125 H   0  0  0  0  0  0  0  0  0  0  0  0
   57.4655   33.5226   52.1428 H   0  0  0  0  0  0  0  0  0  0  0  0
   56.1067   32.3477   52.1428 H   0  0  0  0  0  0  0  0  0  0  0  0
   58.8279   31.7141   46.8287 H   0  0  0  0  0  0  0  0  0  0  0  0
   62.0439   34.4518   50.0295 H   0  0  0  0  0  0  0  0  0  0  0  0
  1  2  1  0
  2  3  2  0
  3  4  1  0
  4  5  2  0
  5  6  1  0
  6  7  1  0
  7  8  1  0
  8  9  2  0
  9 10  1  0
 10 11  2  0
 11 12  1  0
 12 13  1  0
 13 14  1  0
 14 15  2  0
 15 16  1  0
 16 17  2  0
 17 18  1  0
 17 19  1  0
 19 20  2  0
 13 21  2  0
 21 22  1  0
 22 23  1  0
 23 24  1  0
 24 25  1  0
 25 26  2  0
 25 27  1  0
 27 28  1  0
 28 29  1  0
 29 30  1  0
 29 31  2  0
 29 32  2  0
 21 33  1  0
 33 34  2  0
  5 35  1  0
 35 36  2  0
 36  2  1  0
 34  8  1  0
 33 11  1  0
 20 14  1  0
  1 37  1  0
  1 38  1  0
  1 39  1  0
  3 40  1  0
  4 41  1  0
  6 42  1  0
  6 43  1  0
  9 44  1  0
 10 45  1  0
 12 46  1  0
 15 47  1  0
 16 48  1  0
 19 49  1  0
 20 50  1  0
 22 51  1  0
 22 52  1  0
 23 53  1  0
 23 54  1  0
 24 55  1  0
 27 56  1  0
 27 57  1  0
 28 58  1  0
 28 59  1  0
 30 60  1  0
 30 61  1  0
 30 62  1  0
 34 63  1  0
 36 64  1  0
M  END
>  <UniqueID>  (23) 
23

>  <SMILES>  (23) 
Cc1ccc(COc2ccc3[nH]c(-c4ccc(Cl)cc4)c(CCNC(=O)CCS(C)(=O)=O)c3c2)nc1

>  <Energy>  (23) 
87.92103589993211

>  <Genealogy>  (23) 
Cc1ccc(COc2ccc3[nH]c(-c4ccc(Cl)cc4)c(CCNC(=O)CCS(C)(=O)=O)c3c2)nc1 (3D coordinates assigned)
Cc1ccc(COc2ccc3[nH]c(-c4ccc(Cl)cc4)c(CCNC(=O)CCS(C)(=O)=O)c3c2)nc1 (optimized conformer: 87.92103589993211 kcal/mol)

>  <smiles>  (23) 
Cc1ccc(COc2ccc3[nH]c(-c4ccc(Cl)cc4)c(CCNC(=O)CCS(C)(=O)=O)c3c2)nc1

>  <score_type>  (23) 
oracle

>  <origin>  (23) 
adg

>  <m_score__min__energy>  (23) 
-9.5299999999999994

>  <m_primary>  (23) 
energy

$$$$
23:0
     RDKit          3D

 31 32  0  0  0  0  0  0  0  0999 V2000
   58.6860   24.6810   46.3690 O   0  0  0  0  0  0  0  0  0  0  0  0
   57.6230   25.2550   46.0110 C   0  0  0  0  0  0  0  0  0  0  0  0
   57.6020   26.7000   45.7040 C   0  0  0  0  0  0  0  0  0  0  0  0
   58.8040   27.3990   45.4970 C   0  0  0  0  0  0  0  0  0  0  0  0
   58.7870   28.7630   45.1990 C   0  0  0  0  0  0  0  0  0  0  0  0
   57.5730   29.4510   45.0990 C   0  0  0  0  0  0  0  0  0  0  0  0
   57.5680   30.8810   44.7410 C   0  0  0  0  0  0  0  0  0  0  0  0
   56.4750   31.4410   44.4630 O   0  0  0  0  0  0  0  0  0  0  0  0
   58.7810   31.6410   44.6580 N   0  0  0  0  0  0  0  0  0  0  0  0
   58.9110   33.0610   44.9850 C   0  0  0  0  0  0  0  0  0  0  0  0
   59.0990   33.2560   46.4670 C   0  0  0  0  0  0  0  0  0  0  0  0
   59.8120   34.3670   46.9470 C   0  0  0  0  0  0  0  0  0  0  0  0
   60.0320   34.5230   48.3200 C   0  0  0  0  0  0  0  0  0  0  0  0
   59.5390   33.5750   49.2220 C   0  0  0  0  0  0  0  0  0  0  0  0
   59.8270   33.7670   50.9410 Cl  0  0  0  0  0  0  0  0  0  0  0  0
   58.8170   32.4740   48.7510 C   0  0  0  0  0  0  0  0  0  0  0  0
   58.5920   32.3170   47.3810 C   0  0  0  0  0  0  0  0  0  0  0  0
   56.3630   28.7670   45.3150 C   0  0  0  0  0  0  0  0  0  0  0  0
   55.1540   29.4570   45.2080 O   0  0  0  0  0  0  0  0  0  0  0  0
   56.3800   27.3930   45.6150 C   0  0  0  0  0  0  0  0  0  0  0  0
   55.1780   26.7190   45.8180 O   0  0  0  0  0  0  0  0  0  0  0  0
   56.6951   24.6705   45.9256 H   0  0  0  0  0  0  0  0  0  0  0  0
   59.7644   26.8678   45.5703 H   0  0  0  0  0  0  0  0  0  0  0  0
   59.7341   29.3000   45.0419 H   0  0  0  0  0  0  0  0  0  0  0  0
   59.7810   33.4747   44.4540 H   0  0  0  0  0  0  0  0  0  0  0  0
   57.9908   33.5786   44.6762 H   0  0  0  0  0  0  0  0  0  0  0  0
   60.1987   35.1169   46.2412 H   0  0  0  0  0  0  0  0  0  0  0  0
   60.5939   35.3931   48.6905 H   0  0  0  0  0  0  0  0  0  0  0  0
   58.4254   31.7301   49.4604 H   0  0  0  0  0  0  0  0  0  0  0  0
   58.0152   31.4543   47.0163 H   0  0  0  0  0  0  0  0  0  0  0  0
   55.1020   30.4670   45.2450 H   0  0  0  0  0  0  0  0  0  0  0  0
  1  2  2  0
  2  3  1  0
  3  4  2  0
  4  5  1  0
  5  6  2  0
  6  7  1  0
  7  8  2  0
  7  9  1  0
  9 10  1  0
 10 11  1  0
 11 12  2  0
 12 13  1  0
 13 14  2  0
 14 15  1  0
 14 16  1  0
 16 17  2  0
  6 18  1  0
 18 19  1  0
 18 20  2  0
 20 21  1  0
 20  3  1  0
 17 11  1  0
  2 22  1  0
  4 23  1  0
  5 24  1  0
 10 25  1  0
 10 26  1  0
 12 27  1  0
 13 28  1  0
 16 29  1  0
 17 30  1  0
 19 31  1  0
M  CHG  2   9  -1  21  -1
M  END
>  <UniqueID>  (24) 
24

>  <SMILES>  (24) 
O=Cc1ccc(C(=O)[N-]Cc2ccc(Cl)cc2)c(O)c1[O-]

>  <Energy>  (24) 
35.106739124718736

>  <Genealogy>  (24) 
O=Cc1ccc(C(=O)[N-]Cc2ccc(Cl)cc2)c(O)c1[O-] (protonated)
O=Cc1ccc(C(=O)[N-]Cc2ccc(Cl)cc2)c(O)c1[O-] (3D coordinates assigned)
O=Cc1ccc(C(=O)[N-]Cc2ccc(Cl)cc2)c(O)c1[O-] (optimized conformer: 35.106739124718736 kcal/mol)

>  <smiles>  (24) 
O=Cc1ccc(C(=O)NCc2ccc(Cl)cc2)c(O)c1O

>  <score_type>  (24) 
oracle

>  <origin>  (24) 
adg

>  <m_score__min__energy>  (24) 
-13.41

>  <m_primary>  (24) 
energy

$$$$
24:0
     RDKit          3D

 45 47  0  0  0  0  0  0  0  0999 V2000
   56.0610   28.0460   44.9780 H   0  0  0  0  0  0  0  0  0  0  0  0
   55.6270   28.9560   44.8660 O   0  0  0  0  0  0  0  0  0  0  0  0
   56.2480   29.9740   44.1440 C   0  0  0  0  0  0  0  0  0  0  0  0
   56.2730   29.9120   42.7470 C   0  0  0  0  0  0  0  0  0  0  0  0
   55.8128   29.0588   42.2271 H   0  0  0  0  0  0  0  0  0  0  0  0
   56.8810   30.9310   42.0110 C   0  0  0  0  0  0  0  0  0  0  0  0
   56.8912   30.8833   40.9121 H   0  0  0  0  0  0  0  0  0  0  0  0
   57.4770   32.0120   42.6680 C   0  0  0  0  0  0  0  0  0  0  0  0
   57.9411   32.8204   42.0839 H   0  0  0  0  0  0  0  0  0  0  0  0
   57.4850   32.0690   44.0730 C   0  0  0  0  0  0  0  0  0  0  0  0
   58.0680   33.2220   44.7950 C   0  0  0  0  0  0  0  0  0  0  0  0
   58.4630   34.0513   44.1898 H   0  0  0  0  0  0  0  0  0  0  0  0
   58.1530   33.3360   46.1300 C   0  0  0  0  0  0  0  0  0  0  0  0
   57.2117   33.3752   46.6978 H   0  0  0  0  0  0  0  0  0  0  0  0
   59.4180   33.4130   46.8960 C   0  0  0  0  0  0  0  0  0  0  0  0
   59.7480   34.4970   47.4460 O   0  0  0  0  0  0  0  0  0  0  0  0
   60.3460   32.3170   46.9340 N   0  0  0  0  0  0  0  0  0  0  0  0
   60.1040   31.0950   47.3180 C   0  0  0  0  0  0  0  0  0  0  0  0
   60.6730   30.5820   48.4430 N   0  0  0  0  0  0  0  0  0  0  0  0
   60.4490   29.3050   48.8500 C   0  0  0  0  0  0  0  0  0  0  0  0
   61.0950   28.8000   50.1010 C   0  0  0  0  0  0  0  0  0  0  0  0
   60.5700   29.2104   50.9762 H   0  0  0  0  0  0  0  0  0  0  0  0
   61.0419   27.7015   50.1234 H   0  0  0  0  0  0  0  0  0  0  0  0
   62.1482   29.1167   50.1234 H   0  0  0  0  0  0  0  0  0  0  0  0
   59.6100   28.4720   48.1000 C   0  0  0  0  0  0  0  0  0  0  0  0
   59.4212   27.4389   48.4271 H   0  0  0  0  0  0  0  0  0  0  0  0
   59.0100   28.9620   46.9270 C   0  0  0  0  0  0  0  0  0  0  0  0
   58.1170   28.0980   46.1160 C   0  0  0  0  0  0  0  0  0  0  0  0
   58.2710   28.0460   44.8660 O   0  0  0  0  0  0  0  0  0  0  0  0
   57.0760   27.3440   46.7620 N   0  0  0  0  0  0  0  0  0  0  0  0
   56.4510   26.2860   46.3290 C   0  0  0  0  0  0  0  0  0  0  0  0
   55.1430   26.3080   46.0150 N   0  0  0  0  0  0  0  0  0  0  0  0
   54.8190   25.0910   45.6110 N   0  0  0  0  0  0  0  0  0  0  0  0
   53.4680   24.6900   45.2450 C   0  0  0  0  0  0  0  0  0  0  0  0
   52.8779   24.5148   46.1566 H   0  0  0  0  0  0  0  0  0  0  0  0
   52.9972   25.4871   44.6509 H   0  0  0  0  0  0  0  0  0  0  0  0
   53.5083   23.7651   44.6509 H   0  0  0  0  0  0  0  0  0  0  0  0
   55.8910   24.2790   45.6830 C   0  0  0  0  0  0  0  0  0  0  0  0
   55.9044   23.2098   45.4250 H   0  0  0  0  0  0  0  0  0  0  0  0
   56.9690   25.0110   46.1340 C   0  0  0  0  0  0  0  0  0  0  0  0
   58.0001   24.6659   46.3008 H   0  0  0  0  0  0  0  0  0  0  0  0
   59.2690   30.2870   46.5370 C   0  0  0  0  0  0  0  0  0  0  0  0
   58.8160   30.6890   45.6188 H   0  0  0  0  0  0  0  0  0  0  0  0
   56.8460   31.0570   44.8050 C   0  0  0  0  0  0  0  0  0  0  0  0
   56.8138   31.1132   45.9031 H   0  0  0  0  0  0  0  0  0  0  0  0
  1  2  1  0
  2  3  1  0
  3  4  2  0
  4  5  1  0
  4  6  1  0
  6  7  1  0
  6  8  2  0
  8  9  1  0
  8 10  1  0
 10 11  1  0
 11 12  1  0
 11 13  2  0
 13 14  1  0
 13 15  1  0
 15 16  2  0
 15 17  1  0
 17 18  2  3
 18 19  1  0
 19 20  1  0
 20 21  1  0
 21 22  1  0
 21 23  1  0
 21 24  1  0
 20 25  2  0
 25 26  1  0
 25 27  1  0
 27 28  1  0
 28 29  2  0
 28 30  1  0
 30 31  2  3
 31 32  1  0
 32 33  1  0
 33 34  1  0
 34 35  1  0
 34 36  1  0
 34 37  1  0
 33 38  1  0
 38 39  1  0
 38 40  2  0
 40 41  1  0
 27 42  2  0
 42 43  1  0
 10 44  2  0
 44 45  1  0
 44  3  1  0
 42 18  1  0
 40 31  1  0
M  CHG  2  19  -1  32  -1
M  END
>  <UniqueID>  (25) 
25

>  <SMILES>  (25) 
Cc1cc(C(=O)N=c2ccn(C)[n-]2)cc(=NC(=O)/C=C\c2cccc(O)c2)[n-]1

>  <Energy>  (25) 
92.80954952729792

>  <Genealogy>  (25) 
Cc1cc(C(=O)N=c2ccn(C)[n-]2)cc(=NC(=O)C=Cc2cccc(O)c2)[n-]1 (protonated)
Cc1cc(C(=O)N=c2ccn(C)[n-]2)cc(=NC(=O)/C=C\c2cccc(O)c2)[n-]1 (cis-trans isomerization)
Cc1cc(C(=O)N=c2ccn(C)[n-]2)cc(=NC(=O)/C=C\c2cccc(O)c2)[n-]1 (3D coordinates assigned)
Cc1cc(C(=O)N=c2ccn(C)[n-]2)cc(=NC(=O)/C=C\c2cccc(O)c2)[n-]1 (optimized conformer: 92.80954952729792 kcal/mol)

>  <smiles>  (25) 
Cc1cc(C(=O)N=c2ccn(C)[nH]2)cc(=NC(=O)C=Cc2cccc(O)c2)[nH]1

>  <score_type>  (25) 
oracle

>  <origin>  (25) 
adg

>  <m_score__min__energy>  (25) 
-11.359999999999999

>  <m_primary>  (25) 
energy

$$$$
25:0
     RDKit          3D

 48 51  0  0  0  0  0  0  0  0999 V2000
   57.8590   33.0920   43.9170 C   0  0  0  0  0  0  0  0  0  0  0  0
   57.6950   31.9230   44.5460 C   0  0  0  0  0  0  0  0  0  0  0  0
   56.9470   30.8660   44.0870 C   0  0  0  0  0  0  0  0  0  0  0  0
   56.2840   30.8380   43.0160 O   0  0  0  0  0  0  0  0  0  0  0  0
   57.0110   29.8370   44.9450 N   0  0  0  0  0  0  0  0  0  0  0  0
   57.8290   30.2810   45.9280 C   0  0  0  0  0  0  0  0  0  0  0  0
   58.1840   29.4620   46.9340 C   0  0  0  0  0  0  0  0  0  0  0  0
   58.8420   28.1570   46.7670 C   0  0  0  0  0  0  0  0  0  0  0  0
   60.1750   27.9940   46.7380 N   0  0  0  0  0  0  0  0  0  0  0  0
   60.3420   26.6900   46.4370 C   0  0  0  0  0  0  0  0  0  0  0  0
   59.1820   26.0240   46.2510 N   0  0  0  0  0  0  0  0  0  0  0  0
   58.2340   26.9570   46.4470 C   0  0  0  0  0  0  0  0  0  0  0  0
   56.7920   26.6760   46.3490 C   0  0  0  0  0  0  0  0  0  0  0  0
   56.0400   27.4290   45.6750 O   0  0  0  0  0  0  0  0  0  0  0  0
   56.2490   25.5490   47.0360 N   0  0  0  0  0  0  0  0  0  0  0  0
   55.1330   24.4570   46.2880 S   0  0  0  0  0  0  0  0  0  0  0  0
   54.0480   25.2390   45.6000 O   0  0  0  0  0  0  0  0  0  0  0  0
   54.5000   23.5930   47.3430 O   0  0  0  0  0  0  0  0  0  0  0  0
   55.9900   23.4370   45.1380 C   0  0  0  0  0  0  0  0  0  0  0  0
   57.1160   22.7120   45.5530 C   0  0  0  0  0  0  0  0  0  0  0  0
   57.8160   21.9160   44.6400 C   0  0  0  0  0  0  0  0  0  0  0  0
   57.3960   21.8440   43.3080 C   0  0  0  0  0  0  0  0  0  0  0  0
   56.2770   22.5690   42.8880 C   0  0  0  0  0  0  0  0  0  0  0  0
   55.5750   23.3680   43.7990 C   0  0  0  0  0  0  0  0  0  0  0  0
   58.2400   31.5730   45.7360 N   0  0  0  0  0  0  0  0  0  0  0  0
   58.8200   32.7080   46.9410 S   0  0  0  0  0  0  0  0  0  0  0  0
   58.2400   32.3620   48.2840 O   0  0  0  0  0  0  0  0  0  0  0  0
   58.3600   34.0960   46.5960 O   0  0  0  0  0  0  0  0  0  0  0  0
   60.5780   32.6960   47.0230 C   0  0  0  0  0  0  0  0  0  0  0  0
   61.2620   31.5580   47.4770 C   0  0  0  0  0  0  0  0  0  0  0  0
   62.6580   31.5630   47.5560 C   0  0  0  0  0  0  0  0  0  0  0  0
   63.3770   32.7010   47.1770 C   0  0  0  0  0  0  0  0  0  0  0  0
   62.7000   33.8350   46.7180 C   0  0  0  0  0  0  0  0  0  0  0  0
   61.3050   33.8330   46.6380 C   0  0  0  0  0  0  0  0  0  0  0  0
   58.4807   33.8781   44.3704 H   0  0  0  0  0  0  0  0  0  0  0  0
   57.3722   33.2673   42.9463 H   0  0  0  0  0  0  0  0  0  0  0  0
   57.9656   29.7933   47.9599 H   0  0  0  0  0  0  0  0  0  0  0  0
   61.3299   26.2138   46.3511 H   0  0  0  0  0  0  0  0  0  0  0  0
   57.4500   22.7692   46.5995 H   0  0  0  0  0  0  0  0  0  0  0  0
   58.6973   21.3464   44.9700 H   0  0  0  0  0  0  0  0  0  0  0  0
   57.9461   21.2170   42.5909 H   0  0  0  0  0  0  0  0  0  0  0  0
   55.9473   22.5118   41.8401 H   0  0  0  0  0  0  0  0  0  0  0  0
   54.6979   23.9418   43.4650 H   0  0  0  0  0  0  0  0  0  0  0  0
   60.6988   30.6601   47.7714 H   0  0  0  0  0  0  0  0  0  0  0  0
   63.1912   30.6710   47.9166 H   0  0  0  0  0  0  0  0  0  0  0  0
   64.4752   32.7040   47.2400 H   0  0  0  0  0  0  0  0  0  0  0  0
   63.2662   34.7296   46.4196 H   0  0  0  0  0  0  0  0  0  0  0  0
   60.7752   34.7250   46.2723 H   0  0  0  0  0  0  0  0  0  0  0  0
  1  2  2  0
  2  3  1  0
  3  4  2  0
  3  5  1  0
  5  6  1  0
  6  7  2  3
  7  8  1  0
  8  9  1  0
  9 10  2  0
 10 11  1  0
 11 12  1  0
 12 13  1  0
 13 14  2  0
 13 15  1  0
 15 16  1  0
 16 17  2  0
 16 18  2  0
 16 19  1  0
 19 20  2  0
 20 21  1  0
 21 22  2  0
 22 23  1  0
 23 24  2  0
  6 25  1  0
 25 26  1  0
 26 27  2  0
 26 28  2  0
 26 29  1  0
 29 30  2  0
 30 31  1  0
 31 32  2  0
 32 33  1  0
 33 34  2  0
 25  2  1  0
 34 29  1  0
 12  8  2  0
 24 19  1  0
  1 35  1  0
  1 36  1  0
  7 37  1  0
 10 38  1  0
 20 39  1  0
 21 40  1  0
 22 41  1  0
 23 42  1  0
 24 43  1  0
 30 44  1  0
 31 45  1  0
 32 46  1  0
 33 47  1  0
 34 48  1  0
M  CHG  3   5  -1  11  -1  15  -1
M  END
>  <UniqueID>  (26) 
26

>  <SMILES>  (26) 
C=c1c(=O)[n-]c(=Cc2nc[n-]c2C(=O)[N-]S(=O)(=O)c2ccccc2)n1S(=O)(=O)c1ccccc1

>  <Energy>  (26) 
130.78247384834086

>  <Genealogy>  (26) 
C=c1c(=O)[n-]c(=Cc2nc[n-]c2C(=O)[N-]S(=O)(=O)c2ccccc2)n1S(=O)(=O)c1ccccc1 (protonated)
C=c1c(=O)[n-]c(=Cc2nc[n-]c2C(=O)[N-]S(=O)(=O)c2ccccc2)n1S(=O)(=O)c1ccccc1 (3D coordinates assigned)
C=c1c(=O)[n-]c(=Cc2nc[n-]c2C(=O)[N-]S(=O)(=O)c2ccccc2)n1S(=O)(=O)c1ccccc1 (optimized conformer: 130.78247384834086 kcal/mol)

>  <smiles>  (26) 
C=c1c(=O)[nH]c(=Cc2nc[nH]c2C(=O)NS(=O)(=O)c2ccccc2)n1S(=O)(=O)c1ccccc1

>  <score_type>  (26) 
oracle

>  <origin>  (26) 
adg

>  <m_score__min__energy>  (26) 
-14.970000000000001

>  <m_primary>  (26) 
energy

$$$$
26:0
     RDKit          3D

 55 57  0  0  0  0  0  0  0  0999 V2000
   63.7190   32.7110   46.8480 C   0  0  0  0  0  0  0  0  0  0  0  0
   63.5430   33.9000   47.6820 N   0  0  0  0  0  0  0  0  0  0  0  0
   62.2960   33.8020   48.4500 C   0  0  0  0  0  0  0  0  0  0  0  0
   61.2300   33.1270   47.6370 C   0  0  0  0  0  0  0  0  0  0  0  0
   60.5420   33.8040   46.8230 O   0  0  0  0  0  0  0  0  0  0  0  0
   61.0630   31.7040   47.7150 N   0  0  0  0  0  0  0  0  0  0  0  0
   59.9800   31.0100   47.0740 C   0  0  0  0  0  0  0  0  0  0  0  0
   59.3270   31.6010   45.9790 C   0  0  0  0  0  0  0  0  0  0  0  0
   58.2900   30.9360   45.3220 C   0  0  0  0  0  0  0  0  0  0  0  0
   57.8860   29.6670   45.7500 C   0  0  0  0  0  0  0  0  0  0  0  0
   56.5920   28.8300   44.8980 S   0  0  0  0  0  0  0  0  0  0  0  0
   55.1680   29.8090   44.9110 N   0  0  0  0  0  0  0  0  0  0  0  0
   56.9930   28.5640   43.4740 O   0  0  0  0  0  0  0  0  0  0  0  0
   56.3110   27.5190   45.5760 O   0  0  0  0  0  0  0  0  0  0  0  0
   58.5220   29.0710   46.8450 C   0  0  0  0  0  0  0  0  0  0  0  0
   59.5640   29.7330   47.5180 C   0  0  0  0  0  0  0  0  0  0  0  0
   60.2200   29.0450   48.6510 C   0  0  0  0  0  0  0  0  0  0  0  0
   60.4920   27.8190   48.5530 O   0  0  0  0  0  0  0  0  0  0  0  0
   60.6210   29.7700   49.8300 N   0  0  0  0  0  0  0  0  0  0  0  0
   61.7870   29.3010   50.5960 C   0  0  0  0  0  0  0  0  0  0  0  0
   62.1040   30.2380   51.7670 C   0  0  0  0  0  0  0  0  0  0  0  0
   61.9930   31.6360   51.3280 N   0  0  0  0  0  0  0  0  0  0  0  0
   63.0850   32.5570   51.5180 C   0  0  0  0  0  0  0  0  0  0  0  0
   62.9710   33.6160   52.4340 C   0  0  0  0  0  0  0  0  0  0  0  0
   64.0330   34.5040   52.6260 C   0  0  0  0  0  0  0  0  0  0  0  0
   65.2230   34.3400   51.9070 C   0  0  0  0  0  0  0  0  0  0  0  0
   66.3160   35.2560   52.1030 C   0  0  0  0  0  0  0  0  0  0  0  0
   67.1930   35.9940   52.2580 N   0  0  0  0  0  0  0  0  0  0  0  0
   65.3490   33.2820   51.0010 C   0  0  0  0  0  0  0  0  0  0  0  0
   64.2870   32.3940   50.8080 C   0  0  0  0  0  0  0  0  0  0  0  0
   60.7740   32.0880   50.6370 C   0  0  0  0  0  0  0  0  0  0  0  0
   59.8400   30.9140   50.3250 C   0  0  0  0  0  0  0  0  0  0  0  0
   63.8497   31.8282   47.4910 H   0  0  0  0  0  0  0  0  0  0  0  0
   62.8314   32.5739   46.2129 H   0  0  0  0  0  0  0  0  0  0  0  0
   64.6083   32.8369   46.2129 H   0  0  0  0  0  0  0  0  0  0  0  0
   64.3410   33.9300   48.3600 H   0  0  0  0  0  0  0  0  0  0  0  0
   62.4786   33.2178   49.3640 H   0  0  0  0  0  0  0  0  0  0  0  0
   61.9572   34.8158   48.7095 H   0  0  0  0  0  0  0  0  0  0  0  0
   61.7840   31.1530   48.2310 H   0  0  0  0  0  0  0  0  0  0  0  0
   59.6365   32.5991   45.6355 H   0  0  0  0  0  0  0  0  0  0  0  0
   57.7893   31.4112   44.4655 H   0  0  0  0  0  0  0  0  0  0  0  0
   54.4840   29.3430   45.5490 H   0  0  0  0  0  0  0  0  0  0  0  0
   58.2032   28.0739   47.1828 H   0  0  0  0  0  0  0  0  0  0  0  0
   61.5752   28.2959   50.9897 H   0  0  0  0  0  0  0  0  0  0  0  0
   62.6571   29.2828   49.9233 H   0  0  0  0  0  0  0  0  0  0  0  0
   61.3921   30.0542   52.5852 H   0  0  0  0  0  0  0  0  0  0  0  0
   63.1287   30.0473   52.1185 H   0  0  0  0  0  0  0  0  0  0  0  0
   62.0394   33.7472   53.0041 H   0  0  0  0  0  0  0  0  0  0  0  0
   63.9338   35.3325   53.3427 H   0  0  0  0  0  0  0  0  0  0  0  0
   66.2854   33.1485   50.4394 H   0  0  0  0  0  0  0  0  0  0  0  0
   64.3926   31.5623   50.0959 H   0  0  0  0  0  0  0  0  0  0  0  0
   60.2437   32.8061   51.2797 H   0  0  0  0  0  0  0  0  0  0  0  0
   61.0687   32.5578   49.6870 H   0  0  0  0  0  0  0  0  0  0  0  0
   59.3042   30.6212   51.2400 H   0  0  0  0  0  0  0  0  0  0  0  0
   59.1186   31.2207   49.5533 H   0  0  0  0  0  0  0  0  0  0  0  0
  1  2  1  0
  2  3  1  0
  3  4  1  0
  4  5  2  0
  4  6  1  0
  6  7  1  0
  7  8  2  0
  8  9  1  0
  9 10  2  0
 10 11  1  0
 11 12  1  0
 11 13  2  0
 11 14  2  0
 10 15  1  0
 15 16  2  0
 16 17  1  0
 17 18  2  0
 17 19  1  0
 19 20  1  0
 20 21  1  0
 21 22  1  0
 22 23  1  0
 23 24  2  0
 24 25  1  0
 25 26  2  0
 26 27  1  0
 27 28  3  0
 26 29  1  0
 29 30  2  0
 22 31  1  0
 31 32  1  0
 16  7  1  0
 32 19  1  0
 30 23  1  0
  1 33  1  0
  1 34  1  0
  1 35  1  0
  2 36  1  0
  3 37  1  0
  3 38  1  0
  6 39  1  0
  8 40  1  0
  9 41  1  0
 12 42  1  0
 15 43  1  0
 20 44  1  0
 20 45  1  0
 21 46  1  0
 21 47  1  0
 24 48  1  0
 25 49  1  0
 29 50  1  0
 30 51  1  0
 31 52  1  0
 31 53  1  0
 32 54  1  0
 32 55  1  0
M  CHG  1  12  -1
M  END
>  <UniqueID>  (27) 
27

>  <SMILES>  (27) 
CNCC(=O)Nc1ccc(S([NH-])(=O)=O)cc1C(=O)N1CCN(c2ccc(C#N)cc2)CC1

>  <Energy>  (27) 
67.92577512360808

>  <Genealogy>  (27) 
CNCC(=O)Nc1ccc(S([NH-])(=O)=O)cc1C(=O)N1CCN(c2ccc(C#N)cc2)CC1 (protonated)
CNCC(=O)Nc1ccc(S([NH-])(=O)=O)cc1C(=O)N1CCN(c2ccc(C#N)cc2)CC1 (3D coordinates assigned)
CNCC(=O)Nc1ccc(S([NH-])(=O)=O)cc1C(=O)N1CCN(c2ccc(C#N)cc2)CC1 (nonaromatic ring conformer: 67.92577512360808 kcal/mol)

>  <smiles>  (27) 
CNCC(=O)Nc1ccc(S(N)(=O)=O)cc1C(=O)N1CCN(c2ccc(C#N)cc2)CC1

>  <score_type>  (27) 
oracle

>  <origin>  (27) 
adg

>  <m_score__min__energy>  (27) 
-10.09

>  <m_primary>  (27) 
energy

$$$$
27:0
     RDKit          3D

 40 42  0  0  0  0  0  0  0  0999 V2000
   55.7710   25.5190   45.6420 C   0  0  0  0  0  0  0  0  0  0  0  0
   55.8310   26.9420   45.6600 O   0  0  0  0  0  0  0  0  0  0  0  0
   56.9990   27.6970   45.8550 C   0  0  0  0  0  0  0  0  0  0  0  0
   58.1370   27.1200   46.4520 C   0  0  0  0  0  0  0  0  0  0  0  0
   59.2920   27.8680   46.6520 C   0  0  0  0  0  0  0  0  0  0  0  0
   59.3430   29.1990   46.2510 C   0  0  0  0  0  0  0  0  0  0  0  0
   58.2360   29.7990   45.6340 C   0  0  0  0  0  0  0  0  0  0  0  0
   58.3450   31.2150   45.2110 C   0  0  0  0  0  0  0  0  0  0  0  0
   58.0220   31.6180   43.9080 C   0  0  0  0  0  0  0  0  0  0  0  0
   58.1780   32.9590   43.5640 C   0  0  0  0  0  0  0  0  0  0  0  0
   58.6460   33.8480   44.4800 N   0  0  0  0  0  0  0  0  0  0  0  0
   58.9730   33.4400   45.7360 C   0  0  0  0  0  0  0  0  0  0  0  0
   59.6250   34.6080   46.9250 S   0  0  0  0  0  0  0  0  0  0  0  0
   61.0810   33.6060   47.2270 C   0  0  0  0  0  0  0  0  0  0  0  0
   61.0310   32.5590   48.1550 C   0  0  0  0  0  0  0  0  0  0  0  0
   62.1640   31.7720   48.3840 C   0  0  0  0  0  0  0  0  0  0  0  0
   63.3490   32.0320   47.6880 C   0  0  0  0  0  0  0  0  0  0  0  0
   63.4020   33.0800   46.7640 C   0  0  0  0  0  0  0  0  0  0  0  0
   62.2690   33.8680   46.5330 C   0  0  0  0  0  0  0  0  0  0  0  0
   58.8240   32.1370   46.0890 N   0  0  0  0  0  0  0  0  0  0  0  0
   57.0420   29.0600   45.4520 C   0  0  0  0  0  0  0  0  0  0  0  0
   55.9360   29.7360   44.8960 O   0  0  0  0  0  0  0  0  0  0  0  0
   55.5310   29.7320   43.5320 C   0  0  0  0  0  0  0  0  0  0  0  0
   55.7550   25.1396   46.6744 H   0  0  0  0  0  0  0  0  0  0  0  0
   54.8585   25.1971   45.1189 H   0  0  0  0  0  0  0  0  0  0  0  0
   56.6532   25.1214   45.1189 H   0  0  0  0  0  0  0  0  0  0  0  0
   58.1116   26.0654   46.7636 H   0  0  0  0  0  0  0  0  0  0  0  0
   60.1686   27.4055   47.1291 H   0  0  0  0  0  0  0  0  0  0  0  0
   60.2585   29.7852   46.4192 H   0  0  0  0  0  0  0  0  0  0  0  0
   57.6525   30.8895   43.1712 H   0  0  0  0  0  0  0  0  0  0  0  0
   57.9221   33.2991   42.5497 H   0  0  0  0  0  0  0  0  0  0  0  0
   58.7670   34.8490   44.2090 H   0  0  0  0  0  0  0  0  0  0  0  0
   60.1000   32.3553   48.7043 H   0  0  0  0  0  0  0  0  0  0  0  0
   62.1233   30.9482   49.1118 H   0  0  0  0  0  0  0  0  0  0  0  0
   64.2395   31.4118   47.8676 H   0  0  0  0  0  0  0  0  0  0  0  0
   64.3348   33.2852   46.2184 H   0  0  0  0  0  0  0  0  0  0  0  0
   62.3114   34.6930   45.8066 H   0  0  0  0  0  0  0  0  0  0  0  0
   54.4325   29.7212   43.4757 H   0  0  0  0  0  0  0  0  0  0  0  0
   55.9148   30.6340   43.0329 H   0  0  0  0  0  0  0  0  0  0  0  0
   55.9326   28.8378   43.0329 H   0  0  0  0  0  0  0  0  0  0  0  0
  1  2  1  0
  2  3  1  0
  3  4  2  0
  4  5  1  0
  5  6  2  0
  6  7  1  0
  7  8  1  0
  8  9  2  0
  9 10  1  0
 10 11  2  0
 11 12  1  0
 12 13  1  0
 13 14  1  0
 14 15  2  0
 15 16  1  0
 16 17  2  0
 17 18  1  0
 18 19  2  0
 12 20  2  0
  7 21  2  0
 21 22  1  0
 22 23  1  0
 21  3  1  0
 20  8  1  0
 19 14  1  0
  1 24  1  0
  1 25  1  0
  1 26  1  0
  4 27  1  0
  5 28  1  0
  6 29  1  0
  9 30  1  0
 10 31  1  0
 11 32  1  0
 15 33  1  0
 16 34  1  0
 17 35  1  0
 18 36  1  0
 19 37  1  0
 23 38  1  0
 23 39  1  0
 23 40  1  0
M  CHG  1  11   1
M  END
>  <UniqueID>  (28) 
28

>  <SMILES>  (28) 
COc1cccc(-c2cc[nH+]c(Sc3ccccc3)n2)c1OC

>  <Energy>  (28) 
45.927898666302035

>  <Genealogy>  (28) 
COc1cccc(-c2cc[nH+]c(Sc3ccccc3)n2)c1OC (protonated)
COc1cccc(-c2cc[nH+]c(Sc3ccccc3)n2)c1OC (3D coordinates assigned)
COc1cccc(-c2cc[nH+]c(Sc3ccccc3)n2)c1OC (optimized conformer: 45.927898666302035 kcal/mol)

>  <smiles>  (28) 
COc1cccc(-c2ccnc(Sc3ccccc3)n2)c1OC

>  <score_type>  (28) 
oracle

>  <origin>  (28) 
adg

>  <m_score__min__energy>  (28) 
-7.3799999999999999

>  <m_primary>  (28) 
energy

$$$$
28:0
     RDKit          3D

 55 58  0  0  0  0  0  0  0  0999 V2000
   57.8030   32.4600   43.3190 C   0  0  0  0  0  0  0  0  0  0  0  0
   58.3840   32.8530   44.6540 C   0  0  0  0  0  0  0  0  0  0  0  0
   58.7120   34.2010   44.8870 C   0  0  0  0  0  0  0  0  0  0  0  0
   59.2700   34.5960   46.1040 C   0  0  0  0  0  0  0  0  0  0  0  0
   59.4840   33.6390   47.1040 C   0  0  0  0  0  0  0  0  0  0  0  0
   60.0250   34.0150   48.4290 C   0  0  0  0  0  0  0  0  0  0  0  0
   60.8390   34.9800   48.5120 O   0  0  0  0  0  0  0  0  0  0  0  0
   59.6740   33.2910   49.6170 N   0  0  0  0  0  0  0  0  0  0  0  0
   59.6760   31.8550   49.7040 C   0  0  0  0  0  0  0  0  0  0  0  0
   58.5240   31.1940   50.1590 C   0  0  0  0  0  0  0  0  0  0  0  0
   58.5440   29.8130   50.3800 C   0  0  0  0  0  0  0  0  0  0  0  0
   59.7040   29.0800   50.1160 C   0  0  0  0  0  0  0  0  0  0  0  0
   60.8490   29.7230   49.6340 C   0  0  0  0  0  0  0  0  0  0  0  0
   60.8410   31.1150   49.4240 C   0  0  0  0  0  0  0  0  0  0  0  0
   62.0080   31.7660   48.9020 N   0  0  0  0  0  0  0  0  0  0  0  0
   62.3180   31.6260   47.4740 C   0  0  0  0  0  0  0  0  0  0  0  0
   63.5270   32.4870   47.1100 C   0  0  0  0  0  0  0  0  0  0  0  0
   63.4300   33.7300   47.7740 O   0  0  0  0  0  0  0  0  0  0  0  0
   63.6920   33.5760   49.1660 C   0  0  0  0  0  0  0  0  0  0  0  0
   63.0000   32.3480   49.8120 C   0  0  0  0  0  0  0  0  0  0  0  0
   59.1560   32.3450   46.8590 N   0  0  0  0  0  0  0  0  0  0  0  0
   58.6010   31.9210   45.6960 C   0  0  0  0  0  0  0  0  0  0  0  0
   58.2380   30.4890   45.6010 C   0  0  0  0  0  0  0  0  0  0  0  0
   57.0300   30.0870   45.0060 C   0  0  0  0  0  0  0  0  0  0  0  0
   56.6380   28.7450   45.0420 C   0  0  0  0  0  0  0  0  0  0  0  0
   57.4380   27.7920   45.6870 C   0  0  0  0  0  0  0  0  0  0  0  0
   56.8890   26.1230   45.8090 S   0  0  0  0  0  0  0  0  0  0  0  0
   55.2120   26.1040   46.2310 N   0  0  0  0  0  0  0  0  0  0  0  0
   57.6740   25.3900   46.8560 O   0  0  0  0  0  0  0  0  0  0  0  0
   57.0860   25.4270   44.4890 O   0  0  0  0  0  0  0  0  0  0  0  0
   58.6350   28.1900   46.2950 C   0  0  0  0  0  0  0  0  0  0  0  0
   59.0310   29.5320   46.2550 C   0  0  0  0  0  0  0  0  0  0  0  0
   56.9013   31.8501   43.4768 H   0  0  0  0  0  0  0  0  0  0  0  0
   57.5387   33.3656   42.7532 H   0  0  0  0  0  0  0  0  0  0  0  0
   58.5452   31.8777   42.7532 H   0  0  0  0  0  0  0  0  0  0  0  0
   58.5271   34.9504   44.1033 H   0  0  0  0  0  0  0  0  0  0  0  0
   59.5390   35.6486   46.2760 H   0  0  0  0  0  0  0  0  0  0  0  0
   57.6017   31.7646   50.3425 H   0  0  0  0  0  0  0  0  0  0  0  0
   57.6466   29.3040   50.7616 H   0  0  0  0  0  0  0  0  0  0  0  0
   59.7168   27.9936   50.2878 H   0  0  0  0  0  0  0  0  0  0  0  0
   61.7568   29.1402   49.4188 H   0  0  0  0  0  0  0  0  0  0  0  0
   62.5424   30.5722   47.2524 H   0  0  0  0  0  0  0  0  0  0  0  0
   61.4506   31.9571   46.8841 H   0  0  0  0  0  0  0  0  0  0  0  0
   64.4498   31.9752   47.4206 H   0  0  0  0  0  0  0  0  0  0  0  0
   63.5499   32.6503   46.0224 H   0  0  0  0  0  0  0  0  0  0  0  0
   64.7784   33.4711   49.3028 H   0  0  0  0  0  0  0  0  0  0  0  0
   63.2832   34.4672   49.6646 H   0  0  0  0  0  0  0  0  0  0  0  0
   63.7606   31.5892   50.0482 H   0  0  0  0  0  0  0  0  0  0  0  0
   62.4863   32.6761   50.7277 H   0  0  0  0  0  0  0  0  0  0  0  0
   56.3899   30.8312   44.5097 H   0  0  0  0  0  0  0  0  0  0  0  0
   55.6977   28.4361   44.5620 H   0  0  0  0  0  0  0  0  0  0  0  0
   55.0610   26.8880   46.9060 H   0  0  0  0  0  0  0  0  0  0  0  0
   55.0410   25.2160   46.7560 H   0  0  0  0  0  0  0  0  0  0  0  0
   59.2653   27.4466   46.8050 H   0  0  0  0  0  0  0  0  0  0  0  0
   59.9698   29.8391   46.7391 H   0  0  0  0  0  0  0  0  0  0  0  0
  1  2  1  0
  2  3  2  0
  3  4  1  0
  4  5  2  0
  5  6  1  0
  6  7  2  0
  6  8  1  0
  8  9  1  0
  9 10  2  0
 10 11  1  0
 11 12  2  0
 12 13  1  0
 13 14  2  0
 14 15  1  0
 15 16  1  0
 16 17  1  0
 17 18  1  0
 18 19  1  0
 19 20  1  0
  5 21  1  0
 21 22  2  0
 22 23  1  0
 23 24  2  0
 24 25  1  0
 25 26  2  0
 26 27  1  0
 27 28  1  0
 27 29  2  0
 27 30  2  0
 26 31  1  0
 31 32  2  0
 22  2  1  0
 32 23  1  0
 14  9  1  0
 20 15  1  0
  1 33  1  0
  1 34  1  0
  1 35  1  0
  3 36  1  0
  4 37  1  0
 10 38  1  0
 11 39  1  0
 12 40  1  0
 13 41  1  0
 16 42  1  0
 16 43  1  0
 17 44  1  0
 17 45  1  0
 19 46  1  0
 19 47  1  0
 20 48  1  0
 20 49  1  0
 24 50  1  0
 25 51  1  0
 28 52  1  0
 28 53  1  0
 31 54  1  0
 32 55  1  0
M  CHG  1   8  -1
M  END
>  <UniqueID>  (29) 
29

>  <SMILES>  (29) 
Cc1ccc(C(=O)[N-]c2ccccc2N2CCOCC2)nc1-c1ccc(S(N)(=O)=O)cc1

>  <Energy>  (29) 
80.31262936306562

>  <Genealogy>  (29) 
Cc1ccc(C(=O)[N-]c2ccccc2N2CCOCC2)nc1-c1ccc(S(N)(=O)=O)cc1 (protonated)
Cc1ccc(C(=O)[N-]c2ccccc2N2CCOCC2)nc1-c1ccc(S(N)(=O)=O)cc1 (3D coordinates assigned)
Cc1ccc(C(=O)[N-]c2ccccc2N2CCOCC2)nc1-c1ccc(S(N)(=O)=O)cc1 (nonaromatic ring conformer: 80.31262936306562 kcal/mol)

>  <smiles>  (29) 
Cc1ccc(C(=O)Nc2ccccc2N2CCOCC2)nc1-c1ccc(S(N)(=O)=O)cc1

>  <score_type>  (29) 
oracle

>  <origin>  (29) 
adg

>  <m_score__min__energy>  (29) 
-11.07

>  <m_primary>  (29) 
energy

$$$$
29:0
     RDKit          3D

 41 43  0  0  0  0  0  0  0  0999 V2000
   56.3260   30.1450   44.8750 O   0  0  0  0  0  0  0  0  0  0  0  0
   57.3900   30.5450   44.4230 C   0  0  0  0  0  0  0  0  0  0  0  0
   57.5960   32.0390   44.3470 C   0  0  0  0  0  0  0  0  0  0  0  0
   57.4150   32.7670   46.0110 S   0  0  0  0  0  0  0  0  0  0  0  0
   58.5760   34.1500   45.7380 C   0  0  0  0  0  0  0  0  0  0  0  0
   59.7270   34.0840   46.7020 C   0  0  0  0  0  0  0  0  0  0  0  0
   59.5090   34.2940   48.0740 C   0  0  0  0  0  0  0  0  0  0  0  0
   60.5740   34.2020   48.9780 C   0  0  0  0  0  0  0  0  0  0  0  0
   61.8630   33.9130   48.5160 C   0  0  0  0  0  0  0  0  0  0  0  0
   62.8940   33.8270   49.3940 F   0  0  0  0  0  0  0  0  0  0  0  0
   62.0890   33.7210   47.1510 C   0  0  0  0  0  0  0  0  0  0  0  0
   61.0270   33.8050   46.2450 C   0  0  0  0  0  0  0  0  0  0  0  0
   58.3820   29.5630   43.9950 N   0  0  1  0  0  0  0  0  0  0  0  0
   59.5950   29.6230   44.8360 C   0  0  0  0  0  0  0  0  0  0  0  0
   59.3230   29.1380   46.2650 C   0  0  0  0  0  0  0  0  0  0  0  0
   58.5970   27.8220   46.2730 C   0  0  0  0  0  0  0  0  0  0  0  0
   58.5680   27.0590   47.4500 C   0  0  0  0  0  0  0  0  0  0  0  0
   57.8460   25.8650   47.5010 C   0  0  0  0  0  0  0  0  0  0  0  0
   57.1390   25.4280   46.3800 C   0  0  0  0  0  0  0  0  0  0  0  0
   57.1470   26.1850   45.2070 C   0  0  0  0  0  0  0  0  0  0  0  0
   57.8630   27.3920   45.1460 C   0  0  0  0  0  0  0  0  0  0  0  0
   57.8870   28.1720   43.8490 C   0  0  0  0  0  0  0  0  0  0  0  0
   58.6047   32.2504   43.9626 H   0  0  0  0  0  0  0  0  0  0  0  0
   56.8457   32.4775   43.6726 H   0  0  0  0  0  0  0  0  0  0  0  0
   58.9640   34.0966   44.7101 H   0  0  0  0  0  0  0  0  0  0  0  0
   58.0383   35.0962   45.8978 H   0  0  0  0  0  0  0  0  0  0  0  0
   58.4988   34.5313   48.4389 H   0  0  0  0  0  0  0  0  0  0  0  0
   60.3974   34.3570   50.0526 H   0  0  0  0  0  0  0  0  0  0  0  0
   63.1043   33.5033   46.7880 H   0  0  0  0  0  0  0  0  0  0  0  0
   61.2094   33.6522   45.1710 H   0  0  0  0  0  0  0  0  0  0  0  0
   58.6740   29.8590   43.0330 H   0  0  0  0  0  0  0  0  0  0  0  0
   60.3717   28.9871   44.3862 H   0  0  0  0  0  0  0  0  0  0  0  0
   59.9230   30.6717   44.8879 H   0  0  0  0  0  0  0  0  0  0  0  0
   60.2820   29.0200   46.7907 H   0  0  0  0  0  0  0  0  0  0  0  0
   58.6894   29.8839   46.7671 H   0  0  0  0  0  0  0  0  0  0  0  0
   59.1176   27.4036   48.3383 H   0  0  0  0  0  0  0  0  0  0  0  0
   57.8345   25.2685   48.4252 H   0  0  0  0  0  0  0  0  0  0  0  0
   56.5742   24.4850   46.4207 H   0  0  0  0  0  0  0  0  0  0  0  0
   56.5896   25.8344   44.3258 H   0  0  0  0  0  0  0  0  0  0  0  0
   58.5407   27.6441   43.1391 H   0  0  0  0  0  0  0  0  0  0  0  0
   56.8473   28.2377   43.4958 H   0  0  0  0  0  0  0  0  0  0  0  0
  1  2  2  0
  2  3  1  0
  3  4  1  0
  4  5  1  0
  5  6  1  0
  6  7  2  0
  7  8  1  0
  8  9  2  0
  9 10  1  0
  9 11  1  0
 11 12  2  0
  2 13  1  0
 13 14  1  0
 14 15  1  0
 15 16  1  0
 16 17  2  0
 17 18  1  0
 18 19  2  0
 19 20  1  0
 20 21  2  0
 21 22  1  0
 12  6  1  0
 22 13  1  0
 21 16  1  0
  3 23  1  0
  3 24  1  0
  5 25  1  0
  5 26  1  0
  7 27  1  0
  8 28  1  0
 11 29  1  0
 12 30  1  0
 13 31  1  6
 14 32  1  0
 14 33  1  0
 15 34  1  0
 15 35  1  0
 17 36  1  0
 18 37  1  0
 19 38  1  0
 20 39  1  0
 22 40  1  0
 22 41  1  0
M  CHG  1  13   1
M  END
>  <UniqueID>  (30) 
30

>  <SMILES>  (30) 
O=C(CSCc1ccc(F)cc1)[N@H+]1CCc2ccccc2C1

>  <Energy>  (30) 
46.64167111973673

>  <Genealogy>  (30) 
O=C(CSCc1ccc(F)cc1)[NH+]1CCc2ccccc2C1 (protonated)
O=C(CSCc1ccc(F)cc1)[N@H+]1CCc2ccccc2C1 (chirality)
O=C(CSCc1ccc(F)cc1)[N@H+]1CCc2ccccc2C1 (3D coordinates assigned)
O=C(CSCc1ccc(F)cc1)[N@H+]1CCc2ccccc2C1 (nonaromatic ring conformer: 46.64167111973673 kcal/mol)

>  <smiles>  (30) 
O=C(CSCc1ccc(F)cc1)N1CCc2ccccc2C1

>  <score_type>  (30) 
oracle

>  <origin>  (30) 
adg

>  <m_score__min__energy>  (30) 
-6.5999999999999996

>  <m_primary>  (30) 
energy

$$$$
30:0
     RDKit          3D

 40 43  0  0  0  0  0  0  0  0999 V2000
   57.3820   29.5310   51.9860 O   0  0  0  0  0  0  0  0  0  0  0  0
   57.0240   30.6930   51.6470 C   0  0  0  0  0  0  0  0  0  0  0  0
   55.6350   31.0550   51.7140 N   0  0  0  0  0  0  0  0  0  0  0  0
   54.6180   30.1500   52.2470 C   0  0  0  0  0  0  0  0  0  0  0  0
   53.2820   30.8400   52.2960 C   0  0  0  0  0  0  0  0  0  0  0  0
   52.5200   30.8420   53.4770 C   0  0  0  0  0  0  0  0  0  0  0  0
   51.2700   31.4670   53.5070 C   0  0  0  0  0  0  0  0  0  0  0  0
   50.7710   32.0910   52.3620 C   0  0  0  0  0  0  0  0  0  0  0  0
   51.5200   32.0900   51.1800 C   0  0  0  0  0  0  0  0  0  0  0  0
   51.0210   32.7080   50.0400 O   0  0  0  0  0  0  0  0  0  0  0  0
   52.7710   31.4650   51.1470 C   0  0  0  0  0  0  0  0  0  0  0  0
   58.0450   31.6530   51.1660 C   0  0  0  0  0  0  0  0  0  0  0  0
   58.9960   32.2200   52.0600 C   0  0  0  0  0  0  0  0  0  0  0  0
   59.9780   33.1130   51.5940 C   0  0  0  0  0  0  0  0  0  0  0  0
   59.9820   33.4270   50.2410 C   0  0  0  0  0  0  0  0  0  0  0  0
   60.8530   34.2140   49.5870 N   0  0  0  0  0  0  0  0  0  0  0  0
   60.5070   34.2070   48.3040 N   0  0  0  0  0  0  0  0  0  0  0  0
   59.4150   33.4210   48.1410 C   0  0  0  0  0  0  0  0  0  0  0  0
   58.7620   33.1920   46.8350 C   0  0  0  0  0  0  0  0  0  0  0  0
   58.1820   34.2480   46.1160 C   0  0  0  0  0  0  0  0  0  0  0  0
   57.5880   33.9960   44.8770 C   0  0  0  0  0  0  0  0  0  0  0  0
   57.5840   32.7360   44.3670 N   0  0  0  0  0  0  0  0  0  0  0  0
   58.1540   31.6970   45.0320 C   0  0  0  0  0  0  0  0  0  0  0  0
   58.7610   31.9070   46.2730 C   0  0  0  0  0  0  0  0  0  0  0  0
   59.0680   32.9020   49.3750 C   0  0  0  0  0  0  0  0  0  0  0  0
   58.0970   31.9900   49.7920 C   0  0  0  0  0  0  0  0  0  0  0  0
   55.3110   31.9620   51.3120 H   0  0  0  0  0  0  0  0  0  0  0  0
   54.5455   29.2635   51.5998 H   0  0  0  0  0  0  0  0  0  0  0  0
   54.9039   29.8492   53.2657 H   0  0  0  0  0  0  0  0  0  0  0  0
   52.9086   30.3500   54.3808 H   0  0  0  0  0  0  0  0  0  0  0  0
   50.6784   31.4672   54.4344 H   0  0  0  0  0  0  0  0  0  0  0  0
   49.7880   32.5839   52.3891 H   0  0  0  0  0  0  0  0  0  0  0  0
   53.3574   31.4631   50.2163 H   0  0  0  0  0  0  0  0  0  0  0  0
   58.9628   31.9570   53.1276 H   0  0  0  0  0  0  0  0  0  0  0  0
   60.7195   33.5490   52.2797 H   0  0  0  0  0  0  0  0  0  0  0  0
   58.1949   35.2688   46.5257 H   0  0  0  0  0  0  0  0  0  0  0  0
   57.1229   34.8182   44.3134 H   0  0  0  0  0  0  0  0  0  0  0  0
   58.1375   30.6887   44.5926 H   0  0  0  0  0  0  0  0  0  0  0  0
   59.2351   31.0696   46.8059 H   0  0  0  0  0  0  0  0  0  0  0  0
   57.3924   31.5459   49.0735 H   0  0  0  0  0  0  0  0  0  0  0  0
  1  2  2  0
  2  3  1  0
  3  4  1  0
  4  5  1  0
  5  6  2  0
  6  7  1  0
  7  8  2  0
  8  9  1  0
  9 10  1  0
  9 11  2  0
  2 12  1  0
 12 13  1  0
 13 14  2  0
 14 15  1  0
 15 16  2  0
 16 17  1  0
 17 18  1  0
 18 19  1  0
 19 20  2  0
 20 21  1  0
 21 22  2  0
 22 23  1  0
 23 24  2  0
 18 25  2  0
 25 26  1  0
 11  5  1  0
 26 12  2  0
 25 15  1  0
 24 19  1  0
  3 27  1  0
  4 28  1  0
  4 29  1  0
  6 30  1  0
  7 31  1  0
  8 32  1  0
 11 33  1  0
 13 34  1  0
 14 35  1  0
 20 36  1  0
 21 37  1  0
 23 38  1  0
 24 39  1  0
 26 40  1  0
M  CHG  2  10  -1  17  -1
M  END
>  <UniqueID>  (31) 
31

>  <SMILES>  (31) 
O=C(NCc1cccc([O-])c1)c1ccc2n[n-]c(-c3ccncc3)c2c1

>  <Energy>  (31) 
88.15441288377016

>  <Genealogy>  (31) 
O=C(NCc1cccc([O-])c1)c1ccc2n[n-]c(-c3ccncc3)c2c1 (protonated)
O=C(NCc1cccc([O-])c1)c1ccc2n[n-]c(-c3ccncc3)c2c1 (3D coordinates assigned)
O=C(NCc1cccc([O-])c1)c1ccc2n[n-]c(-c3ccncc3)c2c1 (optimized conformer: 88.15441288377016 kcal/mol)

>  <smiles>  (31) 
O=C(NCc1cccc(O)c1)c1ccc2n[nH]c(-c3ccncc3)c2c1

>  <score_type>  (31) 
oracle

>  <origin>  (31) 
adg

>  <m_score__min__energy>  (31) 
-14.029999999999999

>  <m_primary>  (31) 
energy

$$$$
31:0
     RDKit          3D

 57 60  0  0  0  0  0  0  0  0999 V2000
   61.1140   26.6630   47.9460 C   0  0  0  0  0  0  0  0  0  0  0  0
   60.7990   26.5440   46.4580 C   0  0  0  0  0  0  0  0  0  0  0  0
   59.6560   27.4430   46.0870 C   0  0  0  0  0  0  0  0  0  0  0  0
   58.4130   27.3260   46.7180 C   0  0  0  0  0  0  0  0  0  0  0  0
   57.3830   28.1140   46.3140 N   0  0  0  0  0  0  0  0  0  0  0  0
   57.5260   29.0140   45.3030 C   0  0  0  0  0  0  0  0  0  0  0  0
   56.3710   29.8320   44.8720 C   0  0  0  0  0  0  0  0  0  0  0  0
   55.2160   29.3300   44.8780 O   0  0  0  0  0  0  0  0  0  0  0  0
   56.5360   31.1730   44.3900 N   0  0  0  0  0  0  0  0  0  0  0  0
   57.3950   32.1750   44.9520 C   0  0  0  0  0  0  0  0  0  0  0  0
   57.8290   33.2290   44.1410 C   0  0  0  0  0  0  0  0  0  0  0  0
   58.6740   34.2140   44.6560 C   0  0  0  0  0  0  0  0  0  0  0  0
   59.0870   34.1590   45.9890 C   0  0  0  0  0  0  0  0  0  0  0  0
   58.6390   33.1250   46.8290 C   0  0  0  0  0  0  0  0  0  0  0  0
   59.0720   33.0630   48.2470 C   0  0  0  0  0  0  0  0  0  0  0  0
   58.3160   32.3470   49.1920 C   0  0  0  0  0  0  0  0  0  0  0  0
   58.7360   32.2730   50.5220 C   0  0  0  0  0  0  0  0  0  0  0  0
   59.9200   32.8940   50.9220 C   0  0  0  0  0  0  0  0  0  0  0  0
   60.6950   33.6000   49.9900 C   0  0  0  0  0  0  0  0  0  0  0  0
   62.0140   34.2070   50.3960 C   0  0  0  0  0  0  0  0  0  0  0  0
   62.9930   33.1720   50.7670 N   0  0  0  0  0  0  0  0  0  0  0  0
   63.6280   32.5420   49.5960 C   0  0  0  0  0  0  0  0  0  0  0  0
   62.6650   31.6090   48.9070 C   0  0  0  0  0  0  0  0  0  0  0  0
   62.4660   31.7000   47.5190 C   0  0  0  0  0  0  0  0  0  0  0  0
   61.5240   30.8820   46.8870 C   0  0  0  0  0  0  0  0  0  0  0  0
   60.7840   29.9610   47.6320 C   0  0  0  0  0  0  0  0  0  0  0  0
   60.9880   29.8520   49.0100 C   0  0  0  0  0  0  0  0  0  0  0  0
   61.9280   30.6680   49.6470 C   0  0  0  0  0  0  0  0  0  0  0  0
   60.2520   33.7050   48.6620 C   0  0  0  0  0  0  0  0  0  0  0  0
   57.7720   32.1490   46.3060 C   0  0  0  0  0  0  0  0  0  0  0  0
   58.7760   29.1360   44.6790 C   0  0  0  0  0  0  0  0  0  0  0  0
   59.8040   28.3420   45.0780 N   0  0  0  0  0  0  0  0  0  0  0  0
   60.2435   26.3341   48.5325 H   0  0  0  0  0  0  0  0  0  0  0  0
   61.9802   26.0301   48.1892 H   0  0  0  0  0  0  0  0  0  0  0  0
   61.3454   27.7105   48.1892 H   0  0  0  0  0  0  0  0  0  0  0  0
   61.6877   26.8301   45.8763 H   0  0  0  0  0  0  0  0  0  0  0  0
   60.5184   25.5036   46.2368 H   0  0  0  0  0  0  0  0  0  0  0  0
   58.2710   26.6023   47.5341 H   0  0  0  0  0  0  0  0  0  0  0  0
   57.5028   33.2821   43.0918 H   0  0  0  0  0  0  0  0  0  0  0  0
   59.0155   35.0360   44.0097 H   0  0  0  0  0  0  0  0  0  0  0  0
   59.7664   34.9289   46.3835 H   0  0  0  0  0  0  0  0  0  0  0  0
   57.3889   31.8425   48.8822 H   0  0  0  0  0  0  0  0  0  0  0  0
   58.1308   31.7227   51.2575 H   0  0  0  0  0  0  0  0  0  0  0  0
   60.2463   32.8297   51.9705 H   0  0  0  0  0  0  0  0  0  0  0  0
   62.4131   34.7909   49.5535 H   0  0  0  0  0  0  0  0  0  0  0  0
   61.8429   34.8499   51.2720 H   0  0  0  0  0  0  0  0  0  0  0  0
   62.4680   32.4240   51.2790 H   0  0  0  0  0  0  0  0  0  0  0  0
   63.9405   33.3250   48.8895 H   0  0  0  0  0  0  0  0  0  0  0  0
   64.5005   31.9639   49.9344 H   0  0  0  0  0  0  0  0  0  0  0  0
   63.0534   32.4174   46.9272 H   0  0  0  0  0  0  0  0  0  0  0  0
   61.3656   30.9641   45.8016 H   0  0  0  0  0  0  0  0  0  0  0  0
   60.0405   29.3214   47.1338 H   0  0  0  0  0  0  0  0  0  0  0  0
   60.4080   29.1229   49.5948 H   0  0  0  0  0  0  0  0  0  0  0  0
   62.0913   30.5733   50.7307 H   0  0  0  0  0  0  0  0  0  0  0  0
   60.8339   34.2954   47.9389 H   0  0  0  0  0  0  0  0  0  0  0  0
   57.3847   31.3567   46.9635 H   0  0  0  0  0  0  0  0  0  0  0  0
   58.9232   29.8692   43.8723 H   0  0  0  0  0  0  0  0  0  0  0  0
  1  2  1  0
  2  3  1  0
  3  4  2  0
  4  5  1  0
  5  6  2  0
  6  7  1  0
  7  8  2  0
  7  9  1  0
  9 10  1  0
 10 11  2  0
 11 12  1  0
 12 13  2  0
 13 14  1  0
 14 15  1  0
 15 16  2  0
 16 17  1  0
 17 18  2  0
 18 19  1  0
 19 20  1  0
 20 21  1  0
 21 22  1  0
 22 23  1  0
 23 24  2  0
 24 25  1  0
 25 26  2  0
 26 27  1  0
 27 28  2  0
 19 29  2  0
 14 30  2  0
  6 31  1  0
 31 32  2  0
 32  3  1  0
 30 10  1  0
 29 15  1  0
 28 23  1  0
  1 33  1  0
  1 34  1  0
  1 35  1  0
  2 36  1  0
  2 37  1  0
  4 38  1  0
 11 39  1  0
 12 40  1  0
 13 41  1  0
 16 42  1  0
 17 43  1  0
 18 44  1  0
 20 45  1  0
 20 46  1  0
 21 47  1  0
 22 48  1  0
 22 49  1  0
 24 50  1  0
 25 51  1  0
 26 52  1  0
 27 53  1  0
 28 54  1  0
 29 55  1  0
 30 56  1  0
 31 57  1  0
M  CHG  1   9  -1
M  END
>  <UniqueID>  (32) 
32

>  <SMILES>  (32) 
CCc1cnc(C(=O)[N-]c2cccc(-c3cccc(CNCc4ccccc4)c3)c2)cn1

>  <Energy>  (32) 
65.15424812252597

>  <Genealogy>  (32) 
CCc1cnc(C(=O)[N-]c2cccc(-c3cccc(CNCc4ccccc4)c3)c2)cn1 (protonated)
CCc1cnc(C(=O)[N-]c2cccc(-c3cccc(CNCc4ccccc4)c3)c2)cn1 (3D coordinates assigned)
CCc1cnc(C(=O)[N-]c2cccc(-c3cccc(CNCc4ccccc4)c3)c2)cn1 (optimized conformer: 65.15424812252597 kcal/mol)

>  <smiles>  (32) 
CCc1cnc(C(=O)Nc2cccc(-c3cccc(CNCc4ccccc4)c3)c2)cn1

>  <score_type>  (32) 
oracle

>  <origin>  (32) 
adg

>  <m_score__min__energy>  (32) 
-11.470000000000001

>  <m_primary>  (32) 
energy

$$$$
32:0
     RDKit          3D

 77 81  0  0  0  0  0  0  0  0999 V2000
   58.5354   33.8597   43.1240 H   0  0  0  0  0  0  0  0  0  0  0  0
   58.5920   33.6940   44.2100 C   0  0  0  0  0  0  0  0  0  0  0  0
   57.9010   32.5070   44.7490 C   0  0  0  0  0  0  0  0  0  0  0  0
   57.0330   32.6290   45.6580 O   0  0  0  0  0  0  0  0  0  0  0  0
   58.2350   31.2080   44.2370 N   0  0  0  0  0  0  0  0  0  0  0  0
   58.8090   31.1590   43.3640 H   0  0  0  0  0  0  0  0  0  0  0  0
   57.6670   29.9900   44.7420 C   0  0  0  0  0  0  0  0  0  0  0  0
   58.4770   28.9830   45.2820 C   0  0  0  0  0  0  0  0  0  0  0  0
   59.5656   29.1251   45.3503 H   0  0  0  0  0  0  0  0  0  0  0  0
   57.8920   27.7950   45.7340 C   0  0  0  0  0  0  0  0  0  0  0  0
   58.6630   26.7520   46.2620 C   0  0  0  0  0  0  0  0  0  0  0  0
   59.7550   26.8607   46.3378 H   0  0  0  0  0  0  0  0  0  0  0  0
   58.0480   25.5730   46.6930 C   0  0  0  0  0  0  0  0  0  0  0  0
   58.6601   24.7540   47.0986 H   0  0  0  0  0  0  0  0  0  0  0  0
   56.6470   25.4270   46.6110 C   0  0  0  0  0  0  0  0  0  0  0  0
   55.9810   24.2590   47.0250 O   0  0  0  0  0  0  0  0  0  0  0  0
   56.4420   23.3420   48.0190 C   0  0  0  0  0  0  0  0  0  0  0  0
   57.5050   23.1218   47.8414 H   0  0  0  0  0  0  0  0  0  0  0  0
   56.3064   23.7987   49.0105 H   0  0  0  0  0  0  0  0  0  0  0  0
   55.6420   22.0350   47.9660 C   0  0  0  0  0  0  0  0  0  0  0  0
   56.1290   21.2851   48.6067 H   0  0  0  0  0  0  0  0  0  0  0  0
   54.6189   22.2268   48.3216 H   0  0  0  0  0  0  0  0  0  0  0  0
   55.5820   21.5270   46.5800 N   0  0  0  0  0  0  0  0  0  0  0  0
   56.8970   21.6520   45.9160 C   0  0  0  0  0  0  0  0  0  0  0  0
   57.2886   22.6668   46.0796 H   0  0  0  0  0  0  0  0  0  0  0  0
   57.5808   20.9042   46.3441 H   0  0  0  0  0  0  0  0  0  0  0  0
   56.7720   21.3980   44.4080 C   0  0  0  0  0  0  0  0  0  0  0  0
   57.7671   21.4990   43.9502 H   0  0  0  0  0  0  0  0  0  0  0  0
   56.3641   20.3853   44.2738 H   0  0  0  0  0  0  0  0  0  0  0  0
   55.8440   22.3480   43.7430 N   0  0  0  0  0  0  0  0  0  0  0  0
   56.5710   23.3110   42.9030 C   0  0  0  0  0  0  0  0  0  0  0  0
   57.1093   24.0241   43.5447 H   0  0  0  0  0  0  0  0  0  0  0  0
   57.2906   22.7736   42.2679 H   0  0  0  0  0  0  0  0  0  0  0  0
   55.8570   23.8559   42.2679 H   0  0  0  0  0  0  0  0  0  0  0  0
   54.9490   23.0600   44.6800 C   0  0  0  0  0  0  0  0  0  0  0  0
   55.4950   23.9042   45.1263 H   0  0  0  0  0  0  0  0  0  0  0  0
   54.0721   23.4178   44.1204 H   0  0  0  0  0  0  0  0  0  0  0  0
   54.4640   22.1280   45.8010 C   0  0  0  0  0  0  0  0  0  0  0  0
   53.8288   22.7064   46.4880 H   0  0  0  0  0  0  0  0  0  0  0  0
   53.9108   21.3032   45.3280 H   0  0  0  0  0  0  0  0  0  0  0  0
   55.8780   26.4740   46.0800 C   0  0  0  0  0  0  0  0  0  0  0  0
   54.4960   26.3410   45.9920 O   0  0  0  0  0  0  0  0  0  0  0  0
   56.4930   27.6500   45.6320 C   0  0  0  0  0  0  0  0  0  0  0  0
   55.7570   28.6240   45.1040 O   0  0  0  0  0  0  0  0  0  0  0  0
   56.2820   29.7610   44.6560 C   0  0  0  0  0  0  0  0  0  0  0  0
   55.5220   30.6360   44.1610 O   0  0  0  0  0  0  0  0  0  0  0  0
   59.2840   34.5890   44.9330 C   0  0  0  0  0  0  0  0  0  0  0  0
   59.4112   35.5929   44.5016 H   0  0  0  0  0  0  0  0  0  0  0  0
   59.8900   34.3420   46.2590 C   0  0  0  0  0  0  0  0  0  0  0  0
   59.2760   34.7840   47.4410 C   0  0  0  0  0  0  0  0  0  0  0  0
   58.2939   35.2772   47.3950 H   0  0  0  0  0  0  0  0  0  0  0  0
   59.9030   34.6020   48.6740 C   0  0  0  0  0  0  0  0  0  0  0  0
   59.3994   34.9296   49.5954 H   0  0  0  0  0  0  0  0  0  0  0  0
   61.1740   34.0030   48.7490 C   0  0  0  0  0  0  0  0  0  0  0  0
   61.8420   33.8350   49.9740 O   0  0  0  0  0  0  0  0  0  0  0  0
   62.9800   34.5860   50.3850 C   0  0  0  0  0  0  0  0  0  0  0  0
   63.0232   34.6145   51.4838 H   0  0  0  0  0  0  0  0  0  0  0  0
   63.8926   34.1122   49.9943 H   0  0  0  0  0  0  0  0  0  0  0  0
   62.9032   35.6114   49.9943 H   0  0  0  0  0  0  0  0  0  0  0  0
   61.8030   33.5700   47.5630 C   0  0  0  0  0  0  0  0  0  0  0  0
   63.1830   32.9570   47.6030 C   0  0  0  0  0  0  0  0  0  0  0  0
   63.6616   33.0854   46.6209 H   0  0  0  0  0  0  0  0  0  0  0  0
   63.7666   33.4619   48.3869 H   0  0  0  0  0  0  0  0  0  0  0  0
   63.1190   31.5640   47.9120 O   0  0  0  0  0  0  0  0  0  0  0  0
   61.9930   30.8920   48.4130 C   0  0  0  0  0  0  0  0  0  0  0  0
   61.7990   30.6460   49.7880 C   0  0  0  0  0  0  0  0  0  0  0  0
   62.5485   30.9878   50.5170 H   0  0  0  0  0  0  0  0  0  0  0  0
   60.6570   29.9690   50.2280 C   0  0  0  0  0  0  0  0  0  0  0  0
   60.5137   29.7747   51.3012 H   0  0  0  0  0  0  0  0  0  0  0  0
   59.6980   29.5390   49.3080 C   0  0  0  0  0  0  0  0  0  0  0  0
   58.7987   29.0103   49.6568 H   0  0  0  0  0  0  0  0  0  0  0  0
   59.8820   29.7810   47.9440 C   0  0  0  0  0  0  0  0  0  0  0  0
   59.1268   29.4425   47.2193 H   0  0  0  0  0  0  0  0  0  0  0  0
   61.0250   30.4530   47.4990 C   0  0  0  0  0  0  0  0  0  0  0  0
   61.1654   30.6384   46.4239 H   0  0  0  0  0  0  0  0  0  0  0  0
   61.1630   33.7620   46.3270 C   0  0  0  0  0  0  0  0  0  0  0  0
   61.6685   33.4526   45.4003 H   0  0  0  0  0  0  0  0  0  0  0  0
  1  2  1  0
  2  3  1  0
  3  4  2  0
  3  5  1  0
  5  6  1  0
  5  7  1  0
  7  8  2  0
  8  9  1  0
  8 10  1  0
 10 11  2  0
 11 12  1  0
 11 13  1  0
 13 14  1  0
 13 15  2  0
 15 16  1  0
 16 17  1  0
 17 18  1  0
 17 19  1  0
 17 20  1  0
 20 21  1  0
 20 22  1  0
 20 23  1  0
 23 24  1  0
 24 25  1  0
 24 26  1  0
 24 27  1  0
 27 28  1  0
 27 29  1  0
 27 30  1  0
 30 31  1  0
 31 32  1  0
 31 33  1  0
 31 34  1  0
 30 35  1  0
 35 36  1  0
 35 37  1  0
 35 38  1  0
 38 39  1  0
 38 40  1  0
 15 41  1  0
 41 42  1  0
 41 43  2  0
 43 44  1  0
 44 45  1  0
 45 46  2  0
  2 47  2  0
 47 48  1  0
 47 49  1  0
 49 50  2  0
 50 51  1  0
 50 52  1  0
 52 53  1  0
 52 54  2  0
 54 55  1  0
 55 56  1  0
 56 57  1  0
 56 58  1  0
 56 59  1  0
 54 60  1  0
 60 61  1  0
 61 62  1  0
 61 63  1  0
 61 64  1  0
 64 65  1  0
 65 66  2  0
 66 67  1  0
 66 68  1  0
 68 69  1  0
 68 70  2  0
 70 71  1  0
 70 72  1  0
 72 73  1  0
 72 74  2  0
 74 75  1  0
 60 76  2  0
 76 77  1  0
 45  7  1  0
 76 49  1  0
 43 10  1  0
 74 65  1  0
 38 23  1  0
M  CHG  1  42  -1
M  END
>  <UniqueID>  (33) 
33

>  <SMILES>  (33) 
COc1ccc(/C=C\C(=O)Nc2cc3ccc(OCCN4CCN(C)CC4)c([O-])c3oc2=O)cc1COc1ccccc1

>  <Energy>  (33) 
109.20840549552668

>  <Genealogy>  (33) 
COc1ccc(C=CC(=O)Nc2cc3ccc(OCCN4CCN(C)CC4)c([O-])c3oc2=O)cc1COc1ccccc1 (protonated)
COc1ccc(/C=C\C(=O)Nc2cc3ccc(OCCN4CCN(C)CC4)c([O-])c3oc2=O)cc1COc1ccccc1 (cis-trans isomerization)
COc1ccc(/C=C\C(=O)Nc2cc3ccc(OCCN4CCN(C)CC4)c([O-])c3oc2=O)cc1COc1ccccc1 (3D coordinates assigned)
COc1ccc(/C=C\C(=O)Nc2cc3ccc(OCCN4CCN(C)CC4)c([O-])c3oc2=O)cc1COc1ccccc1 (nonaromatic ring conformer: 109.20840549552668 kcal/mol)

>  <smiles>  (33) 
COc1ccc(C=CC(=O)Nc2cc3ccc(OCCN4CCN(C)CC4)c(O)c3oc2=O)cc1COc1ccccc1

>  <score_type>  (33) 
oracle

>  <origin>  (33) 
adg

>  <m_score__min__energy>  (33) 
-15.199999999999999

>  <m_primary>  (33) 
energy

$$$$
33:0
     RDKit          3D

 45 47  0  0  0  0  0  0  0  0999 V2000
   64.7830   32.3590   49.6440 C   0  0  0  0  0  0  0  0  0  0  0  0
   64.4340   33.2480   48.5880 O   0  0  0  0  0  0  0  0  0  0  0  0
   63.1160   33.5590   48.2170 C   0  0  0  0  0  0  0  0  0  0  0  0
   62.6790   33.5140   46.8800 C   0  0  0  0  0  0  0  0  0  0  0  0
   61.3560   33.8320   46.5590 C   0  0  0  0  0  0  0  0  0  0  0  0
   60.4520   34.2050   47.5650 C   0  0  0  0  0  0  0  0  0  0  0  0
   59.0190   34.5120   47.2170 C   0  0  0  0  0  0  0  0  0  0  0  0
   58.5560   33.6310   46.1320 N   0  0  0  0  0  0  0  0  0  0  0  0
   58.5030   34.1300   44.8590 C   0  0  0  0  0  0  0  0  0  0  0  0
   58.1130   33.3230   43.7940 C   0  0  0  0  0  0  0  0  0  0  0  0
   57.7680   31.9960   44.0280 C   0  0  0  0  0  0  0  0  0  0  0  0
   57.8090   31.4750   45.3280 C   0  0  0  0  0  0  0  0  0  0  0  0
   57.4360   30.0560   45.5550 C   0  0  0  0  0  0  0  0  0  0  0  0
   56.4200   29.5850   44.9750 O   0  0  0  0  0  0  0  0  0  0  0  0
   58.1750   29.2400   46.4780 N   0  0  0  0  0  0  0  0  0  0  0  0
   58.1510   27.8010   46.4700 C   0  0  0  0  0  0  0  0  0  0  0  0
   56.9480   27.0880   46.3420 C   0  0  0  0  0  0  0  0  0  0  0  0
   56.9530   25.6910   46.3120 C   0  0  0  0  0  0  0  0  0  0  0  0
   58.1610   24.9790   46.3980 C   0  0  0  0  0  0  0  0  0  0  0  0
   58.1620   23.5000   46.3670 C   0  0  0  0  0  0  0  0  0  0  0  0
   57.3820   22.8420   47.1050 O   0  0  0  0  0  0  0  0  0  0  0  0
   59.0260   22.8150   45.5200 O   0  0  0  0  0  0  0  0  0  0  0  0
   59.3660   25.6950   46.5050 C   0  0  0  0  0  0  0  0  0  0  0  0
   59.3600   27.0930   46.5340 C   0  0  0  0  0  0  0  0  0  0  0  0
   58.2320   32.3180   46.3810 C   0  0  0  0  0  0  0  0  0  0  0  0
   58.3350   31.8550   47.5500 O   0  0  0  0  0  0  0  0  0  0  0  0
   60.8870   34.2440   48.8980 C   0  0  0  0  0  0  0  0  0  0  0  0
   62.2090   33.9270   49.2200 C   0  0  0  0  0  0  0  0  0  0  0  0
   62.6130   33.9730   50.5150 F   0  0  0  0  0  0  0  0  0  0  0  0
   64.5918   32.8460   50.6116 H   0  0  0  0  0  0  0  0  0  0  0  0
   64.1774   31.4439   49.5681 H   0  0  0  0  0  0  0  0  0  0  0  0
   65.8494   32.1003   49.5681 H   0  0  0  0  0  0  0  0  0  0  0  0
   63.3817   33.2273   46.0838 H   0  0  0  0  0  0  0  0  0  0  0  0
   61.0219   33.7895   45.5118 H   0  0  0  0  0  0  0  0  0  0  0  0
   58.3887   34.3560   48.1049 H   0  0  0  0  0  0  0  0  0  0  0  0
   58.9483   35.5578   46.8832 H   0  0  0  0  0  0  0  0  0  0  0  0
   58.7716   35.1807   44.6752 H   0  0  0  0  0  0  0  0  0  0  0  0
   58.0779   33.7322   42.7736 H   0  0  0  0  0  0  0  0  0  0  0  0
   57.4619   31.3533   43.1894 H   0  0  0  0  0  0  0  0  0  0  0  0
   58.6730   29.7190   47.2620 H   0  0  0  0  0  0  0  0  0  0  0  0
   55.9955   27.6328   46.2648 H   0  0  0  0  0  0  0  0  0  0  0  0
   56.0030   25.1441   46.2203 H   0  0  0  0  0  0  0  0  0  0  0  0
   60.3205   25.1516   46.5664 H   0  0  0  0  0  0  0  0  0  0  0  0
   60.3106   27.6416   46.6076 H   0  0  0  0  0  0  0  0  0  0  0  0
   60.1829   34.5259   49.6947 H   0  0  0  0  0  0  0  0  0  0  0  0
  1  2  1  0
  2  3  1  0
  3  4  2  0
  4  5  1  0
  5  6  2  0
  6  7  1  0
  7  8  1  0
  8  9  1  0
  9 10  2  0
 10 11  1  0
 11 12  2  0
 12 13  1  0
 13 14  2  0
 13 15  1  0
 15 16  1  0
 16 17  2  0
 17 18  1  0
 18 19  2  0
 19 20  1  0
 20 21  2  0
 20 22  1  0
 19 23  1  0
 23 24  2  0
 12 25  1  0
 25 26  2  0
  6 27  1  0
 27 28  2  0
 28 29  1  0
 28  3  1  0
 25  8  1  0
 24 16  1  0
  1 30  1  0
  1 31  1  0
  1 32  1  0
  4 33  1  0
  5 34  1  0
  7 35  1  0
  7 36  1  0
  9 37  1  0
 10 38  1  0
 11 39  1  0
 15 40  1  0
 17 41  1  0
 18 42  1  0
 23 43  1  0
 24 44  1  0
 27 45  1  0
M  CHG  1  22  -1
M  END
>  <UniqueID>  (34) 
34

>  <SMILES>  (34) 
COc1ccc(Cn2cccc(C(=O)Nc3ccc(C(=O)[O-])cc3)c2=O)cc1F

>  <Energy>  (34) 
57.09864450320688

>  <Genealogy>  (34) 
COc1ccc(Cn2cccc(C(=O)Nc3ccc(C(=O)[O-])cc3)c2=O)cc1F (protonated)
COc1ccc(Cn2cccc(C(=O)Nc3ccc(C(=O)[O-])cc3)c2=O)cc1F (3D coordinates assigned)
COc1ccc(Cn2cccc(C(=O)Nc3ccc(C(=O)[O-])cc3)c2=O)cc1F (optimized conformer: 57.09864450320688 kcal/mol)

>  <smiles>  (34) 
COc1ccc(Cn2cccc(C(=O)Nc3ccc(C(=O)O)cc3)c2=O)cc1F

>  <score_type>  (34) 
oracle

>  <origin>  (34) 
adg

>  <m_score__min__energy>  (34) 
-9.4700000000000006

>  <m_primary>  (34) 
energy

$$$$
34:0
     RDKit          3D

 36 37  0  0  0  0  0  0  0  0999 V2000
   54.6470   29.6270   43.4700 O   0  0  0  0  0  0  0  0  0  0  0  0
   55.6580   29.7160   44.2180 C   0  0  0  0  0  0  0  0  0  0  0  0
   56.5870   30.8800   44.0430 C   0  0  0  0  0  0  0  0  0  0  0  0
   57.1500   31.3260   45.3170 N   0  0  0  0  0  0  0  0  0  0  0  0
   57.4040   32.6880   45.6900 C   0  0  0  0  0  0  0  0  0  0  0  0
   56.6470   33.5910   45.2450 O   0  0  0  0  0  0  0  0  0  0  0  0
   58.5360   33.0670   46.5550 C   0  0  0  0  0  0  0  0  0  0  0  0
   58.5540   32.6470   47.8940 C   0  0  0  0  0  0  0  0  0  0  0  0
   59.6210   32.9940   48.7290 C   0  0  0  0  0  0  0  0  0  0  0  0
   60.6850   33.7500   48.2270 C   0  0  0  0  0  0  0  0  0  0  0  0
   62.1300   34.2430   49.3730 Br  0  0  0  0  0  0  0  0  0  0  0  0
   60.6900   34.1440   46.8860 C   0  0  0  0  0  0  0  0  0  0  0  0
   59.6240   33.7980   46.0470 C   0  0  0  0  0  0  0  0  0  0  0  0
   59.6740   34.1430   44.7350 F   0  0  0  0  0  0  0  0  0  0  0  0
   55.8890   28.7350   45.2370 N   0  0  0  0  0  0  0  0  0  0  0  0
   57.0470   27.8450   45.2620 C   0  0  0  0  0  0  0  0  0  0  0  0
   57.5980   27.6930   46.6840 C   0  0  0  0  0  0  0  0  0  0  0  0
   58.7650   28.6040   46.9350 C   0  0  0  0  0  0  0  0  0  0  0  0
   59.4820   29.1630   45.8670 C   0  0  0  0  0  0  0  0  0  0  0  0
   60.5870   29.9740   46.1340 C   0  0  0  0  0  0  0  0  0  0  0  0
   60.9690   30.2140   47.4560 C   0  0  0  0  0  0  0  0  0  0  0  0
   60.2360   29.6380   48.4940 C   0  0  0  0  0  0  0  0  0  0  0  0
   59.1630   28.8510   48.2140 N   0  0  0  0  0  0  0  0  0  0  0  0
   57.4093   30.5814   43.3761 H   0  0  0  0  0  0  0  0  0  0  0  0
   56.0113   31.7137   43.6147 H   0  0  0  0  0  0  0  0  0  0  0  0
   57.7246   32.0418   48.2888 H   0  0  0  0  0  0  0  0  0  0  0  0
   59.6233   32.6722   49.7809 H   0  0  0  0  0  0  0  0  0  0  0  0
   61.5337   34.7275   46.4888 H   0  0  0  0  0  0  0  0  0  0  0  0
   56.7475   26.8558   44.8855 H   0  0  0  0  0  0  0  0  0  0  0  0
   57.8340   28.2792   44.6278 H   0  0  0  0  0  0  0  0  0  0  0  0
   56.7996   27.9325   47.4018 H   0  0  0  0  0  0  0  0  0  0  0  0
   57.9440   26.6559   46.8054 H   0  0  0  0  0  0  0  0  0  0  0  0
   59.1768   28.9645   44.8290 H   0  0  0  0  0  0  0  0  0  0  0  0
   61.1550   30.4226   45.3056 H   0  0  0  0  0  0  0  0  0  0  0  0
   61.8387   30.8505   47.6764 H   0  0  0  0  0  0  0  0  0  0  0  0
   60.5262   29.8206   49.5392 H   0  0  0  0  0  0  0  0  0  0  0  0
  1  2  2  0
  2  3  1  0
  3  4  1  0
  4  5  1  0
  5  6  2  0
  5  7  1  0
  7  8  2  0
  8  9  1  0
  9 10  2  0
 10 11  1  0
 10 12  1  0
 12 13  2  0
 13 14  1  0
  2 15  1  0
 15 16  1  0
 16 17  1  0
 17 18  1  0
 18 19  2  0
 19 20  1  0
 20 21  2  0
 21 22  1  0
 22 23  2  0
 13  7  1  0
 23 18  1  0
  3 24  1  0
  3 25  1  0
  8 26  1  0
  9 27  1  0
 12 28  1  0
 16 29  1  0
 16 30  1  0
 17 31  1  0
 17 32  1  0
 19 33  1  0
 20 34  1  0
 21 35  1  0
 22 36  1  0
M  CHG  2   4  -1  15  -1
M  END
>  <UniqueID>  (35) 
35

>  <SMILES>  (35) 
O=C(C[N-]C(=O)c1ccc(Br)cc1F)[N-]CCc1ccccn1

>  <Energy>  (35) 
33.881147994526415

>  <Genealogy>  (35) 
O=C(C[N-]C(=O)c1ccc(Br)cc1F)[N-]CCc1ccccn1 (protonated)
O=C(C[N-]C(=O)c1ccc(Br)cc1F)[N-]CCc1ccccn1 (3D coordinates assigned)
O=C(C[N-]C(=O)c1ccc(Br)cc1F)[N-]CCc1ccccn1 (optimized conformer: 33.881147994526415 kcal/mol)

>  <smiles>  (35) 
O=C(CNC(=O)c1ccc(Br)cc1F)NCCc1ccccn1

>  <score_type>  (35) 
oracle

>  <origin>  (35) 
adg

>  <m_score__min__energy>  (35) 
-11.630000000000001

>  <m_primary>  (35) 
energy

$$$$
35:0
     RDKit          3D

 85 89  0  0  0  0  0  0  0  0999 V2000
   60.8720   28.4943   51.6634 H   0  0  0  0  0  0  0  0  0  0  0  0
   61.2390   29.2590   50.9630 C   0  0  0  0  0  0  0  0  0  0  0  0
   62.4440   29.8450   51.1750 N   0  0  0  0  0  0  0  0  0  0  0  0
   62.9350   30.7950   50.3370 C   0  0  0  0  0  0  0  0  0  0  0  0
   64.1970   31.3480   50.5840 C   0  0  0  0  0  0  0  0  0  0  0  0
   64.7851   31.0089   51.4495 H   0  0  0  0  0  0  0  0  0  0  0  0
   64.7110   32.3300   49.7330 C   0  0  0  0  0  0  0  0  0  0  0  0
   66.2810   33.0400   50.0630 Cl  0  0  0  0  0  0  0  0  0  0  0  0
   63.9740   32.7490   48.6220 C   0  0  0  0  0  0  0  0  0  0  0  0
   64.3886   33.5120   47.9468 H   0  0  0  0  0  0  0  0  0  0  0  0
   62.7130   32.2040   48.3640 C   0  0  0  0  0  0  0  0  0  0  0  0
   62.1354   32.5485   47.4935 H   0  0  0  0  0  0  0  0  0  0  0  0
   62.1780   31.2150   49.2140 C   0  0  0  0  0  0  0  0  0  0  0  0
   60.9210   30.6140   48.9680 C   0  0  0  0  0  0  0  0  0  0  0  0
   60.2310   30.9670   47.9130 N   0  0  0  0  0  0  0  0  0  0  0  0
   59.0030   31.7660   47.8720 C   0  0  0  0  0  0  0  0  0  0  0  0
   58.1377   31.0935   47.9667 H   0  0  0  0  0  0  0  0  0  0  0  0
   58.9805   32.3082   46.9152 H   0  0  0  0  0  0  0  0  0  0  0  0
   58.9550   32.8020   49.0090 C   0  0  0  0  0  0  0  0  0  0  0  0
   59.4693   32.3804   49.8852 H   0  0  0  0  0  0  0  0  0  0  0  0
   57.8939   33.0133   49.2074 H   0  0  0  0  0  0  0  0  0  0  0  0
   59.6220   34.1420   48.6520 C   0  0  0  0  0  0  0  0  0  0  0  0
   60.4559   34.3154   49.3481 H   0  0  0  0  0  0  0  0  0  0  0  0
   58.8531   34.9246   48.7310 H   0  0  0  0  0  0  0  0  0  0  0  0
   60.1670   34.1750   47.2170 C   0  0  0  0  0  0  0  0  0  0  0  0
   60.5290   33.1730   46.9434 H   0  0  0  0  0  0  0  0  0  0  0  0
   60.9913   34.9014   47.1644 H   0  0  0  0  0  0  0  0  0  0  0  0
   59.0670   34.5990   46.2390 C   0  0  0  0  0  0  0  0  0  0  0  0
   59.2905   35.6080   45.8622 H   0  0  0  0  0  0  0  0  0  0  0  0
   58.1040   34.5895   46.7706 H   0  0  0  0  0  0  0  0  0  0  0  0
   58.9830   33.6750   45.1090 N   0  0  0  0  0  0  0  0  0  0  0  0
   59.6940   33.7540   44.3510 H   0  0  0  0  0  0  0  0  0  0  0  0
   57.8770   32.7800   44.9230 C   0  0  0  0  0  0  0  0  0  0  0  0
   56.9420   32.7580   45.7630 O   0  0  0  0  0  0  0  0  0  0  0  0
   57.7980   31.9620   43.6550 C   0  0  0  0  0  0  0  0  0  0  0  0
   58.5236   32.3725   42.9374 H   0  0  0  0  0  0  0  0  0  0  0  0
   56.7566   32.0304   43.3073 H   0  0  0  0  0  0  0  0  0  0  0  0
   58.0850   30.5230   43.8260 N   0  0  0  0  0  0  0  0  0  0  0  0
   58.5380   30.1810   45.1860 C   0  0  0  0  0  0  0  0  0  0  0  0
   58.8340   31.1055   45.7034 H   0  0  0  0  0  0  0  0  0  0  0  0
   57.7055   29.6809   45.7026 H   0  0  0  0  0  0  0  0  0  0  0  0
   59.7380   29.2120   45.1760 C   0  0  0  0  0  0  0  0  0  0  0  0
   59.8403   28.7990   44.1616 H   0  0  0  0  0  0  0  0  0  0  0  0
   60.6181   29.7932   45.4883 H   0  0  0  0  0  0  0  0  0  0  0  0
   59.6090   28.0650   46.1430 C   0  0  0  0  0  0  0  0  0  0  0  0
   60.6080   27.6010   46.9920 C   0  0  0  0  0  0  0  0  0  0  0  0
   61.6219   28.0231   47.0548 H   0  0  0  0  0  0  0  0  0  0  0  0
   60.1610   26.5590   47.7300 N   0  0  0  0  0  0  0  0  0  0  0  0
   60.7030   26.0250   48.4450 H   0  0  0  0  0  0  0  0  0  0  0  0
   58.8920   26.3530   47.3490 C   0  0  0  0  0  0  0  0  0  0  0  0
   58.0140   25.3830   47.8330 C   0  0  0  0  0  0  0  0  0  0  0  0
   58.3235   24.6805   48.6209 H   0  0  0  0  0  0  0  0  0  0  0  0
   56.7220   25.3310   47.2830 C   0  0  0  0  0  0  0  0  0  0  0  0
   55.9972   24.5934   47.6580 H   0  0  0  0  0  0  0  0  0  0  0  0
   56.3490   26.2200   46.2520 C   0  0  0  0  0  0  0  0  0  0  0  0
   55.0760   26.1270   45.6920 O   0  0  0  0  0  0  0  0  0  0  0  0
   54.3950   24.8790   45.5940 C   0  0  0  0  0  0  0  0  0  0  0  0
   54.5703   24.2989   46.5120 H   0  0  0  0  0  0  0  0  0  0  0  0
   53.3199   25.0720   45.4640 H   0  0  0  0  0  0  0  0  0  0  0  0
   54.9000   24.0810   44.3920 C   0  0  0  0  0  0  0  0  0  0  0  0
   54.1093   23.3895   44.0654 H   0  0  0  0  0  0  0  0  0  0  0  0
   55.1573   24.7911   43.5922 H   0  0  0  0  0  0  0  0  0  0  0  0
   56.1370   23.2850   44.7310 C   0  0  0  0  0  0  0  0  0  0  0  0
   56.0490   22.1620   45.5730 C   0  0  0  0  0  0  0  0  0  0  0  0
   55.0697   21.8458   45.9615 H   0  0  0  0  0  0  0  0  0  0  0  0
   57.1960   21.4460   45.9190 C   0  0  0  0  0  0  0  0  0  0  0  0
   57.1223   20.5889   46.6046 H   0  0  0  0  0  0  0  0  0  0  0  0
   58.4380   21.8160   45.3960 C   0  0  0  0  0  0  0  0  0  0  0  0
   59.3394   21.2419   45.6567 H   0  0  0  0  0  0  0  0  0  0  0  0
   58.5320   22.9210   44.5380 C   0  0  0  0  0  0  0  0  0  0  0  0
   59.5067   23.2035   44.1137 H   0  0  0  0  0  0  0  0  0  0  0  0
   57.3940   23.6640   44.2200 C   0  0  0  0  0  0  0  0  0  0  0  0
   57.4787   24.5469   43.5694 H   0  0  0  0  0  0  0  0  0  0  0  0
   57.2550   27.1940   45.7870 C   0  0  0  0  0  0  0  0  0  0  0  0
   56.9722   27.8964   44.9891 H   0  0  0  0  0  0  0  0  0  0  0  0
   58.5200   27.2400   46.3690 C   0  0  0  0  0  0  0  0  0  0  0  0
   56.8300   29.4700   43.1820 S   0  0  0  0  0  0  0  0  0  0  0  0
   55.7500   29.2710   44.2070 O   0  0  0  0  0  0  0  0  0  0  0  0
   56.2180   30.1420   41.9880 O   0  0  0  0  0  0  0  0  0  0  0  0
   57.4040   27.8480   42.6810 C   0  0  0  0  0  0  0  0  0  0  0  0
   57.6182   27.2428   43.5742 H   0  0  0  0  0  0  0  0  0  0  0  0
   56.6264   27.3532   42.0806 H   0  0  0  0  0  0  0  0  0  0  0  0
   58.3198   27.9524   42.0806 H   0  0  0  0  0  0  0  0  0  0  0  0
   60.4620   29.6210   49.8610 C   0  0  0  0  0  0  0  0  0  0  0  0
   59.4917   29.1324   49.6882 H   0  0  0  0  0  0  0  0  0  0  0  0
  1  2  1  0
  2  3  1  0
  3  4  1  0
  4  5  2  0
  5  6  1  0
  5  7  1  0
  7  8  1  0
  7  9  2  0
  9 10  1  0
  9 11  1  0
 11 12  1  0
 11 13  2  0
 13 14  1  0
 14 15  2  0
 15 16  1  0
 16 17  1  0
 16 18  1  0
 16 19  1  0
 19 20  1  0
 19 21  1  0
 19 22  1  0
 22 23  1  0
 22 24  1  0
 22 25  1  0
 25 26  1  0
 25 27  1  0
 25 28  1  0
 28 29  1  0
 28 30  1  0
 28 31  1  0
 31 32  1  0
 31 33  1  0
 33 34  2  0
 33 35  1  0
 35 36  1  0
 35 37  1  0
 35 38  1  0
 38 39  1  0
 39 40  1  0
 39 41  1  0
 39 42  1  0
 42 43  1  0
 42 44  1  0
 42 45  1  0
 45 46  2  0
 46 47  1  0
 46 48  1  0
 48 49  1  0
 48 50  1  0
 50 51  2  0
 51 52  1  0
 51 53  1  0
 53 54  1  0
 53 55  2  0
 55 56  1  0
 56 57  1  0
 57 58  1  0
 57 59  1  0
 57 60  1  0
 60 61  1  0
 60 62  1  0
 60 63  1  0
 63 64  2  0
 64 65  1  0
 64 66  1  0
 66 67  1  0
 66 68  2  0
 68 69  1  0
 68 70  1  0
 70 71  1  0
 70 72  2  0
 72 73  1  0
 55 74  1  0
 74 75  1  0
 74 76  2  0
 38 77  1  0
 77 78  2  0
 77 79  2  0
 77 80  1  0
 80 81  1  0
 80 82  1  0
 80 83  1  0
 14 84  1  0
 84 85  1  0
 84  2  2  0
 13  4  1  0
 76 45  1  0
 76 50  1  0
 72 63  1  0
M  CHG  1   3  -1
M  END
>  <UniqueID>  (36) 
36

>  <SMILES>  (36) 
CS(=O)(=O)N(CCc1c[nH]c2ccc(OCCc3ccccc3)cc12)CC(=O)NCCCCC/N=c1\cc[n-]c2cc(Cl)ccc12

>  <Energy>  (36) 
115.9990665666292

>  <Genealogy>  (36) 
CS(=O)(=O)N(CCc1c[nH]c2ccc(OCCc3ccccc3)cc12)CC(=O)NCCCCCN=c1cc[n-]c2cc(Cl)ccc12 (protonated)
CS(=O)(=O)N(CCc1c[nH]c2ccc(OCCc3ccccc3)cc12)CC(=O)NCCCCC/N=c1\cc[n-]c2cc(Cl)ccc12 (cis-trans isomerization)
CS(=O)(=O)N(CCc1c[nH]c2ccc(OCCc3ccccc3)cc12)CC(=O)NCCCCC/N=c1\cc[n-]c2cc(Cl)ccc12 (3D coordinates assigned)
CS(=O)(=O)N(CCc1c[nH]c2ccc(OCCc3ccccc3)cc12)CC(=O)NCCCCC/N=c1\cc[n-]c2cc(Cl)ccc12 (optimized conformer: 115.9990665666292 kcal/mol)

>  <smiles>  (36) 
CS(=O)(=O)N(CCc1c[nH]c2ccc(OCCc3ccccc3)cc12)CC(=O)NCCCCCN=c1cc[nH]c2cc(Cl)ccc12

>  <score_type>  (36) 
oracle

>  <origin>  (36) 
adg

>  <m_score__min__energy>  (36) 
-11.220000000000001

>  <m_primary>  (36) 
energy

$$$$
36:0
     RDKit          3D

 48 51  0  0  0  0  0  0  0  0999 V2000
   55.9110   26.0510   46.2870 O   0  0  0  0  0  0  0  0  0  0  0  0
   56.8900   26.5130   45.6420 C   0  0  0  0  0  0  0  0  0  0  0  0
   57.3870   25.8030   44.4940 N   0  0  0  0  0  0  0  0  0  0  0  0
   57.1740   24.3980   44.2710 C   0  0  0  0  0  0  0  0  0  0  0  0
   57.9340   23.4240   44.9450 C   0  0  0  0  0  0  0  0  0  0  0  0
   57.7230   22.0640   44.6920 C   0  0  0  0  0  0  0  0  0  0  0  0
   56.7630   21.6650   43.7590 C   0  0  0  0  0  0  0  0  0  0  0  0
   56.5620   20.3470   43.5140 F   0  0  0  0  0  0  0  0  0  0  0  0
   56.0180   22.6270   43.0700 C   0  0  0  0  0  0  0  0  0  0  0  0
   56.2280   23.9870   43.3190 C   0  0  0  0  0  0  0  0  0  0  0  0
   57.4830   27.8110   46.0470 C   0  0  0  0  0  0  0  0  0  0  0  0
   58.2290   27.9080   47.2360 C   0  0  0  0  0  0  0  0  0  0  0  0
   58.8020   29.1240   47.6190 C   0  0  0  0  0  0  0  0  0  0  0  0
   58.6260   30.2650   46.8270 C   0  0  0  0  0  0  0  0  0  0  0  0
   57.9020   30.1760   45.6340 C   0  0  0  0  0  0  0  0  0  0  0  0
   57.3360   28.9550   45.2390 C   0  0  0  0  0  0  0  0  0  0  0  0
   57.7650   31.4150   44.8050 C   0  0  0  0  0  0  0  0  0  0  0  0
   57.4860   32.5990   45.7400 C   0  0  0  0  0  0  0  0  0  0  0  0
   58.4950   32.7570   46.8210 N   0  0  0  0  0  0  0  0  0  0  0  0
   59.5210   34.1450   46.5430 S   0  0  0  0  0  0  0  0  0  0  0  0
   59.6460   34.3840   45.0630 O   0  0  0  0  0  0  0  0  0  0  0  0
   58.8930   35.3650   47.1600 O   0  0  0  0  0  0  0  0  0  0  0  0
   61.1270   33.9020   47.2340 C   0  0  0  0  0  0  0  0  0  0  0  0
   61.3150   33.9480   48.6240 C   0  0  0  0  0  0  0  0  0  0  0  0
   62.5850   33.7400   49.1700 C   0  0  0  0  0  0  0  0  0  0  0  0
   63.6750   33.4880   48.3320 C   0  0  0  0  0  0  0  0  0  0  0  0
   63.4960   33.4490   46.9470 C   0  0  0  0  0  0  0  0  0  0  0  0
   62.2280   33.6590   46.3980 C   0  0  0  0  0  0  0  0  0  0  0  0
   59.3150   31.5640   47.1540 C   0  0  0  0  0  0  0  0  0  0  0  0
   57.8280   26.3570   43.7270 H   0  0  0  0  0  0  0  0  0  0  0  0
   58.6974   23.7332   45.6741 H   0  0  0  0  0  0  0  0  0  0  0  0
   58.3143   21.3076   45.2289 H   0  0  0  0  0  0  0  0  0  0  0  0
   55.2657   22.3136   42.3311 H   0  0  0  0  0  0  0  0  0  0  0  0
   55.6479   24.7397   42.7650 H   0  0  0  0  0  0  0  0  0  0  0  0
   58.3625   27.0189   47.8698 H   0  0  0  0  0  0  0  0  0  0  0  0
   59.3927   29.1847   48.5450 H   0  0  0  0  0  0  0  0  0  0  0  0
   56.7753   28.8908   44.2948 H   0  0  0  0  0  0  0  0  0  0  0  0
   58.6967   31.5936   44.2482 H   0  0  0  0  0  0  0  0  0  0  0  0
   56.9391   31.2988   44.0878 H   0  0  0  0  0  0  0  0  0  0  0  0
   57.4732   33.5205   45.1394 H   0  0  0  0  0  0  0  0  0  0  0  0
   56.5198   32.4029   46.2279 H   0  0  0  0  0  0  0  0  0  0  0  0
   60.4599   34.1485   49.2863 H   0  0  0  0  0  0  0  0  0  0  0  0
   62.7267   33.7747   50.2603 H   0  0  0  0  0  0  0  0  0  0  0  0
   64.6732   33.3205   48.7628 H   0  0  0  0  0  0  0  0  0  0  0  0
   64.3543   33.2527   46.2876 H   0  0  0  0  0  0  0  0  0  0  0  0
   62.0924   33.6338   45.3067 H   0  0  0  0  0  0  0  0  0  0  0  0
   60.2549   31.6150   46.5848 H   0  0  0  0  0  0  0  0  0  0  0  0
   59.4905   31.5786   48.2398 H   0  0  0  0  0  0  0  0  0  0  0  0
  1  2  2  0
  2  3  1  0
  3  4  1  0
  4  5  2  0
  5  6  1  0
  6  7  2  0
  7  8  1  0
  7  9  1  0
  9 10  2  0
  2 11  1  0
 11 12  2  0
 12 13  1  0
 13 14  2  0
 14 15  1  0
 15 16  2  0
 15 17  1  0
 17 18  1  0
 18 19  1  0
 19 20  1  0
 20 21  2  0
 20 22  2  0
 20 23  1  0
 23 24  2  0
 24 25  1  0
 25 26  2  0
 26 27  1  0
 27 28  2  0
 19 29  1  0
 10  4  1  0
 16 11  1  0
 28 23  1  0
 29 14  1  0
  3 30  1  0
  5 31  1  0
  6 32  1  0
  9 33  1  0
 10 34  1  0
 12 35  1  0
 13 36  1  0
 16 37  1  0
 17 38  1  0
 17 39  1  0
 18 40  1  0
 18 41  1  0
 24 42  1  0
 25 43  1  0
 26 44  1  0
 27 45  1  0
 28 46  1  0
 29 47  1  0
 29 48  1  0
M  END
>  <UniqueID>  (37) 
37

>  <SMILES>  (37) 
O=C(Nc1ccc(F)cc1)c1ccc2c(c1)CCN(S(=O)(=O)c1ccccc1)C2

>  <Energy>  (37) 
66.57503007874556

>  <Genealogy>  (37) 
O=C(Nc1ccc(F)cc1)c1ccc2c(c1)CCN(S(=O)(=O)c1ccccc1)C2 (3D coordinates assigned)
O=C(Nc1ccc(F)cc1)c1ccc2c(c1)CCN(S(=O)(=O)c1ccccc1)C2 (nonaromatic ring conformer: 66.57503007874556 kcal/mol)

>  <smiles>  (37) 
O=C(Nc1ccc(F)cc1)c1ccc2c(c1)CCN(S(=O)(=O)c1ccccc1)C2

>  <score_type>  (37) 
oracle

>  <origin>  (37) 
adg

>  <m_score__min__energy>  (37) 
-9.6699999999999999

>  <m_primary>  (37) 
energy

$$$$
37:0
     RDKit          3D

 29 30  0  0  0  0  0  0  0  0999 V2000
   60.0357   26.5831   46.2118 H   0  0  0  0  0  0  0  0  0  0  0  0
   58.9380   26.5990   46.1430 C   0  0  0  0  0  0  0  0  0  0  0  0
   58.3010   27.7160   45.7030 N   0  0  0  0  0  0  0  0  0  0  0  0
   56.9470   27.7930   45.5920 C   0  0  0  0  0  0  0  0  0  0  0  0
   56.4380   28.9100   45.1490 N   0  0  0  0  0  0  0  0  0  0  0  0
   57.0190   30.2190   45.1770 C   0  0  0  0  0  0  0  0  0  0  0  0
   56.5050   31.1310   44.4760 O   0  0  0  0  0  0  0  0  0  0  0  0
   58.1360   30.4950   46.0390 N   0  0  0  0  0  0  0  0  0  0  0  0
   58.5830   29.6870   46.5280 H   0  0  0  0  0  0  0  0  0  0  0  0
   58.7570   31.7850   46.1690 C   0  0  0  0  0  0  0  0  0  0  0  0
   58.0250   32.9330   45.8410 C   0  0  0  0  0  0  0  0  0  0  0  0
   56.9786   32.8393   45.5151 H   0  0  0  0  0  0  0  0  0  0  0  0
   58.6150   34.1960   45.9250 C   0  0  0  0  0  0  0  0  0  0  0  0
   58.0305   35.0927   45.6717 H   0  0  0  0  0  0  0  0  0  0  0  0
   59.9460   34.3230   46.3300 C   0  0  0  0  0  0  0  0  0  0  0  0
   60.4076   35.3198   46.3869 H   0  0  0  0  0  0  0  0  0  0  0  0
   60.6980   33.1850   46.6650 C   0  0  0  0  0  0  0  0  0  0  0  0
   62.1550   33.3130   47.0350 C   0  0  0  0  0  0  0  0  0  0  0  0
   62.8750   33.8750   45.9960 F   0  0  0  0  0  0  0  0  0  0  0  0
   62.7000   32.0710   47.3160 F   0  0  0  0  0  0  0  0  0  0  0  0
   62.2710   34.1180   48.1530 F   0  0  0  0  0  0  0  0  0  0  0  0
   60.1040   31.9140   46.5520 C   0  0  0  0  0  0  0  0  0  0  0  0
   60.6987   31.0135   46.7652 H   0  0  0  0  0  0  0  0  0  0  0  0
   56.1650   26.6770   45.9930 C   0  0  0  0  0  0  0  0  0  0  0  0
   54.7760   26.7080   46.0100 O   0  0  0  0  0  0  0  0  0  0  0  0
   56.8110   25.5180   46.4330 C   0  0  0  0  0  0  0  0  0  0  0  0
   56.2190   24.6371   46.7220 H   0  0  0  0  0  0  0  0  0  0  0  0
   58.2010   25.4740   46.5070 C   0  0  0  0  0  0  0  0  0  0  0  0
   58.7112   24.5615   46.8489 H   0  0  0  0  0  0  0  0  0  0  0  0
  1  2  1  0
  2  3  1  0
  3  4  1  0
  4  5  2  0
  5  6  1  0
  6  7  2  0
  6  8  1  0
  8  9  1  0
  8 10  1  0
 10 11  2  0
 11 12  1  0
 11 13  1  0
 13 14  1  0
 13 15  2  0
 15 16  1  0
 15 17  1  0
 17 18  1  0
 18 19  1  0
 18 20  1  0
 18 21  1  0
 17 22  2  0
 22 23  1  0
  4 24  1  0
 24 25  1  0
 24 26  2  0
 26 27  1  0
 26 28  1  0
 28 29  1  0
 28  2  2  0
 22 10  1  0
M  CHG  2   3  -1  25  -1
M  END
>  <UniqueID>  (38) 
38

>  <SMILES>  (38) 
O=C(/N=c1/[n-]cccc1[O-])Nc1cccc(C(F)(F)F)c1

>  <Energy>  (38) 
46.81649448981908

>  <Genealogy>  (38) 
O=C(N=c1[n-]cccc1[O-])Nc1cccc(C(F)(F)F)c1 (protonated)
O=C(/N=c1/[n-]cccc1[O-])Nc1cccc(C(F)(F)F)c1 (cis-trans isomerization)
O=C(/N=c1/[n-]cccc1[O-])Nc1cccc(C(F)(F)F)c1 (3D coordinates assigned)
O=C(/N=c1/[n-]cccc1[O-])Nc1cccc(C(F)(F)F)c1 (optimized conformer: 46.81649448981908 kcal/mol)

>  <smiles>  (38) 
O=C(N=c1[nH]cccc1O)Nc1cccc(C(F)(F)F)c1

>  <score_type>  (38) 
oracle

>  <origin>  (38) 
adg

>  <m_score__min__energy>  (38) 
-12.029999999999999

>  <m_primary>  (38) 
energy

$$$$
38:0
     RDKit          3D

 57 59  0  0  0  0  0  0  0  0999 V2000
   56.6072   32.4059   52.4198 H   0  0  0  0  0  0  0  0  0  0  0  0
   57.4540   31.8570   51.9820 C   0  0  0  0  0  0  0  0  0  0  0  0
   57.6100   30.5640   52.3120 C   0  0  0  0  0  0  0  0  0  0  0  0
   58.8680   29.8780   52.1340 C   0  0  0  0  0  0  0  0  0  0  0  0
   59.8780   29.3290   51.9940 N   0  0  0  0  0  0  0  0  0  0  0  0
   56.4400   29.7720   52.7480 C   0  0  0  0  0  0  0  0  0  0  0  0
   56.3910   28.5430   52.4800 O   0  0  0  0  0  0  0  0  0  0  0  0
   55.3590   30.3710   53.4810 N   0  0  0  0  0  0  0  0  0  0  0  0
   53.9650   30.2350   53.1570 C   0  0  0  0  0  0  0  0  0  0  0  0
   53.2400   29.0800   53.5040 C   0  0  0  0  0  0  0  0  0  0  0  0
   53.7308   28.2742   54.0696 H   0  0  0  0  0  0  0  0  0  0  0  0
   51.9000   28.9530   53.1330 C   0  0  0  0  0  0  0  0  0  0  0  0
   51.3416   28.0435   53.3996 H   0  0  0  0  0  0  0  0  0  0  0  0
   51.2650   29.9770   52.4240 C   0  0  0  0  0  0  0  0  0  0  0  0
   50.2134   29.8630   52.1220 H   0  0  0  0  0  0  0  0  0  0  0  0
   51.9640   31.1520   52.0950 C   0  0  0  0  0  0  0  0  0  0  0  0
   51.2890   32.2350   51.3450 C   0  0  0  0  0  0  0  0  0  0  0  0
   51.2980   32.2430   50.0860 O   0  0  0  0  0  0  0  0  0  0  0  0
   50.6300   33.2570   52.0220 O   0  0  0  0  0  0  0  0  0  0  0  0
   53.3150   31.2750   52.4780 C   0  0  0  0  0  0  0  0  0  0  0  0
   53.8654   32.1975   52.2414 H   0  0  0  0  0  0  0  0  0  0  0  0
   58.3520   32.5800   51.0680 C   0  0  0  0  0  0  0  0  0  0  0  0
   58.2440   32.5020   49.6980 C   0  0  0  0  0  0  0  0  0  0  0  0
   57.4968   31.9320   49.1264 H   0  0  0  0  0  0  0  0  0  0  0  0
   59.2620   33.2830   49.1840 C   0  0  0  0  0  0  0  0  0  0  0  0
   59.5520   33.5150   47.7550 C   0  0  0  0  0  0  0  0  0  0  0  0
   60.3200   34.4600   47.4280 O   0  0  0  0  0  0  0  0  0  0  0  0
   58.9390   32.6790   46.7000 C   0  0  0  0  0  0  0  0  0  0  0  0
   59.1500   31.2930   46.6660 C   0  0  0  0  0  0  0  0  0  0  0  0
   59.8117   30.8254   47.4100 H   0  0  0  0  0  0  0  0  0  0  0  0
   58.5300   30.5000   45.6990 C   0  0  0  0  0  0  0  0  0  0  0  0
   58.7016   29.4135   45.6973 H   0  0  0  0  0  0  0  0  0  0  0  0
   57.6840   31.0740   44.7210 C   0  0  0  0  0  0  0  0  0  0  0  0
   56.9530   30.2330   43.6540 C   0  0  0  0  0  0  0  0  0  0  0  0
   57.6320   28.8490   43.5410 C   0  0  0  0  0  0  0  0  0  0  0  0
   57.8265   28.4526   44.5485 H   0  0  0  0  0  0  0  0  0  0  0  0
   56.9700   28.1591   42.9970 H   0  0  0  0  0  0  0  0  0  0  0  0
   58.5827   28.9503   42.9970 H   0  0  0  0  0  0  0  0  0  0  0  0
   56.9770   30.8830   42.2490 C   0  0  0  0  0  0  0  0  0  0  0  0
   57.0174   31.9774   42.3520 H   0  0  0  0  0  0  0  0  0  0  0  0
   57.8629   30.5335   41.6984 H   0  0  0  0  0  0  0  0  0  0  0  0
   56.0678   30.5998   41.6984 H   0  0  0  0  0  0  0  0  0  0  0  0
   55.4740   30.0500   44.0620 C   0  0  0  0  0  0  0  0  0  0  0  0
   55.3948   30.0402   45.1591 H   0  0  0  0  0  0  0  0  0  0  0  0
   54.8768   30.8811   43.6587 H   0  0  0  0  0  0  0  0  0  0  0  0
   55.0974   29.0984   43.6587 H   0  0  0  0  0  0  0  0  0  0  0  0
   57.5090   32.4770   44.7480 C   0  0  0  0  0  0  0  0  0  0  0  0
   56.8704   32.9560   43.9911 H   0  0  0  0  0  0  0  0  0  0  0  0
   58.1320   33.2660   45.7180 C   0  0  0  0  0  0  0  0  0  0  0  0
   57.9875   34.3564   45.7102 H   0  0  0  0  0  0  0  0  0  0  0  0
   59.9260   33.8400   50.2640 C   0  0  0  0  0  0  0  0  0  0  0  0
   60.7833   34.5259   50.1959 H   0  0  0  0  0  0  0  0  0  0  0  0
   59.3610   33.4130   51.4130 N   0  0  0  0  0  0  0  0  0  0  0  0
   59.7710   33.8240   52.7540 C   0  0  0  0  0  0  0  0  0  0  0  0
   59.2017   33.2533   53.5025 H   0  0  0  0  0  0  0  0  0  0  0  0
   60.8458   33.6297   52.8845 H   0  0  0  0  0  0  0  0  0  0  0  0
   59.5741   34.8983   52.8845 H   0  0  0  0  0  0  0  0  0  0  0  0
  1  2  1  0
  2  3  2  0
  3  4  1  0
  4  5  3  0
  3  6  1  0
  6  7  2  0
  6  8  1  0
  8  9  1  0
  9 10  2  0
 10 11  1  0
 10 12  1  0
 12 13  1  0
 12 14  2  0
 14 15  1  0
 14 16  1  0
 16 17  1  0
 17 18  2  0
 17 19  1  0
 16 20  2  0
 20 21  1  0
  2 22  1  0
 22 23  2  0
 23 24  1  0
 23 25  1  0
 25 26  1  0
 26 27  2  0
 26 28  1  0
 28 29  2  0
 29 30  1  0
 29 31  1  0
 31 32  1  0
 31 33  2  0
 33 34  1  0
 34 35  1  0
 35 36  1  0
 35 37  1  0
 35 38  1  0
 34 39  1  0
 39 40  1  0
 39 41  1  0
 39 42  1  0
 34 43  1  0
 43 44  1  0
 43 45  1  0
 43 46  1  0
 33 47  1  0
 47 48  1  0
 47 49  2  0
 49 50  1  0
 25 51  2  0
 51 52  1  0
 51 53  1  0
 53 54  1  0
 54 55  1  0
 54 56  1  0
 54 57  1  0
 20  9  1  0
 53 22  1  0
 49 28  1  0
M  CHG  2   8  -1  19  -1
M  END
>  <UniqueID>  (39) 
39

>  <SMILES>  (39) 
Cn1cc(C(=O)c2ccc(C(C)(C)C)cc2)cc1/C=C(\C#N)C(=O)[N-]c1cccc(C(=O)[O-])c1

>  <Energy>  (39) 
101.77664248538765

>  <Genealogy>  (39) 
Cn1cc(C(=O)c2ccc(C(C)(C)C)cc2)cc1C=C(C#N)C(=O)[N-]c1cccc(C(=O)[O-])c1 (protonated)
Cn1cc(C(=O)c2ccc(C(C)(C)C)cc2)cc1/C=C(\C#N)C(=O)[N-]c1cccc(C(=O)[O-])c1 (cis-trans isomerization)
Cn1cc(C(=O)c2ccc(C(C)(C)C)cc2)cc1/C=C(\C#N)C(=O)[N-]c1cccc(C(=O)[O-])c1 (3D coordinates assigned)
Cn1cc(C(=O)c2ccc(C(C)(C)C)cc2)cc1/C=C(\C#N)C(=O)[N-]c1cccc(C(=O)[O-])c1 (optimized conformer: 101.77664248538765 kcal/mol)

>  <smiles>  (39) 
Cn1cc(C(=O)c2ccc(C(C)(C)C)cc2)cc1C=C(C#N)C(=O)Nc1cccc(C(=O)O)c1

>  <score_type>  (39) 
oracle

>  <origin>  (39) 
adg

>  <m_score__min__energy>  (39) 
-14.5

>  <m_primary>  (39) 
energy

$$$$
39:0
     RDKit          3D

 53 55  0  0  0  0  0  0  0  0999 V2000
   62.3210   33.4100   46.9140 C   0  0  0  0  0  0  0  0  0  0  0  0
   61.7260   33.2270   48.1950 O   0  0  0  0  0  0  0  0  0  0  0  0
   60.9110   32.1370   48.5420 C   0  0  0  0  0  0  0  0  0  0  0  0
   61.2350   30.8120   48.1870 C   0  0  0  0  0  0  0  0  0  0  0  0
   60.3890   29.7510   48.5490 C   0  0  0  0  0  0  0  0  0  0  0  0
   60.7030   28.3410   48.1260 C   0  0  0  0  0  0  0  0  0  0  0  0
   59.9170   27.3730   48.9220 N   0  0  0  0  0  0  0  0  0  0  0  0
   60.7640   26.7720   49.9650 C   0  0  0  0  0  0  0  0  0  0  0  0
   59.2920   26.3230   48.0770 C   0  0  0  0  0  0  0  0  0  0  0  0
   59.7460   26.4700   46.6210 C   0  0  0  0  0  0  0  0  0  0  0  0
   59.0040   27.5800   45.9240 C   0  0  0  0  0  0  0  0  0  0  0  0
   59.7070   28.5710   45.2230 C   0  0  0  0  0  0  0  0  0  0  0  0
   59.0190   29.5790   44.5430 C   0  0  0  0  0  0  0  0  0  0  0  0
   57.6130   29.6160   44.5620 C   0  0  0  0  0  0  0  0  0  0  0  0
   56.8740   30.6240   43.8560 N   0  0  0  0  0  0  0  0  0  0  0  0
   57.3450   31.9280   43.4860 C   0  0  0  0  0  0  0  0  0  0  0  0
   57.3570   32.2750   42.2730 O   0  0  0  0  0  0  0  0  0  0  0  0
   57.8710   32.8480   44.5220 C   0  0  0  0  0  0  0  0  0  0  0  0
   58.8730   33.7850   44.2030 C   0  0  0  0  0  0  0  0  0  0  0  0
   59.3700   34.6510   45.1820 C   0  0  0  0  0  0  0  0  0  0  0  0
   58.8720   34.5950   46.4860 C   0  0  0  0  0  0  0  0  0  0  0  0
   59.3550   35.4370   47.4330 F   0  0  0  0  0  0  0  0  0  0  0  0
   57.8780   33.6700   46.8150 C   0  0  0  0  0  0  0  0  0  0  0  0
   57.3790   32.8000   45.8400 C   0  0  0  0  0  0  0  0  0  0  0  0
   56.9110   28.6050   45.2330 C   0  0  0  0  0  0  0  0  0  0  0  0
   55.5190   28.6010   45.2310 O   0  0  0  0  0  0  0  0  0  0  0  0
   57.6000   27.5970   45.9140 C   0  0  0  0  0  0  0  0  0  0  0  0
   59.2150   30.0200   49.2670 C   0  0  0  0  0  0  0  0  0  0  0  0
   58.8920   31.3300   49.6220 C   0  0  0  0  0  0  0  0  0  0  0  0
   59.7350   32.3850   49.2630 C   0  0  0  0  0  0  0  0  0  0  0  0
   59.4000   33.6850   49.6220 O   0  0  0  0  0  0  0  0  0  0  0  0
   63.3657   33.7313   47.0375 H   0  0  0  0  0  0  0  0  0  0  0  0
   62.2924   32.4615   46.3576 H   0  0  0  0  0  0  0  0  0  0  0  0
   61.7644   34.1785   46.3576 H   0  0  0  0  0  0  0  0  0  0  0  0
   62.1567   30.6075   47.6226 H   0  0  0  0  0  0  0  0  0  0  0  0
   60.4556   28.2191   47.0611 H   0  0  0  0  0  0  0  0  0  0  0  0
   61.7737   28.1505   48.2913 H   0  0  0  0  0  0  0  0  0  0  0  0
   60.3757   27.0476   50.9566 H   0  0  0  0  0  0  0  0  0  0  0  0
   60.7549   25.6772   49.8589 H   0  0  0  0  0  0  0  0  0  0  0  0
   61.7944   27.1421   49.8589 H   0  0  0  0  0  0  0  0  0  0  0  0
   59.5889   25.3321   48.4511 H   0  0  0  0  0  0  0  0  0  0  0  0
   58.1983   26.4317   48.1228 H   0  0  0  0  0  0  0  0  0  0  0  0
   60.8231   26.6927   46.6026 H   0  0  0  0  0  0  0  0  0  0  0  0
   59.5335   25.5276   46.0950 H   0  0  0  0  0  0  0  0  0  0  0  0
   60.8068   28.5544   45.2086 H   0  0  0  0  0  0  0  0  0  0  0  0
   59.5794   30.3473   43.9902 H   0  0  0  0  0  0  0  0  0  0  0  0
   59.2671   33.8359   43.1773 H   0  0  0  0  0  0  0  0  0  0  0  0
   60.1546   35.3778   44.9248 H   0  0  0  0  0  0  0  0  0  0  0  0
   57.4872   33.6258   47.8423 H   0  0  0  0  0  0  0  0  0  0  0  0
   56.5968   32.0734   46.1050 H   0  0  0  0  0  0  0  0  0  0  0  0
   57.0394   26.8133   46.4446 H   0  0  0  0  0  0  0  0  0  0  0  0
   58.5458   29.1946   49.5516 H   0  0  0  0  0  0  0  0  0  0  0  0
   57.9701   31.5331   50.1867 H   0  0  0  0  0  0  0  0  0  0  0  0
  1  2  1  0
  2  3  1  0
  3  4  2  0
  4  5  1  0
  5  6  1  0
  6  7  1  0
  7  8  1  0
  7  9  1  0
  9 10  1  0
 10 11  1  0
 11 12  2  0
 12 13  1  0
 13 14  2  0
 14 15  1  0
 15 16  1  0
 16 17  2  0
 16 18  1  0
 18 19  2  0
 19 20  1  0
 20 21  2  0
 21 22  1  0
 21 23  1  0
 23 24  2  0
 14 25  1  0
 25 26  1  0
 25 27  2  0
  5 28  2  0
 28 29  1  0
 29 30  2  0
 30 31  1  0
 30  3  1  0
 27 11  1  0
 24 18  1  0
  1 32  1  0
  1 33  1  0
  1 34  1  0
  4 35  1  0
  6 36  1  0
  6 37  1  0
  8 38  1  0
  8 39  1  0
  8 40  1  0
  9 41  1  0
  9 42  1  0
 10 43  1  0
 10 44  1  0
 12 45  1  0
 13 46  1  0
 19 47  1  0
 20 48  1  0
 23 49  1  0
 24 50  1  0
 27 51  1  0
 28 52  1  0
 29 53  1  0
M  CHG  3  15  -1  26  -1  31  -1
M  END
>  <UniqueID>  (40) 
40

>  <SMILES>  (40) 
COc1cc(CN(C)CCc2ccc([N-]C(=O)c3ccc(F)cc3)c([O-])c2)ccc1[O-]

>  <Energy>  (40) 
57.816140307130205

>  <Genealogy>  (40) 
COc1cc(CN(C)CCc2ccc([N-]C(=O)c3ccc(F)cc3)c([O-])c2)ccc1[O-] (protonated)
COc1cc(CN(C)CCc2ccc([N-]C(=O)c3ccc(F)cc3)c([O-])c2)ccc1[O-] (3D coordinates assigned)
COc1cc(CN(C)CCc2ccc([N-]C(=O)c3ccc(F)cc3)c([O-])c2)ccc1[O-] (optimized conformer: 57.816140307130205 kcal/mol)

>  <smiles>  (40) 
COc1cc(CN(C)CCc2ccc(NC(=O)c3ccc(F)cc3)c(O)c2)ccc1O

>  <score_type>  (40) 
oracle

>  <origin>  (40) 
adg

>  <m_score__min__energy>  (40) 
-14.69

>  <m_primary>  (40) 
energy

$$$$
40:0
     RDKit          3D

 31 32  0  0  0  0  0  0  0  0999 V2000
   57.4946   27.1173   47.4179 H   0  0  0  0  0  0  0  0  0  0  0  0
   57.1530   27.0580   46.3740 C   0  0  0  0  0  0  0  0  0  0  0  0
   57.1300   28.1570   45.6740 N   0  0  0  0  0  0  0  0  0  0  0  0
   57.7500   28.3980   44.3990 C   0  0  0  0  0  0  0  0  0  0  0  0
   58.7490   27.2780   43.7300 S   0  0  0  0  0  0  0  0  0  0  0  0
   57.2970   29.4880   43.5850 N   0  0  0  0  0  0  0  0  0  0  0  0
   57.6960   29.6090   42.6270 H   0  0  0  0  0  0  0  0  0  0  0  0
   56.3490   30.4850   44.0720 C   0  0  0  0  0  0  0  0  0  0  0  0
   55.6197   30.7104   43.2800 H   0  0  0  0  0  0  0  0  0  0  0  0
   55.8310   30.0861   44.9566 H   0  0  0  0  0  0  0  0  0  0  0  0
   57.0690   31.7390   44.4520 C   0  0  0  0  0  0  0  0  0  0  0  0
   56.9710   32.3140   45.6290 O   0  0  0  0  0  0  0  0  0  0  0  0
   57.7350   33.3820   45.6370 C   0  0  0  0  0  0  0  0  0  0  0  0
   57.8569   34.0674   46.4887 H   0  0  0  0  0  0  0  0  0  0  0  0
   58.3620   33.5140   44.4140 C   0  0  0  0  0  0  0  0  0  0  0  0
   59.0628   34.3065   44.1128 H   0  0  0  0  0  0  0  0  0  0  0  0
   57.9330   32.4530   43.6470 C   0  0  0  0  0  0  0  0  0  0  0  0
   58.2192   32.2231   42.6101 H   0  0  0  0  0  0  0  0  0  0  0  0
   56.7470   25.7340   45.8490 C   0  0  0  0  0  0  0  0  0  0  0  0
   55.3980   25.4130   45.6480 C   0  0  0  0  0  0  0  0  0  0  0  0
   54.3960   26.3340   45.9290 O   0  0  0  0  0  0  0  0  0  0  0  0
   55.0620   24.1950   45.1630 N   0  0  0  0  0  0  0  0  0  0  0  0
   56.0050   23.2750   44.8360 C   0  0  0  0  0  0  0  0  0  0  0  0
   55.6320   22.1480   44.4100 O   0  0  0  0  0  0  0  0  0  0  0  0
   57.3380   23.5730   44.9630 N   0  0  0  0  0  0  0  0  0  0  0  0
   58.3560   22.5660   44.6210 C   0  0  0  0  0  0  0  0  0  0  0  0
   58.7808   22.1458   45.5445 H   0  0  0  0  0  0  0  0  0  0  0  0
   57.8923   21.7614   44.0315 H   0  0  0  0  0  0  0  0  0  0  0  0
   59.1555   23.0384   44.0315 H   0  0  0  0  0  0  0  0  0  0  0  0
   57.7150   24.7870   45.4820 C   0  0  0  0  0  0  0  0  0  0  0  0
   58.9390   25.0570   45.6440 O   0  0  0  0  0  0  0  0  0  0  0  0
  1  2  1  0
  2  3  2  0
  3  4  1  0
  4  5  2  0
  4  6  1  0
  6  7  1  0
  6  8  1  0
  8  9  1  0
  8 10  1  0
  8 11  1  0
 11 12  1  0
 12 13  1  0
 13 14  1  0
 13 15  2  0
 15 16  1  0
 15 17  1  0
 17 18  1  0
  2 19  1  0
 19 20  2  0
 20 21  1  0
 20 22  1  0
 22 23  1  0
 23 24  2  0
 23 25  1  0
 25 26  1  0
 26 27  1  0
 26 28  1  0
 26 29  1  0
 25 30  1  0
 30 31  2  0
 17 11  2  0
 30 19  1  0
M  CHG  2  21  -1  22  -1
M  END
>  <UniqueID>  (41) 
41

>  <SMILES>  (41) 
Cn1c(=O)[n-]c([O-])c(/C=N\C(=S)NCc2ccco2)c1=O

>  <Energy>  (41) 
71.12798391750853

>  <Genealogy>  (41) 
Cn1c(=O)[n-]c([O-])c(C=NC(=S)NCc2ccco2)c1=O (protonated)
Cn1c(=O)[n-]c([O-])c(/C=N\C(=S)NCc2ccco2)c1=O (cis-trans isomerization)
Cn1c(=O)[n-]c([O-])c(/C=N\C(=S)NCc2ccco2)c1=O (3D coordinates assigned)
Cn1c(=O)[n-]c([O-])c(/C=N\C(=S)NCc2ccco2)c1=O (optimized conformer: 71.12798391750853 kcal/mol)

>  <smiles>  (41) 
Cn1c(=O)[nH]c(O)c(C=NC(=S)NCc2ccco2)c1=O

>  <score_type>  (41) 
oracle

>  <origin>  (41) 
adg

>  <m_score__min__energy>  (41) 
-12

>  <m_primary>  (41) 
energy

$$$$
41:0
     RDKit          3D

 51 53  0  0  0  0  0  0  0  0999 V2000
   57.5530   28.2600   43.5780 N   0  0  0  0  0  0  0  0  0  0  0  0
   56.4720   29.5860   43.8260 S   0  0  0  0  0  0  0  0  0  0  0  0
   55.6600   29.3470   45.0690 O   0  0  0  0  0  0  0  0  0  0  0  0
   55.5380   29.6950   42.6530 O   0  0  0  0  0  0  0  0  0  0  0  0
   57.3940   31.0750   44.0060 C   0  0  0  0  0  0  0  0  0  0  0  0
   57.6830   31.8760   42.8940 C   0  0  0  0  0  0  0  0  0  0  0  0
   58.3920   33.0690   43.0550 C   0  0  0  0  0  0  0  0  0  0  0  0
   58.8160   33.4670   44.3260 C   0  0  0  0  0  0  0  0  0  0  0  0
   58.5370   32.6690   45.4440 C   0  0  0  0  0  0  0  0  0  0  0  0
   58.9960   33.2170   47.0530 S   0  0  0  0  0  0  0  0  0  0  0  0
   60.0290   34.3070   46.9560 O   0  0  0  0  0  0  0  0  0  0  0  0
   57.7830   33.7830   47.7360 O   0  0  0  0  0  0  0  0  0  0  0  0
   59.6530   31.8910   47.9750 N   0  0  0  0  0  0  0  0  0  0  0  0
   60.2980   32.1610   49.2660 C   0  0  0  0  0  0  0  0  0  0  0  0
   59.2710   32.2320   50.3690 C   0  0  0  0  0  0  0  0  0  0  0  0
   59.1710   33.3750   51.1770 C   0  0  0  0  0  0  0  0  0  0  0  0
   58.2550   33.4130   52.2300 C   0  0  0  0  0  0  0  0  0  0  0  0
   57.4260   32.3140   52.4790 C   0  0  0  0  0  0  0  0  0  0  0  0
   57.4910   31.1740   51.6690 C   0  0  0  0  0  0  0  0  0  0  0  0
   56.6330   30.1000   51.9610 O   0  0  0  0  0  0  0  0  0  0  0  0
   55.2830   30.2240   52.4030 C   0  0  0  0  0  0  0  0  0  0  0  0
   54.6450   29.0090   52.2410 F   0  0  0  0  0  0  0  0  0  0  0  0
   54.6200   31.1790   51.6530 F   0  0  0  0  0  0  0  0  0  0  0  0
   55.2510   30.5690   53.7410 F   0  0  0  0  0  0  0  0  0  0  0  0
   58.4100   31.1450   50.6010 C   0  0  0  0  0  0  0  0  0  0  0  0
   59.5810   30.5500   47.4610 C   0  0  0  0  0  0  0  0  0  0  0  0
   60.4830   30.1190   46.4780 C   0  0  0  0  0  0  0  0  0  0  0  0
   60.4020   28.8240   45.9610 C   0  0  0  0  0  0  0  0  0  0  0  0
   59.4130   27.9350   46.4170 C   0  0  0  0  0  0  0  0  0  0  0  0
   59.3280   26.5650   45.8680 C   0  0  0  0  0  0  0  0  0  0  0  0
   58.4780   26.2830   44.9810 O   0  0  0  0  0  0  0  0  0  0  0  0
   60.1840   25.5690   46.3230 O   0  0  0  0  0  0  0  0  0  0  0  0
   58.5100   28.3710   47.4020 C   0  0  0  0  0  0  0  0  0  0  0  0
   58.5930   29.6660   47.9170 C   0  0  0  0  0  0  0  0  0  0  0  0
   57.8340   31.4680   45.2780 C   0  0  0  0  0  0  0  0  0  0  0  0
   58.2980   28.3340   44.3080 H   0  0  0  0  0  0  0  0  0  0  0  0
   57.0180   27.3870   43.7820 H   0  0  0  0  0  0  0  0  0  0  0  0
   57.3512   31.5653   41.8923 H   0  0  0  0  0  0  0  0  0  0  0  0
   58.6170   33.6963   42.1798 H   0  0  0  0  0  0  0  0  0  0  0  0
   59.3702   34.4092   44.4492 H   0  0  0  0  0  0  0  0  0  0  0  0
   61.0123   31.3547   49.4887 H   0  0  0  0  0  0  0  0  0  0  0  0
   60.8206   33.1270   49.2058 H   0  0  0  0  0  0  0  0  0  0  0  0
   59.8164   34.2438   50.9801 H   0  0  0  0  0  0  0  0  0  0  0  0
   58.1851   34.3086   52.8649 H   0  0  0  0  0  0  0  0  0  0  0  0
   56.7165   32.3459   53.3190 H   0  0  0  0  0  0  0  0  0  0  0  0
   58.4541   30.2644   49.9433 H   0  0  0  0  0  0  0  0  0  0  0  0
   61.2601   30.8057   46.1113 H   0  0  0  0  0  0  0  0  0  0  0  0
   61.1171   28.4974   45.1916 H   0  0  0  0  0  0  0  0  0  0  0  0
   57.7317   27.6864   47.7700 H   0  0  0  0  0  0  0  0  0  0  0  0
   57.8783   29.9950   48.6858 H   0  0  0  0  0  0  0  0  0  0  0  0
   57.6264   30.8304   46.1500 H   0  0  0  0  0  0  0  0  0  0  0  0
  1  2  1  0
  2  3  2  0
  2  4  2  0
  2  5  1  0
  5  6  2  0
  6  7  1  0
  7  8  2  0
  8  9  1  0
  9 10  1  0
 10 11  2  0
 10 12  2  0
 10 13  1  0
 13 14  1  0
 14 15  1  0
 15 16  2  0
 16 17  1  0
 17 18  2  0
 18 19  1  0
 19 20  1  0
 20 21  1  0
 21 22  1  0
 21 23  1  0
 21 24  1  0
 19 25  2  0
 13 26  1  0
 26 27  2  0
 27 28  1  0
 28 29  2  0
 29 30  1  0
 30 31  2  0
 30 32  1  0
 29 33  1  0
 33 34  2  0
  9 35  2  0
 35  5  1  0
 25 15  1  0
 34 26  1  0
  1 36  1  0
  1 37  1  0
  6 38  1  0
  7 39  1  0
  8 40  1  0
 14 41  1  0
 14 42  1  0
 16 43  1  0
 17 44  1  0
 18 45  1  0
 25 46  1  0
 27 47  1  0
 28 48  1  0
 33 49  1  0
 34 50  1  0
 35 51  1  0
M  CHG  1  32  -1
M  END
>  <UniqueID>  (42) 
42

>  <SMILES>  (42) 
NS(=O)(=O)c1cccc(S(=O)(=O)N(Cc2cccc(OC(F)(F)F)c2)c2ccc(C(=O)[O-])cc2)c1

>  <Energy>  (42) 
53.1974868500121

>  <Genealogy>  (42) 
NS(=O)(=O)c1cccc(S(=O)(=O)N(Cc2cccc(OC(F)(F)F)c2)c2ccc(C(=O)[O-])cc2)c1 (protonated)
NS(=O)(=O)c1cccc(S(=O)(=O)N(Cc2cccc(OC(F)(F)F)c2)c2ccc(C(=O)[O-])cc2)c1 (3D coordinates assigned)
NS(=O)(=O)c1cccc(S(=O)(=O)N(Cc2cccc(OC(F)(F)F)c2)c2ccc(C(=O)[O-])cc2)c1 (optimized conformer: 53.1974868500121 kcal/mol)

>  <smiles>  (42) 
NS(=O)(=O)c1cccc(S(=O)(=O)N(Cc2cccc(OC(F)(F)F)c2)c2ccc(C(=O)O)cc2)c1

>  <score_type>  (42) 
oracle

>  <origin>  (42) 
adg

>  <m_score__min__energy>  (42) 
-10.94

>  <m_primary>  (42) 
energy

$$$$
42:0
     RDKit          3D

 68 71  0  0  0  0  0  0  0  0999 V2000
   59.2400   34.9450   47.3690 C   0  0  0  0  0  0  0  0  0  0  0  0
   59.9790   34.8090   46.0470 C   0  0  0  0  0  0  0  0  0  0  0  0
   59.0460   34.5690   44.9930 O   0  0  0  0  0  0  0  0  0  0  0  0
   58.4180   33.3350   44.7590 C   0  0  0  0  0  0  0  0  0  0  0  0
   58.1420   32.9650   43.4360 C   0  0  0  0  0  0  0  0  0  0  0  0
   57.4960   31.7560   43.1560 C   0  0  0  0  0  0  0  0  0  0  0  0
   57.1100   30.9040   44.1980 C   0  0  0  0  0  0  0  0  0  0  0  0
   56.2450   29.4100   43.8370 S   0  0  0  0  0  0  0  0  0  0  0  0
   56.9680   28.6830   42.7360 O   0  0  0  0  0  0  0  0  0  0  0  0
   54.8440   29.7140   43.3750 O   0  0  0  0  0  0  0  0  0  0  0  0
   56.1840   28.3880   45.2400 N   0  0  0  0  0  0  0  0  0  0  0  0
   57.3050   27.4440   45.2640 C   0  0  0  0  0  0  0  0  0  0  0  0
   58.4790   28.1050   45.9250 C   0  0  0  0  0  0  0  0  0  0  0  0
   59.3930   28.8450   45.1580 C   0  0  0  0  0  0  0  0  0  0  0  0
   60.4070   29.5780   45.7810 C   0  0  0  0  0  0  0  0  0  0  0  0
   60.5190   29.5920   47.1830 C   0  0  0  0  0  0  0  0  0  0  0  0
   61.4800   30.5010   47.8490 C   0  0  0  0  0  0  0  0  0  0  0  0
   61.7780   30.3420   49.0680 O   0  0  0  0  0  0  0  0  0  0  0  0
   62.1480   31.5110   47.0890 N   0  0  0  0  0  0  0  0  0  0  0  0
   62.0880   32.9220   47.4590 C   0  0  0  0  0  0  0  0  0  0  0  0
   62.8270   33.1300   48.7660 C   0  0  0  0  0  0  0  0  0  0  0  0
   64.2330   33.0940   48.7630 C   0  0  0  0  0  0  0  0  0  0  0  0
   64.9550   33.3940   49.9200 C   0  0  0  0  0  0  0  0  0  0  0  0
   64.2890   33.7560   51.0890 C   0  0  0  0  0  0  0  0  0  0  0  0
   62.8970   33.8050   51.1110 C   0  0  0  0  0  0  0  0  0  0  0  0
   62.1480   33.4840   49.9630 C   0  0  0  0  0  0  0  0  0  0  0  0
   60.6370   33.4810   50.0580 C   0  0  0  0  0  0  0  0  0  0  0  0
   60.2130   32.9600   51.3820 N   0  0  0  0  0  0  0  0  0  0  0  0
   58.8360   33.3810   51.7380 C   0  0  0  0  0  0  0  0  0  0  0  0
   57.7680   32.3720   51.2600 C   0  0  0  0  0  0  0  0  0  0  0  0
   58.2400   31.6140   50.1620 O   0  0  0  0  0  0  0  0  0  0  0  0
   59.3060   30.7710   50.5710 C   0  0  0  0  0  0  0  0  0  0  0  0
   60.3460   31.4910   51.4660 C   0  0  0  0  0  0  0  0  0  0  0  0
   59.6270   28.8160   47.9440 C   0  0  0  0  0  0  0  0  0  0  0  0
   58.6100   28.0880   47.3210 C   0  0  0  0  0  0  0  0  0  0  0  0
   57.3960   31.2610   45.5240 C   0  0  0  0  0  0  0  0  0  0  0  0
   58.0480   32.4640   45.8040 C   0  0  0  0  0  0  0  0  0  0  0  0
   59.9485   34.8146   48.2002 H   0  0  0  0  0  0  0  0  0  0  0  0
   58.7810   35.9427   47.4315 H   0  0  0  0  0  0  0  0  0  0  0  0
   58.4559   34.1761   47.4315 H   0  0  0  0  0  0  0  0  0  0  0  0
   60.5320   35.7373   45.8407 H   0  0  0  0  0  0  0  0  0  0  0  0
   60.6814   33.9647   46.1091 H   0  0  0  0  0  0  0  0  0  0  0  0
   58.4356   33.6305   42.6108 H   0  0  0  0  0  0  0  0  0  0  0  0
   57.2905   31.4736   42.1129 H   0  0  0  0  0  0  0  0  0  0  0  0
   57.0195   26.5452   45.8302 H   0  0  0  0  0  0  0  0  0  0  0  0
   57.5697   27.1515   44.2372 H   0  0  0  0  0  0  0  0  0  0  0  0
   59.3106   28.8479   44.0611 H   0  0  0  0  0  0  0  0  0  0  0  0
   61.1227   30.1481   45.1704 H   0  0  0  0  0  0  0  0  0  0  0  0
   62.5579   33.5287   46.6708 H   0  0  0  0  0  0  0  0  0  0  0  0
   61.0378   33.2272   47.5773 H   0  0  0  0  0  0  0  0  0  0  0  0
   64.7691   32.8269   47.8403 H   0  0  0  0  0  0  0  0  0  0  0  0
   66.0538   33.3443   49.9084 H   0  0  0  0  0  0  0  0  0  0  0  0
   64.8624   34.0031   51.9946 H   0  0  0  0  0  0  0  0  0  0  0  0
   62.3774   34.0977   52.0353 H   0  0  0  0  0  0  0  0  0  0  0  0
   60.2620   34.5076   49.9333 H   0  0  0  0  0  0  0  0  0  0  0  0
   60.2266   32.8356   49.2674 H   0  0  0  0  0  0  0  0  0  0  0  0
   58.7675   33.4759   52.8318 H   0  0  0  0  0  0  0  0  0  0  0  0
   58.6389   34.3399   51.2364 H   0  0  0  0  0  0  0  0  0  0  0  0
   57.5212   31.6907   52.0876 H   0  0  0  0  0  0  0  0  0  0  0  0
   56.8760   32.9313   50.9414 H   0  0  0  0  0  0  0  0  0  0  0  0
   58.8859   29.9250   51.1348 H   0  0  0  0  0  0  0  0  0  0  0  0
   59.8299   30.4425   49.6613 H   0  0  0  0  0  0  0  0  0  0  0  0
   60.1958   31.1783   52.5099 H   0  0  0  0  0  0  0  0  0  0  0  0
   61.3512   31.2163   51.1138 H   0  0  0  0  0  0  0  0  0  0  0  0
   59.7306   28.7817   49.0386 H   0  0  0  0  0  0  0  0  0  0  0  0
   57.9082   27.4983   47.9290 H   0  0  0  0  0  0  0  0  0  0  0  0
   57.1056   30.5909   46.3466 H   0  0  0  0  0  0  0  0  0  0  0  0
   58.2742   32.7335   46.8462 H   0  0  0  0  0  0  0  0  0  0  0  0
  1  2  1  0
  2  3  1  0
  3  4  1  0
  4  5  2  0
  5  6  1  0
  6  7  2  0
  7  8  1  0
  8  9  2  0
  8 10  2  0
  8 11  1  0
 11 12  1  0
 12 13  1  0
 13 14  2  0
 14 15  1  0
 15 16  2  0
 16 17  1  0
 17 18  2  0
 17 19  1  0
 19 20  1  0
 20 21  1  0
 21 22  2  0
 22 23  1  0
 23 24  2  0
 24 25  1  0
 25 26  2  0
 26 27  1  0
 27 28  1  0
 28 29  1  0
 29 30  1  0
 30 31  1  0
 31 32  1  0
 32 33  1  0
 16 34  1  0
 34 35  2  0
  7 36  1  0
 36 37  2  0
 37  4  1  0
 35 13  1  0
 26 21  1  0
 33 28  1  0
  1 38  1  0
  1 39  1  0
  1 40  1  0
  2 41  1  0
  2 42  1  0
  5 43  1  0
  6 44  1  0
 12 45  1  0
 12 46  1  0
 14 47  1  0
 15 48  1  0
 20 49  1  0
 20 50  1  0
 22 51  1  0
 23 52  1  0
 24 53  1  0
 25 54  1  0
 27 55  1  0
 27 56  1  0
 29 57  1  0
 29 58  1  0
 30 59  1  0
 30 60  1  0
 32 61  1  0
 32 62  1  0
 33 63  1  0
 33 64  1  0
 34 65  1  0
 35 66  1  0
 36 67  1  0
 37 68  1  0
M  CHG  2  11  -1  19  -1
M  END
>  <UniqueID>  (43) 
43

>  <SMILES>  (43) 
CCOc1ccc(S(=O)(=O)[N-]Cc2ccc(C(=O)[N-]Cc3ccccc3CN3CCOCC3)cc2)cc1

>  <Energy>  (43) 
78.28500914476051

>  <Genealogy>  (43) 
CCOc1ccc(S(=O)(=O)[N-]Cc2ccc(C(=O)[N-]Cc3ccccc3CN3CCOCC3)cc2)cc1 (protonated)
CCOc1ccc(S(=O)(=O)[N-]Cc2ccc(C(=O)[N-]Cc3ccccc3CN3CCOCC3)cc2)cc1 (3D coordinates assigned)
CCOc1ccc(S(=O)(=O)[N-]Cc2ccc(C(=O)[N-]Cc3ccccc3CN3CCOCC3)cc2)cc1 (nonaromatic ring conformer: 78.28500914476051 kcal/mol)

>  <smiles>  (43) 
CCOc1ccc(S(=O)(=O)NCc2ccc(C(=O)NCc3ccccc3CN3CCOCC3)cc2)cc1

>  <score_type>  (43) 
oracle

>  <origin>  (43) 
adg

>  <m_score__min__energy>  (43) 
-11.640000000000001

>  <m_primary>  (43) 
energy

$$$$
43:0
     RDKit          3D

 45 47  0  0  0  0  0  0  0  0999 V2000
   57.0420   34.1190   45.3990 C   0  0  0  0  0  0  0  0  0  0  0  0
   58.2890   33.5340   46.0230 C   0  0  0  0  0  0  0  0  0  0  0  0
   58.1800   32.2970   46.6750 C   0  0  0  0  0  0  0  0  0  0  0  0
   59.3030   31.7110   47.2580 C   0  0  0  0  0  0  0  0  0  0  0  0
   59.2030   30.4650   47.8970 C   0  0  0  0  0  0  0  0  0  0  0  0
   60.3230   29.8940   48.5080 C   0  0  0  0  0  0  0  0  0  0  0  0
   60.1810   28.6420   49.1890 N   0  0  0  0  0  0  0  0  0  0  0  0
   60.3450   27.3370   48.5990 C   0  0  0  0  0  0  0  0  0  0  0  0
   60.2300   26.3170   49.3400 O   0  0  0  0  0  0  0  0  0  0  0  0
   60.6410   27.1270   47.1280 C   0  0  0  0  0  0  0  0  0  0  0  0
   59.7150   27.8740   46.1980 C   0  0  0  0  0  0  0  0  0  0  0  0
   60.2250   28.8220   45.2940 C   0  0  0  0  0  0  0  0  0  0  0  0
   59.3560   29.5840   44.5060 C   0  0  0  0  0  0  0  0  0  0  0  0
   57.9700   29.3910   44.5970 C   0  0  0  0  0  0  0  0  0  0  0  0
   56.8630   30.3810   43.6500 S   0  0  0  0  0  0  0  0  0  0  0  0
   55.8970   29.3470   42.6490 N   0  0  0  0  0  0  0  0  0  0  0  0
   55.9640   31.1810   44.5670 O   0  0  0  0  0  0  0  0  0  0  0  0
   57.6550   31.3360   42.7880 O   0  0  0  0  0  0  0  0  0  0  0  0
   57.4600   28.4170   45.4680 C   0  0  0  0  0  0  0  0  0  0  0  0
   58.3270   27.6540   46.2530 C   0  0  0  0  0  0  0  0  0  0  0  0
   61.5620   30.5410   48.4330 C   0  0  0  0  0  0  0  0  0  0  0  0
   61.6740   31.7700   47.7800 C   0  0  0  0  0  0  0  0  0  0  0  0
   60.5420   32.3730   47.1930 C   0  0  0  0  0  0  0  0  0  0  0  0
   60.6230   33.6230   46.5420 C   0  0  0  0  0  0  0  0  0  0  0  0
   61.7420   34.2070   46.4520 O   0  0  0  0  0  0  0  0  0  0  0  0
   59.4980   34.2020   45.9970 N   0  0  0  0  0  0  0  0  0  0  0  0
   59.6080   35.5090   45.3200 C   0  0  0  0  0  0  0  0  0  0  0  0
   56.3522   34.4426   46.1924 H   0  0  0  0  0  0  0  0  0  0  0  0
   57.3148   34.9831   44.7754 H   0  0  0  0  0  0  0  0  0  0  0  0
   56.5519   33.3569   44.7754 H   0  0  0  0  0  0  0  0  0  0  0  0
   57.2063   31.7879   46.7266 H   0  0  0  0  0  0  0  0  0  0  0  0
   58.2389   29.9357   47.9169 H   0  0  0  0  0  0  0  0  0  0  0  0
   61.6704   27.4615   46.9320 H   0  0  0  0  0  0  0  0  0  0  0  0
   60.4955   26.0556   46.9259 H   0  0  0  0  0  0  0  0  0  0  0  0
   61.3121   28.9652   45.2059 H   0  0  0  0  0  0  0  0  0  0  0  0
   59.7608   30.3365   43.8132 H   0  0  0  0  0  0  0  0  0  0  0  0
   56.4080   28.4390   42.5670 H   0  0  0  0  0  0  0  0  0  0  0  0
   55.8820   29.7720   41.6960 H   0  0  0  0  0  0  0  0  0  0  0  0
   56.3741   28.2537   45.5329 H   0  0  0  0  0  0  0  0  0  0  0  0
   57.9222   26.8768   46.9179 H   0  0  0  0  0  0  0  0  0  0  0  0
   62.4500   30.0798   48.8899 H   0  0  0  0  0  0  0  0  0  0  0  0
   62.6515   32.2713   47.7229 H   0  0  0  0  0  0  0  0  0  0  0  0
   59.6752   36.3077   46.0734 H   0  0  0  0  0  0  0  0  0  0  0  0
   60.5104   35.5214   44.6910 H   0  0  0  0  0  0  0  0  0  0  0  0
   58.7204   35.6720   44.6910 H   0  0  0  0  0  0  0  0  0  0  0  0
  1  2  1  0
  2  3  2  0
  3  4  1  0
  4  5  2  0
  5  6  1  0
  6  7  1  0
  7  8  1  0
  8  9  2  0
  8 10  1  0
 10 11  1  0
 11 12  2  0
 12 13  1  0
 13 14  2  0
 14 15  1  0
 15 16  1  0
 15 17  2  0
 15 18  2  0
 14 19  1  0
 19 20  2  0
  6 21  2  0
 21 22  1  0
 22 23  2  0
 23 24  1  0
 24 25  2  0
 24 26  1  0
 26 27  1  0
 26  2  1  0
 23  4  1  0
 20 11  1  0
  1 28  1  0
  1 29  1  0
  1 30  1  0
  3 31  1  0
  5 32  1  0
 10 33  1  0
 10 34  1  0
 12 35  1  0
 13 36  1  0
 16 37  1  0
 16 38  1  0
 19 39  1  0
 20 40  1  0
 21 41  1  0
 22 42  1  0
 27 43  1  0
 27 44  1  0
 27 45  1  0
M  CHG  1   7  -1
M  END
>  <UniqueID>  (44) 
44

>  <SMILES>  (44) 
Cc1cc2cc([N-]C(=O)Cc3ccc(S(N)(=O)=O)cc3)ccc2c(=O)n1C

>  <Energy>  (44) 
56.92392800252506

>  <Genealogy>  (44) 
Cc1cc2cc([N-]C(=O)Cc3ccc(S(N)(=O)=O)cc3)ccc2c(=O)n1C (protonated)
Cc1cc2cc([N-]C(=O)Cc3ccc(S(N)(=O)=O)cc3)ccc2c(=O)n1C (3D coordinates assigned)
Cc1cc2cc([N-]C(=O)Cc3ccc(S(N)(=O)=O)cc3)ccc2c(=O)n1C (optimized conformer: 56.92392800252506 kcal/mol)

>  <smiles>  (44) 
Cc1cc2cc(NC(=O)Cc3ccc(S(N)(=O)=O)cc3)ccc2c(=O)n1C

>  <score_type>  (44) 
oracle

>  <origin>  (44) 
adg

>  <m_score__min__energy>  (44) 
-10.619999999999999

>  <m_primary>  (44) 
energy

$$$$
44:0
     RDKit          3D

 31 32  0  0  0  0  0  0  0  0999 V2000
   55.1490   27.4690   44.8790 H   0  0  0  0  0  0  0  0  0  0  0  0
   55.9340   27.8040   45.4810 N   0  0  0  0  0  0  0  0  0  0  0  0
   56.6900   29.1110   44.6410 S   0  0  0  0  0  0  0  0  0  0  0  0
   56.9880   28.6900   43.2280 O   0  0  0  0  0  0  0  0  0  0  0  0
   55.7600   30.2910   44.6050 O   0  0  0  0  0  0  0  0  0  0  0  0
   58.1830   29.5530   45.4610 C   0  0  0  0  0  0  0  0  0  0  0  0
   58.1370   30.2580   46.6720 C   0  0  0  0  0  0  0  0  0  0  0  0
   57.1666   30.5413   47.1057 H   0  0  0  0  0  0  0  0  0  0  0  0
   59.3230   30.6020   47.3300 C   0  0  0  0  0  0  0  0  0  0  0  0
   59.2814   31.1434   48.2866 H   0  0  0  0  0  0  0  0  0  0  0  0
   60.5620   30.2600   46.7760 C   0  0  0  0  0  0  0  0  0  0  0  0
   61.7640   30.6090   47.4750 N   0  0  0  0  0  0  0  0  0  0  0  0
   62.0420   31.7750   47.9850 C   0  0  0  0  0  0  0  0  0  0  0  0
   62.2903   31.8249   49.0554 H   0  0  0  0  0  0  0  0  0  0  0  0
   62.0440   33.0600   47.1970 C   0  0  0  0  0  0  0  0  0  0  0  0
   62.9492   33.6320   47.4489 H   0  0  0  0  0  0  0  0  0  0  0  0
   62.0245   32.8076   46.1265 H   0  0  0  0  0  0  0  0  0  0  0  0
   60.8350   33.8990   47.5050 C   0  0  0  0  0  0  0  0  0  0  0  0
   60.8320   34.6110   48.5450 O   0  0  0  0  0  0  0  0  0  0  0  0
   59.6590   33.9230   46.6150 C   0  0  0  0  0  0  0  0  0  0  0  0
   58.0760   33.6360   47.1070 S   0  0  0  0  0  0  0  0  0  0  0  0
   57.3670   33.8400   45.5950 C   0  0  0  0  0  0  0  0  0  0  0  0
   56.2942   33.7524   45.3684 H   0  0  0  0  0  0  0  0  0  0  0  0
   58.3700   34.1380   44.6830 C   0  0  0  0  0  0  0  0  0  0  0  0
   58.1769   34.3204   43.6155 H   0  0  0  0  0  0  0  0  0  0  0  0
   59.6510   34.1850   45.2480 C   0  0  0  0  0  0  0  0  0  0  0  0
   60.5597   34.4068   44.6692 H   0  0  0  0  0  0  0  0  0  0  0  0
   60.6060   29.5210   45.5840 C   0  0  0  0  0  0  0  0  0  0  0  0
   61.5756   29.2128   45.1658 H   0  0  0  0  0  0  0  0  0  0  0  0
   59.4220   29.1750   44.9260 C   0  0  0  0  0  0  0  0  0  0  0  0
   59.4630   28.6048   43.9862 H   0  0  0  0  0  0  0  0  0  0  0  0
  1  2  1  0
  2  3  1  0
  3  4  2  0
  3  5  2  0
  3  6  1  0
  6  7  2  0
  7  8  1  0
  7  9  1  0
  9 10  1  0
  9 11  2  0
 11 12  1  0
 12 13  2  0
 13 14  1  0
 13 15  1  0
 15 16  1  0
 15 17  1  0
 15 18  1  0
 18 19  2  0
 18 20  1  0
 20 21  1  0
 21 22  1  0
 22 23  1  0
 22 24  2  0
 24 25  1  0
 24 26  1  0
 26 27  1  0
 11 28  1  0
 28 29  1  0
 28 30  2  0
 30 31  1  0
 30  6  1  0
 26 20  2  0
M  CHG  1   2  -1
M  END
>  <UniqueID>  (45) 
45

>  <SMILES>  (45) 
[NH-]S(=O)(=O)c1ccc(/N=C\CC(=O)c2cccs2)cc1

>  <Energy>  (45) 
61.76890613365255

>  <Genealogy>  (45) 
[NH-]S(=O)(=O)c1ccc(N=CCC(=O)c2cccs2)cc1 (protonated)
[NH-]S(=O)(=O)c1ccc(/N=C\CC(=O)c2cccs2)cc1 (cis-trans isomerization)
[NH-]S(=O)(=O)c1ccc(/N=C\CC(=O)c2cccs2)cc1 (3D coordinates assigned)
[NH-]S(=O)(=O)c1ccc(/N=C\CC(=O)c2cccs2)cc1 (optimized conformer: 61.76890613365255 kcal/mol)

>  <smiles>  (45) 
NS(=O)(=O)c1ccc(N=CCC(=O)c2cccs2)cc1

>  <score_type>  (45) 
oracle

>  <origin>  (45) 
adg

>  <m_score__min__energy>  (45) 
-10.17

>  <m_primary>  (45) 
energy

$$$$
45:0
     RDKit          3D

 39 41  0  0  0  0  0  0  0  0999 V2000
   54.8210   26.3280   45.9730 N   0  0  0  0  0  0  0  0  0  0  0  0
   56.4340   25.7150   46.0760 S   0  0  0  0  0  0  0  0  0  0  0  0
   56.8570   25.1770   44.7390 O   0  0  0  0  0  0  0  0  0  0  0  0
   56.4730   24.6000   47.0830 O   0  0  0  0  0  0  0  0  0  0  0  0
   57.5250   27.0120   46.5570 C   0  0  0  0  0  0  0  0  0  0  0  0
   58.5220   26.7620   47.5070 C   0  0  0  0  0  0  0  0  0  0  0  0
   59.3950   27.7800   47.8990 C   0  0  0  0  0  0  0  0  0  0  0  0
   59.2860   29.0640   47.3340 C   0  0  0  0  0  0  0  0  0  0  0  0
   60.1510   30.1370   47.7430 N   0  0  0  0  0  0  0  0  0  0  0  0
   60.6780   30.2750   49.0710 C   0  0  0  0  0  0  0  0  0  0  0  0
   60.7250   29.2800   49.8460 O   0  0  0  0  0  0  0  0  0  0  0  0
   61.2530   31.5860   49.5190 C   0  0  0  0  0  0  0  0  0  0  0  0
   61.5360   32.4450   48.3580 N   0  0  0  0  0  0  0  0  0  0  0  0
   62.9040   32.6760   47.9530 C   0  0  0  0  0  0  0  0  0  0  0  0
   63.8580   32.0990   48.5410 O   0  0  0  0  0  0  0  0  0  0  0  0
   63.2130   33.6730   46.8740 C   0  0  0  0  0  0  0  0  0  0  0  0
   62.1170   33.8140   45.9740 O   0  0  0  0  0  0  0  0  0  0  0  0
   60.7890   33.7400   46.4010 C   0  0  0  0  0  0  0  0  0  0  0  0
   59.7800   34.3030   45.6130 C   0  0  0  0  0  0  0  0  0  0  0  0
   58.4520   34.2630   46.0400 C   0  0  0  0  0  0  0  0  0  0  0  0
   58.1280   33.6550   47.2550 C   0  0  0  0  0  0  0  0  0  0  0  0
   59.1280   33.0680   48.0370 C   0  0  0  0  0  0  0  0  0  0  0  0
   60.4730   33.0920   47.6110 C   0  0  0  0  0  0  0  0  0  0  0  0
   58.2720   29.3160   46.3960 C   0  0  0  0  0  0  0  0  0  0  0  0
   57.4020   28.2940   46.0030 C   0  0  0  0  0  0  0  0  0  0  0  0
   54.7360   27.0830   46.6920 H   0  0  0  0  0  0  0  0  0  0  0  0
   58.6188   25.7586   47.9474 H   0  0  0  0  0  0  0  0  0  0  0  0
   60.1705   27.5769   48.6522 H   0  0  0  0  0  0  0  0  0  0  0  0
   60.4540   30.8300   47.0210 H   0  0  0  0  0  0  0  0  0  0  0  0
   60.5316   32.0922   50.1773 H   0  0  0  0  0  0  0  0  0  0  0  0
   62.1915   31.3977   50.0610 H   0  0  0  0  0  0  0  0  0  0  0  0
   63.4253   34.6482   47.3365 H   0  0  0  0  0  0  0  0  0  0  0  0
   64.0852   33.3145   46.3076 H   0  0  0  0  0  0  0  0  0  0  0  0
   60.0338   34.7786   44.6541 H   0  0  0  0  0  0  0  0  0  0  0  0
   57.6609   34.7100   45.4201 H   0  0  0  0  0  0  0  0  0  0  0  0
   57.0830   33.6378   47.5979 H   0  0  0  0  0  0  0  0  0  0  0  0
   58.8645   32.5849   48.9895 H   0  0  0  0  0  0  0  0  0  0  0  0
   58.1613   30.3232   45.9678 H   0  0  0  0  0  0  0  0  0  0  0  0
   56.6191   28.4965   45.2573 H   0  0  0  0  0  0  0  0  0  0  0  0
  1  2  1  0
  2  3  2  0
  2  4  2  0
  2  5  1  0
  5  6  2  0
  6  7  1  0
  7  8  2  0
  8  9  1  0
  9 10  1  0
 10 11  2  0
 10 12  1  0
 12 13  1  0
 13 14  1  0
 14 15  2  0
 14 16  1  0
 16 17  1  0
 17 18  1  0
 18 19  2  0
 19 20  1  0
 20 21  2  0
 21 22  1  0
 22 23  2  0
  8 24  1  0
 24 25  2  0
 25  5  1  0
 23 13  1  0
 23 18  1  0
  1 26  1  0
  6 27  1  0
  7 28  1  0
  9 29  1  0
 12 30  1  0
 12 31  1  0
 16 32  1  0
 16 33  1  0
 19 34  1  0
 20 35  1  0
 21 36  1  0
 22 37  1  0
 24 38  1  0
 25 39  1  0
M  CHG  1   1  -1
M  END
>  <UniqueID>  (46) 
46

>  <SMILES>  (46) 
[NH-]S(=O)(=O)c1ccc(NC(=O)CN2C(=O)COc3ccccc32)cc1

>  <Energy>  (46) 
47.819920935281814

>  <Genealogy>  (46) 
[NH-]S(=O)(=O)c1ccc(NC(=O)CN2C(=O)COc3ccccc32)cc1 (protonated)
[NH-]S(=O)(=O)c1ccc(NC(=O)CN2C(=O)COc3ccccc32)cc1 (3D coordinates assigned)
[NH-]S(=O)(=O)c1ccc(NC(=O)CN2C(=O)COc3ccccc32)cc1 (nonaromatic ring conformer: 47.819920935281814 kcal/mol)

>  <smiles>  (46) 
NS(=O)(=O)c1ccc(NC(=O)CN2C(=O)COc3ccccc32)cc1

>  <score_type>  (46) 
oracle

>  <origin>  (46) 
adg

>  <m_score__min__energy>  (46) 
-10.380000000000001

>  <m_primary>  (46) 
energy

$$$$
46:0
     RDKit          3D

 56 58  0  0  0  0  0  0  0  0999 V2000
   51.1380   23.7190   44.7590 C   0  0  0  0  0  0  0  0  0  0  0  0
   51.9700   22.6080   45.0790 O   0  0  0  0  0  0  0  0  0  0  0  0
   52.9130   22.5990   46.1240 C   0  0  0  0  0  0  0  0  0  0  0  0
   52.6910   21.8760   47.3130 C   0  0  0  0  0  0  0  0  0  0  0  0
   53.6310   21.9000   48.3460 C   0  0  0  0  0  0  0  0  0  0  0  0
   54.7990   22.6500   48.2130 C   0  0  0  0  0  0  0  0  0  0  0  0
   55.0350   23.3700   47.0410 C   0  0  0  0  0  0  0  0  0  0  0  0
   54.1090   23.3420   45.9850 C   0  0  0  0  0  0  0  0  0  0  0  0
   54.4180   24.0940   44.7110 C   0  0  0  0  0  0  0  0  0  0  0  0
   54.7700   23.1580   43.6440 N   0  0  0  0  0  0  0  0  0  0  0  0
   56.0970   22.6620   43.4280 C   0  0  0  0  0  0  0  0  0  0  0  0
   56.2820   21.4650   43.0730 O   0  0  0  0  0  0  0  0  0  0  0  0
   57.2830   23.5570   43.6430 C   0  0  0  0  0  0  0  0  0  0  0  0
   57.6870   23.6230   45.1230 C   0  0  0  0  0  0  0  0  0  0  0  0
   57.9270   25.0430   45.5690 C   0  0  0  0  0  0  0  0  0  0  0  0
   56.8550   25.9560   45.6510 C   0  0  0  0  0  0  0  0  0  0  0  0
   57.0920   27.2910   46.0090 C   0  0  0  0  0  0  0  0  0  0  0  0
   58.4060   27.7260   46.2690 C   0  0  0  0  0  0  0  0  0  0  0  0
   58.7190   29.4080   46.6700 S   0  0  0  0  0  0  0  0  0  0  0  0
   60.0710   29.8230   46.1600 O   0  0  0  0  0  0  0  0  0  0  0  0
   58.7040   29.5500   48.1670 O   0  0  0  0  0  0  0  0  0  0  0  0
   57.5270   30.4730   45.9940 N   0  0  0  0  0  0  0  0  0  0  0  0
   57.4400   30.8250   44.6060 C   0  0  0  0  0  0  0  0  0  0  0  0
   56.7680   30.0080   43.6770 C   0  0  0  0  0  0  0  0  0  0  0  0
   56.6470   30.4000   42.3440 C   0  0  0  0  0  0  0  0  0  0  0  0
   57.2230   31.5980   41.9090 C   0  0  0  0  0  0  0  0  0  0  0  0
   57.9110   32.4060   42.8180 C   0  0  0  0  0  0  0  0  0  0  0  0
   58.0150   32.0300   44.1780 C   0  0  0  0  0  0  0  0  0  0  0  0
   58.6950   32.8130   45.1240 O   0  0  0  0  0  0  0  0  0  0  0  0
   58.0470   33.6940   46.0460 C   0  0  0  0  0  0  0  0  0  0  0  0
   59.4750   26.8120   46.2040 C   0  0  0  0  0  0  0  0  0  0  0  0
   59.2350   25.4790   45.8560 C   0  0  0  0  0  0  0  0  0  0  0  0
   50.7842   24.1915   45.6872 H   0  0  0  0  0  0  0  0  0  0  0  0
   51.7126   24.4501   44.1713 H   0  0  0  0  0  0  0  0  0  0  0  0
   50.2748   23.3734   44.1713 H   0  0  0  0  0  0  0  0  0  0  0  0
   51.7690   21.2873   47.4287 H   0  0  0  0  0  0  0  0  0  0  0  0
   53.4494   21.3259   49.2666 H   0  0  0  0  0  0  0  0  0  0  0  0
   55.5338   22.6741   49.0312 H   0  0  0  0  0  0  0  0  0  0  0  0
   55.9549   23.9651   46.9432 H   0  0  0  0  0  0  0  0  0  0  0  0
   53.5339   24.6742   44.4082 H   0  0  0  0  0  0  0  0  0  0  0  0
   55.2675   24.7694   44.8903 H   0  0  0  0  0  0  0  0  0  0  0  0
   58.1313   23.1702   43.0593 H   0  0  0  0  0  0  0  0  0  0  0  0
   57.0090   24.5715   43.3179 H   0  0  0  0  0  0  0  0  0  0  0  0
   56.8813   23.1884   45.7329 H   0  0  0  0  0  0  0  0  0  0  0  0
   58.6229   23.0592   45.2501 H   0  0  0  0  0  0  0  0  0  0  0  0
   55.8304   25.6200   45.4336 H   0  0  0  0  0  0  0  0  0  0  0  0
   56.2525   27.9976   46.0866 H   0  0  0  0  0  0  0  0  0  0  0  0
   56.3345   29.0519   44.0054 H   0  0  0  0  0  0  0  0  0  0  0  0
   56.0973   29.7655   41.6332 H   0  0  0  0  0  0  0  0  0  0  0  0
   57.1348   31.9028   40.8558 H   0  0  0  0  0  0  0  0  0  0  0  0
   58.3754   33.3418   42.4735 H   0  0  0  0  0  0  0  0  0  0  0  0
   58.2770   33.3813   47.0753 H   0  0  0  0  0  0  0  0  0  0  0  0
   58.4064   34.7212   45.8859 H   0  0  0  0  0  0  0  0  0  0  0  0
   56.9593   33.6569   45.8859 H   0  0  0  0  0  0  0  0  0  0  0  0
   60.4989   27.1465   46.4269 H   0  0  0  0  0  0  0  0  0  0  0  0
   60.0723   24.7673   45.8062 H   0  0  0  0  0  0  0  0  0  0  0  0
  1  2  1  0
  2  3  1  0
  3  4  2  0
  4  5  1  0
  5  6  2  0
  6  7  1  0
  7  8  2  0
  8  9  1  0
  9 10  1  0
 10 11  1  0
 11 12  2  0
 11 13  1  0
 13 14  1  0
 14 15  1  0
 15 16  2  0
 16 17  1  0
 17 18  2  0
 18 19  1  0
 19 20  2  0
 19 21  2  0
 19 22  1  0
 22 23  1  0
 23 24  2  0
 24 25  1  0
 25 26  2  0
 26 27  1  0
 27 28  2  0
 28 29  1  0
 29 30  1  0
 18 31  1  0
 31 32  2  0
  8  3  1  0
 32 15  1  0
 28 23  1  0
  1 33  1  0
  1 34  1  0
  1 35  1  0
  4 36  1  0
  5 37  1  0
  6 38  1  0
  7 39  1  0
  9 40  1  0
  9 41  1  0
 13 42  1  0
 13 43  1  0
 14 44  1  0
 14 45  1  0
 16 46  1  0
 17 47  1  0
 24 48  1  0
 25 49  1  0
 26 50  1  0
 27 51  1  0
 30 52  1  0
 30 53  1  0
 30 54  1  0
 31 55  1  0
 32 56  1  0
M  CHG  2  10  -1  22  -1
M  END
>  <UniqueID>  (47) 
47

>  <SMILES>  (47) 
COc1ccccc1C[N-]C(=O)CCc1ccc(S(=O)(=O)[N-]c2ccccc2OC)cc1

>  <Energy>  (47) 
54.475706897620505

>  <Genealogy>  (47) 
COc1ccccc1C[N-]C(=O)CCc1ccc(S(=O)(=O)[N-]c2ccccc2OC)cc1 (protonated)
COc1ccccc1C[N-]C(=O)CCc1ccc(S(=O)(=O)[N-]c2ccccc2OC)cc1 (3D coordinates assigned)
COc1ccccc1C[N-]C(=O)CCc1ccc(S(=O)(=O)[N-]c2ccccc2OC)cc1 (optimized conformer: 54.475706897620505 kcal/mol)

>  <smiles>  (47) 
COc1ccccc1CNC(=O)CCc1ccc(S(=O)(=O)Nc2ccccc2OC)cc1

>  <score_type>  (47) 
oracle

>  <origin>  (47) 
adg

>  <m_score__min__energy>  (47) 
-12.359999999999999

>  <m_primary>  (47) 
energy

$$$$
47:0
     RDKit          3D

 41 43  0  0  0  0  0  0  0  0999 V2000
   55.9330   21.8370   43.0300 O   0  0  0  0  0  0  0  0  0  0  0  0
   56.0520   22.2540   44.2120 C   0  0  0  0  0  0  0  0  0  0  0  0
   54.9350   22.2820   45.0380 O   0  0  0  0  0  0  0  0  0  0  0  0
   57.3650   22.6990   44.7070 C   0  0  0  0  0  0  0  0  0  0  0  0
   58.3690   22.6190   43.9480 O   0  0  0  0  0  0  0  0  0  0  0  0
   57.5460   23.2000   46.1140 C   0  0  0  0  0  0  0  0  0  0  0  0
   56.8000   24.4900   46.3280 C   0  0  0  0  0  0  0  0  0  0  0  0
   55.6850   24.4370   46.9160 O   0  0  0  0  0  0  0  0  0  0  0  0
   57.3500   25.8090   45.9000 C   0  0  0  0  0  0  0  0  0  0  0  0
   58.7250   25.9510   45.6330 C   0  0  0  0  0  0  0  0  0  0  0  0
   59.2500   27.1810   45.2410 C   0  0  0  0  0  0  0  0  0  0  0  0
   58.4200   28.2920   45.1140 C   0  0  0  0  0  0  0  0  0  0  0  0
   57.0460   28.1880   45.3790 C   0  0  0  0  0  0  0  0  0  0  0  0
   56.1650   29.4120   45.2450 C   0  0  0  0  0  0  0  0  0  0  0  0
   56.8190   30.4780   44.3740 C   0  0  0  0  0  0  0  0  0  0  0  0
   56.6560   30.3670   42.9730 C   0  0  0  0  0  0  0  0  0  0  0  0
   55.8940   29.3290   42.4350 O   0  0  0  0  0  0  0  0  0  0  0  0
   57.2510   31.2900   42.1110 C   0  0  0  0  0  0  0  0  0  0  0  0
   58.0060   32.3420   42.6120 C   0  0  0  0  0  0  0  0  0  0  0  0
   58.1770   32.4950   43.9910 C   0  0  0  0  0  0  0  0  0  0  0  0
   58.9380   33.5730   44.4730 C   0  0  0  0  0  0  0  0  0  0  0  0
   59.1180   33.7530   45.8410 C   0  0  0  0  0  0  0  0  0  0  0  0
   58.5420   32.8610   46.7420 C   0  0  0  0  0  0  0  0  0  0  0  0
   57.7830   31.7820   46.2820 C   0  0  0  0  0  0  0  0  0  0  0  0
   57.5850   31.5680   44.8960 C   0  0  0  0  0  0  0  0  0  0  0  0
   56.5100   26.9390   45.7620 C   0  0  0  0  0  0  0  0  0  0  0  0
   55.1420   26.8220   45.9860 O   0  0  0  0  0  0  0  0  0  0  0  0
   57.1658   22.4439   46.8167 H   0  0  0  0  0  0  0  0  0  0  0  0
   58.6171   23.3822   46.2859 H   0  0  0  0  0  0  0  0  0  0  0  0
   59.3918   25.0821   45.7348 H   0  0  0  0  0  0  0  0  0  0  0  0
   60.3257   27.2748   45.0308 H   0  0  0  0  0  0  0  0  0  0  0  0
   58.8446   29.2581   44.8037 H   0  0  0  0  0  0  0  0  0  0  0  0
   55.2084   29.1158   44.7898 H   0  0  0  0  0  0  0  0  0  0  0  0
   56.0069   29.8350   46.2480 H   0  0  0  0  0  0  0  0  0  0  0  0
   56.0860   28.3580   42.6480 H   0  0  0  0  0  0  0  0  0  0  0  0
   57.1204   31.1827   41.0241 H   0  0  0  0  0  0  0  0  0  0  0  0
   58.4721   33.0589   41.9201 H   0  0  0  0  0  0  0  0  0  0  0  0
   59.3946   34.2795   43.7642 H   0  0  0  0  0  0  0  0  0  0  0  0
   59.7151   34.5997   46.2106 H   0  0  0  0  0  0  0  0  0  0  0  0
   58.6855   33.0069   47.8228 H   0  0  0  0  0  0  0  0  0  0  0  0
   57.3325   31.0883   47.0071 H   0  0  0  0  0  0  0  0  0  0  0  0
  1  2  2  0
  2  3  1  0
  2  4  1  0
  4  5  2  0
  4  6  1  0
  6  7  1  0
  7  8  2  0
  7  9  1  0
  9 10  2  0
 10 11  1  0
 11 12  2  0
 12 13  1  0
 13 14  1  0
 14 15  1  0
 15 16  2  0
 16 17  1  0
 16 18  1  0
 18 19  2  0
 19 20  1  0
 20 21  2  0
 21 22  1  0
 22 23  2  0
 23 24  1  0
 24 25  2  0
 13 26  2  0
 26 27  1  0
 26  9  1  0
 25 15  1  0
 25 20  1  0
  6 28  1  0
  6 29  1  0
 10 30  1  0
 11 31  1  0
 12 32  1  0
 14 33  1  0
 14 34  1  0
 17 35  1  0
 18 36  1  0
 19 37  1  0
 21 38  1  0
 22 39  1  0
 23 40  1  0
 24 41  1  0
M  CHG  2   3  -1  27  -1
M  END
>  <UniqueID>  (48) 
48

>  <SMILES>  (48) 
O=C([O-])C(=O)CC(=O)c1cccc(Cc2c(O)ccc3ccccc23)c1[O-]

>  <Energy>  (48) 
54.51396868267743

>  <Genealogy>  (48) 
O=C([O-])C(=O)CC(=O)c1cccc(Cc2c(O)ccc3ccccc23)c1[O-] (protonated)
O=C([O-])C(=O)CC(=O)c1cccc(Cc2c(O)ccc3ccccc23)c1[O-] (3D coordinates assigned)
O=C([O-])C(=O)CC(=O)c1cccc(Cc2c(O)ccc3ccccc23)c1[O-] (optimized conformer: 54.51396868267743 kcal/mol)

>  <smiles>  (48) 
O=C(O)C(=O)CC(=O)c1cccc(Cc2c(O)ccc3ccccc23)c1O

>  <score_type>  (48) 
oracle

>  <origin>  (48) 
adg

>  <m_score__min__energy>  (48) 
-14.75

>  <m_primary>  (48) 
energy

$$$$
48:0
     RDKit          3D

 27 27  0  0  0  0  0  0  0  0999 V2000
   55.1650   29.3800   44.9210 O   0  0  0  0  0  0  0  0  0  0  0  0
   55.8680   30.0230   44.1580 C   0  0  0  0  0  0  0  0  0  0  0  0
   57.3480   30.1260   44.3890 C   0  0  0  0  0  0  0  0  0  0  0  0
   57.8250   31.5870   44.4500 C   0  0  0  0  0  0  0  0  0  0  0  0
   57.7560   32.2040   45.8660 C   0  0  0  0  0  0  0  0  0  0  0  0
   58.8610   31.7180   46.7840 C   0  0  0  0  0  0  0  0  0  0  0  0
   58.5700   31.1540   47.8280 O   0  0  0  0  0  0  0  0  0  0  0  0
   60.3110   31.9650   46.4630 C   0  0  0  0  0  0  0  0  0  0  0  0
   60.7890   33.3370   46.9620 C   0  0  0  0  0  0  0  0  0  0  0  0
   60.0420   34.5530   46.3720 C   0  0  0  0  0  0  0  0  0  0  0  0
   58.5420   34.5980   46.7090 C   0  0  0  0  0  0  0  0  0  0  0  0
   57.7400   33.7180   45.7760 C   0  0  0  0  0  0  0  0  0  0  0  0
   57.0760   34.2460   44.8960 O   0  0  0  0  0  0  0  0  0  0  0  0
   55.4138   30.5309   43.2945 H   0  0  0  0  0  0  0  0  0  0  0  0
   57.5933   29.6330   45.3412 H   0  0  0  0  0  0  0  0  0  0  0  0
   57.8569   29.6391   43.5441 H   0  0  0  0  0  0  0  0  0  0  0  0
   58.8685   31.6265   44.1043 H   0  0  0  0  0  0  0  0  0  0  0  0
   57.1489   32.1732   43.8103 H   0  0  0  0  0  0  0  0  0  0  0  0
   56.8157   31.8605   46.3220 H   0  0  0  0  0  0  0  0  0  0  0  0
   60.9183   31.1825   46.9415 H   0  0  0  0  0  0  0  0  0  0  0  0
   60.4233   31.9451   45.3689 H   0  0  0  0  0  0  0  0  0  0  0  0
   60.6678   33.3618   48.0550 H   0  0  0  0  0  0  0  0  0  0  0  0
   61.8336   33.4330   46.6310 H   0  0  0  0  0  0  0  0  0  0  0  0
   60.5106   35.4682   46.7629 H   0  0  0  0  0  0  0  0  0  0  0  0
   60.1169   34.4685   45.2778 H   0  0  0  0  0  0  0  0  0  0  0  0
   58.3968   34.2500   47.7423 H   0  0  0  0  0  0  0  0  0  0  0  0
   58.1922   35.6345   46.5933 H   0  0  0  0  0  0  0  0  0  0  0  0
  1  2  2  0
  2  3  1  0
  3  4  1  0
  4  5  1  0
  5  6  1  0
  6  7  2  0
  6  8  1  0
  8  9  1  0
  9 10  1  0
 10 11  1  0
 11 12  1  0
 12 13  2  0
 12  5  1  0
  2 14  1  0
  3 15  1  0
  3 16  1  0
  4 17  1  0
  4 18  1  0
  5 19  1  0
  8 20  1  0
  8 21  1  0
  9 22  1  0
  9 23  1  0
 10 24  1  0
 10 25  1  0
 11 26  1  0
 11 27  1  0
M  END
>  <UniqueID>  (49) 
49

>  <SMILES>  (49) 
O=CCCC1C(=O)CCCCC1=O

>  <Energy>  (49) 
22.1370272222899

>  <Genealogy>  (49) 
O=CCCC1C(=O)CCCCC1=O (3D coordinates assigned)
O=CCCC1C(=O)CCCCC1=O (nonaromatic ring conformer: 22.1370272222899 kcal/mol)

>  <smiles>  (49) 
O=CCCC1C(=O)CCCCC1=O

>  <score_type>  (49) 
oracle

>  <origin>  (49) 
adg

>  <m_score__min__energy>  (49) 
-4.1299999999999999

>  <m_primary>  (49) 
energy

$$$$
49:0
     RDKit          3D

 38 40  0  0  0  0  0  0  0  0999 V2000
   59.5440   28.0620   45.2480 C   0  0  0  0  0  0  0  0  0  0  0  0
   58.0640   27.8890   45.3530 C   0  0  0  0  0  0  0  0  0  0  0  0
   57.4820   26.7940   45.8760 N   0  0  0  0  0  0  0  0  0  0  0  0
   56.1660   27.0670   45.7840 C   0  0  0  0  0  0  0  0  0  0  0  0
   55.2770   26.2680   46.1780 O   0  0  0  0  0  0  0  0  0  0  0  0
   55.8760   28.2660   45.2410 N   0  0  0  0  0  0  0  0  0  0  0  0
   57.0850   28.7880   44.9620 C   0  0  0  0  0  0  0  0  0  0  0  0
   57.2860   30.1370   44.3830 C   0  0  0  0  0  0  0  0  0  0  0  0
   56.8860   30.3700   43.2110 O   0  0  0  0  0  0  0  0  0  0  0  0
   57.9740   31.2160   45.1330 C   0  0  0  0  0  0  0  0  0  0  0  0
   58.1870   32.4640   44.5230 C   0  0  0  0  0  0  0  0  0  0  0  0
   58.8210   33.4950   45.2230 C   0  0  0  0  0  0  0  0  0  0  0  0
   59.2340   33.3020   46.5460 C   0  0  0  0  0  0  0  0  0  0  0  0
   60.0100   34.6130   47.4370 S   0  0  0  0  0  0  0  0  0  0  0  0
   59.9230   35.8780   46.6280 O   0  0  0  0  0  0  0  0  0  0  0  0
   59.2690   34.8380   48.7270 O   0  0  0  0  0  0  0  0  0  0  0  0
   61.6900   34.2660   47.7890 N   0  0  0  0  0  0  0  0  0  0  0  0
   62.2870   33.4250   46.7470 C   0  0  0  0  0  0  0  0  0  0  0  0
   62.2730   31.9820   47.2280 C   0  0  0  0  0  0  0  0  0  0  0  0
   61.9750   32.0430   48.7130 C   0  0  0  0  0  0  0  0  0  0  0  0
   61.8260   33.5200   49.0450 C   0  0  0  0  0  0  0  0  0  0  0  0
   59.0160   32.0630   47.1620 C   0  0  0  0  0  0  0  0  0  0  0  0
   58.3840   31.0290   46.4650 C   0  0  0  0  0  0  0  0  0  0  0  0
   59.9797   28.1129   46.2568 H   0  0  0  0  0  0  0  0  0  0  0  0
   59.9754   27.2082   44.7050 H   0  0  0  0  0  0  0  0  0  0  0  0
   59.7668   28.9923   44.7050 H   0  0  0  0  0  0  0  0  0  0  0  0
   57.8528   32.6308   43.4883 H   0  0  0  0  0  0  0  0  0  0  0  0
   58.9961   34.4631   44.7310 H   0  0  0  0  0  0  0  0  0  0  0  0
   61.7032   33.5129   45.8189 H   0  0  0  0  0  0  0  0  0  0  0  0
   63.3197   33.7468   46.5473 H   0  0  0  0  0  0  0  0  0  0  0  0
   61.4921   31.4114   46.7040 H   0  0  0  0  0  0  0  0  0  0  0  0
   63.2312   31.4800   47.0282 H   0  0  0  0  0  0  0  0  0  0  0  0
   61.0434   31.5036   48.9393 H   0  0  0  0  0  0  0  0  0  0  0  0
   62.7735   31.5731   49.3060 H   0  0  0  0  0  0  0  0  0  0  0  0
   60.9312   33.6726   49.6664 H   0  0  0  0  0  0  0  0  0  0  0  0
   62.7073   33.8731   49.6005 H   0  0  0  0  0  0  0  0  0  0  0  0
   59.3438   31.9028   48.1997 H   0  0  0  0  0  0  0  0  0  0  0  0
   58.2064   30.0636   46.9614 H   0  0  0  0  0  0  0  0  0  0  0  0
  1  2  1  0
  2  3  1  0
  3  4  1  0
  4  5  2  0
  4  6  1  0
  6  7  1  0
  7  8  1  0
  8  9  2  0
  8 10  1  0
 10 11  2  0
 11 12  1  0
 12 13  2  0
 13 14  1  0
 14 15  2  0
 14 16  2  0
 14 17  1  0
 17 18  1  0
 18 19  1  0
 19 20  1  0
 20 21  1  0
 13 22  1  0
 22 23  2  0
  7  2  2  0
 23 10  1  0
 21 17  1  0
  1 24  1  0
  1 25  1  0
  1 26  1  0
 11 27  1  0
 12 28  1  0
 18 29  1  0
 18 30  1  0
 19 31  1  0
 19 32  1  0
 20 33  1  0
 20 34  1  0
 21 35  1  0
 21 36  1  0
 22 37  1  0
 23 38  1  0
M  CHG  2   3  -1   6  -1
M  END
>  <UniqueID>  (50) 
50

>  <SMILES>  (50) 
Cc1[n-]c(=O)[n-]c1C(=O)c1ccc(S(=O)(=O)N2CCCC2)cc1

>  <Energy>  (50) 
70.85201595549005

>  <Genealogy>  (50) 
Cc1[n-]c(=O)[n-]c1C(=O)c1ccc(S(=O)(=O)N2CCCC2)cc1 (protonated)
Cc1[n-]c(=O)[n-]c1C(=O)c1ccc(S(=O)(=O)N2CCCC2)cc1 (3D coordinates assigned)
Cc1[n-]c(=O)[n-]c1C(=O)c1ccc(S(=O)(=O)N2CCCC2)cc1 (nonaromatic ring conformer: 70.85201595549005 kcal/mol)

>  <smiles>  (50) 
Cc1[nH]c(=O)[nH]c1C(=O)c1ccc(S(=O)(=O)N2CCCC2)cc1

>  <score_type>  (50) 
oracle

>  <origin>  (50) 
adg

>  <m_score__min__energy>  (50) 
-11.82

>  <m_primary>  (50) 
energy

$$$$
50:0
     RDKit          3D

 50 52  0  0  0  0  0  0  0  0999 V2000
   60.4710   28.9690   44.5260 C   0  0  0  0  0  0  0  0  0  0  0  0
   60.2780   29.4320   45.9340 C   0  0  0  0  0  0  0  0  0  0  0  0
   60.9280   30.4980   46.4530 N   0  0  0  0  0  0  0  0  0  0  0  0
   60.5190   30.6030   47.7080 N   0  0  0  0  0  0  0  0  0  0  0  0
   61.0660   31.5550   48.6730 C   0  0  0  0  0  0  0  0  0  0  0  0
   60.0380   32.6570   48.9810 C   0  0  2  0  0  0  0  0  0  0  0  0
   59.0370   32.1700   49.9380 N   0  0  0  0  0  0  0  0  0  0  0  0
   58.8080   32.8010   51.2090 C   0  0  0  0  0  0  0  0  0  0  0  0
   59.3500   33.9050   51.4830 O   0  0  0  0  0  0  0  0  0  0  0  0
   57.8930   32.1660   52.2130 C   0  0  0  0  0  0  0  0  0  0  0  0
   56.9940   31.1230   51.5390 C   0  0  0  0  0  0  0  0  0  0  0  0
   57.7380   29.9070   51.2160 N   0  0  0  0  0  0  0  0  0  0  0  0
   59.3580   33.1380   47.7110 C   0  0  0  0  0  0  0  0  0  0  0  0
   59.9560   34.1440   46.9320 C   0  0  0  0  0  0  0  0  0  0  0  0
   59.3400   34.5950   45.7590 C   0  0  0  0  0  0  0  0  0  0  0  0
   58.1240   34.0400   45.3510 C   0  0  0  0  0  0  0  0  0  0  0  0
   57.5210   33.0400   46.1160 C   0  0  0  0  0  0  0  0  0  0  0  0
   58.1300   32.5920   47.2910 C   0  0  0  0  0  0  0  0  0  0  0  0
   59.6560   29.5990   47.9470 C   0  0  0  0  0  0  0  0  0  0  0  0
   59.1200   29.3730   49.0670 O   0  0  0  0  0  0  0  0  0  0  0  0
   59.4780   28.8360   46.8530 N   0  0  0  0  0  0  0  0  0  0  0  0
   58.6570   27.6630   46.7210 C   0  0  0  0  0  0  0  0  0  0  0  0
   59.2070   26.3820   46.9020 C   0  0  0  0  0  0  0  0  0  0  0  0
   58.4040   25.2450   46.7710 C   0  0  0  0  0  0  0  0  0  0  0  0
   57.0480   25.3760   46.4630 C   0  0  0  0  0  0  0  0  0  0  0  0
   56.4900   26.6470   46.2940 C   0  0  0  0  0  0  0  0  0  0  0  0
   55.1410   26.7790   45.9880 O   0  0  0  0  0  0  0  0  0  0  0  0
   57.2900   27.7880   46.4270 C   0  0  0  0  0  0  0  0  0  0  0  0
   60.8942   27.9537   44.5287 H   0  0  0  0  0  0  0  0  0  0  0  0
   59.5014   28.9607   44.0066 H   0  0  0  0  0  0  0  0  0  0  0  0
   61.1594   29.6519   44.0066 H   0  0  0  0  0  0  0  0  0  0  0  0
   61.3178   31.0241   49.6029 H   0  0  0  0  0  0  0  0  0  0  0  0
   61.9678   32.0177   48.2457 H   0  0  0  0  0  0  0  0  0  0  0  0
   60.5742   33.5072   49.4279 H   0  0  0  0  0  0  0  0  0  0  0  0
   58.5880   31.2430   49.7640 H   0  0  0  0  0  0  0  0  0  0  0  0
   58.4954   31.6752   52.9916 H   0  0  0  0  0  0  0  0  0  0  0  0
   57.2587   32.9465   52.6586 H   0  0  0  0  0  0  0  0  0  0  0  0
   56.1691   30.8676   52.2204 H   0  0  0  0  0  0  0  0  0  0  0  0
   56.6079   31.5519   50.6025 H   0  0  0  0  0  0  0  0  0  0  0  0
   57.3880   29.5300   50.3060 H   0  0  0  0  0  0  0  0  0  0  0  0
   58.7470   30.1530   51.0890 H   0  0  0  0  0  0  0  0  0  0  0  0
   60.9155   34.5801   47.2469 H   0  0  0  0  0  0  0  0  0  0  0  0
   59.8128   35.3860   45.1584 H   0  0  0  0  0  0  0  0  0  0  0  0
   57.6419   34.3912   44.4268 H   0  0  0  0  0  0  0  0  0  0  0  0
   56.5642   32.6038   45.7930 H   0  0  0  0  0  0  0  0  0  0  0  0
   57.6469   31.8075   47.8919 H   0  0  0  0  0  0  0  0  0  0  0  0
   60.2737   26.2737   47.1478 H   0  0  0  0  0  0  0  0  0  0  0  0
   58.8410   24.2453   46.9108 H   0  0  0  0  0  0  0  0  0  0  0  0
   56.4194   24.4800   46.3534 H   0  0  0  0  0  0  0  0  0  0  0  0
   56.8458   28.7864   46.3007 H   0  0  0  0  0  0  0  0  0  0  0  0
  1  2  1  0
  2  3  2  0
  3  4  1  0
  4  5  1  0
  5  6  1  0
  6  7  1  0
  7  8  1  0
  8  9  2  0
  8 10  1  0
 10 11  1  0
 11 12  1  0
  6 13  1  0
 13 14  2  0
 14 15  1  0
 15 16  2  0
 16 17  1  0
 17 18  2  0
  4 19  1  0
 19 20  2  0
 19 21  1  0
 21 22  1  0
 22 23  2  0
 23 24  1  0
 24 25  2  0
 25 26  1  0
 26 27  1  0
 26 28  2  0
 21  2  1  0
 28 22  1  0
 18 13  1  0
  1 29  1  0
  1 30  1  0
  1 31  1  0
  5 32  1  0
  5 33  1  0
  6 34  1  1
  7 35  1  0
 10 36  1  0
 10 37  1  0
 11 38  1  0
 11 39  1  0
 12 40  1  0
 12 41  1  0
 14 42  1  0
 15 43  1  0
 16 44  1  0
 17 45  1  0
 18 46  1  0
 23 47  1  0
 24 48  1  0
 25 49  1  0
 28 50  1  0
M  CHG  1  27  -1
M  END
>  <UniqueID>  (51) 
51

>  <SMILES>  (51) 
Cc1nn(C[C@H](NC(=O)CCN)c2ccccc2)c(=O)n1-c1cccc([O-])c1

>  <Energy>  (51) 
85.71051310554823

>  <Genealogy>  (51) 
Cc1nn(CC(NC(=O)CCN)c2ccccc2)c(=O)n1-c1cccc([O-])c1 (protonated)
Cc1nn(C[C@H](NC(=O)CCN)c2ccccc2)c(=O)n1-c1cccc([O-])c1 (chirality)
Cc1nn(C[C@H](NC(=O)CCN)c2ccccc2)c(=O)n1-c1cccc([O-])c1 (3D coordinates assigned)
Cc1nn(C[C@H](NC(=O)CCN)c2ccccc2)c(=O)n1-c1cccc([O-])c1 (optimized conformer: 85.71051310554823 kcal/mol)

>  <smiles>  (51) 
Cc1nn(CC(NC(=O)CCN)c2ccccc2)c(=O)n1-c1cccc(O)c1

>  <score_type>  (51) 
oracle

>  <origin>  (51) 
adg

>  <m_score__min__energy>  (51) 
-11.24

>  <m_primary>  (51) 
energy

$$$$
51:0
     RDKit          3D

 51 54  0  0  0  0  0  0  0  0999 V2000
   54.4540   24.5970   45.5150 C   0  0  0  0  0  0  0  0  0  0  0  0
   54.3930   25.9910   45.6770 O   0  0  0  0  0  0  0  0  0  0  0  0
   55.5050   26.3430   46.3740 N   0  0  0  0  0  0  0  0  0  0  0  0
   56.7060   26.7700   45.7250 C   0  0  0  0  0  0  0  0  0  0  0  0
   57.4900   25.9010   45.2610 O   0  0  0  0  0  0  0  0  0  0  0  0
   57.0170   28.2020   45.5590 C   0  0  0  0  0  0  0  0  0  0  0  0
   56.2670   29.0700   44.7700 C   0  0  0  0  0  0  0  0  0  0  0  0
   56.9460   30.2660   44.8010 C   0  0  0  0  0  0  0  0  0  0  0  0
   56.6670   31.4730   44.1670 C   0  0  0  0  0  0  0  0  0  0  0  0
   57.5610   32.5400   44.3570 C   0  0  0  0  0  0  0  0  0  0  0  0
   58.7170   32.3850   45.1700 C   0  0  0  0  0  0  0  0  0  0  0  0
   59.6480   33.4610   45.3770 N   0  0  0  0  0  0  0  0  0  0  0  0
   59.7990   34.3430   46.8640 S   0  0  0  0  0  0  0  0  0  0  0  0
   58.6180   34.0310   47.7410 O   0  0  0  0  0  0  0  0  0  0  0  0
   59.8120   35.8160   46.5660 O   0  0  0  0  0  0  0  0  0  0  0  0
   61.3020   33.9160   47.6740 C   0  0  0  0  0  0  0  0  0  0  0  0
   61.5030   34.2730   49.0160 C   0  0  0  0  0  0  0  0  0  0  0  0
   62.7010   33.9440   49.6580 C   0  0  0  0  0  0  0  0  0  0  0  0
   63.7000   33.2500   48.9670 C   0  0  0  0  0  0  0  0  0  0  0  0
   65.2010   32.8380   49.7750 Cl  0  0  0  0  0  0  0  0  0  0  0  0
   63.4990   32.8840   47.6320 C   0  0  0  0  0  0  0  0  0  0  0  0
   62.3030   33.2170   46.9870 C   0  0  0  0  0  0  0  0  0  0  0  0
   58.9670   31.1390   45.7860 C   0  0  0  0  0  0  0  0  0  0  0  0
   58.0540   30.0980   45.5890 C   0  0  0  0  0  0  0  0  0  0  0  0
   58.1050   28.8390   46.0710 N   0  0  0  0  0  0  0  0  0  0  0  0
   59.2830   28.2240   47.1980 S   0  0  0  0  0  0  0  0  0  0  0  0
   60.5410   27.8150   46.4850 O   0  0  0  0  0  0  0  0  0  0  0  0
   58.7140   27.0080   47.8770 O   0  0  0  0  0  0  0  0  0  0  0  0
   59.6570   29.4590   48.3940 C   0  0  0  0  0  0  0  0  0  0  0  0
   58.6250   30.0750   49.1180 C   0  0  0  0  0  0  0  0  0  0  0  0
   58.9220   31.0580   50.0670 C   0  0  0  0  0  0  0  0  0  0  0  0
   60.2500   31.4270   50.3000 C   0  0  0  0  0  0  0  0  0  0  0  0
   61.2820   30.8160   49.5810 C   0  0  0  0  0  0  0  0  0  0  0  0
   60.9880   29.8360   48.6280 C   0  0  0  0  0  0  0  0  0  0  0  0
   54.4751   24.1136   46.5029 H   0  0  0  0  0  0  0  0  0  0  0  0
   53.5700   24.2536   44.9576 H   0  0  0  0  0  0  0  0  0  0  0  0
   55.3646   24.3321   44.9576 H   0  0  0  0  0  0  0  0  0  0  0  0
   55.3315   28.8471   44.2360 H   0  0  0  0  0  0  0  0  0  0  0  0
   55.7733   31.5882   43.5360 H   0  0  0  0  0  0  0  0  0  0  0  0
   57.3642   33.5069   43.8709 H   0  0  0  0  0  0  0  0  0  0  0  0
   60.3340   33.6880   44.6230 H   0  0  0  0  0  0  0  0  0  0  0  0
   60.7167   34.8127   49.5641 H   0  0  0  0  0  0  0  0  0  0  0  0
   62.8581   34.2314   50.7081 H   0  0  0  0  0  0  0  0  0  0  0  0
   64.2817   32.3340   47.0890 H   0  0  0  0  0  0  0  0  0  0  0  0
   62.1481   32.9290   45.9367 H   0  0  0  0  0  0  0  0  0  0  0  0
   59.8618   30.9902   46.4082 H   0  0  0  0  0  0  0  0  0  0  0  0
   57.5795   29.7838   48.9386 H   0  0  0  0  0  0  0  0  0  0  0  0
   58.1102   31.5412   50.6305 H   0  0  0  0  0  0  0  0  0  0  0  0
   60.4832   32.1981   51.0490 H   0  0  0  0  0  0  0  0  0  0  0  0
   62.3267   31.1068   49.7654 H   0  0  0  0  0  0  0  0  0  0  0  0
   61.8015   29.3599   48.0609 H   0  0  0  0  0  0  0  0  0  0  0  0
  1  2  1  0
  2  3  1  0
  3  4  1  0
  4  5  2  0
  4  6  1  0
  6  7  2  0
  7  8  1  0
  8  9  2  0
  9 10  1  0
 10 11  2  0
 11 12  1  0
 12 13  1  0
 13 14  2  0
 13 15  2  0
 13 16  1  0
 16 17  2  0
 17 18  1  0
 18 19  2  0
 19 20  1  0
 19 21  1  0
 21 22  2  0
 11 23  1  0
 23 24  2  0
 24 25  1  0
 25 26  1  0
 26 27  2  0
 26 28  2  0
 26 29  1  0
 29 30  2  0
 30 31  1  0
 31 32  2  0
 32 33  1  0
 33 34  2  0
 25  6  1  0
 34 29  1  0
 24  8  1  0
 22 16  1  0
  1 35  1  0
  1 36  1  0
  1 37  1  0
  7 38  1  0
  9 39  1  0
 10 40  1  0
 12 41  1  0
 17 42  1  0
 18 43  1  0
 21 44  1  0
 22 45  1  0
 23 46  1  0
 30 47  1  0
 31 48  1  0
 32 49  1  0
 33 50  1  0
 34 51  1  0
M  CHG  1   3  -1
M  END
>  <UniqueID>  (52) 
52

>  <SMILES>  (52) 
CO[N-]C(=O)c1cc2ccc(NS(=O)(=O)c3ccc(Cl)cc3)cc2n1S(=O)(=O)c1ccccc1

>  <Energy>  (52) 
96.25069611572658

>  <Genealogy>  (52) 
CO[N-]C(=O)c1cc2ccc(NS(=O)(=O)c3ccc(Cl)cc3)cc2n1S(=O)(=O)c1ccccc1 (protonated)
CO[N-]C(=O)c1cc2ccc(NS(=O)(=O)c3ccc(Cl)cc3)cc2n1S(=O)(=O)c1ccccc1 (3D coordinates assigned)
CO[N-]C(=O)c1cc2ccc(NS(=O)(=O)c3ccc(Cl)cc3)cc2n1S(=O)(=O)c1ccccc1 (optimized conformer: 96.25069611572658 kcal/mol)

>  <smiles>  (52) 
CONC(=O)c1cc2ccc(NS(=O)(=O)c3ccc(Cl)cc3)cc2n1S(=O)(=O)c1ccccc1

>  <score_type>  (52) 
oracle

>  <origin>  (52) 
adg

>  <m_score__min__energy>  (52) 
-12.56

>  <m_primary>  (52) 
energy

$$$$
52:0
     RDKit          3D

 42 44  0  0  0  0  0  0  0  0999 V2000
   60.0390   33.9100   49.3250 C   0  0  0  0  0  0  0  0  0  0  0  0
   59.4420   32.6490   48.6940 C   0  0  0  0  0  0  0  0  0  0  0  0
   58.5210   33.0040   47.5240 C   0  0  0  0  0  0  0  0  0  0  0  0
   58.6970   31.8520   49.7250 C   0  0  0  0  0  0  0  0  0  0  0  0
   57.9790   32.3920   50.7300 N   0  0  0  0  0  0  0  0  0  0  0  0
   57.5290   31.2830   51.3550 C   0  0  0  0  0  0  0  0  0  0  0  0
   56.6480   31.3180   52.5740 C   0  0  2  0  0  0  0  0  0  0  0  0
   57.4850   31.5240   53.8700 C   0  0  0  0  0  0  0  0  0  0  0  0
   57.2940   30.4050   54.9050 C   0  0  0  0  0  0  0  0  0  0  0  0
   55.8050   30.1450   55.1650 C   0  0  0  0  0  0  0  0  0  0  0  0
   55.0560   29.9940   53.9070 N   0  0  0  0  0  0  0  0  0  0  0  0
   53.6190   30.0070   53.9330 C   0  0  0  0  0  0  0  0  0  0  0  0
   53.0120   29.5060   54.9180 O   0  0  0  0  0  0  0  0  0  0  0  0
   52.8320   30.5820   52.8250 C   0  0  0  0  0  0  0  0  0  0  0  0
   52.9020   30.0500   51.5280 C   0  0  0  0  0  0  0  0  0  0  0  0
   52.1560   30.6370   50.5050 C   0  0  0  0  0  0  0  0  0  0  0  0
   51.3580   31.7510   50.7740 C   0  0  0  0  0  0  0  0  0  0  0  0
   50.6140   32.3380   49.7570 O   0  0  0  0  0  0  0  0  0  0  0  0
   51.3240   32.2670   52.0750 C   0  0  0  0  0  0  0  0  0  0  0  0
   50.6180   33.2760   52.3400 O   0  0  0  0  0  0  0  0  0  0  0  0
   52.0580   31.6790   53.0570 N   0  0  0  0  0  0  0  0  0  0  0  0
   55.7640   30.0580   52.6230 C   0  0  0  0  0  0  0  0  0  0  0  0
   57.9500   30.1470   50.7650 N   0  0  0  0  0  0  0  0  0  0  0  0
   58.6710   30.5420   49.7600 O   0  0  0  0  0  0  0  0  0  0  0  0
   59.9991   33.8257   50.4210 H   0  0  0  0  0  0  0  0  0  0  0  0
   61.0852   34.0208   49.0036 H   0  0  0  0  0  0  0  0  0  0  0  0
   59.4616   34.7894   49.0036 H   0  0  0  0  0  0  0  0  0  0  0  0
   60.2684   32.0369   48.3035 H   0  0  0  0  0  0  0  0  0  0  0  0
   57.5607   33.3741   47.9125 H   0  0  0  0  0  0  0  0  0  0  0  0
   58.9932   33.7845   46.9094 H   0  0  0  0  0  0  0  0  0  0  0  0
   58.3472   32.1084   46.9094 H   0  0  0  0  0  0  0  0  0  0  0  0
   55.9756   32.1860   52.5077 H   0  0  0  0  0  0  0  0  0  0  0  0
   58.5491   31.5661   53.5946 H   0  0  0  0  0  0  0  0  0  0  0  0
   57.1381   32.4586   54.3350 H   0  0  0  0  0  0  0  0  0  0  0  0
   57.7597   29.4826   54.5276 H   0  0  0  0  0  0  0  0  0  0  0  0
   57.7654   30.7164   55.8488 H   0  0  0  0  0  0  0  0  0  0  0  0
   55.7010   29.2230   55.7558 H   0  0  0  0  0  0  0  0  0  0  0  0
   55.3941   31.0077   55.7099 H   0  0  0  0  0  0  0  0  0  0  0  0
   53.5393   29.1780   51.3197 H   0  0  0  0  0  0  0  0  0  0  0  0
   52.1966   30.2223   49.4870 H   0  0  0  0  0  0  0  0  0  0  0  0
   56.3958   29.1646   52.5099 H   0  0  0  0  0  0  0  0  0  0  0  0
   55.0288   30.0995   51.8058 H   0  0  0  0  0  0  0  0  0  0  0  0
  1  2  1  0
  2  3  1  0
  2  4  1  0
  4  5  2  0
  5  6  1  0
  6  7  1  0
  7  8  1  0
  8  9  1  0
  9 10  1  0
 10 11  1  0
 11 12  1  0
 12 13  2  0
 12 14  1  0
 14 15  2  0
 15 16  1  0
 16 17  2  0
 17 18  1  0
 17 19  1  0
 19 20  2  0
 19 21  1  0
 11 22  1  0
  6 23  2  0
 23 24  1  0
 24  4  1  0
 22  7  1  0
 21 14  1  0
  1 25  1  0
  1 26  1  0
  1 27  1  0
  2 28  1  0
  3 29  1  0
  3 30  1  0
  3 31  1  0
  7 32  1  6
  8 33  1  0
  8 34  1  0
  9 35  1  0
  9 36  1  0
 10 37  1  0
 10 38  1  0
 15 39  1  0
 16 40  1  0
 22 41  1  0
 22 42  1  0
M  CHG  2  18  -1  21  -1
M  END
>  <UniqueID>  (53) 
53

>  <SMILES>  (53) 
CC(C)c1nc([C@@H]2CCCN(C(=O)c3ccc([O-])c(=O)[n-]3)C2)no1

>  <Energy>  (53) 
78.45976262026575

>  <Genealogy>  (53) 
CC(C)c1nc(C2CCCN(C(=O)c3ccc([O-])c(=O)[n-]3)C2)no1 (protonated)
CC(C)c1nc([C@@H]2CCCN(C(=O)c3ccc([O-])c(=O)[n-]3)C2)no1 (chirality)
CC(C)c1nc([C@@H]2CCCN(C(=O)c3ccc([O-])c(=O)[n-]3)C2)no1 (3D coordinates assigned)
CC(C)c1nc([C@@H]2CCCN(C(=O)c3ccc([O-])c(=O)[n-]3)C2)no1 (nonaromatic ring conformer: 78.45976262026575 kcal/mol)

>  <smiles>  (53) 
CC(C)c1nc(C2CCCN(C(=O)c3ccc(O)c(=O)[nH]3)C2)no1

>  <score_type>  (53) 
oracle

>  <origin>  (53) 
adg

>  <m_score__min__energy>  (53) 
-13.16

>  <m_primary>  (53) 
energy

$$$$
53:0
     RDKit          3D

 51 54  0  0  1  0  0  0  0  0999 V2000
   57.2980   21.4710   44.4060 C   0  0  0  0  0  0  0  0  0  0  0  0
   56.4930   22.6450   44.7460 C   0  0  0  0  0  0  0  0  0  0  0  0
   55.1280   22.6310   44.6390 N   0  0  0  0  0  0  0  0  0  0  0  0
   54.3530   23.6560   44.9300 N   0  0  0  0  0  0  0  0  0  0  0  0
   54.8310   24.8350   45.3650 C   0  0  0  0  0  0  0  0  0  0  0  0
   54.0550   25.7900   45.6330 O   0  0  0  0  0  0  0  0  0  0  0  0
   56.2020   24.9200   45.4970 C   0  0  0  0  0  0  0  0  0  0  0  0
   56.6970   26.1040   45.9350 N   0  0  0  0  0  0  0  0  0  0  0  0
   58.0320   26.2420   46.0800 C   0  0  0  0  0  0  0  0  0  0  0  0
   58.6070   27.5300   46.5560 C   0  0  0  0  0  0  0  0  0  0  0  0
   59.7700   27.4490   47.0080 O   0  0  0  0  0  0  0  0  0  0  0  0
   57.7970   28.6520   46.4540 N   0  0  0  0  0  0  0  0  0  0  0  0
   57.5260   29.3480   45.4530 C   0  0  0  0  0  0  0  0  0  0  0  0
   56.8790   28.7280   44.4190 N   0  0  0  0  0  0  0  0  0  0  0  0
   56.5110   29.3590   43.3010 C   0  0  0  0  0  0  0  0  0  0  0  0
   56.8060   30.6990   43.2000 C   0  0  0  0  0  0  0  0  0  0  0  0
   57.4570   31.3370   44.2290 C   0  0  0  0  0  0  0  0  0  0  0  0
   57.8430   30.6670   45.4060 C   0  0  0  0  0  0  0  0  0  0  0  0
   58.5200   31.4540   46.3370 N   0  0  0  0  0  0  0  0  0  0  0  0
   59.3600   31.0220   47.4270 C   0  0  0  0  0  0  0  0  0  0  0  0
   60.7320   31.6990   47.1940 C   0  0  0  0  0  0  0  0  0  0  0  0
   60.5700   33.1280   47.3030 N   0  0  0  0  0  0  0  0  0  0  0  0
   61.4460   33.8270   46.3930 C   0  0  0  0  0  0  0  0  0  0  0  0
   59.2200   33.5970   47.2710 C   0  0  0  0  0  0  0  0  0  0  0  0
   58.4290   32.9200   46.1620 C   0  0  0  0  0  0  0  0  0  0  0  0
   58.8090   25.1990   45.7850 N   0  0  0  0  0  0  0  0  0  0  0  0
   58.4070   23.9910   45.3470 C   0  0  0  0  0  0  0  0  0  0  0  0
   59.3570   22.9090   45.0530 C   0  0  0  0  0  0  0  0  0  0  0  0
   57.0190   23.8490   45.1940 C   0  0  0  0  0  0  0  0  0  0  0  0
   57.6359   20.9782   45.3295 H   0  0  0  0  0  0  0  0  0  0  0  0
   56.6908   20.7683   43.8165 H   0  0  0  0  0  0  0  0  0  0  0  0
   58.1723   21.7841   43.8165 H   0  0  0  0  0  0  0  0  0  0  0  0
   53.3090   23.5260   44.8070 H   0  0  0  0  0  0  0  0  0  0  0  0
   56.6490   27.7050   44.4870 H   0  0  0  0  0  0  0  0  0  0  0  0
   55.9911   28.8269   42.4907 H   0  0  0  0  0  0  0  0  0  0  0  0
   56.5213   31.2591   42.2971 H   0  0  0  0  0  0  0  0  0  0  0  0
   57.6844   32.4086   44.1295 H   0  0  0  0  0  0  0  0  0  0  0  0
   58.9335   31.3413   48.3894 H   0  0  0  0  0  0  0  0  0  0  0  0
   59.4491   29.9261   47.4605 H   0  0  0  0  0  0  0  0  0  0  0  0
   61.4499   31.3496   47.9507 H   0  0  0  0  0  0  0  0  0  0  0  0
   61.1108   31.4411   46.1940 H   0  0  0  0  0  0  0  0  0  0  0  0
   62.1795   34.4123   46.9670 H   0  0  0  0  0  0  0  0  0  0  0  0
   61.9732   33.0986   45.7593 H   0  0  0  0  0  0  0  0  0  0  0  0
   60.8528   34.5027   45.7593 H   0  0  0  0  0  0  0  0  0  0  0  0
   58.7415   33.3795   48.2373 H   0  0  0  0  0  0  0  0  0  0  0  0
   59.2318   34.6801   47.0794 H   0  0  0  0  0  0  0  0  0  0  0  0
   57.3760   33.2338   46.2146 H   0  0  0  0  0  0  0  0  0  0  0  0
   58.8401   33.2053   45.1824 H   0  0  0  0  0  0  0  0  0  0  0  0
   59.7309   22.4831   45.9958 H   0  0  0  0  0  0  0  0  0  0  0  0
   58.8507   22.1244   44.4716 H   0  0  0  0  0  0  0  0  0  0  0  0
   60.2005   23.3096   44.4716 H   0  0  0  0  0  0  0  0  0  0  0  0
  1  2  1  0
  2  3  2  0
  3  4  1  0
  4  5  1  0
  5  6  2  0
  5  7  1  0
  7  8  2  0
  8  9  1  0
  9 10  1  0
 10 11  2  0
 10 12  1  0
 12 13  2  0
 13 14  1  0
 14 15  1  0
 15 16  2  0
 16 17  1  0
 17 18  2  0
 18 19  1  0
 19 20  1  0
 20 21  1  0
 21 22  1  0
 22 23  1  0
 22 24  1  0
 24 25  1  0
  9 26  2  0
 26 27  1  0
 27 28  1  0
 27 29  2  0
 29  2  1  0
 29  7  1  0
 18 13  1  0
 25 19  1  0
  1 30  1  0
  1 31  1  0
  1 32  1  0
  4 33  1  0
 14 34  1  0
 15 35  1  0
 16 36  1  0
 17 37  1  0
 20 38  1  0
 20 39  1  0
 21 40  1  0
 21 41  1  0
 23 42  1  0
 23 43  1  0
 23 44  1  0
 24 45  1  0
 24 46  1  0
 25 47  1  0
 25 48  1  0
 28 49  1  0
 28 50  1  0
 28 51  1  0
M  END
>  <smiles>  (54) 
Cc1n[nH]c(=O)c2nc(C(=O)N=c3[nH]cccc3N3CCN(C)CC3)nc(C)c12

>  <score_type>  (54) 
oracle

>  <origin>  (54) 
adg

>  <m_score__min__energy>  (54) 
-8.4399999999999995

>  <m_primary>  (54) 
energy

$$$$
54:0
     RDKit          3D

 43 45  0  0  0  0  0  0  0  0999 V2000
   59.2820   33.1480   50.7330 C   0  0  0  0  0  0  0  0  0  0  0  0
   60.2080   33.8400   49.9010 O   0  0  0  0  0  0  0  0  0  0  0  0
   60.1310   33.9060   48.5000 C   0  0  0  0  0  0  0  0  0  0  0  0
   58.8920   33.9660   47.8310 C   0  0  0  0  0  0  0  0  0  0  0  0
   58.8430   34.0170   46.4360 C   0  0  0  0  0  0  0  0  0  0  0  0
   60.0220   34.0080   45.6930 C   0  0  0  0  0  0  0  0  0  0  0  0
   61.2570   33.9490   46.3430 C   0  0  0  0  0  0  0  0  0  0  0  0
   61.3220   33.9060   47.7430 C   0  0  0  0  0  0  0  0  0  0  0  0
   62.9050   33.7840   48.5240 S   0  0  0  0  0  0  0  0  0  0  0  0
   63.9770   34.1740   47.5450 O   0  0  0  0  0  0  0  0  0  0  0  0
   62.9800   34.7170   49.7010 O   0  0  0  0  0  0  0  0  0  0  0  0
   63.1930   32.1080   49.0650 C   0  0  0  0  0  0  0  0  0  0  0  0
   62.0150   31.2530   48.7310 C   0  0  0  0  0  0  0  0  0  0  0  0
   61.4100   30.3440   49.5770 C   0  0  0  0  0  0  0  0  0  0  0  0
   60.4190   29.7430   48.8310 C   0  0  0  0  0  0  0  0  0  0  0  0
   60.4870   30.3230   47.5770 C   0  0  0  0  0  0  0  0  0  0  0  0
   59.6520   29.9770   46.4200 C   0  0  0  0  0  0  0  0  0  0  0  0
   59.9470   28.9750   45.7140 O   0  0  0  0  0  0  0  0  0  0  0  0
   58.4950   30.7700   46.1090 N   0  0  0  0  0  0  0  0  0  0  0  0
   57.8440   30.7700   44.8280 C   0  0  0  0  0  0  0  0  0  0  0  0
   57.0050   29.7110   44.4300 C   0  0  0  0  0  0  0  0  0  0  0  0
   56.4060   29.7220   43.1660 C   0  0  0  0  0  0  0  0  0  0  0  0
   56.6480   30.7790   42.2860 C   0  0  0  0  0  0  0  0  0  0  0  0
   57.4960   31.8230   42.6640 C   0  0  0  0  0  0  0  0  0  0  0  0
   58.0970   31.8160   43.9260 C   0  0  0  0  0  0  0  0  0  0  0  0
   61.4450   31.2210   47.5480 O   0  0  0  0  0  0  0  0  0  0  0  0
   59.5289   33.3325   51.7889 H   0  0  0  0  0  0  0  0  0  0  0  0
   58.2633   33.5080   50.5263 H   0  0  0  0  0  0  0  0  0  0  0  0
   59.3386   32.0691   50.5263 H   0  0  0  0  0  0  0  0  0  0  0  0
   57.9575   33.9727   48.4112 H   0  0  0  0  0  0  0  0  0  0  0  0
   57.8713   34.0644   45.9226 H   0  0  0  0  0  0  0  0  0  0  0  0
   59.9801   34.0474   44.5945 H   0  0  0  0  0  0  0  0  0  0  0  0
   62.1850   33.9362   45.7525 H   0  0  0  0  0  0  0  0  0  0  0  0
   64.0860   31.7108   48.5602 H   0  0  0  0  0  0  0  0  0  0  0  0
   63.3459   32.1018   50.1543 H   0  0  0  0  0  0  0  0  0  0  0  0
   61.6659   30.1418   50.6275 H   0  0  0  0  0  0  0  0  0  0  0  0
   59.7185   28.9630   49.1641 H   0  0  0  0  0  0  0  0  0  0  0  0
   58.0760   31.3470   46.8730 H   0  0  0  0  0  0  0  0  0  0  0  0
   56.8200   28.8715   45.1163 H   0  0  0  0  0  0  0  0  0  0  0  0
   55.7436   28.8971   42.8648 H   0  0  0  0  0  0  0  0  0  0  0  0
   56.1708   30.7896   41.2949 H   0  0  0  0  0  0  0  0  0  0  0  0
   57.6910   32.6517   41.9675 H   0  0  0  0  0  0  0  0  0  0  0  0
   58.7724   32.6350   44.2143 H   0  0  0  0  0  0  0  0  0  0  0  0
  1  2  1  0
  2  3  1  0
  3  4  2  0
  4  5  1  0
  5  6  2  0
  6  7  1  0
  7  8  2  0
  8  9  1  0
  9 10  2  0
  9 11  2  0
  9 12  1  0
 12 13  1  0
 13 14  2  0
 14 15  1  0
 15 16  2  0
 16 17  1  0
 17 18  2  0
 17 19  1  0
 19 20  1  0
 20 21  2  0
 21 22  1  0
 22 23  2  0
 23 24  1  0
 24 25  2  0
 16 26  1  0
  8  3  1  0
 26 13  1  0
 25 20  1  0
  1 27  1  0
  1 28  1  0
  1 29  1  0
  4 30  1  0
  5 31  1  0
  6 32  1  0
  7 33  1  0
 12 34  1  0
 12 35  1  0
 14 36  1  0
 15 37  1  0
 19 38  1  0
 21 39  1  0
 22 40  1  0
 23 41  1  0
 24 42  1  0
 25 43  1  0
M  END
>  <UniqueID>  (55) 
54

>  <SMILES>  (55) 
COc1ccccc1S(=O)(=O)Cc1ccc(C(=O)Nc2ccccc2)o1

>  <Energy>  (55) 
67.02173457155344

>  <Genealogy>  (55) 
COc1ccccc1S(=O)(=O)Cc1ccc(C(=O)Nc2ccccc2)o1 (3D coordinates assigned)
COc1ccccc1S(=O)(=O)Cc1ccc(C(=O)Nc2ccccc2)o1 (optimized conformer: 67.02173457155344 kcal/mol)

>  <smiles>  (55) 
COc1ccccc1S(=O)(=O)Cc1ccc(C(=O)Nc2ccccc2)o1

>  <score_type>  (55) 
oracle

>  <origin>  (55) 
adg

>  <m_score__min__energy>  (55) 
-8.8100000000000005

>  <m_primary>  (55) 
energy

$$$$
55:0
     RDKit          3D

 54 57  0  0  0  0  0  0  0  0999 V2000
   56.8590   29.4550   43.2670 O   0  0  0  0  0  0  0  0  0  0  0  0
   56.3450   29.6820   44.3930 C   0  0  0  0  0  0  0  0  0  0  0  0
   56.1790   31.0440   44.8150 N   0  0  0  0  0  0  0  0  0  0  0  0
   57.2090   31.9340   45.2650 C   0  0  0  0  0  0  0  0  0  0  0  0
   57.0160   33.3250   45.3100 C   0  0  0  0  0  0  0  0  0  0  0  0
   58.0830   34.1700   45.6260 C   0  0  0  0  0  0  0  0  0  0  0  0
   59.3410   33.6340   45.9430 C   0  0  0  0  0  0  0  0  0  0  0  0
   60.5140   34.5410   46.2010 C   0  0  0  0  0  0  0  0  0  0  0  0
   61.4510   33.9060   47.1960 C   0  0  0  0  0  0  0  0  0  0  0  0
   62.4900   33.0680   46.7600 C   0  0  0  0  0  0  0  0  0  0  0  0
   63.3690   32.5200   47.6970 C   0  0  0  0  0  0  0  0  0  0  0  0
   63.2230   32.8050   49.0190 N   0  0  0  0  0  0  0  0  0  0  0  0
   62.2320   33.6210   49.4670 C   0  0  0  0  0  0  0  0  0  0  0  0
   61.3320   34.1910   48.5640 C   0  0  0  0  0  0  0  0  0  0  0  0
   59.5120   32.2420   45.9570 C   0  0  0  0  0  0  0  0  0  0  0  0
   58.4490   31.3990   45.6320 C   0  0  0  0  0  0  0  0  0  0  0  0
   55.9330   28.5640   45.1980 N   0  0  0  0  0  0  0  0  0  0  0  0
   56.7780   27.6800   45.9490 C   0  0  0  0  0  0  0  0  0  0  0  0
   56.6060   26.3000   45.8020 C   0  0  0  0  0  0  0  0  0  0  0  0
   57.4690   25.4120   46.4430 C   0  0  0  0  0  0  0  0  0  0  0  0
   58.5080   25.8950   47.2420 C   0  0  0  0  0  0  0  0  0  0  0  0
   58.6710   27.2780   47.4430 C   0  0  0  0  0  0  0  0  0  0  0  0
   59.7970   27.8100   48.2530 C   0  0  0  0  0  0  0  0  0  0  0  0
   60.5090   27.0120   48.9160 O   0  0  0  0  0  0  0  0  0  0  0  0
   60.0740   29.2120   48.3540 N   0  0  0  0  0  0  0  0  0  0  0  0
   59.4030   30.1540   49.2030 C   0  0  0  0  0  0  0  0  0  0  0  0
   59.6060   31.5190   48.9910 C   0  0  0  0  0  0  0  0  0  0  0  0
   58.9880   32.4590   49.8150 C   0  0  0  0  0  0  0  0  0  0  0  0
   58.1470   32.0540   50.8570 C   0  0  0  0  0  0  0  0  0  0  0  0
   57.6320   33.0430   51.6960 O   0  0  0  0  0  0  0  0  0  0  0  0
   57.8800   30.6740   51.0450 C   0  0  0  0  0  0  0  0  0  0  0  0
   56.9230   30.1800   52.0610 C   0  0  0  0  0  0  0  0  0  0  0  0
   56.8950   28.9550   52.3590 O   0  0  0  0  0  0  0  0  0  0  0  0
   55.9930   31.0340   52.6380 O   0  0  0  0  0  0  0  0  0  0  0  0
   58.5210   29.7370   50.2130 C   0  0  0  0  0  0  0  0  0  0  0  0
   57.7820   28.1650   46.8050 C   0  0  0  0  0  0  0  0  0  0  0  0
   56.0239   33.7492   45.0962 H   0  0  0  0  0  0  0  0  0  0  0  0
   57.9365   35.2602   45.6264 H   0  0  0  0  0  0  0  0  0  0  0  0
   61.0510   34.7185   45.2575 H   0  0  0  0  0  0  0  0  0  0  0  0
   60.1485   35.4949   46.6089 H   0  0  0  0  0  0  0  0  0  0  0  0
   62.6106   32.8450   45.6896 H   0  0  0  0  0  0  0  0  0  0  0  0
   64.1811   31.8565   47.3651 H   0  0  0  0  0  0  0  0  0  0  0  0
   62.1390   33.8325   50.5425 H   0  0  0  0  0  0  0  0  0  0  0  0
   60.5352   34.8589   48.9233 H   0  0  0  0  0  0  0  0  0  0  0  0
   60.4887   31.8130   46.2255 H   0  0  0  0  0  0  0  0  0  0  0  0
   58.5862   30.3081   45.6644 H   0  0  0  0  0  0  0  0  0  0  0  0
   55.7866   25.9135   45.1782 H   0  0  0  0  0  0  0  0  0  0  0  0
   57.3312   24.3277   46.3191 H   0  0  0  0  0  0  0  0  0  0  0  0
   59.2042   25.1886   47.7178 H   0  0  0  0  0  0  0  0  0  0  0  0
   60.2566   31.8545   48.1700 H   0  0  0  0  0  0  0  0  0  0  0  0
   59.1638   33.5313   49.6437 H   0  0  0  0  0  0  0  0  0  0  0  0
   56.7990   32.9240   52.2550 H   0  0  0  0  0  0  0  0  0  0  0  0
   58.3284   28.6635   50.3559 H   0  0  0  0  0  0  0  0  0  0  0  0
   57.8743   29.2473   46.9782 H   0  0  0  0  0  0  0  0  0  0  0  0
  1  2  2  0
  2  3  1  0
  3  4  1  0
  4  5  2  0
  5  6  1  0
  6  7  2  0
  7  8  1  0
  8  9  1  0
  9 10  2  0
 10 11  1  0
 11 12  2  0
 12 13  1  0
 13 14  2  0
  7 15  1  0
 15 16  2  0
  2 17  1  0
 17 18  1  0
 18 19  2  0
 19 20  1  0
 20 21  2  0
 21 22  1  0
 22 23  1  0
 23 24  2  0
 23 25  1  0
 25 26  1  0
 26 27  2  0
 27 28  1  0
 28 29  2  0
 29 30  1  0
 29 31  1  0
 31 32  1  0
 32 33  2  0
 32 34  1  0
 31 35  2  0
 22 36  2  0
 16  4  1  0
 36 18  1  0
 14  9  1  0
 35 26  1  0
  5 37  1  0
  6 38  1  0
  8 39  1  0
  8 40  1  0
 10 41  1  0
 11 42  1  0
 13 43  1  0
 14 44  1  0
 15 45  1  0
 16 46  1  0
 19 47  1  0
 20 48  1  0
 21 49  1  0
 27 50  1  0
 28 51  1  0
 30 52  1  0
 35 53  1  0
 36 54  1  0
M  CHG  4   3  -1  17  -1  25  -1  34  -1
M  END
>  <UniqueID>  (56) 
55

>  <SMILES>  (56) 
O=C([N-]c1ccc(Cc2ccncc2)cc1)[N-]c1cccc(C(=O)[N-]c2ccc(O)c(C(=O)[O-])c2)c1

>  <Energy>  (56) 
73.70841615964386

>  <Genealogy>  (56) 
O=C([N-]c1ccc(Cc2ccncc2)cc1)[N-]c1cccc(C(=O)[N-]c2ccc(O)c(C(=O)[O-])c2)c1 (protonated)
O=C([N-]c1ccc(Cc2ccncc2)cc1)[N-]c1cccc(C(=O)[N-]c2ccc(O)c(C(=O)[O-])c2)c1 (3D coordinates assigned)
O=C([N-]c1ccc(Cc2ccncc2)cc1)[N-]c1cccc(C(=O)[N-]c2ccc(O)c(C(=O)[O-])c2)c1 (optimized conformer: 73.70841615964386 kcal/mol)

>  <smiles>  (56) 
O=C(Nc1ccc(Cc2ccncc2)cc1)Nc1cccc(C(=O)Nc2ccc(O)c(C(=O)O)c2)c1

>  <score_type>  (56) 
oracle

>  <origin>  (56) 
adg

>  <m_score__min__energy>  (56) 
-16.460000000000001

>  <m_primary>  (56) 
energy

$$$$
56:0
     RDKit          3D

 53 55  0  0  0  0  0  0  0  0999 V2000
   64.2860   32.0680   49.0040 C   0  0  0  0  0  0  0  0  0  0  0  0
   63.9750   33.4190   48.3670 C   0  0  0  0  0  0  0  0  0  0  0  0
   62.5140   33.6210   48.2680 N   0  0  0  0  0  0  0  0  0  0  0  0
   61.7420   33.6490   49.3960 C   0  0  0  0  0  0  0  0  0  0  0  0
   62.2820   33.4870   50.5260 O   0  0  0  0  0  0  0  0  0  0  0  0
   60.3910   33.8490   49.3080 N   0  0  0  0  0  0  0  0  0  0  0  0
   59.5520   33.9010   50.5270 C   0  0  0  0  0  0  0  0  0  0  0  0
   59.0280   32.5080   50.9220 C   0  0  0  0  0  0  0  0  0  0  0  0
   58.5750   31.6590   49.7230 C   0  0  0  0  0  0  0  0  0  0  0  0
   58.9540   30.2350   49.8880 N   0  0  0  0  0  0  0  0  0  0  0  0
   60.2310   30.0610   50.6110 C   0  0  0  0  0  0  0  0  0  0  0  0
   61.4530   30.4290   49.7340 C   0  0  0  0  0  0  0  0  0  0  0  0
   61.1070   30.6540   48.3810 O   0  0  0  0  0  0  0  0  0  0  0  0
   60.3460   29.5700   47.8980 C   0  0  0  0  0  0  0  0  0  0  0  0
   58.9770   29.4940   48.6050 C   0  0  0  0  0  0  0  0  0  0  0  0
   59.8150   34.0170   48.0770 C   0  0  0  0  0  0  0  0  0  0  0  0
   58.5630   34.1660   47.9890 O   0  0  0  0  0  0  0  0  0  0  0  0
   60.5830   34.0250   46.9450 N   0  0  0  0  0  0  0  0  0  0  0  0
   59.9690   34.2990   45.6280 C   0  0  0  0  0  0  0  0  0  0  0  0
   59.0400   33.1770   45.2380 C   0  0  0  0  0  0  0  0  0  0  0  0
   59.0160   31.9830   45.9790 C   0  0  0  0  0  0  0  0  0  0  0  0
   58.1860   30.9280   45.5900 C   0  0  0  0  0  0  0  0  0  0  0  0
   57.3760   31.0530   44.4580 C   0  0  0  0  0  0  0  0  0  0  0  0
   56.3370   29.7270   43.9700 Cl  0  0  0  0  0  0  0  0  0  0  0  0
   57.3970   32.2360   43.7120 C   0  0  0  0  0  0  0  0  0  0  0  0
   58.2270   33.2940   44.0990 C   0  0  0  0  0  0  0  0  0  0  0  0
   61.9330   33.8350   47.0470 C   0  0  0  0  0  0  0  0  0  0  0  0
   62.6520   33.8580   46.0080 O   0  0  0  0  0  0  0  0  0  0  0  0
   64.2636   32.1653   50.0995 H   0  0  0  0  0  0  0  0  0  0  0  0
   63.5341   31.3308   48.6859 H   0  0  0  0  0  0  0  0  0  0  0  0
   65.2846   31.7338   48.6859 H   0  0  0  0  0  0  0  0  0  0  0  0
   64.4100   34.2189   48.9842 H   0  0  0  0  0  0  0  0  0  0  0  0
   64.4067   33.4431   47.3555 H   0  0  0  0  0  0  0  0  0  0  0  0
   60.1531   34.3032   51.3558 H   0  0  0  0  0  0  0  0  0  0  0  0
   58.6852   34.5450   50.3176 H   0  0  0  0  0  0  0  0  0  0  0  0
   59.8317   31.9696   51.4457 H   0  0  0  0  0  0  0  0  0  0  0  0
   58.1451   32.6639   51.5593 H   0  0  0  0  0  0  0  0  0  0  0  0
   57.4812   31.7287   49.6292 H   0  0  0  0  0  0  0  0  0  0  0  0
   59.0721   32.0449   48.8208 H   0  0  0  0  0  0  0  0  0  0  0  0
   60.2256   30.7078   51.5008 H   0  0  0  0  0  0  0  0  0  0  0  0
   60.3209   29.0004   50.8884 H   0  0  0  0  0  0  0  0  0  0  0  0
   61.9121   31.3440   50.1365 H   0  0  0  0  0  0  0  0  0  0  0  0
   62.1494   29.5780   49.7613 H   0  0  0  0  0  0  0  0  0  0  0  0
   60.1856   29.6969   46.8172 H   0  0  0  0  0  0  0  0  0  0  0  0
   60.8960   28.6392   48.1005 H   0  0  0  0  0  0  0  0  0  0  0  0
   58.2127   29.9203   47.9386 H   0  0  0  0  0  0  0  0  0  0  0  0
   58.7770   28.4358   48.8289 H   0  0  0  0  0  0  0  0  0  0  0  0
   59.3999   35.2388   45.6818 H   0  0  0  0  0  0  0  0  0  0  0  0
   60.7650   34.3821   44.8733 H   0  0  0  0  0  0  0  0  0  0  0  0
   59.6535   31.8784   46.8693 H   0  0  0  0  0  0  0  0  0  0  0  0
   58.1702   29.9973   46.1761 H   0  0  0  0  0  0  0  0  0  0  0  0
   56.7605   32.3347   42.8203 H   0  0  0  0  0  0  0  0  0  0  0  0
   58.2427   34.2218   43.5082 H   0  0  0  0  0  0  0  0  0  0  0  0
  1  2  1  0
  2  3  1  0
  3  4  1  0
  4  5  2  0
  4  6  1  0
  6  7  1  0
  7  8  1  0
  8  9  1  0
  9 10  1  0
 10 11  1  0
 11 12  1  0
 12 13  1  0
 13 14  1  0
 14 15  1  0
  6 16  1  0
 16 17  2  0
 16 18  1  0
 18 19  1  0
 19 20  1  0
 20 21  2  0
 21 22  1  0
 22 23  2  0
 23 24  1  0
 23 25  1  0
 25 26  2  0
 18 27  1  0
 27 28  2  0
 27  3  1  0
 15 10  1  0
 26 20  1  0
  1 29  1  0
  1 30  1  0
  1 31  1  0
  2 32  1  0
  2 33  1  0
  7 34  1  0
  7 35  1  0
  8 36  1  0
  8 37  1  0
  9 38  1  0
  9 39  1  0
 11 40  1  0
 11 41  1  0
 12 42  1  0
 12 43  1  0
 14 44  1  0
 14 45  1  0
 15 46  1  0
 15 47  1  0
 19 48  1  0
 19 49  1  0
 21 50  1  0
 22 51  1  0
 25 52  1  0
 26 53  1  0
M  END
>  <UniqueID>  (57) 
56

>  <SMILES>  (57) 
CCn1c(=O)n(CCCN2CCOCC2)c(=O)n(Cc2ccc(Cl)cc2)c1=O

>  <Energy>  (57) 
69.75028923838467

>  <Genealogy>  (57) 
CCn1c(=O)n(CCCN2CCOCC2)c(=O)n(Cc2ccc(Cl)cc2)c1=O (3D coordinates assigned)
CCn1c(=O)n(CCCN2CCOCC2)c(=O)n(Cc2ccc(Cl)cc2)c1=O (nonaromatic ring conformer: 69.75028923838467 kcal/mol)

>  <smiles>  (57) 
CCn1c(=O)n(CCCN2CCOCC2)c(=O)n(Cc2ccc(Cl)cc2)c1=O

>  <score_type>  (57) 
oracle

>  <origin>  (57) 
adg

>  <m_score__min__energy>  (57) 
-7.7599999999999998

>  <m_primary>  (57) 
energy

$$$$
57:0
     RDKit          3D

 41 43  0  0  0  0  0  0  0  0999 V2000
   55.8990   28.0160   45.5380 O   0  0  0  0  0  0  0  0  0  0  0  0
   55.9000   26.7790   45.7760 C   0  0  0  0  0  0  0  0  0  0  0  0
   54.6870   26.1300   45.9750 O   0  0  0  0  0  0  0  0  0  0  0  0
   57.1730   26.0280   45.8450 C   0  0  0  0  0  0  0  0  0  0  0  0
   57.2410   24.6950   45.4040 C   0  0  0  0  0  0  0  0  0  0  0  0
   58.4450   23.9890   45.4740 C   0  0  0  0  0  0  0  0  0  0  0  0
   59.5910   24.6030   45.9790 C   0  0  0  0  0  0  0  0  0  0  0  0
   59.5480   25.9370   46.4170 C   0  0  0  0  0  0  0  0  0  0  0  0
   60.7890   26.6000   46.9650 C   0  0  0  0  0  0  0  0  0  0  0  0
   60.4840   27.9900   47.4940 C   0  0  0  0  0  0  0  0  0  0  0  0
   60.3130   28.2000   48.8780 C   0  0  0  0  0  0  0  0  0  0  0  0
   60.4840   26.9010   50.0550 Cl  0  0  0  0  0  0  0  0  0  0  0  0
   60.0180   29.4780   49.3510 C   0  0  0  0  0  0  0  0  0  0  0  0
   59.8850   30.5270   48.4970 N   0  0  0  0  0  0  0  0  0  0  0  0
   59.6790   31.7780   49.0450 O   0  0  0  0  0  0  0  0  0  0  0  0
   60.0030   30.3500   47.1440 C   0  0  0  0  0  0  0  0  0  0  0  0
   59.8050   31.4170   46.2580 O   0  0  0  0  0  0  0  0  0  0  0  0
   58.5390   31.9230   45.9400 C   0  0  0  0  0  0  0  0  0  0  0  0
   57.9480   32.7000   46.7420 O   0  0  0  0  0  0  0  0  0  0  0  0
   57.8880   31.5310   44.6710 C   0  0  0  0  0  0  0  0  0  0  0  0
   58.0760   32.3020   43.5090 C   0  0  0  0  0  0  0  0  0  0  0  0
   57.4620   31.9340   42.3090 C   0  0  0  0  0  0  0  0  0  0  0  0
   56.6530   30.7950   42.2550 C   0  0  0  0  0  0  0  0  0  0  0  0
   56.4590   30.0230   43.4020 C   0  0  0  0  0  0  0  0  0  0  0  0
   57.0710   30.3870   44.6060 C   0  0  0  0  0  0  0  0  0  0  0  0
   60.3310   29.0910   46.6220 C   0  0  0  0  0  0  0  0  0  0  0  0
   60.5170   28.9340   44.8710 Cl  0  0  0  0  0  0  0  0  0  0  0  0
   58.3320   26.6400   46.3550 C   0  0  0  0  0  0  0  0  0  0  0  0
   56.3420   24.2051   45.0018 H   0  0  0  0  0  0  0  0  0  0  0  0
   58.4891   22.9452   45.1296 H   0  0  0  0  0  0  0  0  0  0  0  0
   60.5340   24.0393   46.0346 H   0  0  0  0  0  0  0  0  0  0  0  0
   61.1918   25.9855   47.7836 H   0  0  0  0  0  0  0  0  0  0  0  0
   61.5222   26.6918   46.1502 H   0  0  0  0  0  0  0  0  0  0  0  0
   59.8910   29.6397   50.4316 H   0  0  0  0  0  0  0  0  0  0  0  0
   59.2580   32.5370   48.5230 H   0  0  0  0  0  0  0  0  0  0  0  0
   58.7103   33.2000   43.5455 H   0  0  0  0  0  0  0  0  0  0  0  0
   57.6154   32.5416   41.4050 H   0  0  0  0  0  0  0  0  0  0  0  0
   56.1698   30.5074   41.3096 H   0  0  0  0  0  0  0  0  0  0  0  0
   55.8233   29.1263   43.3588 H   0  0  0  0  0  0  0  0  0  0  0  0
   56.9128   29.7758   45.5068 H   0  0  0  0  0  0  0  0  0  0  0  0
   58.2866   27.6804   46.7094 H   0  0  0  0  0  0  0  0  0  0  0  0
  1  2  2  0
  2  3  1  0
  2  4  1  0
  4  5  2  0
  5  6  1  0
  6  7  2  0
  7  8  1  0
  8  9  1  0
  9 10  1  0
 10 11  2  0
 11 12  1  0
 11 13  1  0
 13 14  2  0
 14 15  1  0
 14 16  1  0
 16 17  1  0
 17 18  1  0
 18 19  2  0
 18 20  1  0
 20 21  2  0
 21 22  1  0
 22 23  2  0
 23 24  1  0
 24 25  2  0
 16 26  2  0
 26 27  1  0
  8 28  2  0
 28  4  1  0
 26 10  1  0
 25 20  1  0
  5 29  1  0
  6 30  1  0
  7 31  1  0
  9 32  1  0
  9 33  1  0
 13 34  1  0
 15 35  1  0
 21 36  1  0
 22 37  1  0
 23 38  1  0
 24 39  1  0
 25 40  1  0
 28 41  1  0
M  CHG  2   3  -1  14   1
M  END
>  <UniqueID>  (58) 
57

>  <SMILES>  (58) 
O=C([O-])c1cccc(Cc2c(Cl)c[n+](O)c(OC(=O)c3ccccc3)c2Cl)c1

>  <Energy>  (58) 
55.788103628895804

>  <Genealogy>  (58) 
O=C([O-])c1cccc(Cc2c(Cl)c[n+](O)c(OC(=O)c3ccccc3)c2Cl)c1 (protonated)
O=C([O-])c1cccc(Cc2c(Cl)c[n+](O)c(OC(=O)c3ccccc3)c2Cl)c1 (3D coordinates assigned)
O=C([O-])c1cccc(Cc2c(Cl)c[n+](O)c(OC(=O)c3ccccc3)c2Cl)c1 (optimized conformer: 55.788103628895804 kcal/mol)

>  <smiles>  (58) 
O=C(O)c1cccc(Cc2c(Cl)c[n+]([O-])c(OC(=O)c3ccccc3)c2Cl)c1

>  <score_type>  (58) 
oracle

>  <origin>  (58) 
adg

>  <m_score__min__energy>  (58) 
-10.59

>  <m_primary>  (58) 
energy

$$$$
58:0
     RDKit          3D

 43 45  0  0  0  0  0  0  0  0999 V2000
   61.4400   34.2370   49.0760 C   0  0  0  0  0  0  0  0  0  0  0  0
   60.4840   34.8710   48.2320 O   0  0  0  0  0  0  0  0  0  0  0  0
   59.6200   34.1880   47.3620 C   0  0  0  0  0  0  0  0  0  0  0  0
   58.8400   33.1490   47.8790 C   0  0  0  0  0  0  0  0  0  0  0  0
   57.9630   32.4400   47.0520 C   0  0  0  0  0  0  0  0  0  0  0  0
   57.8710   32.7440   45.6890 C   0  0  0  0  0  0  0  0  0  0  0  0
   56.9530   32.0000   44.8770 N   0  0  0  0  0  0  0  0  0  0  0  0
   57.2780   31.2700   43.6860 C   0  0  0  0  0  0  0  0  0  0  0  0
   58.1580   31.6910   42.8910 O   0  0  0  0  0  0  0  0  0  0  0  0
   56.5720   29.9810   43.3990 C   0  0  0  0  0  0  0  0  0  0  0  0
   55.4780   29.7070   44.4380 C   0  0  0  0  0  0  0  0  0  0  0  0
   55.8020   28.5350   45.2450 N   0  0  0  0  0  0  0  0  0  0  0  0
   57.0560   27.8400   45.2520 C   0  0  0  0  0  0  0  0  0  0  0  0
   57.0450   26.5810   45.2870 O   0  0  0  0  0  0  0  0  0  0  0  0
   58.3720   28.5640   45.1190 C   0  0  0  0  0  0  0  0  0  0  0  0
   58.9700   28.8170   46.4390 N   0  0  0  0  0  0  0  0  0  0  0  0
   58.5240   28.1010   47.5260 C   0  0  0  0  0  0  0  0  0  0  0  0
   59.0480   28.3130   48.7660 N   0  0  0  0  0  0  0  0  0  0  0  0
   60.0130   29.2460   48.9160 C   0  0  0  0  0  0  0  0  0  0  0  0
   60.7950   29.6780   50.3330 S   0  0  0  0  0  0  0  0  0  0  0  0
   61.7620   30.8600   49.5980 C   0  0  0  0  0  0  0  0  0  0  0  0
   61.4690   30.9150   48.2350 C   0  0  0  0  0  0  0  0  0  0  0  0
   60.4780   29.9970   47.8640 C   0  0  0  0  0  0  0  0  0  0  0  0
   59.9400   29.7800   46.5960 C   0  0  0  0  0  0  0  0  0  0  0  0
   60.3420   30.4640   45.6130 O   0  0  0  0  0  0  0  0  0  0  0  0
   58.6350   33.8040   45.1690 C   0  0  0  0  0  0  0  0  0  0  0  0
   59.5070   34.5170   45.9970 C   0  0  0  0  0  0  0  0  0  0  0  0
   61.1739   34.4135   50.1286 H   0  0  0  0  0  0  0  0  0  0  0  0
   61.4458   33.1554   48.8756 H   0  0  0  0  0  0  0  0  0  0  0  0
   62.4386   34.6524   48.8756 H   0  0  0  0  0  0  0  0  0  0  0  0
   58.9168   32.8872   48.9446 H   0  0  0  0  0  0  0  0  0  0  0  0
   57.3411   31.6377   47.4758 H   0  0  0  0  0  0  0  0  0  0  0  0
   56.1133   30.0372   42.4008 H   0  0  0  0  0  0  0  0  0  0  0  0
   57.3067   29.1635   43.4416 H   0  0  0  0  0  0  0  0  0  0  0  0
   55.3817   30.5820   45.0976 H   0  0  0  0  0  0  0  0  0  0  0  0
   54.5329   29.5163   43.9084 H   0  0  0  0  0  0  0  0  0  0  0  0
   59.0624   27.9489   44.5232 H   0  0  0  0  0  0  0  0  0  0  0  0
   58.1922   29.5301   44.6246 H   0  0  0  0  0  0  0  0  0  0  0  0
   57.7339   27.3474   47.3923 H   0  0  0  0  0  0  0  0  0  0  0  0
   62.5045   31.4859   50.1147 H   0  0  0  0  0  0  0  0  0  0  0  0
   61.9609   31.6021   47.5308 H   0  0  0  0  0  0  0  0  0  0  0  0
   58.5461   34.0733   44.1062 H   0  0  0  0  0  0  0  0  0  0  0  0
   60.1078   35.3389   45.5806 H   0  0  0  0  0  0  0  0  0  0  0  0
  1  2  1  0
  2  3  1  0
  3  4  2  0
  4  5  1  0
  5  6  2  0
  6  7  1  0
  7  8  1  0
  8  9  2  0
  8 10  1  0
 10 11  1  0
 11 12  1  0
 12 13  1  0
 13 14  2  0
 13 15  1  0
 15 16  1  0
 16 17  1  0
 17 18  2  0
 18 19  1  0
 19 20  1  0
 20 21  1  0
 21 22  2  0
 22 23  1  0
 23 24  1  0
 24 25  2  0
  6 26  1  0
 26 27  2  0
 27  3  1  0
 24 16  1  0
 23 19  2  0
  1 28  1  0
  1 29  1  0
  1 30  1  0
  4 31  1  0
  5 32  1  0
 10 33  1  0
 10 34  1  0
 11 35  1  0
 11 36  1  0
 15 37  1  0
 15 38  1  0
 17 39  1  0
 21 40  1  0
 22 41  1  0
 26 42  1  0
 27 43  1  0
M  CHG  2   7  -1  12  -1
M  END
>  <UniqueID>  (59) 
58

>  <SMILES>  (59) 
COc1ccc([N-]C(=O)CC[N-]C(=O)Cn2cnc3sccc3c2=O)cc1

>  <Energy>  (59) 
78.61943530802372

>  <Genealogy>  (59) 
COc1ccc([N-]C(=O)CC[N-]C(=O)Cn2cnc3sccc3c2=O)cc1 (protonated)
COc1ccc([N-]C(=O)CC[N-]C(=O)Cn2cnc3sccc3c2=O)cc1 (3D coordinates assigned)
COc1ccc([N-]C(=O)CC[N-]C(=O)Cn2cnc3sccc3c2=O)cc1 (optimized conformer: 78.61943530802372 kcal/mol)

>  <smiles>  (59) 
COc1ccc(NC(=O)CCNC(=O)Cn2cnc3sccc3c2=O)cc1

>  <score_type>  (59) 
oracle

>  <origin>  (59) 
adg

>  <m_score__min__energy>  (59) 
-11

>  <m_primary>  (59) 
energy

$$$$
59:0
     RDKit          3D

 30 32  0  0  0  0  0  0  0  0999 V2000
   62.5140   33.7680   46.8170 C   0  0  0  0  0  0  0  0  0  0  0  0
   61.3590   34.2340   47.5060 O   0  0  0  0  0  0  0  0  0  0  0  0
   60.1780   34.5900   46.8460 C   0  0  0  0  0  0  0  0  0  0  0  0
   59.8610   35.8070   46.7320 O   0  0  0  0  0  0  0  0  0  0  0  0
   59.3010   33.5380   46.2870 C   0  0  0  0  0  0  0  0  0  0  0  0
   59.3770   32.2140   46.7540 C   0  0  0  0  0  0  0  0  0  0  0  0
   58.5450   31.2250   46.2230 C   0  0  0  0  0  0  0  0  0  0  0  0
   57.6390   31.5320   45.2020 C   0  0  0  0  0  0  0  0  0  0  0  0
   56.7830   30.4870   44.7060 N   0  0  0  0  0  0  0  0  0  0  0  0
   56.9280   29.2090   44.8990 C   0  0  0  0  0  0  0  0  0  0  0  0
   58.1230   28.5560   44.8250 N   0  0  0  0  0  0  0  0  0  0  0  0
   57.7380   27.3070   45.1400 C   0  0  0  0  0  0  0  0  0  0  0  0
   58.5440   26.2200   45.2180 N   0  0  0  0  0  0  0  0  0  0  0  0
   57.9750   25.0240   45.5610 C   0  0  0  0  0  0  0  0  0  0  0  0
   58.8960   23.6770   45.6700 S   0  0  0  0  0  0  0  0  0  0  0  0
   56.6330   24.9430   45.8160 N   0  0  0  0  0  0  0  0  0  0  0  0
   55.8500   26.0530   45.7310 C   0  0  0  0  0  0  0  0  0  0  0  0
   54.6140   25.9870   45.9650 O   0  0  0  0  0  0  0  0  0  0  0  0
   56.4350   27.2220   45.3890 N   0  0  0  0  0  0  0  0  0  0  0  0
   55.8890   28.4130   45.2510 N   0  0  0  0  0  0  0  0  0  0  0  0
   57.5370   32.8600   44.7530 C   0  0  0  0  0  0  0  0  0  0  0  0
   58.3670   33.8510   45.2850 C   0  0  0  0  0  0  0  0  0  0  0  0
   63.2771   33.4601   47.5470 H   0  0  0  0  0  0  0  0  0  0  0  0
   62.2427   32.9090   46.1858 H   0  0  0  0  0  0  0  0  0  0  0  0
   62.9148   34.5748   46.1858 H   0  0  0  0  0  0  0  0  0  0  0  0
   60.0973   31.9546   47.5438 H   0  0  0  0  0  0  0  0  0  0  0  0
   58.6027   30.1972   46.6106 H   0  0  0  0  0  0  0  0  0  0  0  0
   59.5670   26.3030   45.0210 H   0  0  0  0  0  0  0  0  0  0  0  0
   56.8002   33.1208   43.9790 H   0  0  0  0  0  0  0  0  0  0  0  0
   58.2883   34.8843   44.9162 H   0  0  0  0  0  0  0  0  0  0  0  0
  1  2  1  0
  2  3  1  0
  3  4  2  0
  3  5  1  0
  5  6  2  0
  6  7  1  0
  7  8  2  0
  8  9  1  0
  9 10  2  3
 10 11  1  0
 11 12  2  0
 12 13  1  0
 13 14  1  0
 14 15  2  0
 14 16  1  0
 16 17  1  0
 17 18  2  0
 17 19  1  0
 19 20  1  0
  8 21  1  0
 21 22  2  0
 22  5  1  0
 20 10  1  0
 19 12  1  0
  1 23  1  0
  1 24  1  0
  1 25  1  0
  6 26  1  0
  7 27  1  0
 13 28  1  0
 21 29  1  0
 22 30  1  0
M  CHG  2  16  -1  20  -1
M  END
>  <UniqueID>  (60) 
59

>  <SMILES>  (60) 
COC(=O)c1ccc(N=c2nc3[nH]c(=S)[n-]c(=O)n3[n-]2)cc1

>  <Energy>  (60) 
77.73533254746775

>  <Genealogy>  (60) 
COC(=O)c1ccc(N=c2nc3[nH]c(=S)[n-]c(=O)n3[n-]2)cc1 (protonated)
COC(=O)c1ccc(N=c2nc3[nH]c(=S)[n-]c(=O)n3[n-]2)cc1 (3D coordinates assigned)
COC(=O)c1ccc(N=c2nc3[nH]c(=S)[n-]c(=O)n3[n-]2)cc1 (optimized conformer: 77.73533254746775 kcal/mol)

>  <smiles>  (60) 
COC(=O)c1ccc(N=c2nc3[nH]c(=S)[nH]c(=O)n3[nH]2)cc1

>  <score_type>  (60) 
oracle

>  <origin>  (60) 
adg

>  <m_score__min__energy>  (60) 
-10.32

>  <m_primary>  (60) 
energy

$$$$
60:0
     RDKit          3D

 50 52  0  0  0  0  0  0  0  0999 V2000
   58.6070   30.4290   50.1690 C   0  0  0  0  0  0  0  0  0  0  0  0
   58.6330   31.8110   49.8250 O   0  0  0  0  0  0  0  0  0  0  0  0
   59.4760   32.3760   48.8550 C   0  0  0  0  0  0  0  0  0  0  0  0
   58.9920   33.2640   47.8760 C   0  0  0  0  0  0  0  0  0  0  0  0
   59.8590   33.8340   46.9300 C   0  0  0  0  0  0  0  0  0  0  0  0
   59.3480   34.7690   45.8970 C   0  0  0  0  0  0  0  0  0  0  0  0
   59.7870   35.9510   45.8740 O   0  0  0  0  0  0  0  0  0  0  0  0
   58.3590   34.3740   44.8720 C   0  0  0  0  0  0  0  0  0  0  0  0
   58.4900   33.2630   44.1320 C   0  0  0  0  0  0  0  0  0  0  0  0
   57.8430   31.9670   44.4540 C   0  0  0  0  0  0  0  0  0  0  0  0
   58.0470   31.2920   45.6750 C   0  0  0  0  0  0  0  0  0  0  0  0
   57.4080   30.0740   45.9250 C   0  0  0  0  0  0  0  0  0  0  0  0
   56.5500   29.5130   44.9740 C   0  0  0  0  0  0  0  0  0  0  0  0
   55.9290   28.2510   45.2550 N   0  0  0  0  0  0  0  0  0  0  0  0
   56.5650   27.1000   45.8250 C   0  0  0  0  0  0  0  0  0  0  0  0
   55.9550   26.4490   46.7150 O   0  0  0  0  0  0  0  0  0  0  0  0
   57.9200   26.6320   45.3650 C   0  0  0  0  0  0  0  0  0  0  0  0
   58.9830   27.6030   45.7750 C   0  0  0  0  0  0  0  0  0  0  0  0
   59.8310   28.2910   44.9170 C   0  0  0  0  0  0  0  0  0  0  0  0
   60.7650   29.0910   45.5880 C   0  0  0  0  0  0  0  0  0  0  0  0
   60.6600   29.0240   46.9720 C   0  0  0  0  0  0  0  0  0  0  0  0
   59.4080   27.9710   47.3590 S   0  0  0  0  0  0  0  0  0  0  0  0
   56.3790   30.1570   43.7390 C   0  0  0  0  0  0  0  0  0  0  0  0
   57.0160   31.3750   43.4860 C   0  0  0  0  0  0  0  0  0  0  0  0
   61.2150   33.4770   46.9420 C   0  0  0  0  0  0  0  0  0  0  0  0
   61.7130   32.5860   47.9100 C   0  0  0  0  0  0  0  0  0  0  0  0
   63.0680   32.2160   47.9580 O   0  0  0  0  0  0  0  0  0  0  0  0
   64.1260   33.0790   48.3640 C   0  0  0  0  0  0  0  0  0  0  0  0
   60.8420   32.0430   48.8650 C   0  0  0  0  0  0  0  0  0  0  0  0
   61.3540   31.1660   49.8230 O   0  0  0  0  0  0  0  0  0  0  0  0
   58.6050   30.3237   51.2639 H   0  0  0  0  0  0  0  0  0  0  0  0
   57.7000   29.9649   49.7544 H   0  0  0  0  0  0  0  0  0  0  0  0
   59.4959   29.9311   49.7544 H   0  0  0  0  0  0  0  0  0  0  0  0
   57.9212   33.5145   47.8517 H   0  0  0  0  0  0  0  0  0  0  0  0
   57.4810   35.0165   44.7097 H   0  0  0  0  0  0  0  0  0  0  0  0
   59.1166   33.3159   43.2295 H   0  0  0  0  0  0  0  0  0  0  0  0
   58.7128   31.7263   46.4353 H   0  0  0  0  0  0  0  0  0  0  0  0
   57.5816   29.5525   46.8779 H   0  0  0  0  0  0  0  0  0  0  0  0
   58.1346   25.6509   45.8139 H   0  0  0  0  0  0  0  0  0  0  0  0
   57.9142   26.5568   44.2676 H   0  0  0  0  0  0  0  0  0  0  0  0
   59.7750   28.2154   43.8210 H   0  0  0  0  0  0  0  0  0  0  0  0
   61.5098   29.7124   45.0692 H   0  0  0  0  0  0  0  0  0  0  0  0
   61.2892   29.5677   47.6921 H   0  0  0  0  0  0  0  0  0  0  0  0
   55.7412   29.7015   42.9672 H   0  0  0  0  0  0  0  0  0  0  0  0
   56.8678   31.8754   42.5177 H   0  0  0  0  0  0  0  0  0  0  0  0
   61.8958   33.8977   46.1873 H   0  0  0  0  0  0  0  0  0  0  0  0
   64.1693   33.1143   49.4626 H   0  0  0  0  0  0  0  0  0  0  0  0
   65.0806   32.6986   47.9715 H   0  0  0  0  0  0  0  0  0  0  0  0
   63.9452   34.0905   47.9715 H   0  0  0  0  0  0  0  0  0  0  0  0
   62.3290   30.8940   49.8420 H   0  0  0  0  0  0  0  0  0  0  0  0
  1  2  1  0
  2  3  1  0
  3  4  2  0
  4  5  1  0
  5  6  1  0
  6  7  2  0
  6  8  1  0
  8  9  2  3
  9 10  1  0
 10 11  2  0
 11 12  1  0
 12 13  2  0
 13 14  1  0
 14 15  1  0
 15 16  2  0
 15 17  1  0
 17 18  1  0
 18 19  2  0
 19 20  1  0
 20 21  2  0
 21 22  1  0
 13 23  1  0
 23 24  2  0
  5 25  2  0
 25 26  1  0
 26 27  1  0
 27 28  1  0
 26 29  2  0
 29 30  1  0
 29  3  1  0
 24 10  1  0
 22 18  1  0
  1 31  1  0
  1 32  1  0
  1 33  1  0
  4 34  1  0
  8 35  1  0
  9 36  1  0
 11 37  1  0
 12 38  1  0
 17 39  1  0
 17 40  1  0
 19 41  1  0
 20 42  1  0
 21 43  1  0
 23 44  1  0
 24 45  1  0
 25 46  1  0
 28 47  1  0
 28 48  1  0
 28 49  1  0
 30 50  1  0
M  CHG  1  14  -1
M  END
>  <UniqueID>  (61) 
60

>  <SMILES>  (61) 
COc1cc(C(=O)C=Cc2ccc([N-]C(=O)Cc3cccs3)cc2)cc(OC)c1O

>  <Energy>  (61) 
87.50163879071329

>  <Genealogy>  (61) 
COc1cc(C(=O)C=Cc2ccc([N-]C(=O)Cc3cccs3)cc2)cc(OC)c1O (protonated)
COc1cc(C(=O)C=Cc2ccc([N-]C(=O)Cc3cccs3)cc2)cc(OC)c1O (3D coordinates assigned)
COc1cc(C(=O)C=Cc2ccc([N-]C(=O)Cc3cccs3)cc2)cc(OC)c1O (optimized conformer: 87.50163879071329 kcal/mol)

>  <smiles>  (61) 
COc1cc(C(=O)C=Cc2ccc(NC(=O)Cc3cccs3)cc2)cc(OC)c1O

>  <score_type>  (61) 
oracle

>  <origin>  (61) 
adg

>  <m_score__min__energy>  (61) 
-10.33

>  <m_primary>  (61) 
energy

$$$$
61:0
     RDKit          3D

 55 58  0  0  0  0  0  0  0  0999 V2000
   57.2900   29.1510   43.7440 C   0  0  0  0  0  0  0  0  0  0  0  0
   56.2040   29.9720   44.3680 C   0  0  0  0  0  0  0  0  0  0  0  0
   55.1540   29.4020   44.7580 O   0  0  0  0  0  0  0  0  0  0  0  0
   56.2930   31.4020   44.4660 N   0  0  0  0  0  0  0  0  0  0  0  0
   57.3200   32.1580   45.1230 C   0  0  0  0  0  0  0  0  0  0  0  0
   57.3730   33.5440   44.9170 C   0  0  0  0  0  0  0  0  0  0  0  0
   58.3150   34.3240   45.5900 C   0  0  0  0  0  0  0  0  0  0  0  0
   59.2100   33.7250   46.4810 C   0  0  0  0  0  0  0  0  0  0  0  0
   59.1720   32.3360   46.7050 C   0  0  0  0  0  0  0  0  0  0  0  0
   60.0840   31.7300   47.6380 N   0  0  0  0  0  0  0  0  0  0  0  0
   59.8150   30.7100   48.4740 C   0  0  0  0  0  0  0  0  0  0  0  0
   60.9780   30.3940   49.1480 C   0  0  0  0  0  0  0  0  0  0  0  0
   61.1760   29.1970   50.0240 C   0  0  0  0  0  0  0  0  0  0  0  0
   60.8320   27.9610   49.2550 C   0  0  0  0  0  0  0  0  0  0  0  0
   61.0370   26.8240   49.7530 O   0  0  0  0  0  0  0  0  0  0  0  0
   60.2260   28.0750   47.9650 N   0  0  0  0  0  0  0  0  0  0  0  0
   59.5130   27.0120   47.3170 C   0  0  0  0  0  0  0  0  0  0  0  0
   58.1610   27.1410   46.9490 C   0  0  0  0  0  0  0  0  0  0  0  0
   57.5260   26.1210   46.2350 C   0  0  0  0  0  0  0  0  0  0  0  0
   58.2320   24.9640   45.8810 C   0  0  0  0  0  0  0  0  0  0  0  0
   57.5670   23.9070   45.0940 C   0  0  0  0  0  0  0  0  0  0  0  0
   58.3410   23.1510   44.1970 C   0  0  0  0  0  0  0  0  0  0  0  0
   57.7510   22.1550   43.4170 C   0  0  0  0  0  0  0  0  0  0  0  0
   56.3850   21.8950   43.5320 C   0  0  0  0  0  0  0  0  0  0  0  0
   55.6040   22.6300   44.4290 C   0  0  0  0  0  0  0  0  0  0  0  0
   56.1830   23.6330   45.2230 C   0  0  0  0  0  0  0  0  0  0  0  0
   55.1560   24.5090   46.3710 S   0  0  0  0  0  0  0  0  0  0  0  0
   54.7970   26.0840   45.7500 N   0  0  0  0  0  0  0  0  0  0  0  0
   55.8530   24.6380   47.6980 O   0  0  0  0  0  0  0  0  0  0  0  0
   53.8690   23.7620   46.5800 O   0  0  0  0  0  0  0  0  0  0  0  0
   59.5690   24.8200   46.2780 C   0  0  0  0  0  0  0  0  0  0  0  0
   60.2050   25.8420   46.9870 C   0  0  0  0  0  0  0  0  0  0  0  0
   61.9820   31.2010   48.7440 N   0  0  0  0  0  0  0  0  0  0  0  0
   61.3920   32.0050   47.8360 C   0  0  0  0  0  0  0  0  0  0  0  0
   62.0130   32.9280   47.2430 O   0  0  0  0  0  0  0  0  0  0  0  0
   58.2050   31.5620   46.0390 C   0  0  0  0  0  0  0  0  0  0  0  0
   57.9006   28.6894   44.5340 H   0  0  0  0  0  0  0  0  0  0  0  0
   56.8419   28.3638   43.1198 H   0  0  0  0  0  0  0  0  0  0  0  0
   57.9252   29.7967   43.1198 H   0  0  0  0  0  0  0  0  0  0  0  0
   56.6674   34.0200   44.2202 H   0  0  0  0  0  0  0  0  0  0  0  0
   58.3529   35.4100   45.4191 H   0  0  0  0  0  0  0  0  0  0  0  0
   59.9493   34.3436   47.0109 H   0  0  0  0  0  0  0  0  0  0  0  0
   58.8404   30.2153   48.5984 H   0  0  0  0  0  0  0  0  0  0  0  0
   62.2261   29.1481   50.3480 H   0  0  0  0  0  0  0  0  0  0  0  0
   60.5257   29.2748   50.9078 H   0  0  0  0  0  0  0  0  0  0  0  0
   57.6020   28.0476   47.2242 H   0  0  0  0  0  0  0  0  0  0  0  0
   56.4688   26.2270   45.9502 H   0  0  0  0  0  0  0  0  0  0  0  0
   59.4200   23.3457   44.1089 H   0  0  0  0  0  0  0  0  0  0  0  0
   58.3634   21.5747   42.7112 H   0  0  0  0  0  0  0  0  0  0  0  0
   55.9217   21.1103   42.9158 H   0  0  0  0  0  0  0  0  0  0  0  0
   54.5274   22.4209   44.5134 H   0  0  0  0  0  0  0  0  0  0  0  0
   53.7920   26.2750   45.9640 H   0  0  0  0  0  0  0  0  0  0  0  0
   60.1186   23.8998   46.0305 H   0  0  0  0  0  0  0  0  0  0  0  0
   61.2567   25.7259   47.2877 H   0  0  0  0  0  0  0  0  0  0  0  0
   58.1404   30.4817   46.2362 H   0  0  0  0  0  0  0  0  0  0  0  0
  1  2  1  0
  2  3  2  0
  2  4  1  0
  4  5  1  0
  5  6  2  0
  6  7  1  0
  7  8  2  0
  8  9  1  0
  9 10  1  0
 10 11  1  0
 11 12  2  0
 12 13  1  0
 13 14  1  0
 14 15  2  0
 14 16  1  0
 16 17  1  0
 17 18  2  0
 18 19  1  0
 19 20  2  0
 20 21  1  0
 21 22  2  0
 22 23  1  0
 23 24  2  0
 24 25  1  0
 25 26  2  0
 26 27  1  0
 27 28  1  0
 27 29  2  0
 27 30  2  0
 20 31  1  0
 31 32  2  0
 12 33  1  0
 33 34  1  0
 34 35  2  0
  9 36  2  0
 36  5  1  0
 34 10  1  0
 32 17  1  0
 26 21  1  0
  1 37  1  0
  1 38  1  0
  1 39  1  0
  6 40  1  0
  7 41  1  0
  8 42  1  0
 11 43  1  0
 13 44  1  0
 13 45  1  0
 18 46  1  0
 19 47  1  0
 22 48  1  0
 23 49  1  0
 24 50  1  0
 25 51  1  0
 28 52  1  0
 31 53  1  0
 32 54  1  0
 36 55  1  0
M  CHG  4   4  -1  16  -1  28  -1  33  -1
M  END
>  <UniqueID>  (62) 
61

>  <SMILES>  (62) 
CC(=O)[N-]c1cccc(-n2cc(CC(=O)[N-]c3ccc(-c4ccccc4S([NH-])(=O)=O)cc3)[n-]c2=O)c1

>  <Energy>  (62) 
107.38878612590257

>  <Genealogy>  (62) 
CC(=O)[N-]c1cccc(-n2cc(CC(=O)[N-]c3ccc(-c4ccccc4S([NH-])(=O)=O)cc3)[n-]c2=O)c1 (protonated)
CC(=O)[N-]c1cccc(-n2cc(CC(=O)[N-]c3ccc(-c4ccccc4S([NH-])(=O)=O)cc3)[n-]c2=O)c1 (3D coordinates assigned)
CC(=O)[N-]c1cccc(-n2cc(CC(=O)[N-]c3ccc(-c4ccccc4S([NH-])(=O)=O)cc3)[n-]c2=O)c1 (optimized conformer: 107.38878612590257 kcal/mol)

>  <smiles>  (62) 
CC(=O)Nc1cccc(-n2cc(CC(=O)Nc3ccc(-c4ccccc4S(N)(=O)=O)cc3)[nH]c2=O)c1

>  <score_type>  (62) 
oracle

>  <origin>  (62) 
adg

>  <m_score__min__energy>  (62) 
-15.300000000000001

>  <m_primary>  (62) 
energy

$$$$
62:0
     RDKit          3D

 25 26  0  0  0  0  0  0  0  0999 V2000
   55.6090   29.0280   44.8650 O   0  0  0  0  0  0  0  0  0  0  0  0
   56.6990   28.7890   45.4500 C   0  0  0  0  0  0  0  0  0  0  0  0
   57.4910   29.8940   45.9060 N   0  0  0  0  0  0  0  0  0  0  0  0
   57.7820   31.0920   45.1710 C   0  0  0  0  0  0  0  0  0  0  0  0
   57.5660   31.1690   43.7820 C   0  0  0  0  0  0  0  0  0  0  0  0
   57.8420   32.3510   43.0890 C   0  0  0  0  0  0  0  0  0  0  0  0
   58.3220   33.4680   43.7750 C   0  0  0  0  0  0  0  0  0  0  0  0
   58.5170   33.4090   45.1570 C   0  0  0  0  0  0  0  0  0  0  0  0
   58.2420   32.2290   45.8580 C   0  0  0  0  0  0  0  0  0  0  0  0
   58.5250   32.1880   47.7510 Br  0  0  0  0  0  0  0  0  0  0  0  0
   57.1010   27.3820   45.6900 C   0  0  0  0  0  0  0  0  0  0  0  0
   58.4580   27.0080   45.6030 C   0  0  0  0  0  0  0  0  0  0  0  0
   59.4370   27.9490   45.3040 O   0  0  0  0  0  0  0  0  0  0  0  0
   58.8380   25.6820   45.8370 C   0  0  0  0  0  0  0  0  0  0  0  0
   57.8780   24.7220   46.1560 C   0  0  0  0  0  0  0  0  0  0  0  0
   56.5310   25.0780   46.2330 C   0  0  0  0  0  0  0  0  0  0  0  0
   56.1370   26.3980   45.9930 C   0  0  0  0  0  0  0  0  0  0  0  0
   54.7830   26.7160   46.0370 O   0  0  0  0  0  0  0  0  0  0  0  0
   57.1780   30.2944   43.2393 H   0  0  0  0  0  0  0  0  0  0  0  0
   57.6808   32.4011   42.0020 H   0  0  0  0  0  0  0  0  0  0  0  0
   58.5468   34.3950   43.2271 H   0  0  0  0  0  0  0  0  0  0  0  0
   58.8880   34.2930   45.6963 H   0  0  0  0  0  0  0  0  0  0  0  0
   59.8979   25.3956   45.7691 H   0  0  0  0  0  0  0  0  0  0  0  0
   58.1831   23.6826   46.3472 H   0  0  0  0  0  0  0  0  0  0  0  0
   55.7765   24.3177   46.4834 H   0  0  0  0  0  0  0  0  0  0  0  0
  1  2  2  0
  2  3  1  0
  3  4  1  0
  4  5  2  0
  5  6  1  0
  6  7  2  0
  7  8  1  0
  8  9  2  0
  9 10  1  0
  2 11  1  0
 11 12  2  0
 12 13  1  0
 12 14  1  0
 14 15  2  0
 15 16  1  0
 16 17  2  0
 17 18  1  0
  9  4  1  0
 17 11  1  0
  5 19  1  0
  6 20  1  0
  7 21  1  0
  8 22  1  0
 14 23  1  0
 15 24  1  0
 16 25  1  0
M  CHG  3   3  -1  13  -1  18  -1
M  END
>  <UniqueID>  (63) 
62

>  <SMILES>  (63) 
O=C([N-]c1ccccc1Br)c1c([O-])cccc1[O-]

>  <Energy>  (63) 
35.9490617698837

>  <Genealogy>  (63) 
O=C([N-]c1ccccc1Br)c1c([O-])cccc1[O-] (protonated)
O=C([N-]c1ccccc1Br)c1c([O-])cccc1[O-] (3D coordinates assigned)
O=C([N-]c1ccccc1Br)c1c([O-])cccc1[O-] (optimized conformer: 35.9490617698837 kcal/mol)

>  <smiles>  (63) 
O=C(Nc1ccccc1Br)c1c(O)cccc1O

>  <score_type>  (63) 
oracle

>  <origin>  (63) 
adg

>  <m_score__min__energy>  (63) 
-13.43

>  <m_primary>  (63) 
energy

$$$$
63:0
     RDKit          3D

 45 48  0  0  0  0  0  0  0  0999 V2000
   55.1780   25.6810   46.3130 O   0  0  0  0  0  0  0  0  0  0  0  0
   56.0130   26.5610   45.9790 C   0  0  0  0  0  0  0  0  0  0  0  0
   55.5540   27.8160   45.5950 O   0  0  0  0  0  0  0  0  0  0  0  0
   57.4660   26.2920   46.0310 C   0  0  0  0  0  0  0  0  0  0  0  0
   57.9660   25.1070   46.5640 C   0  0  0  0  0  0  0  0  0  0  0  0
   59.6330   25.0940   46.3710 S   0  0  0  0  0  0  0  0  0  0  0  0
   59.7570   26.5860   45.6180 C   0  0  0  0  0  0  0  0  0  0  0  0
   58.4810   27.1330   45.5100 C   0  0  0  0  0  0  0  0  0  0  0  0
   58.2710   28.4870   44.9570 C   0  0  0  0  0  0  0  0  0  0  0  0
   57.4270   28.6820   43.8530 C   0  0  0  0  0  0  0  0  0  0  0  0
   57.1750   29.9710   43.3750 C   0  0  0  0  0  0  0  0  0  0  0  0
   57.7680   31.0830   43.9920 C   0  0  0  0  0  0  0  0  0  0  0  0
   57.3810   32.4760   43.5750 C   0  0  0  0  0  0  0  0  0  0  0  0
   57.8140   33.4200   44.6010 N   0  0  0  0  0  0  0  0  0  0  0  0
   57.2670   33.5720   45.8250 C   0  0  0  0  0  0  0  0  0  0  0  0
   58.1570   34.2670   46.6150 C   0  0  0  0  0  0  0  0  0  0  0  0
   59.2520   34.5440   45.8780 N   0  0  0  0  0  0  0  0  0  0  0  0
   60.5510   34.9690   46.3880 C   0  0  0  0  0  0  0  0  0  0  0  0
   61.3750   33.7540   46.7260 C   0  0  0  0  0  0  0  0  0  0  0  0
   62.7780   33.8120   46.6710 C   0  0  0  0  0  0  0  0  0  0  0  0
   63.5440   32.7190   47.0870 C   0  0  0  0  0  0  0  0  0  0  0  0
   62.9180   31.5670   47.5750 C   0  0  0  0  0  0  0  0  0  0  0  0
   61.5230   31.5070   47.6460 C   0  0  0  0  0  0  0  0  0  0  0  0
   60.7370   30.0740   48.2820 Cl  0  0  0  0  0  0  0  0  0  0  0  0
   60.7530   32.5960   47.2240 C   0  0  0  0  0  0  0  0  0  0  0  0
   59.0210   34.0160   44.6610 C   0  0  0  0  0  0  0  0  0  0  0  0
   58.6050   30.8890   45.1020 C   0  0  0  0  0  0  0  0  0  0  0  0
   58.8510   29.6000   45.5840 C   0  0  0  0  0  0  0  0  0  0  0  0
   57.3681   24.3119   47.0333 H   0  0  0  0  0  0  0  0  0  0  0  0
   60.6889   27.0541   45.2682 H   0  0  0  0  0  0  0  0  0  0  0  0
   56.9611   27.8155   43.3610 H   0  0  0  0  0  0  0  0  0  0  0  0
   56.5089   30.1143   42.5114 H   0  0  0  0  0  0  0  0  0  0  0  0
   57.8665   32.7226   42.6193 H   0  0  0  0  0  0  0  0  0  0  0  0
   56.2894   32.5363   43.4532 H   0  0  0  0  0  0  0  0  0  0  0  0
   56.2791   33.2039   46.1388 H   0  0  0  0  0  0  0  0  0  0  0  0
   58.0009   34.5479   47.6670 H   0  0  0  0  0  0  0  0  0  0  0  0
   61.0700   35.5634   45.6217 H   0  0  0  0  0  0  0  0  0  0  0  0
   60.4100   35.5814   47.2908 H   0  0  0  0  0  0  0  0  0  0  0  0
   63.2751   34.7202   46.2995 H   0  0  0  0  0  0  0  0  0  0  0  0
   64.6416   32.7649   47.0305 H   0  0  0  0  0  0  0  0  0  0  0  0
   63.5231   30.7088   47.9027 H   0  0  0  0  0  0  0  0  0  0  0  0
   59.6557   32.5459   47.2821 H   0  0  0  0  0  0  0  0  0  0  0  0
   59.7292   34.0651   43.8207 H   0  0  0  0  0  0  0  0  0  0  0  0
   59.0697   31.7556   45.5951 H   0  0  0  0  0  0  0  0  0  0  0  0
   59.5024   29.4577   46.4589 H   0  0  0  0  0  0  0  0  0  0  0  0
  1  2  2  0
  2  3  1  0
  2  4  1  0
  4  5  2  0
  5  6  1  0
  6  7  1  0
  7  8  2  0
  8  9  1  0
  9 10  2  0
 10 11  1  0
 11 12  2  0
 12 13  1  0
 13 14  1  0
 14 15  1  0
 15 16  2  0
 16 17  1  0
 17 18  1  0
 18 19  1  0
 19 20  2  0
 20 21  1  0
 21 22  2  0
 22 23  1  0
 23 24  1  0
 23 25  2  0
 17 26  2  0
 12 27  1  0
 27 28  2  0
  8  4  1  0
 28  9  1  0
 26 14  1  0
 25 19  1  0
  5 29  1  0
  7 30  1  0
 10 31  1  0
 11 32  1  0
 13 33  1  0
 13 34  1  0
 15 35  1  0
 16 36  1  0
 18 37  1  0
 18 38  1  0
 20 39  1  0
 21 40  1  0
 22 41  1  0
 25 42  1  0
 26 43  1  0
 27 44  1  0
 28 45  1  0
M  CHG  2   3  -1  17   1
M  END
>  <UniqueID>  (64) 
63

>  <SMILES>  (64) 
O=C([O-])c1cscc1-c1ccc(Cn2cc[n+](Cc3cccc(Cl)c3)c2)cc1

>  <Energy>  (64) 
108.22075505936883

>  <Genealogy>  (64) 
O=C([O-])c1cscc1-c1ccc(Cn2cc[n+](Cc3cccc(Cl)c3)c2)cc1 (protonated)
O=C([O-])c1cscc1-c1ccc(Cn2cc[n+](Cc3cccc(Cl)c3)c2)cc1 (3D coordinates assigned)
O=C([O-])c1cscc1-c1ccc(Cn2cc[n+](Cc3cccc(Cl)c3)c2)cc1 (optimized conformer: 108.22075505936883 kcal/mol)

>  <smiles>  (64) 
O=C(O)c1cscc1-c1ccc(Cn2cc[n+](Cc3cccc(Cl)c3)c2)cc1

>  <score_type>  (64) 
oracle

>  <origin>  (64) 
adg

>  <m_score__min__energy>  (64) 
-10.66

>  <m_primary>  (64) 
energy

$$$$
64:0
     RDKit          3D

 29 30  0  0  0  0  0  0  0  0999 V2000
   59.6420   26.6810   46.9430 C   0  0  0  0  0  0  0  0  0  0  0  0
   58.1970   26.7680   46.5510 C   0  0  0  0  0  0  0  0  0  0  0  0
   57.4050   25.6890   46.7880 N   0  0  0  0  0  0  0  0  0  0  0  0
   56.0920   25.6830   46.4530 C   0  0  0  0  0  0  0  0  0  0  0  0
   55.3870   24.6680   46.6880 O   0  0  0  0  0  0  0  0  0  0  0  0
   55.5380   26.7710   45.8650 N   0  0  0  0  0  0  0  0  0  0  0  0
   56.2760   27.8770   45.5930 C   0  0  0  0  0  0  0  0  0  0  0  0
   55.7150   28.8650   45.0510 O   0  0  0  0  0  0  0  0  0  0  0  0
   57.6470   27.9100   45.9200 C   0  0  0  0  0  0  0  0  0  0  0  0
   58.6430   29.3390   45.5540 S   0  0  0  0  0  0  0  0  0  0  0  0
   59.8130   29.4550   46.4890 O   0  0  0  0  0  0  0  0  0  0  0  0
   59.1660   29.2140   44.1510 O   0  0  0  0  0  0  0  0  0  0  0  0
   57.6940   30.7840   45.6800 N   0  0  0  0  0  0  0  0  0  0  0  0
   58.2210   32.1110   45.8170 C   0  0  0  0  0  0  0  0  0  0  0  0
   57.8350   33.0810   44.8860 C   0  0  0  0  0  0  0  0  0  0  0  0
   58.3140   34.3860   44.9880 C   0  0  0  0  0  0  0  0  0  0  0  0
   59.1850   34.7430   46.0210 C   0  0  0  0  0  0  0  0  0  0  0  0
   59.6220   36.0240   46.0850 F   0  0  0  0  0  0  0  0  0  0  0  0
   59.5920   33.7810   46.9700 C   0  0  0  0  0  0  0  0  0  0  0  0
   60.4920   34.1270   48.0430 N   0  0  0  0  0  0  0  0  0  0  0  0
   61.7260   33.9940   47.9030 O   0  0  0  0  0  0  0  0  0  0  0  0
   60.0160   34.6050   49.2420 O   0  0  0  0  0  0  0  0  0  0  0  0
   59.1040   32.4640   46.8540 C   0  0  0  0  0  0  0  0  0  0  0  0
   59.7247   26.6760   48.0399 H   0  0  0  0  0  0  0  0  0  0  0  0
   60.0766   25.7551   46.5383 H   0  0  0  0  0  0  0  0  0  0  0  0
   60.1845   27.5481   46.5383 H   0  0  0  0  0  0  0  0  0  0  0  0
   57.1495   32.8124   44.0687 H   0  0  0  0  0  0  0  0  0  0  0  0
   58.0042   35.1405   44.2499 H   0  0  0  0  0  0  0  0  0  0  0  0
   59.4174   31.7025   47.5833 H   0  0  0  0  0  0  0  0  0  0  0  0
  1  2  1  0
  2  3  1  0
  3  4  1  0
  4  5  2  0
  4  6  1  0
  6  7  1  0
  7  8  2  0
  7  9  1  0
  9 10  1  0
 10 11  2  0
 10 12  2  0
 10 13  1  0
 13 14  1  0
 14 15  2  0
 15 16  1  0
 16 17  2  0
 17 18  1  0
 17 19  1  0
 19 20  1  0
 20 21  2  0
 20 22  1  0
 19 23  2  0
  9  2  2  0
 23 14  1  0
  1 24  1  0
  1 25  1  0
  1 26  1  0
 15 27  1  0
 16 28  1  0
 23 29  1  0
M  CHG  5   3  -1   6  -1  13  -1  20   1  22  -1
M  END
>  <UniqueID>  (65) 
64

>  <SMILES>  (65) 
Cc1[n-]c(=O)[n-]c(=O)c1S(=O)(=O)[N-]c1ccc(F)c([N+](=O)[O-])c1

>  <Energy>  (65) 
38.51909869755325

>  <Genealogy>  (65) 
Cc1[n-]c(=O)[n-]c(=O)c1S(=O)(=O)[N-]c1ccc(F)c([N+](=O)[O-])c1 (protonated)
Cc1[n-]c(=O)[n-]c(=O)c1S(=O)(=O)[N-]c1ccc(F)c([N+](=O)[O-])c1 (3D coordinates assigned)
Cc1[n-]c(=O)[n-]c(=O)c1S(=O)(=O)[N-]c1ccc(F)c([N+](=O)[O-])c1 (optimized conformer: 38.51909869755325 kcal/mol)

>  <smiles>  (65) 
Cc1[nH]c(=O)[nH]c(=O)c1S(=O)(=O)Nc1ccc(F)c([N+](=O)[O-])c1

>  <score_type>  (65) 
oracle

>  <origin>  (65) 
adg

>  <m_score__min__energy>  (65) 
-12.57

>  <m_primary>  (65) 
energy

$$$$
65:0
     RDKit          3D

 48 50  0  0  0  0  0  0  0  0999 V2000
   62.9950   34.0690   47.2670 N   0  0  0  0  0  0  0  0  0  0  0  0
   62.0290   33.4320   47.2170 C   0  0  0  0  0  0  0  0  0  0  0  0
   60.8270   32.6380   47.1560 C   0  0  0  0  0  0  0  0  0  0  0  0
   60.6480   31.5910   48.0590 C   0  0  0  0  0  0  0  0  0  0  0  0
   59.4880   30.8170   48.0100 C   0  0  0  0  0  0  0  0  0  0  0  0
   59.2670   29.4890   49.1450 S   0  0  0  0  0  0  0  0  0  0  0  0
   58.6290   28.3390   48.4180 O   0  0  0  0  0  0  0  0  0  0  0  0
   60.5860   29.0420   49.7100 O   0  0  0  0  0  0  0  0  0  0  0  0
   58.2320   29.9910   50.4460 N   0  0  0  0  0  0  0  0  0  0  0  0
   58.3270   31.2840   51.0740 C   0  0  0  0  0  0  0  0  0  0  0  0
   59.4990   32.0560   50.9590 C   0  0  0  0  0  0  0  0  0  0  0  0
   59.5860   33.3110   51.5670 C   0  0  0  0  0  0  0  0  0  0  0  0
   58.5100   33.8080   52.3020 C   0  0  0  0  0  0  0  0  0  0  0  0
   57.3450   33.0510   52.4340 C   0  0  0  0  0  0  0  0  0  0  0  0
   57.2460   31.7930   51.8260 C   0  0  0  0  0  0  0  0  0  0  0  0
   55.7380   30.9030   52.0010 Cl  0  0  0  0  0  0  0  0  0  0  0  0
   58.5150   31.1080   47.0480 C   0  0  0  0  0  0  0  0  0  0  0  0
   58.6970   32.1270   46.1510 N   0  0  0  0  0  0  0  0  0  0  0  0
   57.6300   32.4120   45.1800 C   0  0  0  0  0  0  0  0  0  0  0  0
   57.1420   31.1350   44.5720 C   0  0  0  0  0  0  0  0  0  0  0  0
   55.9030   30.9170   44.4870 O   0  0  0  0  0  0  0  0  0  0  0  0
   58.0920   30.1750   44.0940 N   0  0  0  0  0  0  0  0  0  0  0  0
   58.4190   28.9260   44.7180 C   0  0  0  0  0  0  0  0  0  0  0  0
   59.7530   28.6730   45.0600 C   0  0  0  0  0  0  0  0  0  0  0  0
   60.1080   27.4740   45.6850 C   0  0  0  0  0  0  0  0  0  0  0  0
   59.1280   26.5270   45.9890 C   0  0  0  0  0  0  0  0  0  0  0  0
   57.7840   26.7800   45.6830 C   0  0  0  0  0  0  0  0  0  0  0  0
   56.5350   25.6040   46.0810 S   0  0  0  0  0  0  0  0  0  0  0  0
   54.9840   26.3650   46.0220 N   0  0  0  0  0  0  0  0  0  0  0  0
   56.5630   24.4650   45.1010 O   0  0  0  0  0  0  0  0  0  0  0  0
   56.7790   25.0600   47.4610 O   0  0  0  0  0  0  0  0  0  0  0  0
   57.4310   27.9800   45.0500 C   0  0  0  0  0  0  0  0  0  0  0  0
   59.8300   32.9020   46.2010 C   0  0  0  0  0  0  0  0  0  0  0  0
   59.9820   33.8600   45.3910 O   0  0  0  0  0  0  0  0  0  0  0  0
   61.4216   31.3749   48.8105 H   0  0  0  0  0  0  0  0  0  0  0  0
   57.4530   29.3440   50.6960 H   0  0  0  0  0  0  0  0  0  0  0  0
   60.3535   31.6676   50.3855 H   0  0  0  0  0  0  0  0  0  0  0  0
   60.5044   33.9078   51.4658 H   0  0  0  0  0  0  0  0  0  0  0  0
   58.5796   34.7972   52.7780 H   0  0  0  0  0  0  0  0  0  0  0  0
   56.5002   33.4443   53.0185 H   0  0  0  0  0  0  0  0  0  0  0  0
   57.5919   30.5108   47.0114 H   0  0  0  0  0  0  0  0  0  0  0  0
   56.7960   32.9148   45.6914 H   0  0  0  0  0  0  0  0  0  0  0  0
   58.0259   33.0632   44.3868 H   0  0  0  0  0  0  0  0  0  0  0  0
   60.5264   29.4223   44.8355 H   0  0  0  0  0  0  0  0  0  0  0  0
   61.1602   27.2764   45.9375 H   0  0  0  0  0  0  0  0  0  0  0  0
   59.4118   25.5794   46.4702 H   0  0  0  0  0  0  0  0  0  0  0  0
   55.1500   27.3960   46.0220 H   0  0  0  0  0  0  0  0  0  0  0  0
   56.3766   28.1833   44.8116 H   0  0  0  0  0  0  0  0  0  0  0  0
  1  2  3  0
  2  3  1  0
  3  4  2  0
  4  5  1  0
  5  6  1  0
  6  7  2  0
  6  8  2  0
  6  9  1  0
  9 10  1  0
 10 11  2  0
 11 12  1  0
 12 13  2  0
 13 14  1  0
 14 15  2  0
 15 16  1  0
  5 17  2  0
 17 18  1  0
 18 19  1  0
 19 20  1  0
 20 21  2  0
 20 22  1  0
 22 23  1  0
 23 24  2  0
 24 25  1  0
 25 26  2  0
 26 27  1  0
 27 28  1  0
 28 29  1  0
 28 30  2  0
 28 31  2  0
 27 32  2  0
 18 33  1  0
 33 34  2  0
 33  3  1  0
 15 10  1  0
 32 23  1  0
  4 35  1  0
  9 36  1  0
 11 37  1  0
 12 38  1  0
 13 39  1  0
 14 40  1  0
 17 41  1  0
 19 42  1  0
 19 43  1  0
 24 44  1  0
 25 45  1  0
 26 46  1  0
 29 47  1  0
 32 48  1  0
M  CHG  2  22  -1  29  -1
M  END
>  <UniqueID>  (66) 
65

>  <SMILES>  (66) 
N#Cc1cc(S(=O)(=O)Nc2ccccc2Cl)cn(CC(=O)[N-]c2cccc(S([NH-])(=O)=O)c2)c1=O

>  <Energy>  (66) 
58.49993413961318

>  <Genealogy>  (66) 
N#Cc1cc(S(=O)(=O)Nc2ccccc2Cl)cn(CC(=O)[N-]c2cccc(S([NH-])(=O)=O)c2)c1=O (protonated)
N#Cc1cc(S(=O)(=O)Nc2ccccc2Cl)cn(CC(=O)[N-]c2cccc(S([NH-])(=O)=O)c2)c1=O (3D coordinates assigned)
N#Cc1cc(S(=O)(=O)Nc2ccccc2Cl)cn(CC(=O)[N-]c2cccc(S([NH-])(=O)=O)c2)c1=O (optimized conformer: 58.49993413961318 kcal/mol)

>  <smiles>  (66) 
N#Cc1cc(S(=O)(=O)Nc2ccccc2Cl)cn(CC(=O)Nc2cccc(S(N)(=O)=O)c2)c1=O

>  <score_type>  (66) 
oracle

>  <origin>  (66) 
adg

>  <m_score__min__energy>  (66) 
-13.890000000000001

>  <m_primary>  (66) 
energy

$$$$
66:0
     RDKit          3D

 49 51  0  0  0  0  0  0  0  0999 V2000
   57.3900   32.6950   40.2440 C   0  0  0  0  0  0  0  0  0  0  0  0
   58.1090   32.0220   41.2720 O   0  0  0  0  0  0  0  0  0  0  0  0
   57.7130   31.9800   42.6160 C   0  0  0  0  0  0  0  0  0  0  0  0
   57.9830   33.0230   43.5190 C   0  0  0  0  0  0  0  0  0  0  0  0
   57.5660   32.8950   44.8510 C   0  0  0  0  0  0  0  0  0  0  0  0
   57.8360   33.9800   45.8190 C   0  0  0  0  0  0  0  0  0  0  0  0
   58.6640   33.8620   46.8700 C   0  0  0  0  0  0  0  0  0  0  0  0
   59.0800   32.5690   47.4460 C   0  0  0  0  0  0  0  0  0  0  0  0
   58.5630   32.1570   48.6810 C   0  0  0  0  0  0  0  0  0  0  0  0
   58.9120   30.9090   49.2040 C   0  0  0  0  0  0  0  0  0  0  0  0
   59.7890   30.0730   48.5040 C   0  0  0  0  0  0  0  0  0  0  0  0
   60.3440   30.4940   47.2820 C   0  0  0  0  0  0  0  0  0  0  0  0
   61.2400   29.7040   46.5460 O   0  0  0  0  0  0  0  0  0  0  0  0
   60.9380   29.0610   45.3080 C   0  0  0  0  0  0  0  0  0  0  0  0
   59.7590   28.1430   45.4830 C   0  0  0  0  0  0  0  0  0  0  0  0
   59.6900   27.2590   46.5720 C   0  0  0  0  0  0  0  0  0  0  0  0
   58.5700   26.4400   46.7430 C   0  0  0  0  0  0  0  0  0  0  0  0
   57.5060   26.4980   45.8320 C   0  0  0  0  0  0  0  0  0  0  0  0
   56.0850   25.4840   46.0450 S   0  0  0  0  0  0  0  0  0  0  0  0
   56.0510   24.2380   44.7760 C   0  0  0  0  0  0  0  0  0  0  0  0
   54.8460   26.3300   45.9580 O   0  0  0  0  0  0  0  0  0  0  0  0
   56.1210   24.8190   47.3930 O   0  0  0  0  0  0  0  0  0  0  0  0
   57.5780   27.3730   44.7410 C   0  0  0  0  0  0  0  0  0  0  0  0
   58.6950   28.1940   44.5690 C   0  0  0  0  0  0  0  0  0  0  0  0
   59.9970   31.7480   46.7710 C   0  0  0  0  0  0  0  0  0  0  0  0
   56.9000   31.8060   45.2350 O   0  0  0  0  0  0  0  0  0  0  0  0
   56.6180   30.8040   44.4100 C   0  0  0  0  0  0  0  0  0  0  0  0
   55.9800   29.8080   44.8370 O   0  0  0  0  0  0  0  0  0  0  0  0
   57.0230   30.8560   43.0750 C   0  0  0  0  0  0  0  0  0  0  0  0
   56.6581   33.3801   40.6967 H   0  0  0  0  0  0  0  0  0  0  0  0
   58.0919   33.2682   39.6205 H   0  0  0  0  0  0  0  0  0  0  0  0
   56.8644   31.9567   39.6205 H   0  0  0  0  0  0  0  0  0  0  0  0
   58.5139   33.9266   43.1850 H   0  0  0  0  0  0  0  0  0  0  0  0
   57.3271   34.9436   45.6689 H   0  0  0  0  0  0  0  0  0  0  0  0
   59.0546   34.7828   47.3278 H   0  0  0  0  0  0  0  0  0  0  0  0
   57.8820   32.8161   49.2394 H   0  0  0  0  0  0  0  0  0  0  0  0
   58.4961   30.5829   50.1687 H   0  0  0  0  0  0  0  0  0  0  0  0
   60.0452   29.0835   48.9106 H   0  0  0  0  0  0  0  0  0  0  0  0
   60.6987   29.8219   44.5505 H   0  0  0  0  0  0  0  0  0  0  0  0
   61.8094   28.4739   44.9824 H   0  0  0  0  0  0  0  0  0  0  0  0
   60.5197   27.2108   47.2926 H   0  0  0  0  0  0  0  0  0  0  0  0
   58.5234   25.7471   47.5960 H   0  0  0  0  0  0  0  0  0  0  0  0
   56.0238   23.2416   45.2412 H   0  0  0  0  0  0  0  0  0  0  0  0
   55.1563   24.3755   44.1510 H   0  0  0  0  0  0  0  0  0  0  0  0
   56.9519   24.3265   44.1510 H   0  0  0  0  0  0  0  0  0  0  0  0
   56.7514   27.4140   44.0164 H   0  0  0  0  0  0  0  0  0  0  0  0
   58.7410   28.8837   43.7133 H   0  0  0  0  0  0  0  0  0  0  0  0
   60.4475   32.0953   45.8295 H   0  0  0  0  0  0  0  0  0  0  0  0
   56.8013   30.0219   42.3930 H   0  0  0  0  0  0  0  0  0  0  0  0
  1  2  1  0
  2  3  1  0
  3  4  1  0
  4  5  2  0
  5  6  1  0
  6  7  2  3
  7  8  1  0
  8  9  2  0
  9 10  1  0
 10 11  2  0
 11 12  1  0
 12 13  1  0
 13 14  1  0
 14 15  1  0
 15 16  2  0
 16 17  1  0
 17 18  2  0
 18 19  1  0
 19 20  1  0
 19 21  2  0
 19 22  2  0
 18 23  1  0
 23 24  2  0
 12 25  2  0
  5 26  1  0
 26 27  1  0
 27 28  2  0
 27 29  1  0
 29  3  2  0
 25  8  1  0
 24 15  1  0
  1 30  1  0
  1 31  1  0
  1 32  1  0
  4 33  1  0
  6 34  1  0
  7 35  1  0
  9 36  1  0
 10 37  1  0
 11 38  1  0
 14 39  1  0
 14 40  1  0
 16 41  1  0
 17 42  1  0
 20 43  1  0
 20 44  1  0
 20 45  1  0
 23 46  1  0
 24 47  1  0
 25 48  1  0
 29 49  1  0
M  END
>  <UniqueID>  (67) 
66

>  <SMILES>  (67) 
COc1cc(C=Cc2cccc(OCc3ccc(S(C)(=O)=O)cc3)c2)oc(=O)c1

>  <Energy>  (67) 
54.65186381772711

>  <Genealogy>  (67) 
COc1cc(C=Cc2cccc(OCc3ccc(S(C)(=O)=O)cc3)c2)oc(=O)c1 (3D coordinates assigned)
COc1cc(C=Cc2cccc(OCc3ccc(S(C)(=O)=O)cc3)c2)oc(=O)c1 (optimized conformer: 54.65186381772711 kcal/mol)

>  <smiles>  (67) 
COc1cc(C=Cc2cccc(OCc3ccc(S(C)(=O)=O)cc3)c2)oc(=O)c1

>  <score_type>  (67) 
oracle

>  <origin>  (67) 
adg

>  <m_score__min__energy>  (67) 
-9.8399999999999999

>  <m_primary>  (67) 
energy

$$$$
67:0
     RDKit          3D

 44 45  0  0  0  0  0  0  0  0999 V2000
   55.8270   30.4680   44.8720 O   0  0  0  0  0  0  0  0  0  0  0  0
   57.0220   29.6550   45.0360 C   0  0  0  0  0  0  0  0  0  0  0  0
   58.3290   30.5240   44.8440 C   0  0  0  0  0  0  0  0  0  0  0  0
   58.0470   31.8350   45.4460 N   0  0  0  0  0  0  0  0  0  0  0  0
   57.8360   33.1600   44.6650 S   0  0  0  0  0  0  0  0  0  0  0  0
   56.6520   33.8720   45.2500 O   0  0  0  0  0  0  0  0  0  0  0  0
   57.5540   32.7560   43.2400 O   0  0  0  0  0  0  0  0  0  0  0  0
   59.3060   34.0790   44.8190 C   0  0  0  0  0  0  0  0  0  0  0  0
   59.8650   34.0260   46.2060 C   0  0  0  0  0  0  0  0  0  0  0  0
   59.0660   34.2360   47.3460 C   0  0  0  0  0  0  0  0  0  0  0  0
   59.6370   34.2230   48.6200 C   0  0  0  0  0  0  0  0  0  0  0  0
   61.0080   34.0000   48.7490 C   0  0  0  0  0  0  0  0  0  0  0  0
   61.8030   33.7910   47.6220 C   0  0  0  0  0  0  0  0  0  0  0  0
   61.2310   33.8030   46.3580 C   0  0  0  0  0  0  0  0  0  0  0  0
   57.0160   28.0630   45.4610 N   0  0  0  0  0  0  0  0  0  0  0  0
   56.5020   26.7630   45.8060 C   0  0  0  0  0  0  0  0  0  0  0  0
   55.2190   25.9990   46.0170 O   0  0  0  0  0  0  0  0  0  0  0  0
   57.5180   25.8210   46.1380 N   0  0  0  0  0  0  0  0  0  0  0  0
   56.9500   24.5800   46.4630 C   0  0  0  0  0  0  0  0  0  0  0  0
   57.0170   23.6620   45.2700 C   0  0  0  0  0  0  0  0  0  0  0  0
   57.9910   22.6260   45.1200 C   0  0  0  0  0  0  0  0  0  0  0  0
   57.9740   21.7960   44.0010 C   0  0  0  0  0  0  0  0  0  0  0  0
   57.0190   21.9840   43.0290 C   0  0  0  0  0  0  0  0  0  0  0  0
   56.0630   22.9830   43.1740 C   0  0  0  0  0  0  0  0  0  0  0  0
   56.0580   23.7950   44.2940 C   0  0  0  0  0  0  0  0  0  0  0  0
   59.1808   30.0475   45.3514 H   0  0  0  0  0  0  0  0  0  0  0  0
   58.5907   30.6214   43.7800 H   0  0  0  0  0  0  0  0  0  0  0  0
   57.2020   31.7330   46.1090 H   0  0  0  0  0  0  0  0  0  0  0  0
   60.0524   33.6723   44.1208 H   0  0  0  0  0  0  0  0  0  0  0  0
   59.0724   35.1292   44.5897 H   0  0  0  0  0  0  0  0  0  0  0  0
   57.9860   34.4113   47.2323 H   0  0  0  0  0  0  0  0  0  0  0  0
   59.0134   34.3866   49.5112 H   0  0  0  0  0  0  0  0  0  0  0  0
   61.4665   33.9889   49.7488 H   0  0  0  0  0  0  0  0  0  0  0  0
   62.8832   33.6167   47.7354 H   0  0  0  0  0  0  0  0  0  0  0  0
   61.8600   33.6355   45.4713 H   0  0  0  0  0  0  0  0  0  0  0  0
   56.5400   28.8570   45.1800 H   0  0  0  0  0  0  0  0  0  0  0  0
   58.5580   26.0690   46.1410 H   0  0  0  0  0  0  0  0  0  0  0  0
   57.5050   24.1321   47.3005 H   0  0  0  0  0  0  0  0  0  0  0  0
   55.8986   24.7254   46.7518 H   0  0  0  0  0  0  0  0  0  0  0  0
   58.7596   22.4832   45.8939 H   0  0  0  0  0  0  0  0  0  0  0  0
   58.7202   20.9947   43.8954 H   0  0  0  0  0  0  0  0  0  0  0  0
   57.0117   21.3427   42.1353 H   0  0  0  0  0  0  0  0  0  0  0  0
   55.3040   23.1290   42.3913 H   0  0  0  0  0  0  0  0  0  0  0  0
   55.2745   24.5590   44.4054 H   0  0  0  0  0  0  0  0  0  0  0  0
  1  2  2  0
  2  3  1  0
  3  4  1  0
  4  5  1  0
  5  6  2  0
  5  7  2  0
  5  8  1  0
  8  9  1  0
  9 10  2  0
 10 11  1  0
 11 12  2  0
 12 13  1  0
 13 14  2  0
  2 15  1  0
 15 16  1  0
 16 17  2  0
 16 18  1  0
 18 19  1  0
 19 20  1  0
 20 21  2  0
 21 22  1  0
 22 23  2  0
 23 24  1  0
 24 25  2  0
 14  9  1  0
 25 20  1  0
  3 26  1  0
  3 27  1  0
  4 28  1  0
  8 29  1  0
  8 30  1  0
 10 31  1  0
 11 32  1  0
 12 33  1  0
 13 34  1  0
 14 35  1  0
 15 36  1  0
 18 37  1  0
 19 38  1  0
 19 39  1  0
 21 40  1  0
 22 41  1  0
 23 42  1  0
 24 43  1  0
 25 44  1  0
M  END
>  <UniqueID>  (68) 
67

>  <SMILES>  (68) 
O=C(CNS(=O)(=O)Cc1ccccc1)NC(=O)NCc1ccccc1

>  <Energy>  (68) 
383.37615466275093

>  <Genealogy>  (68) 
O=C(CNS(=O)(=O)Cc1ccccc1)NC(=O)NCc1ccccc1 (3D coordinates assigned)
O=C(CNS(=O)(=O)Cc1ccccc1)NC(=O)NCc1ccccc1 (optimized conformer: 383.37615466275093 kcal/mol)

>  <smiles>  (68) 
O=C(CNS(=O)(=O)Cc1ccccc1)NC(=O)NCc1ccccc1

>  <score_type>  (68) 
oracle

>  <origin>  (68) 
adg

>  <m_score__min__energy>  (68) 
-8.8300000000000001

>  <m_primary>  (68) 
energy

$$$$
68:0
     RDKit          3D

 43 45  0  0  0  0  0  0  0  0999 V2000
   64.5873   33.3235   50.9021 H   0  0  0  0  0  0  0  0  0  0  0  0
   63.9840   33.4340   49.9890 C   0  0  0  0  0  0  0  0  0  0  0  0
   64.4560   32.9660   48.8030 N   0  0  0  0  0  0  0  0  0  0  0  0
   63.7430   33.0900   47.6510 C   0  0  0  0  0  0  0  0  0  0  0  0
   64.1495   32.6945   46.7085 H   0  0  0  0  0  0  0  0  0  0  0  0
   62.4890   33.7220   47.6630 C   0  0  0  0  0  0  0  0  0  0  0  0
   61.6790   33.8360   46.3970 C   0  0  0  0  0  0  0  0  0  0  0  0
   61.5184   32.8315   45.9783 H   0  0  0  0  0  0  0  0  0  0  0  0
   62.2278   34.4629   45.6788 H   0  0  0  0  0  0  0  0  0  0  0  0
   60.3740   34.4600   46.6740 N   0  0  0  0  0  0  0  0  0  0  0  0
   60.5360   35.4130   47.0770 H   0  0  0  0  0  0  0  0  0  0  0  0
   59.8480   33.8930   47.3790 H   0  0  0  0  0  0  0  0  0  0  0  0
   59.5620   34.6130   45.4520 C   0  0  0  0  0  0  0  0  0  0  0  0
   60.2340   34.7330   44.5894 H   0  0  0  0  0  0  0  0  0  0  0  0
   58.9188   35.4969   45.5744 H   0  0  0  0  0  0  0  0  0  0  0  0
   58.6760   33.4120   45.2200 C   0  0  0  0  0  0  0  0  0  0  0  0
   58.4840   32.4720   46.2450 C   0  0  0  0  0  0  0  0  0  0  0  0
   58.8776   32.6718   47.2526 H   0  0  0  0  0  0  0  0  0  0  0  0
   57.7950   31.2840   45.9900 C   0  0  0  0  0  0  0  0  0  0  0  0
   57.6518   30.5498   46.7965 H   0  0  0  0  0  0  0  0  0  0  0  0
   57.2860   31.0240   44.7120 C   0  0  0  0  0  0  0  0  0  0  0  0
   56.6240   29.4330   44.3530 S   0  0  0  0  0  0  0  0  0  0  0  0
   57.2300   28.8700   43.0990 O   0  0  0  0  0  0  0  0  0  0  0  0
   55.1380   29.5530   44.1670 O   0  0  0  0  0  0  0  0  0  0  0  0
   56.9570   28.3670   45.6810 N   0  0  0  0  0  0  0  0  0  0  0  0
   56.6990   27.0950   45.6540 C   0  0  0  0  0  0  0  0  0  0  0  0
   55.5090   26.5590   46.0070 N   0  0  0  0  0  0  0  0  0  0  0  0
   55.5010   25.2100   45.8440 C   0  0  0  0  0  0  0  0  0  0  0  0
   54.6206   24.5896   46.0676 H   0  0  0  0  0  0  0  0  0  0  0  0
   56.6950   24.6770   45.3720 C   0  0  0  0  0  0  0  0  0  0  0  0
   56.9260   23.2480   45.0120 C   0  0  0  0  0  0  0  0  0  0  0  0
   57.0227   22.6496   45.9299 H   0  0  0  0  0  0  0  0  0  0  0  0
   56.0762   22.8769   44.4203 H   0  0  0  0  0  0  0  0  0  0  0  0
   57.8494   23.1636   44.4203 H   0  0  0  0  0  0  0  0  0  0  0  0
   57.7900   25.9330   45.1240 S   0  0  0  0  0  0  0  0  0  0  0  0
   57.4350   31.9810   43.6980 C   0  0  0  0  0  0  0  0  0  0  0  0
   57.0072   31.7963   42.7016 H   0  0  0  0  0  0  0  0  0  0  0  0
   58.1260   33.1690   43.9510 C   0  0  0  0  0  0  0  0  0  0  0  0
   58.2396   33.9171   43.1526 H   0  0  0  0  0  0  0  0  0  0  0  0
   61.9820   34.1940   48.8820 C   0  0  0  0  0  0  0  0  0  0  0  0
   60.9926   34.6734   48.9181 H   0  0  0  0  0  0  0  0  0  0  0  0
   62.7340   34.0550   50.0500 C   0  0  0  0  0  0  0  0  0  0  0  0
   62.3463   34.4306   51.0085 H   0  0  0  0  0  0  0  0  0  0  0  0
  1  2  1  0
  2  3  2  0
  3  4  1  0
  4  5  1  0
  4  6  2  0
  6  7  1  0
  7  8  1  0
  7  9  1  0
  7 10  1  0
 10 11  1  0
 10 12  1  0
 10 13  1  0
 13 14  1  0
 13 15  1  0
 13 16  1  0
 16 17  2  0
 17 18  1  0
 17 19  1  0
 19 20  1  0
 19 21  2  0
 21 22  1  0
 22 23  2  0
 22 24  2  0
 22 25  1  0
 25 26  2  0
 26 27  1  0
 27 28  1  0
 28 29  1  0
 28 30  2  0
 30 31  1  0
 31 32  1  0
 31 33  1  0
 31 34  1  0
 30 35  1  0
 21 36  1  0
 36 37  1  0
 36 38  2  0
 38 39  1  0
  6 40  1  0
 40 41  1  0
 40 42  2  0
 42 43  1  0
 42  2  1  0
 38 16  1  0
 35 26  1  0
M  CHG  2  10   1  27  -1
M  END
>  <UniqueID>  (69) 
68

>  <SMILES>  (69) 
Cc1c[n-]/c(=N\S(=O)(=O)c2ccc(C[NH2+]Cc3cccnc3)cc2)s1

>  <Energy>  (69) 
75.68632166977433

>  <Genealogy>  (69) 
Cc1c[n-]c(=NS(=O)(=O)c2ccc(C[NH2+]Cc3cccnc3)cc2)s1 (protonated)
Cc1c[n-]/c(=N\S(=O)(=O)c2ccc(C[NH2+]Cc3cccnc3)cc2)s1 (cis-trans isomerization)
Cc1c[n-]/c(=N\S(=O)(=O)c2ccc(C[NH2+]Cc3cccnc3)cc2)s1 (3D coordinates assigned)
Cc1c[n-]/c(=N\S(=O)(=O)c2ccc(C[NH2+]Cc3cccnc3)cc2)s1 (optimized conformer: 75.68632166977433 kcal/mol)

>  <smiles>  (69) 
Cc1c[nH]c(=NS(=O)(=O)c2ccc(CNCc3cccnc3)cc2)s1

>  <score_type>  (69) 
oracle

>  <origin>  (69) 
adg

>  <m_score__min__energy>  (69) 
-8.7599999999999998

>  <m_primary>  (69) 
energy

$$$$
69:0
     RDKit          3D

 29 30  0  0  0  0  0  0  0  0999 V2000
   54.5084   30.5067   43.7264 H   0  0  0  0  0  0  0  0  0  0  0  0
   55.4900   30.0880   43.9930 C   0  0  0  0  0  0  0  0  0  0  0  0
   55.5730   29.0690   44.8840 N   0  0  0  0  0  0  0  0  0  0  0  0
   56.7560   28.4990   45.2470 C   0  0  0  0  0  0  0  0  0  0  0  0
   56.7110   27.5130   46.1020 N   0  0  0  0  0  0  0  0  0  0  0  0
   56.0100   26.2680   46.0110 C   0  0  0  0  0  0  0  0  0  0  0  0
   54.7490   26.2440   45.9970 O   0  0  0  0  0  0  0  0  0  0  0  0
   56.7500   25.0470   46.0510 N   0  0  0  0  0  0  0  0  0  0  0  0
   57.5350   24.5660   44.9240 C   0  0  0  0  0  0  0  0  0  0  0  0
   58.4176   24.0252   45.2961 H   0  0  0  0  0  0  0  0  0  0  0  0
   56.9211   23.8888   44.3120 H   0  0  0  0  0  0  0  0  0  0  0  0
   57.8596   25.4204   44.3120 H   0  0  0  0  0  0  0  0  0  0  0  0
   57.9640   29.0210   44.7060 C   0  0  0  0  0  0  0  0  0  0  0  0
   59.2150   28.5770   45.1580 O   0  0  0  0  0  0  0  0  0  0  0  0
   59.5810   28.3950   46.4990 C   0  0  0  0  0  0  0  0  0  0  0  0
   59.5550   29.4520   47.4290 C   0  0  0  0  0  0  0  0  0  0  0  0
   59.2258   30.4525   47.1119 H   0  0  0  0  0  0  0  0  0  0  0  0
   59.9460   29.2350   48.7540 C   0  0  0  0  0  0  0  0  0  0  0  0
   59.9144   30.0618   49.4788 H   0  0  0  0  0  0  0  0  0  0  0  0
   60.3770   27.9680   49.1580 C   0  0  0  0  0  0  0  0  0  0  0  0
   60.6782   27.7961   50.2019 H   0  0  0  0  0  0  0  0  0  0  0  0
   60.4250   26.9200   48.2350 C   0  0  0  0  0  0  0  0  0  0  0  0
   60.7711   25.9251   48.5519 H   0  0  0  0  0  0  0  0  0  0  0  0
   60.0340   27.1330   46.9090 C   0  0  0  0  0  0  0  0  0  0  0  0
   60.0880   26.1110   46.0210 F   0  0  0  0  0  0  0  0  0  0  0  0
   57.8820   30.0770   43.7790 C   0  0  0  0  0  0  0  0  0  0  0  0
   58.8017   30.4889   43.3381 H   0  0  0  0  0  0  0  0  0  0  0  0
   56.6460   30.6040   43.4160 C   0  0  0  0  0  0  0  0  0  0  0  0
   56.5838   31.4198   42.6807 H   0  0  0  0  0  0  0  0  0  0  0  0
  1  2  1  0
  2  3  1  0
  3  4  1  0
  4  5  2  0
  5  6  1  0
  6  7  2  0
  6  8  1  0
  8  9  1  0
  9 10  1  0
  9 11  1  0
  9 12  1  0
  4 13  1  0
 13 14  1  0
 14 15  1  0
 15 16  2  0
 16 17  1  0
 16 18  1  0
 18 19  1  0
 18 20  2  0
 20 21  1  0
 20 22  1  0
 22 23  1  0
 22 24  2  0
 24 25  1  0
 13 26  2  0
 26 27  1  0
 26 28  1  0
 28 29  1  0
 28  2  2  0
 24 15  1  0
M  CHG  2   3  -1   8  -1
M  END
>  <UniqueID>  (70) 
69

>  <SMILES>  (70) 
C[N-]C(=O)/N=c1/[n-]cccc1Oc1ccccc1F

>  <Energy>  (70) 
45.64774017824091

>  <Genealogy>  (70) 
C[N-]C(=O)N=c1[n-]cccc1Oc1ccccc1F (protonated)
C[N-]C(=O)/N=c1/[n-]cccc1Oc1ccccc1F (cis-trans isomerization)
C[N-]C(=O)/N=c1/[n-]cccc1Oc1ccccc1F (3D coordinates assigned)
C[N-]C(=O)/N=c1/[n-]cccc1Oc1ccccc1F (optimized conformer: 45.64774017824091 kcal/mol)

>  <smiles>  (70) 
CNC(=O)N=c1[nH]cccc1Oc1ccccc1F

>  <score_type>  (70) 
oracle

>  <origin>  (70) 
adg

>  <m_score__min__energy>  (70) 
-8.7400000000000002

>  <m_primary>  (70) 
energy

$$$$
70:0
     RDKit          3D

 43 44  0  0  0  0  0  0  0  0999 V2000
   56.6000   25.4250   45.7160 C   0  0  0  0  0  0  0  0  0  0  0  0
   56.9890   26.7240   46.3770 C   0  0  0  0  0  0  0  0  0  0  0  0
   58.4720   26.7000   46.6370 C   0  0  0  0  0  0  0  0  0  0  0  0
   59.2000   27.7390   45.9580 N   0  0  0  0  0  0  0  0  0  0  0  0
   59.0710   28.1710   44.7060 C   0  0  0  0  0  0  0  0  0  0  0  0
   57.9880   27.8090   43.3650 S   0  0  0  0  0  0  0  0  0  0  0  0
   56.7050   28.9770   43.0960 C   0  0  0  0  0  0  0  0  0  0  0  0
   56.8380   30.2310   43.8790 C   0  0  0  0  0  0  0  0  0  0  0  0
   55.8280   30.6170   44.4920 O   0  0  0  0  0  0  0  0  0  0  0  0
   58.0420   30.9580   43.9390 N   0  0  0  0  0  0  0  0  0  0  0  0
   58.2690   32.1440   44.6780 C   0  0  0  0  0  0  0  0  0  0  0  0
   58.4280   33.3940   44.1480 C   0  0  0  0  0  0  0  0  0  0  0  0
   58.6510   34.5380   44.9080 C   0  0  0  0  0  0  0  0  0  0  0  0
   58.7070   34.3730   46.2690 C   0  0  0  0  0  0  0  0  0  0  0  0
   58.5570   33.1440   46.8740 C   0  0  0  0  0  0  0  0  0  0  0  0
   58.6110   32.9480   48.2410 O   0  0  0  0  0  0  0  0  0  0  0  0
   58.9240   31.7790   48.9230 C   0  0  0  0  0  0  0  0  0  0  0  0
   60.3220   31.2800   48.7940 C   0  0  0  0  0  0  0  0  0  0  0  0
   58.3370   32.0270   46.0790 C   0  0  0  0  0  0  0  0  0  0  0  0
   60.0400   29.1510   44.5600 N   0  0  0  0  0  0  0  0  0  0  0  0
   60.7190   29.3130   45.6640 N   0  0  0  0  0  0  0  0  0  0  0  0
   60.2050   28.4370   46.5420 C   0  0  0  0  0  0  0  0  0  0  0  0
   60.6560   28.3390   47.7280 O   0  0  0  0  0  0  0  0  0  0  0  0
   56.3751   24.6739   46.4876 H   0  0  0  0  0  0  0  0  0  0  0  0
   55.7102   25.5846   45.0892 H   0  0  0  0  0  0  0  0  0  0  0  0
   57.4310   25.0693   45.0892 H   0  0  0  0  0  0  0  0  0  0  0  0
   56.7416   27.5665   45.7145 H   0  0  0  0  0  0  0  0  0  0  0  0
   56.4415   26.8452   47.3233 H   0  0  0  0  0  0  0  0  0  0  0  0
   58.6358   26.8126   47.7189 H   0  0  0  0  0  0  0  0  0  0  0  0
   58.8484   25.7415   46.2503 H   0  0  0  0  0  0  0  0  0  0  0  0
   56.6974   29.2386   42.0276 H   0  0  0  0  0  0  0  0  0  0  0  0
   55.7723   28.4984   43.4292 H   0  0  0  0  0  0  0  0  0  0  0  0
   58.8430   30.5470   43.3710 H   0  0  0  0  0  0  0  0  0  0  0  0
   58.3765   33.5020   43.0545 H   0  0  0  0  0  0  0  0  0  0  0  0
   58.7762   35.5259   44.4408 H   0  0  0  0  0  0  0  0  0  0  0  0
   58.8783   35.2562   46.9019 H   0  0  0  0  0  0  0  0  0  0  0  0
   58.7307   31.9551   49.9915 H   0  0  0  0  0  0  0  0  0  0  0  0
   58.2970   31.0008   48.4634 H   0  0  0  0  0  0  0  0  0  0  0  0
   60.7506   31.1270   49.7955 H   0  0  0  0  0  0  0  0  0  0  0  0
   60.3218   30.3264   48.2457 H   0  0  0  0  0  0  0  0  0  0  0  0
   60.9257   32.0182   48.2457 H   0  0  0  0  0  0  0  0  0  0  0  0
   58.2146   31.0401   46.5492 H   0  0  0  0  0  0  0  0  0  0  0  0
   61.5070   29.9780   45.8470 H   0  0  0  0  0  0  0  0  0  0  0  0
  1  2  1  0
  2  3  1  0
  3  4  1  0
  4  5  1  0
  5  6  1  0
  6  7  1  0
  7  8  1  0
  8  9  2  0
  8 10  1  0
 10 11  1  0
 11 12  2  0
 12 13  1  0
 13 14  2  0
 14 15  1  0
 15 16  1  0
 16 17  1  0
 17 18  1  0
 15 19  2  0
  5 20  2  0
 20 21  1  0
 21 22  1  0
 22 23  2  0
 22  4  1  0
 19 11  1  0
  1 24  1  0
  1 25  1  0
  1 26  1  0
  2 27  1  0
  2 28  1  0
  3 29  1  0
  3 30  1  0
  7 31  1  0
  7 32  1  0
 10 33  1  0
 12 34  1  0
 13 35  1  0
 14 36  1  0
 17 37  1  0
 17 38  1  0
 18 39  1  0
 18 40  1  0
 18 41  1  0
 19 42  1  0
 21 43  1  0
M  END
>  <smiles>  (71) 
CCCn1c(SCC(=O)Nc2cccc(OCC)c2)n[nH]c1=O

>  <score_type>  (71) 
oracle

>  <origin>  (71) 
adg

>  <m_score__min__energy>  (71) 
-7.2800000000000002

>  <m_primary>  (71) 
energy

$$$$
71:0
     RDKit          3D

 34 35  0  0  0  0  0  0  0  0999 V2000
   54.7710   27.1290   46.0060 H   0  0  0  0  0  0  0  0  0  0  0  0
   54.5530   26.2030   45.6690 O   0  0  0  0  0  0  0  0  0  0  0  0
   55.4290   25.1260   45.7900 C   0  0  0  0  0  0  0  0  0  0  0  0
   55.1050   23.9520   45.1020 C   0  0  0  0  0  0  0  0  0  0  0  0
   54.2848   23.9569   44.3690 H   0  0  0  0  0  0  0  0  0  0  0  0
   55.8140   22.7770   45.3390 C   0  0  0  0  0  0  0  0  0  0  0  0
   55.5583   21.8536   44.7987 H   0  0  0  0  0  0  0  0  0  0  0  0
   56.8500   22.7860   46.2680 C   0  0  0  0  0  0  0  0  0  0  0  0
   57.3835   21.8538   46.5053 H   0  0  0  0  0  0  0  0  0  0  0  0
   57.2030   23.9450   46.8820 N   0  0  0  0  0  0  0  0  0  0  0  0
   56.5680   25.1270   46.6430 C   0  0  0  0  0  0  0  0  0  0  0  0
   57.0680   26.1960   47.1990 N   0  0  0  0  0  0  0  0  0  0  0  0
   57.4400   27.4370   46.5890 C   0  0  0  0  0  0  0  0  0  0  0  0
   58.2860   28.1740   47.1650 O   0  0  0  0  0  0  0  0  0  0  0  0
   56.9820   27.7550   45.1900 C   0  0  0  0  0  0  0  0  0  0  0  0
   56.6120   26.8334   44.7170 H   0  0  0  0  0  0  0  0  0  0  0  0
   57.8366   28.1659   44.6325 H   0  0  0  0  0  0  0  0  0  0  0  0
   55.9120   28.7520   45.1890 N   0  0  0  0  0  0  0  0  0  0  0  0
   55.6560   29.7010   44.1450 C   0  0  0  0  0  0  0  0  0  0  0  0
   54.6170   29.5630   43.4460 O   0  0  0  0  0  0  0  0  0  0  0  0
   56.5570   30.8380   43.8750 C   0  0  0  0  0  0  0  0  0  0  0  0
   56.9870   31.1140   42.5680 C   0  0  0  0  0  0  0  0  0  0  0  0
   56.6401   30.4869   41.7335 H   0  0  0  0  0  0  0  0  0  0  0  0
   57.8540   32.1820   42.3220 C   0  0  0  0  0  0  0  0  0  0  0  0
   58.1798   32.3988   41.2940 H   0  0  0  0  0  0  0  0  0  0  0  0
   58.3080   32.9750   43.3790 C   0  0  0  0  0  0  0  0  0  0  0  0
   58.9924   33.8131   43.1809 H   0  0  0  0  0  0  0  0  0  0  0  0
   57.8940   32.7060   44.6920 C   0  0  0  0  0  0  0  0  0  0  0  0
   58.4160   33.5290   45.8330 C   0  0  0  0  0  0  0  0  0  0  0  0
   58.1212   33.0642   46.7854 H   0  0  0  0  0  0  0  0  0  0  0  0
   59.5132   33.5820   45.7750 H   0  0  0  0  0  0  0  0  0  0  0  0
   57.9963   34.5441   45.7750 H   0  0  0  0  0  0  0  0  0  0  0  0
   57.0380   31.6200   44.9380 C   0  0  0  0  0  0  0  0  0  0  0  0
   56.7423   31.3803   45.9700 H   0  0  0  0  0  0  0  0  0  0  0  0
  1  2  1  0
  2  3  1  0
  3  4  2  0
  4  5  1  0
  4  6  1  0
  6  7  1  0
  6  8  2  0
  8  9  1  0
  8 10  1  0
 10 11  1  0
 11 12  2  0
 12 13  1  0
 13 14  2  0
 13 15  1  0
 15 16  1  0
 15 17  1  0
 15 18  1  0
 18 19  1  0
 19 20  2  0
 19 21  1  0
 21 22  2  0
 22 23  1  0
 22 24  1  0
 24 25  1  0
 24 26  2  0
 26 27  1  0
 26 28  1  0
 28 29  1  0
 29 30  1  0
 29 31  1  0
 29 32  1  0
 28 33  2  0
 33 34  1  0
 11  3  1  0
 33 21  1  0
M  CHG  2  10  -1  18  -1
M  END
>  <UniqueID>  (72) 
70

>  <SMILES>  (72) 
Cc1cccc(C(=O)[N-]CC(=O)/N=c2/[n-]cccc2O)c1

>  <Energy>  (72) 
55.92976939604583

>  <Genealogy>  (72) 
Cc1cccc(C(=O)[N-]CC(=O)N=c2[n-]cccc2O)c1 (protonated)
Cc1cccc(C(=O)[N-]CC(=O)/N=c2/[n-]cccc2O)c1 (cis-trans isomerization)
Cc1cccc(C(=O)[N-]CC(=O)/N=c2/[n-]cccc2O)c1 (3D coordinates assigned)
Cc1cccc(C(=O)[N-]CC(=O)/N=c2/[n-]cccc2O)c1 (optimized conformer: 55.92976939604583 kcal/mol)

>  <smiles>  (72) 
Cc1cccc(C(=O)NCC(=O)N=c2[nH]cccc2O)c1

>  <score_type>  (72) 
oracle

>  <origin>  (72) 
adg

>  <m_score__min__energy>  (72) 
-11.210000000000001

>  <m_primary>  (72) 
energy

$$$$
72:0
     RDKit          3D

 60 64  0  0  0  0  0  0  0  0999 V2000
   51.7750   27.5820   51.9950 H   0  0  0  0  0  0  0  0  0  0  0  0
   51.8920   28.5130   52.3750 O   0  0  0  0  0  0  0  0  0  0  0  0
   53.1110   29.1910   52.3270 C   0  0  0  0  0  0  0  0  0  0  0  0
   53.1560   30.4810   51.7810 C   0  0  0  0  0  0  0  0  0  0  0  0
   51.6970   31.2370   51.1600 Cl  0  0  0  0  0  0  0  0  0  0  0  0
   54.3650   31.1780   51.7220 C   0  0  0  0  0  0  0  0  0  0  0  0
   54.3904   32.1897   51.2909 H   0  0  0  0  0  0  0  0  0  0  0  0
   55.5480   30.5990   52.2080 C   0  0  0  0  0  0  0  0  0  0  0  0
   56.8330   31.3400   52.1410 C   0  0  0  0  0  0  0  0  0  0  0  0
   57.3260   32.0120   53.2720 C   0  0  0  0  0  0  0  0  0  0  0  0
   56.7520   31.9955   54.2102 H   0  0  0  0  0  0  0  0  0  0  0  0
   58.5380   32.7000   53.2140 C   0  0  0  0  0  0  0  0  0  0  0  0
   58.9138   33.2219   54.1064 H   0  0  0  0  0  0  0  0  0  0  0  0
   59.2780   32.7300   52.0280 C   0  0  0  0  0  0  0  0  0  0  0  0
   60.4570   33.3950   51.9980 N   0  0  0  0  0  0  0  0  0  0  0  0
   61.2130   33.4620   50.8780 C   0  0  0  0  0  0  0  0  0  0  0  0
   62.1646   34.0133   50.8994 H   0  0  0  0  0  0  0  0  0  0  0  0
   60.8020   32.8390   49.6890 C   0  0  0  0  0  0  0  0  0  0  0  0
   61.6550   33.0910   48.5100 C   0  0  0  0  0  0  0  0  0  0  0  0
   63.0090   32.7210   48.5510 C   0  0  0  0  0  0  0  0  0  0  0  0
   63.3981   32.1674   49.4182 H   0  0  0  0  0  0  0  0  0  0  0  0
   63.8640   33.0510   47.4990 C   0  0  0  0  0  0  0  0  0  0  0  0
   64.9195   32.7430   47.5309 H   0  0  0  0  0  0  0  0  0  0  0  0
   63.3800   33.7720   46.4060 C   0  0  0  0  0  0  0  0  0  0  0  0
   64.0516   34.0186   45.5704 H   0  0  0  0  0  0  0  0  0  0  0  0
   62.0450   34.1810   46.3710 C   0  0  0  0  0  0  0  0  0  0  0  0
   61.6711   34.7543   45.5099 H   0  0  0  0  0  0  0  0  0  0  0  0
   61.1730   33.8630   47.4340 C   0  0  0  0  0  0  0  0  0  0  0  0
   59.8360   34.2890   47.4500 O   0  0  0  0  0  0  0  0  0  0  0  0
   59.1470   34.8330   46.3290 C   0  0  0  0  0  0  0  0  0  0  0  0
   58.3287   35.4791   46.6797 H   0  0  0  0  0  0  0  0  0  0  0  0
   59.8466   35.4250   45.7206 H   0  0  0  0  0  0  0  0  0  0  0  0
   58.7334   34.0152   45.7206 H   0  0  0  0  0  0  0  0  0  0  0  0
   59.5790   32.0990   49.6820 C   0  0  0  0  0  0  0  0  0  0  0  0
   59.1350   31.4060   48.6610 N   0  0  0  0  0  0  0  0  0  0  0  0
   58.5160   31.7730   47.3870 C   0  0  0  0  0  0  0  0  0  0  0  0
   57.4579   32.0144   47.5665 H   0  0  0  0  0  0  0  0  0  0  0  0
   59.0679   32.6359   46.9860 H   0  0  0  0  0  0  0  0  0  0  0  0
   58.5920   30.6650   46.3600 C   0  0  0  0  0  0  0  0  0  0  0  0
   59.6760   29.7740   46.4080 C   0  0  0  0  0  0  0  0  0  0  0  0
   60.4354   29.8826   47.1963 H   0  0  0  0  0  0  0  0  0  0  0  0
   59.8000   28.7510   45.4650 C   0  0  0  0  0  0  0  0  0  0  0  0
   60.6408   28.0445   45.5276 H   0  0  0  0  0  0  0  0  0  0  0  0
   58.8580   28.6250   44.4440 C   0  0  0  0  0  0  0  0  0  0  0  0
   58.9478   27.8084   43.7125 H   0  0  0  0  0  0  0  0  0  0  0  0
   57.8010   29.5330   44.3480 C   0  0  0  0  0  0  0  0  0  0  0  0
   56.6460   29.3760   43.0320 Cl  0  0  0  0  0  0  0  0  0  0  0  0
   57.6730   30.5660   45.2890 C   0  0  0  0  0  0  0  0  0  0  0  0
   56.6440   31.4930   45.1460 O   0  0  0  0  0  0  0  0  0  0  0  0
   58.8050   32.0690   50.8730 C   0  0  0  0  0  0  0  0  0  0  0  0
   57.5760   31.3750   50.9460 C   0  0  0  0  0  0  0  0  0  0  0  0
   57.1943   30.8543   50.0554 H   0  0  0  0  0  0  0  0  0  0  0  0
   55.5000   29.3060   52.7570 C   0  0  0  0  0  0  0  0  0  0  0  0
   56.4213   28.8445   53.1420 H   0  0  0  0  0  0  0  0  0  0  0  0
   54.2860   28.5940   52.8200 C   0  0  0  0  0  0  0  0  0  0  0  0
   54.2110   27.3000   53.3620 O   0  0  0  0  0  0  0  0  0  0  0  0
   55.1540   26.7520   54.2770 C   0  0  0  0  0  0  0  0  0  0  0  0
   54.8206   26.9458   55.3072 H   0  0  0  0  0  0  0  0  0  0  0  0
   55.2338   25.6669   54.1154 H   0  0  0  0  0  0  0  0  0  0  0  0
   56.1363   27.2200   54.1154 H   0  0  0  0  0  0  0  0  0  0  0  0
  1  2  1  0
  2  3  1  0
  3  4  2  0
  4  5  1  0
  4  6  1  0
  6  7  1  0
  6  8  2  0
  8  9  1  0
  9 10  2  0
 10 11  1  0
 10 12  1  0
 12 13  1  0
 12 14  2  0
 14 15  1  0
 15 16  1  0
 16 17  1  0
 16 18  2  0
 18 19  1  0
 19 20  2  0
 20 21  1  0
 20 22  1  0
 22 23  1  0
 22 24  2  0
 24 25  1  0
 24 26  1  0
 26 27  1  0
 26 28  2  0
 28 29  1  0
 29 30  1  0
 30 31  1  0
 30 32  1  0
 30 33  1  0
 18 34  1  0
 34 35  2  0
 35 36  1  0
 36 37  1  0
 36 38  1  0
 36 39  1  0
 39 40  2  0
 40 41  1  0
 40 42  1  0
 42 43  1  0
 42 44  2  0
 44 45  1  0
 44 46  1  0
 46 47  1  0
 46 48  2  0
 48 49  1  0
 34 50  1  0
 50 51  2  0
 51 52  1  0
  8 53  1  0
 53 54  1  0
 53 55  2  0
 55 56  1  0
 56 57  1  0
 57 58  1  0
 57 59  1  0
 57 60  1  0
 55  3  1  0
 51  9  1  0
 50 14  1  0
 28 19  1  0
 48 39  1  0
M  CHG  2  15  -1  49  -1
M  END
>  <UniqueID>  (73) 
71

>  <SMILES>  (73) 
COc1ccccc1-c1c[n-]c2ccc(-c3cc(Cl)c(O)c(OC)c3)cc2/c1=N/Cc1cccc(Cl)c1[O-]

>  <Energy>  (73) 
94.34196913963684

>  <Genealogy>  (73) 
COc1ccccc1-c1c[n-]c2ccc(-c3cc(Cl)c(O)c(OC)c3)cc2c1=NCc1cccc(Cl)c1[O-] (protonated)
COc1ccccc1-c1c[n-]c2ccc(-c3cc(Cl)c(O)c(OC)c3)cc2/c1=N/Cc1cccc(Cl)c1[O-] (cis-trans isomerization)
COc1ccccc1-c1c[n-]c2ccc(-c3cc(Cl)c(O)c(OC)c3)cc2/c1=N/Cc1cccc(Cl)c1[O-] (3D coordinates assigned)
COc1ccccc1-c1c[n-]c2ccc(-c3cc(Cl)c(O)c(OC)c3)cc2/c1=N/Cc1cccc(Cl)c1[O-] (optimized conformer: 94.34196913963684 kcal/mol)

>  <smiles>  (73) 
COc1ccccc1-c1c[nH]c2ccc(-c3cc(Cl)c(O)c(OC)c3)cc2c1=NCc1cccc(Cl)c1O

>  <score_type>  (73) 
oracle

>  <origin>  (73) 
adg

>  <m_score__min__energy>  (73) 
-11.82

>  <m_primary>  (73) 
energy

$$$$
73:0
     RDKit          3D

 53 56  0  0  1  0  0  0  0  0999 V2000
   59.6670   35.5910   46.0760 C   0  0  0  0  0  0  0  0  0  0  0  0
   59.4170   34.1370   46.3100 C   0  0  0  0  0  0  0  0  0  0  0  0
   59.8820   33.5340   47.4630 C   0  0  0  0  0  0  0  0  0  0  0  0
   59.6100   32.1870   47.6060 C   0  0  0  0  0  0  0  0  0  0  0  0
   60.0430   31.6070   48.6860 N   0  0  0  0  0  0  0  0  0  0  0  0
   61.1330   30.6390   48.6150 C   0  0  0  0  0  0  0  0  0  0  0  0
   60.5930   29.3770   48.0540 C   0  0  0  0  0  0  0  0  0  0  0  0
   60.5930   29.2630   46.6710 C   0  0  0  0  0  0  0  0  0  0  0  0
   60.1010   28.1050   46.0610 C   0  0  0  0  0  0  0  0  0  0  0  0
   59.6170   27.0820   46.8360 C   0  0  0  0  0  0  0  0  0  0  0  0
   59.1130   25.8910   46.1640 C   0  0  0  0  0  0  0  0  0  0  0  0
   59.9220   24.9410   45.9940 O   0  0  0  0  0  0  0  0  0  0  0  0
   57.7790   25.7580   45.7010 N   0  0  0  0  0  0  0  0  0  0  0  0
   57.4460   24.5230   45.0610 C   0  0  0  0  0  0  0  0  0  0  0  0
   56.9540   24.5360   43.7750 C   0  0  0  0  0  0  0  0  0  0  0  0
   56.6190   23.3560   43.1200 C   0  0  0  0  0  0  0  0  0  0  0  0
   56.7890   22.1420   43.7890 C   0  0  0  0  0  0  0  0  0  0  0  0
   56.4480   20.9980   43.1120 O   0  0  0  0  0  0  0  0  0  0  0  0
   57.2880   22.1440   45.0900 C   0  0  0  0  0  0  0  0  0  0  0  0
   57.6190   23.3170   45.7370 C   0  0  0  0  0  0  0  0  0  0  0  0
   59.6300   27.2230   48.2080 C   0  0  0  0  0  0  0  0  0  0  0  0
   60.1090   28.3560   48.8450 C   0  0  0  0  0  0  0  0  0  0  0  0
   58.9290   31.5300   46.6580 N   0  0  0  0  0  0  0  0  0  0  0  0
   58.4760   32.1160   45.5360 C   0  0  0  0  0  0  0  0  0  0  0  0
   57.7430   31.3230   44.5580 C   0  0  0  0  0  0  0  0  0  0  0  0
   57.1420   30.1210   44.8610 C   0  0  0  0  0  0  0  0  0  0  0  0
   56.4460   29.3750   43.9180 C   0  0  0  0  0  0  0  0  0  0  0  0
   56.3340   29.8280   42.6180 C   0  0  0  0  0  0  0  0  0  0  0  0
   56.9380   31.0410   42.3000 C   0  0  0  0  0  0  0  0  0  0  0  0
   57.6270   31.7680   43.2580 C   0  0  0  0  0  0  0  0  0  0  0  0
   58.7320   33.4220   45.3840 N   0  0  0  0  0  0  0  0  0  0  0  0
   59.7559   36.1080   47.0428 H   0  0  0  0  0  0  0  0  0  0  0  0
   60.5998   35.7157   45.5064 H   0  0  0  0  0  0  0  0  0  0  0  0
   58.8294   36.0200   45.5064 H   0  0  0  0  0  0  0  0  0  0  0  0
   60.4392   34.0966   48.2266 H   0  0  0  0  0  0  0  0  0  0  0  0
   61.9320   31.0243   47.9645 H   0  0  0  0  0  0  0  0  0  0  0  0
   61.5514   30.4622   49.6169 H   0  0  0  0  0  0  0  0  0  0  0  0
   60.9811   30.0859   46.0529 H   0  0  0  0  0  0  0  0  0  0  0  0
   60.1021   28.0148   44.9647 H   0  0  0  0  0  0  0  0  0  0  0  0
   57.1070   26.5340   45.8370 H   0  0  0  0  0  0  0  0  0  0  0  0
   56.8236   25.4973   43.2564 H   0  0  0  0  0  0  0  0  0  0  0  0
   56.2268   23.3784   42.0925 H   0  0  0  0  0  0  0  0  0  0  0  0
   56.9280   20.1260   43.1390 H   0  0  0  0  0  0  0  0  0  0  0  0
   57.4214   21.1864   45.6145 H   0  0  0  0  0  0  0  0  0  0  0  0
   58.0111   23.3003   46.7646 H   0  0  0  0  0  0  0  0  0  0  0  0
   59.2424   26.3984   48.8243 H   0  0  0  0  0  0  0  0  0  0  0  0
   60.1036   28.4384   49.9419 H   0  0  0  0  0  0  0  0  0  0  0  0
   57.2160   29.7371   45.8892 H   0  0  0  0  0  0  0  0  0  0  0  0
   55.9826   28.4204   44.2077 H   0  0  0  0  0  0  0  0  0  0  0  0
   55.7860   29.2497   41.8596 H   0  0  0  0  0  0  0  0  0  0  0  0
   56.8675   31.4285   41.2729 H   0  0  0  0  0  0  0  0  0  0  0  0
   58.0927   32.7233   42.9743 H   0  0  0  0  0  0  0  0  0  0  0  0
   58.4140   33.9270   44.5530 H   0  0  0  0  0  0  0  0  0  0  0  0
  1  2  1  0
  2  3  2  0
  3  4  1  0
  4  5  2  0
  5  6  1  0
  6  7  1  0
  7  8  2  0
  8  9  1  0
  9 10  2  0
 10 11  1  0
 11 12  2  0
 11 13  1  0
 13 14  1  0
 14 15  2  0
 15 16  1  0
 16 17  2  0
 17 18  1  0
 17 19  1  0
 19 20  2  0
 10 21  1  0
 21 22  2  0
  4 23  1  0
 23 24  2  0
 24 25  1  0
 25 26  2  0
 26 27  1  0
 27 28  2  0
 28 29  1  0
 29 30  2  0
 24 31  1  0
 31  2  1  0
 22  7  1  0
 30 25  1  0
 20 14  1  0
  1 32  1  0
  1 33  1  0
  1 34  1  0
  3 35  1  0
  6 36  1  0
  6 37  1  0
  8 38  1  0
  9 39  1  0
 13 40  1  0
 15 41  1  0
 16 42  1  0
 18 43  1  0
 19 44  1  0
 20 45  1  0
 21 46  1  0
 22 47  1  0
 26 48  1  0
 27 49  1  0
 28 50  1  0
 29 51  1  0
 30 52  1  0
 31 53  1  0
M  END
>  <smiles>  (74) 
Cc1cc(=NCc2ccc(C(=O)Nc3ccc(O)cc3)cc2)nc(-c2ccccc2)[nH]1

>  <score_type>  (74) 
oracle

>  <origin>  (74) 
adg

>  <m_score__min__energy>  (74) 
-9.5500000000000007

>  <m_primary>  (74) 
energy

$$$$
74:0
     RDKit          3D

 45 47  0  0  0  0  0  0  0  0999 V2000
   58.4728   32.2266   45.0893 H   0  0  0  0  0  0  0  0  0  0  0  0
   57.8290   31.4470   44.6560 C   0  0  0  0  0  0  0  0  0  0  0  0
   57.1550   30.5490   45.4230 N   0  0  0  0  0  0  0  0  0  0  0  0
   56.4180   29.7020   44.6750 C   0  0  0  0  0  0  0  0  0  0  0  0
   55.7440   28.7260   45.2100 N   0  0  0  0  0  0  0  0  0  0  0  0
   56.2220   27.4280   45.6020 C   0  0  0  0  0  0  0  0  0  0  0  0
   55.3950   26.5980   46.0640 O   0  0  0  0  0  0  0  0  0  0  0  0
   57.6490   26.9840   45.3950 C   0  0  0  0  0  0  0  0  0  0  0  0
   57.8224   26.0592   45.9648 H   0  0  0  0  0  0  0  0  0  0  0  0
   57.8067   26.8150   44.3196 H   0  0  0  0  0  0  0  0  0  0  0  0
   58.6070   28.0170   45.8500 N   0  0  0  0  0  0  0  0  0  0  0  0
   59.6120   28.2920   44.7950 C   0  0  0  0  0  0  0  0  0  0  0  0
   59.9365   27.3321   44.3669 H   0  0  0  0  0  0  0  0  0  0  0  0
   59.1264   28.9424   44.0526 H   0  0  0  0  0  0  0  0  0  0  0  0
   60.8540   29.0410   45.3000 C   0  0  0  0  0  0  0  0  0  0  0  0
   61.4333   28.3568   45.9374 H   0  0  0  0  0  0  0  0  0  0  0  0
   61.4088   29.3677   44.4081 H   0  0  0  0  0  0  0  0  0  0  0  0
   60.5420   30.3100   46.1140 C   0  0  0  0  0  0  0  0  0  0  0  0
   61.4891   30.6869   46.5275 H   0  0  0  0  0  0  0  0  0  0  0  0
   60.0529   31.0019   45.4125 H   0  0  0  0  0  0  0  0  0  0  0  0
   59.5840   30.1370   47.2470 N   0  0  2  0  0  0  0  0  0  0  0  0
   58.6050   30.1980   46.8790 H   0  0  0  0  0  0  0  0  0  0  0  0
   59.7370   31.2500   48.2210 C   0  0  0  0  0  0  0  0  0  0  0  0
   58.9206   31.1934   48.9560 H   0  0  0  0  0  0  0  0  0  0  0  0
   60.7181   31.1436   48.7069 H   0  0  0  0  0  0  0  0  0  0  0  0
   59.6940   32.6050   47.5460 C   0  0  0  0  0  0  0  0  0  0  0  0
   60.8760   33.2020   47.0730 C   0  0  0  0  0  0  0  0  0  0  0  0
   61.8419   32.6984   47.2259 H   0  0  0  0  0  0  0  0  0  0  0  0
   60.8310   34.4310   46.4100 C   0  0  0  0  0  0  0  0  0  0  0  0
   61.7600   34.8908   46.0418 H   0  0  0  0  0  0  0  0  0  0  0  0
   59.6070   35.0770   46.2140 C   0  0  0  0  0  0  0  0  0  0  0  0
   59.5724   36.0428   45.6886 H   0  0  0  0  0  0  0  0  0  0  0  0
   58.4270   34.4950   46.6860 C   0  0  0  0  0  0  0  0  0  0  0  0
   57.4645   35.0050   46.5332 H   0  0  0  0  0  0  0  0  0  0  0  0
   58.4670   33.2660   47.3520 C   0  0  0  0  0  0  0  0  0  0  0  0
   57.3160   32.7300   47.8230 F   0  0  0  0  0  0  0  0  0  0  0  0
   59.7410   28.8350   47.9510 C   0  0  0  0  0  0  0  0  0  0  0  0
   60.8082   28.6864   48.1725 H   0  0  0  0  0  0  0  0  0  0  0  0
   59.1264   28.8859   48.8619 H   0  0  0  0  0  0  0  0  0  0  0  0
   59.2360   27.6160   47.1300 C   0  0  0  0  0  0  0  0  0  0  0  0
   60.0906   26.9584   46.9126 H   0  0  0  0  0  0  0  0  0  0  0  0
   58.4725   27.1006   47.7312 H   0  0  0  0  0  0  0  0  0  0  0  0
   56.5910   30.0260   43.0300 S   0  0  0  0  0  0  0  0  0  0  0  0
   57.6460   31.3090   43.2850 C   0  0  0  0  0  0  0  0  0  0  0  0
   58.1099   31.9301   42.5046 H   0  0  0  0  0  0  0  0  0  0  0  0
  1  2  1  0
  2  3  1  0
  3  4  1  0
  4  5  2  0
  5  6  1  0
  6  7  2  0
  6  8  1  0
  8  9  1  0
  8 10  1  0
  8 11  1  0
 11 12  1  0
 12 13  1  0
 12 14  1  0
 12 15  1  0
 15 16  1  0
 15 17  1  0
 15 18  1  0
 18 19  1  0
 18 20  1  0
 18 21  1  0
 21 22  1  6
 21 23  1  0
 23 24  1  0
 23 25  1  0
 23 26  1  0
 26 27  2  0
 27 28  1  0
 27 29  1  0
 29 30  1  0
 29 31  2  0
 31 32  1  0
 31 33  1  0
 33 34  1  0
 33 35  2  0
 35 36  1  0
 21 37  1  0
 37 38  1  0
 37 39  1  0
 37 40  1  0
 40 41  1  0
 40 42  1  0
  4 43  1  0
 43 44  1  0
 44 45  1  0
 44  2  2  0
 40 11  1  0
 35 26  1  0
M  CHG  2   3  -1  21   1
M  END
>  <UniqueID>  (75) 
72

>  <SMILES>  (75) 
O=C(CN1CCC[N@H+](Cc2ccccc2F)CC1)/N=c1/[n-]ccs1

>  <Energy>  (75) 
97.44909229830742

>  <Genealogy>  (75) 
O=C(CN1CCC[NH+](Cc2ccccc2F)CC1)N=c1[n-]ccs1 (protonated)
O=C(CN1CCC[N@H+](Cc2ccccc2F)CC1)N=c1[n-]ccs1 (chirality)
O=C(CN1CCC[N@H+](Cc2ccccc2F)CC1)/N=c1/[n-]ccs1 (cis-trans isomerization)
O=C(CN1CCC[N@H+](Cc2ccccc2F)CC1)/N=c1/[n-]ccs1 (3D coordinates assigned)
O=C(CN1CCC[N@H+](Cc2ccccc2F)CC1)/N=c1/[n-]ccs1 (nonaromatic ring conformer: 97.44909229830742 kcal/mol)

>  <smiles>  (75) 
O=C(CN1CCCN(Cc2ccccc2F)CC1)N=c1[nH]ccs1

>  <score_type>  (75) 
oracle

>  <origin>  (75) 
adg

>  <m_score__min__energy>  (75) 
-5.7699999999999996

>  <m_primary>  (75) 
energy

$$$$
75:0
     RDKit          3D

 42 44  0  0  1  0  0  0  0  0999 V2000
   64.0490   33.0520   46.7810 O   0  0  0  0  0  0  0  0  0  0  0  0
   62.9960   32.8110   47.4240 C   0  0  0  0  0  0  0  0  0  0  0  0
   62.6650   31.5310   47.7380 N   0  0  0  0  0  0  0  0  0  0  0  0
   61.5580   31.2120   48.4200 C   0  0  0  0  0  0  0  0  0  0  0  0
   61.1440   29.8590   48.8010 C   0  0  0  0  0  0  0  0  0  0  0  0
   59.9010   29.5330   48.1940 N   0  0  0  0  0  0  0  0  0  0  0  0
   59.5840   29.4690   46.9750 C   0  0  0  0  0  0  0  0  0  0  0  0
   60.3820   28.7940   46.0920 C   0  0  0  0  0  0  0  0  0  0  0  0
   60.0260   28.7370   44.7870 C   0  0  0  0  0  0  0  0  0  0  0  0
   58.9070   29.3340   44.3690 N   0  0  0  0  0  0  0  0  0  0  0  0
   58.1070   30.0020   45.2100 C   0  0  0  0  0  0  0  0  0  0  0  0
   57.0260   30.5960   44.8960 N   0  0  0  0  0  0  0  0  0  0  0  0
   57.0250   31.7540   44.0530 C   0  0  0  0  0  0  0  0  0  0  0  0
   57.7750   32.8260   44.7970 C   0  0  0  0  0  0  0  0  0  0  0  0
   57.4310   33.2260   46.0670 C   0  0  0  0  0  0  0  0  0  0  0  0
   58.1320   34.2090   46.7370 C   0  0  0  0  0  0  0  0  0  0  0  0
   59.2110   34.8340   46.1620 C   0  0  0  0  0  0  0  0  0  0  0  0
   59.5660   34.4410   44.8910 C   0  0  0  0  0  0  0  0  0  0  0  0
   58.8760   33.4620   44.2080 C   0  0  0  0  0  0  0  0  0  0  0  0
   58.4780   30.0510   46.5140 N   0  0  0  0  0  0  0  0  0  0  0  0
   60.7430   32.2820   48.8010 C   0  0  0  0  0  0  0  0  0  0  0  0
   59.5400   32.0960   49.5270 N   0  0  0  0  0  0  0  0  0  0  0  0
   59.5390   32.1020   50.7650 O   0  0  0  0  0  0  0  0  0  0  0  0
   58.3530   31.9080   48.8600 O   0  0  0  0  0  0  0  0  0  0  0  0
   61.0960   33.5850   48.4720 C   0  0  0  0  0  0  0  0  0  0  0  0
   60.3960   34.5800   48.7910 O   0  0  0  0  0  0  0  0  0  0  0  0
   62.2270   33.8510   47.7790 N   0  0  0  0  0  0  0  0  0  0  0  0
   63.3130   30.8020   47.4300 H   0  0  0  0  0  0  0  0  0  0  0  0
   61.9082   29.1396   48.4715 H   0  0  0  0  0  0  0  0  0  0  0  0
   61.0303   29.8147   49.8942 H   0  0  0  0  0  0  0  0  0  0  0  0
   61.3031   28.3028   46.4388 H   0  0  0  0  0  0  0  0  0  0  0  0
   60.6606   28.1972   44.0687 H   0  0  0  0  0  0  0  0  0  0  0  0
   58.6510   29.2830   43.3690 H   0  0  0  0  0  0  0  0  0  0  0  0
   57.5272   31.5306   43.1002 H   0  0  0  0  0  0  0  0  0  0  0  0
   55.9990   32.0753   43.8204 H   0  0  0  0  0  0  0  0  0  0  0  0
   56.5729   32.7492   46.5633 H   0  0  0  0  0  0  0  0  0  0  0  0
   57.8198   34.4972   47.7516 H   0  0  0  0  0  0  0  0  0  0  0  0
   59.7694   35.6173   46.6954 H   0  0  0  0  0  0  0  0  0  0  0  0
   60.4271   34.9232   44.4053 H   0  0  0  0  0  0  0  0  0  0  0  0
   59.1921   33.1781   43.1934 H   0  0  0  0  0  0  0  0  0  0  0  0
   57.8830   30.5610   47.2070 H   0  0  0  0  0  0  0  0  0  0  0  0
   62.5150   34.8250   47.5200 H   0  0  0  0  0  0  0  0  0  0  0  0
  1  2  2  0
  2  3  1  0
  3  4  1  0
  4  5  1  0
  5  6  1  0
  6  7  2  0
  7  8  1  0
  8  9  2  0
  9 10  1  0
 10 11  1  0
 11 12  2  0
 12 13  1  0
 13 14  1  0
 14 15  2  0
 15 16  1  0
 16 17  2  0
 17 18  1  0
 18 19  2  0
 11 20  1  0
  4 21  2  0
 21 22  1  0
 22 23  2  0
 22 24  1  0
 21 25  1  0
 25 26  2  0
 25 27  1  0
 27  2  1  0
 20  7  1  0
 19 14  1  0
  3 28  1  0
  5 29  1  0
  5 30  1  0
  8 31  1  0
  9 32  1  0
 10 33  1  0
 13 34  1  0
 13 35  1  0
 15 36  1  0
 16 37  1  0
 17 38  1  0
 18 39  1  0
 19 40  1  0
 20 41  1  0
 27 42  1  0
M  CHG  2  22   1  24  -1
M  END
>  <smiles>  (76) 
O=c1[nH]c(CN=c2cc[nH]c(=NCc3ccccc3)[nH]2)c([N+](=O)[O-])c(=O)[nH]1

>  <score_type>  (76) 
oracle

>  <origin>  (76) 
adg

>  <m_score__min__energy>  (76) 
-9.2200000000000006

>  <m_primary>  (76) 
energy

$$$$
76:0
     RDKit          3D

 31 32  0  0  0  0  0  0  0  0999 V2000
   56.2710   29.6740   42.3980 C   0  0  0  0  0  0  0  0  0  0  0  0
   56.6650   29.8590   44.1230 S   0  0  0  0  0  0  0  0  0  0  0  0
   56.2810   31.2420   44.5650 O   0  0  0  0  0  0  0  0  0  0  0  0
   55.8930   28.8620   44.9440 O   0  0  0  0  0  0  0  0  0  0  0  0
   58.3700   29.6430   44.3710 N   0  0  0  0  0  0  0  0  0  0  0  0
   58.9860   29.4780   45.6660 C   0  0  0  0  0  0  0  0  0  0  0  0
   59.4740   28.2240   46.0740 C   0  0  0  0  0  0  0  0  0  0  0  0
   60.0800   28.0660   47.3210 C   0  0  0  0  0  0  0  0  0  0  0  0
   60.2180   29.1570   48.1760 C   0  0  0  0  0  0  0  0  0  0  0  0
   59.7580   30.4200   47.7910 C   0  0  0  0  0  0  0  0  0  0  0  0
   59.9730   31.8000   48.9280 S   0  0  0  0  0  0  0  0  0  0  0  0
   61.4080   32.4260   48.0500 C   0  0  0  0  0  0  0  0  0  0  0  0
   62.8920   31.6390   48.0060 S   0  0  0  0  0  0  0  0  0  0  0  0
   63.7000   32.8030   47.1030 C   0  0  0  0  0  0  0  0  0  0  0  0
   62.8100   33.8310   46.8190 C   0  0  0  0  0  0  0  0  0  0  0  0
   61.5210   33.6250   47.3400 C   0  0  0  0  0  0  0  0  0  0  0  0
   60.4460   34.5570   47.1370 N   0  0  0  0  0  0  0  0  0  0  0  0
   60.2150   35.0060   45.9960 O   0  0  0  0  0  0  0  0  0  0  0  0
   59.5980   34.8950   48.1660 O   0  0  0  0  0  0  0  0  0  0  0  0
   59.1330   30.5870   46.5360 C   0  0  0  0  0  0  0  0  0  0  0  0
   58.6210   31.8860   46.1590 C   0  0  0  0  0  0  0  0  0  0  0  0
   58.2130   32.9250   45.8580 N   0  0  0  0  0  0  0  0  0  0  0  0
   55.2796   29.2085   42.2962 H   0  0  0  0  0  0  0  0  0  0  0  0
   56.2632   30.6626   41.9156 H   0  0  0  0  0  0  0  0  0  0  0  0
   57.0266   29.0366   41.9156 H   0  0  0  0  0  0  0  0  0  0  0  0
   58.9670   29.7080   43.5160 H   0  0  0  0  0  0  0  0  0  0  0  0
   59.3770   27.3580   45.4028 H   0  0  0  0  0  0  0  0  0  0  0  0
   60.4498   27.0771   47.6297 H   0  0  0  0  0  0  0  0  0  0  0  0
   60.6917   29.0241   49.1599 H   0  0  0  0  0  0  0  0  0  0  0  0
   64.7537   32.7586   46.7902 H   0  0  0  0  0  0  0  0  0  0  0  0
   63.0883   34.7238   46.2398 H   0  0  0  0  0  0  0  0  0  0  0  0
  1  2  1  0
  2  3  2  0
  2  4  2  0
  2  5  1  0
  5  6  1  0
  6  7  2  0
  7  8  1  0
  8  9  2  0
  9 10  1  0
 10 11  1  0
 11 12  1  0
 12 13  1  0
 13 14  1  0
 14 15  2  0
 15 16  1  0
 16 17  1  0
 17 18  2  0
 17 19  1  0
 10 20  2  0
 20 21  1  0
 21 22  3  0
 20  6  1  0
 16 12  2  0
  1 23  1  0
  1 24  1  0
  1 25  1  0
  5 26  1  0
  7 27  1  0
  8 28  1  0
  9 29  1  0
 14 30  1  0
 15 31  1  0
M  CHG  2  17   1  19  -1
M  END
>  <UniqueID>  (77) 
73

>  <SMILES>  (77) 
CS(=O)(=O)Nc1cccc(Sc2sccc2[N+](=O)[O-])c1C#N

>  <Energy>  (77) 
56.323200304686864

>  <Genealogy>  (77) 
CS(=O)(=O)Nc1cccc(Sc2sccc2[N+](=O)[O-])c1C#N (3D coordinates assigned)
CS(=O)(=O)Nc1cccc(Sc2sccc2[N+](=O)[O-])c1C#N (optimized conformer: 56.323200304686864 kcal/mol)

>  <smiles>  (77) 
CS(=O)(=O)Nc1cccc(Sc2sccc2[N+](=O)[O-])c1C#N

>  <score_type>  (77) 
oracle

>  <origin>  (77) 
adg

>  <m_score__min__energy>  (77) 
-8.2899999999999991

>  <m_primary>  (77) 
energy

$$$$
77:0
     RDKit          3D

 42 45  0  0  0  0  0  0  0  0999 V2000
   58.2660   27.0970   44.2630 O   0  0  0  0  0  0  0  0  0  0  0  0
   57.8550   26.8670   45.4320 C   0  0  0  0  0  0  0  0  0  0  0  0
   57.6090   27.9660   46.3220 N   0  0  0  0  0  0  0  0  0  0  0  0
   57.3580   29.3040   45.8700 C   0  0  0  0  0  0  0  0  0  0  0  0
   56.2410   29.7220   45.1650 C   0  0  0  0  0  0  0  0  0  0  0  0
   55.1670   28.9070   44.8170 O   0  0  0  0  0  0  0  0  0  0  0  0
   56.3070   31.0350   44.8520 N   0  0  0  0  0  0  0  0  0  0  0  0
   57.4930   31.4370   45.3580 C   0  0  0  0  0  0  0  0  0  0  0  0
   58.0330   32.7160   45.2760 C   0  0  0  0  0  0  0  0  0  0  0  0
   59.2990   32.9400   45.8420 C   0  0  0  0  0  0  0  0  0  0  0  0
   60.0090   31.8860   46.4620 C   0  0  0  0  0  0  0  0  0  0  0  0
   61.5780   32.1780   47.2010 S   0  0  0  0  0  0  0  0  0  0  0  0
   62.0960   33.4990   46.7210 O   0  0  0  0  0  0  0  0  0  0  0  0
   62.5590   31.1110   46.8100 O   0  0  0  0  0  0  0  0  0  0  0  0
   61.4420   32.2150   48.9270 N   0  0  0  0  0  0  0  0  0  0  0  0
   60.3150   31.7410   49.6760 C   0  0  0  0  0  0  0  0  0  0  0  0
   59.2210   32.5750   49.9800 C   0  0  0  0  0  0  0  0  0  0  0  0
   58.1330   32.0700   50.6930 C   0  0  0  0  0  0  0  0  0  0  0  0
   58.1250   30.7320   51.1110 C   0  0  0  0  0  0  0  0  0  0  0  0
   59.2070   29.9010   50.8160 C   0  0  0  0  0  0  0  0  0  0  0  0
   60.3000   30.4040   50.1050 C   0  0  0  0  0  0  0  0  0  0  0  0
   61.3420   29.5820   49.8180 F   0  0  0  0  0  0  0  0  0  0  0  0
   59.4470   30.5970   46.5150 C   0  0  0  0  0  0  0  0  0  0  0  0
   58.1720   30.4130   45.9750 C   0  0  0  0  0  0  0  0  0  0  0  0
   57.6770   25.4620   45.8830 C   0  0  0  0  0  0  0  0  0  0  0  0
   57.6640   24.3910   44.9700 C   0  0  0  0  0  0  0  0  0  0  0  0
   57.5030   23.0770   45.4210 C   0  0  0  0  0  0  0  0  0  0  0  0
   57.3550   22.8410   46.7820 C   0  0  0  0  0  0  0  0  0  0  0  0
   57.2020   21.6660   47.2030 O   0  0  0  0  0  0  0  0  0  0  0  0
   57.3790   23.8830   47.6570 N   0  0  0  0  0  0  0  0  0  0  0  0
   57.5370   25.1690   47.2460 C   0  0  0  0  0  0  0  0  0  0  0  0
   57.8000   27.8330   47.3400 H   0  0  0  0  0  0  0  0  0  0  0  0
   57.4835   33.5304   44.7812 H   0  0  0  0  0  0  0  0  0  0  0  0
   59.7426   33.9458   45.8025 H   0  0  0  0  0  0  0  0  0  0  0  0
   59.2245   33.6258   49.6548 H   0  0  0  0  0  0  0  0  0  0  0  0
   57.2797   32.7233   50.9276 H   0  0  0  0  0  0  0  0  0  0  0  0
   57.2653   30.3366   51.6719 H   0  0  0  0  0  0  0  0  0  0  0  0
   59.1994   28.8507   51.1430 H   0  0  0  0  0  0  0  0  0  0  0  0
   59.9959   29.7585   46.9686 H   0  0  0  0  0  0  0  0  0  0  0  0
   57.7813   24.5888   43.8943 H   0  0  0  0  0  0  0  0  0  0  0  0
   57.4937   22.2405   44.7067 H   0  0  0  0  0  0  0  0  0  0  0  0
   57.5550   25.9826   47.9861 H   0  0  0  0  0  0  0  0  0  0  0  0
  1  2  2  0
  2  3  1  0
  3  4  1  0
  4  5  2  0
  5  6  1  0
  5  7  1  0
  7  8  1  0
  8  9  2  0
  9 10  1  0
 10 11  2  0
 11 12  1  0
 12 13  2  0
 12 14  2  0
 12 15  1  0
 15 16  1  0
 16 17  2  0
 17 18  1  0
 18 19  2  0
 19 20  1  0
 20 21  2  0
 21 22  1  0
 11 23  1  0
 23 24  2  0
  2 25  1  0
 25 26  1  0
 26 27  2  0
 27 28  1  0
 28 29  2  0
 28 30  1  0
 30 31  1  0
 24  4  1  0
 31 25  2  0
 24  8  1  0
 21 16  1  0
  3 32  1  0
  9 33  1  0
 10 34  1  0
 17 35  1  0
 18 36  1  0
 19 37  1  0
 20 38  1  0
 23 39  1  0
 26 40  1  0
 27 41  1  0
 31 42  1  0
M  CHG  4   6  -1   7  -1  15  -1  30  -1
M  END
>  <UniqueID>  (78) 
74

>  <SMILES>  (78) 
O=C(Nc1c([O-])[n-]c2ccc(S(=O)(=O)[N-]c3ccccc3F)cc12)c1ccc(=O)[n-]c1

>  <Energy>  (78) 
91.6952000206024

>  <Genealogy>  (78) 
O=C(Nc1c([O-])[n-]c2ccc(S(=O)(=O)[N-]c3ccccc3F)cc12)c1ccc(=O)[n-]c1 (protonated)
O=C(Nc1c([O-])[n-]c2ccc(S(=O)(=O)[N-]c3ccccc3F)cc12)c1ccc(=O)[n-]c1 (3D coordinates assigned)
O=C(Nc1c([O-])[n-]c2ccc(S(=O)(=O)[N-]c3ccccc3F)cc12)c1ccc(=O)[n-]c1 (optimized conformer: 91.6952000206024 kcal/mol)

>  <smiles>  (78) 
O=C(Nc1c(O)[nH]c2ccc(S(=O)(=O)Nc3ccccc3F)cc12)c1ccc(=O)[nH]c1

>  <score_type>  (78) 
oracle

>  <origin>  (78) 
adg

>  <m_score__min__energy>  (78) 
-14.720000000000001

>  <m_primary>  (78) 
energy

$$$$
78:0
     RDKit          3D

 70 74  0  0  0  0  0  0  0  0999 V2000
   61.7160   34.5800   48.9800 C   0  0  0  0  0  0  0  0  0  0  0  0
   60.5230   33.6660   49.1100 C   0  0  0  0  0  0  0  0  0  0  0  0
   60.1810   33.1440   50.3770 C   0  0  0  0  0  0  0  0  0  0  0  0
   60.9900   33.4740   51.4810 O   0  0  0  0  0  0  0  0  0  0  0  0
   62.0390   32.6700   52.0220 C   0  0  0  0  0  0  0  0  0  0  0  0
   61.4840   31.3400   52.5480 C   0  0  0  0  0  0  0  0  0  0  0  0
   62.1560   30.1810   51.9170 N   0  0  0  0  0  0  0  0  0  0  0  0
   62.9670   29.4720   52.9210 C   0  0  0  0  0  0  0  0  0  0  0  0
   61.1920   29.2490   51.2810 C   0  0  0  0  0  0  0  0  0  0  0  0
   61.0290   29.5820   49.8210 C   0  0  0  0  0  0  0  0  0  0  0  0
   61.8820   30.5120   49.1990 C   0  0  0  0  0  0  0  0  0  0  0  0
   61.7120   30.8340   47.8490 C   0  0  0  0  0  0  0  0  0  0  0  0
   60.6830   30.2400   47.1130 C   0  0  0  0  0  0  0  0  0  0  0  0
   59.8220   29.3260   47.7250 C   0  0  0  0  0  0  0  0  0  0  0  0
   59.9880   29.0020   49.0750 C   0  0  0  0  0  0  0  0  0  0  0  0
   59.0530   32.3080   50.5000 C   0  0  0  0  0  0  0  0  0  0  0  0
   58.2580   32.0190   49.3900 C   0  0  0  0  0  0  0  0  0  0  0  0
   58.5740   32.5610   48.1400 C   0  0  0  0  0  0  0  0  0  0  0  0
   57.7800   32.3070   47.0180 C   0  0  0  0  0  0  0  0  0  0  0  0
   58.1030   32.8910   45.7920 C   0  0  0  0  0  0  0  0  0  0  0  0
   57.2740   32.6180   44.6520 N   0  0  0  0  0  0  0  0  0  0  0  0
   57.4160   31.5060   43.7590 C   0  0  0  0  0  0  0  0  0  0  0  0
   57.3560   31.6890   42.5130 O   0  0  0  0  0  0  0  0  0  0  0  0
   57.5900   30.1350   44.2950 C   0  0  0  0  0  0  0  0  0  0  0  0
   58.8720   29.5690   44.3970 C   0  0  0  0  0  0  0  0  0  0  0  0
   59.0400   28.2840   44.9160 C   0  0  0  0  0  0  0  0  0  0  0  0
   57.9360   27.5440   45.3640 C   0  0  0  0  0  0  0  0  0  0  0  0
   58.1510   26.1940   45.9340 C   0  0  0  0  0  0  0  0  0  0  0  0
   58.5510   26.1000   47.1260 O   0  0  0  0  0  0  0  0  0  0  0  0
   57.8870   24.9560   45.1580 C   0  0  0  0  0  0  0  0  0  0  0  0
   56.9940   24.9590   44.0680 C   0  0  0  0  0  0  0  0  0  0  0  0
   56.7400   23.7830   43.3580 C   0  0  0  0  0  0  0  0  0  0  0  0
   57.3610   22.5890   43.7330 C   0  0  0  0  0  0  0  0  0  0  0  0
   58.2370   22.5680   44.8200 C   0  0  0  0  0  0  0  0  0  0  0  0
   58.4990   23.7440   45.5320 C   0  0  0  0  0  0  0  0  0  0  0  0
   56.6460   28.0960   45.2410 C   0  0  0  0  0  0  0  0  0  0  0  0
   55.5220   27.3700   45.6200 O   0  0  0  0  0  0  0  0  0  0  0  0
   56.4790   29.3830   44.7170 C   0  0  0  0  0  0  0  0  0  0  0  0
   59.2700   33.6770   45.7140 C   0  0  0  0  0  0  0  0  0  0  0  0
   59.6520   34.1570   44.6140 O   0  0  0  0  0  0  0  0  0  0  0  0
   60.0030   33.8980   46.8010 O   0  0  0  0  0  0  0  0  0  0  0  0
   59.7070   33.3870   47.9940 C   0  0  0  0  0  0  0  0  0  0  0  0
   62.0769   34.8565   49.9816 H   0  0  0  0  0  0  0  0  0  0  0  0
   62.5167   34.0620   48.4318 H   0  0  0  0  0  0  0  0  0  0  0  0
   61.4243   35.4879   48.4318 H   0  0  0  0  0  0  0  0  0  0  0  0
   62.7806   32.4664   51.2355 H   0  0  0  0  0  0  0  0  0  0  0  0
   62.5077   33.2131   52.8559 H   0  0  0  0  0  0  0  0  0  0  0  0
   61.6393   31.2938   53.6360 H   0  0  0  0  0  0  0  0  0  0  0  0
   60.4130   31.2927   52.3016 H   0  0  0  0  0  0  0  0  0  0  0  0
   62.6366   29.7609   53.9297 H   0  0  0  0  0  0  0  0  0  0  0  0
   62.8440   28.3866   52.7917 H   0  0  0  0  0  0  0  0  0  0  0  0
   64.0263   29.7389   52.7917 H   0  0  0  0  0  0  0  0  0  0  0  0
   61.5648   28.2187   51.3788 H   0  0  0  0  0  0  0  0  0  0  0  0
   60.2172   29.3459   51.7813 H   0  0  0  0  0  0  0  0  0  0  0  0
   62.6870   30.9884   49.7778 H   0  0  0  0  0  0  0  0  0  0  0  0
   62.3882   31.5549   47.3662 H   0  0  0  0  0  0  0  0  0  0  0  0
   60.5510   30.4925   46.0506 H   0  0  0  0  0  0  0  0  0  0  0  0
   59.0122   28.8605   47.1440 H   0  0  0  0  0  0  0  0  0  0  0  0
   59.3009   28.2900   49.5556 H   0  0  0  0  0  0  0  0  0  0  0  0
   58.7968   31.8793   51.4801 H   0  0  0  0  0  0  0  0  0  0  0  0
   57.3812   31.3637   49.4984 H   0  0  0  0  0  0  0  0  0  0  0  0
   56.9028   31.6485   47.1010 H   0  0  0  0  0  0  0  0  0  0  0  0
   59.7499   30.1428   44.0654 H   0  0  0  0  0  0  0  0  0  0  0  0
   60.0481   27.8476   44.9742 H   0  0  0  0  0  0  0  0  0  0  0  0
   56.4936   25.8935   43.7742 H   0  0  0  0  0  0  0  0  0  0  0  0
   56.0495   23.7971   42.5018 H   0  0  0  0  0  0  0  0  0  0  0  0
   57.1596   21.6648   43.1715 H   0  0  0  0  0  0  0  0  0  0  0  0
   58.7217   21.6263   45.1170 H   0  0  0  0  0  0  0  0  0  0  0  0
   59.1876   23.7215   46.3895 H   0  0  0  0  0  0  0  0  0  0  0  0
   55.4689   29.8105   44.6344 H   0  0  0  0  0  0  0  0  0  0  0  0
  1  2  1  0
  2  3  2  0
  3  4  1  0
  4  5  1  0
  5  6  1  0
  6  7  1  0
  7  8  1  0
  7  9  1  0
  9 10  1  0
 10 11  2  0
 11 12  1  0
 12 13  2  0
 13 14  1  0
 14 15  2  0
  3 16  1  0
 16 17  2  0
 17 18  1  0
 18 19  1  0
 19 20  2  0
 20 21  1  0
 21 22  1  0
 22 23  2  0
 22 24  1  0
 24 25  2  0
 25 26  1  0
 26 27  2  0
 27 28  1  0
 28 29  2  0
 28 30  1  0
 30 31  2  0
 31 32  1  0
 32 33  2  0
 33 34  1  0
 34 35  2  0
 27 36  1  0
 36 37  1  0
 36 38  2  0
 20 39  1  0
 39 40  2  0
 39 41  1  0
 41 42  1  0
 42  2  1  0
 15 10  1  0
 42 18  2  0
 38 24  1  0
 35 30  1  0
  1 43  1  0
  1 44  1  0
  1 45  1  0
  5 46  1  0
  5 47  1  0
  6 48  1  0
  6 49  1  0
  8 50  1  0
  8 51  1  0
  8 52  1  0
  9 53  1  0
  9 54  1  0
 11 55  1  0
 12 56  1  0
 13 57  1  0
 14 58  1  0
 15 59  1  0
 16 60  1  0
 17 61  1  0
 19 62  1  0
 25 63  1  0
 26 64  1  0
 31 65  1  0
 32 66  1  0
 33 67  1  0
 34 68  1  0
 35 69  1  0
 38 70  1  0
M  CHG  2  21  -1  37  -1
M  END
>  <UniqueID>  (79) 
75

>  <SMILES>  (79) 
Cc1c(OCCN(C)Cc2ccccc2)ccc2cc([N-]C(=O)c3ccc(C(=O)c4ccccc4)c([O-])c3)c(=O)oc12

>  <Energy>  (79) 
97.04200572285409

>  <Genealogy>  (79) 
Cc1c(OCCN(C)Cc2ccccc2)ccc2cc([N-]C(=O)c3ccc(C(=O)c4ccccc4)c([O-])c3)c(=O)oc12 (protonated)
Cc1c(OCCN(C)Cc2ccccc2)ccc2cc([N-]C(=O)c3ccc(C(=O)c4ccccc4)c([O-])c3)c(=O)oc12 (3D coordinates assigned)
Cc1c(OCCN(C)Cc2ccccc2)ccc2cc([N-]C(=O)c3ccc(C(=O)c4ccccc4)c([O-])c3)c(=O)oc12 (optimized conformer: 97.04200572285409 kcal/mol)

>  <smiles>  (79) 
Cc1c(OCCN(C)Cc2ccccc2)ccc2cc(NC(=O)c3ccc(C(=O)c4ccccc4)c(O)c3)c(=O)oc12

>  <score_type>  (79) 
oracle

>  <origin>  (79) 
adg

>  <m_score__min__energy>  (79) 
-14.81

>  <m_primary>  (79) 
energy

$$$$
79:0
     RDKit          3D

 45 47  0  0  0  0  0  0  0  0999 V2000
   56.6610   23.2690   43.4110 C   0  0  0  0  0  0  0  0  0  0  0  0
   55.9990   22.9410   44.7400 C   0  0  0  0  0  0  0  0  0  0  0  0
   56.9560   23.0520   45.7870 O   0  0  0  0  0  0  0  0  0  0  0  0
   57.7370   24.1950   45.9800 C   0  0  0  0  0  0  0  0  0  0  0  0
   58.9570   24.0970   46.2830 O   0  0  0  0  0  0  0  0  0  0  0  0
   57.1230   25.5180   45.8490 C   0  0  0  0  0  0  0  0  0  0  0  0
   57.6470   26.5820   45.1460 C   0  0  0  0  0  0  0  0  0  0  0  0
   56.6710   27.5460   45.2470 C   0  0  0  0  0  0  0  0  0  0  0  0
   56.6970   29.1220   44.4720 S   0  0  0  0  0  0  0  0  0  0  0  0
   56.6420   28.9430   42.9820 O   0  0  0  0  0  0  0  0  0  0  0  0
   55.4910   29.9050   44.9070 O   0  0  0  0  0  0  0  0  0  0  0  0
   58.1570   29.9800   44.8830 N   0  0  0  0  0  0  0  0  0  0  0  0
   59.4420   29.2710   44.8380 C   0  0  0  0  0  0  0  0  0  0  0  0
   59.6880   28.5450   46.1320 C   0  0  0  0  0  0  0  0  0  0  0  0
   59.0340   28.9550   47.3070 C   0  0  0  0  0  0  0  0  0  0  0  0
   59.2210   28.2520   48.5000 C   0  0  0  0  0  0  0  0  0  0  0  0
   60.0660   27.1380   48.5330 C   0  0  0  0  0  0  0  0  0  0  0  0
   60.7290   26.7310   47.3730 C   0  0  0  0  0  0  0  0  0  0  0  0
   60.5430   27.4300   46.1760 C   0  0  0  0  0  0  0  0  0  0  0  0
   58.0900   31.3570   45.3010 C   0  0  0  0  0  0  0  0  0  0  0  0
   57.9320   32.3830   44.3530 C   0  0  0  0  0  0  0  0  0  0  0  0
   57.8550   33.7180   44.7620 C   0  0  0  0  0  0  0  0  0  0  0  0
   57.9410   34.0420   46.1190 C   0  0  0  0  0  0  0  0  0  0  0  0
   58.1080   33.0310   47.0680 C   0  0  0  0  0  0  0  0  0  0  0  0
   58.1840   31.6940   46.6630 C   0  0  0  0  0  0  0  0  0  0  0  0
   55.6380   27.0880   45.9760 N   0  0  0  0  0  0  0  0  0  0  0  0
   55.9140   25.8470   46.3460 N   0  0  0  0  0  0  0  0  0  0  0  0
   57.6328   23.7505   43.5944 H   0  0  0  0  0  0  0  0  0  0  0  0
   56.8133   22.3421   42.8386 H   0  0  0  0  0  0  0  0  0  0  0  0
   56.0158   23.9517   42.8386 H   0  0  0  0  0  0  0  0  0  0  0  0
   55.1733   23.6447   44.9219 H   0  0  0  0  0  0  0  0  0  0  0  0
   55.6058   21.9141   44.7101 H   0  0  0  0  0  0  0  0  0  0  0  0
   58.6152   26.6450   44.6277 H   0  0  0  0  0  0  0  0  0  0  0  0
   59.4258   28.5442   44.0125 H   0  0  0  0  0  0  0  0  0  0  0  0
   60.2476   30.0037   44.6821 H   0  0  0  0  0  0  0  0  0  0  0  0
   58.3720   29.8333   47.2871 H   0  0  0  0  0  0  0  0  0  0  0  0
   58.7027   28.5753   49.4148 H   0  0  0  0  0  0  0  0  0  0  0  0
   60.2083   26.5828   49.4719 H   0  0  0  0  0  0  0  0  0  0  0  0
   61.3988   25.8589   47.4009 H   0  0  0  0  0  0  0  0  0  0  0  0
   61.0679   27.1060   45.2652 H   0  0  0  0  0  0  0  0  0  0  0  0
   57.8686   32.1342   43.2834 H   0  0  0  0  0  0  0  0  0  0  0  0
   57.7265   34.5147   44.0144 H   0  0  0  0  0  0  0  0  0  0  0  0
   57.8772   35.0924   46.4392 H   0  0  0  0  0  0  0  0  0  0  0  0
   58.1799   33.2863   48.1355 H   0  0  0  0  0  0  0  0  0  0  0  0
   58.3181   30.9018   47.4143 H   0  0  0  0  0  0  0  0  0  0  0  0
  1  2  1  0
  2  3  1  0
  3  4  1  0
  4  5  2  0
  4  6  1  0
  6  7  1  0
  7  8  2  0
  8  9  1  0
  9 10  2  0
  9 11  2  0
  9 12  1  0
 12 13  1  0
 13 14  1  0
 14 15  2  0
 15 16  1  0
 16 17  2  0
 17 18  1  0
 18 19  2  0
 12 20  1  0
 20 21  2  0
 21 22  1  0
 22 23  2  0
 23 24  1  0
 24 25  2  0
  8 26  1  0
 26 27  1  0
 27  6  2  0
 19 14  1  0
 25 20  1  0
  1 28  1  0
  1 29  1  0
  1 30  1  0
  2 31  1  0
  2 32  1  0
  7 33  1  0
 13 34  1  0
 13 35  1  0
 15 36  1  0
 16 37  1  0
 17 38  1  0
 18 39  1  0
 19 40  1  0
 21 41  1  0
 22 42  1  0
 23 43  1  0
 24 44  1  0
 25 45  1  0
M  CHG  1  26  -1
M  END
>  <UniqueID>  (80) 
76

>  <SMILES>  (80) 
CCOC(=O)c1cc(S(=O)(=O)N(Cc2ccccc2)c2ccccc2)[n-]n1

>  <Energy>  (80) 
71.03655983975223

>  <Genealogy>  (80) 
CCOC(=O)c1cc(S(=O)(=O)N(Cc2ccccc2)c2ccccc2)[n-]n1 (protonated)
CCOC(=O)c1cc(S(=O)(=O)N(Cc2ccccc2)c2ccccc2)[n-]n1 (3D coordinates assigned)
CCOC(=O)c1cc(S(=O)(=O)N(Cc2ccccc2)c2ccccc2)[n-]n1 (optimized conformer: 71.03655983975223 kcal/mol)

>  <smiles>  (80) 
CCOC(=O)c1cc(S(=O)(=O)N(Cc2ccccc2)c2ccccc2)[nH]n1

>  <score_type>  (80) 
oracle

>  <origin>  (80) 
adg

>  <m_score__min__energy>  (80) 
-10.779999999999999

>  <m_primary>  (80) 
energy

$$$$
80:0
     RDKit          3D

 39 41  0  0  0  0  0  0  0  0999 V2000
   59.3090   34.7510   46.0540 O   0  0  0  0  0  0  0  0  0  0  0  0
   58.8350   33.6940   45.5570 C   0  0  0  0  0  0  0  0  0  0  0  0
   57.7370   33.7910   44.5380 C   0  0  0  0  0  0  0  0  0  0  0  0
   57.3970   32.4180   43.9500 C   0  0  0  0  0  0  0  0  0  0  0  0
   56.6690   31.5920   44.9180 N   0  0  0  0  0  0  0  0  0  0  0  0
   56.5740   29.9370   44.3950 S   0  0  0  0  0  0  0  0  0  0  0  0
   55.2880   29.3180   44.8700 O   0  0  0  0  0  0  0  0  0  0  0  0
   56.5970   29.8930   42.8930 O   0  0  0  0  0  0  0  0  0  0  0  0
   57.9540   29.0320   45.0120 C   0  0  0  0  0  0  0  0  0  0  0  0
   59.2420   29.3310   44.5500 C   0  0  0  0  0  0  0  0  0  0  0  0
   60.3460   28.6280   45.0420 C   0  0  0  0  0  0  0  0  0  0  0  0
   60.1680   27.6260   46.0000 C   0  0  0  0  0  0  0  0  0  0  0  0
   58.8850   27.3260   46.4670 C   0  0  0  0  0  0  0  0  0  0  0  0
   57.7790   28.0270   45.9760 C   0  0  0  0  0  0  0  0  0  0  0  0
   59.2740   32.4060   46.0170 N   0  0  0  0  0  0  0  0  0  0  0  0
   60.4080   32.2000   46.8760 C   0  0  0  0  0  0  0  0  0  0  0  0
   60.4540   31.1150   47.7930 C   0  0  0  0  0  0  0  0  0  0  0  0
   61.5630   30.9440   48.6430 C   0  0  0  0  0  0  0  0  0  0  0  0
   62.5940   31.8740   48.5620 C   0  0  0  0  0  0  0  0  0  0  0  0
   62.5490   32.9220   47.7020 C   0  0  0  0  0  0  0  0  0  0  0  0
   61.4710   33.1290   46.8460 C   0  0  0  0  0  0  0  0  0  0  0  0
   63.6950   33.6810   47.8410 O   0  0  0  0  0  0  0  0  0  0  0  0
   64.5110   33.0690   48.8510 C   0  0  0  0  0  0  0  0  0  0  0  0
   63.7700   31.9200   49.2850 O   0  0  0  0  0  0  0  0  0  0  0  0
   56.8390   34.2070   45.0181 H   0  0  0  0  0  0  0  0  0  0  0  0
   58.0800   34.4423   43.7206 H   0  0  0  0  0  0  0  0  0  0  0  0
   56.7728   32.5557   43.0547 H   0  0  0  0  0  0  0  0  0  0  0  0
   58.3365   31.9069   43.6931 H   0  0  0  0  0  0  0  0  0  0  0  0
   59.3854   30.1210   43.7981 H   0  0  0  0  0  0  0  0  0  0  0  0
   61.3557   28.8638   44.6747 H   0  0  0  0  0  0  0  0  0  0  0  0
   61.0372   27.0736   46.3864 H   0  0  0  0  0  0  0  0  0  0  0  0
   58.7452   26.5378   47.2214 H   0  0  0  0  0  0  0  0  0  0  0  0
   56.7704   27.7904   46.3459 H   0  0  0  0  0  0  0  0  0  0  0  0
   58.6780   31.5780   45.7870 H   0  0  0  0  0  0  0  0  0  0  0  0
   59.6165   30.4034   47.8388 H   0  0  0  0  0  0  0  0  0  0  0  0
   61.6126   30.1017   49.3488 H   0  0  0  0  0  0  0  0  0  0  0  0
   61.4479   33.9925   46.1649 H   0  0  0  0  0  0  0  0  0  0  0  0
   65.4820   32.7665   48.4320 H   0  0  0  0  0  0  0  0  0  0  0  0
   64.7257   33.7584   49.6809 H   0  0  0  0  0  0  0  0  0  0  0  0
  1  2  2  0
  2  3  1  0
  3  4  1  0
  4  5  1  0
  5  6  1  0
  6  7  2  0
  6  8  2  0
  6  9  1  0
  9 10  2  0
 10 11  1  0
 11 12  2  0
 12 13  1  0
 13 14  2  0
  2 15  1  0
 15 16  1  0
 16 17  2  0
 17 18  1  0
 18 19  2  0
 19 20  1  0
 20 21  2  0
 20 22  1  0
 22 23  1  0
 23 24  1  0
 14  9  1  0
 21 16  1  0
 24 19  1  0
  3 25  1  0
  3 26  1  0
  4 27  1  0
  4 28  1  0
 10 29  1  0
 11 30  1  0
 12 31  1  0
 13 32  1  0
 14 33  1  0
 15 34  1  0
 17 35  1  0
 18 36  1  0
 21 37  1  0
 23 38  1  0
 23 39  1  0
M  CHG  1   5  -1
M  END
>  <UniqueID>  (81) 
77

>  <SMILES>  (81) 
O=C(CC[N-]S(=O)(=O)c1ccccc1)Nc1ccc2c(c1)OCO2

>  <Energy>  (81) 
68.66584306624257

>  <Genealogy>  (81) 
O=C(CC[N-]S(=O)(=O)c1ccccc1)Nc1ccc2c(c1)OCO2 (protonated)
O=C(CC[N-]S(=O)(=O)c1ccccc1)Nc1ccc2c(c1)OCO2 (3D coordinates assigned)
O=C(CC[N-]S(=O)(=O)c1ccccc1)Nc1ccc2c(c1)OCO2 (nonaromatic ring conformer: 68.66584306624257 kcal/mol)

>  <smiles>  (81) 
O=C(CCNS(=O)(=O)c1ccccc1)Nc1ccc2c(c1)OCO2

>  <score_type>  (81) 
oracle

>  <origin>  (81) 
adg

>  <m_score__min__energy>  (81) 
-8.9499999999999993

>  <m_primary>  (81) 
energy

$$$$
81:0
     RDKit          3D

 37 38  0  0  0  0  0  0  0  0999 V2000
   55.1510   29.0500   44.5700 O   0  0  0  0  0  0  0  0  0  0  0  0
   56.3280   29.3100   44.9310 C   0  0  0  0  0  0  0  0  0  0  0  0
   57.0010   28.4080   45.8190 N   0  0  0  0  0  0  0  0  0  0  0  0
   57.4260   27.0570   45.4650 C   0  0  0  0  0  0  0  0  0  0  0  0
   56.3550   26.0390   45.8490 C   0  0  0  0  0  0  0  0  0  0  0  0
   55.1170   26.6790   45.9970 O   0  0  0  0  0  0  0  0  0  0  0  0
   56.9880   30.5200   44.4150 C   0  0  0  0  0  0  0  0  0  0  0  0
   57.6700   31.3700   45.2960 C   0  0  0  0  0  0  0  0  0  0  0  0
   58.2890   32.5340   44.8200 C   0  0  0  0  0  0  0  0  0  0  0  0
   59.0570   33.6420   45.9510 S   0  0  0  0  0  0  0  0  0  0  0  0
   60.3010   34.2020   45.3190 O   0  0  0  0  0  0  0  0  0  0  0  0
   58.1290   34.7750   46.2950 O   0  0  0  0  0  0  0  0  0  0  0  0
   59.4800   32.7970   47.4040 N   0  0  0  0  0  0  0  0  0  0  0  0
   60.8050   32.7950   47.9670 C   0  0  0  0  0  0  0  0  0  0  0  0
   61.0580   33.5460   49.1240 C   0  0  0  0  0  0  0  0  0  0  0  0
   62.3380   33.5810   49.6840 C   0  0  0  0  0  0  0  0  0  0  0  0
   63.3800   32.8590   49.0950 C   0  0  0  0  0  0  0  0  0  0  0  0
   65.1340   32.9240   49.8480 Br  0  0  0  0  0  0  0  0  0  0  0  0
   63.1370   32.0970   47.9490 C   0  0  0  0  0  0  0  0  0  0  0  0
   61.8580   32.0620   47.3860 C   0  0  0  0  0  0  0  0  0  0  0  0
   58.2710   32.8190   43.4490 C   0  0  0  0  0  0  0  0  0  0  0  0
   57.6070   31.9660   42.5650 C   0  0  0  0  0  0  0  0  0  0  0  0
   56.9590   30.8230   43.0430 C   0  0  0  0  0  0  0  0  0  0  0  0
   56.3220   30.0030   42.1710 F   0  0  0  0  0  0  0  0  0  0  0  0
   57.6012   27.0057   44.3803 H   0  0  0  0  0  0  0  0  0  0  0  0
   58.3512   26.8216   46.0114 H   0  0  0  0  0  0  0  0  0  0  0  0
   56.2786   25.2756   45.0607 H   0  0  0  0  0  0  0  0  0  0  0  0
   56.6326   25.5646   46.8018 H   0  0  0  0  0  0  0  0  0  0  0  0
   55.1480   27.4700   45.4020 H   0  0  0  0  0  0  0  0  0  0  0  0
   57.7198   31.1224   46.3666 H   0  0  0  0  0  0  0  0  0  0  0  0
   58.6970   32.3820   47.9540 H   0  0  0  0  0  0  0  0  0  0  0  0
   60.2414   34.1128   49.5951 H   0  0  0  0  0  0  0  0  0  0  0  0
   62.5257   34.1773   50.5891 H   0  0  0  0  0  0  0  0  0  0  0  0
   63.9547   31.5230   47.4886 H   0  0  0  0  0  0  0  0  0  0  0  0
   61.6730   31.4590   46.4848 H   0  0  0  0  0  0  0  0  0  0  0  0
   58.7807   33.7162   43.0679 H   0  0  0  0  0  0  0  0  0  0  0  0
   57.5937   32.1941   41.4890 H   0  0  0  0  0  0  0  0  0  0  0  0
  1  2  2  0
  2  3  1  0
  3  4  1  0
  4  5  1  0
  5  6  1  0
  2  7  1  0
  7  8  2  0
  8  9  1  0
  9 10  1  0
 10 11  2  0
 10 12  2  0
 10 13  1  0
 13 14  1  0
 14 15  2  0
 15 16  1  0
 16 17  2  0
 17 18  1  0
 17 19  1  0
 19 20  2  0
  9 21  2  0
 21 22  1  0
 22 23  2  0
 23 24  1  0
 23  7  1  0
 20 14  1  0
  4 25  1  0
  4 26  1  0
  5 27  1  0
  5 28  1  0
  6 29  1  0
  8 30  1  0
 13 31  1  0
 15 32  1  0
 16 33  1  0
 19 34  1  0
 20 35  1  0
 21 36  1  0
 22 37  1  0
M  CHG  1   3  -1
M  END
>  <UniqueID>  (82) 
78

>  <SMILES>  (82) 
O=C([N-]CCO)c1cc(S(=O)(=O)Nc2ccc(Br)cc2)ccc1F

>  <Energy>  (82) 
39.35737941204454

>  <Genealogy>  (82) 
O=C([N-]CCO)c1cc(S(=O)(=O)Nc2ccc(Br)cc2)ccc1F (protonated)
O=C([N-]CCO)c1cc(S(=O)(=O)Nc2ccc(Br)cc2)ccc1F (3D coordinates assigned)
O=C([N-]CCO)c1cc(S(=O)(=O)Nc2ccc(Br)cc2)ccc1F (optimized conformer: 39.35737941204454 kcal/mol)

>  <smiles>  (82) 
O=C(NCCO)c1cc(S(=O)(=O)Nc2ccc(Br)cc2)ccc1F

>  <score_type>  (82) 
oracle

>  <origin>  (82) 
adg

>  <m_score__min__energy>  (82) 
-10.84

>  <m_primary>  (82) 
energy

$$$$
82:0
     RDKit          3D

 52 54  0  0  0  0  0  0  0  0999 V2000
   58.1840   32.3040   43.0680 C   0  0  0  0  0  0  0  0  0  0  0  0
   57.6030   32.1980   44.4930 C   0  0  0  0  0  0  0  0  0  0  0  0
   57.0260   33.5700   44.8870 C   0  0  0  0  0  0  0  0  0  0  0  0
   56.4910   31.1300   44.4890 C   0  0  0  0  0  0  0  0  0  0  0  0
   58.6810   31.8080   45.4240 N   0  0  0  0  0  0  0  0  0  0  0  0
   58.6890   32.0820   46.8380 C   0  0  0  0  0  0  0  0  0  0  0  0
   57.8540   32.8830   47.3400 O   0  0  0  0  0  0  0  0  0  0  0  0
   59.6990   31.4040   47.7370 C   0  0  1  0  0  0  0  0  0  0  0  0
   59.0150   30.5900   48.8440 C   0  0  0  0  0  0  0  0  0  0  0  0
   59.8090   28.9690   48.9540 S   0  0  0  0  0  0  0  0  0  0  0  0
   60.3720   29.1390   47.2340 C   0  0  1  0  0  0  0  0  0  0  0  0
   59.4370   28.5280   46.1960 C   0  0  0  0  0  0  0  0  0  0  0  0
   59.9310   28.3120   44.8980 C   0  0  0  0  0  0  0  0  0  0  0  0
   59.1040   27.7980   43.8970 C   0  0  0  0  0  0  0  0  0  0  0  0
   57.7670   27.5100   44.1710 C   0  0  0  0  0  0  0  0  0  0  0  0
   57.2410   27.7420   45.4460 C   0  0  0  0  0  0  0  0  0  0  0  0
   55.8620   27.4280   45.6890 N   0  0  0  0  0  0  0  0  0  0  0  0
   55.3110   26.1230   45.8980 C   0  0  0  0  0  0  0  0  0  0  0  0
   54.0780   25.9450   45.7170 O   0  0  0  0  0  0  0  0  0  0  0  0
   56.1300   25.0600   46.4060 N   0  0  0  0  0  0  0  0  0  0  0  0
   56.8650   24.0930   45.6430 C   0  0  0  0  0  0  0  0  0  0  0  0
   58.1780   23.7090   45.9780 C   0  0  0  0  0  0  0  0  0  0  0  0
   58.8400   22.7360   45.2220 C   0  0  0  0  0  0  0  0  0  0  0  0
   58.1970   22.1290   44.1410 C   0  0  0  0  0  0  0  0  0  0  0  0
   56.8860   22.4870   43.8190 C   0  0  0  0  0  0  0  0  0  0  0  0
   56.2220   23.4600   44.5720 C   0  0  0  0  0  0  0  0  0  0  0  0
   58.0860   28.2200   46.4640 C   0  0  0  0  0  0  0  0  0  0  0  0
   60.6240   30.5570   46.9710 N   0  0  0  0  0  0  0  0  0  0  0  0
   59.2646   32.5012   43.1263 H   0  0  0  0  0  0  0  0  0  0  0  0
   58.0120   31.3597   42.5307 H   0  0  0  0  0  0  0  0  0  0  0  0
   57.6896   33.1268   42.5307 H   0  0  0  0  0  0  0  0  0  0  0  0
   56.9915   33.6521   45.9834 H   0  0  0  0  0  0  0  0  0  0  0  0
   57.6651   34.3672   44.4796 H   0  0  0  0  0  0  0  0  0  0  0  0
   56.0092   33.6709   44.4796 H   0  0  0  0  0  0  0  0  0  0  0  0
   56.2246   30.8742   45.5251 H   0  0  0  0  0  0  0  0  0  0  0  0
   55.6054   31.5247   43.9695 H   0  0  0  0  0  0  0  0  0  0  0  0
   56.8497   30.2292   43.9695 H   0  0  0  0  0  0  0  0  0  0  0  0
   59.4800   31.2440   45.0500 H   0  0  0  0  0  0  0  0  0  0  0  0
   60.2857   32.2023   48.2151 H   0  0  0  0  0  0  0  0  0  0  0  0
   59.1150   31.1162   49.8048 H   0  0  0  0  0  0  0  0  0  0  0  0
   57.9471   30.4671   48.6108 H   0  0  0  0  0  0  0  0  0  0  0  0
   61.2976   28.5542   47.1282 H   0  0  0  0  0  0  0  0  0  0  0  0
   60.9800   28.5503   44.6682 H   0  0  0  0  0  0  0  0  0  0  0  0
   59.5081   27.6197   42.8896 H   0  0  0  0  0  0  0  0  0  0  0  0
   57.1229   27.0982   43.3801 H   0  0  0  0  0  0  0  0  0  0  0  0
   58.6840   24.1754   46.8362 H   0  0  0  0  0  0  0  0  0  0  0  0
   59.8699   22.4481   45.4796 H   0  0  0  0  0  0  0  0  0  0  0  0
   58.7227   21.3695   43.5436 H   0  0  0  0  0  0  0  0  0  0  0  0
   56.3759   22.0034   42.9729 H   0  0  0  0  0  0  0  0  0  0  0  0
   55.1858   23.7306   44.3211 H   0  0  0  0  0  0  0  0  0  0  0  0
   57.6891   28.3553   47.4809 H   0  0  0  0  0  0  0  0  0  0  0  0
   60.6160   30.7740   45.9450 H   0  0  0  0  0  0  0  0  0  0  0  0
  1  2  1  0
  2  3  1  0
  2  4  1  0
  2  5  1  0
  5  6  1  0
  6  7  2  0
  6  8  1  0
  8  9  1  0
  9 10  1  0
 10 11  1  0
 11 12  1  0
 12 13  2  0
 13 14  1  0
 14 15  2  0
 15 16  1  0
 16 17  1  0
 17 18  1  0
 18 19  2  0
 18 20  1  0
 20 21  1  0
 21 22  2  0
 22 23  1  0
 23 24  2  0
 24 25  1  0
 25 26  2  0
 16 27  2  0
 11 28  1  0
 28  8  1  0
 27 12  1  0
 26 21  1  0
  1 29  1  0
  1 30  1  0
  1 31  1  0
  3 32  1  0
  3 33  1  0
  3 34  1  0
  4 35  1  0
  4 36  1  0
  4 37  1  0
  5 38  1  0
  8 39  1  1
  9 40  1  0
  9 41  1  0
 11 42  1  1
 13 43  1  0
 14 44  1  0
 15 45  1  0
 22 46  1  0
 23 47  1  0
 24 48  1  0
 25 49  1  0
 26 50  1  0
 27 51  1  0
 28 52  1  0
M  CHG  2  17  -1  20  -1
M  END
>  <UniqueID>  (83) 
79

>  <SMILES>  (83) 
CC(C)(C)NC(=O)[C@H]1CS[C@@H](c2cccc([N-]C(=O)[N-]c3ccccc3)c2)N1

>  <Energy>  (83) 
55.59717824697401

>  <Genealogy>  (83) 
CC(C)(C)NC(=O)C1CSC(c2cccc([N-]C(=O)[N-]c3ccccc3)c2)N1 (protonated)
CC(C)(C)NC(=O)[C@H]1CS[C@@H](c2cccc([N-]C(=O)[N-]c3ccccc3)c2)N1 (chirality)
CC(C)(C)NC(=O)[C@H]1CS[C@@H](c2cccc([N-]C(=O)[N-]c3ccccc3)c2)N1 (3D coordinates assigned)
CC(C)(C)NC(=O)[C@H]1CS[C@@H](c2cccc([N-]C(=O)[N-]c3ccccc3)c2)N1 (nonaromatic ring conformer: 55.59717824697401 kcal/mol)

>  <smiles>  (83) 
CC(C)(C)NC(=O)C1CSC(c2cccc(NC(=O)Nc3ccccc3)c2)N1

>  <score_type>  (83) 
oracle

>  <origin>  (83) 
adg

>  <m_score__min__energy>  (83) 
-12.06

>  <m_primary>  (83) 
energy

$$$$
83:0
     RDKit          3D

 51 53  0  0  0  0  0  0  0  0999 V2000
   59.9691   34.7183   43.8445 H   0  0  0  0  0  0  0  0  0  0  0  0
   59.3110   34.2370   44.5830 C   0  0  0  0  0  0  0  0  0  0  0  0
   58.3070   33.3930   44.2240 N   0  0  0  0  0  0  0  0  0  0  0  0
   57.6390   32.9280   45.2980 C   0  0  0  0  0  0  0  0  0  0  0  0
   56.6360   32.1110   45.1910 N   0  0  0  0  0  0  0  0  0  0  0  0
   56.6120   30.7220   44.1510 S   0  0  0  0  0  0  0  0  0  0  0  0
   55.2110   30.1860   44.0790 O   0  0  0  0  0  0  0  0  0  0  0  0
   57.0490   31.1340   42.7740 O   0  0  0  0  0  0  0  0  0  0  0  0
   57.6710   29.4690   44.7890 C   0  0  0  0  0  0  0  0  0  0  0  0
   59.0450   29.7050   44.9270 C   0  0  0  0  0  0  0  0  0  0  0  0
   59.4670   30.6773   44.6328 H   0  0  0  0  0  0  0  0  0  0  0  0
   59.8800   28.7090   45.4370 C   0  0  0  0  0  0  0  0  0  0  0  0
   60.9594   28.8959   45.5371 H   0  0  0  0  0  0  0  0  0  0  0  0
   59.3470   27.4740   45.8210 C   0  0  0  0  0  0  0  0  0  0  0  0
   60.0101   26.6904   46.2162 H   0  0  0  0  0  0  0  0  0  0  0  0
   57.9670   27.2300   45.7040 C   0  0  0  0  0  0  0  0  0  0  0  0
   57.3950   25.9640   46.0710 N   0  0  0  0  0  0  0  0  0  0  0  0
   58.0190   25.1260   46.0920 H   0  0  0  0  0  0  0  0  0  0  0  0
   55.9950   25.7480   46.2950 C   0  0  0  0  0  0  0  0  0  0  0  0
   55.1500   26.6270   45.9710 O   0  0  0  0  0  0  0  0  0  0  0  0
   55.5590   24.5010   46.8460 N   0  0  0  0  0  0  0  0  0  0  0  0
   54.9650   23.4230   46.0560 C   0  0  1  0  0  0  0  0  0  0  0  0
   54.3135   22.7991   46.6855 H   0  0  0  0  0  0  0  0  0  0  0  0
   54.1020   24.0410   44.9400 C   0  0  0  0  0  0  0  0  0  0  0  0
   54.1998   25.1358   44.9819 H   0  0  0  0  0  0  0  0  0  0  0  0
   54.4586   23.6435   43.9783 H   0  0  0  0  0  0  0  0  0  0  0  0
   52.6450   23.6780   45.0790 C   0  0  0  0  0  0  0  0  0  0  0  0
   51.7150   24.0740   44.1030 C   0  0  0  0  0  0  0  0  0  0  0  0
   52.0463   24.6728   43.2418 H   0  0  0  0  0  0  0  0  0  0  0  0
   50.3700   23.7100   44.2220 C   0  0  0  0  0  0  0  0  0  0  0  0
   49.6457   24.0251   43.4564 H   0  0  0  0  0  0  0  0  0  0  0  0
   49.9450   22.9460   45.3130 C   0  0  0  0  0  0  0  0  0  0  0  0
   48.8864   22.6620   45.4064 H   0  0  0  0  0  0  0  0  0  0  0  0
   50.8650   22.5430   46.2850 C   0  0  0  0  0  0  0  0  0  0  0  0
   50.5298   21.9410   47.1424 H   0  0  0  0  0  0  0  0  0  0  0  0
   52.2110   22.9040   46.1690 C   0  0  0  0  0  0  0  0  0  0  0  0
   52.9328   22.5810   46.9336 H   0  0  0  0  0  0  0  0  0  0  0  0
   56.0680   22.4940   45.5050 C   0  0  0  0  0  0  0  0  0  0  0  0
   55.7625   22.1202   44.5166 H   0  0  0  0  0  0  0  0  0  0  0  0
   56.2056   21.6592   46.2080 H   0  0  0  0  0  0  0  0  0  0  0  0
   57.3450   23.2100   45.3740 N   0  0  0  0  0  0  0  0  0  0  0  0
   57.5080   23.7510   46.2550 H   0  0  0  0  0  0  0  0  0  0  0  0
   58.4500   22.2600   45.2350 C   0  0  0  0  0  0  0  0  0  0  0  0
   58.8015   21.9578   46.2326 H   0  0  0  0  0  0  0  0  0  0  0  0
   58.1039   21.3731   44.6840 H   0  0  0  0  0  0  0  0  0  0  0  0
   59.2750   22.7352   44.6840 H   0  0  0  0  0  0  0  0  0  0  0  0
   57.1400   28.2270   45.1640 C   0  0  0  0  0  0  0  0  0  0  0  0
   56.0653   28.0321   45.0338 H   0  0  0  0  0  0  0  0  0  0  0  0
   58.2660   33.5440   46.7390 S   0  0  0  0  0  0  0  0  0  0  0  0
   59.4460   34.4480   45.9520 C   0  0  0  0  0  0  0  0  0  0  0  0
   60.1942   35.0936   46.4352 H   0  0  0  0  0  0  0  0  0  0  0  0
  1  2  1  0
  2  3  1  0
  3  4  1  0
  4  5  2  0
  5  6  1  0
  6  7  2  0
  6  8  2  0
  6  9  1  0
  9 10  2  0
 10 11  1  0
 10 12  1  0
 12 13  1  0
 12 14  2  0
 14 15  1  0
 14 16  1  0
 16 17  1  0
 17 18  1  0
 17 19  1  0
 19 20  2  0
 19 21  1  0
 21 22  1  0
 22 23  1  1
 22 24  1  0
 24 25  1  0
 24 26  1  0
 24 27  1  0
 27 28  2  0
 28 29  1  0
 28 30  1  0
 30 31  1  0
 30 32  2  0
 32 33  1  0
 32 34  1  0
 34 35  1  0
 34 36  2  0
 36 37  1  0
 22 38  1  0
 38 39  1  0
 38 40  1  0
 38 41  1  0
 41 42  1  0
 41 43  1  0
 43 44  1  0
 43 45  1  0
 43 46  1  0
 16 47  2  0
 47 48  1  0
  4 49  1  0
 49 50  1  0
 50 51  1  0
 50  2  2  0
 47  9  1  0
 36 27  1  0
M  CHG  2   3  -1  21  -1
M  END
>  <UniqueID>  (84) 
80

>  <SMILES>  (84) 
CNC[C@H](Cc1ccccc1)[N-]C(=O)Nc1cccc(S(=O)(=O)/N=c2/[n-]ccs2)c1

>  <Energy>  (84) 
82.46140367039301

>  <Genealogy>  (84) 
CNCC(Cc1ccccc1)[N-]C(=O)Nc1cccc(S(=O)(=O)N=c2[n-]ccs2)c1 (protonated)
CNC[C@H](Cc1ccccc1)[N-]C(=O)Nc1cccc(S(=O)(=O)N=c2[n-]ccs2)c1 (chirality)
CNC[C@H](Cc1ccccc1)[N-]C(=O)Nc1cccc(S(=O)(=O)/N=c2/[n-]ccs2)c1 (cis-trans isomerization)
CNC[C@H](Cc1ccccc1)[N-]C(=O)Nc1cccc(S(=O)(=O)/N=c2/[n-]ccs2)c1 (3D coordinates assigned)
CNC[C@H](Cc1ccccc1)[N-]C(=O)Nc1cccc(S(=O)(=O)/N=c2/[n-]ccs2)c1 (optimized conformer: 82.46140367039301 kcal/mol)

>  <smiles>  (84) 
CNCC(Cc1ccccc1)NC(=O)Nc1cccc(S(=O)(=O)N=c2[nH]ccs2)c1

>  <score_type>  (84) 
oracle

>  <origin>  (84) 
adg

>  <m_score__min__energy>  (84) 
-12.210000000000001

>  <m_primary>  (84) 
energy

$$$$
84:0
     RDKit          3D

 29 30  0  0  0  0  0  0  0  0999 V2000
   63.3250   33.7520   47.6470 C   0  0  0  0  0  0  0  0  0  0  0  0
   61.9080   33.7650   47.7850 O   0  0  0  0  0  0  0  0  0  0  0  0
   61.0460   32.8280   47.1960 C   0  0  0  0  0  0  0  0  0  0  0  0
   61.2370   31.4460   47.3240 C   0  0  0  0  0  0  0  0  0  0  0  0
   60.3590   30.5480   46.7150 C   0  0  0  0  0  0  0  0  0  0  0  0
   59.2620   31.0050   45.9430 C   0  0  0  0  0  0  0  0  0  0  0  0
   59.0520   32.4070   45.8520 C   0  0  0  0  0  0  0  0  0  0  0  0
   59.9540   33.2990   46.4660 C   0  0  0  0  0  0  0  0  0  0  0  0
   57.9350   32.8880   45.1580 C   0  0  0  0  0  0  0  0  0  0  0  0
   57.7240   34.1260   45.0390 O   0  0  0  0  0  0  0  0  0  0  0  0
   57.0300   31.9930   44.6080 C   0  0  0  0  0  0  0  0  0  0  0  0
   57.2430   30.6120   44.7130 C   0  0  0  0  0  0  0  0  0  0  0  0
   56.1640   29.7140   44.1370 C   0  0  0  0  0  0  0  0  0  0  0  0
   55.1600   29.4880   45.0870 O   0  0  0  0  0  0  0  0  0  0  0  0
   58.3980   30.1300   45.3020 N   0  0  0  0  0  0  0  0  0  0  0  0
   58.7060   28.6840   45.2690 C   0  0  0  0  0  0  0  0  0  0  0  0
   63.7904   33.7477   48.6437 H   0  0  0  0  0  0  0  0  0  0  0  0
   63.6314   32.8510   47.0954 H   0  0  0  0  0  0  0  0  0  0  0  0
   63.6479   34.6472   47.0954 H   0  0  0  0  0  0  0  0  0  0  0  0
   62.0866   31.0652   47.9098 H   0  0  0  0  0  0  0  0  0  0  0  0
   60.5214   29.4668   46.8364 H   0  0  0  0  0  0  0  0  0  0  0  0
   59.7948   34.3830   46.3683 H   0  0  0  0  0  0  0  0  0  0  0  0
   56.1384   32.3698   44.0855 H   0  0  0  0  0  0  0  0  0  0  0  0
   55.7240   30.1974   43.2523 H   0  0  0  0  0  0  0  0  0  0  0  0
   56.6136   28.7502   43.8560 H   0  0  0  0  0  0  0  0  0  0  0  0
   55.5420   29.7180   45.9740 H   0  0  0  0  0  0  0  0  0  0  0  0
   58.7872   28.3028   46.2977 H   0  0  0  0  0  0  0  0  0  0  0  0
   57.9015   28.1497   44.7424 H   0  0  0  0  0  0  0  0  0  0  0  0
   59.6584   28.5239   44.7424 H   0  0  0  0  0  0  0  0  0  0  0  0
  1  2  1  0
  2  3  1  0
  3  4  2  0
  4  5  1  0
  5  6  2  0
  6  7  1  0
  7  8  2  0
  7  9  1  0
  9 10  2  0
  9 11  1  0
 11 12  2  0
 12 13  1  0
 13 14  1  0
 12 15  1  0
 15 16  1  0
  8  3  1  0
 15  6  1  0
  1 17  1  0
  1 18  1  0
  1 19  1  0
  4 20  1  0
  5 21  1  0
  8 22  1  0
 11 23  1  0
 13 24  1  0
 13 25  1  0
 14 26  1  0
 16 27  1  0
 16 28  1  0
 16 29  1  0
M  END
>  <UniqueID>  (85) 
81

>  <SMILES>  (85) 
COc1ccc2c(c1)c(=O)cc(CO)n2C

>  <Energy>  (85) 
43.408582288050894

>  <Genealogy>  (85) 
COc1ccc2c(c1)c(=O)cc(CO)n2C (3D coordinates assigned)
COc1ccc2c(c1)c(=O)cc(CO)n2C (optimized conformer: 43.408582288050894 kcal/mol)

>  <smiles>  (85) 
COc1ccc2c(c1)c(=O)cc(CO)n2C

>  <score_type>  (85) 
oracle

>  <origin>  (85) 
adg

>  <m_score__min__energy>  (85) 
-6.1299999999999999

>  <m_primary>  (85) 
energy

$$$$
85:0
     RDKit          3D

 42 44  0  0  0  0  0  0  0  0999 V2000
   55.3530   24.2700   46.1670 O   0  0  0  0  0  0  0  0  0  0  0  0
   55.5220   25.5200   46.0830 C   0  0  0  0  0  0  0  0  0  0  0  0
   54.4110   26.3360   45.9290 O   0  0  0  0  0  0  0  0  0  0  0  0
   56.8800   26.1090   46.1770 C   0  0  0  0  0  0  0  0  0  0  0  0
   58.0140   25.2770   46.2110 C   0  0  0  0  0  0  0  0  0  0  0  0
   59.2960   25.8310   46.2320 C   0  0  0  0  0  0  0  0  0  0  0  0
   59.4510   27.2270   46.2330 C   0  0  0  0  0  0  0  0  0  0  0  0
   58.3380   28.0710   46.2290 C   0  0  0  0  0  0  0  0  0  0  0  0
   58.5480   29.4920   46.2710 N   0  0  0  0  0  0  0  0  0  0  0  0
   58.0080   30.6030   45.0550 S   0  0  0  0  0  0  0  0  0  0  0  0
   58.6560   30.2320   43.7520 O   0  0  0  0  0  0  0  0  0  0  0  0
   56.5190   30.4920   44.9040 O   0  0  0  0  0  0  0  0  0  0  0  0
   58.4400   32.2580   45.4760 C   0  0  0  0  0  0  0  0  0  0  0  0
   58.1440   33.2950   44.5840 C   0  0  0  0  0  0  0  0  0  0  0  0
   58.5490   34.6030   44.8630 C   0  0  0  0  0  0  0  0  0  0  0  0
   59.2580   34.8850   46.0370 C   0  0  0  0  0  0  0  0  0  0  0  0
   59.6520   36.1950   46.2980 O   0  0  0  0  0  0  0  0  0  0  0  0
   59.5540   33.8510   46.9450 C   0  0  0  0  0  0  0  0  0  0  0  0
   60.2920   34.1350   48.1900 C   0  0  0  0  0  0  0  0  0  0  0  0
   59.6780   34.6420   49.1620 O   0  0  0  0  0  0  0  0  0  0  0  0
   61.6890   33.8200   48.3100 N   0  0  0  0  0  0  0  0  0  0  0  0
   62.5390   34.3580   49.3540 C   0  0  0  0  0  0  0  0  0  0  0  0
   63.8080   33.5110   49.3260 C   0  0  0  0  0  0  0  0  0  0  0  0
   63.8120   32.8150   47.9710 C   0  0  0  0  0  0  0  0  0  0  0  0
   62.3580   32.8030   47.5100 C   0  0  0  0  0  0  0  0  0  0  0  0
   59.1290   32.5410   46.6660 C   0  0  0  0  0  0  0  0  0  0  0  0
   57.0520   27.5060   46.2030 C   0  0  0  0  0  0  0  0  0  0  0  0
   57.8903   24.1840   46.2211 H   0  0  0  0  0  0  0  0  0  0  0  0
   60.1803   25.1769   46.2477 H   0  0  0  0  0  0  0  0  0  0  0  0
   60.4617   27.6611   46.2370 H   0  0  0  0  0  0  0  0  0  0  0  0
   57.5898   33.0794   43.6586 H   0  0  0  0  0  0  0  0  0  0  0  0
   58.3102   35.4133   44.1584 H   0  0  0  0  0  0  0  0  0  0  0  0
   62.7765   35.4126   49.1506 H   0  0  0  0  0  0  0  0  0  0  0  0
   62.0477   34.3233   50.3376 H   0  0  0  0  0  0  0  0  0  0  0  0
   64.6974   34.1497   49.4313 H   0  0  0  0  0  0  0  0  0  0  0  0
   63.8298   32.7866   50.1535 H   0  0  0  0  0  0  0  0  0  0  0  0
   64.4366   33.3706   47.2561 H   0  0  0  0  0  0  0  0  0  0  0  0
   64.2256   31.7979   48.0378 H   0  0  0  0  0  0  0  0  0  0  0  0
   62.2916   33.0500   46.4401 H   0  0  0  0  0  0  0  0  0  0  0  0
   61.8966   31.8128   47.6389 H   0  0  0  0  0  0  0  0  0  0  0  0
   59.3371   31.7335   47.3834 H   0  0  0  0  0  0  0  0  0  0  0  0
   56.1695   28.1626   46.2030 H   0  0  0  0  0  0  0  0  0  0  0  0
  1  2  2  0
  2  3  1  0
  2  4  1  0
  4  5  2  0
  5  6  1  0
  6  7  2  0
  7  8  1  0
  8  9  1  0
  9 10  1  0
 10 11  2  0
 10 12  2  0
 10 13  1  0
 13 14  2  0
 14 15  1  0
 15 16  2  0
 16 17  1  0
 16 18  1  0
 18 19  1  0
 19 20  2  0
 19 21  1  0
 21 22  1  0
 22 23  1  0
 23 24  1  0
 24 25  1  0
 18 26  2  0
  8 27  2  0
 27  4  1  0
 26 13  1  0
 25 21  1  0
  5 28  1  0
  6 29  1  0
  7 30  1  0
 14 31  1  0
 15 32  1  0
 22 33  1  0
 22 34  1  0
 23 35  1  0
 23 36  1  0
 24 37  1  0
 24 38  1  0
 25 39  1  0
 25 40  1  0
 26 41  1  0
 27 42  1  0
M  CHG  3   3  -1   9  -1  17  -1
M  END
>  <UniqueID>  (86) 
82

>  <SMILES>  (86) 
O=C([O-])c1cccc([N-]S(=O)(=O)c2ccc([O-])c(C(=O)N3CCCC3)c2)c1

>  <Energy>  (86) 
53.042107236204146

>  <Genealogy>  (86) 
O=C([O-])c1cccc([N-]S(=O)(=O)c2ccc([O-])c(C(=O)N3CCCC3)c2)c1 (protonated)
O=C([O-])c1cccc([N-]S(=O)(=O)c2ccc([O-])c(C(=O)N3CCCC3)c2)c1 (3D coordinates assigned)
O=C([O-])c1cccc([N-]S(=O)(=O)c2ccc([O-])c(C(=O)N3CCCC3)c2)c1 (nonaromatic ring conformer: 53.042107236204146 kcal/mol)

>  <smiles>  (86) 
O=C(O)c1cccc(NS(=O)(=O)c2ccc(O)c(C(=O)N3CCCC3)c2)c1

>  <score_type>  (86) 
oracle

>  <origin>  (86) 
adg

>  <m_score__min__energy>  (86) 
-14.49

>  <m_primary>  (86) 
energy

$$$$
86:0
     RDKit          3D

 34 34  0  0  0  0  0  0  0  0999 V2000
   57.7510   30.5440   46.3740 N   0  0  0  0  0  0  0  0  0  0  0  0
   57.9360   31.5560   45.3730 C   0  0  0  0  0  0  0  0  0  0  0  0
   57.8290   31.2030   43.9970 C   0  0  0  0  0  0  0  0  0  0  0  0
   57.4400   29.8500   43.5950 N   0  0  2  0  0  0  0  0  0  0  0  0
   56.0150   29.6740   43.7640 C   0  0  0  0  0  0  0  0  0  0  0  0
   55.5120   29.6050   44.8760 O   0  0  0  0  0  0  0  0  0  0  0  0
   58.2160   28.7830   44.2770 C   0  0  0  0  0  0  0  0  0  0  0  0
   58.3080   27.5070   43.4290 C   0  0  0  0  0  0  0  0  0  0  0  0
   57.4820   27.6310   42.3050 O   0  0  0  0  0  0  0  0  0  0  0  0
   58.1490   32.2040   43.0520 C   0  0  0  0  0  0  0  0  0  0  0  0
   58.1630   31.9600   41.8180 O   0  0  0  0  0  0  0  0  0  0  0  0
   58.4560   33.4520   43.4640 N   0  0  0  0  0  0  0  0  0  0  0  0
   58.5010   33.7870   44.7720 C   0  0  0  0  0  0  0  0  0  0  0  0
   58.7870   34.9750   45.0830 O   0  0  0  0  0  0  0  0  0  0  0  0
   58.2580   32.8460   45.7400 N   0  0  0  0  0  0  0  0  0  0  0  0
   58.4230   33.2300   47.1610 C   0  0  0  0  0  0  0  0  0  0  0  0
   59.9000   33.4590   47.5270 C   0  0  0  0  0  0  0  0  0  0  0  0
   60.0820   34.2570   48.8180 C   0  0  0  0  0  0  0  0  0  0  0  0
   61.4160   34.5630   49.0170 F   0  0  0  0  0  0  0  0  0  0  0  0
   58.5100   30.3000   47.0460 H   0  0  0  0  0  0  0  0  0  0  0  0
   56.8200   30.0910   46.5090 H   0  0  0  0  0  0  0  0  0  0  0  0
   57.6380   29.7320   42.5770 H   0  0  0  0  0  0  0  0  0  0  0  0
   55.3712   29.6008   42.8751 H   0  0  0  0  0  0  0  0  0  0  0  0
   59.2331   29.1535   44.4725 H   0  0  0  0  0  0  0  0  0  0  0  0
   57.6970   28.5316   45.2137 H   0  0  0  0  0  0  0  0  0  0  0  0
   59.3483   27.3570   43.1044 H   0  0  0  0  0  0  0  0  0  0  0  0
   57.9823   26.6446   44.0291 H   0  0  0  0  0  0  0  0  0  0  0  0
   56.6470   27.1410   42.5230 H   0  0  0  0  0  0  0  0  0  0  0  0
   57.8630   34.1586   47.3455 H   0  0  0  0  0  0  0  0  0  0  0  0
   58.0421   32.4063   47.7826 H   0  0  0  0  0  0  0  0  0  0  0  0
   60.3860   32.4798   47.6494 H   0  0  0  0  0  0  0  0  0  0  0  0
   60.3521   34.0449   46.7132 H   0  0  0  0  0  0  0  0  0  0  0  0
   59.5032   35.1900   48.7510 H   0  0  0  0  0  0  0  0  0  0  0  0
   59.7275   33.6493   49.6636 H   0  0  0  0  0  0  0  0  0  0  0  0
  1  2  1  0
  2  3  2  0
  3  4  1  0
  4  5  1  0
  5  6  2  0
  4  7  1  0
  7  8  1  0
  8  9  1  0
  3 10  1  0
 10 11  2  0
 10 12  1  0
 12 13  1  0
 13 14  2  0
 13 15  1  0
 15 16  1  0
 16 17  1  0
 17 18  1  0
 18 19  1  0
 15  2  1  0
  1 20  1  0
  1 21  1  0
  4 22  1  6
  5 23  1  0
  7 24  1  0
  7 25  1  0
  8 26  1  0
  8 27  1  0
  9 28  1  0
 16 29  1  0
 16 30  1  0
 17 31  1  0
 17 32  1  0
 18 33  1  0
 18 34  1  0
M  CHG  2   4   1  12  -1
M  END
>  <UniqueID>  (87) 
83

>  <SMILES>  (87) 
Nc1c([N@H+](C=O)CCO)c(=O)[n-]c(=O)n1CCCF

>  <Energy>  (87) 
46.68183234599429

>  <Genealogy>  (87) 
Nc1c([NH+](C=O)CCO)c(=O)[n-]c(=O)n1CCCF (protonated)
Nc1c([N@H+](C=O)CCO)c(=O)[n-]c(=O)n1CCCF (chirality)
Nc1c([N@H+](C=O)CCO)c(=O)[n-]c(=O)n1CCCF (3D coordinates assigned)
Nc1c([N@H+](C=O)CCO)c(=O)[n-]c(=O)n1CCCF (optimized conformer: 46.68183234599429 kcal/mol)

>  <smiles>  (87) 
Nc1c(N(C=O)CCO)c(=O)[nH]c(=O)n1CCCF

>  <score_type>  (87) 
oracle

>  <origin>  (87) 
adg

>  <m_score__min__energy>  (87) 
-4.9199999999999999

>  <m_primary>  (87) 
energy

$$$$
87:0
     RDKit          3D

 37 39  0  0  0  0  0  0  0  0999 V2000
   61.2880   34.4270   49.1310 C   0  0  0  0  0  0  0  0  0  0  0  0
   60.2410   33.9600   48.1650 C   0  0  0  0  0  0  0  0  0  0  0  0
   59.2960   33.0020   48.5560 C   0  0  0  0  0  0  0  0  0  0  0  0
   58.2910   32.6010   47.6710 C   0  0  0  0  0  0  0  0  0  0  0  0
   58.2020   33.1700   46.3900 C   0  0  0  0  0  0  0  0  0  0  0  0
   57.1060   32.7410   45.4380 C   0  0  0  0  0  0  0  0  0  0  0  0
   57.5280   31.6940   44.4800 N   0  0  0  0  0  0  0  0  0  0  0  0
   56.4410   30.7610   44.1080 C   0  0  0  0  0  0  0  0  0  0  0  0
   56.9210   29.6740   43.1310 C   0  0  0  0  0  0  0  0  0  0  0  0
   57.4110   28.4000   43.8410 C   0  0  0  0  0  0  0  0  0  0  0  0
   58.1880   28.6150   45.1210 C   0  0  0  0  0  0  0  0  0  0  0  0
   58.4000   27.5630   46.0280 C   0  0  0  0  0  0  0  0  0  0  0  0
   59.1690   27.9120   47.1290 C   0  0  0  0  0  0  0  0  0  0  0  0
   59.6040   29.5250   46.9730 S   0  0  0  0  0  0  0  0  0  0  0  0
   58.7980   29.8070   45.5240 C   0  0  0  0  0  0  0  0  0  0  0  0
   58.8590   31.0990   44.7570 C   0  0  0  0  0  0  0  0  0  0  0  0
   59.1590   34.1190   45.9960 C   0  0  0  0  0  0  0  0  0  0  0  0
   60.1610   34.5220   46.8830 C   0  0  0  0  0  0  0  0  0  0  0  0
   60.9338   34.2690   50.1603 H   0  0  0  0  0  0  0  0  0  0  0  0
   62.2151   33.8571   48.9707 H   0  0  0  0  0  0  0  0  0  0  0  0
   61.4834   35.4976   48.9707 H   0  0  0  0  0  0  0  0  0  0  0  0
   59.3453   32.5636   49.5637 H   0  0  0  0  0  0  0  0  0  0  0  0
   57.5649   31.8346   47.9800 H   0  0  0  0  0  0  0  0  0  0  0  0
   56.2643   32.3518   46.0297 H   0  0  0  0  0  0  0  0  0  0  0  0
   56.8285   33.6259   44.8465 H   0  0  0  0  0  0  0  0  0  0  0  0
   56.0620   30.2762   45.0198 H   0  0  0  0  0  0  0  0  0  0  0  0
   55.6521   31.3419   43.6078 H   0  0  0  0  0  0  0  0  0  0  0  0
   56.0858   29.4060   42.4673 H   0  0  0  0  0  0  0  0  0  0  0  0
   57.7737   30.0875   42.5725 H   0  0  0  0  0  0  0  0  0  0  0  0
   56.5294   27.7873   44.0806 H   0  0  0  0  0  0  0  0  0  0  0  0
   58.1135   27.9213   43.1429 H   0  0  0  0  0  0  0  0  0  0  0  0
   57.9924   26.5523   45.8785 H   0  0  0  0  0  0  0  0  0  0  0  0
   59.4455   27.2465   47.9601 H   0  0  0  0  0  0  0  0  0  0  0  0
   59.4473   31.8218   45.3413 H   0  0  0  0  0  0  0  0  0  0  0  0
   59.3178   30.8724   43.7833 H   0  0  0  0  0  0  0  0  0  0  0  0
   59.1198   34.5476   44.9837 H   0  0  0  0  0  0  0  0  0  0  0  0
   60.8910   35.2844   46.5736 H   0  0  0  0  0  0  0  0  0  0  0  0
  1  2  1  0
  2  3  2  0
  3  4  1  0
  4  5  2  0
  5  6  1  0
  6  7  1  0
  7  8  1  0
  8  9  1  0
  9 10  1  0
 10 11  1  0
 11 12  1  0
 12 13  2  0
 13 14  1  0
 14 15  1  0
 15 16  1  0
  5 17  1  0
 17 18  2  0
 18  2  1  0
 16  7  1  0
 15 11  2  0
  1 19  1  0
  1 20  1  0
  1 21  1  0
  3 22  1  0
  4 23  1  0
  6 24  1  0
  6 25  1  0
  8 26  1  0
  8 27  1  0
  9 28  1  0
  9 29  1  0
 10 30  1  0
 10 31  1  0
 12 32  1  0
 13 33  1  0
 16 34  1  0
 16 35  1  0
 17 36  1  0
 18 37  1  0
M  END
>  <UniqueID>  (88) 
84

>  <SMILES>  (88) 
Cc1ccc(CN2CCCc3ccsc3C2)cc1

>  <Energy>  (88) 
76.28143183515763

>  <Genealogy>  (88) 
Cc1ccc(CN2CCCc3ccsc3C2)cc1 (3D coordinates assigned)
Cc1ccc(CN2CCCc3ccsc3C2)cc1 (nonaromatic ring conformer: 76.28143183515763 kcal/mol)

>  <smiles>  (88) 
Cc1ccc(CN2CCCc3ccsc3C2)cc1

>  <score_type>  (88) 
oracle

>  <origin>  (88) 
adg

>  <m_score__min__energy>  (88) 
-5.3799999999999999

>  <m_primary>  (88) 
energy

$$$$
88:0
     RDKit          3D

 48 52  0  0  1  0  0  0  0  0999 V2000
   55.4820   24.7880   46.3670 O   0  0  0  0  0  0  0  0  0  0  0  0
   56.4810   25.5680   46.4440 C   0  0  0  0  0  0  0  0  0  0  0  0
   57.4000   25.6620   47.4230 N   0  0  0  0  0  0  0  0  0  0  0  0
   58.3100   26.6210   47.1250 C   0  0  0  0  0  0  0  0  0  0  0  0
   59.4030   27.0330   47.8520 O   0  0  0  0  0  0  0  0  0  0  0  0
   57.9370   27.1430   45.9110 C   0  0  0  0  0  0  0  0  0  0  0  0
   58.5390   28.1870   45.0990 C   0  0  0  0  0  0  0  0  0  0  0  0
   58.1960   29.4600   45.1730 C   0  0  0  0  0  0  0  0  0  0  0  0
   57.5310   30.2510   44.2630 C   0  0  0  0  0  0  0  0  0  0  0  0
   57.4320   31.4590   44.8130 N   0  0  0  0  0  0  0  0  0  0  0  0
   57.9790   31.5250   46.0140 N   0  0  0  0  0  0  0  0  0  0  0  0
   58.1440   32.4780   46.9580 C   0  0  0  0  0  0  0  0  0  0  0  0
   57.7040   33.6570   46.7560 N   0  0  0  0  0  0  0  0  0  0  0  0
   58.1900   34.5960   45.7630 C   0  0  0  0  0  0  0  0  0  0  0  0
   59.3110   34.2010   44.8710 C   0  0  0  0  0  0  0  0  0  0  0  0
   59.6420   35.0240   46.0520 C   0  0  0  0  0  0  0  0  0  0  0  0
   58.7920   32.2210   48.1610 C   0  0  0  0  0  0  0  0  0  0  0  0
   59.2590   30.9510   48.3500 C   0  0  0  0  0  0  0  0  0  0  0  0
   59.9700   30.5080   49.5110 N   0  0  0  0  0  0  0  0  0  0  0  0
   61.4150   30.4580   49.3720 C   0  0  0  0  0  0  0  0  0  0  0  0
   61.9980   31.6450   48.7070 C   0  0  0  0  0  0  0  0  0  0  0  0
   62.6630   31.5500   47.4940 C   0  0  0  0  0  0  0  0  0  0  0  0
   63.2140   32.6630   46.8920 C   0  0  0  0  0  0  0  0  0  0  0  0
   63.1300   33.9330   47.4720 C   0  0  0  0  0  0  0  0  0  0  0  0
   62.4600   34.0310   48.6960 C   0  0  0  0  0  0  0  0  0  0  0  0
   61.9110   32.9150   49.2900 C   0  0  0  0  0  0  0  0  0  0  0  0
   61.0070   33.1460   50.9700 Br  0  0  0  0  0  0  0  0  0  0  0  0
   59.0870   29.9970   47.3930 N   0  0  0  0  0  0  0  0  0  0  0  0
   58.4580   30.2850   46.2460 C   0  0  0  0  0  0  0  0  0  0  0  0
   56.8180   26.4860   45.5110 N   0  0  0  0  0  0  0  0  0  0  0  0
   57.4190   25.0820   48.2910 H   0  0  0  0  0  0  0  0  0  0  0  0
   59.6870   28.0020   47.9460 H   0  0  0  0  0  0  0  0  0  0  0  0
   59.3237   27.9010   44.3832 H   0  0  0  0  0  0  0  0  0  0  0  0
   57.1554   29.9447   43.2755 H   0  0  0  0  0  0  0  0  0  0  0  0
   57.2091   35.0538   45.5671 H   0  0  0  0  0  0  0  0  0  0  0  0
   59.6314   33.1493   44.8357 H   0  0  0  0  0  0  0  0  0  0  0  0
   59.4995   34.3060   43.7924 H   0  0  0  0  0  0  0  0  0  0  0  0
   60.1907   34.5828   46.8972 H   0  0  0  0  0  0  0  0  0  0  0  0
   60.1585   35.9803   46.2213 H   0  0  0  0  0  0  0  0  0  0  0  0
   58.9224   33.0026   48.9239 H   0  0  0  0  0  0  0  0  0  0  0  0
   59.4690   30.2410   50.3940 H   0  0  0  0  0  0  0  0  0  0  0  0
   61.8562   30.3726   50.3760 H   0  0  0  0  0  0  0  0  0  0  0  0
   61.6432   29.5918   48.7336 H   0  0  0  0  0  0  0  0  0  0  0  0
   62.7530   30.5699   47.0027 H   0  0  0  0  0  0  0  0  0  0  0  0
   63.7337   32.5481   45.9293 H   0  0  0  0  0  0  0  0  0  0  0  0
   63.5715   34.8160   46.9869 H   0  0  0  0  0  0  0  0  0  0  0  0
   62.3703   35.0097   49.1900 H   0  0  0  0  0  0  0  0  0  0  0  0
   56.2730   26.6480   44.6160 H   0  0  0  0  0  0  0  0  0  0  0  0
  1  2  2  0
  2  3  1  0
  3  4  1  0
  4  5  1  0
  4  6  2  0
  6  7  1  0
  7  8  2  0
  8  9  1  0
  9 10  2  0
 10 11  1  0
 11 12  1  0
 12 13  2  0
 13 14  1  0
 14 15  1  0
 15 16  1  0
 12 17  1  0
 17 18  2  0
 18 19  1  0
 19 20  1  0
 20 21  1  0
 21 22  2  0
 22 23  1  0
 23 24  2  0
 24 25  1  0
 25 26  2  0
 26 27  1  0
 18 28  1  0
 28 29  2  0
  6 30  1  0
 30  2  1  0
 29  8  1  0
 29 11  1  0
 16 14  1  0
 26 21  1  0
  3 31  1  0
  5 32  1  0
  7 33  1  0
  9 34  1  0
 14 35  1  0
 15 36  1  0
 15 37  1  0
 16 38  1  0
 16 39  1  0
 17 40  1  0
 19 41  1  0
 20 42  1  0
 20 43  1  0
 22 44  1  0
 23 45  1  0
 24 46  1  0
 25 47  1  0
 30 48  1  0
M  END
>  <smiles>  (89) 
O=c1[nH]c(O)c(C=c2cnn3c(=NC4CC4)cc(NCc4ccccc4Br)nc23)[nH]1

>  <score_type>  (89) 
oracle

>  <origin>  (89) 
adg

>  <m_score__min__energy>  (89) 
-10.140000000000001

>  <m_primary>  (89) 
energy

$$$$
89:0
     RDKit          3D

 47 50  0  0  0  0  0  0  0  0999 V2000
   61.5849   29.1622   51.9794 H   0  0  0  0  0  0  0  0  0  0  0  0
   61.9140   29.8750   51.2090 C   0  0  0  0  0  0  0  0  0  0  0  0
   62.8270   30.8780   51.5320 C   0  0  0  0  0  0  0  0  0  0  0  0
   63.2208   30.9529   52.5563 H   0  0  0  0  0  0  0  0  0  0  0  0
   63.2420   31.7870   50.5580 C   0  0  0  0  0  0  0  0  0  0  0  0
   63.9557   32.5813   50.8219 H   0  0  0  0  0  0  0  0  0  0  0  0
   62.7560   31.6960   49.2440 C   0  0  0  0  0  0  0  0  0  0  0  0
   63.3080   32.8710   48.0410 S   0  0  0  0  0  0  0  0  0  0  0  0
   64.5780   33.5080   48.5310 O   0  0  0  0  0  0  0  0  0  0  0  0
   63.5840   32.1960   46.7260 O   0  0  0  0  0  0  0  0  0  0  0  0
   62.1110   34.1050   47.7960 N   0  0  0  0  0  0  0  0  0  0  0  0
   60.9640   33.9090   47.2220 C   0  0  0  0  0  0  0  0  0  0  0  0
   60.8180   33.8630   45.8860 N   0  0  0  0  0  0  0  0  0  0  0  0
   59.5490   33.6850   45.6600 O   0  0  0  0  0  0  0  0  0  0  0  0
   58.8730   33.6120   46.7860 C   0  0  0  0  0  0  0  0  0  0  0  0
   57.3950   33.4470   46.8740 C   0  0  0  0  0  0  0  0  0  0  0  0
   57.0921   33.4132   47.9309 H   0  0  0  0  0  0  0  0  0  0  0  0
   56.9011   34.2956   46.3780 H   0  0  0  0  0  0  0  0  0  0  0  0
   57.1004   32.5104   46.3780 H   0  0  0  0  0  0  0  0  0  0  0  0
   59.7410   33.7520   47.8480 C   0  0  0  0  0  0  0  0  0  0  0  0
   59.5166   33.7414   48.9248 H   0  0  0  0  0  0  0  0  0  0  0  0
   61.8440   30.6670   48.9080 C   0  0  0  0  0  0  0  0  0  0  0  0
   61.3110   30.5710   47.5740 N   0  0  0  0  0  0  0  0  0  0  0  0
   61.9670   30.7450   46.7780 H   0  0  0  0  0  0  0  0  0  0  0  0
   59.9630   30.1030   47.2180 C   0  0  2  0  0  0  0  0  0  0  0  0
   59.2656   30.6595   47.8614 H   0  0  0  0  0  0  0  0  0  0  0  0
   59.8230   28.5980   47.4900 C   0  0  0  0  0  0  0  0  0  0  0  0
   59.9058   28.4253   48.5732 H   0  0  0  0  0  0  0  0  0  0  0  0
   60.6217   28.0809   46.9380 H   0  0  0  0  0  0  0  0  0  0  0  0
   58.4990   28.0480   47.0100 C   0  0  0  0  0  0  0  0  0  0  0  0
   58.0840   26.7880   47.4700 C   0  0  0  0  0  0  0  0  0  0  0  0
   58.7008   26.2436   48.2001 H   0  0  0  0  0  0  0  0  0  0  0  0
   56.8940   26.2200   47.0080 C   0  0  0  0  0  0  0  0  0  0  0  0
   56.5743   25.2357   47.3808 H   0  0  0  0  0  0  0  0  0  0  0  0
   56.1110   26.8990   46.0750 C   0  0  0  0  0  0  0  0  0  0  0  0
   54.9250   26.3340   45.6210 O   0  0  0  0  0  0  0  0  0  0  0  0
   56.5170   28.1480   45.5960 C   0  0  0  0  0  0  0  0  0  0  0  0
   55.8915   28.6821   44.8656 H   0  0  0  0  0  0  0  0  0  0  0  0
   57.7170   28.7260   46.0400 C   0  0  0  0  0  0  0  0  0  0  0  0
   58.0870   30.1060   45.5460 C   0  0  0  0  0  0  0  0  0  0  0  0
   57.4824   30.8492   46.0865 H   0  0  0  0  0  0  0  0  0  0  0  0
   57.8918   30.1399   44.4640 H   0  0  0  0  0  0  0  0  0  0  0  0
   59.5680   30.4230   45.7650 C   0  0  0  0  0  0  0  0  0  0  0  0
   59.7461   31.4899   45.5652 H   0  0  0  0  0  0  0  0  0  0  0  0
   60.1744   29.8104   45.0816 H   0  0  0  0  0  0  0  0  0  0  0  0
   61.4170   29.7750   49.9070 C   0  0  0  0  0  0  0  0  0  0  0  0
   60.6851   28.9913   49.6615 H   0  0  0  0  0  0  0  0  0  0  0  0
  1  2  1  0
  2  3  2  0
  3  4  1  0
  3  5  1  0
  5  6  1  0
  5  7  2  0
  7  8  1  0
  8  9  2  0
  8 10  2  0
  8 11  1  0
 11 12  2  0
 12 13  1  0
 13 14  1  0
 14 15  1  0
 15 16  1  0
 16 17  1  0
 16 18  1  0
 16 19  1  0
 15 20  2  0
 20 21  1  0
  7 22  1  0
 22 23  1  0
 23 24  1  0
 23 25  1  0
 25 26  1  1
 25 27  1  0
 27 28  1  0
 27 29  1  0
 27 30  1  0
 30 31  2  0
 31 32  1  0
 31 33  1  0
 33 34  1  0
 33 35  2  0
 35 36  1  0
 35 37  1  0
 37 38  1  0
 37 39  2  0
 39 40  1  0
 40 41  1  0
 40 42  1  0
 40 43  1  0
 43 44  1  0
 43 45  1  0
 22 46  2  0
 46 47  1  0
 46  2  1  0
 20 12  1  0
 43 25  1  0
 39 30  1  0
M  CHG  2  13  -1  36  -1
M  END
>  <UniqueID>  (90) 
85

>  <SMILES>  (90) 
Cc1c/c(=N\S(=O)(=O)c2ccccc2N[C@H]2CCc3cc([O-])ccc3C2)[n-]o1

>  <Energy>  (90) 
88.72266435917462

>  <Genealogy>  (90) 
Cc1cc(=NS(=O)(=O)c2ccccc2NC2CCc3cc([O-])ccc3C2)[n-]o1 (protonated)
Cc1cc(=NS(=O)(=O)c2ccccc2N[C@H]2CCc3cc([O-])ccc3C2)[n-]o1 (chirality)
Cc1c/c(=N\S(=O)(=O)c2ccccc2N[C@H]2CCc3cc([O-])ccc3C2)[n-]o1 (cis-trans isomerization)
Cc1c/c(=N\S(=O)(=O)c2ccccc2N[C@H]2CCc3cc([O-])ccc3C2)[n-]o1 (3D coordinates assigned)
Cc1c/c(=N\S(=O)(=O)c2ccccc2N[C@H]2CCc3cc([O-])ccc3C2)[n-]o1 (nonaromatic ring conformer: 88.72266435917462 kcal/mol)

>  <smiles>  (90) 
Cc1cc(=NS(=O)(=O)c2ccccc2NC2CCc3cc(O)ccc3C2)[nH]o1

>  <score_type>  (90) 
oracle

>  <origin>  (90) 
adg

>  <m_score__min__energy>  (90) 
-11.92

>  <m_primary>  (90) 
energy

$$$$
90:0
     RDKit          3D

 41 43  0  0  0  0  0  0  0  0999 V2000
   55.1480   28.6040   44.8550 H   0  0  0  0  0  0  0  0  0  0  0  0
   55.1930   29.6480   44.8550 N   0  0  0  0  0  0  0  0  0  0  0  0
   56.6320   30.0940   44.0060 S   0  0  0  0  0  0  0  0  0  0  0  0
   56.2560   30.6520   42.6630 O   0  0  0  0  0  0  0  0  0  0  0  0
   57.4980   28.8820   43.8040 O   0  0  0  0  0  0  0  0  0  0  0  0
   57.5160   31.2980   44.9490 C   0  0  0  0  0  0  0  0  0  0  0  0
   57.0320   32.6130   45.0290 C   0  0  0  0  0  0  0  0  0  0  0  0
   56.1082   32.8881   44.4989 H   0  0  0  0  0  0  0  0  0  0  0  0
   57.7150   33.5750   45.7770 C   0  0  0  0  0  0  0  0  0  0  0  0
   57.3269   34.6025   45.8368 H   0  0  0  0  0  0  0  0  0  0  0  0
   58.8890   33.2330   46.4480 C   0  0  0  0  0  0  0  0  0  0  0  0
   59.4274   33.9919   47.0347 H   0  0  0  0  0  0  0  0  0  0  0  0
   59.3820   31.9280   46.3760 C   0  0  0  0  0  0  0  0  0  0  0  0
   60.3090   31.6649   46.9065 H   0  0  0  0  0  0  0  0  0  0  0  0
   58.7020   30.9470   45.6300 C   0  0  0  0  0  0  0  0  0  0  0  0
   59.1810   29.5950   45.5540 N   0  0  0  0  0  0  0  0  0  0  0  0
   58.9240   28.3660   46.7480 S   0  0  0  0  0  0  0  0  0  0  0  0
   60.2510   27.8810   47.2600 O   0  0  0  0  0  0  0  0  0  0  0  0
   58.1540   28.9510   47.8980 O   0  0  0  0  0  0  0  0  0  0  0  0
   57.9900   27.0460   46.0520 C   0  0  0  0  0  0  0  0  0  0  0  0
   58.5470   26.2720   45.0270 C   0  0  0  0  0  0  0  0  0  0  0  0
   59.5605   26.4952   44.6622 H   0  0  0  0  0  0  0  0  0  0  0  0
   57.8230   25.2180   44.4650 C   0  0  0  0  0  0  0  0  0  0  0  0
   58.2721   24.6126   43.6639 H   0  0  0  0  0  0  0  0  0  0  0  0
   56.5200   24.9250   44.9180 C   0  0  0  0  0  0  0  0  0  0  0  0
   55.7160   23.8100   44.3620 C   0  0  0  0  0  0  0  0  0  0  0  0
   55.0332   24.0253   43.5269 H   0  0  0  0  0  0  0  0  0  0  0  0
   55.7780   22.5540   44.8240 C   0  0  0  0  0  0  0  0  0  0  0  0
   55.5439   21.7303   44.1336 H   0  0  0  0  0  0  0  0  0  0  0  0
   56.1450   22.2220   46.2140 C   0  0  0  0  0  0  0  0  0  0  0  0
   55.0890   22.3930   47.5160 S   0  0  0  0  0  0  0  0  0  0  0  0
   56.2090   21.8120   48.6230 C   0  0  0  0  0  0  0  0  0  0  0  0
   55.9960   21.7020   49.8590 O   0  0  0  0  0  0  0  0  0  0  0  0
   57.3770   21.4670   48.0450 N   0  0  0  0  0  0  0  0  0  0  0  0
   57.3440   21.6860   46.7020 C   0  0  0  0  0  0  0  0  0  0  0  0
   58.4280   21.3630   45.8920 O   0  0  0  0  0  0  0  0  0  0  0  0
   58.5670   20.4150   45.5670 H   0  0  0  0  0  0  0  0  0  0  0  0
   55.9780   25.6940   45.9630 C   0  0  0  0  0  0  0  0  0  0  0  0
   54.9734   25.4613   46.3459 H   0  0  0  0  0  0  0  0  0  0  0  0
   56.7030   26.7510   46.5200 C   0  0  0  0  0  0  0  0  0  0  0  0
   56.2619   27.3530   47.3281 H   0  0  0  0  0  0  0  0  0  0  0  0
  1  2  1  0
  2  3  1  0
  3  4  2  0
  3  5  2  0
  3  6  1  0
  6  7  2  0
  7  8  1  0
  7  9  1  0
  9 10  1  0
  9 11  2  0
 11 12  1  0
 11 13  1  0
 13 14  1  0
 13 15  2  0
 15 16  1  0
 16 17  1  0
 17 18  2  0
 17 19  2  0
 17 20  1  0
 20 21  2  0
 21 22  1  0
 21 23  1  0
 23 24  1  0
 23 25  2  0
 25 26  1  0
 26 27  1  0
 26 28  2  0
 28 29  1  0
 28 30  1  0
 30 31  1  0
 31 32  1  0
 32 33  2  0
 32 34  1  0
 34 35  1  0
 35 36  1  0
 36 37  1  0
 25 38  1  0
 38 39  1  0
 38 40  2  0
 40 41  1  0
 15  6  1  0
 40 20  1  0
 35 30  2  0
M  CHG  3   2  -1  16  -1  34  -1
M  END
>  <UniqueID>  (91) 
86

>  <SMILES>  (91) 
[NH-]S(=O)(=O)c1ccccc1[N-]S(=O)(=O)c1ccc(/C=C/c2sc(=O)[n-]c2O)cc1

>  <Energy>  (91) 
82.13504399524943

>  <Genealogy>  (91) 
[NH-]S(=O)(=O)c1ccccc1[N-]S(=O)(=O)c1ccc(C=Cc2sc(=O)[n-]c2O)cc1 (protonated)
[NH-]S(=O)(=O)c1ccccc1[N-]S(=O)(=O)c1ccc(/C=C/c2sc(=O)[n-]c2O)cc1 (cis-trans isomerization)
[NH-]S(=O)(=O)c1ccccc1[N-]S(=O)(=O)c1ccc(/C=C/c2sc(=O)[n-]c2O)cc1 (3D coordinates assigned)
[NH-]S(=O)(=O)c1ccccc1[N-]S(=O)(=O)c1ccc(/C=C/c2sc(=O)[n-]c2O)cc1 (optimized conformer: 82.13504399524943 kcal/mol)

>  <smiles>  (91) 
NS(=O)(=O)c1ccccc1NS(=O)(=O)c1ccc(C=Cc2sc(=O)[nH]c2O)cc1

>  <score_type>  (91) 
oracle

>  <origin>  (91) 
adg

>  <m_score__min__energy>  (91) 
-14.789999999999999

>  <m_primary>  (91) 
energy

$$$$
