0:0
     RDKit          3D

 36 38  0  0  0  0  0  0  0  0999 V2000
   55.7480   24.5410   46.6370 O   0  0  0  0  0  0  0  0  0  0  0  0
   56.1850   25.6580   46.2580 C   0  0  0  0  0  0  0  0  0  0  0  0
   55.3750   26.7070   46.0000 N   0  0  0  0  0  0  0  0  0  0  0  0
   56.2380   27.6660   45.6270 C   0  0  0  0  0  0  0  0  0  0  0  0
   55.8390   28.9440   45.2450 O   0  0  0  0  0  0  0  0  0  0  0  0
   57.5300   27.1860   45.6790 C   0  0  0  0  0  0  0  0  0  0  0  0
   58.7810   27.8920   45.2450 C   0  0  0  0  0  0  0  0  0  0  0  0
   58.5830   29.3790   45.3430 C   0  0  0  0  0  0  0  0  0  0  0  0
   58.4880   30.1520   44.1740 C   0  0  0  0  0  0  0  0  0  0  0  0
   58.1880   31.5130   44.2520 C   0  0  0  0  0  0  0  0  0  0  0  0
   57.9690   32.1140   45.4980 C   0  0  0  0  0  0  0  0  0  0  0  0
   57.4340   33.8250   45.5780 S   0  0  0  0  0  0  0  0  0  0  0  0
   59.1090   34.5350   45.3600 C   0  0  0  0  0  0  0  0  0  0  0  0
   60.0060   34.2270   46.5300 C   0  0  0  0  0  0  0  0  0  0  0  0
   61.3270   33.8030   46.3150 C   0  0  0  0  0  0  0  0  0  0  0  0
   62.1790   33.5760   47.4000 C   0  0  0  0  0  0  0  0  0  0  0  0
   61.7200   33.7760   48.7060 C   0  0  0  0  0  0  0  0  0  0  0  0
   60.4070   34.1980   48.9290 C   0  0  0  0  0  0  0  0  0  0  0  0
   59.5500   34.4210   47.8470 C   0  0  0  0  0  0  0  0  0  0  0  0
   58.1050   31.3600   46.6690 C   0  0  0  0  0  0  0  0  0  0  0  0
   58.4030   29.9960   46.5930 C   0  0  0  0  0  0  0  0  0  0  0  0
   57.5000   25.8980   46.0680 N   0  0  0  0  0  0  0  0  0  0  0  0
   55.7310   29.6910   45.9200 H   0  0  0  0  0  0  0  0  0  0  0  0
   59.6154   27.5905   45.8952 H   0  0  0  0  0  0  0  0  0  0  0  0
   59.0089   27.6225   44.2031 H   0  0  0  0  0  0  0  0  0  0  0  0
   58.6508   29.6826   43.1926 H   0  0  0  0  0  0  0  0  0  0  0  0
   58.1235   32.1145   43.3333 H   0  0  0  0  0  0  0  0  0  0  0  0
   59.5575   34.1147   44.4477 H   0  0  0  0  0  0  0  0  0  0  0  0
   59.0090   35.6279   45.2854 H   0  0  0  0  0  0  0  0  0  0  0  0
   61.6930   33.6488   45.2892 H   0  0  0  0  0  0  0  0  0  0  0  0
   63.2118   33.2396   47.2263 H   0  0  0  0  0  0  0  0  0  0  0  0
   62.3933   33.6009   49.5581 H   0  0  0  0  0  0  0  0  0  0  0  0
   60.0472   34.3549   49.9566 H   0  0  0  0  0  0  0  0  0  0  0  0
   58.5155   34.7493   48.0259 H   0  0  0  0  0  0  0  0  0  0  0  0
   57.9774   31.8408   47.6501 H   0  0  0  0  0  0  0  0  0  0  0  0
   58.4969   29.4035   47.5150 H   0  0  0  0  0  0  0  0  0  0  0  0
  1  2  2  0
  2  3  1  0
  3  4  1  0
  4  5  1  0
  4  6  2  0
  6  7  1  0
  7  8  1  0
  8  9  2  0
  9 10  1  0
 10 11  2  0
 11 12  1  0
 12 13  1  0
 13 14  1  0
 14 15  2  0
 15 16  1  0
 16 17  2  0
 17 18  1  0
 18 19  2  0
 11 20  1  0
 20 21  2  0
  6 22  1  0
 22  2  1  0
 21  8  1  0
 19 14  1  0
  5 23  1  0
  7 24  1  0
  7 25  1  0
  9 26  1  0
 10 27  1  0
 13 28  1  0
 13 29  1  0
 15 30  1  0
 16 31  1  0
 17 32  1  0
 18 33  1  0
 19 34  1  0
 20 35  1  0
 21 36  1  0
M  CHG  2   3  -1  22  -1
M  END
>  <UniqueID>  (1) 
1

>  <SMILES>  (1) 
O=c1[n-]c(O)c(Cc2ccc(SCc3ccccc3)cc2)[n-]1

>  <Energy>  (1) 
59.591822218795855

>  <Genealogy>  (1) 
O=c1[n-]c(O)c(Cc2ccc(SCc3ccccc3)cc2)[n-]1 (protonated)
O=c1[n-]c(O)c(Cc2ccc(SCc3ccccc3)cc2)[n-]1 (3D coordinates assigned)
O=c1[n-]c(O)c(Cc2ccc(SCc3ccccc3)cc2)[n-]1 (optimized conformer: 59.591822218795855 kcal/mol)

>  <smiles>  (1) 
O=c1[nH]c(O)c(Cc2ccc(SCc3ccccc3)cc2)[nH]1

>  <score_type>  (1) 
oracle

>  <origin>  (1) 
adg

>  <m_score__min__energy>  (1) 
-12.51

>  <m_primary>  (1) 
energy

$$$$
1:0
     RDKit          3D

 49 51  0  0  0  0  0  0  0  0999 V2000
   63.9850   33.3220   48.7780 C   0  0  0  0  0  0  0  0  0  0  0  0
   62.6600   33.9990   48.9590 C   0  0  0  0  0  0  0  0  0  0  0  0
   62.5840   34.9620   49.7700 O   0  0  0  0  0  0  0  0  0  0  0  0
   61.4890   33.5780   48.2240 N   0  0  0  0  0  0  0  0  0  0  0  0
   61.6080   32.9560   46.8950 C   0  0  0  0  0  0  0  0  0  0  0  0
   60.5540   31.8610   46.7250 C   0  0  0  0  0  0  0  0  0  0  0  0
   59.2390   32.3820   47.1100 N   0  0  0  0  0  0  0  0  0  0  0  0
   58.1620   32.4670   46.1590 C   0  0  0  0  0  0  0  0  0  0  0  0
   57.4850   33.5290   46.0860 O   0  0  0  0  0  0  0  0  0  0  0  0
   57.8290   31.3300   45.2680 C   0  0  0  0  0  0  0  0  0  0  0  0
   57.0200   31.5220   44.1330 C   0  0  0  0  0  0  0  0  0  0  0  0
   56.7130   30.4480   43.2940 C   0  0  0  0  0  0  0  0  0  0  0  0
   57.2110   29.1740   43.5750 C   0  0  0  0  0  0  0  0  0  0  0  0
   58.0170   28.9690   44.6990 C   0  0  0  0  0  0  0  0  0  0  0  0
   58.6490   27.3280   45.0610 S   0  0  0  0  0  0  0  0  0  0  0  0
   57.4040   26.9530   46.3460 C   0  0  0  0  0  0  0  0  0  0  0  0
   56.3500   26.0080   45.8350 C   0  0  0  0  0  0  0  0  0  0  0  0
   55.1390   26.3280   45.9980 O   0  0  0  0  0  0  0  0  0  0  0  0
   56.6830   24.7380   45.1320 C   0  0  0  0  0  0  0  0  0  0  0  0
   57.9190   24.0890   45.3270 C   0  0  0  0  0  0  0  0  0  0  0  0
   58.2130   22.9020   44.6490 C   0  0  0  0  0  0  0  0  0  0  0  0
   57.2820   22.3470   43.7690 C   0  0  0  0  0  0  0  0  0  0  0  0
   57.5700   21.1950   43.1140 F   0  0  0  0  0  0  0  0  0  0  0  0
   56.0520   22.9760   43.5690 C   0  0  0  0  0  0  0  0  0  0  0  0
   55.7530   24.1620   44.2440 C   0  0  0  0  0  0  0  0  0  0  0  0
   58.3360   30.0460   45.5360 C   0  0  0  0  0  0  0  0  0  0  0  0
   59.1100   32.9760   48.4430 C   0  0  0  0  0  0  0  0  0  0  0  0
   60.1620   34.0730   48.6250 C   0  0  0  0  0  0  0  0  0  0  0  0
   64.4206   33.0994   49.7632 H   0  0  0  0  0  0  0  0  0  0  0  0
   63.8447   32.3851   48.2190 H   0  0  0  0  0  0  0  0  0  0  0  0
   64.6620   33.9847   48.2190 H   0  0  0  0  0  0  0  0  0  0  0  0
   61.4619   33.7236   46.1207 H   0  0  0  0  0  0  0  0  0  0  0  0
   62.6080   32.5082   46.7978 H   0  0  0  0  0  0  0  0  0  0  0  0
   60.5269   31.5387   45.6736 H   0  0  0  0  0  0  0  0  0  0  0  0
   60.8099   31.0042   47.3656 H   0  0  0  0  0  0  0  0  0  0  0  0
   56.6269   32.5237   43.9049 H   0  0  0  0  0  0  0  0  0  0  0  0
   56.0776   30.6062   42.4101 H   0  0  0  0  0  0  0  0  0  0  0  0
   56.9689   28.3308   42.9114 H   0  0  0  0  0  0  0  0  0  0  0  0
   57.9083   26.4931   47.2086 H   0  0  0  0  0  0  0  0  0  0  0  0
   56.9127   27.8938   46.6349 H   0  0  0  0  0  0  0  0  0  0  0  0
   58.6583   24.5199   46.0182 H   0  0  0  0  0  0  0  0  0  0  0  0
   59.1806   22.4040   44.8094 H   0  0  0  0  0  0  0  0  0  0  0  0
   55.3168   22.5370   42.8786 H   0  0  0  0  0  0  0  0  0  0  0  0
   54.7814   24.6512   44.0805 H   0  0  0  0  0  0  0  0  0  0  0  0
   58.9870   29.8864   46.4082 H   0  0  0  0  0  0  0  0  0  0  0  0
   58.1057   33.4110   48.5535 H   0  0  0  0  0  0  0  0  0  0  0  0
   59.2618   32.1968   49.2044 H   0  0  0  0  0  0  0  0  0  0  0  0
   59.8944   34.9396   48.0026 H   0  0  0  0  0  0  0  0  0  0  0  0
   60.1941   34.3665   49.6846 H   0  0  0  0  0  0  0  0  0  0  0  0
  1  2  1  0
  2  3  2  0
  2  4  1  0
  4  5  1  0
  5  6  1  0
  6  7  1  0
  7  8  1  0
  8  9  2  0
  8 10  1  0
 10 11  2  0
 11 12  1  0
 12 13  2  0
 13 14  1  0
 14 15  1  0
 15 16  1  0
 16 17  1  0
 17 18  2  0
 17 19  1  0
 19 20  2  0
 20 21  1  0
 21 22  2  0
 22 23  1  0
 22 24  1  0
 24 25  2  0
 14 26  2  0
  7 27  1  0
 27 28  1  0
 28  4  1  0
 26 10  1  0
 25 19  1  0
  1 29  1  0
  1 30  1  0
  1 31  1  0
  5 32  1  0
  5 33  1  0
  6 34  1  0
  6 35  1  0
 11 36  1  0
 12 37  1  0
 13 38  1  0
 16 39  1  0
 16 40  1  0
 20 41  1  0
 21 42  1  0
 24 43  1  0
 25 44  1  0
 26 45  1  0
 27 46  1  0
 27 47  1  0
 28 48  1  0
 28 49  1  0
M  END
>  <UniqueID>  (2) 
2

>  <SMILES>  (2) 
CC(=O)N1CCN(C(=O)c2cccc(SCC(=O)c3ccc(F)cc3)c2)CC1

>  <Energy>  (2) 
51.77206157897032

>  <Genealogy>  (2) 
CC(=O)N1CCN(C(=O)c2cccc(SCC(=O)c3ccc(F)cc3)c2)CC1 (3D coordinates assigned)
CC(=O)N1CCN(C(=O)c2cccc(SCC(=O)c3ccc(F)cc3)c2)CC1 (nonaromatic ring conformer: 51.77206157897032 kcal/mol)

>  <smiles>  (2) 
CC(=O)N1CCN(C(=O)c2cccc(SCC(=O)c3ccc(F)cc3)c2)CC1

>  <score_type>  (2) 
oracle

>  <origin>  (2) 
adg

>  <m_score__min__energy>  (2) 
-8.9399999999999995

>  <m_primary>  (2) 
energy

$$$$
2:0
     RDKit          3D

 45 47  0  0  0  0  0  0  0  0999 V2000
   56.2317   30.3042   43.0404 H   0  0  0  0  0  0  0  0  0  0  0  0
   56.6300   29.3350   43.3750 C   0  0  0  0  0  0  0  0  0  0  0  0
   56.4141   28.4231   42.7989 H   0  0  0  0  0  0  0  0  0  0  0  0
   57.3800   29.2650   44.4870 C   0  0  0  0  0  0  0  0  0  0  0  0
   57.9560   28.1080   45.0380 C   0  0  0  0  0  0  0  0  0  0  0  0
   57.7480   26.8030   44.7720 C   0  0  0  0  0  0  0  0  0  0  0  0
   58.0153   26.4469   43.7662 H   0  0  0  0  0  0  0  0  0  0  0  0
   57.1950   25.8140   45.7090 C   0  0  0  0  0  0  0  0  0  0  0  0
   57.9270   24.8430   46.2810 N   0  0  0  0  0  0  0  0  0  0  0  0
   57.0610   24.2650   47.1430 C   0  0  0  0  0  0  0  0  0  0  0  0
   57.3780   23.2850   47.8660 O   0  0  0  0  0  0  0  0  0  0  0  0
   55.8330   24.8270   47.1770 N   0  0  0  0  0  0  0  0  0  0  0  0
   55.9390   25.8160   46.2740 C   0  0  0  0  0  0  0  0  0  0  0  0
   54.9180   26.7160   45.9950 O   0  0  0  0  0  0  0  0  0  0  0  0
   58.8590   28.5410   45.9930 C   0  0  0  0  0  0  0  0  0  0  0  0
   59.5303   27.9100   46.5940 H   0  0  0  0  0  0  0  0  0  0  0  0
   58.7560   29.9160   46.0470 C   0  0  0  0  0  0  0  0  0  0  0  0
   59.5380   30.7870   46.9830 C   0  0  0  0  0  0  0  0  0  0  0  0
   59.2966   30.5181   48.0220 H   0  0  0  0  0  0  0  0  0  0  0  0
   60.6140   30.6410   46.8070 H   0  0  0  0  0  0  0  0  0  0  0  0
   59.2773   31.8411   46.8070 H   0  0  0  0  0  0  0  0  0  0  0  0
   57.8530   30.3580   45.1430 N   0  0  0  0  0  0  0  0  0  0  0  0
   57.4890   31.7340   44.9270 C   0  0  0  0  0  0  0  0  0  0  0  0
   56.2940   32.1020   45.0840 O   0  0  0  0  0  0  0  0  0  0  0  0
   58.4790   32.6770   44.5020 N   0  0  0  0  0  0  0  0  0  0  0  0
   58.5970   34.0240   45.0490 C   0  0  0  0  0  0  0  0  0  0  0  0
   59.0058   34.6950   44.2792 H   0  0  0  0  0  0  0  0  0  0  0  0
   57.6022   34.3749   45.3607 H   0  0  0  0  0  0  0  0  0  0  0  0
   59.5130   34.0180   46.2410 C   0  0  0  0  0  0  0  0  0  0  0  0
   60.8970   33.8800   46.0620 C   0  0  0  0  0  0  0  0  0  0  0  0
   61.3124   33.7997   45.0466 H   0  0  0  0  0  0  0  0  0  0  0  0
   61.7510   33.8440   47.1680 C   0  0  0  0  0  0  0  0  0  0  0  0
   62.8365   33.7505   47.0163 H   0  0  0  0  0  0  0  0  0  0  0  0
   61.2360   33.9260   48.4670 C   0  0  0  0  0  0  0  0  0  0  0  0
   62.1340   33.8930   49.5450 O   0  0  0  0  0  0  0  0  0  0  0  0
   63.1490   32.9430   49.7250 C   0  0  0  0  0  0  0  0  0  0  0  0
   62.9550   31.9070   50.4170 O   0  0  0  0  0  0  0  0  0  0  0  0
   64.4360   33.1040   48.9900 C   0  0  0  0  0  0  0  0  0  0  0  0
   65.2599   33.2071   49.7115 H   0  0  0  0  0  0  0  0  0  0  0  0
   64.6103   32.2207   48.3581 H   0  0  0  0  0  0  0  0  0  0  0  0
   64.3874   34.0031   48.3581 H   0  0  0  0  0  0  0  0  0  0  0  0
   59.8480   34.0760   48.6480 C   0  0  0  0  0  0  0  0  0  0  0  0
   59.4337   34.1628   49.6633 H   0  0  0  0  0  0  0  0  0  0  0  0
   58.9940   34.1150   47.5410 C   0  0  0  0  0  0  0  0  0  0  0  0
   57.9095   34.2223   47.6904 H   0  0  0  0  0  0  0  0  0  0  0  0
  1  2  1  0
  2  3  1  0
  2  4  2  0
  4  5  1  0
  5  6  2  0
  6  7  1  0
  6  8  1  0
  8  9  1  0
  9 10  1  0
 10 11  2  0
 10 12  1  0
 12 13  1  0
 13 14  1  0
  5 15  1  0
 15 16  1  0
 15 17  2  0
 17 18  1  0
 18 19  1  0
 18 20  1  0
 18 21  1  0
 17 22  1  0
 22 23  1  0
 23 24  2  0
 23 25  1  0
 25 26  1  0
 26 27  1  0
 26 28  1  0
 26 29  1  0
 29 30  2  0
 30 31  1  0
 30 32  1  0
 32 33  1  0
 32 34  2  0
 34 35  1  0
 35 36  1  0
 36 37  2  0
 36 38  1  0
 38 39  1  0
 38 40  1  0
 38 41  1  0
 34 42  1  0
 42 43  1  0
 42 44  2  0
 44 45  1  0
 22  4  1  0
 44 29  1  0
 13  8  2  0
M  CHG  4   9  -1  12  -1  14  -1  25  -1
M  END
>  <UniqueID>  (3) 
3

>  <SMILES>  (3) 
C=c1/c(=C\c2[n-]c(=O)[n-]c2[O-])cc(C)n1C(=O)[N-]Cc1ccc(OC(C)=O)cc1

>  <Energy>  (3) 
121.08331240660661

>  <Genealogy>  (3) 
C=c1c(=Cc2[n-]c(=O)[n-]c2[O-])cc(C)n1C(=O)[N-]Cc1ccc(OC(C)=O)cc1 (protonated)
C=c1/c(=C\c2[n-]c(=O)[n-]c2[O-])cc(C)n1C(=O)[N-]Cc1ccc(OC(C)=O)cc1 (cis-trans isomerization)
C=c1/c(=C\c2[n-]c(=O)[n-]c2[O-])cc(C)n1C(=O)[N-]Cc1ccc(OC(C)=O)cc1 (3D coordinates assigned)
C=c1/c(=C\c2[n-]c(=O)[n-]c2[O-])cc(C)n1C(=O)[N-]Cc1ccc(OC(C)=O)cc1 (optimized conformer: 121.08331240660661 kcal/mol)

>  <smiles>  (3) 
C=c1c(=Cc2[nH]c(=O)[nH]c2O)cc(C)n1C(=O)NCc1ccc(OC(C)=O)cc1

>  <score_type>  (3) 
oracle

>  <origin>  (3) 
adg

>  <m_score__min__energy>  (3) 
-17.5

>  <m_primary>  (3) 
energy

$$$$
3:0
     RDKit          3D

 29 30  0  0  0  0  0  0  0  0999 V2000
   55.6390   30.6930   44.5260 O   0  0  0  0  0  0  0  0  0  0  0  0
   56.6550   30.0080   44.8240 C   0  0  0  0  0  0  0  0  0  0  0  0
   56.7570   28.5890   44.3610 C   0  0  0  0  0  0  0  0  0  0  0  0
   57.2740   27.7570   45.4520 N   0  0  0  0  0  0  0  0  0  0  0  0
   56.5120   26.8750   46.1620 C   0  0  0  0  0  0  0  0  0  0  0  0
   55.1450   26.7330   45.9530 O   0  0  0  0  0  0  0  0  0  0  0  0
   57.2010   26.1170   47.1040 C   0  0  0  0  0  0  0  0  0  0  0  0
   58.8270   26.5570   47.0330 S   0  0  0  0  0  0  0  0  0  0  0  0
   58.5770   27.6870   45.8160 C   0  0  0  0  0  0  0  0  0  0  0  0
   59.4920   28.3780   45.2960 O   0  0  0  0  0  0  0  0  0  0  0  0
   57.7480   30.6080   45.5280 N   0  0  0  0  0  0  0  0  0  0  0  0
   58.0950   32.0140   45.3360 C   0  0  0  0  0  0  0  0  0  0  0  0
   58.6850   32.5690   46.6090 C   0  0  0  0  0  0  0  0  0  0  0  0
   58.6340   31.8010   47.7860 C   0  0  0  0  0  0  0  0  0  0  0  0
   59.1020   32.3230   48.9940 C   0  0  0  0  0  0  0  0  0  0  0  0
   59.6190   33.6180   49.0430 C   0  0  0  0  0  0  0  0  0  0  0  0
   59.6680   34.3950   47.8840 C   0  0  0  0  0  0  0  0  0  0  0  0
   59.2000   33.8830   46.6680 C   0  0  0  0  0  0  0  0  0  0  0  0
   59.2570   34.9220   45.2480 Cl  0  0  0  0  0  0  0  0  0  0  0  0
   55.7616   28.2275   44.0637 H   0  0  0  0  0  0  0  0  0  0  0  0
   57.4391   28.5315   43.4999 H   0  0  0  0  0  0  0  0  0  0  0  0
   56.7625   25.3643   47.7757 H   0  0  0  0  0  0  0  0  0  0  0  0
   58.4410   29.9890   46.0050 H   0  0  0  0  0  0  0  0  0  0  0  0
   58.8308   32.1016   44.5230 H   0  0  0  0  0  0  0  0  0  0  0  0
   57.1891   32.5812   45.0760 H   0  0  0  0  0  0  0  0  0  0  0  0
   58.2224   30.7814   47.7550 H   0  0  0  0  0  0  0  0  0  0  0  0
   59.0629   31.7123   49.9081 H   0  0  0  0  0  0  0  0  0  0  0  0
   59.9881   34.0270   49.9951 H   0  0  0  0  0  0  0  0  0  0  0  0
   60.0767   35.4154   47.9266 H   0  0  0  0  0  0  0  0  0  0  0  0
  1  2  2  0
  2  3  1  0
  3  4  1  0
  4  5  1  0
  5  6  1  0
  5  7  2  0
  7  8  1  0
  8  9  1  0
  9 10  2  0
  2 11  1  0
 11 12  1  0
 12 13  1  0
 13 14  2  0
 14 15  1  0
 15 16  2  0
 16 17  1  0
 17 18  2  0
 18 19  1  0
  9  4  1  0
 18 13  1  0
  3 20  1  0
  3 21  1  0
  7 22  1  0
 11 23  1  0
 12 24  1  0
 12 25  1  0
 14 26  1  0
 15 27  1  0
 16 28  1  0
 17 29  1  0
M  CHG  1   6  -1
M  END
>  <UniqueID>  (4) 
4

>  <SMILES>  (4) 
O=C(Cn1c([O-])csc1=O)NCc1ccccc1Cl

>  <Energy>  (4) 
55.34244129143722

>  <Genealogy>  (4) 
O=C(Cn1c([O-])csc1=O)NCc1ccccc1Cl (protonated)
O=C(Cn1c([O-])csc1=O)NCc1ccccc1Cl (3D coordinates assigned)
O=C(Cn1c([O-])csc1=O)NCc1ccccc1Cl (optimized conformer: 55.34244129143722 kcal/mol)

>  <smiles>  (4) 
O=C(Cn1c(O)csc1=O)NCc1ccccc1Cl

>  <score_type>  (4) 
oracle

>  <origin>  (4) 
adg

>  <m_score__min__energy>  (4) 
-10.18

>  <m_primary>  (4) 
energy

$$$$
4:0
     RDKit          3D

 57 60  0  0  0  0  0  0  0  0999 V2000
   56.2590   25.2970   47.0160 O   0  0  0  0  0  0  0  0  0  0  0  0
   57.3010   25.9630   46.7760 C   0  0  0  0  0  0  0  0  0  0  0  0
   58.2870   26.1020   47.8070 N   0  0  0  0  0  0  0  0  0  0  0  0
   59.3120   27.1460   47.8530 C   0  0  0  0  0  0  0  0  0  0  0  0
   58.7150   28.5070   48.1910 C   0  0  0  0  0  0  0  0  0  0  0  0
   59.8030   29.2660   48.9430 C   0  0  0  0  0  0  0  0  0  0  0  0
   60.8510   28.2370   49.3660 C   0  0  0  0  0  0  0  0  0  0  0  0
   60.3030   26.8720   48.9700 C   0  0  0  0  0  0  0  0  0  0  0  0
   57.4590   26.5980   45.4550 C   0  0  0  0  0  0  0  0  0  0  0  0
   57.7830   25.8280   44.3270 C   0  0  0  0  0  0  0  0  0  0  0  0
   57.9270   26.4380   43.0780 C   0  0  0  0  0  0  0  0  0  0  0  0
   57.7440   27.8170   42.9450 C   0  0  0  0  0  0  0  0  0  0  0  0
   57.4020   28.5940   44.0620 C   0  0  0  0  0  0  0  0  0  0  0  0
   57.1710   30.3370   43.8970 S   0  0  0  0  0  0  0  0  0  0  0  0
   55.9420   30.7490   44.6600 O   0  0  0  0  0  0  0  0  0  0  0  0
   56.9510   30.6720   42.4470 O   0  0  0  0  0  0  0  0  0  0  0  0
   58.5500   31.2260   44.5000 N   0  0  0  0  0  0  0  0  0  0  0  0
   58.1880   32.6250   44.8420 C   0  0  0  0  0  0  0  0  0  0  0  0
   58.2030   32.9070   46.3490 C   0  0  0  0  0  0  0  0  0  0  0  0
   59.4970   32.5160   46.9160 N   0  0  0  0  0  0  0  0  0  0  0  0
   59.9580   33.1340   48.1320 C   0  0  0  0  0  0  0  0  0  0  0  0
   59.1160   33.5680   48.9650 O   0  0  0  0  0  0  0  0  0  0  0  0
   61.4000   33.2700   48.4340 C   0  0  0  0  0  0  0  0  0  0  0  0
   61.8650   33.2100   49.7600 C   0  0  0  0  0  0  0  0  0  0  0  0
   63.2310   33.3290   50.0360 C   0  0  0  0  0  0  0  0  0  0  0  0
   64.1450   33.4940   48.9910 C   0  0  0  0  0  0  0  0  0  0  0  0
   63.6950   33.5360   47.6690 C   0  0  0  0  0  0  0  0  0  0  0  0
   62.3290   33.4190   47.3890 C   0  0  0  0  0  0  0  0  0  0  0  0
   60.1920   31.3430   46.3670 C   0  0  0  0  0  0  0  0  0  0  0  0
   59.2110   30.4670   45.5810 C   0  0  0  0  0  0  0  0  0  0  0  0
   57.2550   27.9790   45.3140 C   0  0  0  0  0  0  0  0  0  0  0  0
   59.7833   27.1468   46.8591 H   0  0  0  0  0  0  0  0  0  0  0  0
   58.4406   29.0436   47.2708 H   0  0  0  0  0  0  0  0  0  0  0  0
   57.8009   28.4081   48.7948 H   0  0  0  0  0  0  0  0  0  0  0  0
   60.2588   30.0224   48.2871 H   0  0  0  0  0  0  0  0  0  0  0  0
   59.3868   29.7865   49.8181 H   0  0  0  0  0  0  0  0  0  0  0  0
   61.8024   28.4291   48.8484 H   0  0  0  0  0  0  0  0  0  0  0  0
   61.0448   28.2888   50.4476 H   0  0  0  0  0  0  0  0  0  0  0  0
   61.1141   26.2198   48.6139 H   0  0  0  0  0  0  0  0  0  0  0  0
   59.8306   26.3578   49.8199 H   0  0  0  0  0  0  0  0  0  0  0  0
   57.9239   24.7416   44.4264 H   0  0  0  0  0  0  0  0  0  0  0  0
   58.1850   25.8313   42.1975 H   0  0  0  0  0  0  0  0  0  0  0  0
   57.8684   28.2946   41.9619 H   0  0  0  0  0  0  0  0  0  0  0  0
   58.9061   33.3002   44.3538 H   0  0  0  0  0  0  0  0  0  0  0  0
   57.1584   32.7889   44.4913 H   0  0  0  0  0  0  0  0  0  0  0  0
   58.0388   33.9810   46.5209 H   0  0  0  0  0  0  0  0  0  0  0  0
   57.4043   32.3269   46.8344 H   0  0  0  0  0  0  0  0  0  0  0  0
   61.1506   33.0687   50.5844 H   0  0  0  0  0  0  0  0  0  0  0  0
   63.5865   33.2927   51.0763 H   0  0  0  0  0  0  0  0  0  0  0  0
   65.2187   33.5908   49.2097 H   0  0  0  0  0  0  0  0  0  0  0  0
   64.4154   33.6612   46.8472 H   0  0  0  0  0  0  0  0  0  0  0  0
   61.9801   33.4437   46.3461 H   0  0  0  0  0  0  0  0  0  0  0  0
   60.9971   31.6784   45.6967 H   0  0  0  0  0  0  0  0  0  0  0  0
   60.6138   30.7552   47.1956 H   0  0  0  0  0  0  0  0  0  0  0  0
   59.7610   29.6228   45.1397 H   0  0  0  0  0  0  0  0  0  0  0  0
   58.4355   30.1109   46.2752 H   0  0  0  0  0  0  0  0  0  0  0  0
   56.9781   28.5830   46.1906 H   0  0  0  0  0  0  0  0  0  0  0  0
  1  2  2  0
  2  3  1  0
  3  4  1  0
  4  5  1  0
  5  6  1  0
  6  7  1  0
  7  8  1  0
  2  9  1  0
  9 10  2  0
 10 11  1  0
 11 12  2  0
 12 13  1  0
 13 14  1  0
 14 15  2  0
 14 16  2  0
 14 17  1  0
 17 18  1  0
 18 19  1  0
 19 20  1  0
 20 21  1  0
 21 22  2  0
 21 23  1  0
 23 24  2  0
 24 25  1  0
 25 26  2  0
 26 27  1  0
 27 28  2  0
 20 29  1  0
 29 30  1  0
 13 31  2  0
  8  4  1  0
 31  9  1  0
 30 17  1  0
 28 23  1  0
  4 32  1  0
  5 33  1  0
  5 34  1  0
  6 35  1  0
  6 36  1  0
  7 37  1  0
  7 38  1  0
  8 39  1  0
  8 40  1  0
 10 41  1  0
 11 42  1  0
 12 43  1  0
 18 44  1  0
 18 45  1  0
 19 46  1  0
 19 47  1  0
 24 48  1  0
 25 49  1  0
 26 50  1  0
 27 51  1  0
 28 52  1  0
 29 53  1  0
 29 54  1  0
 30 55  1  0
 30 56  1  0
 31 57  1  0
M  CHG  1   3  -1
M  END
>  <UniqueID>  (5) 
5

>  <SMILES>  (5) 
O=C([N-]C1CCCC1)c1cccc(S(=O)(=O)N2CCN(C(=O)c3ccccc3)CC2)c1

>  <Energy>  (5) 
71.93511468383892

>  <Genealogy>  (5) 
O=C([N-]C1CCCC1)c1cccc(S(=O)(=O)N2CCN(C(=O)c3ccccc3)CC2)c1 (protonated)
O=C([N-]C1CCCC1)c1cccc(S(=O)(=O)N2CCN(C(=O)c3ccccc3)CC2)c1 (3D coordinates assigned)
O=C([N-]C1CCCC1)c1cccc(S(=O)(=O)N2CCN(C(=O)c3ccccc3)CC2)c1 (nonaromatic ring conformer: 71.93511468383892 kcal/mol)

>  <smiles>  (5) 
O=C(NC1CCCC1)c1cccc(S(=O)(=O)N2CCN(C(=O)c3ccccc3)CC2)c1

>  <score_type>  (5) 
oracle

>  <origin>  (5) 
adg

>  <m_score__min__energy>  (5) 
-11.710000000000001

>  <m_primary>  (5) 
energy

$$$$
5:0
     RDKit          3D

 58 61  0  0  0  0  0  0  0  0999 V2000
   57.8290   21.4620   43.3790 C   0  0  0  0  0  0  0  0  0  0  0  0
   57.2320   22.6520   44.0710 C   0  0  0  0  0  0  0  0  0  0  0  0
   55.8720   22.9590   43.9200 C   0  0  0  0  0  0  0  0  0  0  0  0
   55.3310   24.0900   44.5390 C   0  0  0  0  0  0  0  0  0  0  0  0
   56.1450   24.9330   45.3120 C   0  0  0  0  0  0  0  0  0  0  0  0
   55.5670   26.1380   46.0000 C   0  0  0  0  0  0  0  0  0  0  0  0
   56.3730   27.3070   45.6770 N   0  0  0  0  0  0  0  0  0  0  0  0
   57.6530   27.5600   46.2660 C   0  0  0  0  0  0  0  0  0  0  0  0
   57.9300   27.1010   47.4070 O   0  0  0  0  0  0  0  0  0  0  0  0
   58.6780   28.3780   45.5350 C   0  0  0  0  0  0  0  0  0  0  0  0
   58.0450   29.3500   44.6240 N   0  0  0  0  0  0  0  0  0  0  0  0
   57.4170   28.8810   43.4120 C   0  0  0  0  0  0  0  0  0  0  0  0
   57.5770   27.6950   43.0160 O   0  0  0  0  0  0  0  0  0  0  0  0
   56.5120   29.7970   42.6460 C   0  0  0  0  0  0  0  0  0  0  0  0
   56.9580   31.1470   42.7380 O   0  0  0  0  0  0  0  0  0  0  0  0
   57.5910   31.6560   43.8770 C   0  0  0  0  0  0  0  0  0  0  0  0
   57.7200   33.0390   44.0240 C   0  0  0  0  0  0  0  0  0  0  0  0
   58.3700   33.5710   45.1380 C   0  0  0  0  0  0  0  0  0  0  0  0
   58.8990   32.7200   46.1150 C   0  0  0  0  0  0  0  0  0  0  0  0
   59.7760   33.4070   47.4800 S   0  0  0  0  0  0  0  0  0  0  0  0
   59.9200   34.8880   47.2650 O   0  0  0  0  0  0  0  0  0  0  0  0
   59.0140   33.1760   48.7560 O   0  0  0  0  0  0  0  0  0  0  0  0
   61.3530   32.6650   47.5910 N   0  0  0  0  0  0  0  0  0  0  0  0
   61.7580   32.4770   49.0090 C   0  0  0  0  0  0  0  0  0  0  0  0
   62.7770   33.5210   49.4850 C   0  0  0  0  0  0  0  0  0  0  0  0
   64.0500   33.4860   48.6240 C   0  0  0  0  0  0  0  0  0  0  0  0
   63.7670   33.1020   47.1600 C   0  0  0  0  0  0  0  0  0  0  0  0
   62.3210   33.4260   46.7690 C   0  0  0  0  0  0  0  0  0  0  0  0
   58.7760   31.3310   45.9690 C   0  0  0  0  0  0  0  0  0  0  0  0
   58.1200   30.7810   44.8480 C   0  0  0  0  0  0  0  0  0  0  0  0
   57.5090   24.6330   45.4510 C   0  0  0  0  0  0  0  0  0  0  0  0
   58.0510   23.5040   44.8300 C   0  0  0  0  0  0  0  0  0  0  0  0
   58.1894   20.7437   44.1301 H   0  0  0  0  0  0  0  0  0  0  0  0
   57.0649   20.9822   42.7498 H   0  0  0  0  0  0  0  0  0  0  0  0
   58.6704   21.7877   42.7498 H   0  0  0  0  0  0  0  0  0  0  0  0
   55.2279   22.3070   43.3117 H   0  0  0  0  0  0  0  0  0  0  0  0
   54.2620   24.3204   44.4197 H   0  0  0  0  0  0  0  0  0  0  0  0
   54.5341   26.2972   45.6569 H   0  0  0  0  0  0  0  0  0  0  0  0
   55.5681   25.9779   47.0883 H   0  0  0  0  0  0  0  0  0  0  0  0
   59.2904   28.9224   46.2689 H   0  0  0  0  0  0  0  0  0  0  0  0
   59.2990   27.6967   44.9349 H   0  0  0  0  0  0  0  0  0  0  0  0
   56.5021   29.4923   41.5891 H   0  0  0  0  0  0  0  0  0  0  0  0
   55.5011   29.7311   43.0746 H   0  0  0  0  0  0  0  0  0  0  0  0
   57.3072   33.7118   43.2579 H   0  0  0  0  0  0  0  0  0  0  0  0
   58.4668   34.6611   45.2486 H   0  0  0  0  0  0  0  0  0  0  0  0
   60.8613   32.5484   49.6421 H   0  0  0  0  0  0  0  0  0  0  0  0
   62.2376   31.4901   49.0861 H   0  0  0  0  0  0  0  0  0  0  0  0
   62.3247   34.5214   49.4167 H   0  0  0  0  0  0  0  0  0  0  0  0
   63.0526   33.2909   50.5248 H   0  0  0  0  0  0  0  0  0  0  0  0
   64.5150   34.4827   48.6428 H   0  0  0  0  0  0  0  0  0  0  0  0
   64.7155   32.7185   49.0460 H   0  0  0  0  0  0  0  0  0  0  0  0
   64.4497   33.6623   46.5042 H   0  0  0  0  0  0  0  0  0  0  0  0
   63.9223   32.0187   47.0489 H   0  0  0  0  0  0  0  0  0  0  0  0
   62.1443   34.5021   46.9134 H   0  0  0  0  0  0  0  0  0  0  0  0
   62.1767   33.1432   45.7158 H   0  0  0  0  0  0  0  0  0  0  0  0
   59.1953   30.6636   46.7363 H   0  0  0  0  0  0  0  0  0  0  0  0
   58.1551   25.2899   46.0519 H   0  0  0  0  0  0  0  0  0  0  0  0
   59.1231   23.2820   44.9362 H   0  0  0  0  0  0  0  0  0  0  0  0
  1  2  1  0
  2  3  2  0
  3  4  1  0
  4  5  2  0
  5  6  1  0
  6  7  1  0
  7  8  1  0
  8  9  2  0
  8 10  1  0
 10 11  1  0
 11 12  1  0
 12 13  2  0
 12 14  1  0
 14 15  1  0
 15 16  1  0
 16 17  2  0
 17 18  1  0
 18 19  2  0
 19 20  1  0
 20 21  2  0
 20 22  2  0
 20 23  1  0
 23 24  1  0
 24 25  1  0
 25 26  1  0
 26 27  1  0
 27 28  1  0
 19 29  1  0
 29 30  2  0
  5 31  1  0
 31 32  2  0
 32  2  1  0
 30 11  1  0
 30 16  1  0
 28 23  1  0
  1 33  1  0
  1 34  1  0
  1 35  1  0
  3 36  1  0
  4 37  1  0
  6 38  1  0
  6 39  1  0
 10 40  1  0
 10 41  1  0
 14 42  1  0
 14 43  1  0
 17 44  1  0
 18 45  1  0
 24 46  1  0
 24 47  1  0
 25 48  1  0
 25 49  1  0
 26 50  1  0
 26 51  1  0
 27 52  1  0
 27 53  1  0
 28 54  1  0
 28 55  1  0
 29 56  1  0
 31 57  1  0
 32 58  1  0
M  CHG  1   7  -1
M  END
>  <UniqueID>  (6) 
6

>  <SMILES>  (6) 
Cc1ccc(C[N-]C(=O)CN2C(=O)COc3ccc(S(=O)(=O)N4CCCCC4)cc32)cc1

>  <Energy>  (6) 
63.12167003027371

>  <Genealogy>  (6) 
Cc1ccc(C[N-]C(=O)CN2C(=O)COc3ccc(S(=O)(=O)N4CCCCC4)cc32)cc1 (protonated)
Cc1ccc(C[N-]C(=O)CN2C(=O)COc3ccc(S(=O)(=O)N4CCCCC4)cc32)cc1 (3D coordinates assigned)
Cc1ccc(C[N-]C(=O)CN2C(=O)COc3ccc(S(=O)(=O)N4CCCCC4)cc32)cc1 (nonaromatic ring conformer: 63.12167003027371 kcal/mol)

>  <smiles>  (6) 
Cc1ccc(CNC(=O)CN2C(=O)COc3ccc(S(=O)(=O)N4CCCCC4)cc32)cc1

>  <score_type>  (6) 
oracle

>  <origin>  (6) 
adg

>  <m_score__min__energy>  (6) 
-11.57

>  <m_primary>  (6) 
energy

$$$$
6:0
     RDKit          3D

 40 42  0  0  0  0  0  0  0  0999 V2000
   56.0917   30.4826   42.4350 H   0  0  0  0  0  0  0  0  0  0  0  0
   56.7040   30.5410   43.3470 C   0  0  0  0  0  0  0  0  0  0  0  0
   56.3430   29.6460   44.4640 C   0  0  0  0  0  0  0  0  0  0  0  0
   55.1530   29.6440   44.8750 O   0  0  0  0  0  0  0  0  0  0  0  0
   57.3440   28.8680   45.1320 N   0  0  0  0  0  0  0  0  0  0  0  0
   58.5660   29.3600   45.6920 C   0  0  0  0  0  0  0  0  0  0  0  0
   59.7930   29.3420   45.0640 C   0  0  0  0  0  0  0  0  0  0  0  0
   59.9858   28.9768   44.0444 H   0  0  0  0  0  0  0  0  0  0  0  0
   60.7180   29.8460   45.9060 N   0  0  0  0  0  0  0  0  0  0  0  0
   60.1040   30.1640   47.0370 N   0  0  0  0  0  0  0  0  0  0  0  0
   60.7740   30.7700   48.1820 C   0  0  0  0  0  0  0  0  0  0  0  0
   61.8579   30.6009   48.1006 H   0  0  0  0  0  0  0  0  0  0  0  0
   60.3919   30.3121   49.1063 H   0  0  0  0  0  0  0  0  0  0  0  0
   60.5030   32.2470   48.2170 C   0  0  0  0  0  0  0  0  0  0  0  0
   59.5010   32.9120   48.8990 C   0  0  0  0  0  0  0  0  0  0  0  0
   58.4550   32.3010   49.7730 C   0  0  0  0  0  0  0  0  0  0  0  0
   58.7222   32.4571   50.8286 H   0  0  0  0  0  0  0  0  0  0  0  0
   57.4833   32.7735   49.5670 H   0  0  0  0  0  0  0  0  0  0  0  0
   58.3893   31.2225   49.5670 H   0  0  0  0  0  0  0  0  0  0  0  0
   59.6580   34.2410   48.7370 N   0  0  0  0  0  0  0  0  0  0  0  0
   60.7040   34.4130   47.9800 O   0  0  0  0  0  0  0  0  0  0  0  0
   61.2450   33.2630   47.6480 C   0  0  0  0  0  0  0  0  0  0  0  0
   62.4670   33.1220   46.8010 C   0  0  0  0  0  0  0  0  0  0  0  0
   63.3513   33.0200   47.4472 H   0  0  0  0  0  0  0  0  0  0  0  0
   62.3719   32.2289   46.1660 H   0  0  0  0  0  0  0  0  0  0  0  0
   62.5778   34.0133   46.1660 H   0  0  0  0  0  0  0  0  0  0  0  0
   58.7890   29.8820   46.9490 C   0  0  0  0  0  0  0  0  0  0  0  0
   58.0342   30.0389   47.7336 H   0  0  0  0  0  0  0  0  0  0  0  0
   57.7190   31.4210   43.3530 C   0  0  0  0  0  0  0  0  0  0  0  0
   58.4963   31.3004   42.5841 H   0  0  0  0  0  0  0  0  0  0  0  0
   57.8770   32.5380   44.3080 C   0  0  0  0  0  0  0  0  0  0  0  0
   57.1290   32.6020   45.4960 C   0  0  0  0  0  0  0  0  0  0  0  0
   56.3850   31.8228   45.7180 H   0  0  0  0  0  0  0  0  0  0  0  0
   57.3220   33.6240   46.3720 N   0  0  0  0  0  0  0  0  0  0  0  0
   58.2460   34.5960   46.1420 C   0  0  0  0  0  0  0  0  0  0  0  0
   58.3726   35.4154   46.8649 H   0  0  0  0  0  0  0  0  0  0  0  0
   59.0330   34.5550   44.9910 C   0  0  0  0  0  0  0  0  0  0  0  0
   59.7867   35.3343   44.8051 H   0  0  0  0  0  0  0  0  0  0  0  0
   58.8540   33.5140   44.0770 C   0  0  0  0  0  0  0  0  0  0  0  0
   59.4812   33.4609   43.1749 H   0  0  0  0  0  0  0  0  0  0  0  0
  1  2  1  0
  2  3  1  0
  3  4  2  0
  3  5  1  0
  5  6  1  0
  6  7  1  0
  7  8  1  0
  7  9  2  0
  9 10  1  0
 10 11  1  0
 11 12  1  0
 11 13  1  0
 11 14  1  0
 14 15  1  0
 15 16  1  0
 16 17  1  0
 16 18  1  0
 16 19  1  0
 15 20  2  0
 20 21  1  0
 21 22  1  0
 22 23  1  0
 23 24  1  0
 23 25  1  0
 23 26  1  0
 10 27  1  0
 27 28  1  0
  2 29  2  0
 29 30  1  0
 29 31  1  0
 31 32  2  0
 32 33  1  0
 32 34  1  0
 34 35  2  0
 35 36  1  0
 35 37  1  0
 37 38  1  0
 37 39  2  0
 39 40  1  0
 27  6  2  0
 39 31  1  0
 22 14  2  0
M  CHG  1   5  -1
M  END
>  <UniqueID>  (7) 
7

>  <SMILES>  (7) 
Cc1noc(C)c1Cn1cc([N-]C(=O)/C=C\c2cccnc2)cn1

>  <Energy>  (7) 
108.43146461395469

>  <Genealogy>  (7) 
Cc1noc(C)c1Cn1cc([N-]C(=O)C=Cc2cccnc2)cn1 (protonated)
Cc1noc(C)c1Cn1cc([N-]C(=O)/C=C\c2cccnc2)cn1 (cis-trans isomerization)
Cc1noc(C)c1Cn1cc([N-]C(=O)/C=C\c2cccnc2)cn1 (3D coordinates assigned)
Cc1noc(C)c1Cn1cc([N-]C(=O)/C=C\c2cccnc2)cn1 (optimized conformer: 108.43146461395469 kcal/mol)

>  <smiles>  (7) 
Cc1noc(C)c1Cn1cc(NC(=O)C=Cc2cccnc2)cn1

>  <score_type>  (7) 
oracle

>  <origin>  (7) 
adg

>  <m_score__min__energy>  (7) 
-9.9399999999999995

>  <m_primary>  (7) 
energy

$$$$
7:0
     RDKit          3D

 46 48  0  0  1  0  0  0  0  0999 V2000
   60.0240   28.4370   49.8540 C   0  0  0  0  0  0  0  0  0  0  0  0
   58.3700   26.9370   45.5180 C   0  0  0  0  0  0  0  0  0  0  0  0
   57.3080   27.6660   45.1480 N   0  0  0  0  0  0  0  0  0  0  0  0
   57.2520   28.9290   45.5890 C   0  0  0  0  0  0  0  0  0  0  0  0
   56.2130   29.6220   45.2190 N   0  0  0  0  0  0  0  0  0  0  0  0
   62.6970   33.4190   48.1630 C   0  0  0  0  0  0  0  0  0  0  0  0
   62.0630   34.2410   48.8960 O   0  0  0  0  0  0  0  0  0  0  0  0
   63.1040   33.8910   46.8110 C   0  0  0  0  0  0  0  0  0  0  0  0
   64.1450   33.0430   46.3910 O   0  0  0  0  0  0  0  0  0  0  0  0
   61.2110   30.8910   46.9330 S   0  0  0  0  0  0  0  0  0  0  0  0
   60.1840   29.5100   47.5950 C   0  0  0  0  0  0  0  0  0  0  0  0
   59.2550   28.8340   46.7690 C   0  0  0  0  0  0  0  0  0  0  0  0
   59.3170   27.5370   46.3190 C   0  0  0  0  0  0  0  0  0  0  0  0
   60.6240   29.4630   48.9020 C   0  0  0  0  0  0  0  0  0  0  0  0
   61.5400   30.3000   49.2930 N   0  0  0  0  0  0  0  0  0  0  0  0
   62.0550   31.1980   48.4530 C   0  0  0  0  0  0  0  0  0  0  0  0
   62.9820   32.1230   48.6550 N   0  0  0  0  0  0  0  0  0  0  0  0
   56.2500   30.4060   44.0000 C   0  0  0  0  0  0  0  0  0  0  0  0
   57.0720   31.6140   44.2760 C   0  0  0  0  0  0  0  0  0  0  0  0
   57.4560   32.2660   43.2500 O   0  0  0  0  0  0  0  0  0  0  0  0
   57.4230   32.0340   45.5900 N   0  0  0  0  0  0  0  0  0  0  0  0
   58.2130   33.1940   45.8430 C   0  0  0  0  0  0  0  0  0  0  0  0
   58.4950   34.1180   44.8370 C   0  0  0  0  0  0  0  0  0  0  0  0
   59.2630   35.2250   45.1290 C   0  0  0  0  0  0  0  0  0  0  0  0
   59.7800   35.4810   46.3790 C   0  0  0  0  0  0  0  0  0  0  0  0
   59.5020   34.5680   47.3740 C   0  0  0  0  0  0  0  0  0  0  0  0
   58.7310   33.4420   47.1130 C   0  0  0  0  0  0  0  0  0  0  0  0
   58.4060   32.3160   48.4020 Cl  0  0  0  0  0  0  0  0  0  0  0  0
   58.1470   29.5280   46.3580 N   0  0  0  0  0  0  0  0  0  0  0  0
   60.2068   28.7496   50.8927 H   0  0  0  0  0  0  0  0  0  0  0  0
   58.9406   28.3635   49.6785 H   0  0  0  0  0  0  0  0  0  0  0  0
   60.4912   27.4567   49.6785 H   0  0  0  0  0  0  0  0  0  0  0  0
   56.5840   27.2280   44.5430 H   0  0  0  0  0  0  0  0  0  0  0  0
   62.2556   33.8259   46.1139 H   0  0  0  0  0  0  0  0  0  0  0  0
   63.4308   34.9410   46.8368 H   0  0  0  0  0  0  0  0  0  0  0  0
   64.5190   32.6140   47.2070 H   0  0  0  0  0  0  0  0  0  0  0  0
   60.1861   26.9338   46.6203 H   0  0  0  0  0  0  0  0  0  0  0  0
   58.4821   25.8923   45.1924 H   0  0  0  0  0  0  0  0  0  0  0  0
   61.9220   30.3050   50.3100 H   0  0  0  0  0  0  0  0  0  0  0  0
   56.7045   29.8188   43.1884 H   0  0  0  0  0  0  0  0  0  0  0  0
   55.2339   30.6893   43.6882 H   0  0  0  0  0  0  0  0  0  0  0  0
   57.0640   31.4390   46.3740 H   0  0  0  0  0  0  0  0  0  0  0  0
   58.1078   33.9647   43.8189 H   0  0  0  0  0  0  0  0  0  0  0  0
   59.4737   35.9411   44.3211 H   0  0  0  0  0  0  0  0  0  0  0  0
   60.3889   36.3758   46.5755 H   0  0  0  0  0  0  0  0  0  0  0  0
   59.8958   34.7332   48.3877 H   0  0  0  0  0  0  0  0  0  0  0  0
  1  2  1  0
  2  3  1  0
  3  4  1  0
  4  5  2  0
  5  6  1  0
  6  7  2  0
  6  8  1  0
  8  9  1  0
  4 10  1  0
 10 11  1  0
 11 12  1  0
 12 13  1  0
 13 14  2  0
 14 15  1  0
 15 16  1  0
 16 17  2  0
 17 18  1  0
 18 19  1  0
 19 20  2  0
 19 21  1  0
 21 22  1  0
 22 23  2  0
 23 24  1  0
 24 25  2  0
 25 26  1  0
 26 27  2  0
 27 28  1  0
 16 29  1  0
 11  2  2  0
 29 12  2  0
 27 22  1  0
  1 30  1  0
  1 31  1  0
  1 32  1  0
  3 33  1  0
  8 34  1  0
  8 35  1  0
  9 36  1  0
 13 37  1  0
 14 38  1  0
 15 39  1  0
 18 40  1  0
 18 41  1  0
 21 42  1  0
 23 43  1  0
 24 44  1  0
 25 45  1  0
 26 46  1  0
M  END
>  <smiles>  (8) 
Cc1[nH]c(=NC(=O)CO)sc1-c1cc[nH]c(=NCC(=O)Nc2ccccc2Cl)n1

>  <score_type>  (8) 
oracle

>  <origin>  (8) 
adg

>  <m_score__min__energy>  (8) 
-8.4600000000000009

>  <m_primary>  (8) 
energy

$$$$
8:0
     RDKit          3D

 46 50  0  0  0  0  0  0  0  0999 V2000
   62.6830   30.9820   46.8280 O   0  0  0  0  0  0  0  0  0  0  0  0
   61.6070   31.4870   47.2480 C   0  0  0  0  0  0  0  0  0  0  0  0
   60.3090   30.7930   47.0360 C   0  0  0  0  0  0  0  0  0  0  0  0
   60.1350   29.6870   46.2910 C   0  0  0  0  0  0  0  0  0  0  0  0
   58.9000   28.8870   46.2400 C   0  0  0  0  0  0  0  0  0  0  0  0
   58.8790   27.5780   46.7470 C   0  0  0  0  0  0  0  0  0  0  0  0
   57.7130   26.8100   46.6580 C   0  0  0  0  0  0  0  0  0  0  0  0
   56.5710   27.3360   46.0470 C   0  0  0  0  0  0  0  0  0  0  0  0
   55.4160   26.5670   45.9630 O   0  0  0  0  0  0  0  0  0  0  0  0
   56.5920   28.6330   45.5160 C   0  0  0  0  0  0  0  0  0  0  0  0
   55.4530   29.1480   44.9020 O   0  0  0  0  0  0  0  0  0  0  0  0
   57.7620   29.4030   45.6070 C   0  0  0  0  0  0  0  0  0  0  0  0
   58.8870   31.4320   47.9120 S   0  0  0  0  0  0  0  0  0  0  0  0
   58.7790   32.7890   46.7540 C   0  0  0  0  0  0  0  0  0  0  0  0
   57.7020   32.8510   45.8620 C   0  0  0  0  0  0  0  0  0  0  0  0
   57.6340   33.8760   44.9140 C   0  0  0  0  0  0  0  0  0  0  0  0
   58.6440   34.8390   44.8550 C   0  0  0  0  0  0  0  0  0  0  0  0
   59.7120   34.7920   45.7540 C   0  0  0  0  0  0  0  0  0  0  0  0
   59.7730   33.7890   46.7310 C   0  0  0  0  0  0  0  0  0  0  0  0
   60.8760   33.7900   47.6530 N   0  0  0  0  0  0  0  0  0  0  0  0
   61.6810   32.8000   47.9440 C   0  0  0  0  0  0  0  0  0  0  0  0
   62.5840   32.9510   49.1160 C   0  0  0  0  0  0  0  0  0  0  0  0
   63.9660   32.7360   48.9650 C   0  0  0  0  0  0  0  0  0  0  0  0
   64.8280   32.8810   50.0580 C   0  0  0  0  0  0  0  0  0  0  0  0
   66.2110   32.6820   49.9260 C   0  0  0  0  0  0  0  0  0  0  0  0
   67.0480   32.8380   51.0360 C   0  0  0  0  0  0  0  0  0  0  0  0
   66.5100   33.1910   52.2790 C   0  0  0  0  0  0  0  0  0  0  0  0
   65.1330   33.3910   52.4170 C   0  0  0  0  0  0  0  0  0  0  0  0
   64.2890   33.2380   51.3110 C   0  0  0  0  0  0  0  0  0  0  0  0
   62.9510   33.4270   51.4440 N   0  0  0  0  0  0  0  0  0  0  0  0
   62.0930   33.2910   50.3970 C   0  0  0  0  0  0  0  0  0  0  0  0
   60.8600   33.4540   50.5940 O   0  0  0  0  0  0  0  0  0  0  0  0
   60.9810   29.3542   45.6717 H   0  0  0  0  0  0  0  0  0  0  0  0
   59.7805   27.1556   47.2148 H   0  0  0  0  0  0  0  0  0  0  0  0
   57.6948   25.7901   47.0697 H   0  0  0  0  0  0  0  0  0  0  0  0
   54.7470   28.5400   44.5000 H   0  0  0  0  0  0  0  0  0  0  0  0
   57.7853   30.4162   45.1793 H   0  0  0  0  0  0  0  0  0  0  0  0
   56.9075   32.0915   45.9071 H   0  0  0  0  0  0  0  0  0  0  0  0
   56.7859   33.9242   44.2151 H   0  0  0  0  0  0  0  0  0  0  0  0
   58.5982   35.6364   44.0987 H   0  0  0  0  0  0  0  0  0  0  0  0
   60.5100   35.5468   45.6948 H   0  0  0  0  0  0  0  0  0  0  0  0
   64.3713   32.4524   47.9825 H   0  0  0  0  0  0  0  0  0  0  0  0
   66.6365   32.4036   48.9506 H   0  0  0  0  0  0  0  0  0  0  0  0
   68.1320   32.6828   50.9316 H   0  0  0  0  0  0  0  0  0  0  0  0
   67.1719   33.3114   53.1493 H   0  0  0  0  0  0  0  0  0  0  0  0
   64.7130   33.6686   53.3950 H   0  0  0  0  0  0  0  0  0  0  0  0
  1  2  2  0
  2  3  1  0
  3  4  2  3
  4  5  1  0
  5  6  2  0
  6  7  1  0
  7  8  2  0
  8  9  1  0
  8 10  1  0
 10 11  1  0
 10 12  2  0
  3 13  1  0
 13 14  1  0
 14 15  2  0
 15 16  1  0
 16 17  2  0
 17 18  1  0
 18 19  2  0
 19 20  1  0
 20 21  2  0
 21 22  1  0
 22 23  2  0
 23 24  1  0
 24 25  2  0
 25 26  1  0
 26 27  2  0
 27 28  1  0
 28 29  2  0
 29 30  1  0
 30 31  1  0
 31 32  2  0
 21  2  1  0
 31 22  1  0
 12  5  1  0
 19 14  1  0
 29 24  1  0
  4 33  1  0
  6 34  1  0
  7 35  1  0
 11 36  1  0
 12 37  1  0
 15 38  1  0
 16 39  1  0
 17 40  1  0
 18 41  1  0
 23 42  1  0
 25 43  1  0
 26 44  1  0
 27 45  1  0
 28 46  1  0
M  CHG  2   9  -1  30  -1
M  END
>  <UniqueID>  (9) 
8

>  <SMILES>  (9) 
O=C1C(=Cc2ccc([O-])c(O)c2)Sc2ccccc2N=C1c1cc2ccccc2[n-]c1=O

>  <Energy>  (9) 
83.52717156296451

>  <Genealogy>  (9) 
O=C1C(=Cc2ccc([O-])c(O)c2)Sc2ccccc2N=C1c1cc2ccccc2[n-]c1=O (protonated)
O=C1C(=Cc2ccc([O-])c(O)c2)Sc2ccccc2N=C1c1cc2ccccc2[n-]c1=O (3D coordinates assigned)
O=C1C(=Cc2ccc([O-])c(O)c2)Sc2ccccc2N=C1c1cc2ccccc2[n-]c1=O (nonaromatic ring conformer: 83.52717156296451 kcal/mol)

>  <smiles>  (9) 
O=C1C(=Cc2ccc(O)c(O)c2)Sc2ccccc2N=C1c1cc2ccccc2[nH]c1=O

>  <score_type>  (9) 
oracle

>  <origin>  (9) 
adg

>  <m_score__min__energy>  (9) 
-12.880000000000001

>  <m_primary>  (9) 
energy

$$$$
9:0
     RDKit          3D

 33 35  0  0  0  0  0  0  0  0999 V2000
   57.0027   29.9634   55.1168 H   0  0  0  0  0  0  0  0  0  0  0  0
   55.9260   30.1790   55.1820 C   0  0  0  0  0  0  0  0  0  0  0  0
   55.4702   30.4144   56.1550 H   0  0  0  0  0  0  0  0  0  0  0  0
   55.1730   30.1550   54.0810 C   0  0  0  0  0  0  0  0  0  0  0  0
   55.6000   29.8700   52.7900 C   0  0  0  0  0  0  0  0  0  0  0  0
   56.9720   29.4540   52.3350 C   0  0  0  0  0  0  0  0  0  0  0  0
   57.5307   29.0485   53.1914 H   0  0  0  0  0  0  0  0  0  0  0  0
   56.8720   28.6872   51.5527 H   0  0  0  0  0  0  0  0  0  0  0  0
   57.7160   30.6340   51.7710 C   0  0  0  0  0  0  0  0  0  0  0  0
   58.4190   30.5250   50.5590 C   0  0  0  0  0  0  0  0  0  0  0  0
   58.4468   29.5628   50.0267 H   0  0  0  0  0  0  0  0  0  0  0  0
   59.0830   31.6340   50.0270 C   0  0  0  0  0  0  0  0  0  0  0  0
   59.6356   31.5411   49.0804 H   0  0  0  0  0  0  0  0  0  0  0  0
   59.0460   32.8610   50.6960 C   0  0  0  0  0  0  0  0  0  0  0  0
   59.5695   33.7324   50.2756 H   0  0  0  0  0  0  0  0  0  0  0  0
   58.3440   32.9810   51.8990 C   0  0  0  0  0  0  0  0  0  0  0  0
   58.3040   34.2010   52.5610 O   0  0  0  0  0  0  0  0  0  0  0  0
   57.6780   31.8730   52.4350 C   0  0  0  0  0  0  0  0  0  0  0  0
   57.1226   31.9717   53.3794 H   0  0  0  0  0  0  0  0  0  0  0  0
   54.4790   29.9380   51.9810 C   0  0  0  0  0  0  0  0  0  0  0  0
   54.4374   29.7585   50.8965 H   0  0  0  0  0  0  0  0  0  0  0  0
   53.4160   30.2780   52.8100 C   0  0  0  0  0  0  0  0  0  0  0  0
   52.1270   30.4540   52.4710 C   0  0  0  0  0  0  0  0  0  0  0  0
   51.3780   30.3038   53.2625 H   0  0  0  0  0  0  0  0  0  0  0  0
   51.6220   30.8310   51.1320 C   0  0  0  0  0  0  0  0  0  0  0  0
   51.5700   30.0330   50.0510 N   0  0  0  0  0  0  0  0  0  0  0  0
   51.0470   30.8300   49.0940 C   0  0  0  0  0  0  0  0  0  0  0  0
   50.8410   30.4320   47.9180 O   0  0  0  0  0  0  0  0  0  0  0  0
   50.7620   32.0860   49.4970 N   0  0  0  0  0  0  0  0  0  0  0  0
   51.1320   32.0700   50.7870 C   0  0  0  0  0  0  0  0  0  0  0  0
   51.0240   33.1670   51.6340 O   0  0  0  0  0  0  0  0  0  0  0  0
   53.8500   30.4080   54.0830 N   0  0  0  0  0  0  0  0  0  0  0  0
   53.2680   30.6500   54.9180 H   0  0  0  0  0  0  0  0  0  0  0  0
  1  2  1  0
  2  3  1  0
  2  4  2  0
  4  5  1  0
  5  6  1  0
  6  7  1  0
  6  8  1  0
  6  9  1  0
  9 10  2  0
 10 11  1  0
 10 12  1  0
 12 13  1  0
 12 14  2  0
 14 15  1  0
 14 16  1  0
 16 17  1  0
 16 18  2  0
 18 19  1  0
  5 20  2  0
 20 21  1  0
 20 22  1  0
 22 23  2  0
 23 24  1  0
 23 25  1  0
 25 26  1  0
 26 27  1  0
 27 28  2  0
 27 29  1  0
 29 30  1  0
 30 31  1  0
 22 32  1  0
 32 33  1  0
 32  4  1  0
 18  9  1  0
 30 25  2  0
M  CHG  4  17  -1  26  -1  29  -1  31  -1
M  END
>  <UniqueID>  (10) 
9

>  <SMILES>  (10) 
C=c1[nH]/c(=C/c2[n-]c(=O)[n-]c2[O-])cc1Cc1cccc([O-])c1

>  <Energy>  (10) 
92.33782482985384

>  <Genealogy>  (10) 
C=c1[nH]c(=Cc2[n-]c(=O)[n-]c2[O-])cc1Cc1cccc([O-])c1 (protonated)
C=c1[nH]/c(=C/c2[n-]c(=O)[n-]c2[O-])cc1Cc1cccc([O-])c1 (cis-trans isomerization)
C=c1[nH]/c(=C/c2[n-]c(=O)[n-]c2[O-])cc1Cc1cccc([O-])c1 (3D coordinates assigned)
C=c1[nH]/c(=C/c2[n-]c(=O)[n-]c2[O-])cc1Cc1cccc([O-])c1 (optimized conformer: 92.33782482985384 kcal/mol)

>  <smiles>  (10) 
C=c1[nH]c(=Cc2[nH]c(=O)[nH]c2O)cc1Cc1cccc(O)c1

>  <score_type>  (10) 
oracle

>  <origin>  (10) 
adg

>  <m_score__min__energy>  (10) 
-16.530000000000001

>  <m_primary>  (10) 
energy

$$$$
10:0
     RDKit          3D

 65 67  0  0  0  0  0  0  0  0999 V2000
   62.1640   33.8520   48.9510 C   0  0  0  0  0  0  0  0  0  0  0  0
   61.0270   33.0070   49.3300 N   0  0  0  0  0  0  0  0  0  0  0  0
   59.6550   33.5320   49.2440 C   0  0  0  0  0  0  0  0  0  0  0  0
   59.3080   33.8610   47.8150 C   0  0  0  0  0  0  0  0  0  0  0  0
   60.1210   34.7230   47.0600 C   0  0  0  0  0  0  0  0  0  0  0  0
   59.7650   35.0600   45.7520 C   0  0  0  0  0  0  0  0  0  0  0  0
   58.5970   34.5390   45.1880 C   0  0  0  0  0  0  0  0  0  0  0  0
   57.7800   33.6830   45.9330 C   0  0  0  0  0  0  0  0  0  0  0  0
   56.6160   33.1710   45.3750 O   0  0  0  0  0  0  0  0  0  0  0  0
   58.1340   33.3440   47.2440 C   0  0  0  0  0  0  0  0  0  0  0  0
   61.2720   31.6200   49.6470 C   0  0  0  0  0  0  0  0  0  0  0  0
   62.1160   31.3240   50.5360 O   0  0  0  0  0  0  0  0  0  0  0  0
   60.5710   30.5290   48.9410 C   0  0  0  0  0  0  0  0  0  0  0  0
   61.1490   29.9390   47.8090 C   0  0  0  0  0  0  0  0  0  0  0  0
   60.4880   28.9110   47.1300 C   0  0  0  0  0  0  0  0  0  0  0  0
   59.2440   28.4390   47.5870 C   0  0  0  0  0  0  0  0  0  0  0  0
   58.5530   27.3670   46.9070 N   0  0  0  0  0  0  0  0  0  0  0  0
   58.7910   25.9630   47.2760 C   0  0  0  0  0  0  0  0  0  0  0  0
   59.8210   25.3470   46.3810 C   0  0  0  0  0  0  0  0  0  0  0  0
   60.8540   25.9990   46.0740 O   0  0  0  0  0  0  0  0  0  0  0  0
   59.6280   24.0080   45.9050 N   0  0  0  0  0  0  0  0  0  0  0  0
   58.3980   23.4410   45.3500 C   0  0  0  0  0  0  0  0  0  0  0  0
   58.7170   22.1750   44.5320 C   0  0  0  0  0  0  0  0  0  0  0  0
   57.4010   23.1190   46.4770 C   0  0  0  0  0  0  0  0  0  0  0  0
   57.7790   24.4960   44.4210 C   0  0  0  0  0  0  0  0  0  0  0  0
   57.5160   27.6880   45.9580 C   0  0  0  0  0  0  0  0  0  0  0  0
   56.5270   26.9140   45.8440 O   0  0  0  0  0  0  0  0  0  0  0  0
   57.5760   28.9220   45.1400 C   0  0  0  0  0  0  0  0  0  0  0  0
   58.8180   29.5300   44.8820 C   0  0  0  0  0  0  0  0  0  0  0  0
   58.8910   30.7050   44.1290 C   0  0  0  0  0  0  0  0  0  0  0  0
   57.7250   31.2950   43.6290 C   0  0  0  0  0  0  0  0  0  0  0  0
   57.7860   32.4700   42.8830 O   0  0  0  0  0  0  0  0  0  0  0  0
   56.4850   30.7030   43.8840 C   0  0  0  0  0  0  0  0  0  0  0  0
   56.4030   29.5260   44.6370 C   0  0  0  0  0  0  0  0  0  0  0  0
   55.1530   28.9590   44.8680 O   0  0  0  0  0  0  0  0  0  0  0  0
   58.6760   29.0240   48.7330 C   0  0  0  0  0  0  0  0  0  0  0  0
   59.3350   30.0560   49.4060 C   0  0  0  0  0  0  0  0  0  0  0  0
   62.6634   34.2232   49.8581 H   0  0  0  0  0  0  0  0  0  0  0  0
   62.8765   33.2625   48.3553 H   0  0  0  0  0  0  0  0  0  0  0  0
   61.8050   34.7042   48.3553 H   0  0  0  0  0  0  0  0  0  0  0  0
   58.9526   32.7748   49.6226 H   0  0  0  0  0  0  0  0  0  0  0  0
   59.5846   34.4482   49.8487 H   0  0  0  0  0  0  0  0  0  0  0  0
   61.0413   35.1340   47.5006 H   0  0  0  0  0  0  0  0  0  0  0  0
   60.4044   35.7360   45.1653 H   0  0  0  0  0  0  0  0  0  0  0  0
   58.3201   34.8028   44.1566 H   0  0  0  0  0  0  0  0  0  0  0  0
   57.4904   32.6704   47.8289 H   0  0  0  0  0  0  0  0  0  0  0  0
   62.1296   30.2871   47.4521 H   0  0  0  0  0  0  0  0  0  0  0  0
   60.9438   28.4682   46.2322 H   0  0  0  0  0  0  0  0  0  0  0  0
   59.1440   25.9182   48.3168 H   0  0  0  0  0  0  0  0  0  0  0  0
   57.8494   25.4047   47.1676 H   0  0  0  0  0  0  0  0  0  0  0  0
   58.9275   21.3398   45.2162 H   0  0  0  0  0  0  0  0  0  0  0  0
   57.8547   21.9212   43.8979 H   0  0  0  0  0  0  0  0  0  0  0  0
   59.5966   22.3601   43.8979 H   0  0  0  0  0  0  0  0  0  0  0  0
   57.8862   23.2757   47.4517 H   0  0  0  0  0  0  0  0  0  0  0  0
   56.5260   23.7802   46.3925 H   0  0  0  0  0  0  0  0  0  0  0  0
   57.0781   22.0709   46.3925 H   0  0  0  0  0  0  0  0  0  0  0  0
   57.3138   25.2889   45.0251 H   0  0  0  0  0  0  0  0  0  0  0  0
   58.5646   24.9319   43.7863 H   0  0  0  0  0  0  0  0  0  0  0  0
   57.0153   24.0228   43.7863 H   0  0  0  0  0  0  0  0  0  0  0  0
   59.7395   29.0768   45.2763 H   0  0  0  0  0  0  0  0  0  0  0  0
   59.8686   31.1677   43.9287 H   0  0  0  0  0  0  0  0  0  0  0  0
   57.4310   33.3470   43.2470 H   0  0  0  0  0  0  0  0  0  0  0  0
   55.5676   31.1650   43.4904 H   0  0  0  0  0  0  0  0  0  0  0  0
   57.7040   28.6657   49.1029 H   0  0  0  0  0  0  0  0  0  0  0  0
   58.8823   30.4998   50.3050 H   0  0  0  0  0  0  0  0  0  0  0  0
  1  2  1  0
  2  3  1  0
  3  4  1  0
  4  5  2  0
  5  6  1  0
  6  7  2  0
  7  8  1  0
  8  9  1  0
  8 10  2  0
  2 11  1  0
 11 12  2  0
 11 13  1  0
 13 14  2  0
 14 15  1  0
 15 16  2  0
 16 17  1  0
 17 18  1  0
 18 19  1  0
 19 20  2  0
 19 21  1  0
 21 22  1  0
 22 23  1  0
 22 24  1  0
 22 25  1  0
 17 26  1  0
 26 27  2  0
 26 28  1  0
 28 29  2  0
 29 30  1  0
 30 31  2  0
 31 32  1  0
 31 33  1  0
 33 34  2  0
 34 35  1  0
 16 36  1  0
 36 37  2  0
 10  4  1  0
 37 13  1  0
 34 28  1  0
  1 38  1  0
  1 39  1  0
  1 40  1  0
  3 41  1  0
  3 42  1  0
  5 43  1  0
  6 44  1  0
  7 45  1  0
 10 46  1  0
 14 47  1  0
 15 48  1  0
 18 49  1  0
 18 50  1  0
 23 51  1  0
 23 52  1  0
 23 53  1  0
 24 54  1  0
 24 55  1  0
 24 56  1  0
 25 57  1  0
 25 58  1  0
 25 59  1  0
 29 60  1  0
 30 61  1  0
 32 62  1  0
 33 63  1  0
 36 64  1  0
 37 65  1  0
M  CHG  3   9  -1  21  -1  35  -1
M  END
>  <UniqueID>  (11) 
10

>  <SMILES>  (11) 
CN(Cc1cccc([O-])c1)C(=O)c1ccc(N(CC(=O)[N-]C(C)(C)C)C(=O)c2ccc(O)cc2[O-])cc1

>  <Energy>  (11) 
72.46234631229339

>  <Genealogy>  (11) 
CN(Cc1cccc([O-])c1)C(=O)c1ccc(N(CC(=O)[N-]C(C)(C)C)C(=O)c2ccc(O)cc2[O-])cc1 (protonated)
CN(Cc1cccc([O-])c1)C(=O)c1ccc(N(CC(=O)[N-]C(C)(C)C)C(=O)c2ccc(O)cc2[O-])cc1 (3D coordinates assigned)
CN(Cc1cccc([O-])c1)C(=O)c1ccc(N(CC(=O)[N-]C(C)(C)C)C(=O)c2ccc(O)cc2[O-])cc1 (optimized conformer: 72.46234631229339 kcal/mol)

>  <smiles>  (11) 
CN(Cc1cccc(O)c1)C(=O)c1ccc(N(CC(=O)NC(C)(C)C)C(=O)c2ccc(O)cc2O)cc1

>  <score_type>  (11) 
oracle

>  <origin>  (11) 
adg

>  <m_score__min__energy>  (11) 
-15.34

>  <m_primary>  (11) 
energy

$$$$
11:0
     RDKit          3D

 50 53  0  0  0  0  0  0  0  0999 V2000
   57.1055   34.8666   45.9467 H   0  0  0  0  0  0  0  0  0  0  0  0
   57.9080   34.1600   46.2050 C   0  0  0  0  0  0  0  0  0  0  0  0
   57.6660   32.7840   46.1660 C   0  0  0  0  0  0  0  0  0  0  0  0
   56.6739   32.4090   45.8742 H   0  0  0  0  0  0  0  0  0  0  0  0
   58.6820   31.8840   46.4970 C   0  0  0  0  0  0  0  0  0  0  0  0
   58.4875   30.8017   46.4698 H   0  0  0  0  0  0  0  0  0  0  0  0
   59.9500   32.3590   46.8640 C   0  0  0  0  0  0  0  0  0  0  0  0
   61.2470   31.2370   47.2680 S   0  0  0  0  0  0  0  0  0  0  0  0
   62.5900   31.9000   47.1380 O   0  0  0  0  0  0  0  0  0  0  0  0
   61.1880   30.0710   46.3240 O   0  0  0  0  0  0  0  0  0  0  0  0
   61.0480   30.6690   48.8960 N   0  0  0  0  0  0  0  0  0  0  0  0
   61.7390   29.9640   49.2380 H   0  0  0  0  0  0  0  0  0  0  0  0
   59.9330   31.0180   49.7360 C   0  0  0  0  0  0  0  0  0  0  0  0
   59.5540   32.3730   49.9550 C   0  0  0  0  0  0  0  0  0  0  0  0
   60.1227   33.1816   49.4725 H   0  0  0  0  0  0  0  0  0  0  0  0
   58.4610   32.6890   50.7810 C   0  0  0  0  0  0  0  0  0  0  0  0
   58.1615   33.7336   50.9518 H   0  0  0  0  0  0  0  0  0  0  0  0
   57.7710   31.6380   51.3750 C   0  0  0  0  0  0  0  0  0  0  0  0
   56.7090   31.7110   52.1900 N   0  0  0  0  0  0  0  0  0  0  0  0
   56.4600   30.4020   52.4560 C   0  0  0  0  0  0  0  0  0  0  0  0
   55.4730   30.0400   53.2210 N   0  0  0  0  0  0  0  0  0  0  0  0
   55.1500   28.6950   53.6150 C   0  0  0  0  0  0  0  0  0  0  0  0
   55.9520   28.0110   54.3080 O   0  0  0  0  0  0  0  0  0  0  0  0
   53.8630   28.0700   53.1470 C   0  0  1  0  0  0  0  0  0  0  0  0
   53.8603   28.0650   52.0470 H   0  0  0  0  0  0  0  0  0  0  0  0
   53.7690   26.6840   53.6150 N   0  0  0  0  0  0  0  0  0  0  0  0
   53.6100   26.0680   52.7840 H   0  0  0  0  0  0  0  0  0  0  0  0
   54.6970   26.4050   54.0080 H   0  0  0  0  0  0  0  0  0  0  0  0
   52.6460   28.8950   53.6160 C   0  0  0  0  0  0  0  0  0  0  0  0
   51.8152   28.2052   53.8258 H   0  0  0  0  0  0  0  0  0  0  0  0
   52.9537   29.4534   54.5124 H   0  0  0  0  0  0  0  0  0  0  0  0
   52.1850   29.9060   52.5910 C   0  0  0  0  0  0  0  0  0  0  0  0
   52.2210   29.5950   51.2210 C   0  0  0  0  0  0  0  0  0  0  0  0
   52.5567   28.5997   50.8942 H   0  0  0  0  0  0  0  0  0  0  0  0
   51.8320   30.5450   50.2710 C   0  0  0  0  0  0  0  0  0  0  0  0
   51.8643   30.2960   49.2000 H   0  0  0  0  0  0  0  0  0  0  0  0
   51.4020   31.8110   50.6810 C   0  0  0  0  0  0  0  0  0  0  0  0
   51.0210   32.7560   49.7370 O   0  0  0  0  0  0  0  0  0  0  0  0
   51.3550   32.1250   52.0420 C   0  0  0  0  0  0  0  0  0  0  0  0
   51.0070   33.1173   52.3648 H   0  0  0  0  0  0  0  0  0  0  0  0
   51.7500   31.1790   52.9950 C   0  0  0  0  0  0  0  0  0  0  0  0
   51.7196   31.4335   54.0647 H   0  0  0  0  0  0  0  0  0  0  0  0
   57.3050   29.5240   51.8510 N   0  0  0  0  0  0  0  0  0  0  0  0
   58.1260   30.3400   51.1730 C   0  0  0  0  0  0  0  0  0  0  0  0
   59.2010   29.9860   50.3650 C   0  0  0  0  0  0  0  0  0  0  0  0
   59.4743   28.9305   50.2194 H   0  0  0  0  0  0  0  0  0  0  0  0
   60.1890   33.7400   46.9020 C   0  0  0  0  0  0  0  0  0  0  0  0
   61.1807   34.1175   47.1919 H   0  0  0  0  0  0  0  0  0  0  0  0
   59.1690   34.6390   46.5720 C   0  0  0  0  0  0  0  0  0  0  0  0
   59.3592   35.7220   46.6013 H   0  0  0  0  0  0  0  0  0  0  0  0
  1  2  1  0
  2  3  2  0
  3  4  1  0
  3  5  1  0
  5  6  1  0
  5  7  2  0
  7  8  1  0
  8  9  2  0
  8 10  2  0
  8 11  1  0
 11 12  1  0
 11 13  1  0
 13 14  2  0
 14 15  1  0
 14 16  1  0
 16 17  1  0
 16 18  2  0
 18 19  1  0
 19 20  1  0
 20 21  2  0
 21 22  1  0
 22 23  2  0
 22 24  1  0
 24 25  1  6
 24 26  1  0
 26 27  1  0
 26 28  1  0
 24 29  1  0
 29 30  1  0
 29 31  1  0
 29 32  1  0
 32 33  2  0
 33 34  1  0
 33 35  1  0
 35 36  1  0
 35 37  2  0
 37 38  1  0
 37 39  1  0
 39 40  1  0
 39 41  2  0
 41 42  1  0
 20 43  1  0
 43 44  1  0
 44 45  2  0
 45 46  1  0
  7 47  1  0
 47 48  1  0
 47 49  2  0
 49 50  1  0
 49  2  1  0
 45 13  1  0
 44 18  1  0
 41 32  1  0
M  CHG  3  19  -1  38  -1  43  -1
M  END
>  <UniqueID>  (12) 
11

>  <SMILES>  (12) 
N[C@@H](Cc1ccc([O-])cc1)C(=O)/N=c1/[n-]c2ccc(NS(=O)(=O)c3ccccc3)cc2[n-]1

>  <Energy>  (12) 
90.49193092144804

>  <Genealogy>  (12) 
NC(Cc1ccc([O-])cc1)C(=O)N=c1[n-]c2ccc(NS(=O)(=O)c3ccccc3)cc2[n-]1 (protonated)
N[C@@H](Cc1ccc([O-])cc1)C(=O)N=c1[n-]c2ccc(NS(=O)(=O)c3ccccc3)cc2[n-]1 (chirality)
N[C@@H](Cc1ccc([O-])cc1)C(=O)/N=c1/[n-]c2ccc(NS(=O)(=O)c3ccccc3)cc2[n-]1 (cis-trans isomerization)
N[C@@H](Cc1ccc([O-])cc1)C(=O)/N=c1/[n-]c2ccc(NS(=O)(=O)c3ccccc3)cc2[n-]1 (3D coordinates assigned)
N[C@@H](Cc1ccc([O-])cc1)C(=O)/N=c1/[n-]c2ccc(NS(=O)(=O)c3ccccc3)cc2[n-]1 (optimized conformer: 90.49193092144804 kcal/mol)

>  <smiles>  (12) 
NC(Cc1ccc(O)cc1)C(=O)N=c1[nH]c2ccc(NS(=O)(=O)c3ccccc3)cc2[nH]1

>  <score_type>  (12) 
oracle

>  <origin>  (12) 
adg

>  <m_score__min__energy>  (12) 
-14.84

>  <m_primary>  (12) 
energy

$$$$
12:0
     RDKit          3D

 61 64  0  0  0  0  0  0  0  0999 V2000
   63.3685   31.2146   47.7317 H   0  0  0  0  0  0  0  0  0  0  0  0
   62.7300   31.6400   48.5200 C   0  0  0  0  0  0  0  0  0  0  0  0
   62.8750   31.1810   49.7690 C   0  0  0  0  0  0  0  0  0  0  0  0
   63.7559   31.4841   50.3539 H   0  0  0  0  0  0  0  0  0  0  0  0
   61.8630   30.2620   50.3900 C   0  0  0  0  0  0  0  0  0  0  0  0
   61.2986   30.8080   51.1602 H   0  0  0  0  0  0  0  0  0  0  0  0
   62.3825   29.4065   50.8463 H   0  0  0  0  0  0  0  0  0  0  0  0
   60.9310   29.7700   49.3570 N   0  0  0  0  0  0  0  0  0  0  0  0
   59.5530   30.2360   49.6320 C   0  0  0  0  0  0  0  0  0  0  0  0
   59.5323   31.3350   49.5896 H   0  0  0  0  0  0  0  0  0  0  0  0
   59.2600   29.8768   50.6296 H   0  0  0  0  0  0  0  0  0  0  0  0
   58.5490   29.6750   48.6010 C   0  0  0  0  0  0  0  0  0  0  0  0
   58.0144   30.5075   48.1202 H   0  0  0  0  0  0  0  0  0  0  0  0
   57.8278   29.0205   49.1123 H   0  0  0  0  0  0  0  0  0  0  0  0
   59.2690   28.9040   47.5820 N   0  0  0  0  0  0  0  0  0  0  0  0
   59.5660   29.4790   46.2900 C   0  0  0  0  0  0  0  0  0  0  0  0
   60.6290   29.1630   45.6890 O   0  0  0  0  0  0  0  0  0  0  0  0
   58.6830   30.4840   45.6670 C   0  0  0  0  0  0  0  0  0  0  0  0
   58.6220   31.7580   46.2530 C   0  0  0  0  0  0  0  0  0  0  0  0
   59.2408   31.9829   47.1342 H   0  0  0  0  0  0  0  0  0  0  0  0
   57.7840   32.7410   45.7280 C   0  0  0  0  0  0  0  0  0  0  0  0
   57.7419   33.7351   46.1969 H   0  0  0  0  0  0  0  0  0  0  0  0
   57.0000   32.4650   44.6100 C   0  0  0  0  0  0  0  0  0  0  0  0
   56.3303   33.2381   44.2053 H   0  0  0  0  0  0  0  0  0  0  0  0
   57.0620   31.2120   44.0030 C   0  0  0  0  0  0  0  0  0  0  0  0
   56.4382   31.0041   43.1212 H   0  0  0  0  0  0  0  0  0  0  0  0
   57.9140   30.2080   44.5050 C   0  0  0  0  0  0  0  0  0  0  0  0
   58.0040   28.9390   43.8080 N   0  0  0  0  0  0  0  0  0  0  0  0
   57.3180   28.9340   43.0190 H   0  0  0  0  0  0  0  0  0  0  0  0
   58.9480   28.8170   43.3730 H   0  0  0  0  0  0  0  0  0  0  0  0
   57.7800   27.8270   44.7060 C   0  0  0  0  0  0  0  0  0  0  0  0
   58.8050   26.8920   44.9410 C   0  0  0  0  0  0  0  0  0  0  0  0
   59.7815   27.0240   44.4522 H   0  0  0  0  0  0  0  0  0  0  0  0
   58.6000   25.7960   45.7880 C   0  0  0  0  0  0  0  0  0  0  0  0
   59.7010   24.7960   45.9930 C   0  0  0  0  0  0  0  0  0  0  0  0
   59.8651   24.6470   47.0704 H   0  0  0  0  0  0  0  0  0  0  0  0
   59.4184   23.8393   45.5294 H   0  0  0  0  0  0  0  0  0  0  0  0
   60.6262   25.1690   45.5294 H   0  0  0  0  0  0  0  0  0  0  0  0
   57.3580   25.6300   46.4140 C   0  0  0  0  0  0  0  0  0  0  0  0
   57.1814   24.7577   47.0605 H   0  0  0  0  0  0  0  0  0  0  0  0
   56.3430   26.5700   46.2190 C   0  0  0  0  0  0  0  0  0  0  0  0
   55.3769   26.4461   46.7302 H   0  0  0  0  0  0  0  0  0  0  0  0
   56.5490   27.6680   45.3770 C   0  0  0  0  0  0  0  0  0  0  0  0
   55.5310   28.6000   45.2250 O   0  0  0  0  0  0  0  0  0  0  0  0
   60.0750   27.7950   48.1060 C   0  0  0  0  0  0  0  0  0  0  0  0
   60.7043   27.3896   47.3000 H   0  0  0  0  0  0  0  0  0  0  0  0
   59.4047   27.0104   48.4869 H   0  0  0  0  0  0  0  0  0  0  0  0
   60.9750   28.2930   49.2550 C   0  0  0  0  0  0  0  0  0  0  0  0
   62.0109   27.9756   49.0649 H   0  0  0  0  0  0  0  0  0  0  0  0
   60.6096   27.8639   50.1996 H   0  0  0  0  0  0  0  0  0  0  0  0
   61.7550   32.6910   48.1420 C   0  0  0  0  0  0  0  0  0  0  0  0
   60.8000   33.2030   49.0460 C   0  0  0  0  0  0  0  0  0  0  0  0
   60.7692   32.8268   50.0792 H   0  0  0  0  0  0  0  0  0  0  0  0
   59.8920   34.1860   48.6370 C   0  0  0  0  0  0  0  0  0  0  0  0
   59.1550   34.5836   49.3502 H   0  0  0  0  0  0  0  0  0  0  0  0
   59.9200   34.6630   47.3250 C   0  0  0  0  0  0  0  0  0  0  0  0
   59.2116   35.4425   47.0078 H   0  0  0  0  0  0  0  0  0  0  0  0
   60.8480   34.1500   46.4150 C   0  0  0  0  0  0  0  0  0  0  0  0
   60.8648   34.5210   45.3796 H   0  0  0  0  0  0  0  0  0  0  0  0
   61.7560   33.1650   46.8190 C   0  0  0  0  0  0  0  0  0  0  0  0
   62.4769   32.7581   46.0947 H   0  0  0  0  0  0  0  0  0  0  0  0
  1  2  1  0
  2  3  2  0
  3  4  1  0
  3  5  1  0
  5  6  1  0
  5  7  1  0
  5  8  1  0
  8  9  1  0
  9 10  1  0
  9 11  1  0
  9 12  1  0
 12 13  1  0
 12 14  1  0
 12 15  1  0
 15 16  1  0
 16 17  2  0
 16 18  1  0
 18 19  2  0
 19 20  1  0
 19 21  1  0
 21 22  1  0
 21 23  2  0
 23 24  1  0
 23 25  1  0
 25 26  1  0
 25 27  2  0
 27 28  1  0
 28 29  1  0
 28 30  1  0
 28 31  1  0
 31 32  2  0
 32 33  1  0
 32 34  1  0
 34 35  1  0
 35 36  1  0
 35 37  1  0
 35 38  1  0
 34 39  2  0
 39 40  1  0
 39 41  1  0
 41 42  1  0
 41 43  2  0
 43 44  1  0
 15 45  1  0
 45 46  1  0
 45 47  1  0
 45 48  1  0
 48 49  1  0
 48 50  1  0
  2 51  1  0
 51 52  2  0
 52 53  1  0
 52 54  1  0
 54 55  1  0
 54 56  2  0
 56 57  1  0
 56 58  1  0
 58 59  1  0
 58 60  2  0
 60 61  1  0
 48  8  1  0
 60 51  1  0
 27 18  1  0
 43 31  1  0
M  CHG  2  28   1  44  -1
M  END
>  <UniqueID>  (13) 
12

>  <SMILES>  (13) 
Cc1ccc([O-])c([NH2+]c2ccccc2C(=O)N2CCN(C/C=C/c3ccccc3)CC2)c1

>  <Energy>  (13) 
84.73953157225085

>  <Genealogy>  (13) 
Cc1ccc([O-])c([NH2+]c2ccccc2C(=O)N2CCN(CC=Cc3ccccc3)CC2)c1 (protonated)
Cc1ccc([O-])c([NH2+]c2ccccc2C(=O)N2CCN(C/C=C/c3ccccc3)CC2)c1 (cis-trans isomerization)
Cc1ccc([O-])c([NH2+]c2ccccc2C(=O)N2CCN(C/C=C/c3ccccc3)CC2)c1 (3D coordinates assigned)
Cc1ccc([O-])c([NH2+]c2ccccc2C(=O)N2CCN(C/C=C/c3ccccc3)CC2)c1 (nonaromatic ring conformer: 84.73953157225085 kcal/mol)

>  <smiles>  (13) 
Cc1ccc(O)c(Nc2ccccc2C(=O)N2CCN(CC=Cc3ccccc3)CC2)c1

>  <score_type>  (13) 
oracle

>  <origin>  (13) 
adg

>  <m_score__min__energy>  (13) 
-12.960000000000001

>  <m_primary>  (13) 
energy

$$$$
13:0
     RDKit          3D

 55 57  0  0  0  0  0  0  0  0999 V2000
   55.1720   29.0680   44.8930 N   0  0  0  0  0  0  0  0  0  0  0  0
   56.4410   29.6640   44.6440 C   0  0  0  0  0  0  0  0  0  0  0  0
   57.2030   29.9190   45.6170 O   0  0  0  0  0  0  0  0  0  0  0  0
   56.8430   30.0940   43.2880 C   0  0  0  0  0  0  0  0  0  0  0  0
   57.1320   31.3500   42.9160 C   0  0  0  0  0  0  0  0  0  0  0  0
   57.9560   32.3020   43.6820 C   0  0  0  0  0  0  0  0  0  0  0  0
   58.6720   33.1260   43.0540 O   0  0  0  0  0  0  0  0  0  0  0  0
   57.8490   32.3800   45.1130 N   0  0  0  0  0  0  0  0  0  0  0  0
   58.7490   33.1350   45.9390 C   0  0  0  0  0  0  0  0  0  0  0  0
   58.3740   34.4150   46.3780 C   0  0  0  0  0  0  0  0  0  0  0  0
   59.2480   35.1790   47.1580 C   0  0  0  0  0  0  0  0  0  0  0  0
   60.4910   34.6610   47.5280 C   0  0  0  0  0  0  0  0  0  0  0  0
   60.8640   33.3670   47.1320 C   0  0  0  0  0  0  0  0  0  0  0  0
   62.4290   32.7070   47.6130 S   0  0  0  0  0  0  0  0  0  0  0  0
   63.5200   33.6180   47.1220 O   0  0  0  0  0  0  0  0  0  0  0  0
   62.6110   31.3650   46.9590 O   0  0  0  0  0  0  0  0  0  0  0  0
   62.4910   32.5450   49.3600 N   0  0  0  0  0  0  0  0  0  0  0  0
   61.2530   33.0300   49.9990 C   0  0  0  0  0  0  0  0  0  0  0  0
   60.0640   32.0990   49.7100 C   0  0  0  0  0  0  0  0  0  0  0  0
   60.4570   30.6880   49.8170 N   0  0  0  0  0  0  0  0  0  0  0  0
   59.5060   29.6690   49.4420 C   0  0  0  0  0  0  0  0  0  0  0  0
   58.2740   29.9430   49.4370 O   0  0  0  0  0  0  0  0  0  0  0  0
   59.9330   28.3010   48.9720 C   0  0  0  0  0  0  0  0  0  0  0  0
   59.7960   28.1770   47.4750 C   0  0  0  0  0  0  0  0  0  0  0  0
   60.3780   29.1550   46.6440 C   0  0  0  0  0  0  0  0  0  0  0  0
   60.2580   29.0670   45.2530 C   0  0  0  0  0  0  0  0  0  0  0  0
   59.5580   28.0050   44.6770 C   0  0  0  0  0  0  0  0  0  0  0  0
   58.9740   27.0290   45.4910 C   0  0  0  0  0  0  0  0  0  0  0  0
   59.0850   27.1120   46.8850 C   0  0  0  0  0  0  0  0  0  0  0  0
   58.4870   26.1620   47.6510 F   0  0  0  0  0  0  0  0  0  0  0  0
   61.7430   30.3740   50.4510 C   0  0  0  0  0  0  0  0  0  0  0  0
   62.8810   31.1740   49.7850 C   0  0  0  0  0  0  0  0  0  0  0  0
   59.9880   32.6050   46.3410 C   0  0  0  0  0  0  0  0  0  0  0  0
   54.3260   29.3520   44.3510 H   0  0  0  0  0  0  0  0  0  0  0  0
   56.9112   29.3144   42.5150 H   0  0  0  0  0  0  0  0  0  0  0  0
   56.7190   31.6990   41.9581 H   0  0  0  0  0  0  0  0  0  0  0  0
   56.9970   31.9680   45.5580 H   0  0  0  0  0  0  0  0  0  0  0  0
   57.3874   34.8190   46.1069 H   0  0  0  0  0  0  0  0  0  0  0  0
   58.9559   36.1893   47.4805 H   0  0  0  0  0  0  0  0  0  0  0  0
   61.1803   35.2693   48.1320 H   0  0  0  0  0  0  0  0  0  0  0  0
   61.4095   33.0819   51.0866 H   0  0  0  0  0  0  0  0  0  0  0  0
   61.0200   34.0231   49.5875 H   0  0  0  0  0  0  0  0  0  0  0  0
   59.2627   32.3044   50.4351 H   0  0  0  0  0  0  0  0  0  0  0  0
   59.7154   32.2870   48.6838 H   0  0  0  0  0  0  0  0  0  0  0  0
   60.9839   28.1362   49.2520 H   0  0  0  0  0  0  0  0  0  0  0  0
   59.2854   27.5492   49.4468 H   0  0  0  0  0  0  0  0  0  0  0  0
   60.9307   29.9937   47.0924 H   0  0  0  0  0  0  0  0  0  0  0  0
   60.7156   29.8352   44.6124 H   0  0  0  0  0  0  0  0  0  0  0  0
   59.4658   27.9359   43.5830 H   0  0  0  0  0  0  0  0  0  0  0  0
   58.4250   26.1923   45.0344 H   0  0  0  0  0  0  0  0  0  0  0  0
   61.6938   30.6343   51.5186 H   0  0  0  0  0  0  0  0  0  0  0  0
   61.9459   29.2994   50.3326 H   0  0  0  0  0  0  0  0  0  0  0  0
   63.7105   31.2576   50.5026 H   0  0  0  0  0  0  0  0  0  0  0  0
   63.1620   30.6269   48.8730 H   0  0  0  0  0  0  0  0  0  0  0  0
   60.2729   31.5878   46.0343 H   0  0  0  0  0  0  0  0  0  0  0  0
  1  2  1  0
  2  3  2  0
  2  4  1  0
  4  5  2  3
  5  6  1  0
  6  7  2  0
  6  8  1  0
  8  9  1  0
  9 10  2  0
 10 11  1  0
 11 12  2  0
 12 13  1  0
 13 14  1  0
 14 15  2  0
 14 16  2  0
 14 17  1  0
 17 18  1  0
 18 19  1  0
 19 20  1  0
 20 21  1  0
 21 22  2  0
 21 23  1  0
 23 24  1  0
 24 25  2  0
 25 26  1  0
 26 27  2  0
 27 28  1  0
 28 29  2  0
 29 30  1  0
 20 31  1  0
 31 32  1  0
 13 33  2  0
 33  9  1  0
 32 17  1  0
 29 24  1  0
  1 34  1  0
  4 35  1  0
  5 36  1  0
  8 37  1  0
 10 38  1  0
 11 39  1  0
 12 40  1  0
 18 41  1  0
 18 42  1  0
 19 43  1  0
 19 44  1  0
 23 45  1  0
 23 46  1  0
 25 47  1  0
 26 48  1  0
 27 49  1  0
 28 50  1  0
 31 51  1  0
 31 52  1  0
 32 53  1  0
 32 54  1  0
 33 55  1  0
M  CHG  1   1  -1
M  END
>  <UniqueID>  (14) 
13

>  <SMILES>  (14) 
[NH-]C(=O)C=CC(=O)Nc1cccc(S(=O)(=O)N2CCN(C(=O)Cc3ccccc3F)CC2)c1

>  <Energy>  (14) 
72.15614620100543

>  <Genealogy>  (14) 
[NH-]C(=O)C=CC(=O)Nc1cccc(S(=O)(=O)N2CCN(C(=O)Cc3ccccc3F)CC2)c1 (protonated)
[NH-]C(=O)C=CC(=O)Nc1cccc(S(=O)(=O)N2CCN(C(=O)Cc3ccccc3F)CC2)c1 (3D coordinates assigned)
[NH-]C(=O)C=CC(=O)Nc1cccc(S(=O)(=O)N2CCN(C(=O)Cc3ccccc3F)CC2)c1 (nonaromatic ring conformer: 72.15614620100543 kcal/mol)

>  <smiles>  (14) 
NC(=O)C=CC(=O)Nc1cccc(S(=O)(=O)N2CCN(C(=O)Cc3ccccc3F)CC2)c1

>  <score_type>  (14) 
oracle

>  <origin>  (14) 
adg

>  <m_score__min__energy>  (14) 
-12.68

>  <m_primary>  (14) 
energy

$$$$
14:0
     RDKit          3D

 52 55  0  0  1  0  0  0  0  0999 V2000
   59.1890   28.4760   44.8580 C   0  0  0  0  0  0  0  0  0  0  0  0
   60.3590   28.9370   45.2870 C   0  0  0  0  0  0  0  0  0  0  0  0
   60.4470   30.0070   46.3480 C   0  0  0  0  0  0  0  0  0  0  0  0
   59.1400   30.5970   46.4480 N   0  0  0  0  0  0  0  0  0  0  0  0
   59.0460   31.8830   46.5130 C   0  0  0  0  0  0  0  0  0  0  0  0
   59.6750   32.5930   47.4630 N   0  0  0  0  0  0  0  0  0  0  0  0
   59.5930   33.9380   47.5530 C   0  0  0  0  0  0  0  0  0  0  0  0
   60.2330   34.5230   48.5000 N   0  0  0  0  0  0  0  0  0  0  0  0
   60.4460   33.7990   49.7540 C   0  0  0  0  0  0  0  0  0  0  0  0
   61.8860   33.3520   49.8860 C   0  0  1  0  0  0  0  0  0  0  0  0
   62.0700   31.9220   49.4160 C   0  0  0  0  0  0  0  0  0  0  0  0
   63.3100   31.9940   48.5570 C   0  0  0  0  0  0  0  0  0  0  0  0
   63.9490   33.2490   48.8550 N   0  0  0  0  0  0  0  0  0  0  0  0
   64.8500   33.1410   49.9600 C   0  0  0  0  0  0  0  0  0  0  0  0
   66.2540   32.7080   49.7990 C   0  0  0  0  0  0  0  0  0  0  0  0
   65.2410   31.7930   50.5120 C   0  0  0  0  0  0  0  0  0  0  0  0
   62.8400   34.1310   49.0470 C   0  0  0  0  0  0  0  0  0  0  0  0
   58.8460   34.5650   46.6420 N   0  0  0  0  0  0  0  0  0  0  0  0
   58.1920   33.9070   45.6660 C   0  0  0  0  0  0  0  0  0  0  0  0
   58.2770   32.5390   45.5760 C   0  0  0  0  0  0  0  0  0  0  0  0
   57.6040   31.7480   44.5540 C   0  0  0  0  0  0  0  0  0  0  0  0
   57.7550   31.9640   43.2020 C   0  0  0  0  0  0  0  0  0  0  0  0
   57.1120   31.2080   42.2380 C   0  0  0  0  0  0  0  0  0  0  0  0
   56.2730   30.1790   42.6220 C   0  0  0  0  0  0  0  0  0  0  0  0
   56.1310   29.9760   43.9810 C   0  0  0  0  0  0  0  0  0  0  0  0
   56.7680   30.7260   44.8950 N   0  0  0  0  0  0  0  0  0  0  0  0
   59.1559   27.6956   44.0834 H   0  0  0  0  0  0  0  0  0  0  0  0
   58.2535   28.8747   45.2774 H   0  0  0  0  0  0  0  0  0  0  0  0
   61.2862   28.5289   44.8584 H   0  0  0  0  0  0  0  0  0  0  0  0
   60.7373   29.5627   47.3115 H   0  0  0  0  0  0  0  0  0  0  0  0
   61.2034   30.7619   46.0873 H   0  0  0  0  0  0  0  0  0  0  0  0
   60.2510   32.0800   48.1620 H   0  0  0  0  0  0  0  0  0  0  0  0
   60.1959   34.4595   50.5973 H   0  0  0  0  0  0  0  0  0  0  0  0
   59.8013   32.9077   49.7573 H   0  0  0  0  0  0  0  0  0  0  0  0
   62.0977   33.4913   50.9564 H   0  0  0  0  0  0  0  0  0  0  0  0
   62.2204   31.2435   50.2686 H   0  0  0  0  0  0  0  0  0  0  0  0
   61.1951   31.5310   48.8760 H   0  0  0  0  0  0  0  0  0  0  0  0
   63.9852   31.1590   48.7956 H   0  0  0  0  0  0  0  0  0  0  0  0
   63.0555   31.9240   47.4891 H   0  0  0  0  0  0  0  0  0  0  0  0
   64.3799   34.0431   50.3787 H   0  0  0  0  0  0  0  0  0  0  0  0
   66.6353   32.4363   48.8036 H   0  0  0  0  0  0  0  0  0  0  0  0
   67.2345   33.1342   50.0579 H   0  0  0  0  0  0  0  0  0  0  0  0
   64.8884   30.8707   50.0272 H   0  0  0  0  0  0  0  0  0  0  0  0
   65.1810   31.2928   51.4899 H   0  0  0  0  0  0  0  0  0  0  0  0
   63.1570   35.0470   49.5670 H   0  0  0  0  0  0  0  0  0  0  0  0
   62.3929   34.4548   48.0955 H   0  0  0  0  0  0  0  0  0  0  0  0
   58.7670   35.5940   46.6890 H   0  0  0  0  0  0  0  0  0  0  0  0
   57.5872   34.4673   44.9378 H   0  0  0  0  0  0  0  0  0  0  0  0
   58.4189   32.7769   42.8728 H   0  0  0  0  0  0  0  0  0  0  0  0
   57.2678   31.4249   41.1709 H   0  0  0  0  0  0  0  0  0  0  0  0
   55.7465   29.5550   41.8848 H   0  0  0  0  0  0  0  0  0  0  0  0
   55.4701   29.1682   44.3283 H   0  0  0  0  0  0  0  0  0  0  0  0
  1  2  2  0
  2  3  1  0
  3  4  1  0
  4  5  2  0
  5  6  1  0
  6  7  1  0
  7  8  2  0
  8  9  1  0
  9 10  1  0
 10 11  1  0
 11 12  1  0
 12 13  1  0
 13 14  1  0
 14 15  1  0
 15 16  1  0
 13 17  1  0
  7 18  1  0
 18 19  1  0
 19 20  2  0
 20 21  1  0
 21 22  2  0
 22 23  1  0
 23 24  2  0
 24 25  1  0
 25 26  2  0
 20  5  1  0
 26 21  1  0
 17 10  1  0
 16 14  1  0
  1 27  1  0
  1 28  1  0
  2 29  1  0
  3 30  1  0
  3 31  1  0
  6 32  1  0
  9 33  1  0
  9 34  1  0
 10 35  1  1
 11 36  1  0
 11 37  1  0
 12 38  1  0
 12 39  1  0
 14 40  1  0
 15 41  1  0
 15 42  1  0
 16 43  1  0
 16 44  1  0
 17 45  1  0
 17 46  1  0
 18 47  1  0
 19 48  1  0
 22 49  1  0
 23 50  1  0
 24 51  1  0
 25 52  1  0
M  END
>  <smiles>  (15) 
C=CCN=c1[nH]c(=NCC2CCN(C3CC3)C2)[nH]cc1-c1ccccn1

>  <score_type>  (15) 
oracle

>  <origin>  (15) 
adg

>  <m_score__min__energy>  (15) 
-8.1899999999999995

>  <m_primary>  (15) 
energy

$$$$
15:0
     RDKit          3D

 45 47  0  0  0  0  0  0  0  0999 V2000
   58.1140   31.0690   51.4770 C   0  0  0  0  0  0  0  0  0  0  0  0
   58.6410   31.5300   50.3480 C   0  0  0  0  0  0  0  0  0  0  0  0
   59.0520   32.8360   50.1440 O   0  0  0  0  0  0  0  0  0  0  0  0
   59.5600   32.9240   48.8450 C   0  0  0  0  0  0  0  0  0  0  0  0
   60.0670   34.1590   48.2940 N   0  0  0  0  0  0  0  0  0  0  0  0
   61.5310   34.1540   48.0730 C   0  0  0  0  0  0  0  0  0  0  0  0
   61.9040   33.8860   46.5960 C   0  0  0  0  0  0  0  0  0  0  0  0
   63.3960   33.5510   46.4840 C   0  0  0  0  0  0  0  0  0  0  0  0
   63.7640   32.3280   47.2270 N   0  0  0  0  0  0  0  0  0  0  0  0
   62.8500   31.9750   48.3320 C   0  0  0  0  0  0  0  0  0  0  0  0
   62.2930   33.2130   49.0480 C   0  0  0  0  0  0  0  0  0  0  0  0
   59.4890   31.7480   48.1910 C   0  0  0  0  0  0  0  0  0  0  0  0
   59.9030   31.5110   46.7560 C   0  0  0  0  0  0  0  0  0  0  0  0
   58.7580   31.0900   45.8580 C   0  0  0  0  0  0  0  0  0  0  0  0
   58.6560   29.7270   45.5210 C   0  0  0  0  0  0  0  0  0  0  0  0
   57.6360   29.2720   44.6880 C   0  0  0  0  0  0  0  0  0  0  0  0
   56.7020   30.1690   44.1750 C   0  0  0  0  0  0  0  0  0  0  0  0
   56.7880   31.5260   44.4860 C   0  0  0  0  0  0  0  0  0  0  0  0
   57.8190   32.0150   45.3150 C   0  0  0  0  0  0  0  0  0  0  0  0
   57.8830   33.5000   45.6280 C   0  0  0  0  0  0  0  0  0  0  0  0
   57.0070   34.1880   44.8090 F   0  0  0  0  0  0  0  0  0  0  0  0
   57.5470   33.7200   46.9500 F   0  0  0  0  0  0  0  0  0  0  0  0
   59.1530   34.0130   45.4260 F   0  0  0  0  0  0  0  0  0  0  0  0
   58.8940   30.7910   49.1290 C   0  0  0  0  0  0  0  0  0  0  0  0
   58.6480   29.5720   48.9290 O   0  0  0  0  0  0  0  0  0  0  0  0
   57.8139   30.0135   51.5531 H   0  0  0  0  0  0  0  0  0  0  0  0
   57.9777   31.7428   52.3357 H   0  0  0  0  0  0  0  0  0  0  0  0
   59.5890   34.3910   47.3950 H   0  0  0  0  0  0  0  0  0  0  0  0
   59.8280   34.9270   48.9640 H   0  0  0  0  0  0  0  0  0  0  0  0
   61.8697   35.1739   48.3078 H   0  0  0  0  0  0  0  0  0  0  0  0
   61.3114   33.0397   46.2185 H   0  0  0  0  0  0  0  0  0  0  0  0
   61.6905   34.7861   46.0008 H   0  0  0  0  0  0  0  0  0  0  0  0
   63.6452   33.4061   45.4225 H   0  0  0  0  0  0  0  0  0  0  0  0
   63.9580   34.3882   46.9236 H   0  0  0  0  0  0  0  0  0  0  0  0
   64.7240   32.4630   47.6230 H   0  0  0  0  0  0  0  0  0  0  0  0
   62.0093   31.3949   47.9236 H   0  0  0  0  0  0  0  0  0  0  0  0
   63.4226   31.3911   49.0676 H   0  0  0  0  0  0  0  0  0  0  0  0
   61.6020   32.8854   49.8387 H   0  0  0  0  0  0  0  0  0  0  0  0
   63.1410   33.7732   49.4688 H   0  0  0  0  0  0  0  0  0  0  0  0
   60.3322   32.4428   46.3591 H   0  0  0  0  0  0  0  0  0  0  0  0
   60.6301   30.6856   46.7613 H   0  0  0  0  0  0  0  0  0  0  0  0
   59.3907   29.0123   45.9203 H   0  0  0  0  0  0  0  0  0  0  0  0
   57.5683   28.2036   44.4353 H   0  0  0  0  0  0  0  0  0  0  0  0
   55.8941   29.8061   43.5226 H   0  0  0  0  0  0  0  0  0  0  0  0
   56.0417   32.2242   44.0792 H   0  0  0  0  0  0  0  0  0  0  0  0
  1  2  2  0
  2  3  1  0
  3  4  1  0
  4  5  1  0
  5  6  1  0
  6  7  1  0
  7  8  1  0
  8  9  1  0
  9 10  1  0
 10 11  1  0
  4 12  2  0
 12 13  1  0
 13 14  1  0
 14 15  2  0
 15 16  1  0
 16 17  2  0
 17 18  1  0
 18 19  2  0
 19 20  1  0
 20 21  1  0
 20 22  1  0
 20 23  1  0
 12 24  1  0
 24 25  2  0
 24  2  1  0
 11  6  1  0
 19 14  1  0
  1 26  1  0
  1 27  1  0
  5 28  1  0
  5 29  1  0
  6 30  1  0
  7 31  1  0
  7 32  1  0
  8 33  1  0
  8 34  1  0
  9 35  1  0
 10 36  1  0
 10 37  1  0
 11 38  1  0
 11 39  1  0
 13 40  1  0
 13 41  1  0
 15 42  1  0
 16 43  1  0
 17 44  1  0
 18 45  1  0
M  CHG  1   5   1
M  END
>  <UniqueID>  (16) 
14

>  <SMILES>  (16) 
C=C1OC([NH2+]C2CCNCC2)=C(Cc2ccccc2C(F)(F)F)C1=O

>  <Energy>  (16) 
84.43759952686713

>  <Genealogy>  (16) 
C=C1OC([NH2+]C2CCNCC2)=C(Cc2ccccc2C(F)(F)F)C1=O (protonated)
C=C1OC([NH2+]C2CCNCC2)=C(Cc2ccccc2C(F)(F)F)C1=O (3D coordinates assigned)
C=C1OC([NH2+]C2CCNCC2)=C(Cc2ccccc2C(F)(F)F)C1=O (nonaromatic ring conformer: 84.43759952686713 kcal/mol)

>  <smiles>  (16) 
C=C1OC(NC2CCNCC2)=C(Cc2ccccc2C(F)(F)F)C1=O

>  <score_type>  (16) 
oracle

>  <origin>  (16) 
adg

>  <m_score__min__energy>  (16) 
-5.5700000000000003

>  <m_primary>  (16) 
energy

$$$$
16:0
     RDKit          3D

 37 39  0  0  0  0  0  0  0  0999 V2000
   57.3520   30.5530   42.9390 O   0  0  0  0  0  0  0  0  0  0  0  0
   56.9860   30.5080   44.1430 C   0  0  0  0  0  0  0  0  0  0  0  0
   56.6680   31.7340   44.8130 N   0  0  0  0  0  0  0  0  0  0  0  0
   57.6080   32.7240   45.2540 C   0  0  0  0  0  0  0  0  0  0  0  0
   57.8170   33.9110   44.5320 C   0  0  0  0  0  0  0  0  0  0  0  0
   58.7160   34.8700   45.0030 C   0  0  0  0  0  0  0  0  0  0  0  0
   59.4040   34.6600   46.2000 C   0  0  0  0  0  0  0  0  0  0  0  0
   59.1970   33.4850   46.9420 C   0  0  0  0  0  0  0  0  0  0  0  0
   59.9050   33.2680   48.2250 C   0  0  0  0  0  0  0  0  0  0  0  0
   59.2520   33.2800   49.3050 O   0  0  0  0  0  0  0  0  0  0  0  0
   61.3290   33.0670   48.2640 N   0  0  0  0  0  0  0  0  0  0  0  0
   61.9290   31.9740   47.4950 C   0  0  0  0  0  0  0  0  0  0  0  0
   63.3950   32.3010   47.2010 C   0  0  0  0  0  0  0  0  0  0  0  0
   64.0870   32.6240   48.3930 O   0  0  0  0  0  0  0  0  0  0  0  0
   63.5580   33.8120   48.9500 C   0  0  0  0  0  0  0  0  0  0  0  0
   62.1010   33.6110   49.3830 C   0  0  0  0  0  0  0  0  0  0  0  0
   58.2790   32.5290   46.4680 C   0  0  0  0  0  0  0  0  0  0  0  0
   56.8270   29.1970   44.8020 C   0  0  0  0  0  0  0  0  0  0  0  0
   57.8680   28.3880   45.2270 C   0  0  0  0  0  0  0  0  0  0  0  0
   57.2870   27.2580   45.7550 C   0  0  0  0  0  0  0  0  0  0  0  0
   55.9290   27.4390   45.6150 C   0  0  0  0  0  0  0  0  0  0  0  0
   54.9650   26.5250   46.0200 O   0  0  0  0  0  0  0  0  0  0  0  0
   55.6330   28.6130   45.0320 N   0  0  0  0  0  0  0  0  0  0  0  0
   57.2709   34.0853   43.5932 H   0  0  0  0  0  0  0  0  0  0  0  0
   58.8828   35.7937   44.4295 H   0  0  0  0  0  0  0  0  0  0  0  0
   60.1121   35.4190   46.5641 H   0  0  0  0  0  0  0  0  0  0  0  0
   61.8708   31.0419   48.0762 H   0  0  0  0  0  0  0  0  0  0  0  0
   61.3840   31.8504   46.5475 H   0  0  0  0  0  0  0  0  0  0  0  0
   63.8723   31.4278   46.7323 H   0  0  0  0  0  0  0  0  0  0  0  0
   63.4341   33.1677   46.5248 H   0  0  0  0  0  0  0  0  0  0  0  0
   64.1582   34.0973   49.8265 H   0  0  0  0  0  0  0  0  0  0  0  0
   63.5922   34.6037   48.1871 H   0  0  0  0  0  0  0  0  0  0  0  0
   62.0636   32.9095   50.2294 H   0  0  0  0  0  0  0  0  0  0  0  0
   61.6729   34.5773   49.6879 H   0  0  0  0  0  0  0  0  0  0  0  0
   58.0867   31.6199   47.0567 H   0  0  0  0  0  0  0  0  0  0  0  0
   58.9440   28.6055   45.1565 H   0  0  0  0  0  0  0  0  0  0  0  0
   57.8001   26.3910   46.1967 H   0  0  0  0  0  0  0  0  0  0  0  0
  1  2  2  0
  2  3  1  0
  3  4  1  0
  4  5  2  0
  5  6  1  0
  6  7  2  0
  7  8  1  0
  8  9  1  0
  9 10  2  0
  9 11  1  0
 11 12  1  0
 12 13  1  0
 13 14  1  0
 14 15  1  0
 15 16  1  0
  8 17  2  0
  2 18  1  0
 18 19  2  0
 19 20  1  0
 20 21  2  0
 21 22  1  0
 21 23  1  0
 17  4  1  0
 23 18  1  0
 16 11  1  0
  5 24  1  0
  6 25  1  0
  7 26  1  0
 12 27  1  0
 12 28  1  0
 13 29  1  0
 13 30  1  0
 15 31  1  0
 15 32  1  0
 16 33  1  0
 16 34  1  0
 17 35  1  0
 19 36  1  0
 20 37  1  0
M  CHG  3   3  -1  22  -1  23  -1
M  END
>  <UniqueID>  (17) 
15

>  <SMILES>  (17) 
O=C([N-]c1cccc(C(=O)N2CCOCC2)c1)c1ccc([O-])[n-]1

>  <Energy>  (17) 
74.00886745275344

>  <Genealogy>  (17) 
O=C([N-]c1cccc(C(=O)N2CCOCC2)c1)c1ccc([O-])[n-]1 (protonated)
O=C([N-]c1cccc(C(=O)N2CCOCC2)c1)c1ccc([O-])[n-]1 (3D coordinates assigned)
O=C([N-]c1cccc(C(=O)N2CCOCC2)c1)c1ccc([O-])[n-]1 (nonaromatic ring conformer: 74.00886745275344 kcal/mol)

>  <smiles>  (17) 
O=C(Nc1cccc(C(=O)N2CCOCC2)c1)c1ccc(O)[nH]1

>  <score_type>  (17) 
oracle

>  <origin>  (17) 
adg

>  <m_score__min__energy>  (17) 
-15.15

>  <m_primary>  (17) 
energy

$$$$
17:0
     RDKit          3D

 57 60  0  0  0  0  0  0  0  0999 V2000
   55.8210   31.6030   51.9720 C   0  0  0  0  0  0  0  0  0  0  0  0
   55.3470   30.4350   52.4370 C   0  0  0  0  0  0  0  0  0  0  0  0
   54.0440   29.9430   52.2690 C   0  0  0  0  0  0  0  0  0  0  0  0
   53.0330   30.5420   51.6000 C   0  0  0  0  0  0  0  0  0  0  0  0
   51.9770   31.3900   52.1990 C   0  0  0  0  0  0  0  0  0  0  0  0
   51.5510   31.3470   53.4740 N   0  0  0  0  0  0  0  0  0  0  0  0
   50.5790   32.2820   53.5170 C   0  0  0  0  0  0  0  0  0  0  0  0
   49.9330   32.5410   54.5650 O   0  0  0  0  0  0  0  0  0  0  0  0
   50.3540   32.9180   52.3490 N   0  0  0  0  0  0  0  0  0  0  0  0
   51.2450   32.3400   51.5250 C   0  0  0  0  0  0  0  0  0  0  0  0
   51.3890   32.6740   50.1820 O   0  0  0  0  0  0  0  0  0  0  0  0
   54.0050   28.7270   52.9420 C   0  0  0  0  0  0  0  0  0  0  0  0
   55.2590   28.5290   53.4830 C   0  0  0  0  0  0  0  0  0  0  0  0
   55.6510   27.3340   54.2990 C   0  0  0  0  0  0  0  0  0  0  0  0
   56.0820   29.5540   53.1650 N   0  0  0  0  0  0  0  0  0  0  0  0
   57.4790   29.6980   53.6030 C   0  0  0  0  0  0  0  0  0  0  0  0
   58.4320   29.3290   52.4640 C   0  0  0  0  0  0  0  0  0  0  0  0
   58.7310   30.5340   51.6140 C   0  0  0  0  0  0  0  0  0  0  0  0
   59.1430   31.7350   52.2120 C   0  0  0  0  0  0  0  0  0  0  0  0
   59.3890   32.8610   51.4260 C   0  0  0  0  0  0  0  0  0  0  0  0
   59.2160   32.8030   50.0410 C   0  0  0  0  0  0  0  0  0  0  0  0
   58.7860   31.6140   49.4250 C   0  0  0  0  0  0  0  0  0  0  0  0
   58.5860   31.5570   47.9980 N   0  0  0  0  0  0  0  0  0  0  0  0
   59.1550   30.4430   47.2240 C   0  0  0  0  0  0  0  0  0  0  0  0
   58.3030   30.0980   45.9810 C   0  0  0  0  0  0  0  0  0  0  0  0
   57.3860   31.1860   45.5700 N   0  0  0  0  0  0  0  0  0  0  0  0
   56.9990   31.0310   44.1600 C   0  0  0  0  0  0  0  0  0  0  0  0
   57.9860   32.5090   45.7970 C   0  0  0  0  0  0  0  0  0  0  0  0
   58.0760   32.7480   47.3030 C   0  0  0  0  0  0  0  0  0  0  0  0
   58.5440   30.4820   50.2240 C   0  0  0  0  0  0  0  0  0  0  0  0
   56.8657   31.8884   52.1647 H   0  0  0  0  0  0  0  0  0  0  0  0
   55.1644   32.2739   51.3986 H   0  0  0  0  0  0  0  0  0  0  0  0
   52.9912   30.3851   50.5120 H   0  0  0  0  0  0  0  0  0  0  0  0
   52.0680   32.1950   49.6020 H   0  0  0  0  0  0  0  0  0  0  0  0
   53.1404   28.0522   53.0269 H   0  0  0  0  0  0  0  0  0  0  0  0
   55.5709   27.5781   55.3686 H   0  0  0  0  0  0  0  0  0  0  0  0
   54.9814   26.4936   54.0636 H   0  0  0  0  0  0  0  0  0  0  0  0
   56.6883   27.0535   54.0636 H   0  0  0  0  0  0  0  0  0  0  0  0
   57.6595   30.7405   53.9042 H   0  0  0  0  0  0  0  0  0  0  0  0
   57.6592   29.0241   54.4536 H   0  0  0  0  0  0  0  0  0  0  0  0
   59.3709   28.9437   52.8884 H   0  0  0  0  0  0  0  0  0  0  0  0
   57.9554   28.5613   51.8367 H   0  0  0  0  0  0  0  0  0  0  0  0
   59.2723   31.7886   53.3031 H   0  0  0  0  0  0  0  0  0  0  0  0
   59.7203   33.7976   51.8983 H   0  0  0  0  0  0  0  0  0  0  0  0
   59.4175   33.6937   49.4278 H   0  0  0  0  0  0  0  0  0  0  0  0
   60.1664   30.7219   46.8935 H   0  0  0  0  0  0  0  0  0  0  0  0
   59.1758   29.5565   47.8749 H   0  0  0  0  0  0  0  0  0  0  0  0
   58.9821   29.8806   45.1434 H   0  0  0  0  0  0  0  0  0  0  0  0
   57.6780   29.2332   46.2483 H   0  0  0  0  0  0  0  0  0  0  0  0
   55.9793   30.6226   44.1024 H   0  0  0  0  0  0  0  0  0  0  0  0
   57.0302   32.0110   43.6614 H   0  0  0  0  0  0  0  0  0  0  0  0
   57.6980   30.3435   43.6614 H   0  0  0  0  0  0  0  0  0  0  0  0
   58.9930   32.5405   45.3554 H   0  0  0  0  0  0  0  0  0  0  0  0
   57.3681   33.2888   45.3277 H   0  0  0  0  0  0  0  0  0  0  0  0
   58.7544   33.5928   47.4928 H   0  0  0  0  0  0  0  0  0  0  0  0
   57.0676   32.9693   47.6827 H   0  0  0  0  0  0  0  0  0  0  0  0
   58.2048   29.5467   49.7548 H   0  0  0  0  0  0  0  0  0  0  0  0
  1  2  2  0
  2  3  1  0
  3  4  2  3
  4  5  1  0
  5  6  1  0
  6  7  1  0
  7  8  2  0
  7  9  1  0
  9 10  1  0
 10 11  1  0
  3 12  1  0
 12 13  2  0
 13 14  1  0
 13 15  1  0
 15 16  1  0
 16 17  1  0
 17 18  1  0
 18 19  2  0
 19 20  1  0
 20 21  2  0
 21 22  1  0
 22 23  1  0
 23 24  1  0
 24 25  1  0
 25 26  1  0
 26 27  1  0
 26 28  1  0
 28 29  1  0
 22 30  2  0
 15  2  1  0
 30 18  1  0
 10  5  2  0
 29 23  1  0
  1 31  1  0
  1 32  1  0
  4 33  1  0
 11 34  1  0
 12 35  1  0
 14 36  1  0
 14 37  1  0
 14 38  1  0
 16 39  1  0
 16 40  1  0
 17 41  1  0
 17 42  1  0
 19 43  1  0
 20 44  1  0
 21 45  1  0
 24 46  1  0
 24 47  1  0
 25 48  1  0
 25 49  1  0
 27 50  1  0
 27 51  1  0
 27 52  1  0
 28 53  1  0
 28 54  1  0
 29 55  1  0
 29 56  1  0
 30 57  1  0
M  CHG  2   6  -1   9  -1
M  END
>  <UniqueID>  (18) 
16

>  <SMILES>  (18) 
C=c1c(=Cc2[n-]c(=O)[n-]c2O)cc(C)n1CCc1cccc(N2CCN(C)CC2)c1

>  <Energy>  (18) 
125.8709642466388

>  <Genealogy>  (18) 
C=c1c(=Cc2[n-]c(=O)[n-]c2O)cc(C)n1CCc1cccc(N2CCN(C)CC2)c1 (protonated)
C=c1c(=Cc2[n-]c(=O)[n-]c2O)cc(C)n1CCc1cccc(N2CCN(C)CC2)c1 (3D coordinates assigned)
C=c1c(=Cc2[n-]c(=O)[n-]c2O)cc(C)n1CCc1cccc(N2CCN(C)CC2)c1 (nonaromatic ring conformer: 125.8709642466388 kcal/mol)

>  <smiles>  (18) 
C=c1c(=Cc2[nH]c(=O)[nH]c2O)cc(C)n1CCc1cccc(N2CCN(C)CC2)c1

>  <score_type>  (18) 
oracle

>  <origin>  (18) 
adg

>  <m_score__min__energy>  (18) 
-14.039999999999999

>  <m_primary>  (18) 
energy

$$$$
18:0
     RDKit          3D

 49 51  0  0  0  0  0  0  0  0999 V2000
   53.5960   28.5570   52.8600 C   0  0  0  0  0  0  0  0  0  0  0  0
   54.5200   29.4920   52.6150 C   0  0  0  0  0  0  0  0  0  0  0  0
   54.4130   30.6230   51.7880 C   0  0  0  0  0  0  0  0  0  0  0  0
   53.3500   31.1830   51.1790 C   0  0  0  0  0  0  0  0  0  0  0  0
   52.0900   31.5960   51.8250 C   0  0  0  0  0  0  0  0  0  0  0  0
   51.8410   31.5200   53.1460 N   0  0  0  0  0  0  0  0  0  0  0  0
   50.6690   32.1790   53.2790 C   0  0  0  0  0  0  0  0  0  0  0  0
   50.0900   32.3130   54.3890 O   0  0  0  0  0  0  0  0  0  0  0  0
   50.1730   32.6940   52.1320 N   0  0  0  0  0  0  0  0  0  0  0  0
   51.0910   32.3280   51.2260 C   0  0  0  0  0  0  0  0  0  0  0  0
   51.0250   32.6640   49.8800 O   0  0  0  0  0  0  0  0  0  0  0  0
   55.6950   31.1450   51.6840 C   0  0  0  0  0  0  0  0  0  0  0  0
   56.5130   30.3670   52.4790 C   0  0  0  0  0  0  0  0  0  0  0  0
   57.9860   30.5840   52.6880 C   0  0  0  0  0  0  0  0  0  0  0  0
   58.6290   31.1100   51.4330 C   0  0  0  0  0  0  0  0  0  0  0  0
   58.5980   32.3480   51.1990 O   0  0  0  0  0  0  0  0  0  0  0  0
   59.2440   30.2420   50.4740 N   0  0  0  0  0  0  0  0  0  0  0  0
   60.0060   30.6930   49.3150 C   0  0  0  0  0  0  0  0  0  0  0  0
   59.0660   31.1940   48.2110 C   0  0  0  0  0  0  0  0  0  0  0  0
   58.9020   32.6670   48.2530 N   0  0  0  0  0  0  0  0  0  0  0  0
   57.6010   33.0900   47.6730 C   0  0  0  0  0  0  0  0  0  0  0  0
   57.7260   33.4370   46.1830 C   0  0  0  0  0  0  0  0  0  0  0  0
   58.6530   34.5740   45.9560 N   0  0  0  0  0  0  0  0  0  0  0  0
   59.2810   34.4760   44.6250 C   0  0  0  0  0  0  0  0  0  0  0  0
   59.6660   34.7260   47.0240 C   0  0  0  0  0  0  0  0  0  0  0  0
   60.0610   33.3710   47.6390 C   0  0  0  0  0  0  0  0  0  0  0  0
   55.7930   29.3850   53.0470 N   0  0  0  0  0  0  0  0  0  0  0  0
   56.3010   28.3800   53.8420 O   0  0  0  0  0  0  0  0  0  0  0  0
   53.8257   27.7208   53.5367 H   0  0  0  0  0  0  0  0  0  0  0  0
   52.6062   28.6241   52.3848 H   0  0  0  0  0  0  0  0  0  0  0  0
   53.4293   31.3484   50.0944 H   0  0  0  0  0  0  0  0  0  0  0  0
   56.0011   32.0136   51.0824 H   0  0  0  0  0  0  0  0  0  0  0  0
   58.1323   31.3107   53.5007 H   0  0  0  0  0  0  0  0  0  0  0  0
   58.4520   29.6221   52.9480 H   0  0  0  0  0  0  0  0  0  0  0  0
   60.6751   31.5115   49.6188 H   0  0  0  0  0  0  0  0  0  0  0  0
   60.5912   29.8472   48.9250 H   0  0  0  0  0  0  0  0  0  0  0  0
   59.4822   30.9099   47.2332 H   0  0  0  0  0  0  0  0  0  0  0  0
   58.0786   30.7357   48.3691 H   0  0  0  0  0  0  0  0  0  0  0  0
   56.8767   32.2701   47.7879 H   0  0  0  0  0  0  0  0  0  0  0  0
   57.2662   33.9917   48.2067 H   0  0  0  0  0  0  0  0  0  0  0  0
   58.1042   32.5564   45.6432 H   0  0  0  0  0  0  0  0  0  0  0  0
   56.7311   33.7295   45.8161 H   0  0  0  0  0  0  0  0  0  0  0  0
   60.3618   34.3073   44.7410 H   0  0  0  0  0  0  0  0  0  0  0  0
   58.8363   33.6364   44.0707 H   0  0  0  0  0  0  0  0  0  0  0  0
   59.1133   35.4112   44.0707 H   0  0  0  0  0  0  0  0  0  0  0  0
   60.5635   35.1982   46.5980 H   0  0  0  0  0  0  0  0  0  0  0  0
   59.2305   35.3474   47.8204 H   0  0  0  0  0  0  0  0  0  0  0  0
   60.4828   32.7336   46.8480 H   0  0  0  0  0  0  0  0  0  0  0  0
   60.7953   33.5651   48.4347 H   0  0  0  0  0  0  0  0  0  0  0  0
  1  2  2  0
  2  3  1  0
  3  4  2  3
  4  5  1  0
  5  6  1  0
  6  7  1  0
  7  8  2  0
  7  9  1  0
  9 10  1  0
 10 11  1  0
  3 12  1  0
 12 13  2  0
 13 14  1  0
 14 15  1  0
 15 16  2  0
 15 17  1  0
 17 18  1  0
 18 19  1  0
 19 20  1  0
 20 21  1  0
 21 22  1  0
 22 23  1  0
 23 24  1  0
 23 25  1  0
 25 26  1  0
 13 27  1  0
 27 28  1  0
 27  2  1  0
 10  5  2  0
 26 20  1  0
  1 29  1  0
  1 30  1  0
  4 31  1  0
 12 32  1  0
 14 33  1  0
 14 34  1  0
 18 35  1  0
 18 36  1  0
 19 37  1  0
 19 38  1  0
 21 39  1  0
 21 40  1  0
 22 41  1  0
 22 42  1  0
 24 43  1  0
 24 44  1  0
 24 45  1  0
 25 46  1  0
 25 47  1  0
 26 48  1  0
 26 49  1  0
M  CHG  5   6  -1   9  -1  11  -1  17  -1  28  -1
M  END
>  <UniqueID>  (19) 
17

>  <SMILES>  (19) 
C=c1c(=Cc2[n-]c(=O)[n-]c2[O-])cc(CC(=O)[N-]CCN2CCN(C)CC2)n1[O-]

>  <Energy>  (19) 
127.43375983078842

>  <Genealogy>  (19) 
C=c1c(=Cc2[n-]c(=O)[n-]c2[O-])cc(CC(=O)[N-]CCN2CCN(C)CC2)n1[O-] (protonated)
C=c1c(=Cc2[n-]c(=O)[n-]c2[O-])cc(CC(=O)[N-]CCN2CCN(C)CC2)n1[O-] (3D coordinates assigned)
C=c1c(=Cc2[n-]c(=O)[n-]c2[O-])cc(CC(=O)[N-]CCN2CCN(C)CC2)n1[O-] (nonaromatic ring conformer: 127.43375983078842 kcal/mol)

>  <smiles>  (19) 
C=c1c(=Cc2[nH]c(=O)[nH]c2O)cc(CC(=O)NCCN2CCN(C)CC2)n1O

>  <score_type>  (19) 
oracle

>  <origin>  (19) 
adg

>  <m_score__min__energy>  (19) 
-18.940000000000001

>  <m_primary>  (19) 
energy

$$$$
19:0
     RDKit          3D

 67 71  0  0  0  0  0  0  0  0999 V2000
   63.9940   33.6600   47.3910 O   0  0  0  0  0  0  0  0  0  0  0  0
   63.0370   33.4450   48.1880 C   0  0  0  0  0  0  0  0  0  0  0  0
   61.6470   33.5690   47.6790 C   0  0  0  0  0  0  0  0  0  0  0  0
   61.3850   34.0460   46.3830 C   0  0  0  0  0  0  0  0  0  0  0  0
   60.0690   34.1730   45.9280 C   0  0  0  0  0  0  0  0  0  0  0  0
   58.9940   33.8270   46.7580 C   0  0  0  0  0  0  0  0  0  0  0  0
   57.5790   34.0080   46.2790 C   0  0  0  0  0  0  0  0  0  0  0  0
   57.4150   33.5400   44.5200 S   0  0  0  0  0  0  0  0  0  0  0  0
   57.4110   31.7770   44.8360 C   0  0  0  0  0  0  0  0  0  0  0  0
   56.2940   31.0470   44.5840 N   0  0  0  0  0  0  0  0  0  0  0  0
   56.2620   29.7130   44.8340 C   0  0  0  0  0  0  0  0  0  0  0  0
   55.2160   29.0550   44.5950 O   0  0  0  0  0  0  0  0  0  0  0  0
   57.3890   29.0760   45.3560 C   0  0  0  0  0  0  0  0  0  0  0  0
   58.5310   29.8430   45.6140 C   0  0  0  0  0  0  0  0  0  0  0  0
   59.7830   29.2050   46.1390 C   0  0  0  0  0  0  0  0  0  0  0  0
   59.9460   29.5160   47.6020 C   0  0  0  0  0  0  0  0  0  0  0  0
   61.1640   30.0220   48.0890 C   0  0  0  0  0  0  0  0  0  0  0  0
   61.3010   30.3410   49.4430 C   0  0  0  0  0  0  0  0  0  0  0  0
   60.2250   30.1670   50.3180 C   0  0  0  0  0  0  0  0  0  0  0  0
   59.0070   29.6770   49.8380 C   0  0  0  0  0  0  0  0  0  0  0  0
   58.8650   29.3560   48.4850 C   0  0  0  0  0  0  0  0  0  0  0  0
   58.5210   31.1750   45.3390 N   0  0  0  0  0  0  0  0  0  0  0  0
   59.2520   33.3620   48.0560 C   0  0  0  0  0  0  0  0  0  0  0  0
   60.5660   33.2390   48.5150 C   0  0  0  0  0  0  0  0  0  0  0  0
   63.3130   33.0330   49.5520 N   0  0  0  0  0  0  0  0  0  0  0  0
   63.3010   34.2010   50.4700 C   0  0  0  0  0  0  0  0  0  0  0  0
   64.0740   33.8910   51.7560 C   0  0  0  0  0  0  0  0  0  0  0  0
   65.5120   33.6370   51.4800 N   0  0  0  0  0  0  0  0  0  0  0  0
   66.1270   32.8070   52.5360 C   0  0  0  0  0  0  0  0  0  0  0  0
   65.9400   31.3390   52.2430 C   0  0  0  0  0  0  0  0  0  0  0  0
   66.9940   30.5770   51.7100 C   0  0  0  0  0  0  0  0  0  0  0  0
   66.8030   29.2220   51.4170 C   0  0  0  0  0  0  0  0  0  0  0  0
   65.5630   28.6220   51.6490 C   0  0  0  0  0  0  0  0  0  0  0  0
   64.5090   29.3770   52.1720 C   0  0  0  0  0  0  0  0  0  0  0  0
   64.6940   30.7310   52.4670 C   0  0  0  0  0  0  0  0  0  0  0  0
   65.7600   33.0730   50.1280 C   0  0  0  0  0  0  0  0  0  0  0  0
   64.5710   32.2420   49.6150 C   0  0  0  0  0  0  0  0  0  0  0  0
   62.2206   34.3211   45.7226 H   0  0  0  0  0  0  0  0  0  0  0  0
   59.8761   34.5470   44.9117 H   0  0  0  0  0  0  0  0  0  0  0  0
   56.9116   33.3755   46.8828 H   0  0  0  0  0  0  0  0  0  0  0  0
   57.3071   35.0686   46.3852 H   0  0  0  0  0  0  0  0  0  0  0  0
   57.3798   27.9951   45.5601 H   0  0  0  0  0  0  0  0  0  0  0  0
   59.7208   28.1152   46.0032 H   0  0  0  0  0  0  0  0  0  0  0  0
   60.6483   29.6015   45.5875 H   0  0  0  0  0  0  0  0  0  0  0  0
   62.0113   30.1672   47.4027 H   0  0  0  0  0  0  0  0  0  0  0  0
   62.2580   30.7300   49.8209 H   0  0  0  0  0  0  0  0  0  0  0  0
   60.3366   30.4155   51.3837 H   0  0  0  0  0  0  0  0  0  0  0  0
   58.1591   29.5438   50.5260 H   0  0  0  0  0  0  0  0  0  0  0  0
   57.9030   28.9766   48.1101 H   0  0  0  0  0  0  0  0  0  0  0  0
   58.4147   33.0925   48.7166 H   0  0  0  0  0  0  0  0  0  0  0  0
   60.7560   32.8814   49.5378 H   0  0  0  0  0  0  0  0  0  0  0  0
   62.5340   32.4110   49.8750 H   0  0  0  0  0  0  0  0  0  0  0  0
   63.7685   35.0601   49.9666 H   0  0  0  0  0  0  0  0  0  0  0  0
   62.2581   34.4319   50.7328 H   0  0  0  0  0  0  0  0  0  0  0  0
   63.9874   34.7479   52.4403 H   0  0  0  0  0  0  0  0  0  0  0  0
   63.6440   32.9844   52.2068 H   0  0  0  0  0  0  0  0  0  0  0  0
   67.2029   33.0297   52.5885 H   0  0  0  0  0  0  0  0  0  0  0  0
   65.6398   33.0393   53.4945 H   0  0  0  0  0  0  0  0  0  0  0  0
   67.9709   31.0467   51.5228 H   0  0  0  0  0  0  0  0  0  0  0  0
   67.6312   28.6280   51.0031 H   0  0  0  0  0  0  0  0  0  0  0  0
   65.4160   27.5561   51.4203 H   0  0  0  0  0  0  0  0  0  0  0  0
   63.5320   28.9047   52.3518 H   0  0  0  0  0  0  0  0  0  0  0  0
   63.8611   31.3219   52.8758 H   0  0  0  0  0  0  0  0  0  0  0  0
   65.9415   33.9011   49.4271 H   0  0  0  0  0  0  0  0  0  0  0  0
   66.6322   32.4062   50.1963 H   0  0  0  0  0  0  0  0  0  0  0  0
   64.8071   31.8725   48.6062 H   0  0  0  0  0  0  0  0  0  0  0  0
   64.4115   31.4130   50.3202 H   0  0  0  0  0  0  0  0  0  0  0  0
  1  2  2  0
  2  3  1  0
  3  4  2  0
  4  5  1  0
  5  6  2  0
  6  7  1  0
  7  8  1  0
  8  9  1  0
  9 10  2  0
 10 11  1  0
 11 12  2  0
 11 13  1  0
 13 14  2  0
 14 15  1  0
 15 16  1  0
 16 17  2  0
 17 18  1  0
 18 19  2  0
 19 20  1  0
 20 21  2  0
 14 22  1  0
  6 23  1  0
 23 24  2  0
  2 25  1  0
 25 26  1  0
 26 27  1  0
 27 28  1  0
 28 29  1  0
 29 30  1  0
 30 31  2  0
 31 32  1  0
 32 33  2  0
 33 34  1  0
 34 35  2  0
 28 36  1  0
 36 37  1  0
 24  3  1  0
 37 25  1  0
 22  9  1  0
 35 30  1  0
 21 16  1  0
  4 38  1  0
  5 39  1  0
  7 40  1  0
  7 41  1  0
 13 42  1  0
 15 43  1  0
 15 44  1  0
 17 45  1  0
 18 46  1  0
 19 47  1  0
 20 48  1  0
 21 49  1  0
 23 50  1  0
 24 51  1  0
 25 52  1  0
 26 53  1  0
 26 54  1  0
 27 55  1  0
 27 56  1  0
 29 57  1  0
 29 58  1  0
 31 59  1  0
 32 60  1  0
 33 61  1  0
 34 62  1  0
 35 63  1  0
 36 64  1  0
 36 65  1  0
 37 66  1  0
 37 67  1  0
M  CHG  2  22  -1  25   1
M  END
>  <UniqueID>  (20) 
18

>  <SMILES>  (20) 
O=C(c1ccc(CSc2nc(=O)cc(Cc3ccccc3)[n-]2)cc1)[NH+]1CCN(Cc2ccccc2)CC1

>  <Energy>  (20) 
84.76435290638389

>  <Genealogy>  (20) 
O=C(c1ccc(CSc2nc(=O)cc(Cc3ccccc3)[n-]2)cc1)[NH+]1CCN(Cc2ccccc2)CC1 (protonated)
O=C(c1ccc(CSc2nc(=O)cc(Cc3ccccc3)[n-]2)cc1)[NH+]1CCN(Cc2ccccc2)CC1 (3D coordinates assigned)
O=C(c1ccc(CSc2nc(=O)cc(Cc3ccccc3)[n-]2)cc1)[NH+]1CCN(Cc2ccccc2)CC1 (nonaromatic ring conformer: 84.76435290638389 kcal/mol)

>  <smiles>  (20) 
O=C(c1ccc(CSc2nc(=O)cc(Cc3ccccc3)[nH]2)cc1)N1CCN(Cc2ccccc2)CC1

>  <score_type>  (20) 
oracle

>  <origin>  (20) 
adg

>  <m_score__min__energy>  (20) 
-10.460000000000001

>  <m_primary>  (20) 
energy

$$$$
20:0
     RDKit          3D

 45 47  0  0  0  0  0  0  0  0999 V2000
   64.4214   33.5859   46.5394 H   0  0  0  0  0  0  0  0  0  0  0  0
   63.4670   33.3980   47.0530 C   0  0  0  0  0  0  0  0  0  0  0  0
   62.6237   34.0912   46.9176 H   0  0  0  0  0  0  0  0  0  0  0  0
   63.3320   32.3280   47.8410 C   0  0  0  0  0  0  0  0  0  0  0  0
   64.1862   31.6460   47.9643 H   0  0  0  0  0  0  0  0  0  0  0  0
   62.0470   32.0260   48.5660 C   0  0  0  0  0  0  0  0  0  0  0  0
   62.0074   30.9507   48.7943 H   0  0  0  0  0  0  0  0  0  0  0  0
   62.0205   32.6189   49.4922 H   0  0  0  0  0  0  0  0  0  0  0  0
   60.8720   32.3890   47.7410 N   0  0  0  0  0  0  0  0  0  0  0  0
   60.2120   33.5860   47.9390 C   0  0  0  0  0  0  0  0  0  0  0  0
   60.6710   34.5900   48.9700 C   0  0  0  0  0  0  0  0  0  0  0  0
   60.4881   34.1899   49.9782 H   0  0  0  0  0  0  0  0  0  0  0  0
   61.7464   34.7822   48.8413 H   0  0  0  0  0  0  0  0  0  0  0  0
   60.1127   35.5290   48.8413 H   0  0  0  0  0  0  0  0  0  0  0  0
   59.1000   33.9160   47.1460 C   0  0  0  0  0  0  0  0  0  0  0  0
   58.5874   34.8774   47.2972 H   0  0  0  0  0  0  0  0  0  0  0  0
   58.6400   33.0300   46.1650 C   0  0  0  0  0  0  0  0  0  0  0  0
   57.4640   33.3700   45.3260 C   0  0  0  0  0  0  0  0  0  0  0  0
   56.7640   34.3790   45.6150 O   0  0  0  0  0  0  0  0  0  0  0  0
   57.1000   32.5170   44.2280 N   0  0  0  0  0  0  0  0  0  0  0  0
   56.8660   31.2350   44.2420 C   0  0  0  0  0  0  0  0  0  0  0  0
   57.8420   30.3360   43.9990 N   0  0  0  0  0  0  0  0  0  0  0  0
   57.2090   29.1500   44.0770 C   0  0  0  0  0  0  0  0  0  0  0  0
   57.8930   27.8260   43.9370 C   0  0  0  0  0  0  0  0  0  0  0  0
   57.1590   27.0686   43.6246 H   0  0  0  0  0  0  0  0  0  0  0  0
   58.6887   27.9100   43.1822 H   0  0  0  0  0  0  0  0  0  0  0  0
   58.5030   27.4160   45.2530 C   0  0  0  0  0  0  0  0  0  0  0  0
   57.7130   26.8120   46.2500 C   0  0  0  0  0  0  0  0  0  0  0  0
   56.3950   26.5640   46.0330 F   0  0  0  0  0  0  0  0  0  0  0  0
   58.2770   26.4640   47.4810 C   0  0  0  0  0  0  0  0  0  0  0  0
   57.6561   25.9865   48.2533 H   0  0  0  0  0  0  0  0  0  0  0  0
   59.6270   26.7210   47.7330 C   0  0  0  0  0  0  0  0  0  0  0  0
   60.0686   26.4424   48.7012 H   0  0  0  0  0  0  0  0  0  0  0  0
   60.4160   27.3320   46.7550 C   0  0  0  0  0  0  0  0  0  0  0  0
   61.4779   27.5366   46.9561 H   0  0  0  0  0  0  0  0  0  0  0  0
   59.8600   27.6840   45.5220 C   0  0  0  0  0  0  0  0  0  0  0  0
   60.6420   28.2900   44.5920 F   0  0  0  0  0  0  0  0  0  0  0  0
   55.8780   29.3450   44.3700 C   0  0  0  0  0  0  0  0  0  0  0  0
   55.1237   28.5551   44.5004 H   0  0  0  0  0  0  0  0  0  0  0  0
   55.6600   30.6660   44.4690 N   0  0  0  0  0  0  0  0  0  0  0  0
   54.7350   31.1110   44.6470 H   0  0  0  0  0  0  0  0  0  0  0  0
   59.3120   31.8180   45.9920 C   0  0  0  0  0  0  0  0  0  0  0  0
   58.9651   31.1030   45.2314 H   0  0  0  0  0  0  0  0  0  0  0  0
   60.4230   31.5100   46.7810 C   0  0  0  0  0  0  0  0  0  0  0  0
   61.0060   30.4070   46.5890 O   0  0  0  0  0  0  0  0  0  0  0  0
  1  2  1  0
  2  3  1  0
  2  4  2  0
  4  5  1  0
  4  6  1  0
  6  7  1  0
  6  8  1  0
  6  9  1  0
  9 10  1  0
 10 11  1  0
 11 12  1  0
 11 13  1  0
 11 14  1  0
 10 15  2  0
 15 16  1  0
 15 17  1  0
 17 18  1  0
 18 19  2  0
 18 20  1  0
 20 21  2  0
 21 22  1  0
 22 23  1  0
 23 24  1  0
 24 25  1  0
 24 26  1  0
 24 27  1  0
 27 28  2  0
 28 29  1  0
 28 30  1  0
 30 31  1  0
 30 32  2  0
 32 33  1  0
 32 34  1  0
 34 35  1  0
 34 36  2  0
 36 37  1  0
 23 38  2  0
 38 39  1  0
 38 40  1  0
 40 41  1  0
 17 42  2  0
 42 43  1  0
 42 44  1  0
 44 45  2  0
 44  9  1  0
 40 21  1  0
 36 27  1  0
M  CHG  1  22  -1
M  END
>  <UniqueID>  (21) 
19

>  <SMILES>  (21) 
C=CCn1c(C)cc(C(=O)/N=c2/[n-]c(Cc3c(F)cccc3F)c[nH]2)cc1=O

>  <Energy>  (21) 
83.43300653918647

>  <Genealogy>  (21) 
C=CCn1c(C)cc(C(=O)N=c2[n-]c(Cc3c(F)cccc3F)c[nH]2)cc1=O (protonated)
C=CCn1c(C)cc(C(=O)/N=c2/[n-]c(Cc3c(F)cccc3F)c[nH]2)cc1=O (cis-trans isomerization)
C=CCn1c(C)cc(C(=O)/N=c2/[n-]c(Cc3c(F)cccc3F)c[nH]2)cc1=O (3D coordinates assigned)
C=CCn1c(C)cc(C(=O)/N=c2/[n-]c(Cc3c(F)cccc3F)c[nH]2)cc1=O (optimized conformer: 83.43300653918647 kcal/mol)

>  <smiles>  (21) 
C=CCn1c(C)cc(C(=O)N=c2[nH]cc(Cc3c(F)cccc3F)[nH]2)cc1=O

>  <score_type>  (21) 
oracle

>  <origin>  (21) 
adg

>  <m_score__min__energy>  (21) 
-9.9000000000000004

>  <m_primary>  (21) 
energy

$$$$
21:0
     RDKit          3D

 34 35  0  0  0  0  0  0  0  0999 V2000
   56.6450   20.6880   44.8340 C   0  0  0  0  0  0  0  0  0  0  0  0
   55.9630   21.9940   44.6000 C   0  0  0  0  0  0  0  0  0  0  0  0
   55.3310   22.6790   45.5760 N   0  0  0  0  0  0  0  0  0  0  0  0
   54.8230   23.7430   44.9310 C   0  0  0  0  0  0  0  0  0  0  0  0
   54.0720   24.8510   45.6000 C   0  0  0  0  0  0  0  0  0  0  0  0
   54.9880   25.9160   45.9910 N   0  0  0  0  0  0  0  0  0  0  0  0
   56.2500   25.6840   46.6300 C   0  0  0  0  0  0  0  0  0  0  0  0
   56.3300   24.8450   47.5690 O   0  0  0  0  0  0  0  0  0  0  0  0
   57.4550   26.4270   46.1920 C   0  0  0  0  0  0  0  0  0  0  0  0
   58.7370   26.0110   46.5920 C   0  0  0  0  0  0  0  0  0  0  0  0
   59.8690   26.7170   46.1810 C   0  0  0  0  0  0  0  0  0  0  0  0
   59.7400   27.8470   45.3700 C   0  0  0  0  0  0  0  0  0  0  0  0
   58.4660   28.2800   44.9620 C   0  0  0  0  0  0  0  0  0  0  0  0
   58.2800   29.4380   44.1340 N   0  0  0  0  0  0  0  0  0  0  0  0
   57.3670   30.8520   44.5530 S   0  0  0  0  0  0  0  0  0  0  0  0
   57.7690   32.1900   43.4490 C   0  0  0  0  0  0  0  0  0  0  0  0
   57.7250   31.2590   45.9530 O   0  0  0  0  0  0  0  0  0  0  0  0
   55.8960   30.5490   44.4990 O   0  0  0  0  0  0  0  0  0  0  0  0
   57.3340   27.5660   45.3750 C   0  0  0  0  0  0  0  0  0  0  0  0
   55.1560   23.6820   43.5990 C   0  0  0  0  0  0  0  0  0  0  0  0
   55.8710   22.5660   43.3800 N   0  0  0  0  0  0  0  0  0  0  0  0
   56.7373   20.5112   45.9158 H   0  0  0  0  0  0  0  0  0  0  0  0
   56.0541   19.8792   44.3794 H   0  0  0  0  0  0  0  0  0  0  0  0
   57.6464   20.7106   44.3794 H   0  0  0  0  0  0  0  0  0  0  0  0
   53.3223   25.2542   44.9033 H   0  0  0  0  0  0  0  0  0  0  0  0
   53.5757   24.4565   46.4989 H   0  0  0  0  0  0  0  0  0  0  0  0
   58.8487   25.1239   47.2327 H   0  0  0  0  0  0  0  0  0  0  0  0
   60.8677   26.3817   46.4974 H   0  0  0  0  0  0  0  0  0  0  0  0
   60.6362   28.3988   45.0501 H   0  0  0  0  0  0  0  0  0  0  0  0
   58.0368   33.0813   44.0354 H   0  0  0  0  0  0  0  0  0  0  0  0
   58.6194   31.8992   42.8148 H   0  0  0  0  0  0  0  0  0  0  0  0
   56.8991   32.4161   42.8148 H   0  0  0  0  0  0  0  0  0  0  0  0
   56.3359   27.9006   45.0560 H   0  0  0  0  0  0  0  0  0  0  0  0
   54.8817   24.4258   42.8364 H   0  0  0  0  0  0  0  0  0  0  0  0
  1  2  1  0
  2  3  2  0
  3  4  1  0
  4  5  1  0
  5  6  1  0
  6  7  1  0
  7  8  2  0
  7  9  1  0
  9 10  2  0
 10 11  1  0
 11 12  2  0
 12 13  1  0
 13 14  1  0
 14 15  1  0
 15 16  1  0
 15 17  2  0
 15 18  2  0
 13 19  2  0
  4 20  2  0
 20 21  1  0
 21  2  1  0
 19  9  1  0
  1 22  1  0
  1 23  1  0
  1 24  1  0
  5 25  1  0
  5 26  1  0
 10 27  1  0
 11 28  1  0
 12 29  1  0
 16 30  1  0
 16 31  1  0
 16 32  1  0
 19 33  1  0
 20 34  1  0
M  CHG  3   6  -1  14  -1  21  -1
M  END
>  <UniqueID>  (22) 
20

>  <SMILES>  (22) 
Cc1nc(C[N-]C(=O)c2cccc([N-]S(C)(=O)=O)c2)c[n-]1

>  <Energy>  (22) 
56.826544354086245

>  <Genealogy>  (22) 
Cc1nc(C[N-]C(=O)c2cccc([N-]S(C)(=O)=O)c2)c[n-]1 (protonated)
Cc1nc(C[N-]C(=O)c2cccc([N-]S(C)(=O)=O)c2)c[n-]1 (3D coordinates assigned)
Cc1nc(C[N-]C(=O)c2cccc([N-]S(C)(=O)=O)c2)c[n-]1 (optimized conformer: 56.826544354086245 kcal/mol)

>  <smiles>  (22) 
Cc1nc(CNC(=O)c2cccc(NS(C)(=O)=O)c2)c[nH]1

>  <score_type>  (22) 
oracle

>  <origin>  (22) 
adg

>  <m_score__min__energy>  (22) 
-11.859999999999999

>  <m_primary>  (22) 
energy

$$$$
22:0
     RDKit          3D

 55 58  0  0  0  0  0  0  0  0999 V2000
   54.9320   22.5170   48.9650 N   0  0  0  0  0  0  0  0  0  0  0  0
   56.5680   22.5490   48.4060 S   0  0  0  0  0  0  0  0  0  0  0  0
   57.0830   21.1430   48.2780 O   0  0  0  0  0  0  0  0  0  0  0  0
   57.4230   23.2890   49.3960 O   0  0  0  0  0  0  0  0  0  0  0  0
   56.6340   23.3460   46.8380 C   0  0  0  0  0  0  0  0  0  0  0  0
   56.4920   22.6030   45.6590 C   0  0  0  0  0  0  0  0  0  0  0  0
   56.5460   23.2400   44.4190 C   0  0  0  0  0  0  0  0  0  0  0  0
   56.7500   24.6200   44.3460 C   0  0  0  0  0  0  0  0  0  0  0  0
   56.9170   25.3810   45.5170 C   0  0  0  0  0  0  0  0  0  0  0  0
   57.1330   26.8470   45.4190 C   0  0  0  0  0  0  0  0  0  0  0  0
   58.4200   27.4090   45.4710 C   0  0  0  0  0  0  0  0  0  0  0  0
   58.5720   28.7910   45.3680 C   0  0  0  0  0  0  0  0  0  0  0  0
   57.4520   29.6170   45.2170 C   0  0  0  0  0  0  0  0  0  0  0  0
   57.6800   31.3640   45.0590 S   0  0  0  0  0  0  0  0  0  0  0  0
   56.3350   32.0070   44.8620 O   0  0  0  0  0  0  0  0  0  0  0  0
   58.5330   31.6750   43.8600 O   0  0  0  0  0  0  0  0  0  0  0  0
   58.4250   32.0050   46.5040 N   0  0  0  0  0  0  0  0  0  0  0  0
   59.5990   31.1830   46.8740 C   0  0  0  0  0  0  0  0  0  0  0  0
   60.5700   31.9450   47.7790 C   0  0  0  0  0  0  0  0  0  0  0  0
   61.0370   33.1550   47.0910 N   0  0  0  0  0  0  0  0  0  0  0  0
   62.3970   33.6120   47.2390 C   0  0  0  0  0  0  0  0  0  0  0  0
   62.9730   34.1690   46.2640 O   0  0  0  0  0  0  0  0  0  0  0  0
   63.1420   33.4380   48.5070 C   0  0  0  0  0  0  0  0  0  0  0  0
   62.8220   34.2270   49.6260 C   0  0  0  0  0  0  0  0  0  0  0  0
   63.5150   34.0590   50.8290 C   0  0  0  0  0  0  0  0  0  0  0  0
   64.5230   33.0970   50.9290 C   0  0  0  0  0  0  0  0  0  0  0  0
   64.8350   32.2950   49.8270 C   0  0  0  0  0  0  0  0  0  0  0  0
   64.1450   32.4600   48.6220 C   0  0  0  0  0  0  0  0  0  0  0  0
   60.1750   33.7750   46.0780 C   0  0  0  0  0  0  0  0  0  0  0  0
   58.6990   33.4560   46.3630 C   0  0  0  0  0  0  0  0  0  0  0  0
   56.1810   29.0200   45.1520 C   0  0  0  0  0  0  0  0  0  0  0  0
   55.1440   29.7190   45.0000 O   0  0  0  0  0  0  0  0  0  0  0  0
   56.0600   27.6700   45.2530 N   0  0  0  0  0  0  0  0  0  0  0  0
   56.8490   24.7300   46.7650 C   0  0  0  0  0  0  0  0  0  0  0  0
   54.3990   23.2070   48.3880 H   0  0  0  0  0  0  0  0  0  0  0  0
   54.5490   21.5730   48.7350 H   0  0  0  0  0  0  0  0  0  0  0  0
   56.3376   21.5151   45.7110 H   0  0  0  0  0  0  0  0  0  0  0  0
   56.4276   22.6537   43.4958 H   0  0  0  0  0  0  0  0  0  0  0  0
   56.7803   25.1157   43.3645 H   0  0  0  0  0  0  0  0  0  0  0  0
   59.3018   26.7626   45.5922 H   0  0  0  0  0  0  0  0  0  0  0  0
   59.5778   29.2349   45.4056 H   0  0  0  0  0  0  0  0  0  0  0  0
   59.2505   30.2843   47.4040 H   0  0  0  0  0  0  0  0  0  0  0  0
   60.1330   30.9177   45.9496 H   0  0  0  0  0  0  0  0  0  0  0  0
   60.0573   32.2280   48.7101 H   0  0  0  0  0  0  0  0  0  0  0  0
   61.4314   31.3025   48.0140 H   0  0  0  0  0  0  0  0  0  0  0  0
   62.0230   34.9797   49.5548 H   0  0  0  0  0  0  0  0  0  0  0  0
   63.2659   34.6855   51.6981 H   0  0  0  0  0  0  0  0  0  0  0  0
   65.0710   32.9705   51.8743 H   0  0  0  0  0  0  0  0  0  0  0  0
   65.6243   31.5332   49.9080 H   0  0  0  0  0  0  0  0  0  0  0  0
   64.3883   31.8214   47.7600 H   0  0  0  0  0  0  0  0  0  0  0  0
   60.3203   34.8652   46.0964 H   0  0  0  0  0  0  0  0  0  0  0  0
   60.4421   33.3749   45.0888 H   0  0  0  0  0  0  0  0  0  0  0  0
   58.4083   33.9579   47.2976 H   0  0  0  0  0  0  0  0  0  0  0  0
   58.1178   33.8132   45.5001 H   0  0  0  0  0  0  0  0  0  0  0  0
   56.9656   25.3128   47.6906 H   0  0  0  0  0  0  0  0  0  0  0  0
  1  2  1  0
  2  3  2  0
  2  4  2  0
  2  5  1  0
  5  6  2  0
  6  7  1  0
  7  8  2  0
  8  9  1  0
  9 10  1  0
 10 11  2  0
 11 12  1  0
 12 13  2  0
 13 14  1  0
 14 15  2  0
 14 16  2  0
 14 17  1  0
 17 18  1  0
 18 19  1  0
 19 20  1  0
 20 21  1  0
 21 22  2  0
 21 23  1  0
 23 24  2  0
 24 25  1  0
 25 26  2  0
 26 27  1  0
 27 28  2  0
 20 29  1  0
 29 30  1  0
 13 31  1  0
 31 32  2  0
 31 33  1  0
  9 34  2  0
 34  5  1  0
 33 10  1  0
 30 17  1  0
 28 23  1  0
  1 35  1  0
  1 36  1  0
  6 37  1  0
  7 38  1  0
  8 39  1  0
 11 40  1  0
 12 41  1  0
 18 42  1  0
 18 43  1  0
 19 44  1  0
 19 45  1  0
 24 46  1  0
 25 47  1  0
 26 48  1  0
 27 49  1  0
 28 50  1  0
 29 51  1  0
 29 52  1  0
 30 53  1  0
 30 54  1  0
 34 55  1  0
M  CHG  1  33  -1
M  END
>  <UniqueID>  (23) 
21

>  <SMILES>  (23) 
NS(=O)(=O)c1cccc(-c2ccc(S(=O)(=O)N3CCN(C(=O)c4ccccc4)CC3)c(=O)[n-]2)c1

>  <Energy>  (23) 
73.47934711405765

>  <Genealogy>  (23) 
NS(=O)(=O)c1cccc(-c2ccc(S(=O)(=O)N3CCN(C(=O)c4ccccc4)CC3)c(=O)[n-]2)c1 (protonated)
NS(=O)(=O)c1cccc(-c2ccc(S(=O)(=O)N3CCN(C(=O)c4ccccc4)CC3)c(=O)[n-]2)c1 (3D coordinates assigned)
NS(=O)(=O)c1cccc(-c2ccc(S(=O)(=O)N3CCN(C(=O)c4ccccc4)CC3)c(=O)[n-]2)c1 (nonaromatic ring conformer: 73.47934711405765 kcal/mol)

>  <smiles>  (23) 
NS(=O)(=O)c1cccc(-c2ccc(S(=O)(=O)N3CCN(C(=O)c4ccccc4)CC3)c(=O)[nH]2)c1

>  <score_type>  (23) 
oracle

>  <origin>  (23) 
adg

>  <m_score__min__energy>  (23) 
-13.550000000000001

>  <m_primary>  (23) 
energy

$$$$
23:0
     RDKit          3D

 50 52  0  0  0  0  0  0  0  0999 V2000
   51.6290   24.7210   44.4770 N   0  0  0  0  0  0  0  0  0  0  0  0
   51.7600   23.1830   45.2530 S   0  0  0  0  0  0  0  0  0  0  0  0
   51.2630   23.2980   46.6660 O   0  0  0  0  0  0  0  0  0  0  0  0
   50.9230   22.1790   44.5090 O   0  0  0  0  0  0  0  0  0  0  0  0
   53.4260   22.6820   45.2430 N   0  0  0  0  0  0  0  0  0  0  0  0
   54.2930   23.7360   44.7140 C   0  0  0  0  0  0  0  0  0  0  0  0
   54.4130   24.8420   45.7120 C   0  0  0  0  0  0  0  0  0  0  0  0
   53.6600   25.8490   45.6200 O   0  0  0  0  0  0  0  0  0  0  0  0
   55.4340   24.7790   46.7140 N   0  0  0  0  0  0  0  0  0  0  0  0
   56.8530   24.8200   46.5030 C   0  0  0  0  0  0  0  0  0  0  0  0
   57.4890   24.0130   45.5430 C   0  0  0  0  0  0  0  0  0  0  0  0
   58.8700   24.1100   45.3480 C   0  0  0  0  0  0  0  0  0  0  0  0
   59.6240   25.0130   46.0990 C   0  0  0  0  0  0  0  0  0  0  0  0
   59.0030   25.8300   47.0560 C   0  0  0  0  0  0  0  0  0  0  0  0
   59.7920   26.8120   47.8330 C   0  0  0  0  0  0  0  0  0  0  0  0
   60.4630   26.4150   48.8240 O   0  0  0  0  0  0  0  0  0  0  0  0
   59.8090   28.2090   47.4810 N   0  0  0  0  0  0  0  0  0  0  0  0
   59.9800   28.5920   46.0690 C   0  0  0  0  0  0  0  0  0  0  0  0
   60.4090   30.0540   45.9320 C   0  0  0  0  0  0  0  0  0  0  0  0
   59.5590   30.9030   46.7710 N   0  0  0  0  0  0  0  0  0  0  0  0
   59.0410   32.1400   46.2550 C   0  0  0  0  0  0  0  0  0  0  0  0
   57.8680   32.1460   45.4830 C   0  0  0  0  0  0  0  0  0  0  0  0
   57.3590   33.3500   44.9870 C   0  0  0  0  0  0  0  0  0  0  0  0
   58.0180   34.5520   45.2540 C   0  0  0  0  0  0  0  0  0  0  0  0
   59.1920   34.5530   46.0150 C   0  0  0  0  0  0  0  0  0  0  0  0
   59.7030   33.3520   46.5160 C   0  0  0  0  0  0  0  0  0  0  0  0
   60.8540   33.3650   47.2360 F   0  0  0  0  0  0  0  0  0  0  0  0
   59.2620   30.5170   48.1580 C   0  0  0  0  0  0  0  0  0  0  0  0
   59.9660   29.2100   48.5430 C   0  0  0  0  0  0  0  0  0  0  0  0
   57.6120   25.7430   47.2340 C   0  0  0  0  0  0  0  0  0  0  0  0
   52.5280   24.8870   43.9730 H   0  0  0  0  0  0  0  0  0  0  0  0
   51.5680   25.4400   45.2330 H   0  0  0  0  0  0  0  0  0  0  0  0
   55.2903   23.3197   44.5088 H   0  0  0  0  0  0  0  0  0  0  0  0
   53.8577   24.1316   43.7844 H   0  0  0  0  0  0  0  0  0  0  0  0
   56.8987   23.3039   44.9442 H   0  0  0  0  0  0  0  0  0  0  0  0
   59.3640   23.4724   44.6001 H   0  0  0  0  0  0  0  0  0  0  0  0
   60.7101   25.0846   45.9400 H   0  0  0  0  0  0  0  0  0  0  0  0
   60.7493   27.9499   45.6152 H   0  0  0  0  0  0  0  0  0  0  0  0
   59.0138   28.4668   45.5583 H   0  0  0  0  0  0  0  0  0  0  0  0
   61.4567   30.1582   46.2506 H   0  0  0  0  0  0  0  0  0  0  0  0
   60.3076   30.3647   44.8817 H   0  0  0  0  0  0  0  0  0  0  0  0
   57.3482   31.2008   45.2679 H   0  0  0  0  0  0  0  0  0  0  0  0
   56.4380   33.3505   44.3855 H   0  0  0  0  0  0  0  0  0  0  0  0
   57.6138   35.4985   44.8658 H   0  0  0  0  0  0  0  0  0  0  0  0
   59.7135   35.4997   46.2193 H   0  0  0  0  0  0  0  0  0  0  0  0
   59.6016   31.3174   48.8319 H   0  0  0  0  0  0  0  0  0  0  0  0
   58.1766   30.3626   48.2474 H   0  0  0  0  0  0  0  0  0  0  0  0
   61.0368   29.4079   48.6984 H   0  0  0  0  0  0  0  0  0  0  0  0
   59.5139   28.8215   49.4675 H   0  0  0  0  0  0  0  0  0  0  0  0
   57.1134   26.4071   47.9554 H   0  0  0  0  0  0  0  0  0  0  0  0
  1  2  1  0
  2  3  2  0
  2  4  2  0
  2  5  1  0
  5  6  1  0
  6  7  1  0
  7  8  2  0
  7  9  1  0
  9 10  1  0
 10 11  2  0
 11 12  1  0
 12 13  2  0
 13 14  1  0
 14 15  1  0
 15 16  2  0
 15 17  1  0
 17 18  1  0
 18 19  1  0
 19 20  1  0
 20 21  1  0
 21 22  2  0
 22 23  1  0
 23 24  2  0
 24 25  1  0
 25 26  2  0
 26 27  1  0
 20 28  1  0
 28 29  1  0
 14 30  2  0
 30 10  1  0
 29 17  1  0
 26 21  1  0
  1 31  1  0
  1 32  1  0
  6 33  1  0
  6 34  1  0
 11 35  1  0
 12 36  1  0
 13 37  1  0
 18 38  1  0
 18 39  1  0
 19 40  1  0
 19 41  1  0
 22 42  1  0
 23 43  1  0
 24 44  1  0
 25 45  1  0
 28 46  1  0
 28 47  1  0
 29 48  1  0
 29 49  1  0
 30 50  1  0
M  CHG  2   5  -1   9  -1
M  END
>  <UniqueID>  (24) 
22

>  <SMILES>  (24) 
NS(=O)(=O)[N-]CC(=O)[N-]c1cccc(C(=O)N2CCN(c3ccccc3F)CC2)c1

>  <Energy>  (24) 
60.55900095765304

>  <Genealogy>  (24) 
NS(=O)(=O)[N-]CC(=O)[N-]c1cccc(C(=O)N2CCN(c3ccccc3F)CC2)c1 (protonated)
NS(=O)(=O)[N-]CC(=O)[N-]c1cccc(C(=O)N2CCN(c3ccccc3F)CC2)c1 (3D coordinates assigned)
NS(=O)(=O)[N-]CC(=O)[N-]c1cccc(C(=O)N2CCN(c3ccccc3F)CC2)c1 (nonaromatic ring conformer: 60.55900095765304 kcal/mol)

>  <smiles>  (24) 
NS(=O)(=O)NCC(=O)Nc1cccc(C(=O)N2CCN(c3ccccc3F)CC2)c1

>  <score_type>  (24) 
oracle

>  <origin>  (24) 
adg

>  <m_score__min__energy>  (24) 
-12.800000000000001

>  <m_primary>  (24) 
energy

$$$$
24:0
     RDKit          3D

 63 66  0  0  0  0  0  0  0  0999 V2000
   54.7710   26.3260   45.9530 N   0  0  0  0  0  0  0  0  0  0  0  0
   55.9410   25.0620   46.1090 S   0  0  0  0  0  0  0  0  0  0  0  0
   55.2730   23.7330   45.8970 O   0  0  0  0  0  0  0  0  0  0  0  0
   56.5370   25.1070   47.4900 O   0  0  0  0  0  0  0  0  0  0  0  0
   57.2270   25.2920   44.8920 C   0  0  0  0  0  0  0  0  0  0  0  0
   58.0720   26.4830   45.2480 C   0  0  0  0  0  0  0  0  0  0  0  0
   57.5080   27.7690   45.2700 C   0  0  0  0  0  0  0  0  0  0  0  0
   58.2760   28.8690   45.6610 C   0  0  0  0  0  0  0  0  0  0  0  0
   59.6140   28.6960   46.0490 C   0  0  0  0  0  0  0  0  0  0  0  0
   60.4170   29.8760   46.5270 C   0  0  0  0  0  0  0  0  0  0  0  0
   59.7390   30.5570   47.6300 N   0  0  0  0  0  0  0  0  0  0  0  0
   60.2360   31.5220   48.3520 C   0  0  0  0  0  0  0  0  0  0  0  0
   60.1690   32.8780   47.8850 N   0  0  0  0  0  0  0  0  0  0  0  0
   59.2670   33.3380   46.8650 C   0  0  0  0  0  0  0  0  0  0  0  0
   57.9050   32.9860   46.8770 C   0  0  0  0  0  0  0  0  0  0  0  0
   57.0440   33.4660   45.8850 C   0  0  0  0  0  0  0  0  0  0  0  0
   57.5290   34.3100   44.8840 C   0  0  0  0  0  0  0  0  0  0  0  0
   58.8750   34.6830   44.8780 C   0  0  0  0  0  0  0  0  0  0  0  0
   59.7410   34.2050   45.8680 C   0  0  0  0  0  0  0  0  0  0  0  0
   60.9070   31.2530   49.5910 N   0  0  0  0  0  0  0  0  0  0  0  0
   60.2690   31.6560   50.8490 C   0  0  0  0  0  0  0  0  0  0  0  0
   61.0960   32.7530   51.5260 C   0  0  0  0  0  0  0  0  0  0  0  0
   62.5340   32.4460   51.4880 N   0  0  0  0  0  0  0  0  0  0  0  0
   63.4370   33.3140   52.1960 C   0  0  0  0  0  0  0  0  0  0  0  0
   63.2080   33.5780   53.4070 O   0  0  0  0  0  0  0  0  0  0  0  0
   64.6560   33.9230   51.5410 C   0  0  2  0  0  0  0  0  0  0  0  0
   64.9070   33.4400   50.0970 C   0  0  0  0  0  0  0  0  0  0  0  0
   66.2970   32.7720   50.0790 C   0  0  0  0  0  0  0  0  0  0  0  0
   66.8470   32.9080   51.4140 N   0  0  0  0  0  0  0  0  0  0  0  0
   65.9030   33.5520   52.2420 C   0  0  0  0  0  0  0  0  0  0  0  0
   66.1290   33.8010   53.4560 O   0  0  0  0  0  0  0  0  0  0  0  0
   62.9990   31.1700   50.9220 C   0  0  0  0  0  0  0  0  0  0  0  0
   62.3400   30.9300   49.5590 C   0  0  0  0  0  0  0  0  0  0  0  0
   60.1820   27.4130   46.0130 C   0  0  0  0  0  0  0  0  0  0  0  0
   59.4130   26.3130   45.6230 C   0  0  0  0  0  0  0  0  0  0  0  0
   55.1580   27.0170   45.2700 H   0  0  0  0  0  0  0  0  0  0  0  0
   57.8609   24.3936   44.8591 H   0  0  0  0  0  0  0  0  0  0  0  0
   56.7642   25.4615   43.9086 H   0  0  0  0  0  0  0  0  0  0  0  0
   56.4570   27.9110   44.9781 H   0  0  0  0  0  0  0  0  0  0  0  0
   57.8303   29.8746   45.6648 H   0  0  0  0  0  0  0  0  0  0  0  0
   61.4016   29.5261   46.8707 H   0  0  0  0  0  0  0  0  0  0  0  0
   60.5304   30.5846   45.6933 H   0  0  0  0  0  0  0  0  0  0  0  0
   60.8630   33.5560   48.2750 H   0  0  0  0  0  0  0  0  0  0  0  0
   57.5156   32.3305   47.6699 H   0  0  0  0  0  0  0  0  0  0  0  0
   55.9824   33.1780   45.8933 H   0  0  0  0  0  0  0  0  0  0  0  0
   56.8516   34.6809   44.1007 H   0  0  0  0  0  0  0  0  0  0  0  0
   59.2551   35.3539   44.0935 H   0  0  0  0  0  0  0  0  0  0  0  0
   60.7978   34.5101   45.8648 H   0  0  0  0  0  0  0  0  0  0  0  0
   59.2589   32.0378   50.6395 H   0  0  0  0  0  0  0  0  0  0  0  0
   60.2065   30.7851   51.5181 H   0  0  0  0  0  0  0  0  0  0  0  0
   60.9202   33.7058   51.0052 H   0  0  0  0  0  0  0  0  0  0  0  0
   60.7852   32.8188   52.5791 H   0  0  0  0  0  0  0  0  0  0  0  0
   64.4331   34.9997   51.5724 H   0  0  0  0  0  0  0  0  0  0  0  0
   64.1352   32.7137   49.8023 H   0  0  0  0  0  0  0  0  0  0  0  0
   64.8671   34.2814   49.3896 H   0  0  0  0  0  0  0  0  0  0  0  0
   66.2021   31.7082   49.8155 H   0  0  0  0  0  0  0  0  0  0  0  0
   66.9520   33.2460   49.3331 H   0  0  0  0  0  0  0  0  0  0  0  0
   64.0914   31.2032   50.7976 H   0  0  0  0  0  0  0  0  0  0  0  0
   62.7259   30.3515   51.6043 H   0  0  0  0  0  0  0  0  0  0  0  0
   62.8328   31.5636   48.8069 H   0  0  0  0  0  0  0  0  0  0  0  0
   62.4489   29.8653   49.3050 H   0  0  0  0  0  0  0  0  0  0  0  0
   61.2365   27.2727   46.2928 H   0  0  0  0  0  0  0  0  0  0  0  0
   59.8617   25.3087   45.6101 H   0  0  0  0  0  0  0  0  0  0  0  0
  1  2  1  0
  2  3  2  0
  2  4  2  0
  2  5  1  0
  5  6  1  0
  6  7  2  0
  7  8  1  0
  8  9  2  0
  9 10  1  0
 10 11  1  0
 11 12  2  3
 12 13  1  0
 13 14  1  0
 14 15  2  0
 15 16  1  0
 16 17  2  0
 17 18  1  0
 18 19  2  0
 12 20  1  0
 20 21  1  0
 21 22  1  0
 22 23  1  0
 23 24  1  0
 24 25  2  0
 24 26  1  0
 26 27  1  0
 27 28  1  0
 28 29  1  0
 29 30  1  0
 30 31  2  0
 23 32  1  0
 32 33  1  0
  9 34  1  0
 34 35  2  0
 35  6  1  0
 19 14  1  0
 33 20  1  0
 30 26  1  0
  1 36  1  0
  5 37  1  0
  5 38  1  0
  7 39  1  0
  8 40  1  0
 10 41  1  0
 10 42  1  0
 13 43  1  0
 15 44  1  0
 16 45  1  0
 17 46  1  0
 18 47  1  0
 19 48  1  0
 21 49  1  0
 21 50  1  0
 22 51  1  0
 22 52  1  0
 26 53  1  6
 27 54  1  0
 27 55  1  0
 28 56  1  0
 28 57  1  0
 32 58  1  0
 32 59  1  0
 33 60  1  0
 33 61  1  0
 34 62  1  0
 35 63  1  0
M  CHG  2   1  -1  29  -1
M  END
>  <UniqueID>  (25) 
23

>  <SMILES>  (25) 
[NH-]S(=O)(=O)Cc1ccc(CN=C(Nc2ccccc2)N2CCN(C(=O)[C@@H]3CC[N-]C3=O)CC2)cc1

>  <Energy>  (25) 
76.10138953963606

>  <Genealogy>  (25) 
[NH-]S(=O)(=O)Cc1ccc(CN=C(Nc2ccccc2)N2CCN(C(=O)C3CC[N-]C3=O)CC2)cc1 (protonated)
[NH-]S(=O)(=O)Cc1ccc(CN=C(Nc2ccccc2)N2CCN(C(=O)[C@@H]3CC[N-]C3=O)CC2)cc1 (chirality)
[NH-]S(=O)(=O)Cc1ccc(CN=C(Nc2ccccc2)N2CCN(C(=O)[C@@H]3CC[N-]C3=O)CC2)cc1 (3D coordinates assigned)
[NH-]S(=O)(=O)Cc1ccc(CN=C(Nc2ccccc2)N2CCN(C(=O)[C@@H]3CC[N-]C3=O)CC2)cc1 (nonaromatic ring conformer: 76.10138953963606 kcal/mol)

>  <smiles>  (25) 
NS(=O)(=O)Cc1ccc(CN=C(Nc2ccccc2)N2CCN(C(=O)C3CCNC3=O)CC2)cc1

>  <score_type>  (25) 
oracle

>  <origin>  (25) 
adg

>  <m_score__min__energy>  (25) 
-12.31

>  <m_primary>  (25) 
energy

$$$$
25:0
     RDKit          3D

 74 79  0  0  0  0  0  0  0  0999 V2000
   62.5860   33.8540   45.9170 O   0  0  0  0  0  0  0  0  0  0  0  0
   61.9560   33.8730   47.0100 C   0  0  0  0  0  0  0  0  0  0  0  0
   62.6650   33.5120   48.2580 C   0  0  0  0  0  0  0  0  0  0  0  0
   63.9050   32.8510   48.2070 C   0  0  0  0  0  0  0  0  0  0  0  0
   64.5340   32.4430   49.3870 C   0  0  0  0  0  0  0  0  0  0  0  0
   63.9290   32.6830   50.6230 C   0  0  0  0  0  0  0  0  0  0  0  0
   62.7070   33.3700   50.6900 C   0  0  0  0  0  0  0  0  0  0  0  0
   61.9470   33.4670   51.9790 C   0  0  0  0  0  0  0  0  0  0  0  0
   60.7950   32.5500   51.8840 N   0  0  0  0  0  0  0  0  0  0  0  0
   60.4850   31.8840   53.1670 C   0  0  0  0  0  0  0  0  0  0  0  0
   59.3680   30.8360   52.9770 C   0  0  0  0  0  0  0  0  0  0  0  0
   58.9330   30.8170   51.5770 N   0  0  0  0  0  0  0  0  0  0  0  0
   59.3660   29.7670   50.6920 C   0  0  0  0  0  0  0  0  0  0  0  0
   60.3410   28.8430   51.1000 C   0  0  0  0  0  0  0  0  0  0  0  0
   60.7460   27.8180   50.2410 C   0  0  0  0  0  0  0  0  0  0  0  0
   61.6850   26.9340   50.6540 F   0  0  0  0  0  0  0  0  0  0  0  0
   60.1850   27.6980   48.9640 C   0  0  0  0  0  0  0  0  0  0  0  0
   60.5850   26.6280   48.1600 O   0  0  0  0  0  0  0  0  0  0  0  0
   59.2250   28.6410   48.5330 C   0  0  0  0  0  0  0  0  0  0  0  0
   58.6480   28.5870   47.1770 C   0  0  0  0  0  0  0  0  0  0  0  0
   58.4470   29.7150   46.5510 N   0  0  0  0  0  0  0  0  0  0  0  0
   57.9180   29.8870   45.2250 C   0  0  0  0  0  0  0  0  0  0  0  0
   57.9760   31.1540   44.6320 C   0  0  0  0  0  0  0  0  0  0  0  0
   57.4300   31.3660   43.3610 C   0  0  0  0  0  0  0  0  0  0  0  0
   56.8140   30.3130   42.6800 C   0  0  0  0  0  0  0  0  0  0  0  0
   56.7470   29.0460   43.2630 C   0  0  0  0  0  0  0  0  0  0  0  0
   57.2950   28.8330   44.5360 C   0  0  0  0  0  0  0  0  0  0  0  0
   57.2070   27.2650   45.2940 S   0  0  0  0  0  0  0  0  0  0  0  0
   57.4430   26.1780   44.2840 O   0  0  0  0  0  0  0  0  0  0  0  0
   55.8730   27.0770   45.9580 O   0  0  0  0  0  0  0  0  0  0  0  0
   58.5120   27.2440   46.4950 C   0  0  0  0  0  0  0  0  0  0  0  0
   58.8270   29.6700   49.4020 C   0  0  0  0  0  0  0  0  0  0  0  0
   58.5120   32.1070   51.0190 C   0  0  0  0  0  0  0  0  0  0  0  0
   59.5940   33.1740   51.2930 C   0  0  0  0  0  0  0  0  0  0  0  0
   62.1010   33.8110   49.5050 C   0  0  0  0  0  0  0  0  0  0  0  0
   60.5530   34.2120   47.0180 N   0  0  0  0  0  0  0  0  0  0  0  0
   59.6120   33.4350   47.8450 C   0  0  0  0  0  0  0  0  0  0  0  0
   58.1570   33.7650   47.4990 C   0  0  0  0  0  0  0  0  0  0  0  0
   57.9520   33.7110   45.9820 C   0  0  0  0  0  0  0  0  0  0  0  0
   58.9200   34.6380   45.2110 C   0  0  0  0  0  0  0  0  0  0  0  0
   60.0390   35.2250   46.0860 C   0  0  0  0  0  0  0  0  0  0  0  0
   64.3817   32.6543   47.2354 H   0  0  0  0  0  0  0  0  0  0  0  0
   65.5071   31.9321   49.3421 H   0  0  0  0  0  0  0  0  0  0  0  0
   64.4120   32.3323   51.5470 H   0  0  0  0  0  0  0  0  0  0  0  0
   62.5932   33.1727   52.8192 H   0  0  0  0  0  0  0  0  0  0  0  0
   61.6078   34.4989   52.1524 H   0  0  0  0  0  0  0  0  0  0  0  0
   61.3899   31.3843   53.5432 H   0  0  0  0  0  0  0  0  0  0  0  0
   60.1426   32.6417   53.8871 H   0  0  0  0  0  0  0  0  0  0  0  0
   59.7497   29.8421   53.2536 H   0  0  0  0  0  0  0  0  0  0  0  0
   58.5132   31.0982   53.6178 H   0  0  0  0  0  0  0  0  0  0  0  0
   60.7886   28.9264   52.1014 H   0  0  0  0  0  0  0  0  0  0  0  0
   61.5500   26.4580   47.9110 H   0  0  0  0  0  0  0  0  0  0  0  0
   58.4534   31.9875   45.1681 H   0  0  0  0  0  0  0  0  0  0  0  0
   57.4859   32.3622   42.8979 H   0  0  0  0  0  0  0  0  0  0  0  0
   56.3811   30.4823   41.6830 H   0  0  0  0  0  0  0  0  0  0  0  0
   56.2652   28.2165   42.7246 H   0  0  0  0  0  0  0  0  0  0  0  0
   58.2906   26.4776   47.2523 H   0  0  0  0  0  0  0  0  0  0  0  0
   59.4569   27.0175   45.9794 H   0  0  0  0  0  0  0  0  0  0  0  0
   58.0838   30.4082   49.0663 H   0  0  0  0  0  0  0  0  0  0  0  0
   58.3663   32.0051   49.9335 H   0  0  0  0  0  0  0  0  0  0  0  0
   57.5686   32.4168   51.4923 H   0  0  0  0  0  0  0  0  0  0  0  0
   59.8683   33.6633   50.3467 H   0  0  0  0  0  0  0  0  0  0  0  0
   59.1929   33.9154   51.9997 H   0  0  0  0  0  0  0  0  0  0  0  0
   61.1723   34.3984   49.5551 H   0  0  0  0  0  0  0  0  0  0  0  0
   59.7861   32.3626   47.6728 H   0  0  0  0  0  0  0  0  0  0  0  0
   59.7836   33.6948   48.9000 H   0  0  0  0  0  0  0  0  0  0  0  0
   57.4930   33.0331   47.9822 H   0  0  0  0  0  0  0  0  0  0  0  0
   57.9220   34.7777   47.8585 H   0  0  0  0  0  0  0  0  0  0  0  0
   58.1115   32.6768   45.6428 H   0  0  0  0  0  0  0  0  0  0  0  0
   56.9285   34.0564   45.7746 H   0  0  0  0  0  0  0  0  0  0  0  0
   59.3821   34.0589   44.3979 H   0  0  0  0  0  0  0  0  0  0  0  0
   58.3258   35.4847   44.8369 H   0  0  0  0  0  0  0  0  0  0  0  0
   60.8593   35.5708   45.4398 H   0  0  0  0  0  0  0  0  0  0  0  0
   59.6309   36.0657   46.6663 H   0  0  0  0  0  0  0  0  0  0  0  0
  1  2  2  0
  2  3  1  0
  3  4  2  0
  4  5  1  0
  5  6  2  0
  6  7  1  0
  7  8  1  0
  8  9  1  0
  9 10  1  0
 10 11  1  0
 11 12  1  0
 12 13  1  0
 13 14  2  0
 14 15  1  0
 15 16  1  0
 15 17  2  0
 17 18  1  0
 17 19  1  0
 19 20  1  0
 20 21  2  0
 21 22  1  0
 22 23  2  0
 23 24  1  0
 24 25  2  0
 25 26  1  0
 26 27  2  0
 27 28  1  0
 28 29  2  0
 28 30  2  0
 28 31  1  0
 19 32  2  0
 12 33  1  0
 33 34  1  0
  7 35  2  0
  2 36  1  0
 36 37  1  0
 37 38  1  0
 38 39  1  0
 39 40  1  0
 40 41  1  0
 35  3  1  0
 41 36  1  0
 34  9  1  0
 32 13  1  0
 31 20  1  0
 27 22  1  0
  4 42  1  0
  5 43  1  0
  6 44  1  0
  8 45  1  0
  8 46  1  0
 10 47  1  0
 10 48  1  0
 11 49  1  0
 11 50  1  0
 14 51  1  0
 18 52  1  0
 23 53  1  0
 24 54  1  0
 25 55  1  0
 26 56  1  0
 31 57  1  0
 31 58  1  0
 32 59  1  0
 33 60  1  0
 33 61  1  0
 34 62  1  0
 34 63  1  0
 35 64  1  0
 37 65  1  0
 37 66  1  0
 38 67  1  0
 38 68  1  0
 39 69  1  0
 39 70  1  0
 40 71  1  0
 40 72  1  0
 41 73  1  0
 41 74  1  0
M  END
>  <UniqueID>  (26) 
24

>  <SMILES>  (26) 
O=C(c1cccc(CN2CCN(c3cc(F)c(O)c(C4=Nc5ccccc5S(=O)(=O)C4)c3)CC2)c1)N1CCCCC1

>  <Energy>  (26) 
104.64511155048669

>  <Genealogy>  (26) 
O=C(c1cccc(CN2CCN(c3cc(F)c(O)c(C4=Nc5ccccc5S(=O)(=O)C4)c3)CC2)c1)N1CCCCC1 (3D coordinates assigned)
O=C(c1cccc(CN2CCN(c3cc(F)c(O)c(C4=Nc5ccccc5S(=O)(=O)C4)c3)CC2)c1)N1CCCCC1 (nonaromatic ring conformer: 104.64511155048669 kcal/mol)

>  <smiles>  (26) 
O=C(c1cccc(CN2CCN(c3cc(F)c(O)c(C4=Nc5ccccc5S(=O)(=O)C4)c3)CC2)c1)N1CCCCC1

>  <score_type>  (26) 
oracle

>  <origin>  (26) 
adg

>  <m_score__min__energy>  (26) 
-10.73

>  <m_primary>  (26) 
energy

$$$$
26:0
     RDKit          3D

 76 80  0  0  0  0  0  0  0  0999 V2000
   57.6590   21.1960   45.4590 C   0  0  0  0  0  0  0  0  0  0  0  0
   58.3790   22.3520   44.8890 N   0  0  0  0  0  0  0  0  0  0  0  0
   58.7330   23.3090   45.9710 C   0  0  0  0  0  0  0  0  0  0  0  0
   58.9480   24.7300   45.4370 C   0  0  0  0  0  0  0  0  0  0  0  0
   57.7240   25.1880   44.7700 N   0  0  0  0  0  0  0  0  0  0  0  0
   57.4480   26.5940   44.6550 C   0  0  0  0  0  0  0  0  0  0  0  0
   56.8550   27.2860   45.7210 C   0  0  0  0  0  0  0  0  0  0  0  0
   56.6030   28.6560   45.6230 C   0  0  0  0  0  0  0  0  0  0  0  0
   56.9280   29.3540   44.4570 C   0  0  0  0  0  0  0  0  0  0  0  0
   56.6990   30.7710   44.4040 N   0  0  0  0  0  0  0  0  0  0  0  0
   57.7040   31.7680   44.1660 C   0  0  0  0  0  0  0  0  0  0  0  0
   58.0800   31.9930   42.9850 O   0  0  0  0  0  0  0  0  0  0  0  0
   58.3220   32.5070   45.2810 C   0  0  0  0  0  0  0  0  0  0  0  0
   58.6440   33.8650   45.1350 C   0  0  0  0  0  0  0  0  0  0  0  0
   59.3060   34.5440   46.1590 C   0  0  0  0  0  0  0  0  0  0  0  0
   59.7020   33.8630   47.3220 C   0  0  0  0  0  0  0  0  0  0  0  0
   60.4880   34.5630   48.4090 C   0  0  0  0  0  0  0  0  0  0  0  0
   61.8290   33.9710   48.5960 N   0  0  0  0  0  0  0  0  0  0  0  0
   62.3880   33.4630   47.3300 C   0  0  0  0  0  0  0  0  0  0  0  0
   63.8740   33.1240   47.5290 C   0  0  0  0  0  0  0  0  0  0  0  0
   64.1670   32.5720   48.8770 N   0  0  0  0  0  0  0  0  0  0  0  0
   65.0650   33.3740   49.7530 C   0  0  0  0  0  0  0  0  0  0  0  0
   66.3980   32.6590   50.0960 C   0  0  0  0  0  0  0  0  0  0  0  0
   67.2010   33.4640   51.1300 C   0  0  0  0  0  0  0  0  0  0  0  0
   66.4110   33.7520   52.4270 C   0  0  0  0  0  0  0  0  0  0  0  0
   64.9240   33.3760   52.3360 C   0  0  0  0  0  0  0  0  0  0  0  0
   64.3030   33.8700   51.0190 C   0  0  0  0  0  0  0  0  0  0  0  0
   63.0060   31.9610   49.5600 C   0  0  0  0  0  0  0  0  0  0  0  0
   61.7680   32.8840   49.5970 C   0  0  0  0  0  0  0  0  0  0  0  0
   59.3340   32.5200   47.4850 C   0  0  0  0  0  0  0  0  0  0  0  0
   58.6420   31.8470   46.4740 C   0  0  0  0  0  0  0  0  0  0  0  0
   57.5330   28.6640   43.3920 C   0  0  0  0  0  0  0  0  0  0  0  0
   57.7840   27.2920   43.4860 C   0  0  0  0  0  0  0  0  0  0  0  0
   58.3440   26.6460   42.4360 F   0  0  0  0  0  0  0  0  0  0  0  0
   56.8210   24.2030   44.1700 C   0  0  0  0  0  0  0  0  0  0  0  0
   57.6130   22.9530   43.7610 C   0  0  0  0  0  0  0  0  0  0  0  0
   57.6919   21.2488   46.5572 H   0  0  0  0  0  0  0  0  0  0  0  0
   56.6120   21.2138   45.1222 H   0  0  0  0  0  0  0  0  0  0  0  0
   58.1367   20.2641   45.1222 H   0  0  0  0  0  0  0  0  0  0  0  0
   59.2760   21.9800   44.4890 H   0  0  0  0  0  0  0  0  0  0  0  0
   57.9177   23.3271   46.7092 H   0  0  0  0  0  0  0  0  0  0  0  0
   59.6761   22.9720   46.4260 H   0  0  0  0  0  0  0  0  0  0  0  0
   59.1854   25.4046   46.2728 H   0  0  0  0  0  0  0  0  0  0  0  0
   59.7814   24.7316   44.7191 H   0  0  0  0  0  0  0  0  0  0  0  0
   56.5865   26.7458   46.6408 H   0  0  0  0  0  0  0  0  0  0  0  0
   56.1456   29.1893   46.4694 H   0  0  0  0  0  0  0  0  0  0  0  0
   58.3738   34.3961   44.2104 H   0  0  0  0  0  0  0  0  0  0  0  0
   59.5188   35.6182   46.0548 H   0  0  0  0  0  0  0  0  0  0  0  0
   60.6031   35.6226   48.1368 H   0  0  0  0  0  0  0  0  0  0  0  0
   59.9341   34.4506   49.3527 H   0  0  0  0  0  0  0  0  0  0  0  0
   61.8426   32.5578   47.0248 H   0  0  0  0  0  0  0  0  0  0  0  0
   62.2872   34.2310   46.5489 H   0  0  0  0  0  0  0  0  0  0  0  0
   64.1682   32.3802   46.7739 H   0  0  0  0  0  0  0  0  0  0  0  0
   64.4422   34.0602   47.4257 H   0  0  0  0  0  0  0  0  0  0  0  0
   65.3672   34.2595   49.1746 H   0  0  0  0  0  0  0  0  0  0  0  0
   66.1771   31.6630   50.5074 H   0  0  0  0  0  0  0  0  0  0  0  0
   66.9964   32.5707   49.1772 H   0  0  0  0  0  0  0  0  0  0  0  0
   68.1049   32.8940   51.3909 H   0  0  0  0  0  0  0  0  0  0  0  0
   67.4414   34.4349   50.6722 H   0  0  0  0  0  0  0  0  0  0  0  0
   66.8660   33.1766   53.2467 H   0  0  0  0  0  0  0  0  0  0  0  0
   66.4600   34.8370   52.6012 H   0  0  0  0  0  0  0  0  0  0  0  0
   64.8271   32.2816   52.3896 H   0  0  0  0  0  0  0  0  0  0  0  0
   64.3928   33.8549   53.1717 H   0  0  0  0  0  0  0  0  0  0  0  0
   63.2653   33.5091   50.9655 H   0  0  0  0  0  0  0  0  0  0  0  0
   64.3605   34.9685   51.0239 H   0  0  0  0  0  0  0  0  0  0  0  0
   62.7363   31.0351   49.0308 H   0  0  0  0  0  0  0  0  0  0  0  0
   63.3027   31.7695   50.6018 H   0  0  0  0  0  0  0  0  0  0  0  0
   60.8718   32.2769   49.4013 H   0  0  0  0  0  0  0  0  0  0  0  0
   61.7363   33.3531   50.5914 H   0  0  0  0  0  0  0  0  0  0  0  0
   59.5917   31.9922   48.4151 H   0  0  0  0  0  0  0  0  0  0  0  0
   58.3481   30.7965   46.6158 H   0  0  0  0  0  0  0  0  0  0  0  0
   57.8111   29.2081   42.4773 H   0  0  0  0  0  0  0  0  0  0  0  0
   56.0484   23.9228   44.9011 H   0  0  0  0  0  0  0  0  0  0  0  0
   56.3468   24.6403   43.2790 H   0  0  0  0  0  0  0  0  0  0  0  0
   56.9074   22.2015   43.3771 H   0  0  0  0  0  0  0  0  0  0  0  0
   58.3417   23.2616   42.9970 H   0  0  0  0  0  0  0  0  0  0  0  0
  1  2  1  0
  2  3  1  0
  3  4  1  0
  4  5  1  0
  5  6  1  0
  6  7  2  0
  7  8  1  0
  8  9  2  0
  9 10  1  0
 10 11  1  0
 11 12  2  0
 11 13  1  0
 13 14  2  0
 14 15  1  0
 15 16  2  0
 16 17  1  0
 17 18  1  0
 18 19  1  0
 19 20  1  0
 20 21  1  0
 21 22  1  0
 22 23  1  0
 23 24  1  0
 24 25  1  0
 25 26  1  0
 26 27  1  0
 21 28  1  0
 28 29  1  0
 16 30  1  0
 30 31  2  0
  9 32  1  0
 32 33  2  0
 33 34  1  0
  5 35  1  0
 35 36  1  0
 36  2  1  0
 33  6  1  0
 31 13  1  0
 29 18  1  0
 27 22  1  0
  1 37  1  0
  1 38  1  0
  1 39  1  0
  2 40  1  0
  3 41  1  0
  3 42  1  0
  4 43  1  0
  4 44  1  0
  7 45  1  0
  8 46  1  0
 14 47  1  0
 15 48  1  0
 17 49  1  0
 17 50  1  0
 19 51  1  0
 19 52  1  0
 20 53  1  0
 20 54  1  0
 22 55  1  0
 23 56  1  0
 23 57  1  0
 24 58  1  0
 24 59  1  0
 25 60  1  0
 25 61  1  0
 26 62  1  0
 26 63  1  0
 27 64  1  0
 27 65  1  0
 28 66  1  0
 28 67  1  0
 29 68  1  0
 29 69  1  0
 30 70  1  0
 31 71  1  0
 32 72  1  0
 35 73  1  0
 35 74  1  0
 36 75  1  0
 36 76  1  0
M  CHG  2   2   1  10  -1
M  END
>  <UniqueID>  (27) 
25

>  <SMILES>  (27) 
C[NH+]1CCN(c2ccc([N-]C(=O)c3ccc(CN4CCN(C5CCCCC5)CC4)cc3)cc2F)CC1

>  <Energy>  (27) 
116.78740686602785

>  <Genealogy>  (27) 
C[NH+]1CCN(c2ccc([N-]C(=O)c3ccc(CN4CCN(C5CCCCC5)CC4)cc3)cc2F)CC1 (protonated)
C[NH+]1CCN(c2ccc([N-]C(=O)c3ccc(CN4CCN(C5CCCCC5)CC4)cc3)cc2F)CC1 (3D coordinates assigned)
C[NH+]1CCN(c2ccc([N-]C(=O)c3ccc(CN4CCN(C5CCCCC5)CC4)cc3)cc2F)CC1 (nonaromatic ring conformer: 116.78740686602785 kcal/mol)

>  <smiles>  (27) 
CN1CCN(c2ccc(NC(=O)c3ccc(CN4CCN(C5CCCCC5)CC4)cc3)cc2F)CC1

>  <score_type>  (27) 
oracle

>  <origin>  (27) 
adg

>  <m_score__min__energy>  (27) 
-9.0999999999999996

>  <m_primary>  (27) 
energy

$$$$
27:0
     RDKit          3D

 54 56  0  0  0  0  0  0  0  0999 V2000
   61.3830   33.8160   46.0860 C   0  0  0  0  0  0  0  0  0  0  0  0
   60.7540   33.7970   47.4530 C   0  0  0  0  0  0  0  0  0  0  0  0
   61.5180   34.2140   48.5560 C   0  0  0  0  0  0  0  0  0  0  0  0
   60.9790   34.2040   49.8430 C   0  0  0  0  0  0  0  0  0  0  0  0
   59.6580   33.7750   50.0590 C   0  0  0  0  0  0  0  0  0  0  0  0
   59.0640   33.7540   51.3750 N   0  0  0  0  0  0  0  0  0  0  0  0
   58.8690   32.5380   52.1800 C   0  0  0  0  0  0  0  0  0  0  0  0
   57.4250   32.4780   52.7380 C   0  0  0  0  0  0  0  0  0  0  0  0
   56.5190   31.5760   51.8870 C   0  0  0  0  0  0  0  0  0  0  0  0
   57.0220   30.1810   51.7940 N   0  0  0  0  0  0  0  0  0  0  0  0
   56.3460   29.3010   52.7600 C   0  0  0  0  0  0  0  0  0  0  0  0
   58.4950   30.0510   51.9190 C   0  0  0  0  0  0  0  0  0  0  0  0
   59.2180   31.2780   51.3540 C   0  0  0  0  0  0  0  0  0  0  0  0
   58.8970   33.3470   48.9610 C   0  0  0  0  0  0  0  0  0  0  0  0
   59.4330   33.3360   47.6630 C   0  0  0  0  0  0  0  0  0  0  0  0
   58.4190   32.7620   46.3290 S   0  0  0  0  0  0  0  0  0  0  0  0
   59.2110   32.7500   45.0500 O   0  0  0  0  0  0  0  0  0  0  0  0
   57.2370   33.6740   46.1670 O   0  0  0  0  0  0  0  0  0  0  0  0
   57.8430   31.1580   46.6470 N   0  0  0  0  0  0  0  0  0  0  0  0
   58.4220   29.9850   46.0650 C   0  0  0  0  0  0  0  0  0  0  0  0
   59.5560   29.3700   46.6370 C   0  0  0  0  0  0  0  0  0  0  0  0
   60.2700   29.9460   48.1370 Cl  0  0  0  0  0  0  0  0  0  0  0  0
   60.1050   28.2290   46.0440 C   0  0  0  0  0  0  0  0  0  0  0  0
   59.5290   27.6860   44.8960 C   0  0  0  0  0  0  0  0  0  0  0  0
   58.3900   28.2690   44.3400 C   0  0  0  0  0  0  0  0  0  0  0  0
   57.8230   29.4150   44.9210 C   0  0  0  0  0  0  0  0  0  0  0  0
   56.3820   30.1580   44.2080 S   0  0  0  0  0  0  0  0  0  0  0  0
   56.2700   31.8450   44.5780 N   0  0  0  0  0  0  0  0  0  0  0  0
   55.1580   29.4670   44.7400 O   0  0  0  0  0  0  0  0  0  0  0  0
   56.4350   29.9990   42.7140 O   0  0  0  0  0  0  0  0  0  0  0  0
   62.4779   33.8491   46.1866 H   0  0  0  0  0  0  0  0  0  0  0  0
   61.0926   32.9087   45.5361 H   0  0  0  0  0  0  0  0  0  0  0  0
   61.0383   34.7041   45.5361 H   0  0  0  0  0  0  0  0  0  0  0  0
   62.5534   34.5524   48.4031 H   0  0  0  0  0  0  0  0  0  0  0  0
   61.5922   34.5341   50.6945 H   0  0  0  0  0  0  0  0  0  0  0  0
   58.7260   34.6660   51.7600 H   0  0  0  0  0  0  0  0  0  0  0  0
   59.5537   32.5702   53.0403 H   0  0  0  0  0  0  0  0  0  0  0  0
   57.4565   32.0835   53.7643 H   0  0  0  0  0  0  0  0  0  0  0  0
   57.0089   33.4961   52.7170 H   0  0  0  0  0  0  0  0  0  0  0  0
   55.5159   31.5589   52.3382 H   0  0  0  0  0  0  0  0  0  0  0  0
   56.5003   31.9907   50.8683 H   0  0  0  0  0  0  0  0  0  0  0  0
   56.5924   29.6217   53.7830 H   0  0  0  0  0  0  0  0  0  0  0  0
   55.2579   29.3588   52.6096 H   0  0  0  0  0  0  0  0  0  0  0  0
   56.6824   28.2645   52.6096 H   0  0  0  0  0  0  0  0  0  0  0  0
   58.7550   29.9413   52.9822 H   0  0  0  0  0  0  0  0  0  0  0  0
   58.8131   29.1686   51.3444 H   0  0  0  0  0  0  0  0  0  0  0  0
   60.3041   31.1085   51.3932 H   0  0  0  0  0  0  0  0  0  0  0  0
   58.8966   31.4335   50.3135 H   0  0  0  0  0  0  0  0  0  0  0  0
   57.8608   33.0137   49.1197 H   0  0  0  0  0  0  0  0  0  0  0  0
   60.9955   27.7574   46.4851 H   0  0  0  0  0  0  0  0  0  0  0  0
   59.9739   26.7957   44.4276 H   0  0  0  0  0  0  0  0  0  0  0  0
   57.9334   27.8285   43.4414 H   0  0  0  0  0  0  0  0  0  0  0  0
   57.2070   32.2710   44.3940 H   0  0  0  0  0  0  0  0  0  0  0  0
   56.0770   31.9310   45.6020 H   0  0  0  0  0  0  0  0  0  0  0  0
  1  2  1  0
  2  3  2  0
  3  4  1  0
  4  5  2  0
  5  6  1  0
  6  7  1  0
  7  8  1  0
  8  9  1  0
  9 10  1  0
 10 11  1  0
 10 12  1  0
 12 13  1  0
  5 14  1  0
 14 15  2  0
 15 16  1  0
 16 17  2  0
 16 18  2  0
 16 19  1  0
 19 20  1  0
 20 21  2  0
 21 22  1  0
 21 23  1  0
 23 24  2  0
 24 25  1  0
 25 26  2  0
 26 27  1  0
 27 28  1  0
 27 29  2  0
 27 30  2  0
 15  2  1  0
 26 20  1  0
 13  7  1  0
  1 31  1  0
  1 32  1  0
  1 33  1  0
  3 34  1  0
  4 35  1  0
  6 36  1  0
  7 37  1  0
  8 38  1  0
  8 39  1  0
  9 40  1  0
  9 41  1  0
 11 42  1  0
 11 43  1  0
 11 44  1  0
 12 45  1  0
 12 46  1  0
 13 47  1  0
 13 48  1  0
 14 49  1  0
 23 50  1  0
 24 51  1  0
 25 52  1  0
 28 53  1  0
 28 54  1  0
M  CHG  1  19  -1
M  END
>  <UniqueID>  (28) 
26

>  <SMILES>  (28) 
Cc1ccc(NC2CCN(C)CC2)cc1S(=O)(=O)[N-]c1c(Cl)cccc1S(N)(=O)=O

>  <Energy>  (28) 
74.25731373431914

>  <Genealogy>  (28) 
Cc1ccc(NC2CCN(C)CC2)cc1S(=O)(=O)[N-]c1c(Cl)cccc1S(N)(=O)=O (protonated)
Cc1ccc(NC2CCN(C)CC2)cc1S(=O)(=O)[N-]c1c(Cl)cccc1S(N)(=O)=O (3D coordinates assigned)
Cc1ccc(NC2CCN(C)CC2)cc1S(=O)(=O)[N-]c1c(Cl)cccc1S(N)(=O)=O (nonaromatic ring conformer: 74.25731373431914 kcal/mol)

>  <smiles>  (28) 
Cc1ccc(NC2CCN(C)CC2)cc1S(=O)(=O)Nc1c(Cl)cccc1S(N)(=O)=O

>  <score_type>  (28) 
oracle

>  <origin>  (28) 
adg

>  <m_score__min__energy>  (28) 
-11.15

>  <m_primary>  (28) 
energy

$$$$
28:0
     RDKit          3D

 54 56  0  0  0  0  0  0  0  0999 V2000
   56.2680   29.7540   42.6610 C   0  0  0  0  0  0  0  0  0  0  0  0
   56.0660   29.7990   44.1700 C   0  0  0  0  0  0  0  0  0  0  0  0
   57.1390   29.0540   44.8540 N   0  0  0  0  0  0  0  0  0  0  0  0
   56.8340   27.9300   45.5700 C   0  0  0  0  0  0  0  0  0  0  0  0
   55.5210   27.4640   45.6320 O   0  0  0  0  0  0  0  0  0  0  0  0
   57.8310   27.2380   46.2540 C   0  0  0  0  0  0  0  0  0  0  0  0
   57.4400   25.7900   47.1770 Cl  0  0  0  0  0  0  0  0  0  0  0  0
   59.1390   27.7170   46.2050 C   0  0  0  0  0  0  0  0  0  0  0  0
   60.0450   27.1010   46.8350 O   0  0  0  0  0  0  0  0  0  0  0  0
   59.4320   28.8470   45.4850 N   0  0  0  0  0  0  0  0  0  0  0  0
   60.8090   29.3770   45.4670 C   0  0  0  0  0  0  0  0  0  0  0  0
   61.0240   30.2910   46.6360 C   0  0  0  0  0  0  0  0  0  0  0  0
   61.1130   31.5320   46.4400 O   0  0  0  0  0  0  0  0  0  0  0  0
   61.0750   29.7630   47.9690 N   0  0  0  0  0  0  0  0  0  0  0  0
   61.2460   30.6030   49.1190 C   0  0  0  0  0  0  0  0  0  0  0  0
   62.5480   30.8450   49.5760 C   0  0  0  0  0  0  0  0  0  0  0  0
   62.7700   31.6030   50.7270 C   0  0  0  0  0  0  0  0  0  0  0  0
   61.6940   32.1320   51.4320 C   0  0  0  0  0  0  0  0  0  0  0  0
   60.3910   31.9230   50.9770 C   0  0  0  0  0  0  0  0  0  0  0  0
   60.1460   31.1750   49.8090 C   0  0  0  0  0  0  0  0  0  0  0  0
   58.7510   31.0340   49.3230 C   0  0  0  0  0  0  0  0  0  0  0  0
   58.1250   29.9500   49.4740 O   0  0  0  0  0  0  0  0  0  0  0  0
   58.1270   32.1100   48.6140 N   0  0  0  0  0  0  0  0  0  0  0  0
   58.6070   32.6700   47.3480 C   0  0  0  0  0  0  0  0  0  0  0  0
   59.4720   33.9110   47.6180 C   0  0  0  0  0  0  0  0  0  0  0  0
   60.0080   34.5000   46.3060 C   0  0  0  0  0  0  0  0  0  0  0  0
   58.8660   34.8200   45.3330 C   0  0  0  0  0  0  0  0  0  0  0  0
   57.9980   33.5830   45.0710 C   0  0  0  0  0  0  0  0  0  0  0  0
   57.4540   33.0080   46.3840 C   0  0  0  0  0  0  0  0  0  0  0  0
   58.4300   29.5210   44.8280 C   0  0  0  0  0  0  0  0  0  0  0  0
   58.6990   30.5820   44.1970 O   0  0  0  0  0  0  0  0  0  0  0  0
   57.3195   29.5198   42.4386 H   0  0  0  0  0  0  0  0  0  0  0  0
   55.6199   28.9782   42.2273 H   0  0  0  0  0  0  0  0  0  0  0  0
   56.0105   30.7315   42.2273 H   0  0  0  0  0  0  0  0  0  0  0  0
   56.0802   30.8461   44.5066 H   0  0  0  0  0  0  0  0  0  0  0  0
   55.0983   29.3367   44.4147 H   0  0  0  0  0  0  0  0  0  0  0  0
   61.5215   28.5408   45.5229 H   0  0  0  0  0  0  0  0  0  0  0  0
   60.9660   29.9405   44.5354 H   0  0  0  0  0  0  0  0  0  0  0  0
   60.7760   28.7730   48.1250 H   0  0  0  0  0  0  0  0  0  0  0  0
   63.4045   30.4333   49.0220 H   0  0  0  0  0  0  0  0  0  0  0  0
   63.7973   31.7822   51.0769 H   0  0  0  0  0  0  0  0  0  0  0  0
   61.8698   32.7150   52.3481 H   0  0  0  0  0  0  0  0  0  0  0  0
   59.5452   32.3477   51.5375 H   0  0  0  0  0  0  0  0  0  0  0  0
   59.2191   31.9009   46.8542 H   0  0  0  0  0  0  0  0  0  0  0  0
   58.8632   34.6698   48.1314 H   0  0  0  0  0  0  0  0  0  0  0  0
   60.3257   33.6151   48.2454 H   0  0  0  0  0  0  0  0  0  0  0  0
   60.5603   35.4252   46.5275 H   0  0  0  0  0  0  0  0  0  0  0  0
   60.6683   33.7568   45.8351 H   0  0  0  0  0  0  0  0  0  0  0  0
   58.2386   35.6138   45.7646 H   0  0  0  0  0  0  0  0  0  0  0  0
   59.3032   35.1475   44.3782 H   0  0  0  0  0  0  0  0  0  0  0  0
   57.1540   33.8657   44.4246 H   0  0  0  0  0  0  0  0  0  0  0  0
   58.6171   32.8167   44.5816 H   0  0  0  0  0  0  0  0  0  0  0  0
   56.7933   33.7495   46.8569 H   0  0  0  0  0  0  0  0  0  0  0  0
   56.8957   32.0864   46.1627 H   0  0  0  0  0  0  0  0  0  0  0  0
  1  2  1  0
  2  3  1  0
  3  4  1  0
  4  5  1  0
  4  6  2  0
  6  7  1  0
  6  8  1  0
  8  9  2  0
  8 10  1  0
 10 11  1  0
 11 12  1  0
 12 13  2  0
 12 14  1  0
 14 15  1  0
 15 16  2  0
 16 17  1  0
 17 18  2  0
 18 19  1  0
 19 20  2  0
 20 21  1  0
 21 22  2  0
 21 23  1  0
 23 24  1  0
 24 25  1  0
 25 26  1  0
 26 27  1  0
 27 28  1  0
 28 29  1  0
 10 30  1  0
 30 31  2  0
 30  3  1  0
 20 15  1  0
 29 24  1  0
  1 32  1  0
  1 33  1  0
  1 34  1  0
  2 35  1  0
  2 36  1  0
 11 37  1  0
 11 38  1  0
 14 39  1  0
 16 40  1  0
 17 41  1  0
 18 42  1  0
 19 43  1  0
 24 44  1  0
 25 45  1  0
 25 46  1  0
 26 47  1  0
 26 48  1  0
 27 49  1  0
 27 50  1  0
 28 51  1  0
 28 52  1  0
 29 53  1  0
 29 54  1  0
M  CHG  2   5  -1  23  -1
M  END
>  <UniqueID>  (29) 
27

>  <SMILES>  (29) 
CCn1c([O-])c(Cl)c(=O)n(CC(=O)Nc2ccccc2C(=O)[N-]C2CCCCC2)c1=O

>  <Energy>  (29) 
65.68719185503572

>  <Genealogy>  (29) 
CCn1c([O-])c(Cl)c(=O)n(CC(=O)Nc2ccccc2C(=O)[N-]C2CCCCC2)c1=O (protonated)
CCn1c([O-])c(Cl)c(=O)n(CC(=O)Nc2ccccc2C(=O)[N-]C2CCCCC2)c1=O (3D coordinates assigned)
CCn1c([O-])c(Cl)c(=O)n(CC(=O)Nc2ccccc2C(=O)[N-]C2CCCCC2)c1=O (nonaromatic ring conformer: 65.68719185503572 kcal/mol)

>  <smiles>  (29) 
CCn1c(O)c(Cl)c(=O)n(CC(=O)Nc2ccccc2C(=O)NC2CCCCC2)c1=O

>  <score_type>  (29) 
oracle

>  <origin>  (29) 
adg

>  <m_score__min__energy>  (29) 
-12.48

>  <m_primary>  (29) 
energy

$$$$
29:0
     RDKit          3D

 46 48  0  0  0  0  0  0  0  0999 V2000
   52.0820   24.1890   44.8360 C   0  0  0  0  0  0  0  0  0  0  0  0
   53.1860   24.9900   45.2440 O   0  0  0  0  0  0  0  0  0  0  0  0
   54.5260   24.5720   45.2120 C   0  0  0  0  0  0  0  0  0  0  0  0
   54.9000   23.2880   44.7720 C   0  0  0  0  0  0  0  0  0  0  0  0
   56.2420   22.9090   44.7720 C   0  0  0  0  0  0  0  0  0  0  0  0
   57.2270   23.8030   45.1940 C   0  0  0  0  0  0  0  0  0  0  0  0
   56.8760   25.0970   45.6130 C   0  0  0  0  0  0  0  0  0  0  0  0
   57.9340   26.0350   46.0460 C   0  0  0  0  0  0  0  0  0  0  0  0
   58.7100   25.6950   46.9810 O   0  0  0  0  0  0  0  0  0  0  0  0
   58.0930   27.3220   45.4230 N   0  0  0  0  0  0  0  0  0  0  0  0
   58.4360   28.4850   46.2500 C   0  0  0  0  0  0  0  0  0  0  0  0
   58.8820   29.6770   45.3870 C   0  0  0  0  0  0  0  0  0  0  0  0
   57.9640   29.9480   44.2550 N   0  0  0  0  0  0  0  0  0  0  0  0
   57.0290   31.0760   44.4590 C   0  0  0  0  0  0  0  0  0  0  0  0
   57.6740   32.3010   45.0770 C   0  0  0  0  0  0  0  0  0  0  0  0
   57.7330   32.4480   46.4740 C   0  0  0  0  0  0  0  0  0  0  0  0
   58.3160   33.5830   47.0430 C   0  0  0  0  0  0  0  0  0  0  0  0
   58.8650   34.5770   46.2270 C   0  0  0  0  0  0  0  0  0  0  0  0
   59.4380   35.7060   46.8080 O   0  0  0  0  0  0  0  0  0  0  0  0
   58.8400   34.4240   44.8350 C   0  0  0  0  0  0  0  0  0  0  0  0
   58.2580   33.2890   44.2630 C   0  0  0  0  0  0  0  0  0  0  0  0
   57.3610   28.7670   43.5930 C   0  0  0  0  0  0  0  0  0  0  0  0
   58.0610   27.4580   43.9630 C   0  0  0  0  0  0  0  0  0  0  0  0
   55.5160   25.4680   45.6400 C   0  0  0  0  0  0  0  0  0  0  0  0
   55.1380   26.7190   46.1160 O   0  0  0  0  0  0  0  0  0  0  0  0
   51.5571   23.8082   45.7245 H   0  0  0  0  0  0  0  0  0  0  0  0
   51.3905   24.7969   44.2341 H   0  0  0  0  0  0  0  0  0  0  0  0
   52.4454   23.3430   44.2341 H   0  0  0  0  0  0  0  0  0  0  0  0
   54.1309   22.5813   44.4270 H   0  0  0  0  0  0  0  0  0  0  0  0
   56.5257   21.9002   44.4376 H   0  0  0  0  0  0  0  0  0  0  0  0
   58.2824   23.4931   45.1985 H   0  0  0  0  0  0  0  0  0  0  0  0
   57.5536   28.7790   46.8373 H   0  0  0  0  0  0  0  0  0  0  0  0
   59.2699   28.2054   46.9106 H   0  0  0  0  0  0  0  0  0  0  0  0
   58.9277   30.5730   46.0235 H   0  0  0  0  0  0  0  0  0  0  0  0
   59.8645   29.4255   44.9610 H   0  0  0  0  0  0  0  0  0  0  0  0
   56.6099   31.3601   43.4825 H   0  0  0  0  0  0  0  0  0  0  0  0
   56.2581   30.7299   45.1633 H   0  0  0  0  0  0  0  0  0  0  0  0
   57.3172   31.6638   47.1236 H   0  0  0  0  0  0  0  0  0  0  0  0
   58.3432   33.6951   48.1369 H   0  0  0  0  0  0  0  0  0  0  0  0
   58.9260   36.2780   47.4700 H   0  0  0  0  0  0  0  0  0  0  0  0
   59.2796   35.1991   44.1901 H   0  0  0  0  0  0  0  0  0  0  0  0
   58.2566   33.1675   43.1697 H   0  0  0  0  0  0  0  0  0  0  0  0
   56.3048   28.6975   43.8923 H   0  0  0  0  0  0  0  0  0  0  0  0
   57.4693   28.9049   42.5071 H   0  0  0  0  0  0  0  0  0  0  0  0
   57.5110   26.6110   43.5269 H   0  0  0  0  0  0  0  0  0  0  0  0
   59.0887   27.4657   43.5708 H   0  0  0  0  0  0  0  0  0  0  0  0
  1  2  1  0
  2  3  1  0
  3  4  2  0
  4  5  1  0
  5  6  2  0
  6  7  1  0
  7  8  1  0
  8  9  2  0
  8 10  1  0
 10 11  1  0
 11 12  1  0
 12 13  1  0
 13 14  1  0
 14 15  1  0
 15 16  2  0
 16 17  1  0
 17 18  2  0
 18 19  1  0
 18 20  1  0
 20 21  2  0
 13 22  1  0
 22 23  1  0
  7 24  2  0
 24 25  1  0
 24  3  1  0
 23 10  1  0
 21 15  1  0
  1 26  1  0
  1 27  1  0
  1 28  1  0
  4 29  1  0
  5 30  1  0
  6 31  1  0
 11 32  1  0
 11 33  1  0
 12 34  1  0
 12 35  1  0
 14 36  1  0
 14 37  1  0
 16 38  1  0
 17 39  1  0
 19 40  1  0
 20 41  1  0
 21 42  1  0
 22 43  1  0
 22 44  1  0
 23 45  1  0
 23 46  1  0
M  CHG  1  25  -1
M  END
>  <UniqueID>  (30) 
28

>  <SMILES>  (30) 
COc1cccc(C(=O)N2CCN(Cc3ccc(O)cc3)CC2)c1[O-]

>  <Energy>  (30) 
62.867517446899974

>  <Genealogy>  (30) 
COc1cccc(C(=O)N2CCN(Cc3ccc(O)cc3)CC2)c1[O-] (protonated)
COc1cccc(C(=O)N2CCN(Cc3ccc(O)cc3)CC2)c1[O-] (3D coordinates assigned)
COc1cccc(C(=O)N2CCN(Cc3ccc(O)cc3)CC2)c1[O-] (nonaromatic ring conformer: 62.867517446899974 kcal/mol)

>  <smiles>  (30) 
COc1cccc(C(=O)N2CCN(Cc3ccc(O)cc3)CC2)c1O

>  <score_type>  (30) 
oracle

>  <origin>  (30) 
adg

>  <m_score__min__energy>  (30) 
-12.07

>  <m_primary>  (30) 
energy

$$$$
30:0
     RDKit          3D

 44 46  0  0  0  0  0  0  0  0999 V2000
   64.1660   33.1320   48.3090 C   0  0  0  0  0  0  0  0  0  0  0  0
   62.9760   33.9180   47.9390 N   0  0  0  0  0  0  0  0  0  0  0  0
   62.2390   33.3290   46.8060 C   0  0  0  0  0  0  0  0  0  0  0  0
   61.4230   32.0880   47.2100 C   0  0  0  0  0  0  0  0  0  0  0  0
   60.5540   32.3270   48.3770 N   0  0  0  0  0  0  0  0  0  0  0  0
   59.0770   33.1740   47.9690 S   0  0  0  0  0  0  0  0  0  0  0  0
   59.2370   34.6570   48.1420 O   0  0  0  0  0  0  0  0  0  0  0  0
   57.9640   32.7100   48.8670 O   0  0  0  0  0  0  0  0  0  0  0  0
   58.6290   32.8120   46.3000 C   0  0  0  0  0  0  0  0  0  0  0  0
   57.7730   31.7400   46.0130 C   0  0  0  0  0  0  0  0  0  0  0  0
   57.4090   31.4490   44.6890 C   0  0  0  0  0  0  0  0  0  0  0  0
   56.5160   30.2970   44.4290 C   0  0  0  0  0  0  0  0  0  0  0  0
   55.2700   30.4760   44.4580 O   0  0  0  0  0  0  0  0  0  0  0  0
   57.0160   28.9840   44.1220 N   0  0  0  0  0  0  0  0  0  0  0  0
   57.6450   28.1780   44.9300 C   0  0  0  0  0  0  0  0  0  0  0  0
   59.0040   28.2120   45.0430 N   0  0  0  0  0  0  0  0  0  0  0  0
   59.6800   27.3870   45.8870 C   0  0  0  0  0  0  0  0  0  0  0  0
   58.9810   26.4740   46.6770 C   0  0  0  0  0  0  0  0  0  0  0  0
   57.5890   26.4210   46.5920 C   0  0  0  0  0  0  0  0  0  0  0  0
   56.9120   27.2770   45.7180 C   0  0  0  0  0  0  0  0  0  0  0  0
   55.5250   27.2250   45.6350 O   0  0  0  0  0  0  0  0  0  0  0  0
   57.8820   32.2730   43.6460 C   0  0  0  0  0  0  0  0  0  0  0  0
   57.3870   32.0340   41.9720 Cl  0  0  0  0  0  0  0  0  0  0  0  0
   58.7300   33.3470   43.9380 C   0  0  0  0  0  0  0  0  0  0  0  0
   59.1040   33.6160   45.2550 C   0  0  0  0  0  0  0  0  0  0  0  0
   59.9170   34.6720   45.5130 F   0  0  0  0  0  0  0  0  0  0  0  0
   61.2730   32.9450   49.5050 C   0  0  0  0  0  0  0  0  0  0  0  0
   62.0920   34.1810   49.0910 C   0  0  0  0  0  0  0  0  0  0  0  0
   64.2448   33.0799   49.4049 H   0  0  0  0  0  0  0  0  0  0  0  0
   64.0758   32.1152   47.8991 H   0  0  0  0  0  0  0  0  0  0  0  0
   65.0658   33.6140   47.8991 H   0  0  0  0  0  0  0  0  0  0  0  0
   61.5512   34.0862   46.4016 H   0  0  0  0  0  0  0  0  0  0  0  0
   62.9792   33.0110   46.0570 H   0  0  0  0  0  0  0  0  0  0  0  0
   60.7933   31.7898   46.3588 H   0  0  0  0  0  0  0  0  0  0  0  0
   62.1378   31.2991   47.4870 H   0  0  0  0  0  0  0  0  0  0  0  0
   57.3824   31.1204   46.8337 H   0  0  0  0  0  0  0  0  0  0  0  0
   60.7771   27.4396   45.9466 H   0  0  0  0  0  0  0  0  0  0  0  0
   59.5217   25.8025   47.3602 H   0  0  0  0  0  0  0  0  0  0  0  0
   57.0257   25.7074   47.2112 H   0  0  0  0  0  0  0  0  0  0  0  0
   59.1046   33.9840   43.1232 H   0  0  0  0  0  0  0  0  0  0  0  0
   60.5380   33.2498   50.2645 H   0  0  0  0  0  0  0  0  0  0  0  0
   61.9795   32.1972   49.8944 H   0  0  0  0  0  0  0  0  0  0  0  0
   61.3969   34.9905   48.8237 H   0  0  0  0  0  0  0  0  0  0  0  0
   62.7300   34.4579   49.9433 H   0  0  0  0  0  0  0  0  0  0  0  0
  1  2  1  0
  2  3  1  0
  3  4  1  0
  4  5  1  0
  5  6  1  0
  6  7  2  0
  6  8  2  0
  6  9  1  0
  9 10  2  0
 10 11  1  0
 11 12  1  0
 12 13  2  0
 12 14  1  0
 14 15  2  3
 15 16  1  0
 16 17  1  0
 17 18  2  0
 18 19  1  0
 19 20  2  0
 20 21  1  0
 11 22  2  0
 22 23  1  0
 22 24  1  0
 24 25  2  0
 25 26  1  0
  5 27  1  0
 27 28  1  0
 28  2  1  0
 25  9  1  0
 20 15  1  0
  1 29  1  0
  1 30  1  0
  1 31  1  0
  3 32  1  0
  3 33  1  0
  4 34  1  0
  4 35  1  0
 10 36  1  0
 17 37  1  0
 18 38  1  0
 19 39  1  0
 24 40  1  0
 27 41  1  0
 27 42  1  0
 28 43  1  0
 28 44  1  0
M  CHG  2  16  -1  21  -1
M  END
>  <UniqueID>  (31) 
29

>  <SMILES>  (31) 
CN1CCN(S(=O)(=O)c2cc(C(=O)N=c3[n-]cccc3[O-])c(Cl)cc2F)CC1

>  <Energy>  (31) 
63.52851283253541

>  <Genealogy>  (31) 
CN1CCN(S(=O)(=O)c2cc(C(=O)N=c3[n-]cccc3[O-])c(Cl)cc2F)CC1 (protonated)
CN1CCN(S(=O)(=O)c2cc(C(=O)N=c3[n-]cccc3[O-])c(Cl)cc2F)CC1 (3D coordinates assigned)
CN1CCN(S(=O)(=O)c2cc(C(=O)N=c3[n-]cccc3[O-])c(Cl)cc2F)CC1 (nonaromatic ring conformer: 63.52851283253541 kcal/mol)

>  <smiles>  (31) 
CN1CCN(S(=O)(=O)c2cc(C(=O)N=c3[nH]cccc3O)c(Cl)cc2F)CC1

>  <score_type>  (31) 
oracle

>  <origin>  (31) 
adg

>  <m_score__min__energy>  (31) 
-14.529999999999999

>  <m_primary>  (31) 
energy

$$$$
31:0
     RDKit          3D

 47 49  0  0  1  0  0  0  0  0999 V2000
   57.2250   21.9470   46.1520 C   0  0  0  0  0  0  0  0  0  0  0  0
   57.4760   22.9950   47.0470 O   0  0  0  0  0  0  0  0  0  0  0  0
   57.6110   24.3020   46.6200 C   0  0  0  0  0  0  0  0  0  0  0  0
   58.7620   24.8210   46.0730 C   0  0  0  0  0  0  0  0  0  0  0  0
   58.8560   26.1300   45.6600 C   0  0  0  0  0  0  0  0  0  0  0  0
   57.7870   27.0060   45.7740 C   0  0  0  0  0  0  0  0  0  0  0  0
   57.9570   28.3230   45.3320 N   0  0  0  0  0  0  0  0  0  0  0  0
   56.9380   29.2580   45.0600 C   0  0  0  0  0  0  0  0  0  0  0  0
   55.7280   29.0070   45.1860 O   0  0  0  0  0  0  0  0  0  0  0  0
   57.2870   30.6140   44.5990 C   0  0  0  0  0  0  0  0  0  0  0  0
   57.4650   31.6660   45.4620 C   0  0  0  0  0  0  0  0  0  0  0  0
   57.7910   32.9330   45.0190 C   0  0  0  0  0  0  0  0  0  0  0  0
   57.9410   33.8680   45.8820 N   0  0  0  0  0  0  0  0  0  0  0  0
   59.1320   33.9180   46.6790 C   0  0  0  0  0  0  0  0  0  0  0  0
   59.1320   34.6740   47.6510 O   0  0  0  0  0  0  0  0  0  0  0  0
   60.2550   33.1210   46.3450 N   0  0  0  0  0  0  0  0  0  0  0  0
   61.4730   33.0620   47.0180 C   0  0  0  0  0  0  0  0  0  0  0  0
   61.5920   32.1680   48.0890 C   0  0  0  0  0  0  0  0  0  0  0  0
   62.7600   32.0490   48.8070 C   0  0  0  0  0  0  0  0  0  0  0  0
   63.8740   32.8030   48.5110 C   0  0  0  0  0  0  0  0  0  0  0  0
   64.9840   32.6270   49.2640 F   0  0  0  0  0  0  0  0  0  0  0  0
   63.7790   33.6850   47.4680 C   0  0  0  0  0  0  0  0  0  0  0  0
   62.5970   33.8020   46.7460 C   0  0  0  0  0  0  0  0  0  0  0  0
   57.9330   33.1210   43.6970 N   0  0  0  0  0  0  0  0  0  0  0  0
   57.7680   32.1150   42.8160 C   0  0  0  0  0  0  0  0  0  0  0  0
   57.9280   32.3340   41.3510 C   0  0  0  0  0  0  0  0  0  0  0  0
   57.4480   30.8820   43.2740 N   0  0  0  0  0  0  0  0  0  0  0  0
   56.6390   26.4830   46.3220 C   0  0  0  0  0  0  0  0  0  0  0  0
   56.5380   25.1570   46.7410 C   0  0  0  0  0  0  0  0  0  0  0  0
   57.0050   21.0283   46.7156 H   0  0  0  0  0  0  0  0  0  0  0  0
   56.3630   22.2041   45.5188 H   0  0  0  0  0  0  0  0  0  0  0  0
   58.1099   21.7857   45.5188 H   0  0  0  0  0  0  0  0  0  0  0  0
   59.6385   24.1657   45.9619 H   0  0  0  0  0  0  0  0  0  0  0  0
   59.8017   26.4904   45.2291 H   0  0  0  0  0  0  0  0  0  0  0  0
   58.9410   28.6640   45.1840 H   0  0  0  0  0  0  0  0  0  0  0  0
   57.3441   31.4946   46.5418 H   0  0  0  0  0  0  0  0  0  0  0  0
   60.1250   32.5120   45.4820 H   0  0  0  0  0  0  0  0  0  0  0  0
   60.7288   31.5441   48.3639 H   0  0  0  0  0  0  0  0  0  0  0  0
   62.8052   31.3321   49.6401 H   0  0  0  0  0  0  0  0  0  0  0  0
   64.6458   34.3065   47.1990 H   0  0  0  0  0  0  0  0  0  0  0  0
   62.5604   34.5229   45.9159 H   0  0  0  0  0  0  0  0  0  0  0  0
   58.1770   34.0620   43.3470 H   0  0  0  0  0  0  0  0  0  0  0  0
   58.5690   33.2113   41.1793 H   0  0  0  0  0  0  0  0  0  0  0  0
   58.3918   31.4463   40.8961 H   0  0  0  0  0  0  0  0  0  0  0  0
   56.9414   32.5060   40.8961 H   0  0  0  0  0  0  0  0  0  0  0  0
   55.7631   27.1389   46.4345 H   0  0  0  0  0  0  0  0  0  0  0  0
   55.5942   24.7910   47.1715 H   0  0  0  0  0  0  0  0  0  0  0  0
  1  2  1  0
  2  3  1  0
  3  4  2  0
  4  5  1  0
  5  6  2  0
  6  7  1  0
  7  8  1  0
  8  9  2  0
  8 10  1  0
 10 11  2  0
 11 12  1  0
 12 13  2  0
 13 14  1  0
 14 15  2  0
 14 16  1  0
 16 17  1  0
 17 18  2  0
 18 19  1  0
 19 20  2  0
 20 21  1  0
 20 22  1  0
 22 23  2  0
 12 24  1  0
 24 25  1  0
 25 26  1  0
 25 27  2  0
  6 28  1  0
 28 29  2  0
 29  3  1  0
 27 10  1  0
 23 17  1  0
  1 30  1  0
  1 31  1  0
  1 32  1  0
  4 33  1  0
  5 34  1  0
  7 35  1  0
 11 36  1  0
 16 37  1  0
 18 38  1  0
 19 39  1  0
 22 40  1  0
 23 41  1  0
 24 42  1  0
 26 43  1  0
 26 44  1  0
 26 45  1  0
 28 46  1  0
 29 47  1  0
M  END
>  <smiles>  (32) 
COc1ccc(NC(=O)c2cc(=NC(=O)Nc3ccc(F)cc3)[nH]c(C)n2)cc1

>  <score_type>  (32) 
oracle

>  <origin>  (32) 
adg

>  <m_score__min__energy>  (32) 
-8.1799999999999997

>  <m_primary>  (32) 
energy

$$$$
32:0
     RDKit          3D

 56 59  0  0  0  0  0  0  0  0999 V2000
   56.3000   29.3740   44.3010 C   0  0  0  0  0  0  0  0  0  0  0  0
   57.5190   28.9800   44.7050 C   0  0  0  0  0  0  0  0  0  0  0  0
   58.0320   27.6710   44.7120 C   0  0  0  0  0  0  0  0  0  0  0  0
   57.4310   26.4840   44.5040 C   0  0  0  0  0  0  0  0  0  0  0  0
   56.9320   25.5830   45.5550 C   0  0  0  0  0  0  0  0  0  0  0  0
   57.5340   24.4410   45.9320 N   0  0  0  0  0  0  0  0  0  0  0  0
   56.6550   23.8980   46.8030 C   0  0  0  0  0  0  0  0  0  0  0  0
   56.8720   22.8090   47.3940 O   0  0  0  0  0  0  0  0  0  0  0  0
   55.5220   24.6100   46.9810 N   0  0  0  0  0  0  0  0  0  0  0  0
   55.7080   25.6650   46.1730 C   0  0  0  0  0  0  0  0  0  0  0  0
   54.7770   26.6810   45.9990 O   0  0  0  0  0  0  0  0  0  0  0  0
   59.3770   27.7850   45.0250 C   0  0  0  0  0  0  0  0  0  0  0  0
   59.6250   29.1230   45.2510 C   0  0  0  0  0  0  0  0  0  0  0  0
   60.9510   29.6920   45.6570 C   0  0  0  0  0  0  0  0  0  0  0  0
   58.4990   29.8460   45.0680 N   0  0  0  0  0  0  0  0  0  0  0  0
   58.4090   31.2780   45.1600 C   0  0  0  0  0  0  0  0  0  0  0  0
   57.8050   32.0140   44.1330 C   0  0  0  0  0  0  0  0  0  0  0  0
   57.7320   33.4050   44.2180 C   0  0  0  0  0  0  0  0  0  0  0  0
   58.2570   34.0700   45.3290 C   0  0  0  0  0  0  0  0  0  0  0  0
   58.8610   33.3450   46.3740 C   0  0  0  0  0  0  0  0  0  0  0  0
   59.4320   34.0330   47.5590 C   0  0  0  0  0  0  0  0  0  0  0  0
   59.2540   35.2780   47.6790 O   0  0  0  0  0  0  0  0  0  0  0  0
   60.1320   33.3020   48.5980 N   0  0  2  0  0  0  0  0  0  0  0  0
   60.6790   34.2430   49.6200 C   0  0  0  0  0  0  0  0  0  0  0  0
   62.2000   34.4180   49.5200 C   0  0  0  0  0  0  0  0  0  0  0  0
   62.9140   33.0600   49.7130 C   0  0  2  0  0  0  0  0  0  0  0  0
   64.3870   33.1160   49.2590 C   0  0  0  0  0  0  0  0  0  0  0  0
   64.5060   33.0830   47.8010 N   0  0  0  0  0  0  0  0  0  0  0  0
   62.1370   31.8870   49.0570 C   0  0  0  0  0  0  0  0  0  0  0  0
   61.1440   32.3890   48.0010 C   0  0  0  0  0  0  0  0  0  0  0  0
   58.9440   31.9450   46.2710 C   0  0  0  0  0  0  0  0  0  0  0  0
   56.0221   30.4373   44.3477 H   0  0  0  0  0  0  0  0  0  0  0  0
   55.5797   28.6333   43.9234 H   0  0  0  0  0  0  0  0  0  0  0  0
   57.3022   26.1607   43.4605 H   0  0  0  0  0  0  0  0  0  0  0  0
   60.1077   26.9648   45.0823 H   0  0  0  0  0  0  0  0  0  0  0  0
   61.0172   29.7204   46.7546 H   0  0  0  0  0  0  0  0  0  0  0  0
   61.7586   29.0612   45.2572 H   0  0  0  0  0  0  0  0  0  0  0  0
   61.0503   30.7119   45.2572 H   0  0  0  0  0  0  0  0  0  0  0  0
   57.3874   31.4947   43.2578 H   0  0  0  0  0  0  0  0  0  0  0  0
   57.2596   33.9797   43.4077 H   0  0  0  0  0  0  0  0  0  0  0  0
   58.1981   35.1669   45.3876 H   0  0  0  0  0  0  0  0  0  0  0  0
   59.4450   32.6750   49.0810 H   0  0  0  0  0  0  0  0  0  0  0  0
   60.2033   35.2252   49.4824 H   0  0  0  0  0  0  0  0  0  0  0  0
   60.4611   33.8165   50.6103 H   0  0  0  0  0  0  0  0  0  0  0  0
   62.4536   34.8230   48.5292 H   0  0  0  0  0  0  0  0  0  0  0  0
   62.5316   35.1100   50.3081 H   0  0  0  0  0  0  0  0  0  0  0  0
   62.9233   32.8560   50.7939 H   0  0  0  0  0  0  0  0  0  0  0  0
   64.8400   34.0462   49.6326 H   0  0  0  0  0  0  0  0  0  0  0  0
   64.9046   32.2344   49.6651 H   0  0  0  0  0  0  0  0  0  0  0  0
   65.4510   33.4410   47.5360 H   0  0  0  0  0  0  0  0  0  0  0  0
   64.4860   32.0820   47.5010 H   0  0  0  0  0  0  0  0  0  0  0  0
   62.8558   31.2069   48.5766 H   0  0  0  0  0  0  0  0  0  0  0  0
   61.5700   31.3671   49.8433 H   0  0  0  0  0  0  0  0  0  0  0  0
   61.6966   32.9298   47.2186 H   0  0  0  0  0  0  0  0  0  0  0  0
   60.6193   31.5196   47.5782 H   0  0  0  0  0  0  0  0  0  0  0  0
   59.4332   31.3679   47.0695 H   0  0  0  0  0  0  0  0  0  0  0  0
  1  2  2  0
  2  3  1  0
  3  4  2  3
  4  5  1  0
  5  6  1  0
  6  7  1  0
  7  8  2  0
  7  9  1  0
  9 10  1  0
 10 11  1  0
  3 12  1  0
 12 13  2  0
 13 14  1  0
 13 15  1  0
 15 16  1  0
 16 17  2  0
 17 18  1  0
 18 19  2  0
 19 20  1  0
 20 21  1  0
 21 22  2  0
 21 23  1  0
 23 24  1  0
 24 25  1  0
 25 26  1  0
 26 27  1  0
 27 28  1  0
 26 29  1  0
 29 30  1  0
 20 31  2  0
 15  2  1  0
 31 16  1  0
 10  5  2  0
 30 23  1  0
  1 32  1  0
  1 33  1  0
  4 34  1  0
 12 35  1  0
 14 36  1  0
 14 37  1  0
 14 38  1  0
 17 39  1  0
 18 40  1  0
 19 41  1  0
 23 42  1  1
 24 43  1  0
 24 44  1  0
 25 45  1  0
 25 46  1  0
 26 47  1  1
 27 48  1  0
 27 49  1  0
 28 50  1  0
 28 51  1  0
 29 52  1  0
 29 53  1  0
 30 54  1  0
 30 55  1  0
 31 56  1  0
M  CHG  4   6  -1   9  -1  11  -1  23   1
M  END
>  <UniqueID>  (33) 
30

>  <SMILES>  (33) 
C=c1c(=Cc2[n-]c(=O)[n-]c2[O-])cc(C)n1-c1cccc(C(=O)[NH+]2CCC(CN)CC2)c1

>  <Energy>  (33) 
145.62234664101166

>  <Genealogy>  (33) 
C=c1c(=Cc2[n-]c(=O)[n-]c2[O-])cc(C)n1-c1cccc(C(=O)[NH+]2CCC(CN)CC2)c1 (protonated)
C=c1c(=Cc2[n-]c(=O)[n-]c2[O-])cc(C)n1-c1cccc(C(=O)[NH+]2CCC(CN)CC2)c1 (3D coordinates assigned)
C=c1c(=Cc2[n-]c(=O)[n-]c2[O-])cc(C)n1-c1cccc(C(=O)[NH+]2CCC(CN)CC2)c1 (nonaromatic ring conformer: 145.62234664101166 kcal/mol)

>  <smiles>  (33) 
C=c1c(=Cc2[nH]c(=O)[nH]c2O)cc(C)n1-c1cccc(C(=O)N2CCC(CN)CC2)c1

>  <score_type>  (33) 
oracle

>  <origin>  (33) 
adg

>  <m_score__min__energy>  (33) 
-16.23

>  <m_primary>  (33) 
energy

$$$$
33:0
     RDKit          3D

 33 34  0  0  0  0  0  0  0  0999 V2000
   50.4801   31.6689   55.2322 H   0  0  0  0  0  0  0  0  0  0  0  0
   50.1150   32.1780   54.3280 C   0  0  0  0  0  0  0  0  0  0  0  0
   49.1822   32.7599   54.3632 H   0  0  0  0  0  0  0  0  0  0  0  0
   50.8010   32.0900   53.1930 C   0  0  0  0  0  0  0  0  0  0  0  0
   50.4070   32.6910   52.0490 N   0  0  0  0  0  0  0  0  0  0  0  0
   51.3710   32.3460   51.1790 C   0  0  0  0  0  0  0  0  0  0  0  0
   51.3740   32.7140   49.9740 O   0  0  0  0  0  0  0  0  0  0  0  0
   52.3170   31.5540   51.8000 C   0  0  0  0  0  0  0  0  0  0  0  0
   53.4270   31.0080   51.2830 C   0  0  0  0  0  0  0  0  0  0  0  0
   53.7785   31.3679   50.3048 H   0  0  0  0  0  0  0  0  0  0  0  0
   54.2170   29.9280   51.9720 C   0  0  0  0  0  0  0  0  0  0  0  0
   53.5909   29.4614   52.7468 H   0  0  0  0  0  0  0  0  0  0  0  0
   54.5202   29.1805   51.2241 H   0  0  0  0  0  0  0  0  0  0  0  0
   55.4540   30.4990   52.6140 C   0  0  0  0  0  0  0  0  0  0  0  0
   55.8120   30.1180   53.9140 C   0  0  0  0  0  0  0  0  0  0  0  0
   55.2019   29.3802   54.4557 H   0  0  0  0  0  0  0  0  0  0  0  0
   56.9390   30.6700   54.5250 C   0  0  0  0  0  0  0  0  0  0  0  0
   57.2175   30.3570   55.5421 H   0  0  0  0  0  0  0  0  0  0  0  0
   57.7220   31.6250   53.8480 C   0  0  0  0  0  0  0  0  0  0  0  0
   58.8620   32.2010   54.4300 O   0  0  0  0  0  0  0  0  0  0  0  0
   59.0270   33.5940   54.6760 C   0  0  0  0  0  0  0  0  0  0  0  0
   59.0484   33.7747   55.7608 H   0  0  0  0  0  0  0  0  0  0  0  0
   59.9719   33.9360   54.2286 H   0  0  0  0  0  0  0  0  0  0  0  0
   58.1881   34.1472   54.2286 H   0  0  0  0  0  0  0  0  0  0  0  0
   57.3600   32.0240   52.5520 C   0  0  0  0  0  0  0  0  0  0  0  0
   58.1550   32.9820   51.9030 O   0  0  0  0  0  0  0  0  0  0  0  0
   58.9430   32.7290   50.7450 C   0  0  0  0  0  0  0  0  0  0  0  0
   59.9494   32.4059   51.0497 H   0  0  0  0  0  0  0  0  0  0  0  0
   58.4698   31.9376   50.1452 H   0  0  0  0  0  0  0  0  0  0  0  0
   59.0189   33.6479   50.1452 H   0  0  0  0  0  0  0  0  0  0  0  0
   56.2220   31.4600   51.9410 C   0  0  0  0  0  0  0  0  0  0  0  0
   55.9339   31.7764   50.9276 H   0  0  0  0  0  0  0  0  0  0  0  0
   51.9540   31.3900   53.0860 N   0  0  0  0  0  0  0  0  0  0  0  0
  1  2  1  0
  2  3  1  0
  2  4  2  0
  4  5  1  0
  5  6  1  0
  6  7  2  0
  6  8  1  0
  8  9  2  0
  9 10  1  0
  9 11  1  0
 11 12  1  0
 11 13  1  0
 11 14  1  0
 14 15  2  0
 15 16  1  0
 15 17  1  0
 17 18  1  0
 17 19  2  0
 19 20  1  0
 20 21  1  0
 21 22  1  0
 21 23  1  0
 21 24  1  0
 19 25  1  0
 25 26  1  0
 26 27  1  0
 27 28  1  0
 27 29  1  0
 27 30  1  0
 25 31  2  0
 31 32  1  0
  8 33  1  0
 33  4  1  0
 31 14  1  0
M  CHG  2   5  -1  33  -1
M  END
>  <UniqueID>  (34) 
31

>  <SMILES>  (34) 
C=c1[n-]c(=O)/c(=C\Cc2ccc(OC)c(OC)c2)[n-]1

>  <Energy>  (34) 
60.665791966297505

>  <Genealogy>  (34) 
C=c1[n-]c(=O)c(=CCc2ccc(OC)c(OC)c2)[n-]1 (protonated)
C=c1[n-]c(=O)/c(=C\Cc2ccc(OC)c(OC)c2)[n-]1 (cis-trans isomerization)
C=c1[n-]c(=O)/c(=C\Cc2ccc(OC)c(OC)c2)[n-]1 (3D coordinates assigned)
C=c1[n-]c(=O)/c(=C\Cc2ccc(OC)c(OC)c2)[n-]1 (optimized conformer: 60.665791966297505 kcal/mol)

>  <smiles>  (34) 
C=c1[nH]c(=O)c(=CCc2ccc(OC)c(OC)c2)[nH]1

>  <score_type>  (34) 
oracle

>  <origin>  (34) 
adg

>  <m_score__min__energy>  (34) 
-9.75

>  <m_primary>  (34) 
energy

$$$$
34:0
     RDKit          3D

 52 54  0  0  0  0  0  0  0  0999 V2000
   58.9080   30.0150   49.5750 C   0  0  0  0  0  0  0  0  0  0  0  0
   60.0880   29.6320   48.7760 N   0  0  0  0  0  0  0  0  0  0  0  0
   60.1470   28.1640   48.6130 C   0  0  0  0  0  0  0  0  0  0  0  0
   59.1430   27.7150   47.5850 C   0  0  0  0  0  0  0  0  0  0  0  0
   58.8150   26.3580   47.4460 C   0  0  0  0  0  0  0  0  0  0  0  0
   57.8360   25.9610   46.5330 C   0  0  0  0  0  0  0  0  0  0  0  0
   57.1680   26.9160   45.7620 C   0  0  0  0  0  0  0  0  0  0  0  0
   57.4780   28.2770   45.9000 C   0  0  0  0  0  0  0  0  0  0  0  0
   56.7590   29.2920   45.1090 C   0  0  0  0  0  0  0  0  0  0  0  0
   55.5230   29.1400   44.9080 O   0  0  0  0  0  0  0  0  0  0  0  0
   57.4410   30.4320   44.5460 N   0  0  0  0  0  0  0  0  0  0  0  0
   58.8430   30.2850   44.1430 C   0  0  0  0  0  0  0  0  0  0  0  0
   56.7940   31.7540   44.5030 C   0  0  0  0  0  0  0  0  0  0  0  0
   57.6610   32.7820   45.1800 C   0  0  0  0  0  0  0  0  0  0  0  0
   57.7360   32.8210   46.5820 C   0  0  0  0  0  0  0  0  0  0  0  0
   58.5230   33.7850   47.2190 C   0  0  0  0  0  0  0  0  0  0  0  0
   59.2360   34.7200   46.4620 C   0  0  0  0  0  0  0  0  0  0  0  0
   60.0070   35.6460   47.0830 F   0  0  0  0  0  0  0  0  0  0  0  0
   59.1580   34.6940   45.0670 C   0  0  0  0  0  0  0  0  0  0  0  0
   58.3750   33.7300   44.4260 C   0  0  0  0  0  0  0  0  0  0  0  0
   58.4800   28.6700   46.7980 C   0  0  0  0  0  0  0  0  0  0  0  0
   61.3240   30.1410   49.4060 C   0  0  0  0  0  0  0  0  0  0  0  0
   61.8800   31.2910   48.6090 C   0  0  0  0  0  0  0  0  0  0  0  0
   63.0900   31.8890   48.9870 C   0  0  0  0  0  0  0  0  0  0  0  0
   63.5910   32.9120   48.2470 N   0  0  0  0  0  0  0  0  0  0  0  0
   62.9450   33.3630   47.1410 C   0  0  0  0  0  0  0  0  0  0  0  0
   61.7440   32.7640   46.7550 C   0  0  0  0  0  0  0  0  0  0  0  0
   61.2370   31.7410   47.4930 N   0  0  0  0  0  0  0  0  0  0  0  0
   59.1489   29.9368   50.6454 H   0  0  0  0  0  0  0  0  0  0  0  0
   58.6250   31.0511   49.3376 H   0  0  0  0  0  0  0  0  0  0  0  0
   58.0705   29.3426   49.3376 H   0  0  0  0  0  0  0  0  0  0  0  0
   61.1566   27.8749   48.2856 H   0  0  0  0  0  0  0  0  0  0  0  0
   59.9136   27.6860   49.5758 H   0  0  0  0  0  0  0  0  0  0  0  0
   59.3310   25.6040   48.0586 H   0  0  0  0  0  0  0  0  0  0  0  0
   57.5902   24.8947   46.4205 H   0  0  0  0  0  0  0  0  0  0  0  0
   56.3966   26.5994   45.0446 H   0  0  0  0  0  0  0  0  0  0  0  0
   59.4771   30.2185   45.0394 H   0  0  0  0  0  0  0  0  0  0  0  0
   58.9582   29.3699   43.5436 H   0  0  0  0  0  0  0  0  0  0  0  0
   59.1455   31.1563   43.5436 H   0  0  0  0  0  0  0  0  0  0  0  0
   56.6355   32.0466   43.4545 H   0  0  0  0  0  0  0  0  0  0  0  0
   55.8292   31.6976   45.0283 H   0  0  0  0  0  0  0  0  0  0  0  0
   57.1732   32.0901   47.1812 H   0  0  0  0  0  0  0  0  0  0  0  0
   58.5815   33.8081   48.3172 H   0  0  0  0  0  0  0  0  0  0  0  0
   59.7140   35.4337   44.4723 H   0  0  0  0  0  0  0  0  0  0  0  0
   58.3171   33.7128   43.3277 H   0  0  0  0  0  0  0  0  0  0  0  0
   58.7484   29.7331   46.8866 H   0  0  0  0  0  0  0  0  0  0  0  0
   61.0971   30.4827   50.4267 H   0  0  0  0  0  0  0  0  0  0  0  0
   62.0695   29.3328   49.4368 H   0  0  0  0  0  0  0  0  0  0  0  0
   63.6300   31.5324   49.8765 H   0  0  0  0  0  0  0  0  0  0  0  0
   63.3643   34.1934   46.5539 H   0  0  0  0  0  0  0  0  0  0  0  0
   61.2117   33.1176   45.8597 H   0  0  0  0  0  0  0  0  0  0  0  0
   60.3410   31.2990   47.1890 H   0  0  0  0  0  0  0  0  0  0  0  0
  1  2  1  0
  2  3  1  0
  3  4  1  0
  4  5  2  0
  5  6  1  0
  6  7  2  0
  7  8  1  0
  8  9  1  0
  9 10  2  0
  9 11  1  0
 11 12  1  0
 11 13  1  0
 13 14  1  0
 14 15  2  0
 15 16  1  0
 16 17  2  0
 17 18  1  0
 17 19  1  0
 19 20  2  0
  8 21  2  0
  2 22  1  0
 22 23  1  0
 23 24  2  0
 24 25  1  0
 25 26  2  0
 26 27  1  0
 27 28  2  0
 21  4  1  0
 28 23  1  0
 20 14  1  0
  1 29  1  0
  1 30  1  0
  1 31  1  0
  3 32  1  0
  3 33  1  0
  5 34  1  0
  6 35  1  0
  7 36  1  0
 12 37  1  0
 12 38  1  0
 12 39  1  0
 13 40  1  0
 13 41  1  0
 15 42  1  0
 16 43  1  0
 19 44  1  0
 20 45  1  0
 21 46  1  0
 22 47  1  0
 22 48  1  0
 24 49  1  0
 26 50  1  0
 27 51  1  0
 28 52  1  0
M  CHG  1  28   1
M  END
>  <UniqueID>  (35) 
32

>  <SMILES>  (35) 
CN(Cc1cccc(C(=O)N(C)Cc2ccc(F)cc2)c1)Cc1cncc[nH+]1

>  <Energy>  (35) 
54.86895492617499

>  <Genealogy>  (35) 
CN(Cc1cccc(C(=O)N(C)Cc2ccc(F)cc2)c1)Cc1cncc[nH+]1 (protonated)
CN(Cc1cccc(C(=O)N(C)Cc2ccc(F)cc2)c1)Cc1cncc[nH+]1 (3D coordinates assigned)
CN(Cc1cccc(C(=O)N(C)Cc2ccc(F)cc2)c1)Cc1cncc[nH+]1 (optimized conformer: 54.86895492617499 kcal/mol)

>  <smiles>  (35) 
CN(Cc1cccc(C(=O)N(C)Cc2ccc(F)cc2)c1)Cc1cnccn1

>  <score_type>  (35) 
oracle

>  <origin>  (35) 
adg

>  <m_score__min__energy>  (35) 
-6.75

>  <m_primary>  (35) 
energy

$$$$
35:0
     RDKit          3D

 62 65  0  0  0  0  0  0  0  0999 V2000
   58.6110   32.6020   51.3940 C   0  0  0  0  0  0  0  0  0  0  0  0
   59.2710   31.5360   50.9370 C   0  0  0  0  0  0  0  0  0  0  0  0
   58.5280   30.2680   50.1220 S   0  0  0  0  0  0  0  0  0  0  0  0
   59.9550   29.4000   49.9110 C   0  0  0  0  0  0  0  0  0  0  0  0
   60.0180   28.2150   49.2860 C   0  0  0  0  0  0  0  0  0  0  0  0
   59.7350   28.0370   47.8570 C   0  0  0  0  0  0  0  0  0  0  0  0
   60.7360   27.5830   46.9830 C   0  0  0  0  0  0  0  0  0  0  0  0
   60.4610   27.4390   45.6240 C   0  0  0  0  0  0  0  0  0  0  0  0
   59.1860   27.7410   45.1310 C   0  0  0  0  0  0  0  0  0  0  0  0
   58.1770   28.1860   45.9940 C   0  0  0  0  0  0  0  0  0  0  0  0
   56.8710   28.4400   45.4590 N   0  0  0  0  0  0  0  0  0  0  0  0
   56.5370   29.5400   44.1600 S   0  0  0  0  0  0  0  0  0  0  0  0
   55.0610   29.8180   44.1110 O   0  0  0  0  0  0  0  0  0  0  0  0
   56.9490   28.9110   42.8590 O   0  0  0  0  0  0  0  0  0  0  0  0
   57.3960   31.0530   44.4360 C   0  0  0  0  0  0  0  0  0  0  0  0
   57.6900   31.9200   43.3740 C   0  0  0  0  0  0  0  0  0  0  0  0
   58.4180   33.0890   43.6060 C   0  0  0  0  0  0  0  0  0  0  0  0
   58.8530   33.4030   44.8970 C   0  0  0  0  0  0  0  0  0  0  0  0
   58.5720   32.5380   45.9680 C   0  0  0  0  0  0  0  0  0  0  0  0
   59.0190   32.8580   47.3420 C   0  0  0  0  0  0  0  0  0  0  0  0
   58.1480   33.0920   48.2250 O   0  0  0  0  0  0  0  0  0  0  0  0
   60.4160   32.8840   47.7000 N   0  0  0  0  0  0  0  0  0  0  0  0
   61.3410   31.9030   47.1000 C   0  0  0  0  0  0  0  0  0  0  0  0
   62.6140   31.7780   47.9400 C   0  0  0  0  0  0  0  0  0  0  0  0
   63.2020   33.1150   48.1620 N   0  0  0  0  0  0  0  0  0  0  0  0
   64.5310   33.0790   48.8110 C   0  0  0  0  0  0  0  0  0  0  0  0
   64.6450   32.0300   49.9280 C   0  0  0  0  0  0  0  0  0  0  0  0
   62.2840   34.1240   48.7450 C   0  0  0  0  0  0  0  0  0  0  0  0
   60.8340   33.6310   48.8940 C   0  0  0  0  0  0  0  0  0  0  0  0
   57.8310   31.3680   45.7290 C   0  0  0  0  0  0  0  0  0  0  0  0
   58.4670   28.3580   47.3580 C   0  0  0  0  0  0  0  0  0  0  0  0
   60.9920   30.1350   50.5000 C   0  0  0  0  0  0  0  0  0  0  0  0
   62.1880   29.7400   50.5160 O   0  0  0  0  0  0  0  0  0  0  0  0
   60.6100   31.3230   51.0620 N   0  0  0  0  0  0  0  0  0  0  0  0
   61.5310   32.2350   51.7480 C   0  0  0  0  0  0  0  0  0  0  0  0
   59.1538   33.4008   51.9207 H   0  0  0  0  0  0  0  0  0  0  0  0
   57.5242   32.6819   51.2440 H   0  0  0  0  0  0  0  0  0  0  0  0
   60.2966   27.3293   49.8759 H   0  0  0  0  0  0  0  0  0  0  0  0
   61.7366   27.3411   47.3706 H   0  0  0  0  0  0  0  0  0  0  0  0
   61.2464   27.0878   44.9385 H   0  0  0  0  0  0  0  0  0  0  0  0
   58.9752   27.6278   44.0573 H   0  0  0  0  0  0  0  0  0  0  0  0
   57.3469   31.6792   42.3570 H   0  0  0  0  0  0  0  0  0  0  0  0
   58.6500   33.7651   42.7699 H   0  0  0  0  0  0  0  0  0  0  0  0
   59.4172   34.3304   45.0749 H   0  0  0  0  0  0  0  0  0  0  0  0
   60.8445   30.9228   47.0483 H   0  0  0  0  0  0  0  0  0  0  0  0
   61.6145   32.2451   46.0910 H   0  0  0  0  0  0  0  0  0  0  0  0
   62.3677   31.3220   48.9102 H   0  0  0  0  0  0  0  0  0  0  0  0
   63.3399   31.1467   47.4066 H   0  0  0  0  0  0  0  0  0  0  0  0
   65.2861   32.8527   48.0438 H   0  0  0  0  0  0  0  0  0  0  0  0
   64.6878   34.0630   49.2770 H   0  0  0  0  0  0  0  0  0  0  0  0
   64.5907   32.5292   50.9067 H   0  0  0  0  0  0  0  0  0  0  0  0
   63.8200   31.3079   49.8385 H   0  0  0  0  0  0  0  0  0  0  0  0
   65.6058   31.5020   49.8385 H   0  0  0  0  0  0  0  0  0  0  0  0
   62.6603   34.4010   49.7408 H   0  0  0  0  0  0  0  0  0  0  0  0
   62.2628   34.9771   48.0509 H   0  0  0  0  0  0  0  0  0  0  0  0
   60.7641   32.9745   49.7739 H   0  0  0  0  0  0  0  0  0  0  0  0
   60.1741   34.5026   49.0158 H   0  0  0  0  0  0  0  0  0  0  0  0
   57.5908   30.6942   46.5646 H   0  0  0  0  0  0  0  0  0  0  0  0
   57.6939   28.7468   48.0371 H   0  0  0  0  0  0  0  0  0  0  0  0
   61.4166   32.1217   52.8361 H   0  0  0  0  0  0  0  0  0  0  0  0
   62.5656   31.9955   51.4612 H   0  0  0  0  0  0  0  0  0  0  0  0
   61.3017   33.2719   51.4612 H   0  0  0  0  0  0  0  0  0  0  0  0
  1  2  2  0
  2  3  1  0
  3  4  1  0
  4  5  2  3
  5  6  1  0
  6  7  2  0
  7  8  1  0
  8  9  2  0
  9 10  1  0
 10 11  1  0
 11 12  1  0
 12 13  2  0
 12 14  2  0
 12 15  1  0
 15 16  2  0
 16 17  1  0
 17 18  2  0
 18 19  1  0
 19 20  1  0
 20 21  2  0
 20 22  1  0
 22 23  1  0
 23 24  1  0
 24 25  1  0
 25 26  1  0
 26 27  1  0
 25 28  1  0
 28 29  1  0
 19 30  2  0
 10 31  2  0
  4 32  1  0
 32 33  2  0
 32 34  1  0
 34 35  1  0
 34  2  1  0
 31  6  1  0
 30 15  1  0
 29 22  1  0
  1 36  1  0
  1 37  1  0
  5 38  1  0
  7 39  1  0
  8 40  1  0
  9 41  1  0
 16 42  1  0
 17 43  1  0
 18 44  1  0
 23 45  1  0
 23 46  1  0
 24 47  1  0
 24 48  1  0
 26 49  1  0
 26 50  1  0
 27 51  1  0
 27 52  1  0
 27 53  1  0
 28 54  1  0
 28 55  1  0
 29 56  1  0
 29 57  1  0
 30 58  1  0
 31 59  1  0
 35 60  1  0
 35 61  1  0
 35 62  1  0
M  CHG  1  11  -1
M  END
>  <UniqueID>  (36) 
33

>  <SMILES>  (36) 
C=c1sc(=Cc2cccc([N-]S(=O)(=O)c3cccc(C(=O)N4CCN(CC)CC4)c3)c2)c(=O)n1C

>  <Energy>  (36) 
118.09694584803223

>  <Genealogy>  (36) 
C=c1sc(=Cc2cccc([N-]S(=O)(=O)c3cccc(C(=O)N4CCN(CC)CC4)c3)c2)c(=O)n1C (protonated)
C=c1sc(=Cc2cccc([N-]S(=O)(=O)c3cccc(C(=O)N4CCN(CC)CC4)c3)c2)c(=O)n1C (3D coordinates assigned)
C=c1sc(=Cc2cccc([N-]S(=O)(=O)c3cccc(C(=O)N4CCN(CC)CC4)c3)c2)c(=O)n1C (nonaromatic ring conformer: 118.09694584803223 kcal/mol)

>  <smiles>  (36) 
C=c1sc(=Cc2cccc(NS(=O)(=O)c3cccc(C(=O)N4CCN(CC)CC4)c3)c2)c(=O)n1C

>  <score_type>  (36) 
oracle

>  <origin>  (36) 
adg

>  <m_score__min__energy>  (36) 
-11.460000000000001

>  <m_primary>  (36) 
energy

$$$$
36:0
     RDKit          3D

 49 51  0  0  0  0  0  0  0  0999 V2000
   57.0290   32.0030   52.4690 C   0  0  0  0  0  0  0  0  0  0  0  0
   58.2670   31.7320   51.6040 C   0  0  0  0  0  0  0  0  0  0  0  0
   58.9120   30.5210   51.9020 O   0  0  0  0  0  0  0  0  0  0  0  0
   58.0990   31.9720   50.1330 C   0  0  0  0  0  0  0  0  0  0  0  0
   59.0560   33.0950   50.0530 N   0  0  0  0  0  0  0  0  0  0  0  0
   59.6850   33.8950   49.0480 C   0  0  0  0  0  0  0  0  0  0  0  0
   60.6580   34.6280   49.3690 O   0  0  0  0  0  0  0  0  0  0  0  0
   59.2520   33.8330   47.6390 C   0  0  0  0  0  0  0  0  0  0  0  0
   59.3810   34.9610   46.8150 C   0  0  0  0  0  0  0  0  0  0  0  0
   59.0120   34.8990   45.4710 C   0  0  0  0  0  0  0  0  0  0  0  0
   58.5060   33.7130   44.9370 C   0  0  0  0  0  0  0  0  0  0  0  0
   58.3510   32.5770   45.7490 C   0  0  0  0  0  0  0  0  0  0  0  0
   57.8740   31.3010   45.1710 C   0  0  0  0  0  0  0  0  0  0  0  0
   56.6540   31.1380   44.9090 O   0  0  0  0  0  0  0  0  0  0  0  0
   58.7910   30.2290   44.9300 N   0  0  0  0  0  0  0  0  0  0  0  0
   59.0840   29.1840   45.9110 C   0  0  2  0  0  0  0  0  0  0  0  0
   57.7740   28.5770   46.4530 C   0  0  0  0  0  0  0  0  0  0  0  0
   56.8860   28.0950   45.3450 C   0  0  0  0  0  0  0  0  0  0  0  0
   55.5620   28.6070   45.2160 N   0  0  0  0  0  0  0  0  0  0  0  0
   57.2990   27.2170   44.5420 O   0  0  0  0  0  0  0  0  0  0  0  0
   60.0210   29.7110   46.9900 C   0  0  0  0  0  0  0  0  0  0  0  0
   59.8540   29.3720   48.3480 C   0  0  0  0  0  0  0  0  0  0  0  0
   60.6620   29.9530   49.3290 C   0  0  0  0  0  0  0  0  0  0  0  0
   61.6420   30.8840   48.9750 C   0  0  0  0  0  0  0  0  0  0  0  0
   62.6230   31.6080   50.2420 Cl  0  0  0  0  0  0  0  0  0  0  0  0
   61.8150   31.2360   47.6280 C   0  0  0  0  0  0  0  0  0  0  0  0
   63.0220   32.4190   47.1430 Cl  0  0  0  0  0  0  0  0  0  0  0  0
   61.0060   30.6520   46.6450 C   0  0  0  0  0  0  0  0  0  0  0  0
   58.7110   32.6510   47.1060 C   0  0  0  0  0  0  0  0  0  0  0  0
   59.2280   32.8770   51.5010 C   0  0  0  0  0  0  0  0  0  0  0  0
   57.3043   31.9427   53.5323 H   0  0  0  0  0  0  0  0  0  0  0  0
   56.6396   33.0076   52.2474 H   0  0  0  0  0  0  0  0  0  0  0  0
   56.2555   31.2529   52.2474 H   0  0  0  0  0  0  0  0  0  0  0  0
   59.8020   30.7590   52.2710 H   0  0  0  0  0  0  0  0  0  0  0  0
   58.4041   31.1087   49.5234 H   0  0  0  0  0  0  0  0  0  0  0  0
   57.0780   32.1540   49.7663 H   0  0  0  0  0  0  0  0  0  0  0  0
   59.7754   35.8998   47.2310 H   0  0  0  0  0  0  0  0  0  0  0  0
   59.1201   35.7869   44.8307 H   0  0  0  0  0  0  0  0  0  0  0  0
   58.2269   33.6674   43.8740 H   0  0  0  0  0  0  0  0  0  0  0  0
   59.6235   28.3562   45.4276 H   0  0  0  0  0  0  0  0  0  0  0  0
   58.0188   27.7282   47.1085 H   0  0  0  0  0  0  0  0  0  0  0  0
   57.2364   29.3606   47.0070 H   0  0  0  0  0  0  0  0  0  0  0  0
   55.3040   29.5340   45.6210 H   0  0  0  0  0  0  0  0  0  0  0  0
   59.0816   28.6444   48.6378 H   0  0  0  0  0  0  0  0  0  0  0  0
   60.5259   29.6761   50.3849 H   0  0  0  0  0  0  0  0  0  0  0  0
   61.1433   30.9333   45.5905 H   0  0  0  0  0  0  0  0  0  0  0  0
   58.5678   31.7755   47.7564 H   0  0  0  0  0  0  0  0  0  0  0  0
   60.2566   32.5935   51.7686 H   0  0  0  0  0  0  0  0  0  0  0  0
   59.0534   33.7389   52.1618 H   0  0  0  0  0  0  0  0  0  0  0  0
  1  2  1  0
  2  3  1  0
  2  4  1  0
  4  5  1  0
  5  6  1  0
  6  7  2  0
  6  8  1  0
  8  9  2  0
  9 10  1  0
 10 11  2  0
 11 12  1  0
 12 13  1  0
 13 14  2  0
 13 15  1  0
 15 16  1  0
 16 17  1  0
 17 18  1  0
 18 19  1  0
 18 20  2  0
 16 21  1  0
 21 22  2  0
 22 23  1  0
 23 24  2  0
 24 25  1  0
 24 26  1  0
 26 27  1  0
 26 28  2  0
 12 29  2  0
  5 30  1  0
 30  2  1  0
 29  8  1  0
 28 21  1  0
  1 31  1  0
  1 32  1  0
  1 33  1  0
  3 34  1  0
  4 35  1  0
  4 36  1  0
  9 37  1  0
 10 38  1  0
 11 39  1  0
 16 40  1  6
 17 41  1  0
 17 42  1  0
 19 43  1  0
 22 44  1  0
 23 45  1  0
 28 46  1  0
 29 47  1  0
 30 48  1  0
 30 49  1  0
M  CHG  2  15  -1  19  -1
M  END
>  <UniqueID>  (37) 
34

>  <SMILES>  (37) 
CC1(O)CN(C(=O)c2cccc(C(=O)[N-][C@H](CC([NH-])=O)c3ccc(Cl)c(Cl)c3)c2)C1

>  <Energy>  (37) 
102.59203821123938

>  <Genealogy>  (37) 
CC1(O)CN(C(=O)c2cccc(C(=O)[N-]C(CC([NH-])=O)c3ccc(Cl)c(Cl)c3)c2)C1 (protonated)
CC1(O)CN(C(=O)c2cccc(C(=O)[N-][C@H](CC([NH-])=O)c3ccc(Cl)c(Cl)c3)c2)C1 (chirality)
CC1(O)CN(C(=O)c2cccc(C(=O)[N-][C@H](CC([NH-])=O)c3ccc(Cl)c(Cl)c3)c2)C1 (3D coordinates assigned)
CC1(O)CN(C(=O)c2cccc(C(=O)[N-][C@H](CC([NH-])=O)c3ccc(Cl)c(Cl)c3)c2)C1 (nonaromatic ring conformer: 102.59203821123938 kcal/mol)

>  <smiles>  (37) 
CC1(O)CN(C(=O)c2cccc(C(=O)NC(CC(N)=O)c3ccc(Cl)c(Cl)c3)c2)C1

>  <score_type>  (37) 
oracle

>  <origin>  (37) 
adg

>  <m_score__min__energy>  (37) 
-12.93

>  <m_primary>  (37) 
energy

$$$$
37:0
     RDKit          3D

 25 26  0  0  0  0  0  0  0  0999 V2000
   62.0530   31.3930   47.1220 C   0  0  0  0  0  0  0  0  0  0  0  0
   60.8640   30.8380   46.8730 C   0  0  0  0  0  0  0  0  0  0  0  0
   60.5480   29.5080   47.0640 C   0  0  0  0  0  0  0  0  0  0  0  0
   59.2230   29.3840   46.6790 C   0  0  0  0  0  0  0  0  0  0  0  0
   58.4300   28.1360   46.6560 C   0  0  0  0  0  0  0  0  0  0  0  0
   58.9610   27.0210   47.3250 C   0  0  0  0  0  0  0  0  0  0  0  0
   58.2240   25.8440   47.4450 C   0  0  0  0  0  0  0  0  0  0  0  0
   56.9460   25.7610   46.8990 C   0  0  0  0  0  0  0  0  0  0  0  0
   56.4080   26.8440   46.1980 C   0  0  0  0  0  0  0  0  0  0  0  0
   55.1420   26.7170   45.6370 O   0  0  0  0  0  0  0  0  0  0  0  0
   57.1470   28.0360   46.0460 C   0  0  0  0  0  0  0  0  0  0  0  0
   56.5800   29.1080   45.1960 C   0  0  0  0  0  0  0  0  0  0  0  0
   55.3390   29.3170   45.1450 O   0  0  0  0  0  0  0  0  0  0  0  0
   58.7620   30.5450   46.2680 O   0  0  0  0  0  0  0  0  0  0  0  0
   59.7150   31.4420   46.3750 C   0  0  0  0  0  0  0  0  0  0  0  0
   59.5470   32.7220   46.0400 C   0  0  0  0  0  0  0  0  0  0  0  0
   62.2086   32.4661   46.9370 H   0  0  0  0  0  0  0  0  0  0  0  0
   62.8766   30.7770   47.5121 H   0  0  0  0  0  0  0  0  0  0  0  0
   61.2088   28.7141   47.4421 H   0  0  0  0  0  0  0  0  0  0  0  0
   59.9701   27.0773   47.7592 H   0  0  0  0  0  0  0  0  0  0  0  0
   58.6530   24.9791   47.9721 H   0  0  0  0  0  0  0  0  0  0  0  0
   56.3574   24.8396   47.0197 H   0  0  0  0  0  0  0  0  0  0  0  0
   57.2568   29.7348   44.5967 H   0  0  0  0  0  0  0  0  0  0  0  0
   60.3792   33.4329   46.1494 H   0  0  0  0  0  0  0  0  0  0  0  0
   58.5762   33.0667   45.6544 H   0  0  0  0  0  0  0  0  0  0  0  0
  1  2  2  0
  2  3  1  0
  3  4  2  0
  4  5  1  0
  5  6  2  0
  6  7  1  0
  7  8  2  0
  8  9  1  0
  9 10  1  0
  9 11  2  0
 11 12  1  0
 12 13  2  0
  4 14  1  0
 14 15  1  0
 15 16  2  0
 15  2  1  0
 11  5  1  0
  1 17  1  0
  1 18  1  0
  3 19  1  0
  6 20  1  0
  7 21  1  0
  8 22  1  0
 12 23  1  0
 16 24  1  0
 16 25  1  0
M  CHG  1  10  -1
M  END
>  <UniqueID>  (38) 
35

>  <SMILES>  (38) 
C=c1cc(-c2cccc([O-])c2C=O)oc1=C

>  <Energy>  (38) 
63.41647286159393

>  <Genealogy>  (38) 
C=c1cc(-c2cccc([O-])c2C=O)oc1=C (protonated)
C=c1cc(-c2cccc([O-])c2C=O)oc1=C (3D coordinates assigned)
C=c1cc(-c2cccc([O-])c2C=O)oc1=C (optimized conformer: 63.41647286159393 kcal/mol)

>  <smiles>  (38) 
C=c1cc(-c2cccc(O)c2C=O)oc1=C

>  <score_type>  (38) 
oracle

>  <origin>  (38) 
adg

>  <m_score__min__energy>  (38) 
-9.6300000000000008

>  <m_primary>  (38) 
energy

$$$$
38:0
     RDKit          3D

 32 33  0  0  0  0  0  0  0  0999 V2000
   58.8350   22.0510   44.1820 C   0  0  0  0  0  0  0  0  0  0  0  0
   57.5730   21.8570   44.5740 C   0  0  0  0  0  0  0  0  0  0  0  0
   57.2530   21.1990   45.8820 C   0  0  0  0  0  0  0  0  0  0  0  0
   57.6390   22.0730   46.9820 N   0  0  0  0  0  0  0  0  0  0  0  0
   56.8410   23.1480   47.4920 C   0  0  0  0  0  0  0  0  0  0  0  0
   56.8160   23.3450   48.7360 O   0  0  0  0  0  0  0  0  0  0  0  0
   55.9840   24.0010   46.5950 C   0  0  0  0  0  0  0  0  0  0  0  0
   56.6990   25.2200   46.2110 N   0  0  0  0  0  0  0  0  0  0  0  0
   56.1550   26.4340   45.9770 C   0  0  0  0  0  0  0  0  0  0  0  0
   54.7930   26.7080   46.0350 O   0  0  0  0  0  0  0  0  0  0  0  0
   57.1400   27.3560   45.6870 C   0  0  0  0  0  0  0  0  0  0  0  0
   58.3360   26.6860   45.7570 C   0  0  0  0  0  0  0  0  0  0  0  0
   58.0390   25.3790   46.0880 C   0  0  0  0  0  0  0  0  0  0  0  0
   58.9830   24.3730   46.2840 O   0  0  0  0  0  0  0  0  0  0  0  0
   59.6700   27.3270   45.5480 C   0  0  0  0  0  0  0  0  0  0  0  0
   59.5360   28.7860   45.1630 C   0  0  0  0  0  0  0  0  0  0  0  0
   58.3590   29.4470   45.0930 C   0  0  0  0  0  0  0  0  0  0  0  0
   57.0130   28.8150   45.3900 C   0  0  0  0  0  0  0  0  0  0  0  0
   59.0427   22.5365   43.2170 H   0  0  0  0  0  0  0  0  0  0  0  0
   59.6666   21.7253   44.8241 H   0  0  0  0  0  0  0  0  0  0  0  0
   56.7505   22.1874   43.9226 H   0  0  0  0  0  0  0  0  0  0  0  0
   56.1725   20.9998   45.9358 H   0  0  0  0  0  0  0  0  0  0  0  0
   57.8087   20.2528   45.9579 H   0  0  0  0  0  0  0  0  0  0  0  0
   55.7281   23.4310   45.6897 H   0  0  0  0  0  0  0  0  0  0  0  0
   55.0692   24.2810   47.1378 H   0  0  0  0  0  0  0  0  0  0  0  0
   58.7170   23.3980   46.3410 H   0  0  0  0  0  0  0  0  0  0  0  0
   60.2497   27.2560   46.4802 H   0  0  0  0  0  0  0  0  0  0  0  0
   60.1786   26.8008   44.7267 H   0  0  0  0  0  0  0  0  0  0  0  0
   60.4545   29.3427   44.9254 H   0  0  0  0  0  0  0  0  0  0  0  0
   58.3788   30.5079   44.8029 H   0  0  0  0  0  0  0  0  0  0  0  0
   56.5673   29.3184   46.2606 H   0  0  0  0  0  0  0  0  0  0  0  0
   56.3770   28.9293   44.4998 H   0  0  0  0  0  0  0  0  0  0  0  0
  1  2  2  0
  2  3  1  0
  3  4  1  0
  4  5  1  0
  5  6  2  0
  5  7  1  0
  7  8  1  0
  8  9  1  0
  9 10  1  0
  9 11  2  0
 11 12  1  0
 12 13  2  0
 13 14  1  0
 12 15  1  0
 15 16  1  0
 16 17  2  0
 17 18  1  0
 13  8  1  0
 18 11  1  0
  1 19  1  0
  1 20  1  0
  2 21  1  0
  3 22  1  0
  3 23  1  0
  7 24  1  0
  7 25  1  0
 14 26  1  0
 15 27  1  0
 15 28  1  0
 16 29  1  0
 17 30  1  0
 18 31  1  0
 18 32  1  0
M  CHG  2   4  -1  10  -1
M  END
>  <UniqueID>  (39) 
36

>  <SMILES>  (39) 
C=CC[N-]C(=O)Cn1c([O-])c2c(c1O)CC=CC2

>  <Energy>  (39) 
57.669342930968455

>  <Genealogy>  (39) 
C=CC[N-]C(=O)Cn1c([O-])c2c(c1O)CC=CC2 (protonated)
C=CC[N-]C(=O)Cn1c([O-])c2c(c1O)CC=CC2 (3D coordinates assigned)
C=CC[N-]C(=O)Cn1c([O-])c2c(c1O)CC=CC2 (nonaromatic ring conformer: 57.669342930968455 kcal/mol)

>  <smiles>  (39) 
C=CCNC(=O)Cn1c(O)c2c(c1O)CC=CC2

>  <score_type>  (39) 
oracle

>  <origin>  (39) 
adg

>  <m_score__min__energy>  (39) 
-10.09

>  <m_primary>  (39) 
energy

$$$$
39:0
     RDKit          3D

 48 50  0  0  1  0  0  0  0  0999 V2000
   57.4080   33.8300   44.7370 C   0  0  0  0  0  0  0  0  0  0  0  0
   57.6530   32.6630   45.5630 N   0  0  0  0  0  0  0  0  0  0  0  0
   58.1240   32.9180   46.9190 C   0  0  0  0  0  0  0  0  0  0  0  0
   59.6120   32.8840   46.9800 C   0  0  0  0  0  0  0  0  0  0  0  0
   60.1760   31.6760   47.4060 C   0  0  0  0  0  0  0  0  0  0  0  0
   61.5620   31.5580   47.4970 C   0  0  0  0  0  0  0  0  0  0  0  0
   62.3570   32.6430   47.1620 C   0  0  0  0  0  0  0  0  0  0  0  0
   61.7860   33.8400   46.7380 C   0  0  0  0  0  0  0  0  0  0  0  0
   60.3990   33.9720   46.6430 C   0  0  0  0  0  0  0  0  0  0  0  0
   57.4480   31.3490   45.0550 C   0  0  0  0  0  0  0  0  0  0  0  0
   56.7690   31.1180   43.8760 C   0  0  0  0  0  0  0  0  0  0  0  0
   56.5660   29.8310   43.3860 C   0  0  0  0  0  0  0  0  0  0  0  0
   57.0360   28.7750   44.0670 N   0  0  0  0  0  0  0  0  0  0  0  0
   57.6940   29.0070   45.2120 C   0  0  0  0  0  0  0  0  0  0  0  0
   58.1370   28.0280   45.9020 N   0  0  0  0  0  0  0  0  0  0  0  0
   57.3870   27.0820   46.6710 C   0  0  0  0  0  0  0  0  0  0  0  0
   57.1640   25.7980   45.9520 C   0  0  0  0  0  0  0  0  0  0  0  0
   58.2340   25.0210   45.5490 C   0  0  0  0  0  0  0  0  0  0  0  0
   58.0530   23.8200   44.8680 C   0  0  0  0  0  0  0  0  0  0  0  0
   56.7800   23.3530   44.5630 C   0  0  0  0  0  0  0  0  0  0  0  0
   56.5960   21.8360   43.7120 S   0  0  0  0  0  0  0  0  0  0  0  0
   58.1310   21.1040   43.4160 N   0  0  0  0  0  0  0  0  0  0  0  0
   55.7590   20.8910   44.4880 O   0  0  0  0  0  0  0  0  0  0  0  0
   55.9560   22.1300   42.3850 O   0  0  0  0  0  0  0  0  0  0  0  0
   55.7180   24.1170   44.9580 C   0  0  0  0  0  0  0  0  0  0  0  0
   55.9070   25.3200   45.6420 C   0  0  0  0  0  0  0  0  0  0  0  0
   57.9010   30.2480   45.7010 N   0  0  0  0  0  0  0  0  0  0  0  0
   57.2247   34.7029   45.3807 H   0  0  0  0  0  0  0  0  0  0  0  0
   58.2857   34.0205   44.1019 H   0  0  0  0  0  0  0  0  0  0  0  0
   56.5278   33.6515   44.1019 H   0  0  0  0  0  0  0  0  0  0  0  0
   57.7729   33.9092   47.2418 H   0  0  0  0  0  0  0  0  0  0  0  0
   57.7271   32.1351   47.5820 H   0  0  0  0  0  0  0  0  0  0  0  0
   59.5297   30.8251   47.6673 H   0  0  0  0  0  0  0  0  0  0  0  0
   62.0195   30.6149   47.8307 H   0  0  0  0  0  0  0  0  0  0  0  0
   63.4514   32.5574   47.2319 H   0  0  0  0  0  0  0  0  0  0  0  0
   62.4334   34.6896   46.4754 H   0  0  0  0  0  0  0  0  0  0  0  0
   59.9436   34.9160   46.3091 H   0  0  0  0  0  0  0  0  0  0  0  0
   56.3774   31.9746   43.3077 H   0  0  0  0  0  0  0  0  0  0  0  0
   56.0213   29.6801   42.4423 H   0  0  0  0  0  0  0  0  0  0  0  0
   56.9360   27.7850   43.7730 H   0  0  0  0  0  0  0  0  0  0  0  0
   57.9352   26.8727   47.6014 H   0  0  0  0  0  0  0  0  0  0  0  0
   56.3999   27.5256   46.8684 H   0  0  0  0  0  0  0  0  0  0  0  0
   59.2561   25.3607   45.7724 H   0  0  0  0  0  0  0  0  0  0  0  0
   58.9319   23.2312   44.5665 H   0  0  0  0  0  0  0  0  0  0  0  0
   58.0550   20.3140   42.7210 H   0  0  0  0  0  0  0  0  0  0  0  0
   58.6380   20.8270   44.2630 H   0  0  0  0  0  0  0  0  0  0  0  0
   54.6958   23.7784   44.7332 H   0  0  0  0  0  0  0  0  0  0  0  0
   55.0257   25.9052   45.9433 H   0  0  0  0  0  0  0  0  0  0  0  0
  1  2  1  0
  2  3  1  0
  3  4  1  0
  4  5  2  0
  5  6  1  0
  6  7  2  0
  7  8  1  0
  8  9  2  0
  2 10  1  0
 10 11  1  0
 11 12  2  0
 12 13  1  0
 13 14  1  0
 14 15  2  0
 15 16  1  0
 16 17  1  0
 17 18  2  0
 18 19  1  0
 19 20  2  0
 20 21  1  0
 21 22  1  0
 21 23  2  0
 21 24  2  0
 20 25  1  0
 25 26  2  0
 14 27  1  0
  9  4  1  0
 27 10  2  0
 26 17  1  0
  1 28  1  0
  1 29  1  0
  1 30  1  0
  3 31  1  0
  3 32  1  0
  5 33  1  0
  6 34  1  0
  7 35  1  0
  8 36  1  0
  9 37  1  0
 11 38  1  0
 12 39  1  0
 13 40  1  0
 16 41  1  0
 16 42  1  0
 18 43  1  0
 19 44  1  0
 22 45  1  0
 22 46  1  0
 25 47  1  0
 26 48  1  0
M  END
>  <smiles>  (40) 
CN(Cc1ccccc1)c1cc[nH]c(=NCc2ccc(S(N)(=O)=O)cc2)n1

>  <score_type>  (40) 
oracle

>  <origin>  (40) 
adg

>  <m_score__min__energy>  (40) 
-9.3800000000000008

>  <m_primary>  (40) 
energy

$$$$
40:0
     RDKit          3D

 60 63  0  0  0  0  0  0  0  0999 V2000
   60.5920   30.9470   52.8640 C   0  0  0  0  0  0  0  0  0  0  0  0
   59.1010   30.9350   52.6560 C   0  0  0  0  0  0  0  0  0  0  0  0
   58.4360   29.6980   52.5750 C   0  0  0  0  0  0  0  0  0  0  0  0
   57.0530   29.6410   52.3870 C   0  0  0  0  0  0  0  0  0  0  0  0
   56.3100   30.8210   52.2880 C   0  0  0  0  0  0  0  0  0  0  0  0
   54.4230   30.7420   52.0060 Br  0  0  0  0  0  0  0  0  0  0  0  0
   56.9510   32.0580   52.3860 C   0  0  0  0  0  0  0  0  0  0  0  0
   58.3430   32.1330   52.5700 C   0  0  0  0  0  0  0  0  0  0  0  0
   59.1020   33.7360   52.6580 S   0  0  0  0  0  0  0  0  0  0  0  0
   58.0820   34.8030   52.3730 O   0  0  0  0  0  0  0  0  0  0  0  0
   59.6290   33.9490   54.0490 O   0  0  0  0  0  0  0  0  0  0  0  0
   60.4060   33.9020   51.5250 N   0  0  0  0  0  0  0  0  0  0  0  0
   60.2790   33.7910   50.1020 C   0  0  0  0  0  0  0  0  0  0  0  0
   60.0890   34.8200   49.4010 O   0  0  0  0  0  0  0  0  0  0  0  0
   60.3720   32.4660   49.4530 C   0  0  0  0  0  0  0  0  0  0  0  0
   59.2710   31.5930   49.4450 C   0  0  0  0  0  0  0  0  0  0  0  0
   59.3750   30.3250   48.8680 C   0  0  0  0  0  0  0  0  0  0  0  0
   60.5790   29.9000   48.2950 C   0  0  0  0  0  0  0  0  0  0  0  0
   60.6270   28.6010   47.6790 N   0  0  0  0  0  0  0  0  0  0  0  0
   59.6300   27.9070   47.2200 C   0  0  0  0  0  0  0  0  0  0  0  0
   59.0550   26.9220   47.9560 N   0  0  0  0  0  0  0  0  0  0  0  0
   58.0010   26.2130   47.4810 C   0  0  0  0  0  0  0  0  0  0  0  0
   57.4640   26.4940   46.2140 C   0  0  0  0  0  0  0  0  0  0  0  0
   56.3050   25.7090   45.7070 C   0  0  0  0  0  0  0  0  0  0  0  0
   54.9660   26.1560   45.9090 N   0  0  0  0  0  0  0  0  0  0  0  0
   56.4950   24.6250   45.0900 O   0  0  0  0  0  0  0  0  0  0  0  0
   58.0690   27.5290   45.4700 C   0  0  0  0  0  0  0  0  0  0  0  0
   57.5940   27.8650   44.1990 O   0  0  0  0  0  0  0  0  0  0  0  0
   57.4530   29.2090   43.7550 C   0  0  0  0  0  0  0  0  0  0  0  0
   56.3460   29.8660   44.5100 C   0  0  0  0  0  0  0  0  0  0  0  0
   55.4880   29.1560   45.0980 O   0  0  0  0  0  0  0  0  0  0  0  0
   56.3390   31.2920   44.6490 N   0  0  0  0  0  0  0  0  0  0  0  0
   57.4420   32.1150   45.0600 C   0  0  0  0  0  0  0  0  0  0  0  0
   57.3720   33.4970   44.8350 C   0  0  0  0  0  0  0  0  0  0  0  0
   58.4130   34.3370   45.2460 C   0  0  0  0  0  0  0  0  0  0  0  0
   59.5270   33.8030   45.8980 C   0  0  0  0  0  0  0  0  0  0  0  0
   59.6000   32.4290   46.1430 C   0  0  0  0  0  0  0  0  0  0  0  0
   58.5620   31.5860   45.7310 C   0  0  0  0  0  0  0  0  0  0  0  0
   59.1290   28.2050   45.9960 N   0  0  0  0  0  0  0  0  0  0  0  0
   61.6720   30.7850   48.2630 C   0  0  0  0  0  0  0  0  0  0  0  0
   61.5730   32.0490   48.8540 C   0  0  0  0  0  0  0  0  0  0  0  0
   60.8119   30.9488   53.9418 H   0  0  0  0  0  0  0  0  0  0  0  0
   61.0340   30.0524   52.4011 H   0  0  0  0  0  0  0  0  0  0  0  0
   61.0196   31.8486   52.4011 H   0  0  0  0  0  0  0  0  0  0  0  0
   59.0118   28.7647   52.6607 H   0  0  0  0  0  0  0  0  0  0  0  0
   56.5479   28.6663   52.3168 H   0  0  0  0  0  0  0  0  0  0  0  0
   56.3605   32.9836   52.3185 H   0  0  0  0  0  0  0  0  0  0  0  0
   58.3196   31.9105   49.8967 H   0  0  0  0  0  0  0  0  0  0  0  0
   58.5028   29.6547   48.8640 H   0  0  0  0  0  0  0  0  0  0  0  0
   57.5629   25.4110   48.0933 H   0  0  0  0  0  0  0  0  0  0  0  0
   54.7660   27.0730   46.3750 H   0  0  0  0  0  0  0  0  0  0  0  0
   58.3919   29.7543   43.9314 H   0  0  0  0  0  0  0  0  0  0  0  0
   57.2212   29.2187   42.6797 H   0  0  0  0  0  0  0  0  0  0  0  0
   56.4922   33.9242   44.3316 H   0  0  0  0  0  0  0  0  0  0  0  0
   58.3540   35.4188   45.0555 H   0  0  0  0  0  0  0  0  0  0  0  0
   60.3462   34.4635   46.2184 H   0  0  0  0  0  0  0  0  0  0  0  0
   60.4752   32.0095   46.6607 H   0  0  0  0  0  0  0  0  0  0  0  0
   58.6208   30.5061   45.9318 H   0  0  0  0  0  0  0  0  0  0  0  0
   62.6082   30.4819   47.7713 H   0  0  0  0  0  0  0  0  0  0  0  0
   62.4428   32.7224   48.8499 H   0  0  0  0  0  0  0  0  0  0  0  0
  1  2  1  0
  2  3  2  0
  3  4  1  0
  4  5  2  0
  5  6  1  0
  5  7  1  0
  7  8  2  0
  8  9  1  0
  9 10  2  0
  9 11  2  0
  9 12  1  0
 12 13  1  0
 13 14  2  0
 13 15  1  0
 15 16  2  0
 16 17  1  0
 17 18  2  0
 18 19  1  0
 19 20  2  3
 20 21  1  0
 21 22  2  0
 22 23  1  0
 23 24  1  0
 24 25  1  0
 24 26  2  0
 23 27  2  0
 27 28  1  0
 28 29  1  0
 29 30  1  0
 30 31  2  0
 30 32  1  0
 32 33  1  0
 33 34  2  0
 34 35  1  0
 35 36  2  0
 36 37  1  0
 37 38  2  0
 27 39  1  0
 18 40  1  0
 40 41  2  0
  8  2  1  0
 41 15  1  0
 39 20  1  0
 38 33  1  0
  1 42  1  0
  1 43  1  0
  1 44  1  0
  3 45  1  0
  4 46  1  0
  7 47  1  0
 16 48  1  0
 17 49  1  0
 22 50  1  0
 25 51  1  0
 29 52  1  0
 29 53  1  0
 34 54  1  0
 35 55  1  0
 36 56  1  0
 37 57  1  0
 38 58  1  0
 40 59  1  0
 41 60  1  0
M  CHG  4  12  -1  25  -1  32  -1  39  -1
M  END
>  <UniqueID>  (41) 
37

>  <SMILES>  (41) 
Cc1ccc(Br)cc1S(=O)(=O)[N-]C(=O)c1ccc(N=c2ncc(C([NH-])=O)c(OCC(=O)[N-]c3ccccc3)[n-]2)cc1

>  <Energy>  (41) 
80.05399623791331

>  <Genealogy>  (41) 
Cc1ccc(Br)cc1S(=O)(=O)[N-]C(=O)c1ccc(N=c2ncc(C([NH-])=O)c(OCC(=O)[N-]c3ccccc3)[n-]2)cc1 (protonated)
Cc1ccc(Br)cc1S(=O)(=O)[N-]C(=O)c1ccc(N=c2ncc(C([NH-])=O)c(OCC(=O)[N-]c3ccccc3)[n-]2)cc1 (3D coordinates assigned)
Cc1ccc(Br)cc1S(=O)(=O)[N-]C(=O)c1ccc(N=c2ncc(C([NH-])=O)c(OCC(=O)[N-]c3ccccc3)[n-]2)cc1 (optimized conformer: 80.05399623791331 kcal/mol)

>  <smiles>  (41) 
Cc1ccc(Br)cc1S(=O)(=O)NC(=O)c1ccc(N=c2ncc(C(N)=O)c(OCC(=O)Nc3ccccc3)[nH]2)cc1

>  <score_type>  (41) 
oracle

>  <origin>  (41) 
adg

>  <m_score__min__energy>  (41) 
-17.039999999999999

>  <m_primary>  (41) 
energy

$$$$
41:0
     RDKit          3D

 70 75  0  0  0  0  0  0  0  0999 V2000
   59.3775   28.7993   48.6513 H   0  0  0  0  0  0  0  0  0  0  0  0
   59.2530   28.6700   47.5660 C   0  0  0  0  0  0  0  0  0  0  0  0
   58.0060   28.5970   47.0290 N   0  0  0  0  0  0  0  0  0  0  0  0
   57.8060   28.4290   45.6900 C   0  0  0  0  0  0  0  0  0  0  0  0
   56.6050   28.3740   45.1900 N   0  0  0  0  0  0  0  0  0  0  0  0
   55.9800   29.3870   44.3870 C   0  0  0  0  0  0  0  0  0  0  0  0
   54.7680   29.2430   44.0750 O   0  0  0  0  0  0  0  0  0  0  0  0
   56.6950   30.6180   43.9660 C   0  0  0  0  0  0  0  0  0  0  0  0
   56.9760   30.8600   42.6110 C   0  0  0  0  0  0  0  0  0  0  0  0
   56.6530   30.1366   41.8478 H   0  0  0  0  0  0  0  0  0  0  0  0
   57.6620   32.0120   42.2280 C   0  0  0  0  0  0  0  0  0  0  0  0
   57.8696   32.1964   41.1636 H   0  0  0  0  0  0  0  0  0  0  0  0
   58.0870   32.9330   43.1880 C   0  0  0  0  0  0  0  0  0  0  0  0
   58.6283   33.8384   42.8763 H   0  0  0  0  0  0  0  0  0  0  0  0
   57.8260   32.7080   44.5510 C   0  0  0  0  0  0  0  0  0  0  0  0
   58.2900   33.6630   45.5860 C   0  0  0  0  0  0  0  0  0  0  0  0
   57.4950   34.0190   46.5000 O   0  0  0  0  0  0  0  0  0  0  0  0
   59.6190   34.2070   45.5550 N   0  0  0  0  0  0  0  0  0  0  0  0
   60.2090   34.0680   44.7040 H   0  0  0  0  0  0  0  0  0  0  0  0
   60.1390   34.9940   46.6730 C   0  0  0  0  0  0  0  0  0  0  0  0
   60.6804   35.8668   46.2792 H   0  0  0  0  0  0  0  0  0  0  0  0
   59.2951   35.3189   47.2994 H   0  0  0  0  0  0  0  0  0  0  0  0
   61.0530   34.1900   47.4930 C   0  0  0  0  0  0  0  0  0  0  0  0
   61.8010   33.5250   48.1630 C   0  0  0  0  0  0  0  0  0  0  0  0
   62.6970   32.7290   48.9600 C   0  0  0  0  0  0  0  0  0  0  0  0
   64.0540   33.1100   49.0900 C   0  0  0  0  0  0  0  0  0  0  0  0
   64.4189   34.0121   48.5772 H   0  0  0  0  0  0  0  0  0  0  0  0
   64.9400   32.3440   49.8700 C   0  0  0  0  0  0  0  0  0  0  0  0
   65.9979   32.6283   49.9697 H   0  0  0  0  0  0  0  0  0  0  0  0
   64.4370   31.2150   50.5120 C   0  0  0  0  0  0  0  0  0  0  0  0
   63.1180   30.8450   50.3860 C   0  0  0  0  0  0  0  0  0  0  0  0
   62.2160   31.5760   49.6120 C   0  0  0  0  0  0  0  0  0  0  0  0
   61.1660   31.2631   49.5142 H   0  0  0  0  0  0  0  0  0  0  0  0
   62.9750   29.6860   51.1180 C   0  0  0  0  0  0  0  0  0  0  0  0
   64.2110   29.4180   51.6690 C   0  0  0  0  0  0  0  0  0  0  0  0
   65.1210   30.3430   51.2800 N   0  0  0  0  0  0  0  0  0  0  0  0
   66.1420   30.3600   51.5000 H   0  0  0  0  0  0  0  0  0  0  0  0
   64.5010   28.1360   52.4140 C   0  0  1  0  0  0  0  0  0  0  0  0
   64.8832   27.4062   51.6851 H   0  0  0  0  0  0  0  0  0  0  0  0
   65.5570   28.3430   53.4760 C   0  0  0  0  0  0  0  0  0  0  0  0
   65.3740   27.8620   54.6270 O   0  0  0  0  0  0  0  0  0  0  0  0
   66.7970   29.0090   53.2050 N   0  0  0  0  0  0  0  0  0  0  0  0
   67.9570   28.4190   52.5370 C   0  0  0  0  0  0  0  0  0  0  0  0
   68.8520   28.9068   52.9506 H   0  0  0  0  0  0  0  0  0  0  0  0
   67.8300   28.5990   51.0310 C   0  0  0  0  0  0  0  0  0  0  0  0
   67.2642   29.5145   50.8034 H   0  0  0  0  0  0  0  0  0  0  0  0
   68.8174   28.6944   50.5556 H   0  0  0  0  0  0  0  0  0  0  0  0
   67.0830   27.3750   50.5140 C   0  0  0  0  0  0  0  0  0  0  0  0
   66.0360   27.6342   50.2982 H   0  0  0  0  0  0  0  0  0  0  0  0
   67.5359   27.0016   49.5837 H   0  0  0  0  0  0  0  0  0  0  0  0
   67.1460   26.3190   51.6140 C   0  0  0  0  0  0  0  0  0  0  0  0
   66.1329   26.0865   51.9740 H   0  0  0  0  0  0  0  0  0  0  0  0
   67.5915   25.3855   51.2396 H   0  0  0  0  0  0  0  0  0  0  0  0
   67.9810   26.9080   52.7430 C   0  0  0  0  0  0  0  0  0  0  0  0
   67.5435   26.6479   53.7182 H   0  0  0  0  0  0  0  0  0  0  0  0
   69.0085   26.5154   52.7323 H   0  0  0  0  0  0  0  0  0  0  0  0
   63.2030   27.5800   53.0630 C   0  0  0  0  0  0  0  0  0  0  0  0
   62.9702   28.1766   53.9573 H   0  0  0  0  0  0  0  0  0  0  0  0
   63.3787   26.5252   53.3209 H   0  0  0  0  0  0  0  0  0  0  0  0
   62.0560   27.6360   52.1440 N   0  0  0  0  0  0  0  0  0  0  0  0
   61.8530   28.7680   51.2930 C   0  0  0  0  0  0  0  0  0  0  0  0
   60.7600   28.9300   50.6900 O   0  0  0  0  0  0  0  0  0  0  0  0
   57.1390   31.5400   44.9310 C   0  0  0  0  0  0  0  0  0  0  0  0
   56.9468   31.3456   45.9965 H   0  0  0  0  0  0  0  0  0  0  0  0
   58.9090   28.3460   44.8340 C   0  0  0  0  0  0  0  0  0  0  0  0
   58.7620   28.2234   43.7508 H   0  0  0  0  0  0  0  0  0  0  0  0
   60.1980   28.4200   45.3650 C   0  0  0  0  0  0  0  0  0  0  0  0
   61.0724   28.3516   44.7011 H   0  0  0  0  0  0  0  0  0  0  0  0
   60.3750   28.5810   46.7410 C   0  0  0  0  0  0  0  0  0  0  0  0
   61.3867   28.6370   47.1693 H   0  0  0  0  0  0  0  0  0  0  0  0
  1  2  1  0
  2  3  1  0
  3  4  1  0
  4  5  2  0
  5  6  1  0
  6  7  2  0
  6  8  1  0
  8  9  2  0
  9 10  1  0
  9 11  1  0
 11 12  1  0
 11 13  2  0
 13 14  1  0
 13 15  1  0
 15 16  1  0
 16 17  2  0
 16 18  1  0
 18 19  1  0
 18 20  1  0
 20 21  1  0
 20 22  1  0
 20 23  1  0
 23 24  3  0
 24 25  1  0
 25 26  2  0
 26 27  1  0
 26 28  1  0
 28 29  1  0
 28 30  2  0
 30 31  1  0
 31 32  2  0
 32 33  1  0
 31 34  1  0
 34 35  2  0
 35 36  1  0
 36 37  1  0
 35 38  1  0
 38 39  1  6
 38 40  1  0
 40 41  2  0
 40 42  1  0
 42 43  1  0
 43 44  1  0
 43 45  1  0
 45 46  1  0
 45 47  1  0
 45 48  1  0
 48 49  1  0
 48 50  1  0
 48 51  1  0
 51 52  1  0
 51 53  1  0
 51 54  1  0
 54 55  1  0
 54 56  1  0
 38 57  1  0
 57 58  1  0
 57 59  1  0
 57 60  1  0
 60 61  1  0
 61 62  2  0
 15 63  2  0
 63 64  1  0
  4 65  1  0
 65 66  1  0
 65 67  2  0
 67 68  1  0
 67 69  1  0
 69 70  1  0
 69  2  2  0
 63  8  1  0
 32 25  1  0
 61 34  1  0
 36 30  1  0
 54 43  1  0
M  CHG  3   3  -1  42  -1  60  -1
M  END
>  <UniqueID>  (42) 
38

>  <SMILES>  (42) 
O=C(/N=c1/cccc[n-]1)c1cccc(C(=O)NCC#Cc2ccc3[nH]c4c(c3c2)C(=O)[N-]C[C@@H]4C(=O)[N-]C2CCCC2)c1

>  <Energy>  (42) 
118.12558045704115

>  <Genealogy>  (42) 
O=C(N=c1cccc[n-]1)c1cccc(C(=O)NCC#Cc2ccc3[nH]c4c(c3c2)C(=O)[N-]CC4C(=O)[N-]C2CCCC2)c1 (protonated)
O=C(N=c1cccc[n-]1)c1cccc(C(=O)NCC#Cc2ccc3[nH]c4c(c3c2)C(=O)[N-]C[C@@H]4C(=O)[N-]C2CCCC2)c1 (chirality)
O=C(/N=c1/cccc[n-]1)c1cccc(C(=O)NCC#Cc2ccc3[nH]c4c(c3c2)C(=O)[N-]C[C@@H]4C(=O)[N-]C2CCCC2)c1 (cis-trans isomerization)
O=C(/N=c1/cccc[n-]1)c1cccc(C(=O)NCC#Cc2ccc3[nH]c4c(c3c2)C(=O)[N-]C[C@@H]4C(=O)[N-]C2CCCC2)c1 (3D coordinates assigned)
O=C(/N=c1/cccc[n-]1)c1cccc(C(=O)NCC#Cc2ccc3[nH]c4c(c3c2)C(=O)[N-]C[C@@H]4C(=O)[N-]C2CCCC2)c1 (nonaromatic ring conformer: 118.12558045704115 kcal/mol)

>  <smiles>  (42) 
O=C(N=c1cccc[nH]1)c1cccc(C(=O)NCC#Cc2ccc3[nH]c4c(c3c2)C(=O)NCC4C(=O)NC2CCCC2)c1

>  <score_type>  (42) 
oracle

>  <origin>  (42) 
adg

>  <m_score__min__energy>  (42) 
-12.75

>  <m_primary>  (42) 
energy

$$$$
42:0
     RDKit          3D

 38 40  0  0  0  0  0  0  0  0999 V2000
   58.1440   32.4700   42.7110 C   0  0  0  0  0  0  0  0  0  0  0  0
   58.5110   32.9380   43.9000 C   0  0  0  0  0  0  0  0  0  0  0  0
   58.9070   34.2510   44.1140 O   0  0  0  0  0  0  0  0  0  0  0  0
   59.1640   34.3450   45.4700 C   0  0  0  0  0  0  0  0  0  0  0  0
   59.5680   35.3960   46.0330 O   0  0  0  0  0  0  0  0  0  0  0  0
   58.9330   33.0570   46.1270 C   0  0  0  0  0  0  0  0  0  0  0  0
   59.1540   32.7730   47.5620 C   0  0  0  0  0  0  0  0  0  0  0  0
   60.3630   32.7770   48.2410 C   0  0  0  0  0  0  0  0  0  0  0  0
   60.0720   32.4790   49.5570 C   0  0  0  0  0  0  0  0  0  0  0  0
   58.7420   32.3190   49.7030 N   0  0  0  0  0  0  0  0  0  0  0  0
   58.0550   31.9250   50.9270 C   0  0  0  0  0  0  0  0  0  0  0  0
   58.1740   32.4880   48.4950 C   0  0  0  0  0  0  0  0  0  0  0  0
   58.5390   32.2020   45.1750 C   0  0  0  0  0  0  0  0  0  0  0  0
   58.1200   30.7980   45.3700 C   0  0  0  0  0  0  0  0  0  0  0  0
   58.8450   29.9510   46.2230 C   0  0  0  0  0  0  0  0  0  0  0  0
   58.4510   28.6230   46.3990 C   0  0  0  0  0  0  0  0  0  0  0  0
   57.3220   28.1280   45.7320 C   0  0  0  0  0  0  0  0  0  0  0  0
   56.8410   26.4470   45.9340 S   0  0  0  0  0  0  0  0  0  0  0  0
   57.4420   25.4920   44.5590 C   0  0  0  0  0  0  0  0  0  0  0  0
   55.3440   26.3490   45.9990 O   0  0  0  0  0  0  0  0  0  0  0  0
   57.4160   25.9040   47.2130 O   0  0  0  0  0  0  0  0  0  0  0  0
   56.5970   28.9710   44.8790 C   0  0  0  0  0  0  0  0  0  0  0  0
   56.9910   30.3000   44.7020 C   0  0  0  0  0  0  0  0  0  0  0  0
   57.8399   31.4183   42.6039 H   0  0  0  0  0  0  0  0  0  0  0  0
   58.1445   33.1344   41.8344 H   0  0  0  0  0  0  0  0  0  0  0  0
   61.3572   32.9779   47.8152 H   0  0  0  0  0  0  0  0  0  0  0  0
   60.8135   32.3862   50.3642 H   0  0  0  0  0  0  0  0  0  0  0  0
   58.6375   32.2591   51.7982 H   0  0  0  0  0  0  0  0  0  0  0  0
   57.0577   32.3884   50.9532 H   0  0  0  0  0  0  0  0  0  0  0  0
   57.9514   30.8302   50.9532 H   0  0  0  0  0  0  0  0  0  0  0  0
   57.0974   32.4114   48.2826 H   0  0  0  0  0  0  0  0  0  0  0  0
   59.7276   30.3353   46.7553 H   0  0  0  0  0  0  0  0  0  0  0  0
   59.0285   27.9632   47.0632 H   0  0  0  0  0  0  0  0  0  0  0  0
   57.9929   24.6166   44.9335 H   0  0  0  0  0  0  0  0  0  0  0  0
   56.5922   25.1560   43.9466 H   0  0  0  0  0  0  0  0  0  0  0  0
   58.1125   26.1128   43.9466 H   0  0  0  0  0  0  0  0  0  0  0  0
   55.7148   28.5853   44.3470 H   0  0  0  0  0  0  0  0  0  0  0  0
   56.4137   30.9584   44.0363 H   0  0  0  0  0  0  0  0  0  0  0  0
  1  2  2  0
  2  3  1  0
  3  4  1  0
  4  5  2  0
  4  6  1  0
  6  7  1  0
  7  8  1  0
  8  9  2  0
  9 10  1  0
 10 11  1  0
 10 12  1  0
  6 13  2  0
 13 14  1  0
 14 15  2  0
 15 16  1  0
 16 17  2  0
 17 18  1  0
 18 19  1  0
 18 20  2  0
 18 21  2  0
 17 22  1  0
 22 23  2  0
 13  2  1  0
 23 14  1  0
 12  7  2  0
  1 24  1  0
  1 25  1  0
  8 26  1  0
  9 27  1  0
 11 28  1  0
 11 29  1  0
 11 30  1  0
 12 31  1  0
 15 32  1  0
 16 33  1  0
 19 34  1  0
 19 35  1  0
 19 36  1  0
 22 37  1  0
 23 38  1  0
M  END
>  <UniqueID>  (43) 
39

>  <SMILES>  (43) 
C=C1OC(=O)C(c2ccn(C)c2)=C1c1ccc(S(C)(=O)=O)cc1

>  <Energy>  (43) 
94.99498927660375

>  <Genealogy>  (43) 
C=C1OC(=O)C(c2ccn(C)c2)=C1c1ccc(S(C)(=O)=O)cc1 (3D coordinates assigned)
C=C1OC(=O)C(c2ccn(C)c2)=C1c1ccc(S(C)(=O)=O)cc1 (nonaromatic ring conformer: 94.99498927660375 kcal/mol)

>  <smiles>  (43) 
C=C1OC(=O)C(c2ccn(C)c2)=C1c1ccc(S(C)(=O)=O)cc1

>  <score_type>  (43) 
oracle

>  <origin>  (43) 
adg

>  <m_score__min__energy>  (43) 
-8.0099999999999998

>  <m_primary>  (43) 
energy

$$$$
43:0
     RDKit          3D

 43 45  0  0  0  0  0  0  0  0999 V2000
   58.6150   33.6460   44.4900 C   0  0  0  0  0  0  0  0  0  0  0  0
   58.2920   32.3600   44.7040 C   0  0  0  0  0  0  0  0  0  0  0  0
   58.4500   31.8300   45.9940 C   0  0  0  0  0  0  0  0  0  0  0  0
   58.1290   30.5010   46.2670 C   0  0  0  0  0  0  0  0  0  0  0  0
   57.6360   29.6480   45.2600 C   0  0  0  0  0  0  0  0  0  0  0  0
   57.3300   28.3570   45.5530 C   0  0  0  0  0  0  0  0  0  0  0  0
   58.2770   27.4210   45.8200 N   0  0  0  0  0  0  0  0  0  0  0  0
   57.5900   26.2880   46.0620 C   0  0  0  0  0  0  0  0  0  0  0  0
   58.1380   25.0970   46.3530 C   0  0  0  0  0  0  0  0  0  0  0  0
   57.6900   23.8090   45.7750 C   0  0  0  0  0  0  0  0  0  0  0  0
   57.8980   23.3420   44.4860 C   0  0  0  0  0  0  0  0  0  0  0  0
   57.3650   22.0680   44.4400 C   0  0  0  0  0  0  0  0  0  0  0  0
   57.3900   21.1780   43.2360 C   0  0  0  0  0  0  0  0  0  0  0  0
   56.8670   21.7230   45.6490 N   0  0  0  0  0  0  0  0  0  0  0  0
   56.2140   20.4600   45.9990 C   0  0  0  0  0  0  0  0  0  0  0  0
   57.0380   22.7910   46.4610 C   0  0  0  0  0  0  0  0  0  0  0  0
   56.6370   22.8320   47.9090 C   0  0  0  0  0  0  0  0  0  0  0  0
   56.2480   26.5550   45.9310 C   0  0  0  0  0  0  0  0  0  0  0  0
   55.3050   25.7320   46.0780 O   0  0  0  0  0  0  0  0  0  0  0  0
   56.0740   27.8460   45.6150 N   0  0  0  0  0  0  0  0  0  0  0  0
   57.4780   30.1810   43.9600 C   0  0  0  0  0  0  0  0  0  0  0  0
   57.7980   31.5210   43.6710 C   0  0  0  0  0  0  0  0  0  0  0  0
   57.6040   32.0240   42.2600 C   0  0  0  0  0  0  0  0  0  0  0  0
   58.4993   34.0826   43.4870 H   0  0  0  0  0  0  0  0  0  0  0  0
   58.9952   34.2627   45.3177 H   0  0  0  0  0  0  0  0  0  0  0  0
   58.8325   32.4722   46.8010 H   0  0  0  0  0  0  0  0  0  0  0  0
   58.2631   30.1115   47.2870 H   0  0  0  0  0  0  0  0  0  0  0  0
   58.9743   25.0767   47.0673 H   0  0  0  0  0  0  0  0  0  0  0  0
   58.3903   23.8798   43.6624 H   0  0  0  0  0  0  0  0  0  0  0  0
   57.4195   20.1265   43.5578 H   0  0  0  0  0  0  0  0  0  0  0  0
   56.4866   21.3516   42.6329 H   0  0  0  0  0  0  0  0  0  0  0  0
   58.2822   21.4021   42.6329 H   0  0  0  0  0  0  0  0  0  0  0  0
   56.1643   20.3639   47.0937 H   0  0  0  0  0  0  0  0  0  0  0  0
   55.1957   20.4461   45.5831 H   0  0  0  0  0  0  0  0  0  0  0  0
   56.7914   19.6211   45.5831 H   0  0  0  0  0  0  0  0  0  0  0  0
   57.5331   22.7404   48.5404 H   0  0  0  0  0  0  0  0  0  0  0  0
   56.1336   23.7863   48.1232 H   0  0  0  0  0  0  0  0  0  0  0  0
   55.9509   21.9993   48.1232 H   0  0  0  0  0  0  0  0  0  0  0  0
   55.1520   28.3100   45.4600 H   0  0  0  0  0  0  0  0  0  0  0  0
   57.0964   29.5340   43.1564 H   0  0  0  0  0  0  0  0  0  0  0  0
   57.2083   33.0500   42.2876 H   0  0  0  0  0  0  0  0  0  0  0  0
   58.5692   32.0174   41.7324 H   0  0  0  0  0  0  0  0  0  0  0  0
   56.8932   31.3710   41.7324 H   0  0  0  0  0  0  0  0  0  0  0  0
  1  2  2  0
  2  3  1  0
  3  4  2  0
  4  5  1  0
  5  6  2  3
  6  7  1  0
  7  8  1  0
  8  9  2  3
  9 10  1  0
 10 11  1  0
 11 12  2  0
 12 13  1  0
 12 14  1  0
 14 15  1  0
 14 16  1  0
 16 17  1  0
  8 18  1  0
 18 19  2  0
 18 20  1  0
  5 21  1  0
 21 22  2  0
 22 23  1  0
 22  2  1  0
 20  6  1  0
 16 10  2  0
  1 24  1  0
  1 25  1  0
  3 26  1  0
  4 27  1  0
  9 28  1  0
 11 29  1  0
 13 30  1  0
 13 31  1  0
 13 32  1  0
 15 33  1  0
 15 34  1  0
 15 35  1  0
 17 36  1  0
 17 37  1  0
 17 38  1  0
 20 39  1  0
 21 40  1  0
 23 41  1  0
 23 42  1  0
 23 43  1  0
M  CHG  1   7  -1
M  END
>  <UniqueID>  (44) 
40

>  <SMILES>  (44) 
C=c1ccc(=c2[n-]c(=Cc3cc(C)n(C)c3C)c(=O)[nH]2)cc1C

>  <Energy>  (44) 
112.05766245287448

>  <Genealogy>  (44) 
C=c1ccc(=c2[n-]c(=Cc3cc(C)n(C)c3C)c(=O)[nH]2)cc1C (protonated)
C=c1ccc(=c2[n-]c(=Cc3cc(C)n(C)c3C)c(=O)[nH]2)cc1C (3D coordinates assigned)
C=c1ccc(=c2[n-]c(=Cc3cc(C)n(C)c3C)c(=O)[nH]2)cc1C (optimized conformer: 112.05766245287448 kcal/mol)

>  <smiles>  (44) 
C=c1ccc(=c2[nH]c(=O)c(=Cc3cc(C)n(C)c3C)[nH]2)cc1C

>  <score_type>  (44) 
oracle

>  <origin>  (44) 
adg

>  <m_score__min__energy>  (44) 
-9.7100000000000009

>  <m_primary>  (44) 
energy

$$$$
44:0
     RDKit          3D

 33 35  0  0  0  0  0  0  0  0999 V2000
   55.7460   30.7448   42.6307 H   0  0  0  0  0  0  0  0  0  0  0  0
   55.9170   29.7500   43.0680 C   0  0  0  0  0  0  0  0  0  0  0  0
   55.4886   28.8575   42.5886 H   0  0  0  0  0  0  0  0  0  0  0  0
   56.6440   29.6260   44.1800 C   0  0  0  0  0  0  0  0  0  0  0  0
   57.2280   30.6550   44.9090 C   0  0  0  0  0  0  0  0  0  0  0  0
   57.1150   32.1370   44.6490 C   0  0  0  0  0  0  0  0  0  0  0  0
   57.4151   32.3402   43.6104 H   0  0  0  0  0  0  0  0  0  0  0  0
   56.0712   32.4365   44.8246 H   0  0  0  0  0  0  0  0  0  0  0  0
   57.9950   32.9370   45.5770 C   0  0  0  0  0  0  0  0  0  0  0  0
   57.7750   32.8870   46.9640 C   0  0  0  0  0  0  0  0  0  0  0  0
   56.9824   32.2409   47.3694 H   0  0  0  0  0  0  0  0  0  0  0  0
   58.5580   33.6540   47.8310 C   0  0  0  0  0  0  0  0  0  0  0  0
   58.3835   33.6058   48.9160 H   0  0  0  0  0  0  0  0  0  0  0  0
   59.5610   34.4810   47.3230 C   0  0  0  0  0  0  0  0  0  0  0  0
   60.1791   35.0801   48.0078 H   0  0  0  0  0  0  0  0  0  0  0  0
   59.7800   34.5480   45.9450 C   0  0  0  0  0  0  0  0  0  0  0  0
   60.5679   35.2040   45.5463 H   0  0  0  0  0  0  0  0  0  0  0  0
   59.0000   33.7830   45.0700 C   0  0  0  0  0  0  0  0  0  0  0  0
   59.2180   33.8780   43.7340 F   0  0  0  0  0  0  0  0  0  0  0  0
   57.8250   30.0570   46.0100 C   0  0  0  0  0  0  0  0  0  0  0  0
   58.3619   30.5659   46.8241 H   0  0  0  0  0  0  0  0  0  0  0  0
   57.6120   28.6900   45.8830 C   0  0  0  0  0  0  0  0  0  0  0  0
   58.0130   27.7110   46.7140 C   0  0  0  0  0  0  0  0  0  0  0  0
   58.8817   27.9240   47.3543 H   0  0  0  0  0  0  0  0  0  0  0  0
   57.3930   26.3740   46.8460 C   0  0  0  0  0  0  0  0  0  0  0  0
   58.0030   25.2590   47.2880 N   0  0  0  0  0  0  0  0  0  0  0  0
   57.0420   24.3160   47.1980 C   0  0  0  0  0  0  0  0  0  0  0  0
   57.2360   23.1170   47.5320 O   0  0  0  0  0  0  0  0  0  0  0  0
   55.8590   24.7560   46.7230 N   0  0  0  0  0  0  0  0  0  0  0  0
   56.1000   26.0580   46.5030 C   0  0  0  0  0  0  0  0  0  0  0  0
   55.1540   26.9420   45.9960 O   0  0  0  0  0  0  0  0  0  0  0  0
   56.8930   28.4400   44.7690 N   0  0  0  0  0  0  0  0  0  0  0  0
   56.5710   27.5020   44.4320 H   0  0  0  0  0  0  0  0  0  0  0  0
  1  2  1  0
  2  3  1  0
  2  4  2  0
  4  5  1  0
  5  6  1  0
  6  7  1  0
  6  8  1  0
  6  9  1  0
  9 10  2  0
 10 11  1  0
 10 12  1  0
 12 13  1  0
 12 14  2  0
 14 15  1  0
 14 16  1  0
 16 17  1  0
 16 18  2  0
 18 19  1  0
  5 20  2  0
 20 21  1  0
 20 22  1  0
 22 23  2  0
 23 24  1  0
 23 25  1  0
 25 26  1  0
 26 27  1  0
 27 28  2  0
 27 29  1  0
 29 30  1  0
 30 31  1  0
 22 32  1  0
 32 33  1  0
 32  4  1  0
 18  9  1  0
 30 25  2  0
M  CHG  3  26  -1  29  -1  31  -1
M  END
>  <UniqueID>  (45) 
41

>  <SMILES>  (45) 
C=c1[nH]/c(=C/c2[n-]c(=O)[n-]c2[O-])cc1Cc1ccccc1F

>  <Energy>  (45) 
94.16297008668339

>  <Genealogy>  (45) 
C=c1[nH]c(=Cc2[n-]c(=O)[n-]c2[O-])cc1Cc1ccccc1F (protonated)
C=c1[nH]/c(=C/c2[n-]c(=O)[n-]c2[O-])cc1Cc1ccccc1F (cis-trans isomerization)
C=c1[nH]/c(=C/c2[n-]c(=O)[n-]c2[O-])cc1Cc1ccccc1F (3D coordinates assigned)
C=c1[nH]/c(=C/c2[n-]c(=O)[n-]c2[O-])cc1Cc1ccccc1F (optimized conformer: 94.16297008668339 kcal/mol)

>  <smiles>  (45) 
C=c1[nH]c(=Cc2[nH]c(=O)[nH]c2O)cc1Cc1ccccc1F

>  <score_type>  (45) 
oracle

>  <origin>  (45) 
adg

>  <m_score__min__energy>  (45) 
-15.93

>  <m_primary>  (45) 
energy

$$$$
45:0
     RDKit          3D

 68 72  0  0  0  0  0  0  0  0999 V2000
   56.1298   30.3716   42.9661 H   0  0  0  0  0  0  0  0  0  0  0  0
   56.5140   29.4050   43.3240 C   0  0  0  0  0  0  0  0  0  0  0  0
   56.2417   28.4769   42.8001 H   0  0  0  0  0  0  0  0  0  0  0  0
   57.3150   29.3580   44.4000 C   0  0  0  0  0  0  0  0  0  0  0  0
   57.8860   28.2140   44.9810 C   0  0  0  0  0  0  0  0  0  0  0  0
   57.6210   26.9050   44.8000 C   0  0  0  0  0  0  0  0  0  0  0  0
   57.7470   26.5015   43.7844 H   0  0  0  0  0  0  0  0  0  0  0  0
   57.1770   25.9690   45.8470 C   0  0  0  0  0  0  0  0  0  0  0  0
   57.9150   24.9540   46.3330 N   0  0  0  0  0  0  0  0  0  0  0  0
   57.0530   24.3030   47.1430 C   0  0  0  0  0  0  0  0  0  0  0  0
   57.3840   23.2850   47.8050 O   0  0  0  0  0  0  0  0  0  0  0  0
   55.8070   24.8220   47.1810 N   0  0  0  0  0  0  0  0  0  0  0  0
   55.9000   25.8670   46.3450 C   0  0  0  0  0  0  0  0  0  0  0  0
   54.8360   26.7040   46.0340 O   0  0  0  0  0  0  0  0  0  0  0  0
   58.8250   28.6690   45.8910 C   0  0  0  0  0  0  0  0  0  0  0  0
   59.5038   28.0516   46.4976 H   0  0  0  0  0  0  0  0  0  0  0  0
   58.7450   30.0440   45.8900 C   0  0  0  0  0  0  0  0  0  0  0  0
   59.5160   30.9160   46.7900 C   0  0  0  0  0  0  0  0  0  0  0  0
   60.0900   31.9260   46.3020 O   0  0  0  0  0  0  0  0  0  0  0  0
   59.6290   30.6170   48.1990 N   0  0  0  0  0  0  0  0  0  0  0  0
   58.8270   29.5270   48.7830 C   0  0  0  0  0  0  0  0  0  0  0  0
   57.7597   29.7509   48.6386 H   0  0  0  0  0  0  0  0  0  0  0  0
   59.1002   28.5879   48.2796 H   0  0  0  0  0  0  0  0  0  0  0  0
   59.1050   29.3700   50.2800 C   0  0  0  0  0  0  0  0  0  0  0  0
   58.6378   30.2005   50.8295 H   0  0  0  0  0  0  0  0  0  0  0  0
   58.6861   28.4166   50.6344 H   0  0  0  0  0  0  0  0  0  0  0  0
   60.5560   29.3850   50.5090 N   0  0  0  0  0  0  0  0  0  0  0  0
   61.1970   28.2090   51.0520 C   0  0  0  0  0  0  0  0  0  0  0  0
   60.7470   27.0700   50.7500 O   0  0  0  0  0  0  0  0  0  0  0  0
   62.2820   28.2970   51.9980 N   0  0  0  0  0  0  0  0  0  0  0  0
   63.5210   29.0210   51.6800 C   0  0  0  0  0  0  0  0  0  0  0  0
   63.7009   28.9687   50.5961 H   0  0  0  0  0  0  0  0  0  0  0  0
   63.4093   30.0674   52.0002 H   0  0  0  0  0  0  0  0  0  0  0  0
   64.7170   28.4070   52.4180 C   0  0  0  0  0  0  0  0  0  0  0  0
   65.6522   28.7208   51.9311 H   0  0  0  0  0  0  0  0  0  0  0  0
   64.7246   28.7473   53.4640 H   0  0  0  0  0  0  0  0  0  0  0  0
   64.6030   26.9360   52.3710 N   0  0  0  0  0  0  0  0  0  0  0  0
   65.8530   26.2830   52.8120 C   0  0  0  0  0  0  0  0  0  0  0  0
   66.0780   26.5924   53.8433 H   0  0  0  0  0  0  0  0  0  0  0  0
   65.7196   25.1923   52.7621 H   0  0  0  0  0  0  0  0  0  0  0  0
   67.0000   26.6730   51.9170 C   0  0  0  0  0  0  0  0  0  0  0  0
   66.9650   26.3510   50.5490 C   0  0  0  0  0  0  0  0  0  0  0  0
   66.0985   25.8154   50.1339 H   0  0  0  0  0  0  0  0  0  0  0  0
   68.0270   26.7090   49.7150 C   0  0  0  0  0  0  0  0  0  0  0  0
   67.9962   26.4523   48.6458 H   0  0  0  0  0  0  0  0  0  0  0  0
   69.1290   27.3930   50.2370 C   0  0  0  0  0  0  0  0  0  0  0  0
   69.9663   27.6699   49.5795 H   0  0  0  0  0  0  0  0  0  0  0  0
   69.1670   27.7250   51.5940 C   0  0  0  0  0  0  0  0  0  0  0  0
   70.0324   28.2672   52.0029 H   0  0  0  0  0  0  0  0  0  0  0  0
   68.1070   27.3690   52.4320 C   0  0  0  0  0  0  0  0  0  0  0  0
   68.1391   27.6346   53.4990 H   0  0  0  0  0  0  0  0  0  0  0  0
   63.4540   26.4550   53.1800 C   0  0  0  0  0  0  0  0  0  0  0  0
   63.1126   25.4948   52.7659 H   0  0  0  0  0  0  0  0  0  0  0  0
   63.8040   26.3566   54.2182 H   0  0  0  0  0  0  0  0  0  0  0  0
   62.2620   27.4370   53.1890 C   0  0  0  0  0  0  0  0  0  0  0  0
   61.3233   26.8638   53.2035 H   0  0  0  0  0  0  0  0  0  0  0  0
   62.3377   28.0732   54.0831 H   0  0  0  0  0  0  0  0  0  0  0  0
   61.3440   30.5070   49.9740 C   0  0  0  0  0  0  0  0  0  0  0  0
   61.7343   31.0997   50.8145 H   0  0  0  0  0  0  0  0  0  0  0  0
   62.1618   30.0897   49.3681 H   0  0  0  0  0  0  0  0  0  0  0  0
   60.5020   31.4220   49.0700 C   0  0  0  0  0  0  0  0  0  0  0  0
   59.8821   32.0802   49.6965 H   0  0  0  0  0  0  0  0  0  0  0  0
   61.1761   32.0239   48.4429 H   0  0  0  0  0  0  0  0  0  0  0  0
   57.8210   30.4680   44.9990 N   0  0  0  0  0  0  0  0  0  0  0  0
   57.5120   31.8630   44.6670 C   0  0  0  0  0  0  0  0  0  0  0  0
   57.3840   32.4409   45.5942 H   0  0  0  0  0  0  0  0  0  0  0  0
   58.3370   32.2914   44.0789 H   0  0  0  0  0  0  0  0  0  0  0  0
   56.5833   31.9029   44.0789 H   0  0  0  0  0  0  0  0  0  0  0  0
  1  2  1  0
  2  3  1  0
  2  4  2  0
  4  5  1  0
  5  6  2  0
  6  7  1  0
  6  8  1  0
  8  9  1  0
  9 10  1  0
 10 11  2  0
 10 12  1  0
 12 13  1  0
 13 14  1  0
  5 15  1  0
 15 16  1  0
 15 17  2  0
 17 18  1  0
 18 19  2  0
 18 20  1  0
 20 21  1  0
 21 22  1  0
 21 23  1  0
 21 24  1  0
 24 25  1  0
 24 26  1  0
 24 27  1  0
 27 28  1  0
 28 29  2  0
 28 30  1  0
 30 31  1  0
 31 32  1  0
 31 33  1  0
 31 34  1  0
 34 35  1  0
 34 36  1  0
 34 37  1  0
 37 38  1  0
 38 39  1  0
 38 40  1  0
 38 41  1  0
 41 42  2  0
 42 43  1  0
 42 44  1  0
 44 45  1  0
 44 46  2  0
 46 47  1  0
 46 48  1  0
 48 49  1  0
 48 50  2  0
 50 51  1  0
 37 52  1  0
 52 53  1  0
 52 54  1  0
 52 55  1  0
 55 56  1  0
 55 57  1  0
 27 58  1  0
 58 59  1  0
 58 60  1  0
 58 61  1  0
 61 62  1  0
 61 63  1  0
 17 64  1  0
 64 65  1  0
 65 66  1  0
 65 67  1  0
 65 68  1  0
 64  4  1  0
 13  8  2  0
 61 20  1  0
 55 30  1  0
 50 41  1  0
M  CHG  3   9  -1  12  -1  14  -1
M  END
>  <UniqueID>  (46) 
42

>  <SMILES>  (46) 
C=c1/c(=C\c2[n-]c(=O)[n-]c2[O-])cc(C(=O)N2CCN(C(=O)N3CCN(Cc4ccccc4)CC3)CC2)n1C

>  <Energy>  (46) 
163.57949964607315

>  <Genealogy>  (46) 
C=c1c(=Cc2[n-]c(=O)[n-]c2[O-])cc(C(=O)N2CCN(C(=O)N3CCN(Cc4ccccc4)CC3)CC2)n1C (protonated)
C=c1/c(=C\c2[n-]c(=O)[n-]c2[O-])cc(C(=O)N2CCN(C(=O)N3CCN(Cc4ccccc4)CC3)CC2)n1C (cis-trans isomerization)
C=c1/c(=C\c2[n-]c(=O)[n-]c2[O-])cc(C(=O)N2CCN(C(=O)N3CCN(Cc4ccccc4)CC3)CC2)n1C (3D coordinates assigned)
C=c1/c(=C\c2[n-]c(=O)[n-]c2[O-])cc(C(=O)N2CCN(C(=O)N3CCN(Cc4ccccc4)CC3)CC2)n1C (nonaromatic ring conformer: 163.57949964607315 kcal/mol)

>  <smiles>  (46) 
C=c1c(=Cc2[nH]c(=O)[nH]c2O)cc(C(=O)N2CCN(C(=O)N3CCN(Cc4ccccc4)CC3)CC2)n1C

>  <score_type>  (46) 
oracle

>  <origin>  (46) 
adg

>  <m_score__min__energy>  (46) 
-16.5

>  <m_primary>  (46) 
energy

$$$$
46:0
     RDKit          3D

 42 43  0  0  0  0  0  0  0  0999 V2000
   56.4200   29.7200   43.2570 C   0  0  0  0  0  0  0  0  0  0  0  0
   57.3890   30.1110   44.3230 C   0  0  0  0  0  0  0  0  0  0  0  0
   58.6000   29.4540   44.5210 C   0  0  0  0  0  0  0  0  0  0  0  0
   59.3870   30.2070   45.8010 S   0  0  0  0  0  0  0  0  0  0  0  0
   58.1690   31.3470   46.0290 C   0  0  0  0  0  0  0  0  0  0  0  0
   58.1650   32.3840   47.1130 C   0  0  0  0  0  0  0  0  0  0  0  0
   58.9340   33.6130   46.7890 N   0  0  0  0  0  0  0  0  0  0  0  0
   59.3580   34.4050   47.9620 C   0  0  0  0  0  0  0  0  0  0  0  0
   60.5420   33.7630   48.6250 C   0  0  0  0  0  0  0  0  0  0  0  0
   60.6650   33.3980   49.9570 C   0  0  0  0  0  0  0  0  0  0  0  0
   59.6420   33.5870   51.0300 C   0  0  0  0  0  0  0  0  0  0  0  0
   61.9200   32.9600   50.1740 N   0  0  0  0  0  0  0  0  0  0  0  0
   62.5890   33.0100   49.0340 N   0  0  0  0  0  0  0  0  0  0  0  0
   64.0070   32.6920   48.8990 C   0  0  0  0  0  0  0  0  0  0  0  0
   61.7860   33.5070   48.0710 C   0  0  0  0  0  0  0  0  0  0  0  0
   62.2830   33.8450   46.4190 Cl  0  0  0  0  0  0  0  0  0  0  0  0
   58.4930   34.4320   45.6260 C   0  0  0  0  0  0  0  0  0  0  0  0
   57.0270   34.2000   45.2160 C   0  0  0  0  0  0  0  0  0  0  0  0
   59.4330   34.2780   44.4230 C   0  0  0  0  0  0  0  0  0  0  0  0
   57.1520   31.1540   45.1630 N   0  0  0  0  0  0  0  0  0  0  0  0
   55.4952   29.3468   43.7211 H   0  0  0  0  0  0  0  0  0  0  0  0
   56.1893   30.5954   42.6322 H   0  0  0  0  0  0  0  0  0  0  0  0
   56.8615   28.9296   42.6322 H   0  0  0  0  0  0  0  0  0  0  0  0
   58.9747   28.5960   43.9435 H   0  0  0  0  0  0  0  0  0  0  0  0
   57.1218   32.6726   47.3093 H   0  0  0  0  0  0  0  0  0  0  0  0
   58.6551   31.9279   47.9858 H   0  0  0  0  0  0  0  0  0  0  0  0
   59.6310   35.4193   47.6353 H   0  0  0  0  0  0  0  0  0  0  0  0
   58.5271   34.4511   48.6813 H   0  0  0  0  0  0  0  0  0  0  0  0
   60.1232   33.4981   52.0152 H   0  0  0  0  0  0  0  0  0  0  0  0
   59.1881   34.5842   50.9323 H   0  0  0  0  0  0  0  0  0  0  0  0
   58.8617   32.8178   50.9323 H   0  0  0  0  0  0  0  0  0  0  0  0
   62.3210   32.6590   51.0920 H   0  0  0  0  0  0  0  0  0  0  0  0
   64.4569   32.5911   49.8977 H   0  0  0  0  0  0  0  0  0  0  0  0
   64.1199   31.7462   48.3488 H   0  0  0  0  0  0  0  0  0  0  0  0
   64.5130   33.4990   48.3488 H   0  0  0  0  0  0  0  0  0  0  0  0
   58.5493   35.4733   45.9761 H   0  0  0  0  0  0  0  0  0  0  0  0
   56.4052   34.1016   46.1180 H   0  0  0  0  0  0  0  0  0  0  0  0
   56.6739   35.0534   44.6185 H   0  0  0  0  0  0  0  0  0  0  0  0
   56.9547   33.2792   44.6185 H   0  0  0  0  0  0  0  0  0  0  0  0
   60.4600   34.1097   44.7793 H   0  0  0  0  0  0  0  0  0  0  0  0
   59.1112   33.4206   43.8136 H   0  0  0  0  0  0  0  0  0  0  0  0
   59.4016   35.1933   43.8136 H   0  0  0  0  0  0  0  0  0  0  0  0
  1  2  1  0
  2  3  2  0
  3  4  1  0
  4  5  1  0
  5  6  1  0
  6  7  1  0
  7  8  1  0
  8  9  1  0
  9 10  1  0
 10 11  1  0
 10 12  2  0
 12 13  1  0
 13 14  1  0
 13 15  1  0
 15 16  1  0
  7 17  1  0
 17 18  1  0
 17 19  1  0
  5 20  2  0
 20  2  1  0
 15  9  2  0
  1 21  1  0
  1 22  1  0
  1 23  1  0
  3 24  1  0
  6 25  1  0
  6 26  1  0
  8 27  1  0
  8 28  1  0
 11 29  1  0
 11 30  1  0
 11 31  1  0
 12 32  1  0
 14 33  1  0
 14 34  1  0
 14 35  1  0
 17 36  1  0
 18 37  1  0
 18 38  1  0
 18 39  1  0
 19 40  1  0
 19 41  1  0
 19 42  1  0
M  CHG  1  12   1
M  END
>  <UniqueID>  (47) 
43

>  <SMILES>  (47) 
Cc1csc(CN(Cc2c(C)[nH+]n(C)c2Cl)C(C)C)n1

>  <Energy>  (47) 
103.25580057129378

>  <Genealogy>  (47) 
Cc1csc(CN(Cc2c(C)[nH+]n(C)c2Cl)C(C)C)n1 (protonated)
Cc1csc(CN(Cc2c(C)[nH+]n(C)c2Cl)C(C)C)n1 (3D coordinates assigned)
Cc1csc(CN(Cc2c(C)[nH+]n(C)c2Cl)C(C)C)n1 (optimized conformer: 103.25580057129378 kcal/mol)

>  <smiles>  (47) 
Cc1csc(CN(Cc2c(C)nn(C)c2Cl)C(C)C)n1

>  <score_type>  (47) 
oracle

>  <origin>  (47) 
adg

>  <m_score__min__energy>  (47) 
-5.9199999999999999

>  <m_primary>  (47) 
energy

$$$$
47:0
     RDKit          3D

 59 63  0  0  0  0  0  0  0  0999 V2000
   57.6770   31.5820   41.3680 O   0  0  0  0  0  0  0  0  0  0  0  0
   57.3300   31.3660   42.5610 C   0  0  0  0  0  0  0  0  0  0  0  0
   57.7380   32.1890   43.6900 C   0  0  0  0  0  0  0  0  0  0  0  0
   58.5820   33.2910   43.7870 C   0  0  0  0  0  0  0  0  0  0  0  0
   58.7380   33.8790   45.0550 C   0  0  0  0  0  0  0  0  0  0  0  0
   58.0410   33.3470   46.1640 C   0  0  0  0  0  0  0  0  0  0  0  0
   57.2170   32.2680   46.0110 N   0  0  0  0  0  0  0  0  0  0  0  0
   57.0860   31.7090   44.7820 C   0  0  0  0  0  0  0  0  0  0  0  0
   56.2670   30.5890   44.3580 C   0  0  0  0  0  0  0  0  0  0  0  0
   55.4890   29.9510   45.1160 O   0  0  0  0  0  0  0  0  0  0  0  0
   56.4150   30.3110   42.9480 N   0  0  2  0  0  0  0  0  0  0  0  0
   57.0060   28.9730   42.7500 C   0  0  0  0  0  0  0  0  0  0  0  0
   57.7820   28.5240   43.9640 C   0  0  0  0  0  0  0  0  0  0  0  0
   59.1190   28.9130   44.1300 C   0  0  0  0  0  0  0  0  0  0  0  0
   59.8370   28.5130   45.2600 C   0  0  0  0  0  0  0  0  0  0  0  0
   59.2280   27.7140   46.2380 C   0  0  0  0  0  0  0  0  0  0  0  0
   60.1400   27.1910   47.6560 S   0  0  0  0  0  0  0  0  0  0  0  0
   59.2680   26.3140   48.5110 O   0  0  0  0  0  0  0  0  0  0  0  0
   61.3240   26.3780   47.2100 O   0  0  0  0  0  0  0  0  0  0  0  0
   60.7010   28.5530   48.5980 N   0  0  0  0  0  0  0  0  0  0  0  0
   61.0610   29.7060   47.7370 C   0  0  0  0  0  0  0  0  0  0  0  0
   59.9810   30.8020   47.7330 C   0  0  0  0  0  0  0  0  0  0  0  0
   59.6690   31.2830   49.1010 N   0  0  0  0  0  0  0  0  0  0  0  0
   60.1440   32.6530   49.4010 C   0  0  0  0  0  0  0  0  0  0  0  0
   61.4100   33.0400   48.6630 C   0  0  0  0  0  0  0  0  0  0  0  0
   61.3430   33.5180   47.3420 C   0  0  0  0  0  0  0  0  0  0  0  0
   62.5090   33.8770   46.6590 C   0  0  0  0  0  0  0  0  0  0  0  0
   63.7530   33.7480   47.2800 C   0  0  0  0  0  0  0  0  0  0  0  0
   63.8330   33.2510   48.5830 C   0  0  0  0  0  0  0  0  0  0  0  0
   62.6700   32.8900   49.2700 C   0  0  0  0  0  0  0  0  0  0  0  0
   59.9410   30.3060   50.1780 C   0  0  0  0  0  0  0  0  0  0  0  0
   59.7370   28.8750   49.6710 C   0  0  0  0  0  0  0  0  0  0  0  0
   57.8890   27.3310   46.0790 C   0  0  0  0  0  0  0  0  0  0  0  0
   57.1700   27.7310   44.9490 C   0  0  0  0  0  0  0  0  0  0  0  0
   59.1072   33.6872   42.9054 H   0  0  0  0  0  0  0  0  0  0  0  0
   59.3992   34.7487   45.1833 H   0  0  0  0  0  0  0  0  0  0  0  0
   58.1629   33.8049   47.1567 H   0  0  0  0  0  0  0  0  0  0  0  0
   55.4930   30.4240   42.4640 H   0  0  0  0  0  0  0  0  0  0  0  0
   56.1990   28.2514   42.5551 H   0  0  0  0  0  0  0  0  0  0  0  0
   57.6997   29.0256   41.8980 H   0  0  0  0  0  0  0  0  0  0  0  0
   59.6056   29.5369   43.3659 H   0  0  0  0  0  0  0  0  0  0  0  0
   60.8843   28.8262   45.3828 H   0  0  0  0  0  0  0  0  0  0  0  0
   62.0022   30.1403   48.1053 H   0  0  0  0  0  0  0  0  0  0  0  0
   61.1614   29.3337   46.7068 H   0  0  0  0  0  0  0  0  0  0  0  0
   60.3391   31.6506   47.1317 H   0  0  0  0  0  0  0  0  0  0  0  0
   59.0626   30.3710   47.3079 H   0  0  0  0  0  0  0  0  0  0  0  0
   59.3508   33.3629   49.1237 H   0  0  0  0  0  0  0  0  0  0  0  0
   60.3796   32.6809   50.4751 H   0  0  0  0  0  0  0  0  0  0  0  0
   60.3670   33.6100   46.8430 H   0  0  0  0  0  0  0  0  0  0  0  0
   62.4462   34.2618   45.6304 H   0  0  0  0  0  0  0  0  0  0  0  0
   64.6688   34.0374   46.7438 H   0  0  0  0  0  0  0  0  0  0  0  0
   64.8135   33.1434   49.0698 H   0  0  0  0  0  0  0  0  0  0  0  0
   62.7408   32.4864   50.2908 H   0  0  0  0  0  0  0  0  0  0  0  0
   60.9800   30.4240   50.5194 H   0  0  0  0  0  0  0  0  0  0  0  0
   59.2444   30.4908   51.0091 H   0  0  0  0  0  0  0  0  0  0  0  0
   59.8799   28.1733   50.5060 H   0  0  0  0  0  0  0  0  0  0  0  0
   58.7181   28.7877   49.2658 H   0  0  0  0  0  0  0  0  0  0  0  0
   57.4017   26.7126   46.8472 H   0  0  0  0  0  0  0  0  0  0  0  0
   56.1205   27.4236   44.8305 H   0  0  0  0  0  0  0  0  0  0  0  0
  1  2  2  0
  2  3  1  0
  3  4  2  0
  4  5  1  0
  5  6  2  0
  6  7  1  0
  7  8  2  0
  8  9  1  0
  9 10  2  0
  9 11  1  0
 11 12  1  0
 12 13  1  0
 13 14  2  0
 14 15  1  0
 15 16  2  0
 16 17  1  0
 17 18  2  0
 17 19  2  0
 17 20  1  0
 20 21  1  0
 21 22  1  0
 22 23  1  0
 23 24  1  0
 24 25  1  0
 25 26  2  0
 26 27  1  0
 27 28  2  0
 28 29  1  0
 29 30  2  0
 23 31  1  0
 31 32  1  0
 16 33  1  0
 33 34  2  0
 11  2  1  0
 34 13  1  0
  8  3  1  0
 32 20  1  0
 30 25  1  0
  4 35  1  0
  5 36  1  0
  6 37  1  0
 11 38  1  6
 12 39  1  0
 12 40  1  0
 14 41  1  0
 15 42  1  0
 21 43  1  0
 21 44  1  0
 22 45  1  0
 22 46  1  0
 24 47  1  0
 24 48  1  0
 26 49  1  0
 27 50  1  0
 28 51  1  0
 29 52  1  0
 30 53  1  0
 31 54  1  0
 31 55  1  0
 32 56  1  0
 32 57  1  0
 33 58  1  0
 34 59  1  0
M  CHG  1  11   1
M  END
>  <UniqueID>  (48) 
44

>  <SMILES>  (48) 
O=C1c2cccnc2C(=O)[N@@H+]1Cc1ccc(S(=O)(=O)N2CCN(Cc3ccccc3)CC2)cc1

>  <Energy>  (48) 
105.62431161624879

>  <Genealogy>  (48) 
O=C1c2cccnc2C(=O)[NH+]1Cc1ccc(S(=O)(=O)N2CCN(Cc3ccccc3)CC2)cc1 (protonated)
O=C1c2cccnc2C(=O)[N@@H+]1Cc1ccc(S(=O)(=O)N2CCN(Cc3ccccc3)CC2)cc1 (chirality)
O=C1c2cccnc2C(=O)[N@@H+]1Cc1ccc(S(=O)(=O)N2CCN(Cc3ccccc3)CC2)cc1 (3D coordinates assigned)
O=C1c2cccnc2C(=O)[N@@H+]1Cc1ccc(S(=O)(=O)N2CCN(Cc3ccccc3)CC2)cc1 (nonaromatic ring conformer: 105.62431161624879 kcal/mol)

>  <smiles>  (48) 
O=C1c2cccnc2C(=O)N1Cc1ccc(S(=O)(=O)N2CCN(Cc3ccccc3)CC2)cc1

>  <score_type>  (48) 
oracle

>  <origin>  (48) 
adg

>  <m_score__min__energy>  (48) 
-9.25

>  <m_primary>  (48) 
energy

$$$$
48:0
     RDKit          3D

 82 87  0  0  0  0  0  0  0  0999 V2000
   52.0950   24.0500   44.8600 C   0  0  0  0  0  0  0  0  0  0  0  0
   53.2980   23.3180   44.6480 O   0  0  0  0  0  0  0  0  0  0  0  0
   54.5630   23.7290   45.0940 C   0  0  0  0  0  0  0  0  0  0  0  0
   55.6270   22.8240   45.0070 C   0  0  0  0  0  0  0  0  0  0  0  0
   56.9050   23.1830   45.4440 C   0  0  0  0  0  0  0  0  0  0  0  0
   57.1380   24.4620   45.9700 C   0  0  0  0  0  0  0  0  0  0  0  0
   58.4980   24.8430   46.4900 C   0  0  0  0  0  0  0  0  0  0  0  0
   58.4660   26.2030   47.0160 N   0  0  0  0  0  0  0  0  0  0  0  0
   59.5870   27.0930   46.9070 C   0  0  0  0  0  0  0  0  0  0  0  0
   60.6210   26.7400   46.2780 O   0  0  0  0  0  0  0  0  0  0  0  0
   59.5670   28.3980   47.5910 C   0  0  0  0  0  0  0  0  0  0  0  0
   59.4950   28.3880   48.9900 C   0  0  0  0  0  0  0  0  0  0  0  0
   59.3630   29.5760   49.7130 C   0  0  0  0  0  0  0  0  0  0  0  0
   59.2560   29.5530   51.1880 C   0  0  0  0  0  0  0  0  0  0  0  0
   60.2710   29.2360   51.8680 O   0  0  0  0  0  0  0  0  0  0  0  0
   58.0330   29.9160   51.8600 N   0  0  0  0  0  0  0  0  0  0  0  0
   57.7610   29.4410   53.2180 C   0  0  0  0  0  0  0  0  0  0  0  0
   57.8390   30.6120   54.2160 C   0  0  0  0  0  0  0  0  0  0  0  0
   57.4570   31.9340   53.6390 N   0  0  0  0  0  0  0  0  0  0  0  0
   58.6480   32.7550   53.3060 C   0  0  0  0  0  0  0  0  0  0  0  0
   58.5100   33.4950   51.9710 C   0  0  0  0  0  0  0  0  0  0  0  0
   59.6930   32.7230   51.4110 C   0  0  0  0  0  0  0  0  0  0  0  0
   59.8060   31.9470   52.7140 C   0  0  0  0  0  0  0  0  0  0  0  0
   56.5370   31.7840   52.4840 C   0  0  0  0  0  0  0  0  0  0  0  0
   57.1830   30.9910   51.3330 C   0  0  0  0  0  0  0  0  0  0  0  0
   59.3140   30.7920   49.0250 C   0  0  0  0  0  0  0  0  0  0  0  0
   59.3970   30.8360   47.6250 C   0  0  0  0  0  0  0  0  0  0  0  0
   59.2390   32.1560   46.9710 C   0  0  0  0  0  0  0  0  0  0  0  0
   60.3510   32.8110   46.4170 C   0  0  0  0  0  0  0  0  0  0  0  0
   60.2040   34.0700   45.8250 C   0  0  0  0  0  0  0  0  0  0  0  0
   58.9510   34.6870   45.7930 C   0  0  0  0  0  0  0  0  0  0  0  0
   57.8420   34.0480   46.3540 C   0  0  0  0  0  0  0  0  0  0  0  0
   57.9850   32.7900   46.9460 C   0  0  0  0  0  0  0  0  0  0  0  0
   59.5870   29.6330   46.8880 C   0  0  0  0  0  0  0  0  0  0  0  0
   59.8650   29.6770   45.3850 C   0  0  0  0  0  0  0  0  0  0  0  0
   58.6180   29.9270   44.5600 C   0  0  0  0  0  0  0  0  0  0  0  0
   58.1730   31.2480   44.3670 C   0  0  0  0  0  0  0  0  0  0  0  0
   57.0190   31.5090   43.6240 C   0  0  0  0  0  0  0  0  0  0  0  0
   56.3060   30.4580   43.0490 C   0  0  0  0  0  0  0  0  0  0  0  0
   56.7510   29.1440   43.2050 C   0  0  0  0  0  0  0  0  0  0  0  0
   57.9050   28.8700   43.9480 C   0  0  0  0  0  0  0  0  0  0  0  0
   58.4330   27.1950   44.0650 Cl  0  0  0  0  0  0  0  0  0  0  0  0
   56.0750   25.3730   46.0610 C   0  0  0  0  0  0  0  0  0  0  0  0
   54.7970   25.0130   45.6240 C   0  0  0  0  0  0  0  0  0  0  0  0
   51.9172   24.1582   45.9401 H   0  0  0  0  0  0  0  0  0  0  0  0
   52.1862   25.0459   44.4018 H   0  0  0  0  0  0  0  0  0  0  0  0
   51.2524   23.5113   44.4018 H   0  0  0  0  0  0  0  0  0  0  0  0
   55.4557   21.8204   44.5906 H   0  0  0  0  0  0  0  0  0  0  0  0
   57.7310   22.4599   45.3751 H   0  0  0  0  0  0  0  0  0  0  0  0
   58.7894   24.1487   47.2919 H   0  0  0  0  0  0  0  0  0  0  0  0
   59.2275   24.7899   45.6684 H   0  0  0  0  0  0  0  0  0  0  0  0
   57.6360   26.4970   47.5770 H   0  0  0  0  0  0  0  0  0  0  0  0
   59.5432   27.4296   49.5277 H   0  0  0  0  0  0  0  0  0  0  0  0
   56.7542   28.9994   53.2538 H   0  0  0  0  0  0  0  0  0  0  0  0
   58.5121   28.6853   53.4914 H   0  0  0  0  0  0  0  0  0  0  0  0
   57.1637   30.3944   55.0566 H   0  0  0  0  0  0  0  0  0  0  0  0
   58.8915   30.6943   54.5251 H   0  0  0  0  0  0  0  0  0  0  0  0
   58.7726   33.3024   54.2520 H   0  0  0  0  0  0  0  0  0  0  0  0
   57.5616   33.3024   51.4482 H   0  0  0  0  0  0  0  0  0  0  0  0
   58.5040   34.5947   51.9453 H   0  0  0  0  0  0  0  0  0  0  0  0
   59.4496   32.1003   50.5375 H   0  0  0  0  0  0  0  0  0  0  0  0
   60.5642   33.2580   51.0051 H   0  0  0  0  0  0  0  0  0  0  0  0
   59.5968   30.8717   52.6143 H   0  0  0  0  0  0  0  0  0  0  0  0
   60.7688   31.8900   53.2429 H   0  0  0  0  0  0  0  0  0  0  0  0
   55.6323   31.2541   52.8168 H   0  0  0  0  0  0  0  0  0  0  0  0
   56.2935   32.7894   52.1100 H   0  0  0  0  0  0  0  0  0  0  0  0
   56.3917   30.5525   50.7073 H   0  0  0  0  0  0  0  0  0  0  0  0
   57.8047   31.6746   50.7362 H   0  0  0  0  0  0  0  0  0  0  0  0
   59.2087   31.7296   49.5904 H   0  0  0  0  0  0  0  0  0  0  0  0
   61.3409   32.3324   46.4487 H   0  0  0  0  0  0  0  0  0  0  0  0
   61.0762   34.5748   45.3841 H   0  0  0  0  0  0  0  0  0  0  0  0
   58.8373   35.6764   45.3259 H   0  0  0  0  0  0  0  0  0  0  0  0
   56.8561   34.5353   46.3297 H   0  0  0  0  0  0  0  0  0  0  0  0
   57.1118   32.2937   47.3945 H   0  0  0  0  0  0  0  0  0  0  0  0
   60.5854   30.4839   45.1851 H   0  0  0  0  0  0  0  0  0  0  0  0
   60.2606   28.6927   45.0942 H   0  0  0  0  0  0  0  0  0  0  0  0
   58.7392   32.0831   44.8053 H   0  0  0  0  0  0  0  0  0  0  0  0
   56.6726   32.5447   43.4926 H   0  0  0  0  0  0  0  0  0  0  0  0
   55.3924   30.6642   42.4721 H   0  0  0  0  0  0  0  0  0  0  0  0
   56.1910   28.3187   42.7410 H   0  0  0  0  0  0  0  0  0  0  0  0
   56.2482   26.3759   46.4784 H   0  0  0  0  0  0  0  0  0  0  0  0
   53.9705   25.7354   45.6943 H   0  0  0  0  0  0  0  0  0  0  0  0
  1  2  1  0
  2  3  1  0
  3  4  2  0
  4  5  1  0
  5  6  2  0
  6  7  1  0
  7  8  1  0
  8  9  1  0
  9 10  2  0
  9 11  1  0
 11 12  2  0
 12 13  1  0
 13 14  1  0
 14 15  2  0
 14 16  1  0
 16 17  1  0
 17 18  1  0
 18 19  1  0
 19 20  1  0
 20 21  1  0
 21 22  1  0
 22 23  1  0
 19 24  1  0
 24 25  1  0
 13 26  2  0
 26 27  1  0
 27 28  1  0
 28 29  2  0
 29 30  1  0
 30 31  2  0
 31 32  1  0
 32 33  2  0
 27 34  2  0
 34 35  1  0
 35 36  1  0
 36 37  2  0
 37 38  1  0
 38 39  2  0
 39 40  1  0
 40 41  2  0
 41 42  1  0
  6 43  1  0
 43 44  2  0
 44  3  1  0
 34 11  1  0
 41 36  1  0
 25 16  1  0
 33 28  1  0
 23 20  1  0
  1 45  1  0
  1 46  1  0
  1 47  1  0
  4 48  1  0
  5 49  1  0
  7 50  1  0
  7 51  1  0
  8 52  1  0
 12 53  1  0
 17 54  1  0
 17 55  1  0
 18 56  1  0
 18 57  1  0
 20 58  1  0
 21 59  1  0
 21 60  1  0
 22 61  1  0
 22 62  1  0
 23 63  1  0
 23 64  1  0
 24 65  1  0
 24 66  1  0
 25 67  1  0
 25 68  1  0
 26 69  1  0
 29 70  1  0
 30 71  1  0
 31 72  1  0
 32 73  1  0
 33 74  1  0
 35 75  1  0
 35 76  1  0
 37 77  1  0
 38 78  1  0
 39 79  1  0
 40 80  1  0
 43 81  1  0
 44 82  1  0
M  END
>  <UniqueID>  (49) 
45

>  <SMILES>  (49) 
COc1ccc(CNC(=O)c2cc(C(=O)N3CCN(C4CCC4)CC3)cc(-c3ccccc3)c2Cc2ccccc2Cl)cc1

>  <Energy>  (49) 
174.6427818721391

>  <Genealogy>  (49) 
COc1ccc(CNC(=O)c2cc(C(=O)N3CCN(C4CCC4)CC3)cc(-c3ccccc3)c2Cc2ccccc2Cl)cc1 (3D coordinates assigned)
COc1ccc(CNC(=O)c2cc(C(=O)N3CCN(C4CCC4)CC3)cc(-c3ccccc3)c2Cc2ccccc2Cl)cc1 (nonaromatic ring conformer: 174.6427818721391 kcal/mol)

>  <smiles>  (49) 
COc1ccc(CNC(=O)c2cc(C(=O)N3CCN(C4CCC4)CC3)cc(-c3ccccc3)c2Cc2ccccc2Cl)cc1

>  <score_type>  (49) 
oracle

>  <origin>  (49) 
adg

>  <m_score__min__energy>  (49) 
-10.710000000000001

>  <m_primary>  (49) 
energy

$$$$
49:0
     RDKit          3D

 36 38  0  0  0  0  0  0  0  0999 V2000
   58.9530   35.4190   55.1350 H   0  0  0  0  0  0  0  0  0  0  0  0
   58.7240   35.1810   54.1780 O   0  0  0  0  0  0  0  0  0  0  0  0
   58.9860   33.9140   53.6600 C   0  0  0  0  0  0  0  0  0  0  0  0
   60.1090   33.2080   54.1000 C   0  0  0  0  0  0  0  0  0  0  0  0
   60.7811   33.6564   54.8465 H   0  0  0  0  0  0  0  0  0  0  0  0
   60.3800   31.9360   53.5950 C   0  0  0  0  0  0  0  0  0  0  0  0
   61.2636   31.3836   53.9472 H   0  0  0  0  0  0  0  0  0  0  0  0
   59.5320   31.3600   52.6420 C   0  0  0  0  0  0  0  0  0  0  0  0
   59.8190   30.0870   52.1580 O   0  0  0  0  0  0  0  0  0  0  0  0
   58.4030   32.0670   52.1820 C   0  0  0  0  0  0  0  0  0  0  0  0
   57.4530   31.4520   51.1840 C   0  0  0  0  0  0  0  0  0  0  0  0
   58.0073   30.7570   50.5362 H   0  0  0  0  0  0  0  0  0  0  0  0
   57.0019   32.2527   50.5794 H   0  0  0  0  0  0  0  0  0  0  0  0
   56.3600   30.7020   51.8960 C   0  0  0  0  0  0  0  0  0  0  0  0
   56.6190   29.4580   52.4760 C   0  0  0  0  0  0  0  0  0  0  0  0
   57.6103   28.9960   52.3586 H   0  0  0  0  0  0  0  0  0  0  0  0
   55.6300   28.7990   53.2020 C   0  0  0  0  0  0  0  0  0  0  0  0
   55.8511   27.8216   53.6556 H   0  0  0  0  0  0  0  0  0  0  0  0
   54.3500   29.3660   53.3640 C   0  0  0  0  0  0  0  0  0  0  0  0
   53.5450   28.8130   54.2900 C   0  0  0  0  0  0  0  0  0  0  0  0
   52.5360   29.2190   54.4547 H   0  0  0  0  0  0  0  0  0  0  0  0
   53.8960   27.9550   54.8821 H   0  0  0  0  0  0  0  0  0  0  0  0
   54.0290   30.5710   52.6550 C   0  0  0  0  0  0  0  0  0  0  0  0
   52.7850   31.1000   52.5350 C   0  0  0  0  0  0  0  0  0  0  0  0
   52.3191   31.4921   53.4510 H   0  0  0  0  0  0  0  0  0  0  0  0
   51.9990   31.1980   51.2890 C   0  0  0  0  0  0  0  0  0  0  0  0
   52.0280   30.2990   50.2880 N   0  0  0  0  0  0  0  0  0  0  0  0
   51.2560   30.8670   49.3370 C   0  0  0  0  0  0  0  0  0  0  0  0
   51.0240   30.3120   48.2310 O   0  0  0  0  0  0  0  0  0  0  0  0
   50.7570   32.0800   49.6600 N   0  0  0  0  0  0  0  0  0  0  0  0
   51.2490   32.2780   50.8940 C   0  0  0  0  0  0  0  0  0  0  0  0
   51.0190   33.4260   51.6420 O   0  0  0  0  0  0  0  0  0  0  0  0
   55.0770   31.2570   52.0040 C   0  0  0  0  0  0  0  0  0  0  0  0
   54.8826   32.2496   51.5716 H   0  0  0  0  0  0  0  0  0  0  0  0
   58.1340   33.3440   52.7040 C   0  0  0  0  0  0  0  0  0  0  0  0
   57.2492   33.8997   52.3601 H   0  0  0  0  0  0  0  0  0  0  0  0
  1  2  1  0
  2  3  1  0
  3  4  2  0
  4  5  1  0
  4  6  1  0
  6  7  1  0
  6  8  2  0
  8  9  1  0
  8 10  1  0
 10 11  1  0
 11 12  1  0
 11 13  1  0
 11 14  1  0
 14 15  1  0
 15 16  1  0
 15 17  2  0
 17 18  1  0
 17 19  1  0
 19 20  2  0
 20 21  1  0
 20 22  1  0
 19 23  1  0
 23 24  2  0
 24 25  1  0
 24 26  1  0
 26 27  1  0
 27 28  1  0
 28 29  2  0
 28 30  1  0
 30 31  1  0
 31 32  1  0
 23 33  1  0
 33 34  1  0
 10 35  2  0
 35 36  1  0
 35  3  1  0
 33 14  2  0
 31 26  2  0
M  CHG  4   9  -1  27  -1  30  -1  32  -1
M  END
>  <UniqueID>  (50) 
46

>  <SMILES>  (50) 
C=c1ccc(Cc2cc(O)ccc2[O-])c/c1=C/c1[n-]c(=O)[n-]c1[O-]

>  <Energy>  (50) 
87.14507129525886

>  <Genealogy>  (50) 
C=c1ccc(Cc2cc(O)ccc2[O-])cc1=Cc1[n-]c(=O)[n-]c1[O-] (protonated)
C=c1ccc(Cc2cc(O)ccc2[O-])c/c1=C/c1[n-]c(=O)[n-]c1[O-] (cis-trans isomerization)
C=c1ccc(Cc2cc(O)ccc2[O-])c/c1=C/c1[n-]c(=O)[n-]c1[O-] (3D coordinates assigned)
C=c1ccc(Cc2cc(O)ccc2[O-])c/c1=C/c1[n-]c(=O)[n-]c1[O-] (optimized conformer: 87.14507129525886 kcal/mol)

>  <smiles>  (50) 
C=c1ccc(Cc2cc(O)ccc2O)cc1=Cc1[nH]c(=O)[nH]c1O

>  <score_type>  (50) 
oracle

>  <origin>  (50) 
adg

>  <m_score__min__energy>  (50) 
-17.050000000000001

>  <m_primary>  (50) 
energy

$$$$
50:0
     RDKit          3D

 60 62  0  0  0  0  0  0  0  0999 V2000
   59.8690   26.3240   47.0710 C   0  0  0  0  0  0  0  0  0  0  0  0
   60.1540   27.2300   45.8740 C   0  0  0  0  0  0  0  0  0  0  0  0
   59.0600   28.2110   45.6790 N   0  0  0  0  0  0  0  0  0  0  0  0
   57.9660   27.9680   46.6490 C   0  0  0  0  0  0  0  0  0  0  0  0
   56.6480   27.7560   45.9450 C   0  0  0  0  0  0  0  0  0  0  0  0
   56.1700   28.6850   45.2400 O   0  0  0  0  0  0  0  0  0  0  0  0
   55.8370   26.6030   46.2000 N   0  0  0  0  0  0  0  0  0  0  0  0
   55.8260   25.3820   45.4460 C   0  0  0  0  0  0  0  0  0  0  0  0
   54.7710   24.4610   45.5570 C   0  0  0  0  0  0  0  0  0  0  0  0
   54.8210   23.2450   44.8680 C   0  0  0  0  0  0  0  0  0  0  0  0
   55.9320   22.9170   44.0830 C   0  0  0  0  0  0  0  0  0  0  0  0
   55.9460   21.6740   43.4310 O   0  0  0  0  0  0  0  0  0  0  0  0
   57.1300   21.0070   43.0040 C   0  0  0  0  0  0  0  0  0  0  0  0
   56.9960   23.8350   43.9840 C   0  0  0  0  0  0  0  0  0  0  0  0
   56.9440   25.0540   44.6710 C   0  0  0  0  0  0  0  0  0  0  0  0
   59.5730   29.5930   45.8180 C   0  0  0  0  0  0  0  0  0  0  0  0
   59.4120   30.0910   47.2320 C   0  0  0  0  0  0  0  0  0  0  0  0
   59.9180   29.4270   48.1750 O   0  0  0  0  0  0  0  0  0  0  0  0
   58.6530   31.2670   47.5420 N   0  0  0  0  0  0  0  0  0  0  0  0
   58.5270   32.3990   46.6740 C   0  0  0  0  0  0  0  0  0  0  0  0
   57.6430   32.3250   45.5890 C   0  0  0  0  0  0  0  0  0  0  0  0
   57.5160   33.4010   44.7070 C   0  0  0  0  0  0  0  0  0  0  0  0
   58.2610   34.5620   44.9100 C   0  0  0  0  0  0  0  0  0  0  0  0
   59.1310   34.6540   46.0000 C   0  0  0  0  0  0  0  0  0  0  0  0
   59.2560   33.5860   46.9020 C   0  0  0  0  0  0  0  0  0  0  0  0
   60.1380   33.7420   48.0730 C   0  0  0  0  0  0  0  0  0  0  0  0
   59.6180   33.9440   49.2040 O   0  0  0  0  0  0  0  0  0  0  0  0
   61.5660   33.6010   47.9560 N   0  0  0  0  0  0  0  0  0  0  0  0
   62.4620   33.7030   49.0960 C   0  0  0  0  0  0  0  0  0  0  0  0
   63.7950   33.1270   48.6310 C   0  0  0  0  0  0  0  0  0  0  0  0
   63.7250   33.0870   47.1050 C   0  0  0  0  0  0  0  0  0  0  0  0
   62.2430   33.1540   46.7500 C   0  0  0  0  0  0  0  0  0  0  0  0
   60.0444   26.8816   48.0028 H   0  0  0  0  0  0  0  0  0  0  0  0
   58.8220   25.9886   47.0359 H   0  0  0  0  0  0  0  0  0  0  0  0
   60.5355   25.4496   47.0359 H   0  0  0  0  0  0  0  0  0  0  0  0
   61.0957   27.7711   46.0484 H   0  0  0  0  0  0  0  0  0  0  0  0
   60.2302   26.6055   44.9717 H   0  0  0  0  0  0  0  0  0  0  0  0
   58.2043   27.0723   47.2413 H   0  0  0  0  0  0  0  0  0  0  0  0
   57.8751   28.8507   47.2991 H   0  0  0  0  0  0  0  0  0  0  0  0
   53.9019   24.6973   46.1885 H   0  0  0  0  0  0  0  0  0  0  0  0
   53.9797   22.5403   44.9438 H   0  0  0  0  0  0  0  0  0  0  0  0
   57.7056   20.6827   43.8835 H   0  0  0  0  0  0  0  0  0  0  0  0
   56.8585   20.1291   42.3994 H   0  0  0  0  0  0  0  0  0  0  0  0
   57.7402   21.6941   42.3994 H   0  0  0  0  0  0  0  0  0  0  0  0
   57.8718   23.5930   43.3640 H   0  0  0  0  0  0  0  0  0  0  0  0
   57.7866   25.7576   44.6011 H   0  0  0  0  0  0  0  0  0  0  0  0
   60.6399   29.6090   45.5506 H   0  0  0  0  0  0  0  0  0  0  0  0
   58.9972   30.2489   45.1484 H   0  0  0  0  0  0  0  0  0  0  0  0
   57.0459   31.4148   45.4310 H   0  0  0  0  0  0  0  0  0  0  0  0
   56.8277   33.3322   43.8517 H   0  0  0  0  0  0  0  0  0  0  0  0
   58.1639   35.4063   44.2116 H   0  0  0  0  0  0  0  0  0  0  0  0
   59.7216   35.5695   46.1519 H   0  0  0  0  0  0  0  0  0  0  0  0
   62.5828   34.7546   49.3951 H   0  0  0  0  0  0  0  0  0  0  0  0
   62.0694   33.1605   49.9687 H   0  0  0  0  0  0  0  0  0  0  0  0
   64.6249   33.7701   48.9591 H   0  0  0  0  0  0  0  0  0  0  0  0
   63.9719   32.1268   49.0533 H   0  0  0  0  0  0  0  0  0  0  0  0
   64.2602   33.9466   46.6752 H   0  0  0  0  0  0  0  0  0  0  0  0
   64.1945   32.1767   46.7039 H   0  0  0  0  0  0  0  0  0  0  0  0
   62.0775   33.8690   45.9306 H   0  0  0  0  0  0  0  0  0  0  0  0
   61.8637   32.1787   46.4110 H   0  0  0  0  0  0  0  0  0  0  0  0
  1  2  1  0
  2  3  1  0
  3  4  1  0
  4  5  1  0
  5  6  2  0
  5  7  1  0
  7  8  1  0
  8  9  2  0
  9 10  1  0
 10 11  2  0
 11 12  1  0
 12 13  1  0
 11 14  1  0
 14 15  2  0
  3 16  1  0
 16 17  1  0
 17 18  2  0
 17 19  1  0
 19 20  1  0
 20 21  2  0
 21 22  1  0
 22 23  2  0
 23 24  1  0
 24 25  2  0
 25 26  1  0
 26 27  2  0
 26 28  1  0
 28 29  1  0
 29 30  1  0
 30 31  1  0
 31 32  1  0
 15  8  1  0
 25 20  1  0
 32 28  1  0
  1 33  1  0
  1 34  1  0
  1 35  1  0
  2 36  1  0
  2 37  1  0
  4 38  1  0
  4 39  1  0
  9 40  1  0
 10 41  1  0
 13 42  1  0
 13 43  1  0
 13 44  1  0
 14 45  1  0
 15 46  1  0
 16 47  1  0
 16 48  1  0
 21 49  1  0
 22 50  1  0
 23 51  1  0
 24 52  1  0
 29 53  1  0
 29 54  1  0
 30 55  1  0
 30 56  1  0
 31 57  1  0
 31 58  1  0
 32 59  1  0
 32 60  1  0
M  CHG  2   7  -1  19  -1
M  END
>  <UniqueID>  (51) 
47

>  <SMILES>  (51) 
CCN(CC(=O)[N-]c1ccc(OC)cc1)CC(=O)[N-]c1ccccc1C(=O)N1CCCC1

>  <Energy>  (51) 
75.25772304405277

>  <Genealogy>  (51) 
CCN(CC(=O)[N-]c1ccc(OC)cc1)CC(=O)[N-]c1ccccc1C(=O)N1CCCC1 (protonated)
CCN(CC(=O)[N-]c1ccc(OC)cc1)CC(=O)[N-]c1ccccc1C(=O)N1CCCC1 (3D coordinates assigned)
CCN(CC(=O)[N-]c1ccc(OC)cc1)CC(=O)[N-]c1ccccc1C(=O)N1CCCC1 (nonaromatic ring conformer: 75.25772304405277 kcal/mol)

>  <smiles>  (51) 
CCN(CC(=O)Nc1ccc(OC)cc1)CC(=O)Nc1ccccc1C(=O)N1CCCC1

>  <score_type>  (51) 
oracle

>  <origin>  (51) 
adg

>  <m_score__min__energy>  (51) 
-12.199999999999999

>  <m_primary>  (51) 
energy

$$$$
51:0
     RDKit          3D

 64 68  0  0  0  0  0  0  0  0999 V2000
   55.2390   30.8560   52.0070 C   0  0  0  0  0  0  0  0  0  0  0  0
   54.6200   29.9490   52.7770 C   0  0  0  0  0  0  0  0  0  0  0  0
   53.2630   29.9560   53.1110 C   0  0  0  0  0  0  0  0  0  0  0  0
   52.3450   30.8920   52.8060 C   0  0  0  0  0  0  0  0  0  0  0  0
   51.8500   31.1100   51.4360 C   0  0  0  0  0  0  0  0  0  0  0  0
   51.8910   30.1770   50.4660 N   0  0  0  0  0  0  0  0  0  0  0  0
   51.3590   30.8130   49.3970 C   0  0  0  0  0  0  0  0  0  0  0  0
   51.2470   30.2620   48.2690 O   0  0  0  0  0  0  0  0  0  0  0  0
   50.9670   32.0840   49.6350 N   0  0  0  0  0  0  0  0  0  0  0  0
   51.2770   32.2540   50.9300 C   0  0  0  0  0  0  0  0  0  0  0  0
   51.0200   33.4250   51.6400 O   0  0  0  0  0  0  0  0  0  0  0  0
   53.0510   28.8370   53.8980 C   0  0  0  0  0  0  0  0  0  0  0  0
   54.2690   28.2070   54.0340 C   0  0  0  0  0  0  0  0  0  0  0  0
   54.4400   26.9320   54.8130 C   0  0  0  0  0  0  0  0  0  0  0  0
   55.2320   28.8750   53.3450 N   0  0  0  0  0  0  0  0  0  0  0  0
   56.6690   28.5470   53.2890 C   0  0  0  0  0  0  0  0  0  0  0  0
   57.5240   29.7900   53.3180 C   0  0  0  0  0  0  0  0  0  0  0  0
   57.3020   30.7930   54.2730 C   0  0  0  0  0  0  0  0  0  0  0  0
   58.1790   31.8770   54.3800 C   0  0  0  0  0  0  0  0  0  0  0  0
   59.3020   31.9550   53.5500 C   0  0  0  0  0  0  0  0  0  0  0  0
   59.5230   30.9730   52.5760 C   0  0  0  0  0  0  0  0  0  0  0  0
   60.7130   31.0210   51.7070 C   0  0  0  0  0  0  0  0  0  0  0  0
   61.6100   30.1500   51.8800 O   0  0  0  0  0  0  0  0  0  0  0  0
   60.9480   32.1700   50.8500 N   0  0  2  0  0  0  0  0  0  0  0  0
   59.9340   33.2540   51.0550 C   0  0  0  0  0  0  0  0  0  0  0  0
   59.5380   33.9530   49.7490 C   0  0  0  0  0  0  0  0  0  0  0  0
   58.9320   32.9300   48.7630 C   0  0  1  0  0  0  0  0  0  0  0  0
   58.8040   33.5150   47.3670 C   0  0  0  0  0  0  0  0  0  0  0  0
   57.7550   33.1300   46.5070 C   0  0  0  0  0  0  0  0  0  0  0  0
   57.6540   33.6800   45.2250 C   0  0  0  0  0  0  0  0  0  0  0  0
   58.5840   34.6310   44.7930 C   0  0  0  0  0  0  0  0  0  0  0  0
   59.6110   35.0420   45.6470 C   0  0  0  0  0  0  0  0  0  0  0  0
   59.7220   34.4890   46.9270 C   0  0  0  0  0  0  0  0  0  0  0  0
   59.7120   31.5890   48.7510 C   0  0  0  0  0  0  0  0  0  0  0  0
   61.0770   31.7120   49.4400 C   0  0  0  0  0  0  0  0  0  0  0  0
   58.6250   29.9050   52.4550 C   0  0  0  0  0  0  0  0  0  0  0  0
   56.3157   30.7610   51.8027 H   0  0  0  0  0  0  0  0  0  0  0  0
   54.6700   31.6949   51.5798 H   0  0  0  0  0  0  0  0  0  0  0  0
   51.9470   31.5217   53.6154 H   0  0  0  0  0  0  0  0  0  0  0  0
   52.0935   28.5128   54.3318 H   0  0  0  0  0  0  0  0  0  0  0  0
   54.4103   27.1536   55.8900 H   0  0  0  0  0  0  0  0  0  0  0  0
   53.6272   26.2355   54.5594 H   0  0  0  0  0  0  0  0  0  0  0  0
   55.4076   26.4743   54.5594 H   0  0  0  0  0  0  0  0  0  0  0  0
   56.9253   27.9171   54.1536 H   0  0  0  0  0  0  0  0  0  0  0  0
   56.8644   28.0169   52.3451 H   0  0  0  0  0  0  0  0  0  0  0  0
   56.4318   30.7265   54.9426 H   0  0  0  0  0  0  0  0  0  0  0  0
   57.9853   32.6694   55.1180 H   0  0  0  0  0  0  0  0  0  0  0  0
   60.0119   32.7878   53.6622 H   0  0  0  0  0  0  0  0  0  0  0  0
   61.8810   32.5750   51.1100 H   0  0  0  0  0  0  0  0  0  0  0  0
   59.0325   32.8115   51.5039 H   0  0  0  0  0  0  0  0  0  0  0  0
   60.3875   34.0114   51.7113 H   0  0  0  0  0  0  0  0  0  0  0  0
   58.7946   34.7344   49.9653 H   0  0  0  0  0  0  0  0  0  0  0  0
   60.4332   34.4037   49.2957 H   0  0  0  0  0  0  0  0  0  0  0  0
   57.9183   32.7012   49.1236 H   0  0  0  0  0  0  0  0  0  0  0  0
   57.0121   32.3931   46.8462 H   0  0  0  0  0  0  0  0  0  0  0  0
   56.8410   33.3638   44.5548 H   0  0  0  0  0  0  0  0  0  0  0  0
   58.5071   35.0554   43.7811 H   0  0  0  0  0  0  0  0  0  0  0  0
   60.3330   35.8014   45.3122 H   0  0  0  0  0  0  0  0  0  0  0  0
   60.5320   34.8170   47.5950 H   0  0  0  0  0  0  0  0  0  0  0  0
   59.1167   30.8272   49.2757 H   0  0  0  0  0  0  0  0  0  0  0  0
   59.8851   31.3060   47.7022 H   0  0  0  0  0  0  0  0  0  0  0  0
   61.5706   30.7290   49.4292 H   0  0  0  0  0  0  0  0  0  0  0  0
   61.6693   32.4594   48.8918 H   0  0  0  0  0  0  0  0  0  0  0  0
   58.7845   29.1470   51.6740 H   0  0  0  0  0  0  0  0  0  0  0  0
  1  2  2  0
  2  3  1  0
  3  4  2  3
  4  5  1  0
  5  6  1  0
  6  7  1  0
  7  8  2  0
  7  9  1  0
  9 10  1  0
 10 11  1  0
  3 12  1  0
 12 13  2  0
 13 14  1  0
 13 15  1  0
 15 16  1  0
 16 17  1  0
 17 18  2  0
 18 19  1  0
 19 20  2  0
 20 21  1  0
 21 22  1  0
 22 23  2  0
 22 24  1  0
 24 25  1  0
 25 26  1  0
 26 27  1  0
 27 28  1  0
 28 29  2  0
 29 30  1  0
 30 31  2  0
 31 32  1  0
 32 33  2  0
 27 34  1  0
 34 35  1  0
 21 36  2  0
 15  2  1  0
 36 17  1  0
 10  5  2  0
 35 24  1  0
 33 28  1  0
  1 37  1  0
  1 38  1  0
  4 39  1  0
 12 40  1  0
 14 41  1  0
 14 42  1  0
 14 43  1  0
 16 44  1  0
 16 45  1  0
 18 46  1  0
 19 47  1  0
 20 48  1  0
 24 49  1  1
 25 50  1  0
 25 51  1  0
 26 52  1  0
 26 53  1  0
 27 54  1  1
 29 55  1  0
 30 56  1  0
 31 57  1  0
 32 58  1  0
 33 59  1  0
 34 60  1  0
 34 61  1  0
 35 62  1  0
 35 63  1  0
 36 64  1  0
M  CHG  4   6  -1   9  -1  11  -1  24   1
M  END
>  <UniqueID>  (52) 
48

>  <SMILES>  (52) 
C=c1c(=Cc2[n-]c(=O)[n-]c2[O-])cc(C)n1Cc1cccc(C(=O)[NH+]2CCC(c3ccccc3)CC2)c1

>  <Energy>  (52) 
155.62581166999976

>  <Genealogy>  (52) 
C=c1c(=Cc2[n-]c(=O)[n-]c2[O-])cc(C)n1Cc1cccc(C(=O)[NH+]2CCC(c3ccccc3)CC2)c1 (protonated)
C=c1c(=Cc2[n-]c(=O)[n-]c2[O-])cc(C)n1Cc1cccc(C(=O)[NH+]2CCC(c3ccccc3)CC2)c1 (3D coordinates assigned)
C=c1c(=Cc2[n-]c(=O)[n-]c2[O-])cc(C)n1Cc1cccc(C(=O)[NH+]2CCC(c3ccccc3)CC2)c1 (nonaromatic ring conformer: 155.62581166999976 kcal/mol)

>  <smiles>  (52) 
C=c1c(=Cc2[nH]c(=O)[nH]c2O)cc(C)n1Cc1cccc(C(=O)N2CCC(c3ccccc3)CC2)c1

>  <score_type>  (52) 
oracle

>  <origin>  (52) 
adg

>  <m_score__min__energy>  (52) 
-17.699999999999999

>  <m_primary>  (52) 
energy

$$$$
52:0
     RDKit          3D

 53 57  0  0  0  0  0  0  0  0999 V2000
   52.8150   30.3920   49.1200 H   0  0  0  0  0  0  0  0  0  0  0  0
   51.9310   30.3530   49.6120 O   0  0  0  0  0  0  0  0  0  0  0  0
   51.6930   31.1370   50.7380 C   0  0  0  0  0  0  0  0  0  0  0  0
   51.0350   32.3070   50.6980 N   0  0  0  0  0  0  0  0  0  0  0  0
   51.0260   32.6880   51.9940 C   0  0  0  0  0  0  0  0  0  0  0  0
   50.4870   33.7570   52.3820 O   0  0  0  0  0  0  0  0  0  0  0  0
   51.6310   31.8290   52.8410 N   0  0  0  0  0  0  0  0  0  0  0  0
   52.0780   30.8520   52.0290 C   0  0  0  0  0  0  0  0  0  0  0  0
   52.7060   29.6040   52.4950 C   0  0  0  0  0  0  0  0  0  0  0  0
   52.0504   28.7312   52.6308 H   0  0  0  0  0  0  0  0  0  0  0  0
   54.0140   29.4400   52.7690 C   0  0  0  0  0  0  0  0  0  0  0  0
   54.5470   28.2250   53.1560 C   0  0  0  0  0  0  0  0  0  0  0  0
   54.0113   27.2665   53.2215 H   0  0  0  0  0  0  0  0  0  0  0  0
   55.8760   28.4420   53.4440 C   0  0  0  0  0  0  0  0  0  0  0  0
   56.8280   27.3690   53.8820 C   0  0  0  0  0  0  0  0  0  0  0  0
   56.8597   27.3332   54.9810 H   0  0  0  0  0  0  0  0  0  0  0  0
   56.4894   26.3973   53.4931 H   0  0  0  0  0  0  0  0  0  0  0  0
   57.8331   27.5895   53.4931 H   0  0  0  0  0  0  0  0  0  0  0  0
   56.2100   29.7340   53.2110 N   0  0  0  0  0  0  0  0  0  0  0  0
   57.5650   30.2960   53.3520 C   0  0  0  0  0  0  0  0  0  0  0  0
   57.5667   31.0313   54.1701 H   0  0  0  0  0  0  0  0  0  0  0  0
   58.2647   29.4760   53.5712 H   0  0  0  0  0  0  0  0  0  0  0  0
   58.0010   30.9740   52.0780 C   0  0  0  0  0  0  0  0  0  0  0  0
   58.2570   32.3520   52.0570 C   0  0  0  0  0  0  0  0  0  0  0  0
   58.1493   32.9415   52.9794 H   0  0  0  0  0  0  0  0  0  0  0  0
   58.6480   32.9820   50.8730 C   0  0  0  0  0  0  0  0  0  0  0  0
   58.8387   34.0653   50.8694 H   0  0  0  0  0  0  0  0  0  0  0  0
   58.8000   32.2440   49.6860 C   0  0  0  0  0  0  0  0  0  0  0  0
   59.1830   32.9010   48.4580 N   0  0  0  0  0  0  0  0  0  0  0  0
   60.3380   33.7260   48.3280 C   0  0  0  0  0  0  0  0  0  0  0  0
   61.2780   33.7010   49.1650 O   0  0  0  0  0  0  0  0  0  0  0  0
   60.3990   34.5690   47.1140 C   0  0  0  0  0  0  0  0  0  0  0  0
   60.5808   35.6185   47.3888 H   0  0  0  0  0  0  0  0  0  0  0  0
   61.2179   34.2532   46.4509 H   0  0  0  0  0  0  0  0  0  0  0  0
   58.7820   34.4050   46.2890 S   0  0  0  0  0  0  0  0  0  0  0  0
   58.3300   32.9310   47.2730 C   0  0  1  0  0  0  0  0  0  0  0  0
   57.2760   32.9662   47.5859 H   0  0  0  0  0  0  0  0  0  0  0  0
   58.5310   31.7030   46.4320 C   0  0  0  0  0  0  0  0  0  0  0  0
   59.7620   30.5690   46.6150 S   0  0  0  0  0  0  0  0  0  0  0  0
   59.3320   29.6160   45.2990 C   0  0  0  0  0  0  0  0  0  0  0  0
   59.8439   28.6984   44.9733 H   0  0  0  0  0  0  0  0  0  0  0  0
   58.2190   30.1860   44.6930 C   0  0  0  0  0  0  0  0  0  0  0  0
   57.7328   29.7577   43.8041 H   0  0  0  0  0  0  0  0  0  0  0  0
   57.7740   31.3570   45.3200 C   0  0  0  0  0  0  0  0  0  0  0  0
   56.9125   31.9431   44.9675 H   0  0  0  0  0  0  0  0  0  0  0  0
   58.5360   30.8630   49.7090 C   0  0  0  0  0  0  0  0  0  0  0  0
   58.6369   30.2732   48.7860 H   0  0  0  0  0  0  0  0  0  0  0  0
   58.1470   30.2340   50.8930 C   0  0  0  0  0  0  0  0  0  0  0  0
   57.9534   29.1512   50.8980 H   0  0  0  0  0  0  0  0  0  0  0  0
   55.0830   30.3530   52.7590 C   0  0  0  0  0  0  0  0  0  0  0  0
   55.0630   31.5960   52.2490 C   0  0  0  0  0  0  0  0  0  0  0  0
   55.9641   32.2250   52.2975 H   0  0  0  0  0  0  0  0  0  0  0  0
   54.1455   31.9846   51.7830 H   0  0  0  0  0  0  0  0  0  0  0  0
  1  2  1  0
  2  3  1  0
  3  4  1  0
  4  5  1  0
  5  6  2  0
  5  7  1  0
  7  8  1  0
  8  9  1  0
  9 10  1  0
  9 11  2  0
 11 12  1  0
 12 13  1  0
 12 14  2  0
 14 15  1  0
 15 16  1  0
 15 17  1  0
 15 18  1  0
 14 19  1  0
 19 20  1  0
 20 21  1  0
 20 22  1  0
 20 23  1  0
 23 24  2  0
 24 25  1  0
 24 26  1  0
 26 27  1  0
 26 28  2  0
 28 29  1  0
 29 30  1  0
 30 31  2  0
 30 32  1  0
 32 33  1  0
 32 34  1  0
 32 35  1  0
 35 36  1  0
 36 37  1  1
 36 38  1  0
 38 39  1  0
 39 40  1  0
 40 41  1  0
 40 42  2  0
 42 43  1  0
 42 44  1  0
 44 45  1  0
 28 46  1  0
 46 47  1  0
 46 48  2  0
 48 49  1  0
 19 50  1  0
 50 51  2  0
 51 52  1  0
 51 53  1  0
  8  3  2  0
 50 11  1  0
 48 23  1  0
 36 29  1  0
 44 38  2  0
M  CHG  2   4  -1   7  -1
M  END
>  <UniqueID>  (53) 
49

>  <SMILES>  (53) 
C=c1/c(=C\c2[n-]c(=O)[n-]c2O)cc(C)n1Cc1ccc(N2C(=O)CS[C@H]2c2cccs2)cc1

>  <Energy>  (53) 
154.40104228064868

>  <Genealogy>  (53) 
C=c1c(=Cc2[n-]c(=O)[n-]c2O)cc(C)n1Cc1ccc(N2C(=O)CSC2c2cccs2)cc1 (protonated)
C=c1c(=Cc2[n-]c(=O)[n-]c2O)cc(C)n1Cc1ccc(N2C(=O)CS[C@H]2c2cccs2)cc1 (chirality)
C=c1/c(=C\c2[n-]c(=O)[n-]c2O)cc(C)n1Cc1ccc(N2C(=O)CS[C@H]2c2cccs2)cc1 (cis-trans isomerization)
C=c1/c(=C\c2[n-]c(=O)[n-]c2O)cc(C)n1Cc1ccc(N2C(=O)CS[C@H]2c2cccs2)cc1 (3D coordinates assigned)
C=c1/c(=C\c2[n-]c(=O)[n-]c2O)cc(C)n1Cc1ccc(N2C(=O)CS[C@H]2c2cccs2)cc1 (nonaromatic ring conformer: 154.40104228064868 kcal/mol)

>  <smiles>  (53) 
C=c1c(=Cc2[nH]c(=O)[nH]c2O)cc(C)n1Cc1ccc(N2C(=O)CSC2c2cccs2)cc1

>  <score_type>  (53) 
oracle

>  <origin>  (53) 
adg

>  <m_score__min__energy>  (53) 
-14.550000000000001

>  <m_primary>  (53) 
energy

$$$$
53:0
     RDKit          3D

 53 56  0  0  0  0  0  0  0  0999 V2000
   59.5431   31.0701   52.6715 H   0  0  0  0  0  0  0  0  0  0  0  0
   59.7380   30.3890   51.8300 C   0  0  0  0  0  0  0  0  0  0  0  0
   60.9450   29.6880   51.7640 C   0  0  0  0  0  0  0  0  0  0  0  0
   61.6991   29.8176   52.5543 H   0  0  0  0  0  0  0  0  0  0  0  0
   61.1960   28.8220   50.6950 C   0  0  0  0  0  0  0  0  0  0  0  0
   62.1442   28.2662   50.6502 H   0  0  0  0  0  0  0  0  0  0  0  0
   60.2400   28.6600   49.6780 C   0  0  0  0  0  0  0  0  0  0  0  0
   60.4910   27.6970   48.5510 C   0  0  0  0  0  0  0  0  0  0  0  0
   60.4377   26.6670   48.9333 H   0  0  0  0  0  0  0  0  0  0  0  0
   61.4889   27.8872   48.1291 H   0  0  0  0  0  0  0  0  0  0  0  0
   59.4630   27.8820   47.4820 C   0  0  0  0  0  0  0  0  0  0  0  0
   58.2820   27.2230   47.4590 N   0  0  0  0  0  0  0  0  0  0  0  0
   57.4930   27.5930   46.4510 N   0  0  0  0  0  0  0  0  0  0  0  0
   58.0430   28.5570   45.6790 C   0  0  0  0  0  0  0  0  0  0  0  0
   57.4670   29.0880   44.6430 N   0  0  0  0  0  0  0  0  0  0  0  0
   56.2620   29.8710   44.6490 C   0  0  0  0  0  0  0  0  0  0  0  0
   55.1410   29.3290   44.8400 O   0  0  0  0  0  0  0  0  0  0  0  0
   56.3230   31.2920   44.4950 N   0  0  0  0  0  0  0  0  0  0  0  0
   57.3540   32.1540   44.9990 C   0  0  0  0  0  0  0  0  0  0  0  0
   57.8910   33.1980   44.2270 C   0  0  0  0  0  0  0  0  0  0  0  0
   57.5260   33.3683   43.2034 H   0  0  0  0  0  0  0  0  0  0  0  0
   58.8880   34.0200   44.7580 C   0  0  0  0  0  0  0  0  0  0  0  0
   59.3166   34.8264   44.1448 H   0  0  0  0  0  0  0  0  0  0  0  0
   59.3430   33.8230   46.0630 C   0  0  0  0  0  0  0  0  0  0  0  0
   60.1404   34.4638   46.4675 H   0  0  0  0  0  0  0  0  0  0  0  0
   58.7870   32.8100   46.8620 C   0  0  0  0  0  0  0  0  0  0  0  0
   59.2680   32.6040   48.2470 C   0  0  0  0  0  0  0  0  0  0  0  0
   58.4520   32.7020   49.2040 O   0  0  0  0  0  0  0  0  0  0  0  0
   60.6500   32.3160   48.5250 N   0  0  0  0  0  0  0  0  0  0  0  0
   61.3110   32.9640   49.6630 C   0  0  0  0  0  0  0  0  0  0  0  0
   60.6456   32.9196   50.5378 H   0  0  0  0  0  0  0  0  0  0  0  0
   61.5263   34.0085   49.3933 H   0  0  0  0  0  0  0  0  0  0  0  0
   62.6370   32.2650   50.0050 C   0  0  0  0  0  0  0  0  0  0  0  0
   62.4128   31.2768   50.4331 H   0  0  0  0  0  0  0  0  0  0  0  0
   63.1747   32.9072   50.7181 H   0  0  0  0  0  0  0  0  0  0  0  0
   63.5130   32.0810   48.8230 N   0  0  0  0  0  0  0  0  0  0  0  0
   64.3830   33.2490   48.6120 C   0  0  0  0  0  0  0  0  0  0  0  0
   64.6886   33.6593   49.5858 H   0  0  0  0  0  0  0  0  0  0  0  0
   65.2756   32.9439   48.0462 H   0  0  0  0  0  0  0  0  0  0  0  0
   63.8351   34.0169   48.0462 H   0  0  0  0  0  0  0  0  0  0  0  0
   62.8110   31.7010   47.5670 C   0  0  0  0  0  0  0  0  0  0  0  0
   63.3582   30.8697   47.0985 H   0  0  0  0  0  0  0  0  0  0  0  0
   62.7853   32.5933   46.9242 H   0  0  0  0  0  0  0  0  0  0  0  0
   61.3600   31.2620   47.7950 C   0  0  0  0  0  0  0  0  0  0  0  0
   61.3443   30.3322   48.3825 H   0  0  0  0  0  0  0  0  0  0  0  0
   60.8691   31.0863   46.8264 H   0  0  0  0  0  0  0  0  0  0  0  0
   57.7920   31.9780   46.3170 C   0  0  0  0  0  0  0  0  0  0  0  0
   57.3530   31.1799   46.9337 H   0  0  0  0  0  0  0  0  0  0  0  0
   59.5680   29.0050   46.2260 S   0  0  0  0  0  0  0  0  0  0  0  0
   59.0240   29.3600   49.7570 C   0  0  0  0  0  0  0  0  0  0  0  0
   58.2630   29.2267   48.9739 H   0  0  0  0  0  0  0  0  0  0  0  0
   58.7780   30.2250   50.8270 C   0  0  0  0  0  0  0  0  0  0  0  0
   57.8281   30.7772   50.8800 H   0  0  0  0  0  0  0  0  0  0  0  0
  1  2  1  0
  2  3  2  0
  3  4  1  0
  3  5  1  0
  5  6  1  0
  5  7  2  0
  7  8  1  0
  8  9  1  0
  8 10  1  0
  8 11  1  0
 11 12  2  0
 12 13  1  0
 13 14  1  0
 14 15  2  0
 15 16  1  0
 16 17  2  0
 16 18  1  0
 18 19  1  0
 19 20  2  0
 20 21  1  0
 20 22  1  0
 22 23  1  0
 22 24  2  0
 24 25  1  0
 24 26  1  0
 26 27  1  0
 27 28  2  0
 27 29  1  0
 29 30  1  0
 30 31  1  0
 30 32  1  0
 30 33  1  0
 33 34  1  0
 33 35  1  0
 33 36  1  0
 36 37  1  0
 37 38  1  0
 37 39  1  0
 37 40  1  0
 36 41  1  0
 41 42  1  0
 41 43  1  0
 41 44  1  0
 44 45  1  0
 44 46  1  0
 26 47  2  0
 47 48  1  0
 14 49  1  0
  7 50  1  0
 50 51  1  0
 50 52  2  0
 52 53  1  0
 52  2  1  0
 49 11  1  0
 47 19  1  0
 44 29  1  0
M  CHG  2  13  -1  18  -1
M  END
>  <UniqueID>  (54) 
50

>  <SMILES>  (54) 
CN1CCN(C(=O)c2cccc([N-]C(=O)/N=c3\[n-]nc(Cc4ccccc4)s3)c2)CC1

>  <Energy>  (54) 
105.68102913348204

>  <Genealogy>  (54) 
CN1CCN(C(=O)c2cccc([N-]C(=O)N=c3[n-]nc(Cc4ccccc4)s3)c2)CC1 (protonated)
CN1CCN(C(=O)c2cccc([N-]C(=O)/N=c3\[n-]nc(Cc4ccccc4)s3)c2)CC1 (cis-trans isomerization)
CN1CCN(C(=O)c2cccc([N-]C(=O)/N=c3\[n-]nc(Cc4ccccc4)s3)c2)CC1 (3D coordinates assigned)
CN1CCN(C(=O)c2cccc([N-]C(=O)/N=c3\[n-]nc(Cc4ccccc4)s3)c2)CC1 (nonaromatic ring conformer: 105.68102913348204 kcal/mol)

>  <smiles>  (54) 
CN1CCN(C(=O)c2cccc(NC(=O)N=c3[nH]nc(Cc4ccccc4)s3)c2)CC1

>  <score_type>  (54) 
oracle

>  <origin>  (54) 
adg

>  <m_score__min__energy>  (54) 
-12.609999999999999

>  <m_primary>  (54) 
energy

$$$$
54:0
     RDKit          3D

 47 49  0  0  0  0  0  0  0  0999 V2000
   58.9110   34.9980   44.8840 C   0  0  0  0  0  0  0  0  0  0  0  0
   58.4150   33.5740   44.8410 C   0  0  0  0  0  0  0  0  0  0  0  0
   58.2090   32.9650   43.5900 C   0  0  0  0  0  0  0  0  0  0  0  0
   57.7830   31.6390   43.5070 C   0  0  0  0  0  0  0  0  0  0  0  0
   57.5670   30.9000   44.6680 C   0  0  0  0  0  0  0  0  0  0  0  0
   57.7760   31.4840   45.9190 C   0  0  0  0  0  0  0  0  0  0  0  0
   58.1970   32.8220   46.0240 C   0  0  0  0  0  0  0  0  0  0  0  0
   58.3860   33.4190   47.4060 C   0  0  0  0  0  0  0  0  0  0  0  0
   59.6940   33.0710   47.9900 N   0  0  0  0  0  0  0  0  0  0  0  0
   60.7220   34.0940   47.7530 C   0  0  0  0  0  0  0  0  0  0  0  0
   62.0380   33.7030   48.3900 C   0  0  0  0  0  0  0  0  0  0  0  0
   62.0870   33.4420   49.7630 C   0  0  0  0  0  0  0  0  0  0  0  0
   63.2530   33.0750   50.3490 N   0  0  0  0  0  0  0  0  0  0  0  0
   64.3970   32.9440   49.6300 C   0  0  0  0  0  0  0  0  0  0  0  0
   65.6100   32.5450   50.2950 N   0  0  0  0  0  0  0  0  0  0  0  0
   66.7570   33.4130   50.5050 C   0  0  0  0  0  0  0  0  0  0  0  0
   67.8470   32.5200   51.0810 C   0  0  0  0  0  0  0  0  0  0  0  0
   67.1370   31.2650   51.5790 C   0  0  0  0  0  0  0  0  0  0  0  0
   65.8200   31.2070   50.8180 C   0  0  0  0  0  0  0  0  0  0  0  0
   64.3810   33.1940   48.2880 N   0  0  0  0  0  0  0  0  0  0  0  0
   63.2360   33.5810   47.6520 C   0  0  0  0  0  0  0  0  0  0  0  0
   63.2720   33.8420   46.1680 C   0  0  0  0  0  0  0  0  0  0  0  0
   59.0218   35.3162   45.9311 H   0  0  0  0  0  0  0  0  0  0  0  0
   59.8846   35.0627   44.3761 H   0  0  0  0  0  0  0  0  0  0  0  0
   58.1883   35.6535   44.3761 H   0  0  0  0  0  0  0  0  0  0  0  0
   58.3854   33.5394   42.6686 H   0  0  0  0  0  0  0  0  0  0  0  0
   57.6174   31.1762   42.5229 H   0  0  0  0  0  0  0  0  0  0  0  0
   57.2313   29.8548   44.5991 H   0  0  0  0  0  0  0  0  0  0  0  0
   57.6098   30.8920   46.8311 H   0  0  0  0  0  0  0  0  0  0  0  0
   58.3114   34.5140   47.3319 H   0  0  0  0  0  0  0  0  0  0  0  0
   57.6040   33.0073   48.0610 H   0  0  0  0  0  0  0  0  0  0  0  0
   60.0340   32.1660   47.5870 H   0  0  0  0  0  0  0  0  0  0  0  0
   60.8686   34.2115   46.6692 H   0  0  0  0  0  0  0  0  0  0  0  0
   60.3839   35.0393   48.2025 H   0  0  0  0  0  0  0  0  0  0  0  0
   61.1747   33.5350   50.3706 H   0  0  0  0  0  0  0  0  0  0  0  0
   67.0851   33.8529   49.5517 H   0  0  0  0  0  0  0  0  0  0  0  0
   66.5169   34.2483   51.1793 H   0  0  0  0  0  0  0  0  0  0  0  0
   68.5810   32.2617   50.3035 H   0  0  0  0  0  0  0  0  0  0  0  0
   68.3959   33.0227   51.8910 H   0  0  0  0  0  0  0  0  0  0  0  0
   67.7426   30.3718   51.3660 H   0  0  0  0  0  0  0  0  0  0  0  0
   66.9762   31.2943   52.6668 H   0  0  0  0  0  0  0  0  0  0  0  0
   65.8838   30.4793   49.9956 H   0  0  0  0  0  0  0  0  0  0  0  0
   64.9899   30.8892   51.4661 H   0  0  0  0  0  0  0  0  0  0  0  0
   65.2590   33.0960   47.7340 H   0  0  0  0  0  0  0  0  0  0  0  0
   63.4203   34.9170   45.9883 H   0  0  0  0  0  0  0  0  0  0  0  0
   64.1007   33.2770   45.7163 H   0  0  0  0  0  0  0  0  0  0  0  0
   62.3213   33.5224   45.7163 H   0  0  0  0  0  0  0  0  0  0  0  0
  1  2  1  0
  2  3  2  0
  3  4  1  0
  4  5  2  0
  5  6  1  0
  6  7  2  0
  7  8  1  0
  8  9  1  0
  9 10  1  0
 10 11  1  0
 11 12  2  0
 12 13  1  0
 13 14  2  0
 14 15  1  0
 15 16  1  0
 16 17  1  0
 17 18  1  0
 18 19  1  0
 14 20  1  0
 20 21  2  0
 21 22  1  0
  7  2  1  0
 21 11  1  0
 19 15  1  0
  1 23  1  0
  1 24  1  0
  1 25  1  0
  3 26  1  0
  4 27  1  0
  5 28  1  0
  6 29  1  0
  8 30  1  0
  8 31  1  0
  9 32  1  0
 10 33  1  0
 10 34  1  0
 12 35  1  0
 16 36  1  0
 16 37  1  0
 17 38  1  0
 17 39  1  0
 18 40  1  0
 18 41  1  0
 19 42  1  0
 19 43  1  0
 20 44  1  0
 22 45  1  0
 22 46  1  0
 22 47  1  0
M  CHG  1  20   1
M  END
>  <UniqueID>  (55) 
51

>  <SMILES>  (55) 
Cc1ccccc1CNCc1cnc(N2CCCC2)[nH+]c1C

>  <Energy>  (55) 
50.088784034347334

>  <Genealogy>  (55) 
Cc1ccccc1CNCc1cnc(N2CCCC2)[nH+]c1C (protonated)
Cc1ccccc1CNCc1cnc(N2CCCC2)[nH+]c1C (3D coordinates assigned)
Cc1ccccc1CNCc1cnc(N2CCCC2)[nH+]c1C (nonaromatic ring conformer: 50.088784034347334 kcal/mol)

>  <smiles>  (55) 
Cc1ccccc1CNCc1cnc(N2CCCC2)nc1C

>  <score_type>  (55) 
oracle

>  <origin>  (55) 
adg

>  <m_score__min__energy>  (55) 
-6.4100000000000001

>  <m_primary>  (55) 
energy

$$$$
55:0
     RDKit          3D

 55 59  0  0  0  0  0  0  0  0999 V2000
   58.8690   26.0490   48.0700 O   0  0  0  0  0  0  0  0  0  0  0  0
   59.1740   27.4440   47.6010 S   0  0  0  0  0  0  0  0  0  0  0  0
   60.2610   27.3850   46.5640 O   0  0  0  0  0  0  0  0  0  0  0  0
   57.7490   28.1340   46.8870 N   0  0  0  0  0  0  0  0  0  0  0  0
   57.7120   29.4190   46.2310 C   0  0  0  0  0  0  0  0  0  0  0  0
   58.6190   30.4410   46.5640 C   0  0  0  0  0  0  0  0  0  0  0  0
   58.5730   31.6930   45.9250 C   0  0  0  0  0  0  0  0  0  0  0  0
   57.5790   31.9320   44.9510 C   0  0  0  0  0  0  0  0  0  0  0  0
   56.6740   30.9160   44.6210 C   0  0  0  0  0  0  0  0  0  0  0  0
   56.7420   29.6690   45.2450 C   0  0  0  0  0  0  0  0  0  0  0  0
   55.8270   28.6840   44.8860 O   0  0  0  0  0  0  0  0  0  0  0  0
   57.3980   33.3020   44.3350 C   0  0  0  0  0  0  0  0  0  0  0  0
   58.6220   34.2080   44.5210 C   0  0  0  0  0  0  0  0  0  0  0  0
   59.1330   34.1260   45.9580 C   0  0  0  0  0  0  0  0  0  0  0  0
   59.5080   32.7430   46.2610 N   0  0  0  0  0  0  0  0  0  0  0  0
   61.0780   32.4020   46.9500 S   0  0  0  0  0  0  0  0  0  0  0  0
   61.3960   30.9500   46.7260 O   0  0  0  0  0  0  0  0  0  0  0  0
   62.1390   33.2320   46.2820 O   0  0  0  0  0  0  0  0  0  0  0  0
   61.1110   32.7840   48.6830 C   0  0  0  0  0  0  0  0  0  0  0  0
   59.9110   33.1660   49.3040 C   0  0  0  0  0  0  0  0  0  0  0  0
   59.8790   33.4840   50.6610 C   0  0  0  0  0  0  0  0  0  0  0  0
   61.0430   33.4290   51.4240 C   0  0  0  0  0  0  0  0  0  0  0  0
   62.2570   33.0550   50.8330 C   0  0  0  0  0  0  0  0  0  0  0  0
   63.4270   33.0080   51.6090 C   0  0  0  0  0  0  0  0  0  0  0  0
   64.6410   32.6450   51.0280 C   0  0  0  0  0  0  0  0  0  0  0  0
   64.7010   32.3240   49.6740 C   0  0  0  0  0  0  0  0  0  0  0  0
   63.5470   32.3620   48.8870 C   0  0  0  0  0  0  0  0  0  0  0  0
   62.3050   32.7270   49.4510 C   0  0  0  0  0  0  0  0  0  0  0  0
   59.6830   28.4100   48.9840 C   0  0  0  0  0  0  0  0  0  0  0  0
   58.8110   29.3630   49.5270 C   0  0  0  0  0  0  0  0  0  0  0  0
   59.2200   30.1550   50.6050 C   0  0  0  0  0  0  0  0  0  0  0  0
   60.5000   29.9970   51.1430 C   0  0  0  0  0  0  0  0  0  0  0  0
   61.3720   29.0460   50.6060 C   0  0  0  0  0  0  0  0  0  0  0  0
   60.9650   28.2520   49.5290 C   0  0  0  0  0  0  0  0  0  0  0  0
   56.8730   27.5730   46.9690 H   0  0  0  0  0  0  0  0  0  0  0  0
   59.3783   30.2577   47.3385 H   0  0  0  0  0  0  0  0  0  0  0  0
   55.9005   31.1024   43.8614 H   0  0  0  0  0  0  0  0  0  0  0  0
   57.2121   33.1804   43.2577 H   0  0  0  0  0  0  0  0  0  0  0  0
   56.5509   33.7836   44.8454 H   0  0  0  0  0  0  0  0  0  0  0  0
   59.4187   33.8860   43.8343 H   0  0  0  0  0  0  0  0  0  0  0  0
   58.3326   35.2469   44.3044 H   0  0  0  0  0  0  0  0  0  0  0  0
   60.0111   34.7784   46.0734 H   0  0  0  0  0  0  0  0  0  0  0  0
   58.3422   34.4529   46.6492 H   0  0  0  0  0  0  0  0  0  0  0  0
   58.9848   33.2150   48.7126 H   0  0  0  0  0  0  0  0  0  0  0  0
   58.9297   33.7798   51.1315 H   0  0  0  0  0  0  0  0  0  0  0  0
   61.0090   33.6801   52.4944 H   0  0  0  0  0  0  0  0  0  0  0  0
   63.3850   33.2586   52.6793 H   0  0  0  0  0  0  0  0  0  0  0  0
   65.5541   32.6120   51.6405 H   0  0  0  0  0  0  0  0  0  0  0  0
   65.6623   32.0390   49.2216 H   0  0  0  0  0  0  0  0  0  0  0  0
   63.6066   32.1054   47.8190 H   0  0  0  0  0  0  0  0  0  0  0  0
   57.8030   29.4885   49.1048 H   0  0  0  0  0  0  0  0  0  0  0  0
   58.5337   30.9026   51.0295 H   0  0  0  0  0  0  0  0  0  0  0  0
   60.8214   30.6215   51.9896 H   0  0  0  0  0  0  0  0  0  0  0  0
   62.3791   28.9219   51.0307 H   0  0  0  0  0  0  0  0  0  0  0  0
   61.6518   27.5024   49.1089 H   0  0  0  0  0  0  0  0  0  0  0  0
  1  2  2  0
  2  3  2  0
  2  4  1  0
  4  5  1  0
  5  6  2  0
  6  7  1  0
  7  8  2  0
  8  9  1  0
  9 10  2  0
 10 11  1  0
  8 12  1  0
 12 13  1  0
 13 14  1  0
 14 15  1  0
 15 16  1  0
 16 17  2  0
 16 18  2  0
 16 19  1  0
 19 20  2  0
 20 21  1  0
 21 22  2  0
 22 23  1  0
 23 24  2  0
 24 25  1  0
 25 26  2  0
 26 27  1  0
 27 28  2  0
  2 29  1  0
 29 30  2  0
 30 31  1  0
 31 32  2  0
 32 33  1  0
 33 34  2  0
 10  5  1  0
 28 19  1  0
 34 29  1  0
 15  7  1  0
 28 23  1  0
  4 35  1  0
  6 36  1  0
  9 37  1  0
 12 38  1  0
 12 39  1  0
 13 40  1  0
 13 41  1  0
 14 42  1  0
 14 43  1  0
 20 44  1  0
 21 45  1  0
 22 46  1  0
 24 47  1  0
 25 48  1  0
 26 49  1  0
 27 50  1  0
 30 51  1  0
 31 52  1  0
 32 53  1  0
 33 54  1  0
 34 55  1  0
M  CHG  1  11  -1
M  END
>  <UniqueID>  (56) 
52

>  <SMILES>  (56) 
O=S(=O)(Nc1cc2c(cc1[O-])CCCN2S(=O)(=O)c1cccc2ccccc12)c1ccccc1

>  <Energy>  (56) 
72.34984799600034

>  <Genealogy>  (56) 
O=S(=O)(Nc1cc2c(cc1[O-])CCCN2S(=O)(=O)c1cccc2ccccc12)c1ccccc1 (protonated)
O=S(=O)(Nc1cc2c(cc1[O-])CCCN2S(=O)(=O)c1cccc2ccccc12)c1ccccc1 (3D coordinates assigned)
O=S(=O)(Nc1cc2c(cc1[O-])CCCN2S(=O)(=O)c1cccc2ccccc12)c1ccccc1 (nonaromatic ring conformer: 72.34984799600034 kcal/mol)

>  <smiles>  (56) 
O=S(=O)(Nc1cc2c(cc1O)CCCN2S(=O)(=O)c1cccc2ccccc12)c1ccccc1

>  <score_type>  (56) 
oracle

>  <origin>  (56) 
adg

>  <m_score__min__energy>  (56) 
-13.130000000000001

>  <m_primary>  (56) 
energy

$$$$
56:0
     RDKit          3D

 72 75  0  0  0  0  0  0  0  0999 V2000
   62.8100   25.0860   51.9690 C   0  0  0  0  0  0  0  0  0  0  0  0
   61.5530   25.8230   51.5180 C   0  0  0  0  0  0  0  0  0  0  0  0
   61.7940   27.3140   51.4610 C   0  0  0  0  0  0  0  0  0  0  0  0
   62.6610   27.8940   52.4000 C   0  0  0  0  0  0  0  0  0  0  0  0
   62.9150   29.2660   52.3850 C   0  0  0  0  0  0  0  0  0  0  0  0
   62.2820   30.0970   51.4500 C   0  0  0  0  0  0  0  0  0  0  0  0
   62.5460   31.5570   51.4200 C   0  0  0  0  0  0  0  0  0  0  0  0
   62.4190   32.2180   52.4870 O   0  0  0  0  0  0  0  0  0  0  0  0
   62.9290   32.2450   50.2100 N   0  0  0  0  0  0  0  0  0  0  0  0
   63.9110   31.6630   49.2880 C   0  0  0  0  0  0  0  0  0  0  0  0
   63.4680   31.8680   47.8320 C   0  0  0  0  0  0  0  0  0  0  0  0
   62.9450   33.3090   47.5280 C   0  0  0  0  0  0  0  0  0  0  0  0
   63.7640   33.8240   46.5310 F   0  0  0  0  0  0  0  0  0  0  0  0
   61.4980   33.3090   47.0240 C   0  0  0  0  0  0  0  0  0  0  0  0
   60.9380   34.4740   46.4610 C   0  0  0  0  0  0  0  0  0  0  0  0
   59.6080   34.4920   46.0290 C   0  0  0  0  0  0  0  0  0  0  0  0
   58.8080   33.3540   46.1690 C   0  0  0  0  0  0  0  0  0  0  0  0
   57.4370   33.3760   45.7270 C   0  0  0  0  0  0  0  0  0  0  0  0
   56.3350   33.3950   45.3730 N   0  0  0  0  0  0  0  0  0  0  0  0
   59.3400   32.1990   46.7460 C   0  0  0  0  0  0  0  0  0  0  0  0
   60.6700   32.1770   47.1730 C   0  0  0  0  0  0  0  0  0  0  0  0
   63.0860   34.2580   48.7430 C   0  0  0  0  0  0  0  0  0  0  0  0
   62.5370   33.6540   50.0450 C   0  0  0  0  0  0  0  0  0  0  0  0
   61.4170   29.5210   50.5050 C   0  0  0  0  0  0  0  0  0  0  0  0
   61.1660   28.1380   50.4980 C   0  0  0  0  0  0  0  0  0  0  0  0
   60.2490   27.5870   49.5350 N   0  0  0  0  0  0  0  0  0  0  0  0
   59.9720   28.2260   48.2780 C   0  0  0  0  0  0  0  0  0  0  0  0
   60.7470   29.1280   47.8530 O   0  0  0  0  0  0  0  0  0  0  0  0
   58.8140   27.8120   47.4510 C   0  0  0  0  0  0  0  0  0  0  0  0
   58.3550   26.4840   47.4590 C   0  0  0  0  0  0  0  0  0  0  0  0
   57.2580   26.1280   46.6720 C   0  0  0  0  0  0  0  0  0  0  0  0
   56.6380   27.0600   45.9050 N   0  0  0  0  0  0  0  0  0  0  0  0
   57.0500   28.3590   45.8740 C   0  0  0  0  0  0  0  0  0  0  0  0
   56.4420   29.2380   45.1320 N   0  0  0  0  0  0  0  0  0  0  0  0
   57.0180   30.5020   44.6630 C   0  0  0  0  0  0  0  0  0  0  0  0
   56.6010   30.8230   43.2130 C   0  0  0  0  0  0  0  0  0  0  0  0
   56.2960   29.5570   42.4030 C   0  0  0  0  0  0  0  0  0  0  0  0
   57.6550   31.6820   42.5010 C   0  0  0  0  0  0  0  0  0  0  0  0
   58.1420   28.7560   46.6530 C   0  0  0  0  0  0  0  0  0  0  0  0
   62.8476   25.0639   53.0681 H   0  0  0  0  0  0  0  0  0  0  0  0
   62.7902   24.0565   51.5821 H   0  0  0  0  0  0  0  0  0  0  0  0
   63.6987   25.6061   51.5821 H   0  0  0  0  0  0  0  0  0  0  0  0
   61.2653   25.4661   50.5181 H   0  0  0  0  0  0  0  0  0  0  0  0
   60.7496   25.6240   52.2425 H   0  0  0  0  0  0  0  0  0  0  0  0
   63.1459   27.2596   53.1566 H   0  0  0  0  0  0  0  0  0  0  0  0
   63.6174   29.6989   53.1125 H   0  0  0  0  0  0  0  0  0  0  0  0
   64.8853   32.1499   49.4420 H   0  0  0  0  0  0  0  0  0  0  0  0
   63.9908   30.5842   49.4874 H   0  0  0  0  0  0  0  0  0  0  0  0
   64.3277   31.6657   47.1763 H   0  0  0  0  0  0  0  0  0  0  0  0
   62.6297   31.1788   47.6524 H   0  0  0  0  0  0  0  0  0  0  0  0
   61.5545   35.3795   46.3603 H   0  0  0  0  0  0  0  0  0  0  0  0
   59.1902   35.4041   45.5778 H   0  0  0  0  0  0  0  0  0  0  0  0
   58.7106   31.3047   46.8645 H   0  0  0  0  0  0  0  0  0  0  0  0
   61.0772   31.2640   47.6319 H   0  0  0  0  0  0  0  0  0  0  0  0
   64.1521   34.4882   48.8859 H   0  0  0  0  0  0  0  0  0  0  0  0
   62.4960   35.1605   48.5252 H   0  0  0  0  0  0  0  0  0  0  0  0
   62.9260   34.2324   50.8960 H   0  0  0  0  0  0  0  0  0  0  0  0
   61.4387   33.6972   50.0018 H   0  0  0  0  0  0  0  0  0  0  0  0
   60.9277   30.1631   49.7578 H   0  0  0  0  0  0  0  0  0  0  0  0
   59.8470   26.6400   49.7110 H   0  0  0  0  0  0  0  0  0  0  0  0
   58.8571   25.7290   48.0818 H   0  0  0  0  0  0  0  0  0  0  0  0
   56.8955   25.0895   46.6738 H   0  0  0  0  0  0  0  0  0  0  0  0
   56.6741   31.3146   45.3198 H   0  0  0  0  0  0  0  0  0  0  0  0
   58.1136   30.4070   44.6888 H   0  0  0  0  0  0  0  0  0  0  0  0
   55.6698   31.4051   43.2769 H   0  0  0  0  0  0  0  0  0  0  0  0
   56.0948   28.7218   43.0900 H   0  0  0  0  0  0  0  0  0  0  0  0
   55.4141   29.7309   41.7690 H   0  0  0  0  0  0  0  0  0  0  0  0
   57.1604   29.3102   41.7690 H   0  0  0  0  0  0  0  0  0  0  0  0
   58.2797   32.1911   43.2497 H   0  0  0  0  0  0  0  0  0  0  0  0
   58.2877   31.0390   41.8715 H   0  0  0  0  0  0  0  0  0  0  0  0
   57.1529   32.4315   41.8715 H   0  0  0  0  0  0  0  0  0  0  0  0
   58.4747   29.8044   46.6417 H   0  0  0  0  0  0  0  0  0  0  0  0
  1  2  1  0
  2  3  1  0
  3  4  2  0
  4  5  1  0
  5  6  2  0
  6  7  1  0
  7  8  2  0
  7  9  1  0
  9 10  1  0
 10 11  1  0
 11 12  1  0
 12 13  1  0
 12 14  1  0
 14 15  2  0
 15 16  1  0
 16 17  2  0
 17 18  1  0
 18 19  3  0
 17 20  1  0
 20 21  2  0
 12 22  1  0
 22 23  1  0
  6 24  1  0
 24 25  2  0
 25 26  1  0
 26 27  1  0
 27 28  2  0
 27 29  1  0
 29 30  1  0
 30 31  2  0
 31 32  1  0
 32 33  1  0
 33 34  2  3
 34 35  1  0
 35 36  1  0
 36 37  1  0
 36 38  1  0
 33 39  1  0
 25  3  1  0
 39 29  2  0
 23  9  1  0
 21 14  1  0
  1 40  1  0
  1 41  1  0
  1 42  1  0
  2 43  1  0
  2 44  1  0
  4 45  1  0
  5 46  1  0
 10 47  1  0
 10 48  1  0
 11 49  1  0
 11 50  1  0
 15 51  1  0
 16 52  1  0
 20 53  1  0
 21 54  1  0
 22 55  1  0
 22 56  1  0
 23 57  1  0
 23 58  1  0
 24 59  1  0
 26 60  1  0
 30 61  1  0
 31 62  1  0
 35 63  1  0
 35 64  1  0
 36 65  1  0
 37 66  1  0
 37 67  1  0
 37 68  1  0
 38 69  1  0
 38 70  1  0
 38 71  1  0
 39 72  1  0
M  CHG  1  32  -1
M  END
>  <UniqueID>  (57) 
53

>  <SMILES>  (57) 
CCc1ccc(C(=O)N2CCC(F)(c3ccc(C#N)cc3)CC2)cc1NC(=O)c1cc[n-]c(=NCC(C)C)c1

>  <Energy>  (57) 
85.85627202524664

>  <Genealogy>  (57) 
CCc1ccc(C(=O)N2CCC(F)(c3ccc(C#N)cc3)CC2)cc1NC(=O)c1cc[n-]c(=NCC(C)C)c1 (protonated)
CCc1ccc(C(=O)N2CCC(F)(c3ccc(C#N)cc3)CC2)cc1NC(=O)c1cc[n-]c(=NCC(C)C)c1 (3D coordinates assigned)
CCc1ccc(C(=O)N2CCC(F)(c3ccc(C#N)cc3)CC2)cc1NC(=O)c1cc[n-]c(=NCC(C)C)c1 (nonaromatic ring conformer: 85.85627202524664 kcal/mol)

>  <smiles>  (57) 
CCc1ccc(C(=O)N2CCC(F)(c3ccc(C#N)cc3)CC2)cc1NC(=O)c1cc[nH]c(=NCC(C)C)c1

>  <score_type>  (57) 
oracle

>  <origin>  (57) 
adg

>  <m_score__min__energy>  (57) 
-10.970000000000001

>  <m_primary>  (57) 
energy

$$$$
57:0
     RDKit          3D

 60 63  0  0  0  0  0  0  0  0999 V2000
   59.3400   22.4590   45.1350 C   0  0  0  0  0  0  0  0  0  0  0  0
   58.0860   22.7890   44.4630 N   0  0  0  0  0  0  0  0  0  0  0  0
   57.4330   21.9990   43.5870 C   0  0  0  0  0  0  0  0  0  0  0  0
   56.2420   22.5910   43.2180 C   0  0  0  0  0  0  0  0  0  0  0  0
   56.1620   23.7860   43.9090 C   0  0  0  0  0  0  0  0  0  0  0  0
   57.3120   23.8770   44.6690 C   0  0  0  0  0  0  0  0  0  0  0  0
   57.6180   24.9770   45.6430 C   0  0  0  0  0  0  0  0  0  0  0  0
   57.8830   26.2220   44.9300 N   0  0  0  0  0  0  0  0  0  0  0  0
   57.0450   27.3790   45.0740 C   0  0  0  0  0  0  0  0  0  0  0  0
   55.9170   27.2630   45.6250 O   0  0  0  0  0  0  0  0  0  0  0  0
   57.4660   28.6650   44.5820 N   0  0  0  0  0  0  0  0  0  0  0  0
   56.4500   29.6820   44.2820 C   0  0  0  0  0  0  0  0  0  0  0  0
   57.0540   30.8830   43.5460 C   0  0  0  0  0  0  0  0  0  0  0  0
   58.2660   31.4870   44.3010 C   0  0  0  0  0  0  0  0  0  0  0  0
   57.8460   32.5110   45.3480 C   0  0  0  0  0  0  0  0  0  0  0  0
   56.6190   32.6560   45.6060 O   0  0  0  0  0  0  0  0  0  0  0  0
   58.8170   33.2550   46.1280 N   0  0  0  0  0  0  0  0  0  0  0  0
   58.3690   33.8550   47.4010 C   0  0  0  0  0  0  0  0  0  0  0  0
   59.4660   34.6910   48.0620 C   0  0  0  0  0  0  0  0  0  0  0  0
   60.7460   33.9800   48.0100 N   0  0  0  0  0  0  0  0  0  0  0  0
   61.6360   33.9900   49.1380 C   0  0  0  0  0  0  0  0  0  0  0  0
   62.8630   34.1870   48.9610 O   0  0  0  0  0  0  0  0  0  0  0  0
   61.1070   33.8410   50.5370 C   0  0  0  0  0  0  0  0  0  0  0  0
   61.3870   32.5040   51.2070 C   0  0  0  0  0  0  0  0  0  0  0  0
   60.0020   32.8050   50.6680 C   0  0  0  0  0  0  0  0  0  0  0  0
   61.2000   33.3780   46.7490 C   0  0  0  0  0  0  0  0  0  0  0  0
   60.1690   33.5580   45.6300 C   0  0  0  0  0  0  0  0  0  0  0  0
   59.1650   30.3990   44.9500 C   0  0  0  0  0  0  0  0  0  0  0  0
   58.8890   28.9880   44.4170 C   0  0  0  0  0  0  0  0  0  0  0  0
   59.1933   22.4976   46.2245 H   0  0  0  0  0  0  0  0  0  0  0  0
   59.6570   21.4469   44.8433 H   0  0  0  0  0  0  0  0  0  0  0  0
   60.1141   23.1840   44.8433 H   0  0  0  0  0  0  0  0  0  0  0  0
   57.7955   21.0272   43.2208 H   0  0  0  0  0  0  0  0  0  0  0  0
   55.5004   22.1900   42.5114 H   0  0  0  0  0  0  0  0  0  0  0  0
   55.3438   24.5197   43.8627 H   0  0  0  0  0  0  0  0  0  0  0  0
   56.7575   25.1184   46.3135 H   0  0  0  0  0  0  0  0  0  0  0  0
   58.5083   24.7016   46.2274 H   0  0  0  0  0  0  0  0  0  0  0  0
   58.6890   26.2470   44.2670 H   0  0  0  0  0  0  0  0  0  0  0  0
   55.6699   29.2318   43.6505 H   0  0  0  0  0  0  0  0  0  0  0  0
   56.0283   30.0381   45.2335 H   0  0  0  0  0  0  0  0  0  0  0  0
   57.3851   30.5569   42.5490 H   0  0  0  0  0  0  0  0  0  0  0  0
   56.2788   31.6604   43.4775 H   0  0  0  0  0  0  0  0  0  0  0  0
   58.8600   32.0055   43.5340 H   0  0  0  0  0  0  0  0  0  0  0  0
   57.5017   34.5018   47.2022 H   0  0  0  0  0  0  0  0  0  0  0  0
   58.1080   33.0361   48.0875 H   0  0  0  0  0  0  0  0  0  0  0  0
   59.5614   35.6498   47.5314 H   0  0  0  0  0  0  0  0  0  0  0  0
   59.1969   34.8684   49.1137 H   0  0  0  0  0  0  0  0  0  0  0  0
   61.2444   34.8929   50.8280 H   0  0  0  0  0  0  0  0  0  0  0  0
   62.0227   31.7598   50.7049 H   0  0  0  0  0  0  0  0  0  0  0  0
   61.7912   32.1922   52.1814 H   0  0  0  0  0  0  0  0  0  0  0  0
   59.6333   32.2787   49.7752 H   0  0  0  0  0  0  0  0  0  0  0  0
   58.9862   32.8015   51.0901 H   0  0  0  0  0  0  0  0  0  0  0  0
   62.1428   33.8563   46.4450 H   0  0  0  0  0  0  0  0  0  0  0  0
   61.3399   32.2997   46.9153 H   0  0  0  0  0  0  0  0  0  0  0  0
   60.1995   34.5977   45.2722 H   0  0  0  0  0  0  0  0  0  0  0  0
   60.4101   32.8693   44.8069 H   0  0  0  0  0  0  0  0  0  0  0  0
   60.2170   30.6491   44.7480 H   0  0  0  0  0  0  0  0  0  0  0  0
   58.9407   30.3905   46.0269 H   0  0  0  0  0  0  0  0  0  0  0  0
   59.1528   28.9423   43.3501 H   0  0  0  0  0  0  0  0  0  0  0  0
   59.4945   28.2618   44.9792 H   0  0  0  0  0  0  0  0  0  0  0  0
  1  2  1  0
  2  3  1  0
  3  4  2  0
  4  5  1  0
  5  6  2  0
  6  7  1  0
  7  8  1  0
  8  9  1  0
  9 10  2  0
  9 11  1  0
 11 12  1  0
 12 13  1  0
 13 14  1  0
 14 15  1  0
 15 16  2  0
 15 17  1  0
 17 18  1  0
 18 19  1  0
 19 20  1  0
 20 21  1  0
 21 22  2  0
 21 23  1  0
 23 24  1  0
 24 25  1  0
 20 26  1  0
 26 27  1  0
 14 28  1  0
 28 29  1  0
  6  2  1  0
 29 11  1  0
 27 17  1  0
 25 23  1  0
  1 30  1  0
  1 31  1  0
  1 32  1  0
  3 33  1  0
  4 34  1  0
  5 35  1  0
  7 36  1  0
  7 37  1  0
  8 38  1  0
 12 39  1  0
 12 40  1  0
 13 41  1  0
 13 42  1  0
 14 43  1  0
 18 44  1  0
 18 45  1  0
 19 46  1  0
 19 47  1  0
 23 48  1  0
 24 49  1  0
 24 50  1  0
 25 51  1  0
 25 52  1  0
 26 53  1  0
 26 54  1  0
 27 55  1  0
 27 56  1  0
 28 57  1  0
 28 58  1  0
 29 59  1  0
 29 60  1  0
M  END
>  <UniqueID>  (58) 
54

>  <SMILES>  (58) 
Cn1cccc1CNC(=O)N1CCC(C(=O)N2CCN(C(=O)C3CC3)CC2)CC1

>  <Energy>  (58) 
353.68911968328644

>  <Genealogy>  (58) 
Cn1cccc1CNC(=O)N1CCC(C(=O)N2CCN(C(=O)C3CC3)CC2)CC1 (3D coordinates assigned)
Cn1cccc1CNC(=O)N1CCC(C(=O)N2CCN(C(=O)C3CC3)CC2)CC1 (nonaromatic ring conformer: 353.68911968328644 kcal/mol)

>  <smiles>  (58) 
Cn1cccc1CNC(=O)N1CCC(C(=O)N2CCN(C(=O)C3CC3)CC2)CC1

>  <score_type>  (58) 
oracle

>  <origin>  (58) 
adg

>  <m_score__min__energy>  (58) 
-8.3000000000000007

>  <m_primary>  (58) 
energy

$$$$
58:0
     RDKit          3D

 53 55  0  0  0  0  0  0  0  0999 V2000
   59.8760   28.7430   48.0940 C   0  0  0  0  0  0  0  0  0  0  0  0
   60.0930   27.6810   47.0940 N   0  0  0  0  0  0  0  0  0  0  0  0
   58.8930   26.8300   47.0070 C   0  0  0  0  0  0  0  0  0  0  0  0
   60.4060   28.2470   45.7620 C   0  0  0  0  0  0  0  0  0  0  0  0
   59.1770   28.8090   45.0840 C   0  0  0  0  0  0  0  0  0  0  0  0
   58.5070   28.0680   44.0970 C   0  0  0  0  0  0  0  0  0  0  0  0
   57.3660   28.5890   43.4820 C   0  0  0  0  0  0  0  0  0  0  0  0
   56.8800   29.8440   43.8530 C   0  0  0  0  0  0  0  0  0  0  0  0
   57.5250   30.5850   44.8590 C   0  0  0  0  0  0  0  0  0  0  0  0
   57.0700   31.8510   45.2520 O   0  0  0  0  0  0  0  0  0  0  0  0
   57.8860   32.9210   45.6540 C   0  0  0  0  0  0  0  0  0  0  0  0
   58.2860   33.8560   44.6920 C   0  0  0  0  0  0  0  0  0  0  0  0
   59.1330   34.9100   45.0400 C   0  0  0  0  0  0  0  0  0  0  0  0
   59.5950   35.0350   46.3510 C   0  0  0  0  0  0  0  0  0  0  0  0
   59.1990   34.1130   47.3330 C   0  0  0  0  0  0  0  0  0  0  0  0
   59.7220   34.2290   48.7440 C   0  0  0  0  0  0  0  0  0  0  0  0
   60.9530   33.4470   48.9880 N   0  0  0  0  0  0  0  0  0  0  0  0
   60.9150   32.0120   48.6340 C   0  0  0  0  0  0  0  0  0  0  0  0
   61.5420   31.7090   47.2650 C   0  0  0  0  0  0  0  0  0  0  0  0
   62.9270   32.3360   47.1470 C   0  0  0  0  0  0  0  0  0  0  0  0
   62.8350   33.8400   47.3780 C   0  0  0  0  0  0  0  0  0  0  0  0
   62.2380   34.1400   48.7580 C   0  0  0  0  0  0  0  0  0  0  0  0
   58.3570   33.0460   46.9740 C   0  0  0  0  0  0  0  0  0  0  0  0
   58.6810   30.0690   45.4570 C   0  0  0  0  0  0  0  0  0  0  0  0
   59.9628   28.3181   49.1049 H   0  0  0  0  0  0  0  0  0  0  0  0
   60.6316   29.5313   47.9615 H   0  0  0  0  0  0  0  0  0  0  0  0
   58.8717   29.1717   47.9615 H   0  0  0  0  0  0  0  0  0  0  0  0
   60.8890   27.0790   47.4140 H   0  0  0  0  0  0  0  0  0  0  0  0
   58.5445   26.5828   48.0206 H   0  0  0  0  0  0  0  0  0  0  0  0
   58.0999   27.3686   46.4677 H   0  0  0  0  0  0  0  0  0  0  0  0
   59.1390   25.9034   46.4677 H   0  0  0  0  0  0  0  0  0  0  0  0
   61.1450   29.0528   45.8830 H   0  0  0  0  0  0  0  0  0  0  0  0
   60.8016   27.4366   45.1322 H   0  0  0  0  0  0  0  0  0  0  0  0
   58.8815   27.0751   43.8075 H   0  0  0  0  0  0  0  0  0  0  0  0
   56.8492   28.0088   42.7034 H   0  0  0  0  0  0  0  0  0  0  0  0
   55.9887   30.2549   43.3563 H   0  0  0  0  0  0  0  0  0  0  0  0
   57.9308   33.7597   43.6554 H   0  0  0  0  0  0  0  0  0  0  0  0
   59.4369   35.6437   44.2789 H   0  0  0  0  0  0  0  0  0  0  0  0
   60.2727   35.8599   46.6162 H   0  0  0  0  0  0  0  0  0  0  0  0
   59.9372   35.2882   48.9486 H   0  0  0  0  0  0  0  0  0  0  0  0
   58.9458   33.8223   49.4089 H   0  0  0  0  0  0  0  0  0  0  0  0
   61.4639   31.4478   49.4024 H   0  0  0  0  0  0  0  0  0  0  0  0
   59.8567   31.7166   48.5811 H   0  0  0  0  0  0  0  0  0  0  0  0
   61.6289   30.6193   47.1425 H   0  0  0  0  0  0  0  0  0  0  0  0
   60.8969   32.1348   46.4823 H   0  0  0  0  0  0  0  0  0  0  0  0
   63.5944   31.8912   47.8998 H   0  0  0  0  0  0  0  0  0  0  0  0
   63.3262   32.1473   46.1395 H   0  0  0  0  0  0  0  0  0  0  0  0
   63.8426   34.2771   47.3175 H   0  0  0  0  0  0  0  0  0  0  0  0
   62.1829   34.2773   46.6075 H   0  0  0  0  0  0  0  0  0  0  0  0
   62.9540   33.8180   49.5285 H   0  0  0  0  0  0  0  0  0  0  0  0
   62.0449   35.2218   48.8077 H   0  0  0  0  0  0  0  0  0  0  0  0
   58.0642   32.3033   47.7307 H   0  0  0  0  0  0  0  0  0  0  0  0
   59.2054   30.6556   46.2257 H   0  0  0  0  0  0  0  0  0  0  0  0
  1  2  1  0
  2  3  1  0
  2  4  1  0
  4  5  1  0
  5  6  2  0
  6  7  1  0
  7  8  2  0
  8  9  1  0
  9 10  1  0
 10 11  1  0
 11 12  2  0
 12 13  1  0
 13 14  2  0
 14 15  1  0
 15 16  1  0
 16 17  1  0
 17 18  1  0
 18 19  1  0
 19 20  1  0
 20 21  1  0
 21 22  1  0
 15 23  2  0
  9 24  2  0
 24  5  1  0
 23 11  1  0
 22 17  1  0
  1 25  1  0
  1 26  1  0
  1 27  1  0
  2 28  1  0
  3 29  1  0
  3 30  1  0
  3 31  1  0
  4 32  1  0
  4 33  1  0
  6 34  1  0
  7 35  1  0
  8 36  1  0
 12 37  1  0
 13 38  1  0
 14 39  1  0
 16 40  1  0
 16 41  1  0
 18 42  1  0
 18 43  1  0
 19 44  1  0
 19 45  1  0
 20 46  1  0
 20 47  1  0
 21 48  1  0
 21 49  1  0
 22 50  1  0
 22 51  1  0
 23 52  1  0
 24 53  1  0
M  CHG  1   2   1
M  END
>  <UniqueID>  (59) 
55

>  <SMILES>  (59) 
C[NH+](C)Cc1cccc(Oc2cccc(CN3CCCCC3)c2)c1

>  <Energy>  (59) 
63.87387037754778

>  <Genealogy>  (59) 
C[NH+](C)Cc1cccc(Oc2cccc(CN3CCCCC3)c2)c1 (protonated)
C[NH+](C)Cc1cccc(Oc2cccc(CN3CCCCC3)c2)c1 (3D coordinates assigned)
C[NH+](C)Cc1cccc(Oc2cccc(CN3CCCCC3)c2)c1 (nonaromatic ring conformer: 63.87387037754778 kcal/mol)

>  <smiles>  (59) 
CN(C)Cc1cccc(Oc2cccc(CN3CCCCC3)c2)c1

>  <score_type>  (59) 
oracle

>  <origin>  (59) 
adg

>  <m_score__min__energy>  (59) 
-6.96

>  <m_primary>  (59) 
energy

$$$$
59:0
     RDKit          3D

 54 56  0  0  0  0  0  0  0  0999 V2000
   52.1840   23.7970   44.6000 C   0  0  0  0  0  0  0  0  0  0  0  0
   52.9700   22.9320   45.4750 N   0  0  0  0  0  0  0  0  0  0  0  0
   54.5980   23.5300   45.5850 S   0  0  0  0  0  0  0  0  0  0  0  0
   55.2580   22.9910   46.8250 O   0  0  0  0  0  0  0  0  0  0  0  0
   54.5680   25.0310   45.6680 O   0  0  0  0  0  0  0  0  0  0  0  0
   55.5180   23.0390   44.1910 N   0  0  0  0  0  0  0  0  0  0  0  0
   56.5010   24.0600   43.8180 C   0  0  0  0  0  0  0  0  0  0  0  0
   57.6250   24.1190   44.8560 C   0  0  0  0  0  0  0  0  0  0  0  0
   57.2790   25.0410   45.9380 N   0  0  0  0  0  0  0  0  0  0  0  0
   57.9280   26.3080   46.1760 C   0  0  0  0  0  0  0  0  0  0  0  0
   59.2770   26.3890   46.5730 C   0  0  0  0  0  0  0  0  0  0  0  0
   59.8780   27.6280   46.8060 C   0  0  0  0  0  0  0  0  0  0  0  0
   59.1440   28.8170   46.6570 C   0  0  0  0  0  0  0  0  0  0  0  0
   59.7790   30.1330   46.9200 C   0  0  0  0  0  0  0  0  0  0  0  0
   61.0030   30.2080   47.6050 C   0  0  0  0  0  0  0  0  0  0  0  0
   61.5940   31.4580   47.8440 C   0  0  0  0  0  0  0  0  0  0  0  0
   62.8840   31.5680   48.5600 C   0  0  0  0  0  0  0  0  0  0  0  0
   64.0610   32.0060   47.8780 N   0  0  0  0  0  0  0  0  0  0  0  0
   62.9560   31.2790   49.7840 O   0  0  0  0  0  0  0  0  0  0  0  0
   60.9690   32.5850   47.4080 N   0  0  0  0  0  0  0  0  0  0  0  0
   59.7820   32.5550   46.7440 C   0  0  0  0  0  0  0  0  0  0  0  0
   59.1670   33.8240   46.3110 C   0  0  0  0  0  0  0  0  0  0  0  0
   59.7210   34.9140   46.6170 O   0  0  0  0  0  0  0  0  0  0  0  0
   57.9770   33.8140   45.5090 N   0  0  0  0  0  0  0  0  0  0  0  0
   57.5910   32.8200   44.5470 C   0  0  0  0  0  0  0  0  0  0  0  0
   56.7200   31.7610   44.8700 C   0  0  0  0  0  0  0  0  0  0  0  0
   56.3830   30.8090   43.9020 C   0  0  0  0  0  0  0  0  0  0  0  0
   55.5350   29.7970   44.2130 F   0  0  0  0  0  0  0  0  0  0  0  0
   56.9230   30.8960   42.6150 C   0  0  0  0  0  0  0  0  0  0  0  0
   57.8110   31.9260   42.2960 C   0  0  0  0  0  0  0  0  0  0  0  0
   58.3500   32.0000   41.0540 F   0  0  0  0  0  0  0  0  0  0  0  0
   58.1470   32.8820   43.2610 C   0  0  0  0  0  0  0  0  0  0  0  0
   59.1660   31.3200   46.4900 C   0  0  0  0  0  0  0  0  0  0  0  0
   57.7990   28.7400   46.2610 C   0  0  0  0  0  0  0  0  0  0  0  0
   57.1980   27.5010   46.0210 C   0  0  0  0  0  0  0  0  0  0  0  0
   55.8980   27.4670   45.6280 F   0  0  0  0  0  0  0  0  0  0  0  0
   51.5686   24.4742   45.2105 H   0  0  0  0  0  0  0  0  0  0  0  0
   52.8603   24.3882   43.9651 H   0  0  0  0  0  0  0  0  0  0  0  0
   51.5309   23.1802   43.9651 H   0  0  0  0  0  0  0  0  0  0  0  0
   56.9274   23.8113   42.8350 H   0  0  0  0  0  0  0  0  0  0  0  0
   56.0015   25.0391   43.7750 H   0  0  0  0  0  0  0  0  0  0  0  0
   57.7839   23.1141   45.2743 H   0  0  0  0  0  0  0  0  0  0  0  0
   58.5424   24.4764   44.3654 H   0  0  0  0  0  0  0  0  0  0  0  0
   56.5340   24.7270   46.6020 H   0  0  0  0  0  0  0  0  0  0  0  0
   59.8631   25.4670   46.7008 H   0  0  0  0  0  0  0  0  0  0  0  0
   60.9346   27.6735   47.1086 H   0  0  0  0  0  0  0  0  0  0  0  0
   61.4971   29.2890   47.9533 H   0  0  0  0  0  0  0  0  0  0  0  0
   64.0410   32.2670   46.8680 H   0  0  0  0  0  0  0  0  0  0  0  0
   64.9630   32.1020   48.3990 H   0  0  0  0  0  0  0  0  0  0  0  0
   56.3041   31.6825   45.8853 H   0  0  0  0  0  0  0  0  0  0  0  0
   56.6481   30.1522   41.8527 H   0  0  0  0  0  0  0  0  0  0  0  0
   58.8522   33.6878   43.0091 H   0  0  0  0  0  0  0  0  0  0  0  0
   58.2054   31.2824   45.9554 H   0  0  0  0  0  0  0  0  0  0  0  0
   57.2131   29.6629   46.1386 H   0  0  0  0  0  0  0  0  0  0  0  0
  1  2  1  0
  2  3  1  0
  3  4  2  0
  3  5  2  0
  3  6  1  0
  6  7  1  0
  7  8  1  0
  8  9  1  0
  9 10  1  0
 10 11  2  0
 11 12  1  0
 12 13  2  0
 13 14  1  0
 14 15  2  0
 15 16  1  0
 16 17  1  0
 17 18  1  0
 17 19  2  0
 16 20  2  0
 20 21  1  0
 21 22  1  0
 22 23  2  0
 22 24  1  0
 24 25  1  0
 25 26  2  0
 26 27  1  0
 27 28  1  0
 27 29  2  0
 29 30  1  0
 30 31  1  0
 30 32  2  0
 21 33  2  0
 13 34  1  0
 34 35  2  0
 35 36  1  0
 35 10  1  0
 33 14  1  0
 32 25  1  0
  1 37  1  0
  1 38  1  0
  1 39  1  0
  7 40  1  0
  7 41  1  0
  8 42  1  0
  8 43  1  0
  9 44  1  0
 11 45  1  0
 12 46  1  0
 15 47  1  0
 18 48  1  0
 18 49  1  0
 26 50  1  0
 29 51  1  0
 32 52  1  0
 33 53  1  0
 34 54  1  0
M  CHG  3   2  -1   6  -1  24  -1
M  END
>  <UniqueID>  (60) 
56

>  <SMILES>  (60) 
C[N-]S(=O)(=O)[N-]CCNc1ccc(-c2cc(C(N)=O)nc(C(=O)[N-]c3cc(F)cc(F)c3)c2)cc1F

>  <Energy>  (60) 
58.14885103205838

>  <Genealogy>  (60) 
C[N-]S(=O)(=O)[N-]CCNc1ccc(-c2cc(C(N)=O)nc(C(=O)[N-]c3cc(F)cc(F)c3)c2)cc1F (protonated)
C[N-]S(=O)(=O)[N-]CCNc1ccc(-c2cc(C(N)=O)nc(C(=O)[N-]c3cc(F)cc(F)c3)c2)cc1F (3D coordinates assigned)
C[N-]S(=O)(=O)[N-]CCNc1ccc(-c2cc(C(N)=O)nc(C(=O)[N-]c3cc(F)cc(F)c3)c2)cc1F (optimized conformer: 58.14885103205838 kcal/mol)

>  <smiles>  (60) 
CNS(=O)(=O)NCCNc1ccc(-c2cc(C(N)=O)nc(C(=O)Nc3cc(F)cc(F)c3)c2)cc1F

>  <score_type>  (60) 
oracle

>  <origin>  (60) 
adg

>  <m_score__min__energy>  (60) 
-12.609999999999999

>  <m_primary>  (60) 
energy

$$$$
60:0
     RDKit          3D

 58 62  0  0  0  0  0  0  0  0999 V2000
   57.2900   23.0770   44.0710 C   0  0  0  0  0  0  0  0  0  0  0  0
   55.9650   23.4100   44.6750 C   0  0  0  0  0  0  0  0  0  0  0  0
   54.7890   23.0210   44.1510 N   0  0  0  0  0  0  0  0  0  0  0  0
   53.8860   23.4880   45.0380 C   0  0  0  0  0  0  0  0  0  0  0  0
   52.6460   23.3220   44.8940 O   0  0  0  0  0  0  0  0  0  0  0  0
   54.4160   24.1400   46.0930 N   0  0  0  0  0  0  0  0  0  0  0  0
   55.7390   24.0920   45.8560 C   0  0  0  0  0  0  0  0  0  0  0  0
   56.7690   24.6350   46.8010 C   0  0  0  0  0  0  0  0  0  0  0  0
   57.3230   25.9330   46.2790 C   0  0  0  0  0  0  0  0  0  0  0  0
   58.7020   26.0660   46.0530 C   0  0  0  0  0  0  0  0  0  0  0  0
   59.2190   27.2610   45.5490 C   0  0  0  0  0  0  0  0  0  0  0  0
   58.3670   28.3320   45.2740 C   0  0  0  0  0  0  0  0  0  0  0  0
   56.9860   28.2200   45.5110 C   0  0  0  0  0  0  0  0  0  0  0  0
   56.0870   29.3020   45.2230 N   0  0  0  0  0  0  0  0  0  0  0  0
   56.2070   30.2030   44.1150 C   0  0  0  0  0  0  0  0  0  0  0  0
   55.5210   29.9930   43.0800 O   0  0  0  0  0  0  0  0  0  0  0  0
   57.0800   31.3890   44.1770 C   0  0  0  0  0  0  0  0  0  0  0  0
   57.7060   32.0010   43.1010 C   0  0  0  0  0  0  0  0  0  0  0  0
   58.4970   33.0970   43.4710 C   0  0  0  0  0  0  0  0  0  0  0  0
   58.4990   33.3550   44.8420 C   0  0  0  0  0  0  0  0  0  0  0  0
   59.2190   34.4790   45.4810 C   0  0  0  0  0  0  0  0  0  0  0  0
   59.2290   35.5800   44.8620 O   0  0  0  0  0  0  0  0  0  0  0  0
   59.9410   34.3810   46.7440 N   0  0  0  0  0  0  0  0  0  0  0  0
   59.0860   33.9500   47.8840 C   0  0  0  0  0  0  0  0  0  0  0  0
   59.3140   32.5090   48.3610 C   0  0  0  0  0  0  0  0  0  0  0  0
   60.7470   32.2180   48.4770 N   0  0  0  0  0  0  0  0  0  0  0  0
   60.9170   30.8530   48.9940 C   0  0  0  0  0  0  0  0  0  0  0  0
   59.6270   30.0490   49.0190 C   0  0  0  0  0  0  0  0  0  0  0  0
   60.6690   29.7790   47.9480 C   0  0  0  0  0  0  0  0  0  0  0  0
   61.3590   32.3080   47.1470 C   0  0  0  0  0  0  0  0  0  0  0  0
   61.2810   33.7450   46.6230 C   0  0  0  0  0  0  0  0  0  0  0  0
   57.4790   32.2390   45.5690 S   0  0  0  0  0  0  0  0  0  0  0  0
   56.4660   27.0090   45.9870 C   0  0  0  0  0  0  0  0  0  0  0  0
   58.0219   22.8930   44.8713 H   0  0  0  0  0  0  0  0  0  0  0  0
   57.1930   22.1753   43.4485 H   0  0  0  0  0  0  0  0  0  0  0  0
   57.6308   23.9174   43.4485 H   0  0  0  0  0  0  0  0  0  0  0  0
   56.3053   24.8072   47.7835 H   0  0  0  0  0  0  0  0  0  0  0  0
   57.5887   23.9074   46.8939 H   0  0  0  0  0  0  0  0  0  0  0  0
   59.3773   25.2262   46.2736 H   0  0  0  0  0  0  0  0  0  0  0  0
   60.2997   27.3587   45.3683 H   0  0  0  0  0  0  0  0  0  0  0  0
   58.7785   29.2686   44.8697 H   0  0  0  0  0  0  0  0  0  0  0  0
   57.5928   31.6601   42.0613 H   0  0  0  0  0  0  0  0  0  0  0  0
   59.0647   33.6991   42.7463 H   0  0  0  0  0  0  0  0  0  0  0  0
   60.1710   35.3800   46.9720 H   0  0  0  0  0  0  0  0  0  0  0  0
   59.2820   34.6242   48.7308 H   0  0  0  0  0  0  0  0  0  0  0  0
   58.0483   33.9919   47.5214 H   0  0  0  0  0  0  0  0  0  0  0  0
   58.8384   32.3752   49.3438 H   0  0  0  0  0  0  0  0  0  0  0  0
   58.8735   31.8206   47.6248 H   0  0  0  0  0  0  0  0  0  0  0  0
   61.7153   31.0702   49.7189 H   0  0  0  0  0  0  0  0  0  0  0  0
   59.4541   29.3113   49.8165 H   0  0  0  0  0  0  0  0  0  0  0  0
   58.5555   30.2976   49.0165 H   0  0  0  0  0  0  0  0  0  0  0  0
   61.2507   28.8456   47.9697 H   0  0  0  0  0  0  0  0  0  0  0  0
   60.6645   29.7509   46.8484 H   0  0  0  0  0  0  0  0  0  0  0  0
   62.4136   32.0017   47.2112 H   0  0  0  0  0  0  0  0  0  0  0  0
   60.8158   31.6453   46.4572 H   0  0  0  0  0  0  0  0  0  0  0  0
   62.0016   34.3548   47.1877 H   0  0  0  0  0  0  0  0  0  0  0  0
   61.5043   33.6950   45.5471 H   0  0  0  0  0  0  0  0  0  0  0  0
   55.3813   26.8994   46.1331 H   0  0  0  0  0  0  0  0  0  0  0  0
  1  2  1  0
  2  3  1  0
  3  4  1  0
  4  5  2  0
  4  6  1  0
  6  7  1  0
  7  8  1  0
  8  9  1  0
  9 10  2  0
 10 11  1  0
 11 12  2  0
 12 13  1  0
 13 14  1  0
 14 15  1  0
 15 16  2  0
 15 17  1  0
 17 18  2  0
 18 19  1  0
 19 20  2  0
 20 21  1  0
 21 22  2  0
 21 23  1  0
 23 24  1  0
 24 25  1  0
 25 26  1  0
 26 27  1  0
 27 28  1  0
 28 29  1  0
 26 30  1  0
 30 31  1  0
 20 32  1  0
 13 33  2  0
  7  2  2  0
 33  9  1  0
 32 17  1  0
 31 23  1  0
 29 27  1  0
  1 34  1  0
  1 35  1  0
  1 36  1  0
  8 37  1  0
  8 38  1  0
 10 39  1  0
 11 40  1  0
 12 41  1  0
 18 42  1  0
 19 43  1  0
 23 44  1  0
 24 45  1  0
 24 46  1  0
 25 47  1  0
 25 48  1  0
 27 49  1  0
 28 50  1  0
 28 51  1  0
 29 52  1  0
 29 53  1  0
 30 54  1  0
 30 55  1  0
 31 56  1  0
 31 57  1  0
 33 58  1  0
M  CHG  4   3  -1   6  -1  14  -1  23   1
M  END
>  <UniqueID>  (61) 
57

>  <SMILES>  (61) 
Cc1[n-]c(=O)[n-]c1Cc1cccc([N-]C(=O)c2ccc(C(=O)[NH+]3CCN(C4CC4)CC3)s2)c1

>  <Energy>  (61) 
395.75481104954235

>  <Genealogy>  (61) 
Cc1[n-]c(=O)[n-]c1Cc1cccc([N-]C(=O)c2ccc(C(=O)[NH+]3CCN(C4CC4)CC3)s2)c1 (protonated)
Cc1[n-]c(=O)[n-]c1Cc1cccc([N-]C(=O)c2ccc(C(=O)[NH+]3CCN(C4CC4)CC3)s2)c1 (3D coordinates assigned)
Cc1[n-]c(=O)[n-]c1Cc1cccc([N-]C(=O)c2ccc(C(=O)[NH+]3CCN(C4CC4)CC3)s2)c1 (nonaromatic ring conformer: 395.75481104954235 kcal/mol)

>  <smiles>  (61) 
Cc1[nH]c(=O)[nH]c1Cc1cccc(NC(=O)c2ccc(C(=O)N3CCN(C4CC4)CC3)s2)c1

>  <score_type>  (61) 
oracle

>  <origin>  (61) 
adg

>  <m_score__min__energy>  (61) 
-13.77

>  <m_primary>  (61) 
energy

$$$$
61:0
     RDKit          3D

 45 47  0  0  0  0  0  0  0  0999 V2000
   59.0356   29.4515   44.0472 H   0  0  0  0  0  0  0  0  0  0  0  0
   58.1340   29.4740   44.6770 C   0  0  0  0  0  0  0  0  0  0  0  0
   57.0520   30.4220   44.3400 C   0  0  0  0  0  0  0  0  0  0  0  0
   56.3410   30.1890   43.3280 O   0  0  0  0  0  0  0  0  0  0  0  0
   56.7710   31.5880   45.1290 N   0  0  0  0  0  0  0  0  0  0  0  0
   57.6920   32.6440   45.4460 C   0  0  0  0  0  0  0  0  0  0  0  0
   57.8030   33.7330   44.5730 C   0  0  0  0  0  0  0  0  0  0  0  0
   57.2076   33.7563   43.6483 H   0  0  0  0  0  0  0  0  0  0  0  0
   58.6670   34.7910   44.8710 C   0  0  0  0  0  0  0  0  0  0  0  0
   58.7466   35.6448   44.1820 H   0  0  0  0  0  0  0  0  0  0  0  0
   59.4300   34.7670   46.0420 C   0  0  0  0  0  0  0  0  0  0  0  0
   60.0944   35.6098   46.2832 H   0  0  0  0  0  0  0  0  0  0  0  0
   59.3480   33.6680   46.9090 C   0  0  0  0  0  0  0  0  0  0  0  0
   60.2450   33.6350   48.4220 S   0  0  0  0  0  0  0  0  0  0  0  0
   60.1780   32.2610   49.0320 O   0  0  0  0  0  0  0  0  0  0  0  0
   59.6180   34.6180   49.3720 O   0  0  0  0  0  0  0  0  0  0  0  0
   61.9060   34.0800   48.0860 N   0  0  0  0  0  0  0  0  0  0  0  0
   62.4030   33.4480   46.8450 C   0  0  0  0  0  0  0  0  0  0  0  0
   61.5399   33.1609   46.2265 H   0  0  0  0  0  0  0  0  0  0  0  0
   63.0449   34.1805   46.3337 H   0  0  0  0  0  0  0  0  0  0  0  0
   63.2530   32.1950   47.1150 C   0  0  0  0  0  0  0  0  0  0  0  0
   63.1789   31.5139   46.2544 H   0  0  0  0  0  0  0  0  0  0  0  0
   64.2994   32.4983   47.2665 H   0  0  0  0  0  0  0  0  0  0  0  0
   62.7950   31.5330   48.2730 O   0  0  0  0  0  0  0  0  0  0  0  0
   63.0730   32.3100   49.4250 C   0  0  0  0  0  0  0  0  0  0  0  0
   62.4517   31.9387   50.2533 H   0  0  0  0  0  0  0  0  0  0  0  0
   64.1487   32.2083   49.6313 H   0  0  0  0  0  0  0  0  0  0  0  0
   62.7870   33.8200   49.2370 C   0  0  0  0  0  0  0  0  0  0  0  0
   62.3038   34.2051   50.1471 H   0  0  0  0  0  0  0  0  0  0  0  0
   63.7462   34.3246   49.0490 H   0  0  0  0  0  0  0  0  0  0  0  0
   58.4990   32.6010   46.5960 C   0  0  0  0  0  0  0  0  0  0  0  0
   58.4627   31.7212   47.2553 H   0  0  0  0  0  0  0  0  0  0  0  0
   58.0550   28.6410   45.7230 C   0  0  0  0  0  0  0  0  0  0  0  0
   57.2574   27.8835   45.7280 H   0  0  0  0  0  0  0  0  0  0  0  0
   58.9860   28.6880   46.8720 C   0  0  0  0  0  0  0  0  0  0  0  0
   59.1280   27.6140   47.7690 C   0  0  0  0  0  0  0  0  0  0  0  0
   58.5032   26.7159   47.6550 H   0  0  0  0  0  0  0  0  0  0  0  0
   60.0620   27.6880   48.8040 C   0  0  0  0  0  0  0  0  0  0  0  0
   60.1738   26.8531   49.5114 H   0  0  0  0  0  0  0  0  0  0  0  0
   60.8520   28.8300   48.9330 C   0  0  0  0  0  0  0  0  0  0  0  0
   61.5877   28.8984   49.7479 H   0  0  0  0  0  0  0  0  0  0  0  0
   60.7160   29.8590   48.0550 N   0  0  0  0  0  0  0  0  0  0  0  0
   61.3200   30.7030   48.1610 H   0  0  0  0  0  0  0  0  0  0  0  0
   59.8140   29.8090   47.0360 C   0  0  0  0  0  0  0  0  0  0  0  0
   59.7338   30.6538   46.3361 H   0  0  0  0  0  0  0  0  0  0  0  0
  1  2  1  0
  2  3  1  0
  3  4  2  0
  3  5  1  0
  5  6  1  0
  6  7  2  0
  7  8  1  0
  7  9  1  0
  9 10  1  0
  9 11  2  0
 11 12  1  0
 11 13  1  0
 13 14  1  0
 14 15  2  0
 14 16  2  0
 14 17  1  0
 17 18  1  0
 18 19  1  0
 18 20  1  0
 18 21  1  0
 21 22  1  0
 21 23  1  0
 21 24  1  0
 24 25  1  0
 25 26  1  0
 25 27  1  0
 25 28  1  0
 28 29  1  0
 28 30  1  0
 13 31  2  0
 31 32  1  0
  2 33  2  0
 33 34  1  0
 33 35  1  0
 35 36  2  0
 36 37  1  0
 36 38  1  0
 38 39  1  0
 38 40  2  0
 40 41  1  0
 40 42  1  0
 42 43  1  0
 42 44  2  0
 44 45  1  0
 31  6  1  0
 44 35  1  0
 28 17  1  0
M  CHG  2   5  -1  42   1
M  END
>  <UniqueID>  (62) 
58

>  <SMILES>  (62) 
O=C(/C=C/c1ccc[nH+]c1)[N-]c1cccc(S(=O)(=O)N2CCOCC2)c1

>  <Energy>  (62) 
61.17089624358994

>  <Genealogy>  (62) 
O=C(C=Cc1ccc[nH+]c1)[N-]c1cccc(S(=O)(=O)N2CCOCC2)c1 (protonated)
O=C(/C=C/c1ccc[nH+]c1)[N-]c1cccc(S(=O)(=O)N2CCOCC2)c1 (cis-trans isomerization)
O=C(/C=C/c1ccc[nH+]c1)[N-]c1cccc(S(=O)(=O)N2CCOCC2)c1 (3D coordinates assigned)
O=C(/C=C/c1ccc[nH+]c1)[N-]c1cccc(S(=O)(=O)N2CCOCC2)c1 (nonaromatic ring conformer: 61.17089624358994 kcal/mol)

>  <smiles>  (62) 
O=C(C=Cc1cccnc1)Nc1cccc(S(=O)(=O)N2CCOCC2)c1

>  <score_type>  (62) 
oracle

>  <origin>  (62) 
adg

>  <m_score__min__energy>  (62) 
-10.369999999999999

>  <m_primary>  (62) 
energy

$$$$
62:0
     RDKit          3D

 56 59  0  0  0  0  0  0  0  0999 V2000
   56.8340   29.0110   43.1920 O   0  0  0  0  0  0  0  0  0  0  0  0
   57.0240   29.5400   44.3220 C   0  0  0  0  0  0  0  0  0  0  0  0
   56.7870   28.7860   45.5190 N   0  0  0  0  0  0  0  0  0  0  0  0
   57.7820   28.2260   46.3880 C   0  0  0  0  0  0  0  0  0  0  0  0
   58.0990   26.8570   46.3740 C   0  0  0  0  0  0  0  0  0  0  0  0
   59.0540   26.3490   47.2560 C   0  0  0  0  0  0  0  0  0  0  0  0
   59.6830   27.1940   48.1720 C   0  0  0  0  0  0  0  0  0  0  0  0
   59.3540   28.5560   48.2270 C   0  0  0  0  0  0  0  0  0  0  0  0
   59.9870   29.3920   49.2120 N   0  0  0  0  0  0  0  0  0  0  0  0
   59.1200   30.4380   50.2930 S   0  0  0  0  0  0  0  0  0  0  0  0
   57.9510   29.7030   50.8870 O   0  0  0  0  0  0  0  0  0  0  0  0
   58.6030   31.6150   49.5160 O   0  0  0  0  0  0  0  0  0  0  0  0
   60.1940   31.0380   51.5920 C   0  0  0  0  0  0  0  0  0  0  0  0
   61.1960   32.0130   51.0420 C   0  0  0  0  0  0  0  0  0  0  0  0
   60.7860   33.2800   50.5900 C   0  0  0  0  0  0  0  0  0  0  0  0
   61.7280   34.2000   50.1200 C   0  0  0  0  0  0  0  0  0  0  0  0
   63.0840   33.8630   50.0930 C   0  0  0  0  0  0  0  0  0  0  0  0
   63.5000   32.6060   50.5390 C   0  0  0  0  0  0  0  0  0  0  0  0
   62.5620   31.6840   51.0120 C   0  0  0  0  0  0  0  0  0  0  0  0
   58.4020   29.0660   47.3230 C   0  0  0  0  0  0  0  0  0  0  0  0
   57.5460   30.9240   44.4110 C   0  0  0  0  0  0  0  0  0  0  0  0
   57.5460   31.7620   43.2880 C   0  0  0  0  0  0  0  0  0  0  0  0
   58.0540   33.0550   43.3800 C   0  0  0  0  0  0  0  0  0  0  0  0
   58.5570   33.5160   44.5990 C   0  0  0  0  0  0  0  0  0  0  0  0
   59.0230   34.6860   44.6610 O   0  0  0  0  0  0  0  0  0  0  0  0
   58.5450   32.7040   45.7050 N   0  0  0  0  0  0  0  0  0  0  0  0
   59.0960   33.1660   46.9910 C   0  0  0  0  0  0  0  0  0  0  0  0
   60.5880   32.9650   47.0200 C   0  0  0  0  0  0  0  0  0  0  0  0
   61.4510   34.0280   46.7040 C   0  0  0  0  0  0  0  0  0  0  0  0
   62.8370   33.8520   46.7650 C   0  0  0  0  0  0  0  0  0  0  0  0
   63.3700   32.6180   47.1480 C   0  0  0  0  0  0  0  0  0  0  0  0
   62.5180   31.5590   47.4750 C   0  0  0  0  0  0  0  0  0  0  0  0
   61.1310   31.7320   47.4150 C   0  0  0  0  0  0  0  0  0  0  0  0
   58.0570   31.4270   45.6200 C   0  0  0  0  0  0  0  0  0  0  0  0
   57.5931   26.1840   45.6661 H   0  0  0  0  0  0  0  0  0  0  0  0
   59.3117   25.2799   47.2293 H   0  0  0  0  0  0  0  0  0  0  0  0
   60.4428   26.7882   48.8561 H   0  0  0  0  0  0  0  0  0  0  0  0
   61.0050   29.2580   49.4040 H   0  0  0  0  0  0  0  0  0  0  0  0
   59.5868   31.5386   52.3606 H   0  0  0  0  0  0  0  0  0  0  0  0
   60.7329   30.1844   52.0289 H   0  0  0  0  0  0  0  0  0  0  0  0
   59.7194   33.5484   50.6063 H   0  0  0  0  0  0  0  0  0  0  0  0
   61.4013   35.1907   49.7709 H   0  0  0  0  0  0  0  0  0  0  0  0
   63.8236   34.5872   49.7207 H   0  0  0  0  0  0  0  0  0  0  0  0
   64.5675   32.3415   50.5179 H   0  0  0  0  0  0  0  0  0  0  0  0
   62.8947   30.6959   51.3626 H   0  0  0  0  0  0  0  0  0  0  0  0
   58.1424   30.1346   47.3511 H   0  0  0  0  0  0  0  0  0  0  0  0
   57.1436   31.3974   42.3314 H   0  0  0  0  0  0  0  0  0  0  0  0
   58.0593   33.7106   42.4968 H   0  0  0  0  0  0  0  0  0  0  0  0
   58.8709   34.2350   47.1197 H   0  0  0  0  0  0  0  0  0  0  0  0
   58.6398   32.5852   47.8062 H   0  0  0  0  0  0  0  0  0  0  0  0
   61.0348   35.0021   46.4076 H   0  0  0  0  0  0  0  0  0  0  0  0
   63.5084   34.6856   46.5113 H   0  0  0  0  0  0  0  0  0  0  0  0
   64.4604   32.4800   47.1921 H   0  0  0  0  0  0  0  0  0  0  0  0
   62.9384   30.5892   47.7796 H   0  0  0  0  0  0  0  0  0  0  0  0
   60.4632   30.8986   47.6784 H   0  0  0  0  0  0  0  0  0  0  0  0
   58.0651   30.7844   46.5127 H   0  0  0  0  0  0  0  0  0  0  0  0
  1  2  2  0
  2  3  1  0
  3  4  1  0
  4  5  2  0
  5  6  1  0
  6  7  2  0
  7  8  1  0
  8  9  1  0
  9 10  1  0
 10 11  2  0
 10 12  2  0
 10 13  1  0
 13 14  1  0
 14 15  2  0
 15 16  1  0
 16 17  2  0
 17 18  1  0
 18 19  2  0
  8 20  2  0
  2 21  1  0
 21 22  1  0
 22 23  2  0
 23 24  1  0
 24 25  2  0
 24 26  1  0
 26 27  1  0
 27 28  1  0
 28 29  2  0
 29 30  1  0
 30 31  2  0
 31 32  1  0
 32 33  2  0
 26 34  1  0
 20  4  1  0
 34 21  2  0
 19 14  1  0
 33 28  1  0
  5 35  1  0
  6 36  1  0
  7 37  1  0
  9 38  1  0
 13 39  1  0
 13 40  1  0
 15 41  1  0
 16 42  1  0
 17 43  1  0
 18 44  1  0
 19 45  1  0
 20 46  1  0
 22 47  1  0
 23 48  1  0
 27 49  1  0
 27 50  1  0
 29 51  1  0
 30 52  1  0
 31 53  1  0
 32 54  1  0
 33 55  1  0
 34 56  1  0
M  CHG  1   3  -1
M  END
>  <UniqueID>  (63) 
59

>  <SMILES>  (63) 
O=C([N-]c1cccc(NS(=O)(=O)Cc2ccccc2)c1)c1ccc(=O)n(Cc2ccccc2)c1

>  <Energy>  (63) 
63.00041587049415

>  <Genealogy>  (63) 
O=C([N-]c1cccc(NS(=O)(=O)Cc2ccccc2)c1)c1ccc(=O)n(Cc2ccccc2)c1 (protonated)
O=C([N-]c1cccc(NS(=O)(=O)Cc2ccccc2)c1)c1ccc(=O)n(Cc2ccccc2)c1 (3D coordinates assigned)
O=C([N-]c1cccc(NS(=O)(=O)Cc2ccccc2)c1)c1ccc(=O)n(Cc2ccccc2)c1 (optimized conformer: 63.00041587049415 kcal/mol)

>  <smiles>  (63) 
O=C(Nc1cccc(NS(=O)(=O)Cc2ccccc2)c1)c1ccc(=O)n(Cc2ccccc2)c1

>  <score_type>  (63) 
oracle

>  <origin>  (63) 
adg

>  <m_score__min__energy>  (63) 
-11.65

>  <m_primary>  (63) 
energy

$$$$
63:0
     RDKit          3D

 57 60  0  0  0  0  0  0  0  0999 V2000
   56.3530   30.5780   54.7780 C   0  0  0  0  0  0  0  0  0  0  0  0
   55.5310   30.5720   53.7260 C   0  0  0  0  0  0  0  0  0  0  0  0
   54.2010   30.3830   53.8380 N   0  0  0  0  0  0  0  0  0  0  0  0
   53.6780   30.5230   52.5990 C   0  0  0  0  0  0  0  0  0  0  0  0
   52.3810   30.4010   52.2630 C   0  0  0  0  0  0  0  0  0  0  0  0
   51.7760   30.8040   50.9760 C   0  0  0  0  0  0  0  0  0  0  0  0
   51.6850   30.0420   49.8700 N   0  0  0  0  0  0  0  0  0  0  0  0
   51.0200   30.8270   48.9970 C   0  0  0  0  0  0  0  0  0  0  0  0
   50.7450   30.4570   47.8250 O   0  0  0  0  0  0  0  0  0  0  0  0
   50.6700   32.0380   49.4780 N   0  0  0  0  0  0  0  0  0  0  0  0
   51.1510   32.0050   50.7320 C   0  0  0  0  0  0  0  0  0  0  0  0
   51.0140   33.0480   51.6380 O   0  0  0  0  0  0  0  0  0  0  0  0
   54.6840   30.7940   51.6870 C   0  0  0  0  0  0  0  0  0  0  0  0
   55.8700   30.8150   52.3970 C   0  0  0  0  0  0  0  0  0  0  0  0
   57.1980   31.0420   51.7890 C   0  0  0  0  0  0  0  0  0  0  0  0
   57.4270   32.1670   51.2670 O   0  0  0  0  0  0  0  0  0  0  0  0
   58.1630   29.9660   51.6510 N   0  0  2  0  0  0  0  0  0  0  0  0
   59.2300   30.0660   52.6770 C   0  0  0  0  0  0  0  0  0  0  0  0
   60.2560   31.1860   52.4010 C   0  0  0  0  0  0  0  0  0  0  0  0
   60.5500   31.3940   50.9070 C   0  0  0  0  0  0  0  0  0  0  0  0
   60.1690   30.1570   50.0850 C   0  0  2  0  0  0  0  0  0  0  0  0
   60.5110   30.3230   48.6160 C   0  0  0  0  0  0  0  0  0  0  0  0
   61.2840   29.4910   48.0660 O   0  0  0  0  0  0  0  0  0  0  0  0
   60.0590   31.4710   47.8640 N   0  0  0  0  0  0  0  0  0  0  0  0
   58.8440   32.2030   48.2470 C   0  0  0  0  0  0  0  0  0  0  0  0
   58.3430   33.0810   47.0900 C   0  0  0  0  0  0  0  0  0  0  0  0
   59.3900   33.9770   46.5410 N   0  0  0  0  0  0  0  0  0  0  0  0
   59.3270   35.3140   47.1540 C   0  0  0  0  0  0  0  0  0  0  0  0
   60.7700   33.4350   46.5990 C   0  0  0  0  0  0  0  0  0  0  0  0
   60.8020   31.9070   46.6770 C   0  0  0  0  0  0  0  0  0  0  0  0
   58.6610   29.8630   50.2460 C   0  0  0  0  0  0  0  0  0  0  0  0
   57.4317   30.7367   54.6322 H   0  0  0  0  0  0  0  0  0  0  0  0
   55.9516   30.4242   55.7905 H   0  0  0  0  0  0  0  0  0  0  0  0
   53.7020   30.1700   54.7290 H   0  0  0  0  0  0  0  0  0  0  0  0
   51.7093   29.9611   53.0149 H   0  0  0  0  0  0  0  0  0  0  0  0
   54.5629   30.9604   50.6064 H   0  0  0  0  0  0  0  0  0  0  0  0
   57.6640   29.0680   51.8450 H   0  0  0  0  0  0  0  0  0  0  0  0
   58.7575   30.2607   53.6511 H   0  0  0  0  0  0  0  0  0  0  0  0
   59.7816   29.1145   52.6597 H   0  0  0  0  0  0  0  0  0  0  0  0
   59.8630   32.1273   52.8128 H   0  0  0  0  0  0  0  0  0  0  0  0
   61.2004   30.8840   52.8774 H   0  0  0  0  0  0  0  0  0  0  0  0
   59.9713   32.2566   50.5450 H   0  0  0  0  0  0  0  0  0  0  0  0
   61.6292   31.5705   50.7875 H   0  0  0  0  0  0  0  0  0  0  0  0
   60.7558   29.3090   50.4679 H   0  0  0  0  0  0  0  0  0  0  0  0
   58.0591   31.4811   48.5169 H   0  0  0  0  0  0  0  0  0  0  0  0
   59.0809   32.8523   49.1028 H   0  0  0  0  0  0  0  0  0  0  0  0
   57.9856   32.4250   46.2826 H   0  0  0  0  0  0  0  0  0  0  0  0
   57.5413   33.7203   47.4881 H   0  0  0  0  0  0  0  0  0  0  0  0
   59.3316   35.2156   48.2496 H   0  0  0  0  0  0  0  0  0  0  0  0
   60.1983   35.9050   46.8352 H   0  0  0  0  0  0  0  0  0  0  0  0
   58.4040   35.8204   46.8352 H   0  0  0  0  0  0  0  0  0  0  0  0
   61.3110   33.7526   45.6954 H   0  0  0  0  0  0  0  0  0  0  0  0
   61.2414   33.8241   47.5135 H   0  0  0  0  0  0  0  0  0  0  0  0
   60.3371   31.4824   45.7750 H   0  0  0  0  0  0  0  0  0  0  0  0
   61.8441   31.5613   46.7446 H   0  0  0  0  0  0  0  0  0  0  0  0
   58.1018   30.5812   49.6284 H   0  0  0  0  0  0  0  0  0  0  0  0
   58.5072   28.8200   49.9320 H   0  0  0  0  0  0  0  0  0  0  0  0
  1  2  2  0
  2  3  1  0
  3  4  1  0
  4  5  2  3
  5  6  1  0
  6  7  1  0
  7  8  1  0
  8  9  2  0
  8 10  1  0
 10 11  1  0
 11 12  1  0
  4 13  1  0
 13 14  2  0
 14 15  1  0
 15 16  2  0
 15 17  1  0
 17 18  1  0
 18 19  1  0
 19 20  1  0
 20 21  1  0
 21 22  1  0
 22 23  2  0
 22 24  1  0
 24 25  1  0
 25 26  1  0
 26 27  1  0
 27 28  1  0
 27 29  1  0
 29 30  1  0
 21 31  1  0
 14  2  1  0
 31 17  1  0
 11  6  2  0
 30 24  1  0
  1 32  1  0
  1 33  1  0
  3 34  1  0
  5 35  1  0
 13 36  1  0
 17 37  1  1
 18 38  1  0
 18 39  1  0
 19 40  1  0
 19 41  1  0
 20 42  1  0
 20 43  1  0
 21 44  1  1
 25 45  1  0
 25 46  1  0
 26 47  1  0
 26 48  1  0
 28 49  1  0
 28 50  1  0
 28 51  1  0
 29 52  1  0
 29 53  1  0
 30 54  1  0
 30 55  1  0
 31 56  1  0
 31 57  1  0
M  CHG  4   7  -1  10  -1  12  -1  17   1
M  END
>  <UniqueID>  (64) 
60

>  <SMILES>  (64) 
C=c1[nH]c(=Cc2[n-]c(=O)[n-]c2[O-])cc1C(=O)[N@@H+]1CCC[C@H](C(=O)N2CCN(C)CC2)C1

>  <Energy>  (64) 
142.15569152309286

>  <Genealogy>  (64) 
C=c1[nH]c(=Cc2[n-]c(=O)[n-]c2[O-])cc1C(=O)[NH+]1CCCC(C(=O)N2CCN(C)CC2)C1 (protonated)
C=c1[nH]c(=Cc2[n-]c(=O)[n-]c2[O-])cc1C(=O)[N@@H+]1CCC[C@H](C(=O)N2CCN(C)CC2)C1 (chirality)
C=c1[nH]c(=Cc2[n-]c(=O)[n-]c2[O-])cc1C(=O)[N@@H+]1CCC[C@H](C(=O)N2CCN(C)CC2)C1 (3D coordinates assigned)
C=c1[nH]c(=Cc2[n-]c(=O)[n-]c2[O-])cc1C(=O)[N@@H+]1CCC[C@H](C(=O)N2CCN(C)CC2)C1 (nonaromatic ring conformer: 142.15569152309286 kcal/mol)

>  <smiles>  (64) 
C=c1[nH]c(=Cc2[nH]c(=O)[nH]c2O)cc1C(=O)N1CCCC(C(=O)N2CCN(C)CC2)C1

>  <score_type>  (64) 
oracle

>  <origin>  (64) 
adg

>  <m_score__min__energy>  (64) 
-17.260000000000002

>  <m_primary>  (64) 
energy

$$$$
64:0
     RDKit          3D

 35 36  0  0  0  0  0  0  0  0999 V2000
   59.9290   31.4830   49.6420 H   0  0  0  0  0  0  0  0  0  0  0  0
   59.7040   30.5060   49.5050 O   0  0  0  0  0  0  0  0  0  0  0  0
   60.2090   29.8290   48.4170 N   0  0  0  0  0  0  0  0  0  0  0  0
   60.8130   30.4170   47.4260 C   0  0  0  0  0  0  0  0  0  0  0  0
   61.6590   31.6250   47.6160 C   0  0  0  0  0  0  0  0  0  0  0  0
   62.8150   31.6930   47.1180 O   0  0  0  0  0  0  0  0  0  0  0  0
   61.1460   32.7290   48.3640 N   0  0  0  0  0  0  0  0  0  0  0  0
   60.9260   34.0530   47.8010 C   0  0  0  0  0  0  0  0  0  0  0  0
   60.8210   34.7871   48.6134 H   0  0  0  0  0  0  0  0  0  0  0  0
   61.7805   34.3364   47.1689 H   0  0  0  0  0  0  0  0  0  0  0  0
   59.6710   34.0280   46.9790 C   0  0  0  0  0  0  0  0  0  0  0  0
   59.6760   34.5530   45.6750 C   0  0  0  0  0  0  0  0  0  0  0  0
   60.5874   35.0228   45.2767 H   0  0  0  0  0  0  0  0  0  0  0  0
   58.5270   34.4800   44.8830 C   0  0  0  0  0  0  0  0  0  0  0  0
   58.5339   34.8977   43.8654 H   0  0  0  0  0  0  0  0  0  0  0  0
   57.3690   33.8770   45.3820 C   0  0  0  0  0  0  0  0  0  0  0  0
   56.4642   33.8236   44.7587 H   0  0  0  0  0  0  0  0  0  0  0  0
   57.3610   33.3420   46.6730 C   0  0  0  0  0  0  0  0  0  0  0  0
   56.4499   32.8656   47.0640 H   0  0  0  0  0  0  0  0  0  0  0  0
   58.5090   33.4110   47.4690 C   0  0  0  0  0  0  0  0  0  0  0  0
   58.5014   32.9808   48.4814 H   0  0  0  0  0  0  0  0  0  0  0  0
   60.6650   29.8210   46.0510 C   0  0  0  0  0  0  0  0  0  0  0  0
   61.0939   30.5129   45.3112 H   0  0  0  0  0  0  0  0  0  0  0  0
   61.1932   28.8564   46.0290 H   0  0  0  0  0  0  0  0  0  0  0  0
   59.2140   29.5810   45.7180 C   0  0  0  0  0  0  0  0  0  0  0  0
   58.5910   28.3700   46.0640 C   0  0  0  0  0  0  0  0  0  0  0  0
   59.1715   27.5788   46.5610 H   0  0  0  0  0  0  0  0  0  0  0  0
   57.2370   28.1650   45.7800 C   0  0  0  0  0  0  0  0  0  0  0  0
   56.7542   27.2167   46.0587 H   0  0  0  0  0  0  0  0  0  0  0  0
   56.4970   29.1650   45.1420 C   0  0  0  0  0  0  0  0  0  0  0  0
   55.1510   28.9610   44.8610 O   0  0  0  0  0  0  0  0  0  0  0  0
   57.1110   30.3700   44.7860 C   0  0  0  0  0  0  0  0  0  0  0  0
   56.5289   31.1547   44.2805 H   0  0  0  0  0  0  0  0  0  0  0  0
   58.4650   30.5790   45.0720 C   0  0  0  0  0  0  0  0  0  0  0  0
   58.9445   31.5280   44.7900 H   0  0  0  0  0  0  0  0  0  0  0  0
  1  2  1  0
  2  3  1  0
  3  4  2  0
  4  5  1  0
  5  6  2  0
  5  7  1  0
  7  8  1  0
  8  9  1  0
  8 10  1  0
  8 11  1  0
 11 12  2  0
 12 13  1  0
 12 14  1  0
 14 15  1  0
 14 16  2  0
 16 17  1  0
 16 18  1  0
 18 19  1  0
 18 20  2  0
 20 21  1  0
  4 22  1  0
 22 23  1  0
 22 24  1  0
 22 25  1  0
 25 26  2  0
 26 27  1  0
 26 28  1  0
 28 29  1  0
 28 30  2  0
 30 31  1  0
 30 32  1  0
 32 33  1  0
 32 34  2  0
 34 35  1  0
 20 11  1  0
 34 25  1  0
M  CHG  2   7  -1  31  -1
M  END
>  <UniqueID>  (65) 
61

>  <SMILES>  (65) 
O=C([N-]Cc1ccccc1)/C(Cc1ccc([O-])cc1)=N\O

>  <Energy>  (65) 
30.120653926132785

>  <Genealogy>  (65) 
O=C([N-]Cc1ccccc1)C(Cc1ccc([O-])cc1)=NO (protonated)
O=C([N-]Cc1ccccc1)/C(Cc1ccc([O-])cc1)=N\O (cis-trans isomerization)
O=C([N-]Cc1ccccc1)/C(Cc1ccc([O-])cc1)=N\O (3D coordinates assigned)
O=C([N-]Cc1ccccc1)/C(Cc1ccc([O-])cc1)=N\O (optimized conformer: 30.120653926132785 kcal/mol)

>  <smiles>  (65) 
O=C(NCc1ccccc1)C(Cc1ccc(O)cc1)=NO

>  <score_type>  (65) 
oracle

>  <origin>  (65) 
adg

>  <m_score__min__energy>  (65) 
-11.390000000000001

>  <m_primary>  (65) 
energy

$$$$
65:0
     RDKit          3D

 41 43  0  0  0  0  0  0  0  0999 V2000
   59.5020   25.9204   46.8046 H   0  0  0  0  0  0  0  0  0  0  0  0
   59.2280   26.8510   46.2860 C   0  0  0  0  0  0  0  0  0  0  0  0
   60.0123   27.5478   45.9553 H   0  0  0  0  0  0  0  0  0  0  0  0
   57.9380   27.1360   46.0570 C   0  0  0  0  0  0  0  0  0  0  0  0
   57.4290   28.2660   45.4170 C   0  0  0  0  0  0  0  0  0  0  0  0
   58.1430   29.4350   44.8570 C   0  0  0  0  0  0  0  0  0  0  0  0
   57.5820   30.1870   44.0150 O   0  0  0  0  0  0  0  0  0  0  0  0
   59.4590   29.6930   45.2580 O   0  0  0  0  0  0  0  0  0  0  0  0
   59.8200   30.7640   46.1260 C   0  0  0  0  0  0  0  0  0  0  0  0
   60.9050   30.7364   46.3052 H   0  0  0  0  0  0  0  0  0  0  0  0
   59.5412   31.7177   45.6541 H   0  0  0  0  0  0  0  0  0  0  0  0
   59.1010   30.6370   47.4300 C   0  0  0  0  0  0  0  0  0  0  0  0
   58.9530   29.5010   47.9540 O   0  0  0  0  0  0  0  0  0  0  0  0
   58.5350   31.8000   48.0430 N   0  0  0  0  0  0  0  0  0  0  0  0
   58.1860   33.0090   47.3040 C   0  0  1  0  0  0  0  0  0  0  0  0
   57.5572   33.6299   47.9590 H   0  0  0  0  0  0  0  0  0  0  0  0
   59.4600   33.7690   46.9040 C   0  0  0  0  0  0  0  0  0  0  0  0
   59.8516   34.3203   47.7716 H   0  0  0  0  0  0  0  0  0  0  0  0
   60.2287   33.0625   46.5575 H   0  0  0  0  0  0  0  0  0  0  0  0
   59.1060   34.7480   45.7880 C   0  0  0  0  0  0  0  0  0  0  0  0
   58.7788   35.7105   46.2081 H   0  0  0  0  0  0  0  0  0  0  0  0
   59.9682   34.9628   45.1395 H   0  0  0  0  0  0  0  0  0  0  0  0
   57.7850   33.9770   44.9000 S   0  0  0  0  0  0  0  0  0  0  0  0
   56.6180   34.9080   44.7300 O   0  0  0  0  0  0  0  0  0  0  0  0
   58.2450   33.4490   43.5710 O   0  0  0  0  0  0  0  0  0  0  0  0
   57.4150   32.6660   46.0260 C   0  0  0  0  0  0  0  0  0  0  0  0
   56.3343   32.6226   46.2267 H   0  0  0  0  0  0  0  0  0  0  0  0
   57.7010   31.6833   45.6230 H   0  0  0  0  0  0  0  0  0  0  0  0
   56.0570   28.0910   45.4000 C   0  0  0  0  0  0  0  0  0  0  0  0
   55.1440   28.9820   44.8530 O   0  0  0  0  0  0  0  0  0  0  0  0
   55.6870   26.9400   45.9860 N   0  0  0  0  0  0  0  0  0  0  0  0
   56.8290   26.3500   46.3980 C   0  0  0  0  0  0  0  0  0  0  0  0
   56.8540   25.1480   47.0050 C   0  0  0  0  0  0  0  0  0  0  0  0
   57.6226   24.9722   47.7720 H   0  0  0  0  0  0  0  0  0  0  0  0
   55.9120   24.0520   46.7030 C   0  0  0  0  0  0  0  0  0  0  0  0
   54.7560   24.2450   46.0430 N   0  0  0  0  0  0  0  0  0  0  0  0
   54.2420   23.0020   45.9310 C   0  0  0  0  0  0  0  0  0  0  0  0
   53.1390   22.7720   45.3710 O   0  0  0  0  0  0  0  0  0  0  0  0
   55.0070   22.0240   46.4600 N   0  0  0  0  0  0  0  0  0  0  0  0
   56.0650   22.7000   46.9370 C   0  0  0  0  0  0  0  0  0  0  0  0
   57.1630   22.0830   47.5220 O   0  0  0  0  0  0  0  0  0  0  0  0
  1  2  1  0
  2  3  1  0
  2  4  2  0
  4  5  1  0
  5  6  1  0
  6  7  2  0
  6  8  1  0
  8  9  1  0
  9 10  1  0
  9 11  1  0
  9 12  1  0
 12 13  2  0
 12 14  1  0
 14 15  1  0
 15 16  1  1
 15 17  1  0
 17 18  1  0
 17 19  1  0
 17 20  1  0
 20 21  1  0
 20 22  1  0
 20 23  1  0
 23 24  2  0
 23 25  2  0
 23 26  1  0
 26 27  1  0
 26 28  1  0
  5 29  2  0
 29 30  1  0
 29 31  1  0
 31 32  1  0
 32 33  2  0
 33 34  1  0
 33 35  1  0
 35 36  1  0
 36 37  1  0
 37 38  2  0
 37 39  1  0
 39 40  1  0
 40 41  1  0
 32  4  1  0
 40 35  2  0
 26 15  1  0
M  CHG  6  14  -1  30  -1  31  -1  36  -1  39  -1  41  -1
M  END
>  <UniqueID>  (66) 
62

>  <SMILES>  (66) 
C=c1c(C(=O)OCC(=O)[N-][C@H]2CCS(=O)(=O)C2)c([O-])[n-]/c1=C\c1[n-]c(=O)[n-]c1[O-]

>  <Energy>  (66) 
99.5905920710793

>  <Genealogy>  (66) 
C=c1c(C(=O)OCC(=O)[N-]C2CCS(=O)(=O)C2)c([O-])[n-]c1=Cc1[n-]c(=O)[n-]c1[O-] (protonated)
C=c1c(C(=O)OCC(=O)[N-][C@H]2CCS(=O)(=O)C2)c([O-])[n-]c1=Cc1[n-]c(=O)[n-]c1[O-] (chirality)
C=c1c(C(=O)OCC(=O)[N-][C@H]2CCS(=O)(=O)C2)c([O-])[n-]/c1=C\c1[n-]c(=O)[n-]c1[O-] (cis-trans isomerization)
C=c1c(C(=O)OCC(=O)[N-][C@H]2CCS(=O)(=O)C2)c([O-])[n-]/c1=C\c1[n-]c(=O)[n-]c1[O-] (3D coordinates assigned)
C=c1c(C(=O)OCC(=O)[N-][C@H]2CCS(=O)(=O)C2)c([O-])[n-]/c1=C\c1[n-]c(=O)[n-]c1[O-] (nonaromatic ring conformer: 99.5905920710793 kcal/mol)

>  <smiles>  (66) 
C=c1c(C(=O)OCC(=O)NC2CCS(=O)(=O)C2)c(O)[nH]c1=Cc1[nH]c(=O)[nH]c1O

>  <score_type>  (66) 
oracle

>  <origin>  (66) 
adg

>  <m_score__min__energy>  (66) 
-19.66

>  <m_primary>  (66) 
energy

$$$$
66:0
     RDKit          3D

 54 57  0  0  0  0  0  0  0  0999 V2000
   58.0190   33.6610   44.5400 O   0  0  0  0  0  0  0  0  0  0  0  0
   57.5720   32.8000   45.3490 C   0  0  0  0  0  0  0  0  0  0  0  0
   57.8800   32.9200   46.8090 C   0  0  0  0  0  0  0  0  0  0  0  0
   59.1000   32.1190   47.1510 C   0  0  0  0  0  0  0  0  0  0  0  0
   59.1330   30.7900   47.5740 C   0  0  0  0  0  0  0  0  0  0  0  0
   60.4130   30.3870   47.7670 N   0  0  0  0  0  0  0  0  0  0  0  0
   61.1860   31.4450   47.4550 C   0  0  0  0  0  0  0  0  0  0  0  0
   62.5820   31.5160   47.4930 C   0  0  0  0  0  0  0  0  0  0  0  0
   63.1900   32.7310   47.1180 C   0  0  0  0  0  0  0  0  0  0  0  0
   62.4000   33.8350   46.7170 C   0  0  0  0  0  0  0  0  0  0  0  0
   60.9950   33.7360   46.6870 C   0  0  0  0  0  0  0  0  0  0  0  0
   60.4210   32.5180   47.0670 C   0  0  0  0  0  0  0  0  0  0  0  0
   56.7790   31.7090   44.8780 N   0  0  0  0  0  0  0  0  0  0  0  0
   57.2700   30.3390   44.8430 C   0  0  0  0  0  0  0  0  0  0  0  0
   56.1560   29.4240   44.4570 C   0  0  0  0  0  0  0  0  0  0  0  0
   55.4060   29.7330   43.4930 O   0  0  0  0  0  0  0  0  0  0  0  0
   55.8930   28.2570   45.2470 N   0  0  0  0  0  0  0  0  0  0  0  0
   56.8480   27.2510   45.6170 C   0  0  0  0  0  0  0  0  0  0  0  0
   58.2050   27.5920   45.6510 C   0  0  0  0  0  0  0  0  0  0  0  0
   59.1670   26.6340   45.9870 C   0  0  0  0  0  0  0  0  0  0  0  0
   58.7820   25.3230   46.2740 C   0  0  0  0  0  0  0  0  0  0  0  0
   57.4290   24.9600   46.2180 C   0  0  0  0  0  0  0  0  0  0  0  0
   56.9380   23.3000   46.5630 S   0  0  0  0  0  0  0  0  0  0  0  0
   55.4760   23.1510   46.2370 O   0  0  0  0  0  0  0  0  0  0  0  0
   57.1050   23.0310   48.0330 O   0  0  0  0  0  0  0  0  0  0  0  0
   57.8560   22.1190   45.6510 N   0  0  0  0  0  0  0  0  0  0  0  0
   58.1470   22.5680   44.2790 C   0  0  0  0  0  0  0  0  0  0  0  0
   56.9780   22.3180   43.2970 C   0  0  0  0  0  0  0  0  0  0  0  0
   55.9480   21.5180   43.8410 O   0  0  0  0  0  0  0  0  0  0  0  0
   56.5070   20.3730   44.4460 C   0  0  0  0  0  0  0  0  0  0  0  0
   57.2740   20.7610   45.7200 C   0  0  0  0  0  0  0  0  0  0  0  0
   56.4640   25.9250   45.8890 C   0  0  0  0  0  0  0  0  0  0  0  0
   58.0587   33.9768   47.0565 H   0  0  0  0  0  0  0  0  0  0  0  0
   57.0265   32.5365   47.3874 H   0  0  0  0  0  0  0  0  0  0  0  0
   58.2459   30.1584   47.7290 H   0  0  0  0  0  0  0  0  0  0  0  0
   60.7310   29.4450   48.0900 H   0  0  0  0  0  0  0  0  0  0  0  0
   63.1862   30.6515   47.8055 H   0  0  0  0  0  0  0  0  0  0  0  0
   64.2861   32.8220   47.1371 H   0  0  0  0  0  0  0  0  0  0  0  0
   62.8869   34.7776   46.4265 H   0  0  0  0  0  0  0  0  0  0  0  0
   60.3710   34.5867   46.3757 H   0  0  0  0  0  0  0  0  0  0  0  0
   58.0829   30.2590   44.1063 H   0  0  0  0  0  0  0  0  0  0  0  0
   57.6489   30.0585   45.8369 H   0  0  0  0  0  0  0  0  0  0  0  0
   58.5167   28.6195   45.4121 H   0  0  0  0  0  0  0  0  0  0  0  0
   60.2300   26.9142   46.0253 H   0  0  0  0  0  0  0  0  0  0  0  0
   59.5410   24.5741   46.5443 H   0  0  0  0  0  0  0  0  0  0  0  0
   58.3603   23.6469   44.3017 H   0  0  0  0  0  0  0  0  0  0  0  0
   59.0076   21.9851   43.9191 H   0  0  0  0  0  0  0  0  0  0  0  0
   56.5498   23.2898   43.0103 H   0  0  0  0  0  0  0  0  0  0  0  0
   57.3899   21.7737   42.4344 H   0  0  0  0  0  0  0  0  0  0  0  0
   55.7013   19.6713   44.7075 H   0  0  0  0  0  0  0  0  0  0  0  0
   57.2049   19.9005   43.7391 H   0  0  0  0  0  0  0  0  0  0  0  0
   56.5810   20.7192   46.5732 H   0  0  0  0  0  0  0  0  0  0  0  0
   58.1063   20.0508   45.8331 H   0  0  0  0  0  0  0  0  0  0  0  0
   55.4017   25.6429   45.8436 H   0  0  0  0  0  0  0  0  0  0  0  0
  1  2  2  0
  2  3  1  0
  3  4  1  0
  4  5  2  0
  5  6  1  0
  6  7  1  0
  7  8  2  0
  8  9  1  0
  9 10  2  0
 10 11  1  0
 11 12  2  0
  2 13  1  0
 13 14  1  0
 14 15  1  0
 15 16  2  0
 15 17  1  0
 17 18  1  0
 18 19  2  0
 19 20  1  0
 20 21  2  0
 21 22  1  0
 22 23  1  0
 23 24  2  0
 23 25  2  0
 23 26  1  0
 26 27  1  0
 27 28  1  0
 28 29  1  0
 29 30  1  0
 30 31  1  0
 22 32  2  0
 12  4  1  0
 32 18  1  0
 12  7  1  0
 31 26  1  0
  3 33  1  0
  3 34  1  0
  5 35  1  0
  6 36  1  0
  8 37  1  0
  9 38  1  0
 10 39  1  0
 11 40  1  0
 14 41  1  0
 14 42  1  0
 19 43  1  0
 20 44  1  0
 21 45  1  0
 27 46  1  0
 27 47  1  0
 28 48  1  0
 28 49  1  0
 30 50  1  0
 30 51  1  0
 31 52  1  0
 31 53  1  0
 32 54  1  0
M  CHG  2  13  -1  17  -1
M  END
>  <UniqueID>  (67) 
63

>  <SMILES>  (67) 
O=C(Cc1c[nH]c2ccccc12)[N-]CC(=O)[N-]c1cccc(S(=O)(=O)N2CCOCC2)c1

>  <Energy>  (67) 
98.16467974566707

>  <Genealogy>  (67) 
O=C(Cc1c[nH]c2ccccc12)[N-]CC(=O)[N-]c1cccc(S(=O)(=O)N2CCOCC2)c1 (protonated)
O=C(Cc1c[nH]c2ccccc12)[N-]CC(=O)[N-]c1cccc(S(=O)(=O)N2CCOCC2)c1 (3D coordinates assigned)
O=C(Cc1c[nH]c2ccccc12)[N-]CC(=O)[N-]c1cccc(S(=O)(=O)N2CCOCC2)c1 (nonaromatic ring conformer: 98.16467974566707 kcal/mol)

>  <smiles>  (67) 
O=C(Cc1c[nH]c2ccccc12)NCC(=O)Nc1cccc(S(=O)(=O)N2CCOCC2)c1

>  <score_type>  (67) 
oracle

>  <origin>  (67) 
adg

>  <m_score__min__energy>  (67) 
-13.199999999999999

>  <m_primary>  (67) 
energy

$$$$
67:0
     RDKit          3D

 51 53  0  0  0  0  0  0  0  0999 V2000
   58.0470   32.7040   43.6670 C   0  0  0  0  0  0  0  0  0  0  0  0
   58.1590   31.5770   44.3750 C   0  0  0  0  0  0  0  0  0  0  0  0
   58.1330   30.3520   43.8230 N   0  0  0  0  0  0  0  0  0  0  0  0
   58.2610   29.4520   44.8200 C   0  0  0  0  0  0  0  0  0  0  0  0
   58.2970   28.1300   44.5610 C   0  0  0  0  0  0  0  0  0  0  0  0
   57.5490   27.0920   45.2920 C   0  0  0  0  0  0  0  0  0  0  0  0
   56.1970   27.2780   45.6100 C   0  0  0  0  0  0  0  0  0  0  0  0
   55.5250   28.4240   45.2020 O   0  0  0  0  0  0  0  0  0  0  0  0
   55.5310   26.3300   46.3200 N   0  0  0  0  0  0  0  0  0  0  0  0
   56.1600   25.2070   46.7510 C   0  0  0  0  0  0  0  0  0  0  0  0
   55.5220   24.3400   47.4020 O   0  0  0  0  0  0  0  0  0  0  0  0
   57.4790   25.0220   46.4860 N   0  0  0  0  0  0  0  0  0  0  0  0
   58.1870   25.9390   45.7780 C   0  0  0  0  0  0  0  0  0  0  0  0
   59.4130   25.7410   45.5610 O   0  0  0  0  0  0  0  0  0  0  0  0
   58.3720   30.1220   46.0530 C   0  0  0  0  0  0  0  0  0  0  0  0
   58.8160   29.5680   47.3880 C   0  0  0  0  0  0  0  0  0  0  0  0
   60.2210   28.9680   47.2820 C   0  0  0  0  0  0  0  0  0  0  0  0
   60.3090   27.6380   48.0250 C   0  0  0  0  0  0  0  0  0  0  0  0
   58.3070   31.4820   45.7490 C   0  0  0  0  0  0  0  0  0  0  0  0
   58.4640   32.6120   46.6890 C   0  0  0  0  0  0  0  0  0  0  0  0
   57.4410   33.2720   47.0240 O   0  0  0  0  0  0  0  0  0  0  0  0
   59.7440   32.8860   47.3060 N   0  0  0  0  0  0  0  0  0  0  0  0
   59.5450   33.5480   48.6210 C   0  0  0  0  0  0  0  0  0  0  0  0
   60.7140   34.4800   49.0170 C   0  0  0  0  0  0  0  0  0  0  0  0
   62.0130   34.0320   48.4770 N   0  0  0  0  0  0  0  0  0  0  0  0
   62.5330   32.8580   49.1990 C   0  0  0  0  0  0  0  0  0  0  0  0
   62.0070   33.8420   47.0050 C   0  0  0  0  0  0  0  0  0  0  0  0
   60.5930   33.6940   46.4110 C   0  0  0  0  0  0  0  0  0  0  0  0
   58.0755   33.6786   44.1763 H   0  0  0  0  0  0  0  0  0  0  0  0
   57.9262   32.6576   42.5746 H   0  0  0  0  0  0  0  0  0  0  0  0
   58.0350   30.1400   42.8030 H   0  0  0  0  0  0  0  0  0  0  0  0
   58.9399   27.7972   43.7328 H   0  0  0  0  0  0  0  0  0  0  0  0
   58.8243   30.3789   48.1312 H   0  0  0  0  0  0  0  0  0  0  0  0
   58.1151   28.7778   47.6949 H   0  0  0  0  0  0  0  0  0  0  0  0
   60.4621   28.8035   46.2214 H   0  0  0  0  0  0  0  0  0  0  0  0
   60.9354   29.6698   47.7370 H   0  0  0  0  0  0  0  0  0  0  0  0
   60.2968   27.8223   49.1094 H   0  0  0  0  0  0  0  0  0  0  0  0
   59.4506   27.0072   47.7506 H   0  0  0  0  0  0  0  0  0  0  0  0
   61.2430   27.1258   47.7506 H   0  0  0  0  0  0  0  0  0  0  0  0
   60.2290   31.9740   47.4730 H   0  0  0  0  0  0  0  0  0  0  0  0
   58.6220   34.1447   48.5759 H   0  0  0  0  0  0  0  0  0  0  0  0
   59.4875   32.7548   49.3809 H   0  0  0  0  0  0  0  0  0  0  0  0
   60.5037   35.4894   48.6337 H   0  0  0  0  0  0  0  0  0  0  0  0
   60.7900   34.4669   50.1143 H   0  0  0  0  0  0  0  0  0  0  0  0
   62.4566   33.0305   50.2827 H   0  0  0  0  0  0  0  0  0  0  0  0
   61.9442   31.9697   48.9267 H   0  0  0  0  0  0  0  0  0  0  0  0
   63.5866   32.6971   48.9267 H   0  0  0  0  0  0  0  0  0  0  0  0
   62.4910   34.7132   46.5394 H   0  0  0  0  0  0  0  0  0  0  0  0
   62.5453   32.9055   46.7971 H   0  0  0  0  0  0  0  0  0  0  0  0
   60.1449   34.6910   46.2881 H   0  0  0  0  0  0  0  0  0  0  0  0
   60.6655   33.1906   45.4356 H   0  0  0  0  0  0  0  0  0  0  0  0
  1  2  2  0
  2  3  1  0
  3  4  1  0
  4  5  2  3
  5  6  1  0
  6  7  2  0
  7  8  1  0
  7  9  1  0
  9 10  1  0
 10 11  2  0
 10 12  1  0
 12 13  1  0
 13 14  2  0
  4 15  1  0
 15 16  1  0
 16 17  1  0
 17 18  1  0
 15 19  2  0
 19 20  1  0
 20 21  2  0
 20 22  1  0
 22 23  1  0
 23 24  1  0
 24 25  1  0
 25 26  1  0
 25 27  1  0
 27 28  1  0
 19  2  1  0
 28 22  1  0
 13  6  1  0
  1 29  1  0
  1 30  1  0
  3 31  1  0
  5 32  1  0
 16 33  1  0
 16 34  1  0
 17 35  1  0
 17 36  1  0
 18 37  1  0
 18 38  1  0
 18 39  1  0
 22 40  1  0
 23 41  1  0
 23 42  1  0
 24 43  1  0
 24 44  1  0
 26 45  1  0
 26 46  1  0
 26 47  1  0
 27 48  1  0
 27 49  1  0
 28 50  1  0
 28 51  1  0
M  CHG  4   8  -1   9  -1  12  -1  22   1
M  END
>  <UniqueID>  (68) 
64

>  <SMILES>  (68) 
C=c1[nH]c(=Cc2c([O-])[n-]c(=O)[n-]c2=O)c(CCC)c1C(=O)[NH+]1CCN(C)CC1

>  <Energy>  (68) 
105.01266351676152

>  <Genealogy>  (68) 
C=c1[nH]c(=Cc2c([O-])[n-]c(=O)[n-]c2=O)c(CCC)c1C(=O)[NH+]1CCN(C)CC1 (protonated)
C=c1[nH]c(=Cc2c([O-])[n-]c(=O)[n-]c2=O)c(CCC)c1C(=O)[NH+]1CCN(C)CC1 (3D coordinates assigned)
C=c1[nH]c(=Cc2c([O-])[n-]c(=O)[n-]c2=O)c(CCC)c1C(=O)[NH+]1CCN(C)CC1 (nonaromatic ring conformer: 105.01266351676152 kcal/mol)

>  <smiles>  (68) 
C=c1[nH]c(=Cc2c(O)[nH]c(=O)[nH]c2=O)c(CCC)c1C(=O)N1CCN(C)CC1

>  <score_type>  (68) 
oracle

>  <origin>  (68) 
adg

>  <m_score__min__energy>  (68) 
-14.380000000000001

>  <m_primary>  (68) 
energy

$$$$
68:0
     RDKit          3D

 52 55  0  0  0  0  0  0  0  0999 V2000
   53.1010   23.2750   45.3630 N   0  0  0  0  0  0  0  0  0  0  0  0
   54.6370   23.8220   45.9320 S   0  0  0  0  0  0  0  0  0  0  0  0
   54.7870   25.2840   45.6130 O   0  0  0  0  0  0  0  0  0  0  0  0
   54.7150   23.6540   47.4240 O   0  0  0  0  0  0  0  0  0  0  0  0
   55.9270   22.8990   45.1440 C   0  0  0  0  0  0  0  0  0  0  0  0
   55.6660   21.5760   44.7520 C   0  0  0  0  0  0  0  0  0  0  0  0
   56.6370   20.8260   44.0860 C   0  0  0  0  0  0  0  0  0  0  0  0
   57.8810   21.3870   43.8030 C   0  0  0  0  0  0  0  0  0  0  0  0
   58.1630   22.6980   44.1940 C   0  0  0  0  0  0  0  0  0  0  0  0
   57.2000   23.4610   44.8750 C   0  0  0  0  0  0  0  0  0  0  0  0
   57.5600   24.8300   45.2940 C   0  0  0  0  0  0  0  0  0  0  0  0
   57.7760   25.8270   44.3310 C   0  0  0  0  0  0  0  0  0  0  0  0
   58.1220   27.1230   44.7230 C   0  0  0  0  0  0  0  0  0  0  0  0
   58.2550   27.4420   46.0860 C   0  0  0  0  0  0  0  0  0  0  0  0
   58.6320   28.7620   46.5140 N   0  0  0  0  0  0  0  0  0  0  0  0
   58.0620   29.9680   45.9800 C   0  0  0  0  0  0  0  0  0  0  0  0
   56.9280   29.9310   45.4260 O   0  0  0  0  0  0  0  0  0  0  0  0
   58.7660   31.2670   46.1150 C   0  0  0  0  0  0  0  0  0  0  0  0
   58.2690   32.4100   45.4690 C   0  0  0  0  0  0  0  0  0  0  0  0
   58.9240   33.6500   45.5770 C   0  0  0  0  0  0  0  0  0  0  0  0
   58.3560   34.8310   44.8760 C   0  0  0  0  0  0  0  0  0  0  0  0
   59.0870   35.7960   44.5300 O   0  0  0  0  0  0  0  0  0  0  0  0
   56.9960   34.8910   44.5920 O   0  0  0  0  0  0  0  0  0  0  0  0
   60.1070   33.7360   46.3450 C   0  0  0  0  0  0  0  0  0  0  0  0
   60.7960   34.9420   46.4420 O   0  0  0  0  0  0  0  0  0  0  0  0
   60.6120   32.5950   47.0000 C   0  0  0  0  0  0  0  0  0  0  0  0
   61.8490   32.6660   47.8180 C   0  0  0  0  0  0  0  0  0  0  0  0
   61.8840   32.0940   49.1020 C   0  0  0  0  0  0  0  0  0  0  0  0
   63.0440   32.1710   49.8780 C   0  0  0  0  0  0  0  0  0  0  0  0
   64.1760   32.8240   49.3830 C   0  0  0  0  0  0  0  0  0  0  0  0
   64.1480   33.4030   48.1110 C   0  0  0  0  0  0  0  0  0  0  0  0
   62.9910   33.3270   47.3310 C   0  0  0  0  0  0  0  0  0  0  0  0
   59.9430   31.3690   46.8710 C   0  0  0  0  0  0  0  0  0  0  0  0
   58.0740   26.4320   47.0440 C   0  0  0  0  0  0  0  0  0  0  0  0
   57.7280   25.1360   46.6520 C   0  0  0  0  0  0  0  0  0  0  0  0
   53.1670   22.2390   45.2530 H   0  0  0  0  0  0  0  0  0  0  0  0
   54.6866   21.1261   44.9719 H   0  0  0  0  0  0  0  0  0  0  0  0
   56.4199   19.7907   43.7841 H   0  0  0  0  0  0  0  0  0  0  0  0
   58.6417   20.7967   43.2711 H   0  0  0  0  0  0  0  0  0  0  0  0
   59.1462   23.1361   43.9670 H   0  0  0  0  0  0  0  0  0  0  0  0
   57.6725   25.5875   43.2624 H   0  0  0  0  0  0  0  0  0  0  0  0
   58.2913   27.8980   43.9609 H   0  0  0  0  0  0  0  0  0  0  0  0
   59.2740   28.8450   47.3350 H   0  0  0  0  0  0  0  0  0  0  0  0
   57.3510   32.3345   44.8677 H   0  0  0  0  0  0  0  0  0  0  0  0
   60.9938   31.5832   49.4979 H   0  0  0  0  0  0  0  0  0  0  0  0
   63.0659   31.7170   50.8797 H   0  0  0  0  0  0  0  0  0  0  0  0
   65.0888   32.8824   49.9941 H   0  0  0  0  0  0  0  0  0  0  0  0
   65.0385   33.9195   47.7233 H   0  0  0  0  0  0  0  0  0  0  0  0
   62.9733   33.7862   46.3316 H   0  0  0  0  0  0  0  0  0  0  0  0
   60.3469   30.4754   47.3694 H   0  0  0  0  0  0  0  0  0  0  0  0
   58.2055   26.6625   48.1115 H   0  0  0  0  0  0  0  0  0  0  0  0
   57.5869   24.3530   47.4116 H   0  0  0  0  0  0  0  0  0  0  0  0
  1  2  1  0
  2  3  2  0
  2  4  2  0
  2  5  1  0
  5  6  2  0
  6  7  1  0
  7  8  2  0
  8  9  1  0
  9 10  2  0
 10 11  1  0
 11 12  2  0
 12 13  1  0
 13 14  2  0
 14 15  1  0
 15 16  1  0
 16 17  2  0
 16 18  1  0
 18 19  2  0
 19 20  1  0
 20 21  1  0
 21 22  2  0
 21 23  1  0
 20 24  2  0
 24 25  1  0
 24 26  1  0
 26 27  1  0
 27 28  2  0
 28 29  1  0
 29 30  2  0
 30 31  1  0
 31 32  2  0
 26 33  2  0
 14 34  1  0
 34 35  2  0
 10  5  1  0
 35 11  1  0
 33 18  1  0
 32 27  1  0
  1 36  1  0
  6 37  1  0
  7 38  1  0
  8 39  1  0
  9 40  1  0
 12 41  1  0
 13 42  1  0
 15 43  1  0
 19 44  1  0
 28 45  1  0
 29 46  1  0
 30 47  1  0
 31 48  1  0
 32 49  1  0
 33 50  1  0
 34 51  1  0
 35 52  1  0
M  CHG  3   1  -1  23  -1  25  -1
M  END
>  <UniqueID>  (69) 
65

>  <SMILES>  (69) 
[NH-]S(=O)(=O)c1ccccc1-c1ccc(NC(=O)c2cc(C(=O)[O-])c([O-])c(-c3ccccc3)c2)cc1

>  <Energy>  (69) 
80.3778242142951

>  <Genealogy>  (69) 
[NH-]S(=O)(=O)c1ccccc1-c1ccc(NC(=O)c2cc(C(=O)[O-])c([O-])c(-c3ccccc3)c2)cc1 (protonated)
[NH-]S(=O)(=O)c1ccccc1-c1ccc(NC(=O)c2cc(C(=O)[O-])c([O-])c(-c3ccccc3)c2)cc1 (3D coordinates assigned)
[NH-]S(=O)(=O)c1ccccc1-c1ccc(NC(=O)c2cc(C(=O)[O-])c([O-])c(-c3ccccc3)c2)cc1 (optimized conformer: 80.3778242142951 kcal/mol)

>  <smiles>  (69) 
NS(=O)(=O)c1ccccc1-c1ccc(NC(=O)c2cc(C(=O)O)c(O)c(-c3ccccc3)c2)cc1

>  <score_type>  (69) 
oracle

>  <origin>  (69) 
adg

>  <m_score__min__energy>  (69) 
-15.09

>  <m_primary>  (69) 
energy

$$$$
69:0
     RDKit          3D

 51 54  0  0  0  0  0  0  0  0999 V2000
   58.6030   22.0680   44.2200 C   0  0  0  0  0  0  0  0  0  0  0  0
   56.9570   22.7170   43.9900 S   0  0  0  0  0  0  0  0  0  0  0  0
   56.2470   21.8670   42.9730 O   0  0  0  0  0  0  0  0  0  0  0  0
   57.0960   24.1060   43.4300 O   0  0  0  0  0  0  0  0  0  0  0  0
   56.0020   22.8060   45.4630 N   0  0  0  0  0  0  0  0  0  0  0  0
   54.8570   23.7250   45.3530 C   0  0  0  0  0  0  0  0  0  0  0  0
   55.1770   25.2170   45.6280 C   0  0  0  0  0  0  0  0  0  0  0  0
   56.5310   25.5000   46.1440 N   0  0  0  0  0  0  0  0  0  0  0  0
   57.0270   26.8610   46.1240 C   0  0  0  0  0  0  0  0  0  0  0  0
   58.0780   27.2740   46.9650 C   0  0  0  0  0  0  0  0  0  0  0  0
   58.5260   28.5980   46.9240 C   0  0  0  0  0  0  0  0  0  0  0  0
   59.4700   28.9540   47.6810 O   0  0  0  0  0  0  0  0  0  0  0  0
   57.9200   29.5150   46.0450 C   0  0  0  0  0  0  0  0  0  0  0  0
   58.3280   30.8600   45.9720 C   0  0  0  0  0  0  0  0  0  0  0  0
   57.6830   31.7540   45.1000 C   0  0  0  0  0  0  0  0  0  0  0  0
   58.1170   33.1700   45.0360 C   0  0  0  0  0  0  0  0  0  0  0  0
   57.2570   34.0720   44.8540 O   0  0  0  0  0  0  0  0  0  0  0  0
   59.4860   33.5540   45.2270 N   0  0  0  0  0  0  0  0  0  0  0  0
   60.1490   33.7300   46.4880 C   0  0  0  0  0  0  0  0  0  0  0  0
   59.3880   34.0890   47.6080 C   0  0  0  0  0  0  0  0  0  0  0  0
   60.0050   34.2890   48.8480 C   0  0  0  0  0  0  0  0  0  0  0  0
   61.3910   34.1440   48.9720 C   0  0  0  0  0  0  0  0  0  0  0  0
   62.1620   33.8080   47.8540 C   0  0  0  0  0  0  0  0  0  0  0  0
   63.5080   33.6840   47.9710 F   0  0  0  0  0  0  0  0  0  0  0  0
   61.5470   33.6100   46.6130 C   0  0  0  0  0  0  0  0  0  0  0  0
   56.6440   31.2850   44.2770 C   0  0  0  0  0  0  0  0  0  0  0  0
   56.2410   29.9490   44.3370 C   0  0  0  0  0  0  0  0  0  0  0  0
   56.8700   29.0630   45.2160 C   0  0  0  0  0  0  0  0  0  0  0  0
   56.4640   27.7680   45.2770 N   0  0  0  0  0  0  0  0  0  0  0  0
   57.4400   24.4570   46.6400 C   0  0  0  0  0  0  0  0  0  0  0  0
   56.7960   23.0760   46.6690 C   0  0  0  0  0  0  0  0  0  0  0  0
   58.8169   21.9837   45.2957 H   0  0  0  0  0  0  0  0  0  0  0  0
   58.6740   21.0746   43.7530 H   0  0  0  0  0  0  0  0  0  0  0  0
   59.3329   22.7457   43.7530 H   0  0  0  0  0  0  0  0  0  0  0  0
   55.6030   21.8450   45.5860 H   0  0  0  0  0  0  0  0  0  0  0  0
   54.4546   23.6461   44.3323 H   0  0  0  0  0  0  0  0  0  0  0  0
   54.1441   23.4178   46.1323 H   0  0  0  0  0  0  0  0  0  0  0  0
   55.0538   25.7680   44.6840 H   0  0  0  0  0  0  0  0  0  0  0  0
   54.4835   25.5294   46.4227 H   0  0  0  0  0  0  0  0  0  0  0  0
   58.5464   26.5556   47.6538 H   0  0  0  0  0  0  0  0  0  0  0  0
   59.1575   31.2141   46.6018 H   0  0  0  0  0  0  0  0  0  0  0  0
   58.2994   34.2144   47.5122 H   0  0  0  0  0  0  0  0  0  0  0  0
   59.4000   34.5604   49.7257 H   0  0  0  0  0  0  0  0  0  0  0  0
   61.8745   34.2942   49.9486 H   0  0  0  0  0  0  0  0  0  0  0  0
   62.1569   33.3599   45.7324 H   0  0  0  0  0  0  0  0  0  0  0  0
   56.1449   31.9752   43.5809 H   0  0  0  0  0  0  0  0  0  0  0  0
   55.4257   29.5929   43.6901 H   0  0  0  0  0  0  0  0  0  0  0  0
   58.3225   24.4194   45.9844 H   0  0  0  0  0  0  0  0  0  0  0  0
   57.7100   24.7179   47.6740 H   0  0  0  0  0  0  0  0  0  0  0  0
   57.5888   22.3175   46.7478 H   0  0  0  0  0  0  0  0  0  0  0  0
   56.1175   23.0391   47.5340 H   0  0  0  0  0  0  0  0  0  0  0  0
  1  2  1  0
  2  3  2  0
  2  4  2  0
  2  5  1  0
  5  6  1  0
  6  7  1  0
  7  8  1  0
  8  9  1  0
  9 10  2  0
 10 11  1  0
 11 12  2  0
 11 13  1  0
 13 14  2  0
 14 15  1  0
 15 16  1  0
 16 17  2  0
 16 18  1  0
 18 19  1  0
 19 20  2  0
 20 21  1  0
 21 22  2  0
 22 23  1  0
 23 24  1  0
 23 25  2  0
 15 26  2  0
 26 27  1  0
 27 28  2  0
 28 29  1  0
  8 30  1  0
 30 31  1  0
 31  5  1  0
 29  9  1  0
 28 13  1  0
 25 19  1  0
  1 32  1  0
  1 33  1  0
  1 34  1  0
  5 35  1  0
  6 36  1  0
  6 37  1  0
  7 38  1  0
  7 39  1  0
 10 40  1  0
 14 41  1  0
 20 42  1  0
 21 43  1  0
 22 44  1  0
 25 45  1  0
 26 46  1  0
 27 47  1  0
 30 48  1  0
 30 49  1  0
 31 50  1  0
 31 51  1  0
M  CHG  3   5   1  18  -1  29  -1
M  END
>  <UniqueID>  (70) 
66

>  <SMILES>  (70) 
CS(=O)(=O)[NH+]1CCN(c2cc(=O)c3cc(C(=O)[N-]c4cccc(F)c4)ccc3[n-]2)CC1

>  <Energy>  (70) 
71.91523556338763

>  <Genealogy>  (70) 
CS(=O)(=O)[NH+]1CCN(c2cc(=O)c3cc(C(=O)[N-]c4cccc(F)c4)ccc3[n-]2)CC1 (protonated)
CS(=O)(=O)[NH+]1CCN(c2cc(=O)c3cc(C(=O)[N-]c4cccc(F)c4)ccc3[n-]2)CC1 (3D coordinates assigned)
CS(=O)(=O)[NH+]1CCN(c2cc(=O)c3cc(C(=O)[N-]c4cccc(F)c4)ccc3[n-]2)CC1 (nonaromatic ring conformer: 71.91523556338763 kcal/mol)

>  <smiles>  (70) 
CS(=O)(=O)N1CCN(c2cc(=O)c3cc(C(=O)Nc4cccc(F)c4)ccc3[nH]2)CC1

>  <score_type>  (70) 
oracle

>  <origin>  (70) 
adg

>  <m_score__min__energy>  (70) 
-9.9399999999999995

>  <m_primary>  (70) 
energy

$$$$
70:0
     RDKit          3D

 75 79  0  0  0  0  0  0  0  0999 V2000
   55.5665   30.8390   43.3466 H   0  0  0  0  0  0  0  0  0  0  0  0
   55.3510   29.9020   43.8810 C   0  0  0  0  0  0  0  0  0  0  0  0
   54.3536   29.4440   43.8079 H   0  0  0  0  0  0  0  0  0  0  0  0
   56.3060   29.3170   44.6230 C   0  0  0  0  0  0  0  0  0  0  0  0
   55.9530   28.1650   45.2470 N   0  0  0  0  0  0  0  0  0  0  0  0
   56.8130   27.4420   45.9940 C   0  0  0  0  0  0  0  0  0  0  0  0
   56.4020   26.3740   46.5240 O   0  0  0  0  0  0  0  0  0  0  0  0
   58.0990   27.8670   46.1730 N   0  0  0  0  0  0  0  0  0  0  0  0
   59.0300   27.0920   47.0210 C   0  0  0  0  0  0  0  0  0  0  0  0
   58.5340   26.1674   47.3514 H   0  0  0  0  0  0  0  0  0  0  0  0
   59.9289   26.8520   46.4341 H   0  0  0  0  0  0  0  0  0  0  0  0
   59.4380   27.8950   48.2300 C   0  0  0  0  0  0  0  0  0  0  0  0
   58.6780   29.0080   48.6300 C   0  0  0  0  0  0  0  0  0  0  0  0
   57.7699   29.2803   48.0721 H   0  0  0  0  0  0  0  0  0  0  0  0
   59.0720   29.7710   49.7350 C   0  0  0  0  0  0  0  0  0  0  0  0
   58.4753   30.6429   50.0411 H   0  0  0  0  0  0  0  0  0  0  0  0
   60.2220   29.4270   50.4500 C   0  0  0  0  0  0  0  0  0  0  0  0
   60.5280   30.0255   51.3207 H   0  0  0  0  0  0  0  0  0  0  0  0
   60.9830   28.3230   50.0590 C   0  0  0  0  0  0  0  0  0  0  0  0
   61.8895   28.0545   50.6213 H   0  0  0  0  0  0  0  0  0  0  0  0
   60.5950   27.5580   48.9540 C   0  0  0  0  0  0  0  0  0  0  0  0
   61.1976   26.6893   48.6504 H   0  0  0  0  0  0  0  0  0  0  0  0
   58.5160   29.0410   45.5970 C   0  0  0  0  0  0  0  0  0  0  0  0
   59.6740   29.4730   45.8670 O   0  0  0  0  0  0  0  0  0  0  0  0
   57.6470   29.7960   44.7510 C   0  0  0  0  0  0  0  0  0  0  0  0
   58.0600   30.9400   44.1270 C   0  0  0  0  0  0  0  0  0  0  0  0
   58.1055   30.9211   43.0281 H   0  0  0  0  0  0  0  0  0  0  0  0
   58.4520   32.2030   44.7950 C   0  0  0  0  0  0  0  0  0  0  0  0
   57.8690   33.4100   44.3930 C   0  0  0  0  0  0  0  0  0  0  0  0
   57.0957   33.4191   43.6107 H   0  0  0  0  0  0  0  0  0  0  0  0
   58.2770   34.6020   44.9930 C   0  0  0  0  0  0  0  0  0  0  0  0
   57.8184   35.5552   44.6912 H   0  0  0  0  0  0  0  0  0  0  0  0
   59.2670   34.5840   45.9760 C   0  0  0  0  0  0  0  0  0  0  0  0
   59.5824   35.5188   46.4625 H   0  0  0  0  0  0  0  0  0  0  0  0
   59.8570   33.3640   46.3390 C   0  0  0  0  0  0  0  0  0  0  0  0
   60.8940   33.3050   47.4320 C   0  0  0  0  0  0  0  0  0  0  0  0
   61.6306   34.1049   47.2661 H   0  0  0  0  0  0  0  0  0  0  0  0
   60.3792   33.4316   48.3958 H   0  0  0  0  0  0  0  0  0  0  0  0
   61.6300   31.9470   47.4590 C   0  0  0  0  0  0  0  0  0  0  0  0
   60.8894   31.1422   47.3413 H   0  0  0  0  0  0  0  0  0  0  0  0
   62.3616   31.9475   46.6376 H   0  0  0  0  0  0  0  0  0  0  0  0
   62.4030   31.7190   48.7740 C   0  0  0  0  0  0  0  0  0  0  0  0
   62.0591   30.7750   49.2218 H   0  0  0  0  0  0  0  0  0  0  0  0
   63.4734   31.6929   48.5219 H   0  0  0  0  0  0  0  0  0  0  0  0
   62.2030   32.8560   49.8090 C   0  0  0  0  0  0  0  0  0  0  0  0
   61.3599   33.4762   49.4706 H   0  0  0  0  0  0  0  0  0  0  0  0
   61.8050   32.3130   51.2120 C   0  0  0  0  0  0  0  0  0  0  0  0
   61.0262   32.9626   51.6380 H   0  0  0  0  0  0  0  0  0  0  0  0
   61.4362   31.2839   51.0896 H   0  0  0  0  0  0  0  0  0  0  0  0
   63.0030   32.2810   52.1680 C   0  0  0  0  0  0  0  0  0  0  0  0
   62.6780   31.8731   53.1365 H   0  0  0  0  0  0  0  0  0  0  0  0
   63.7859   31.6492   51.7231 H   0  0  0  0  0  0  0  0  0  0  0  0
   63.5600   33.6390   52.3780 N   0  0  0  0  0  0  0  0  0  0  0  0
   64.8540   33.6420   53.0990 C   0  0  0  0  0  0  0  0  0  0  0  0
   64.8856   34.5272   53.7512 H   0  0  0  0  0  0  0  0  0  0  0  0
   64.9077   32.7001   53.6647 H   0  0  0  0  0  0  0  0  0  0  0  0
   66.0640   33.6780   52.1850 C   0  0  0  0  0  0  0  0  0  0  0  0
   66.3450   32.6080   51.3190 C   0  0  0  0  0  0  0  0  0  0  0  0
   65.6785   31.7332   51.2963 H   0  0  0  0  0  0  0  0  0  0  0  0
   67.4670   32.6490   50.4860 C   0  0  0  0  0  0  0  0  0  0  0  0
   67.6872   31.8015   49.8202 H   0  0  0  0  0  0  0  0  0  0  0  0
   68.3090   33.7630   50.4970 C   0  0  0  0  0  0  0  0  0  0  0  0
   69.1934   33.7907   49.8434 H   0  0  0  0  0  0  0  0  0  0  0  0
   68.0280   34.8420   51.3380 C   0  0  0  0  0  0  0  0  0  0  0  0
   68.6882   35.7218   51.3430 H   0  0  0  0  0  0  0  0  0  0  0  0
   66.9070   34.8040   52.1740 C   0  0  0  0  0  0  0  0  0  0  0  0
   66.6833   35.6604   52.8271 H   0  0  0  0  0  0  0  0  0  0  0  0
   63.5160   34.5310   51.1910 C   0  0  0  0  0  0  0  0  0  0  0  0
   62.6194   35.1648   51.2573 H   0  0  0  0  0  0  0  0  0  0  0  0
   64.4348   35.1358   51.1890 H   0  0  0  0  0  0  0  0  0  0  0  0
   63.4680   33.7440   49.8760 C   0  0  0  0  0  0  0  0  0  0  0  0
   63.4565   34.4511   49.0335 H   0  0  0  0  0  0  0  0  0  0  0  0
   64.3552   33.0959   49.8221 H   0  0  0  0  0  0  0  0  0  0  0  0
   59.4490   32.2120   45.7280 N   0  0  0  0  0  0  0  0  0  0  0  0
   59.9170   31.3110   45.9790 H   0  0  0  0  0  0  0  0  0  0  0  0
  1  2  1  0
  2  3  1  0
  2  4  2  0
  4  5  1  0
  5  6  1  0
  6  7  2  0
  6  8  1  0
  8  9  1  0
  9 10  1  0
  9 11  1  0
  9 12  1  0
 12 13  2  0
 13 14  1  0
 13 15  1  0
 15 16  1  0
 15 17  2  0
 17 18  1  0
 17 19  1  0
 19 20  1  0
 19 21  2  0
 21 22  1  0
  8 23  1  0
 23 24  2  0
 23 25  1  0
 25 26  2  0
 26 27  1  0
 26 28  1  0
 28 29  2  0
 29 30  1  0
 29 31  1  0
 31 32  1  0
 31 33  2  0
 33 34  1  0
 33 35  1  0
 35 36  1  0
 36 37  1  0
 36 38  1  0
 36 39  1  0
 39 40  1  0
 39 41  1  0
 39 42  1  0
 42 43  1  0
 42 44  1  0
 42 45  1  0
 45 46  1  0
 45 47  1  0
 47 48  1  0
 47 49  1  0
 47 50  1  0
 50 51  1  0
 50 52  1  0
 50 53  1  0
 53 54  1  0
 54 55  1  0
 54 56  1  0
 54 57  1  0
 57 58  2  0
 58 59  1  0
 58 60  1  0
 60 61  1  0
 60 62  2  0
 62 63  1  0
 62 64  1  0
 64 65  1  0
 64 66  2  0
 66 67  1  0
 53 68  1  0
 68 69  1  0
 68 70  1  0
 68 71  1  0
 71 72  1  0
 71 73  1  0
 35 74  2  0
 74 75  1  0
 25  4  1  0
 74 28  1  0
 21 12  1  0
 71 45  1  0
 66 57  1  0
M  CHG  2   5  -1  74   1
M  END
>  <UniqueID>  (71) 
67

>  <SMILES>  (71) 
C=c1[n-]c(=O)n(Cc2ccccc2)c(=O)/c1=C\c1cccc(CCCC2CCN(Cc3ccccc3)CC2)[nH+]1

>  <Energy>  (71) 
112.20288958561879

>  <Genealogy>  (71) 
C=c1[n-]c(=O)n(Cc2ccccc2)c(=O)c1=Cc1cccc(CCCC2CCN(Cc3ccccc3)CC2)[nH+]1 (protonated)
C=c1[n-]c(=O)n(Cc2ccccc2)c(=O)/c1=C\c1cccc(CCCC2CCN(Cc3ccccc3)CC2)[nH+]1 (cis-trans isomerization)
C=c1[n-]c(=O)n(Cc2ccccc2)c(=O)/c1=C\c1cccc(CCCC2CCN(Cc3ccccc3)CC2)[nH+]1 (3D coordinates assigned)
C=c1[n-]c(=O)n(Cc2ccccc2)c(=O)/c1=C\c1cccc(CCCC2CCN(Cc3ccccc3)CC2)[nH+]1 (nonaromatic ring conformer: 112.20288958561879 kcal/mol)

>  <smiles>  (71) 
C=c1[nH]c(=O)n(Cc2ccccc2)c(=O)c1=Cc1cccc(CCCC2CCN(Cc3ccccc3)CC2)n1

>  <score_type>  (71) 
oracle

>  <origin>  (71) 
adg

>  <m_score__min__energy>  (71) 
-10.390000000000001

>  <m_primary>  (71) 
energy

$$$$
71:0
     RDKit          3D

 52 55  0  0  0  0  0  0  0  0999 V2000
   58.9447   29.0636   44.9389 H   0  0  0  0  0  0  0  0  0  0  0  0
   58.8410   30.0300   45.4540 C   0  0  0  0  0  0  0  0  0  0  0  0
   58.6242   30.9407   44.8764 H   0  0  0  0  0  0  0  0  0  0  0  0
   58.9790   30.0980   46.7880 C   0  0  0  0  0  0  0  0  0  0  0  0
   58.8360   31.3310   47.3500 N   0  0  0  0  0  0  0  0  0  0  0  0
   58.9160   31.5550   48.6850 C   0  0  0  0  0  0  0  0  0  0  0  0
   58.7730   32.8440   49.2130 O   0  0  0  0  0  0  0  0  0  0  0  0
   59.8430   33.6090   49.7700 C   0  0  0  0  0  0  0  0  0  0  0  0
   59.4632   34.1812   50.6293 H   0  0  0  0  0  0  0  0  0  0  0  0
   60.6373   32.9144   50.0809 H   0  0  0  0  0  0  0  0  0  0  0  0
   60.4370   34.5910   48.7370 C   0  0  1  0  0  0  0  0  0  0  0  0
   60.4347   35.5679   49.2426 H   0  0  0  0  0  0  0  0  0  0  0  0
   61.7730   34.1730   48.3320 N   0  0  0  0  0  0  0  0  0  0  0  0
   62.9470   34.1400   49.2050 C   0  0  0  0  0  0  0  0  0  0  0  0
   63.7046   34.8380   48.8193 H   0  0  0  0  0  0  0  0  0  0  0  0
   62.6433   34.4332   50.2208 H   0  0  0  0  0  0  0  0  0  0  0  0
   63.5370   32.7360   49.2530 C   0  0  0  0  0  0  0  0  0  0  0  0
   63.6663   32.4283   50.3011 H   0  0  0  0  0  0  0  0  0  0  0  0
   62.8573   32.0351   48.7463 H   0  0  0  0  0  0  0  0  0  0  0  0
   64.5133   32.7310   48.7463 H   0  0  0  0  0  0  0  0  0  0  0  0
   61.7440   33.7400   46.9840 C   0  0  0  0  0  0  0  0  0  0  0  0
   62.7410   33.2410   46.3980 O   0  0  0  0  0  0  0  0  0  0  0  0
   60.4170   33.9010   46.3550 C   0  0  0  0  0  0  0  0  0  0  0  0
   59.9618   32.9236   46.1369 H   0  0  0  0  0  0  0  0  0  0  0  0
   60.4560   34.4285   45.3905 H   0  0  0  0  0  0  0  0  0  0  0  0
   59.6160   34.6560   47.4250 C   0  0  0  0  0  0  0  0  0  0  0  0
   58.6354   34.1789   47.5692 H   0  0  0  0  0  0  0  0  0  0  0  0
   59.4431   35.6992   47.1220 H   0  0  0  0  0  0  0  0  0  0  0  0
   59.1440   30.4910   49.5450 C   0  0  0  0  0  0  0  0  0  0  0  0
   59.1957   30.6590   50.6309 H   0  0  0  0  0  0  0  0  0  0  0  0
   59.3070   29.2100   49.0270 C   0  0  0  0  0  0  0  0  0  0  0  0
   59.5000   28.3712   49.7120 H   0  0  0  0  0  0  0  0  0  0  0  0
   59.2290   28.9660   47.6340 C   0  0  0  0  0  0  0  0  0  0  0  0
   59.4390   27.7160   47.1390 C   0  0  0  0  0  0  0  0  0  0  0  0
   60.4771   27.3525   47.1237 H   0  0  0  0  0  0  0  0  0  0  0  0
   58.4000   26.8020   46.6200 C   0  0  0  0  0  0  0  0  0  0  0  0
   58.7090   25.6710   45.9540 N   0  0  0  0  0  0  0  0  0  0  0  0
   57.5160   25.1770   45.5710 C   0  0  0  0  0  0  0  0  0  0  0  0
   57.3550   23.9170   44.8040 C   0  0  0  0  0  0  0  0  0  0  0  0
   58.1370   22.7800   45.0890 C   0  0  0  0  0  0  0  0  0  0  0  0
   58.8833   22.8187   45.8962 H   0  0  0  0  0  0  0  0  0  0  0  0
   57.9710   21.6030   44.3530 C   0  0  0  0  0  0  0  0  0  0  0  0
   58.5870   20.7211   44.5826 H   0  0  0  0  0  0  0  0  0  0  0  0
   57.0260   21.5440   43.3280 C   0  0  0  0  0  0  0  0  0  0  0  0
   56.8670   20.4000   42.6160 F   0  0  0  0  0  0  0  0  0  0  0  0
   56.2450   22.6630   43.0340 C   0  0  0  0  0  0  0  0  0  0  0  0
   55.5011   22.6164   42.2250 H   0  0  0  0  0  0  0  0  0  0  0  0
   56.4070   23.8440   43.7670 C   0  0  0  0  0  0  0  0  0  0  0  0
   55.7883   24.7222   43.5305 H   0  0  0  0  0  0  0  0  0  0  0  0
   56.5190   26.0330   45.9940 C   0  0  0  0  0  0  0  0  0  0  0  0
   55.4414   25.8909   45.8249 H   0  0  0  0  0  0  0  0  0  0  0  0
   57.0760   27.0670   46.6450 N   0  0  0  0  0  0  0  0  0  0  0  0
  1  2  1  0
  2  3  1  0
  2  4  2  0
  4  5  1  0
  5  6  2  0
  6  7  1  0
  7  8  1  0
  8  9  1  0
  8 10  1  0
  8 11  1  0
 11 12  1  1
 11 13  1  0
 13 14  1  0
 14 15  1  0
 14 16  1  0
 14 17  1  0
 17 18  1  0
 17 19  1  0
 17 20  1  0
 13 21  1  0
 21 22  2  0
 21 23  1  0
 23 24  1  0
 23 25  1  0
 23 26  1  0
 26 27  1  0
 26 28  1  0
  6 29  1  0
 29 30  1  0
 29 31  2  0
 31 32  1  0
 31 33  1  0
 33 34  2  0
 34 35  1  0
 34 36  1  0
 36 37  2  0
 37 38  1  0
 38 39  1  0
 39 40  2  0
 40 41  1  0
 40 42  1  0
 42 43  1  0
 42 44  2  0
 44 45  1  0
 44 46  1  0
 46 47  1  0
 46 48  2  0
 48 49  1  0
 38 50  2  0
 50 51  1  0
 50 52  1  0
 33  4  1  0
 52 36  1  0
 26 11  1  0
 48 39  1  0
M  CHG  1  52  -1
M  END
>  <UniqueID>  (72) 
68

>  <SMILES>  (72) 
C=c1nc(OC[C@@H]2CCC(=O)N2CC)cc/c1=C\c1nc(-c2ccc(F)cc2)c[n-]1

>  <Energy>  (72) 
99.08389350766811

>  <Genealogy>  (72) 
C=c1nc(OCC2CCC(=O)N2CC)ccc1=Cc1nc(-c2ccc(F)cc2)c[n-]1 (protonated)
C=c1nc(OC[C@@H]2CCC(=O)N2CC)ccc1=Cc1nc(-c2ccc(F)cc2)c[n-]1 (chirality)
C=c1nc(OC[C@@H]2CCC(=O)N2CC)cc/c1=C\c1nc(-c2ccc(F)cc2)c[n-]1 (cis-trans isomerization)
C=c1nc(OC[C@@H]2CCC(=O)N2CC)cc/c1=C\c1nc(-c2ccc(F)cc2)c[n-]1 (3D coordinates assigned)
C=c1nc(OC[C@@H]2CCC(=O)N2CC)cc/c1=C\c1nc(-c2ccc(F)cc2)c[n-]1 (nonaromatic ring conformer: 99.08389350766811 kcal/mol)

>  <smiles>  (72) 
C=c1nc(OCC2CCC(=O)N2CC)ccc1=Cc1nc(-c2ccc(F)cc2)c[nH]1

>  <score_type>  (72) 
oracle

>  <origin>  (72) 
adg

>  <m_score__min__energy>  (72) 
-9.5700000000000003

>  <m_primary>  (72) 
energy

$$$$
72:0
     RDKit          3D

 30 31  0  0  0  0  0  0  0  0999 V2000
   55.4300   30.0780   55.1410 H   0  0  0  0  0  0  0  0  0  0  0  0
   56.1710   29.7680   55.7260 O   0  0  0  0  0  0  0  0  0  0  0  0
   56.5150   28.4810   55.2900 C   0  0  0  0  0  0  0  0  0  0  0  0
   55.7076   27.7830   55.5564 H   0  0  0  0  0  0  0  0  0  0  0  0
   57.4559   28.1855   55.7772 H   0  0  0  0  0  0  0  0  0  0  0  0
   56.7210   28.4530   53.7730 C   0  0  0  0  0  0  0  0  0  0  0  0
   56.5475   27.4309   53.4053 H   0  0  0  0  0  0  0  0  0  0  0  0
   57.7505   28.7722   53.5533 H   0  0  0  0  0  0  0  0  0  0  0  0
   55.7910   29.3720   53.0970 N   0  0  0  0  0  0  0  0  0  0  0  0
   56.1170   30.5830   52.5900 C   0  0  0  0  0  0  0  0  0  0  0  0
   57.4630   31.2320   52.7100 C   0  0  0  0  0  0  0  0  0  0  0  0
   57.7174   31.3547   53.7731 H   0  0  0  0  0  0  0  0  0  0  0  0
   58.2197   30.5998   52.2225 H   0  0  0  0  0  0  0  0  0  0  0  0
   57.4395   32.2178   52.2225 H   0  0  0  0  0  0  0  0  0  0  0  0
   55.0190   31.1750   51.9990 C   0  0  0  0  0  0  0  0  0  0  0  0
   54.9861   32.1648   51.5202 H   0  0  0  0  0  0  0  0  0  0  0  0
   53.9640   30.2810   52.1250 C   0  0  0  0  0  0  0  0  0  0  0  0
   52.6930   30.4560   51.6980 C   0  0  0  0  0  0  0  0  0  0  0  0
   52.3540   29.8288   50.8603 H   0  0  0  0  0  0  0  0  0  0  0  0
   51.7190   31.4170   52.2590 C   0  0  0  0  0  0  0  0  0  0  0  0
   51.4230   31.5750   53.5620 N   0  0  0  0  0  0  0  0  0  0  0  0
   50.5300   32.5880   53.5640 C   0  0  0  0  0  0  0  0  0  0  0  0
   50.0070   33.0290   54.6200 O   0  0  0  0  0  0  0  0  0  0  0  0
   50.2440   33.0930   52.3450 N   0  0  0  0  0  0  0  0  0  0  0  0
   51.0070   32.3450   51.5330 C   0  0  0  0  0  0  0  0  0  0  0  0
   51.0550   32.5080   50.1540 O   0  0  0  0  0  0  0  0  0  0  0  0
   54.4760   29.1710   52.8110 C   0  0  0  0  0  0  0  0  0  0  0  0
   53.7930   28.0630   53.1440 C   0  0  0  0  0  0  0  0  0  0  0  0
   54.2965   27.2483   53.6851 H   0  0  0  0  0  0  0  0  0  0  0  0
   52.7303   27.9705   52.8755 H   0  0  0  0  0  0  0  0  0  0  0  0
  1  2  1  0
  2  3  1  0
  3  4  1  0
  3  5  1  0
  3  6  1  0
  6  7  1  0
  6  8  1  0
  6  9  1  0
  9 10  1  0
 10 11  1  0
 11 12  1  0
 11 13  1  0
 11 14  1  0
 10 15  2  0
 15 16  1  0
 15 17  1  0
 17 18  2  0
 18 19  1  0
 18 20  1  0
 20 21  1  0
 21 22  1  0
 22 23  2  0
 22 24  1  0
 24 25  1  0
 25 26  1  0
 17 27  1  0
 27 28  2  0
 28 29  1  0
 28 30  1  0
 27  9  1  0
 25 20  2  0
M  CHG  3  21  -1  24  -1  26  -1
M  END
>  <UniqueID>  (73) 
69

>  <SMILES>  (73) 
C=c1/c(=C/c2[n-]c(=O)[n-]c2[O-])cc(C)n1CCO

>  <Energy>  (73) 
89.75846346273359

>  <Genealogy>  (73) 
C=c1c(=Cc2[n-]c(=O)[n-]c2[O-])cc(C)n1CCO (protonated)
C=c1/c(=C/c2[n-]c(=O)[n-]c2[O-])cc(C)n1CCO (cis-trans isomerization)
C=c1/c(=C/c2[n-]c(=O)[n-]c2[O-])cc(C)n1CCO (3D coordinates assigned)
C=c1/c(=C/c2[n-]c(=O)[n-]c2[O-])cc(C)n1CCO (optimized conformer: 89.75846346273359 kcal/mol)

>  <smiles>  (73) 
C=c1c(=Cc2[nH]c(=O)[nH]c2O)cc(C)n1CCO

>  <score_type>  (73) 
oracle

>  <origin>  (73) 
adg

>  <m_score__min__energy>  (73) 
-14.73

>  <m_primary>  (73) 
energy

$$$$
73:0
     RDKit          3D

 57 60  0  0  0  0  0  0  0  0999 V2000
   55.4160   29.5460   42.3380 H   0  0  0  0  0  0  0  0  0  0  0  0
   56.2710   30.0850   42.0720 N   0  0  0  0  0  0  0  0  0  0  0  0
   56.8680   30.8750   42.9080 C   0  0  0  0  0  0  0  0  0  0  0  0
   57.4880   31.9900   42.4420 N   0  0  0  0  0  0  0  0  0  0  0  0
   58.1380   32.8450   43.2700 C   0  0  0  0  0  0  0  0  0  0  0  0
   58.6293   33.7410   42.8627 H   0  0  0  0  0  0  0  0  0  0  0  0
   58.1820   32.5830   44.6490 C   0  0  0  0  0  0  0  0  0  0  0  0
   58.8730   33.5130   45.5770 C   0  0  0  0  0  0  0  0  0  0  0  0
   59.2280   34.8360   45.3480 C   0  0  0  0  0  0  0  0  0  0  0  0
   59.0667   35.3835   44.4077 H   0  0  0  0  0  0  0  0  0  0  0  0
   59.8010   35.3450   46.4570 N   0  0  0  0  0  0  0  0  0  0  0  0
   59.8360   34.3820   47.3680 N   0  0  0  0  0  0  0  0  0  0  0  0
   60.3170   34.5730   48.7330 C   0  0  0  0  0  0  0  0  0  0  0  0
   60.4155   35.6494   48.9369 H   0  0  0  0  0  0  0  0  0  0  0  0
   59.5985   34.1237   49.4344 H   0  0  0  0  0  0  0  0  0  0  0  0
   61.6760   33.8990   48.9090 C   0  0  0  0  0  0  0  0  0  0  0  0
   61.8952   33.7903   49.9814 H   0  0  0  0  0  0  0  0  0  0  0  0
   61.6568   32.9060   48.4362 H   0  0  0  0  0  0  0  0  0  0  0  0
   62.4549   34.5152   48.4362 H   0  0  0  0  0  0  0  0  0  0  0  0
   59.2750   33.2600   46.8800 C   0  0  0  0  0  0  0  0  0  0  0  0
   59.1562   32.3091   47.4200 H   0  0  0  0  0  0  0  0  0  0  0  0
   57.5660   31.4600   45.1200 N   0  0  0  0  0  0  0  0  0  0  0  0
   57.6000   31.2590   46.1450 H   0  0  0  0  0  0  0  0  0  0  0  0
   56.9000   30.5940   44.2950 C   0  0  0  0  0  0  0  0  0  0  0  0
   56.2310   29.4020   44.8830 C   0  0  0  0  0  0  0  0  0  0  0  0
   55.1350   28.9850   44.4140 O   0  0  0  0  0  0  0  0  0  0  0  0
   56.8430   28.7370   46.0010 N   0  0  0  0  0  0  0  0  0  0  0  0
   58.0570   28.8850   46.4460 C   0  0  0  0  0  0  0  0  0  0  0  0
   58.4850   30.0860   46.9280 N   0  0  0  0  0  0  0  0  0  0  0  0
   59.7560   30.2780   47.3710 C   0  0  0  0  0  0  0  0  0  0  0  0
   60.0617   31.2623   47.7554 H   0  0  0  0  0  0  0  0  0  0  0  0
   60.6720   29.2270   47.3380 C   0  0  0  0  0  0  0  0  0  0  0  0
   61.7026   29.3773   47.6920 H   0  0  0  0  0  0  0  0  0  0  0  0
   60.2690   27.9840   46.8520 C   0  0  0  0  0  0  0  0  0  0  0  0
   60.9835   27.1481   46.8244 H   0  0  0  0  0  0  0  0  0  0  0  0
   58.9550   27.7960   46.3980 C   0  0  0  0  0  0  0  0  0  0  0  0
   58.5370   26.5000   45.9190 N   0  0  0  0  0  0  0  0  0  0  0  0
   58.4760   25.3510   46.8300 C   0  0  0  0  0  0  0  0  0  0  0  0
   59.0798   24.5301   46.4158 H   0  0  0  0  0  0  0  0  0  0  0  0
   58.8680   25.6579   47.8109 H   0  0  0  0  0  0  0  0  0  0  0  0
   57.0220   24.8690   47.0080 C   0  0  0  0  0  0  0  0  0  0  0  0
   57.0323   23.7788   47.1544 H   0  0  0  0  0  0  0  0  0  0  0  0
   56.6086   25.4034   47.8761 H   0  0  0  0  0  0  0  0  0  0  0  0
   56.1020   25.1950   45.7880 C   0  0  0  0  0  0  0  0  0  0  0  0
   55.4710   26.5090   45.9890 N   0  0  0  0  0  0  0  0  0  0  0  0
   55.8910   26.9750   46.8300 H   0  0  0  0  0  0  0  0  0  0  0  0
   55.6770   27.1280   45.1720 H   0  0  0  0  0  0  0  0  0  0  0  0
   55.0090   24.1150   45.6530 C   0  0  0  0  0  0  0  0  0  0  0  0
   54.6846   23.7945   46.6540 H   0  0  0  0  0  0  0  0  0  0  0  0
   54.1502   24.5290   45.1044 H   0  0  0  0  0  0  0  0  0  0  0  0
   55.4127   23.2513   45.1044 H   0  0  0  0  0  0  0  0  0  0  0  0
   56.9480   25.2340   44.4900 C   0  0  0  0  0  0  0  0  0  0  0  0
   57.4504   24.2643   44.3590 H   0  0  0  0  0  0  0  0  0  0  0  0
   56.2784   25.4393   43.6418 H   0  0  0  0  0  0  0  0  0  0  0  0
   58.0110   26.3470   44.5560 C   0  0  0  0  0  0  0  0  0  0  0  0
   58.8393   26.0925   43.8784 H   0  0  0  0  0  0  0  0  0  0  0  0
   57.5412   27.2952   44.2558 H   0  0  0  0  0  0  0  0  0  0  0  0
  1  2  1  0
  2  3  2  0
  3  4  1  0
  4  5  1  0
  5  6  1  0
  5  7  2  0
  7  8  1  0
  8  9  1  0
  9 10  1  0
  9 11  2  0
 11 12  1  0
 12 13  1  0
 13 14  1  0
 13 15  1  0
 13 16  1  0
 16 17  1  0
 16 18  1  0
 16 19  1  0
 12 20  1  0
 20 21  1  0
  7 22  1  0
 22 23  1  0
 22 24  2  0
 24 25  1  0
 25 26  2  0
 25 27  1  0
 27 28  2  0
 28 29  1  0
 29 30  1  0
 30 31  1  0
 30 32  2  0
 32 33  1  0
 32 34  1  0
 34 35  1  0
 34 36  2  0
 36 37  1  0
 37 38  1  0
 38 39  1  0
 38 40  1  0
 38 41  1  0
 41 42  1  0
 41 43  1  0
 41 44  1  0
 44 45  1  0
 45 46  1  0
 45 47  1  0
 44 48  1  0
 48 49  1  0
 48 50  1  0
 48 51  1  0
 44 52  1  0
 52 53  1  0
 52 54  1  0
 52 55  1  0
 55 56  1  0
 55 57  1  0
 24  3  1  0
 36 28  1  0
 55 37  1  0
 20  8  2  0
M  CHG  3   4  -1  22   1  29  -1
M  END
>  <UniqueID>  (74) 
70

>  <SMILES>  (74) 
[H]/N=c1\[n-]cc(-c2cnn(CC)c2)[nH+]c1C(=O)/N=c1\[n-]cccc1N1CCC(C)(N)CC1

>  <Energy>  (74) 
102.39702823663143

>  <Genealogy>  (74) 
CCn1cc(-c2c[n-]c(=N)c(C(=O)N=c3[n-]cccc3N3CCC(C)(N)CC3)[nH+]2)cn1 (protonated)
[H]/N=c1\[n-]cc(-c2cnn(CC)c2)[nH+]c1C(=O)/N=c1\[n-]cccc1N1CCC(C)(N)CC1 (cis-trans isomerization)
[H]/N=c1\[n-]cc(-c2cnn(CC)c2)[nH+]c1C(=O)/N=c1\[n-]cccc1N1CCC(C)(N)CC1 (3D coordinates assigned)
[H]/N=c1\[n-]cc(-c2cnn(CC)c2)[nH+]c1C(=O)/N=c1\[n-]cccc1N1CCC(C)(N)CC1 (nonaromatic ring conformer: 102.39702823663143 kcal/mol)

>  <smiles>  (74) 
CCn1cc(-c2c[nH]c(=N)c(C(=O)N=c3[nH]cccc3N3CCC(C)(N)CC3)n2)cn1

>  <score_type>  (74) 
oracle

>  <origin>  (74) 
adg

>  <m_score__min__energy>  (74) 
-9.8900000000000006

>  <m_primary>  (74) 
energy

$$$$
74:0
     RDKit          3D

 30 32  0  0  0  0  0  0  0  0999 V2000
   59.4284   23.8467   46.7819 H   0  0  0  0  0  0  0  0  0  0  0  0
   59.0250   24.7000   46.2170 C   0  0  0  0  0  0  0  0  0  0  0  0
   59.8330   25.7540   46.0300 C   0  0  0  0  0  0  0  0  0  0  0  0
   60.8017   25.5687   45.5430 H   0  0  0  0  0  0  0  0  0  0  0  0
   59.5260   27.1450   46.4260 C   0  0  0  0  0  0  0  0  0  0  0  0
   59.9100   27.8120   47.5900 C   0  0  0  0  0  0  0  0  0  0  0  0
   60.5731   27.3946   48.3621 H   0  0  0  0  0  0  0  0  0  0  0  0
   59.3530   29.0430   47.6360 N   0  0  0  0  0  0  0  0  0  0  0  0
   59.4660   29.7510   48.3950 H   0  0  0  0  0  0  0  0  0  0  0  0
   58.6060   29.1550   46.5250 C   0  0  0  0  0  0  0  0  0  0  0  0
   57.8250   30.2440   46.1390 C   0  0  0  0  0  0  0  0  0  0  0  0
   57.7743   31.1531   46.7562 H   0  0  0  0  0  0  0  0  0  0  0  0
   57.1040   30.1430   44.9350 C   0  0  0  0  0  0  0  0  0  0  0  0
   56.3130   31.2040   44.5120 O   0  0  0  0  0  0  0  0  0  0  0  0
   57.1770   28.9660   44.1540 C   0  0  0  0  0  0  0  0  0  0  0  0
   56.6082   28.8968   43.2150 H   0  0  0  0  0  0  0  0  0  0  0  0
   57.9730   27.8830   44.5710 C   0  0  0  0  0  0  0  0  0  0  0  0
   58.0374   26.9624   43.9723 H   0  0  0  0  0  0  0  0  0  0  0  0
   58.6780   28.0140   45.7680 C   0  0  0  0  0  0  0  0  0  0  0  0
   57.6350   24.5940   45.7240 C   0  0  0  0  0  0  0  0  0  0  0  0
   56.6530   25.5310   46.0930 C   0  0  0  0  0  0  0  0  0  0  0  0
   56.9210   26.3796   46.7396 H   0  0  0  0  0  0  0  0  0  0  0  0
   55.3370   25.3880   45.6410 C   0  0  0  0  0  0  0  0  0  0  0  0
   54.3760   26.3270   45.9960 O   0  0  0  0  0  0  0  0  0  0  0  0
   54.9880   24.3000   44.8360 C   0  0  0  0  0  0  0  0  0  0  0  0
   53.9551   24.1936   44.4730 H   0  0  0  0  0  0  0  0  0  0  0  0
   55.9510   23.3470   44.4920 C   0  0  0  0  0  0  0  0  0  0  0  0
   55.5990   22.2580   43.7030 O   0  0  0  0  0  0  0  0  0  0  0  0
   57.2680   23.4870   44.9420 C   0  0  0  0  0  0  0  0  0  0  0  0
   58.0193   22.7267   44.6822 H   0  0  0  0  0  0  0  0  0  0  0  0
  1  2  1  0
  2  3  2  0
  3  4  1  0
  3  5  1  0
  5  6  2  0
  6  7  1  0
  6  8  1  0
  8  9  1  0
  8 10  1  0
 10 11  2  0
 11 12  1  0
 11 13  1  0
 13 14  1  0
 13 15  2  0
 15 16  1  0
 15 17  1  0
 17 18  1  0
 17 19  2  0
  2 20  1  0
 20 21  2  0
 21 22  1  0
 21 23  1  0
 23 24  1  0
 23 25  2  0
 25 26  1  0
 25 27  1  0
 27 28  1  0
 27 29  2  0
 29 30  1  0
 19  5  1  0
 29 20  1  0
 19 10  1  0
M  CHG  3  14  -1  24  -1  28  -1
M  END
>  <UniqueID>  (75) 
71

>  <SMILES>  (75) 
[O-]c1cc([O-])cc(/C=C\c2c[nH]c3cc([O-])ccc23)c1

>  <Energy>  (75) 
74.35630330451302

>  <Genealogy>  (75) 
[O-]c1cc([O-])cc(C=Cc2c[nH]c3cc([O-])ccc23)c1 (protonated)
[O-]c1cc([O-])cc(/C=C\c2c[nH]c3cc([O-])ccc23)c1 (cis-trans isomerization)
[O-]c1cc([O-])cc(/C=C\c2c[nH]c3cc([O-])ccc23)c1 (3D coordinates assigned)
[O-]c1cc([O-])cc(/C=C\c2c[nH]c3cc([O-])ccc23)c1 (optimized conformer: 74.35630330451302 kcal/mol)

>  <smiles>  (75) 
Oc1cc(O)cc(C=Cc2c[nH]c3cc(O)ccc23)c1

>  <score_type>  (75) 
oracle

>  <origin>  (75) 
adg

>  <m_score__min__energy>  (75) 
-13.300000000000001

>  <m_primary>  (75) 
energy

$$$$
75:0
     RDKit          3D

 58 62  0  0  0  0  0  0  0  0999 V2000
   57.0340   33.4660   46.0510 C   0  0  0  0  0  0  0  0  0  0  0  0
   58.5260   33.4020   46.2500 C   0  0  0  0  0  0  0  0  0  0  0  0
   59.2390   34.6030   46.3990 C   0  0  0  0  0  0  0  0  0  0  0  0
   60.6100   34.5910   46.6510 C   0  0  0  0  0  0  0  0  0  0  0  0
   61.2980   33.3770   46.7500 C   0  0  0  0  0  0  0  0  0  0  0  0
   63.0180   33.3580   47.1450 S   0  0  0  0  0  0  0  0  0  0  0  0
   63.7200   34.4300   46.3590 O   0  0  0  0  0  0  0  0  0  0  0  0
   63.6030   32.0320   46.7480 O   0  0  0  0  0  0  0  0  0  0  0  0
   63.2830   33.6310   48.8530 N   0  0  0  0  0  0  0  0  0  0  0  0
   63.4250   32.3490   49.5830 C   0  0  0  0  0  0  0  0  0  0  0  0
   62.9630   32.4520   51.0370 C   0  0  0  0  0  0  0  0  0  0  0  0
   61.5610   32.8640   51.0550 N   0  0  0  0  0  0  0  0  0  0  0  0
   60.7050   32.3840   52.1070 C   0  0  0  0  0  0  0  0  0  0  0  0
   61.1080   32.4600   53.2970 O   0  0  0  0  0  0  0  0  0  0  0  0
   59.3700   31.7170   51.8440 C   0  0  0  0  0  0  0  0  0  0  0  0
   58.2150   32.6580   51.5170 C   0  0  0  0  0  0  0  0  0  0  0  0
   58.0290   31.9550   50.1770 C   0  0  0  0  0  0  0  0  0  0  0  0
   59.2120   31.0450   50.4830 C   0  0  0  0  0  0  0  0  0  0  0  0
   61.1070   33.8960   50.1150 C   0  0  0  0  0  0  0  0  0  0  0  0
   62.2940   34.5810   49.4150 C   0  0  0  0  0  0  0  0  0  0  0  0
   60.6050   32.1750   46.5670 C   0  0  0  0  0  0  0  0  0  0  0  0
   59.2220   32.1670   46.3180 C   0  0  0  0  0  0  0  0  0  0  0  0
   58.5460   30.8580   46.1660 C   0  0  0  0  0  0  0  0  0  0  0  0
   57.3970   30.7500   45.4470 N   0  0  0  0  0  0  0  0  0  0  0  0
   56.7830   29.5530   45.2600 C   0  0  0  0  0  0  0  0  0  0  0  0
   55.7180   29.5030   44.5890 O   0  0  0  0  0  0  0  0  0  0  0  0
   57.3440   28.3900   45.8120 C   0  0  0  0  0  0  0  0  0  0  0  0
   56.7680   27.1170   45.6440 C   0  0  0  0  0  0  0  0  0  0  0  0
   57.3780   25.9940   46.2110 C   0  0  0  0  0  0  0  0  0  0  0  0
   58.5530   26.1320   46.9550 C   0  0  0  0  0  0  0  0  0  0  0  0
   59.1320   27.3930   47.1290 C   0  0  0  0  0  0  0  0  0  0  0  0
   58.5370   28.5200   46.5540 C   0  0  0  0  0  0  0  0  0  0  0  0
   59.1080   29.7430   46.7060 N   0  0  0  0  0  0  0  0  0  0  0  0
   56.5340   33.4874   47.0306 H   0  0  0  0  0  0  0  0  0  0  0  0
   56.7778   34.3760   45.4886 H   0  0  0  0  0  0  0  0  0  0  0  0
   56.7008   32.5813   45.4886 H   0  0  0  0  0  0  0  0  0  0  0  0
   58.7097   35.5637   46.3159 H   0  0  0  0  0  0  0  0  0  0  0  0
   61.1530   35.5399   46.7725 H   0  0  0  0  0  0  0  0  0  0  0  0
   62.8209   31.5837   49.0737 H   0  0  0  0  0  0  0  0  0  0  0  0
   64.4922   32.0824   49.5882 H   0  0  0  0  0  0  0  0  0  0  0  0
   63.0677   31.4737   51.5288 H   0  0  0  0  0  0  0  0  0  0  0  0
   63.5774   33.1896   51.5741 H   0  0  0  0  0  0  0  0  0  0  0  0
   59.3501   31.1104   52.7614 H   0  0  0  0  0  0  0  0  0  0  0  0
   57.3544   32.5670   52.1961 H   0  0  0  0  0  0  0  0  0  0  0  0
   58.3532   33.7484   51.5613 H   0  0  0  0  0  0  0  0  0  0  0  0
   57.0700   31.4253   50.0781 H   0  0  0  0  0  0  0  0  0  0  0  0
   58.0039   32.5372   49.2440 H   0  0  0  0  0  0  0  0  0  0  0  0
   58.9558   29.9766   50.5359 H   0  0  0  0  0  0  0  0  0  0  0  0
   60.0629   30.9827   49.7887 H   0  0  0  0  0  0  0  0  0  0  0  0
   60.4642   33.4290   49.3543 H   0  0  0  0  0  0  0  0  0  0  0  0
   60.5522   34.6590   50.6808 H   0  0  0  0  0  0  0  0  0  0  0  0
   61.9028   35.2008   48.5948 H   0  0  0  0  0  0  0  0  0  0  0  0
   62.8173   35.1761   50.1779 H   0  0  0  0  0  0  0  0  0  0  0  0
   61.1514   31.2217   46.6189 H   0  0  0  0  0  0  0  0  0  0  0  0
   55.8382   27.0056   45.0668 H   0  0  0  0  0  0  0  0  0  0  0  0
   56.9316   24.9984   46.0710 H   0  0  0  0  0  0  0  0  0  0  0  0
   59.0240   25.2457   47.4052 H   0  0  0  0  0  0  0  0  0  0  0  0
   60.0551   27.4982   47.7180 H   0  0  0  0  0  0  0  0  0  0  0  0
  1  2  1  0
  2  3  2  0
  3  4  1  0
  4  5  2  0
  5  6  1  0
  6  7  2  0
  6  8  2  0
  6  9  1  0
  9 10  1  0
 10 11  1  0
 11 12  1  0
 12 13  1  0
 13 14  2  0
 13 15  1  0
 15 16  1  0
 16 17  1  0
 17 18  1  0
 12 19  1  0
 19 20  1  0
  5 21  1  0
 21 22  2  0
 22 23  1  0
 23 24  2  0
 24 25  1  0
 25 26  2  0
 25 27  1  0
 27 28  2  0
 28 29  1  0
 29 30  2  0
 30 31  1  0
 31 32  2  0
 32 33  1  0
 22  2  1  0
 33 23  1  0
 20  9  1  0
 32 27  1  0
 18 15  1  0
  1 34  1  0
  1 35  1  0
  1 36  1  0
  3 37  1  0
  4 38  1  0
 10 39  1  0
 10 40  1  0
 11 41  1  0
 11 42  1  0
 15 43  1  0
 16 44  1  0
 16 45  1  0
 17 46  1  0
 17 47  1  0
 18 48  1  0
 18 49  1  0
 19 50  1  0
 19 51  1  0
 20 52  1  0
 20 53  1  0
 21 54  1  0
 28 55  1  0
 29 56  1  0
 30 57  1  0
 31 58  1  0
M  CHG  1  33  -1
M  END
>  <UniqueID>  (76) 
72

>  <SMILES>  (76) 
Cc1ccc(S(=O)(=O)N2CCN(C(=O)C3CCC3)CC2)cc1-c1nc(=O)c2ccccc2[n-]1

>  <Energy>  (76) 
137.18688240065404

>  <Genealogy>  (76) 
Cc1ccc(S(=O)(=O)N2CCN(C(=O)C3CCC3)CC2)cc1-c1nc(=O)c2ccccc2[n-]1 (protonated)
Cc1ccc(S(=O)(=O)N2CCN(C(=O)C3CCC3)CC2)cc1-c1nc(=O)c2ccccc2[n-]1 (3D coordinates assigned)
Cc1ccc(S(=O)(=O)N2CCN(C(=O)C3CCC3)CC2)cc1-c1nc(=O)c2ccccc2[n-]1 (nonaromatic ring conformer: 137.18688240065404 kcal/mol)

>  <smiles>  (76) 
Cc1ccc(S(=O)(=O)N2CCN(C(=O)C3CCC3)CC2)cc1-c1nc(=O)c2ccccc2[nH]1

>  <score_type>  (76) 
oracle

>  <origin>  (76) 
adg

>  <m_score__min__energy>  (76) 
-12.619999999999999

>  <m_primary>  (76) 
energy

$$$$
76:0
     RDKit          3D

 52 54  0  0  0  0  0  0  0  0999 V2000
   56.7230   23.0330   45.5920 C   0  0  0  0  0  0  0  0  0  0  0  0
   56.9370   24.0580   46.7020 C   0  0  0  0  0  0  0  0  0  0  0  0
   57.3750   25.3480   46.1390 N   0  0  0  0  0  0  0  0  0  0  0  0
   56.4730   26.3720   45.9850 C   0  0  0  0  0  0  0  0  0  0  0  0
   55.1360   26.2010   46.3540 O   0  0  0  0  0  0  0  0  0  0  0  0
   56.8870   27.5990   45.4630 C   0  0  0  0  0  0  0  0  0  0  0  0
   58.2220   27.7610   45.1050 C   0  0  0  0  0  0  0  0  0  0  0  0
   58.7950   29.3190   44.4240 S   0  0  0  0  0  0  0  0  0  0  0  0
   57.2360   29.6930   43.5430 C   0  0  0  0  0  0  0  0  0  0  0  0
   56.2620   30.4030   44.4300 C   0  0  0  0  0  0  0  0  0  0  0  0
   55.1650   29.8510   44.7150 O   0  0  0  0  0  0  0  0  0  0  0  0
   56.5520   31.7280   44.8900 N   0  0  0  0  0  0  0  0  0  0  0  0
   57.7260   32.1380   45.6030 C   0  0  0  0  0  0  0  0  0  0  0  0
   58.4100   33.2810   45.1740 C   0  0  0  0  0  0  0  0  0  0  0  0
   59.5740   33.6970   45.8240 C   0  0  0  0  0  0  0  0  0  0  0  0
   60.0820   32.9670   46.9120 C   0  0  0  0  0  0  0  0  0  0  0  0
   61.2810   33.3960   47.5880 N   0  0  0  0  0  0  0  0  0  0  0  0
   62.5380   33.5290   46.8330 C   0  0  0  0  0  0  0  0  0  0  0  0
   63.7790   33.2240   47.7050 C   0  0  0  0  0  0  0  0  0  0  0  0
   63.5020   33.2680   49.1590 N   0  0  0  0  0  0  0  0  0  0  0  0
   64.7520   33.4380   49.9160 C   0  0  0  0  0  0  0  0  0  0  0  0
   62.5500   34.3410   49.4890 C   0  0  0  0  0  0  0  0  0  0  0  0
   61.1760   33.9520   48.9460 C   0  0  0  0  0  0  0  0  0  0  0  0
   59.4100   31.8040   47.3260 C   0  0  0  0  0  0  0  0  0  0  0  0
   58.2470   31.3870   46.6730 C   0  0  0  0  0  0  0  0  0  0  0  0
   59.0970   26.7440   45.2980 N   0  0  0  0  0  0  0  0  0  0  0  0
   58.6930   25.5500   45.8070 C   0  0  0  0  0  0  0  0  0  0  0  0
   59.5480   24.6370   45.9700 O   0  0  0  0  0  0  0  0  0  0  0  0
   56.5174   22.0482   46.0369 H   0  0  0  0  0  0  0  0  0  0  0  0
   55.8695   23.3395   44.9695 H   0  0  0  0  0  0  0  0  0  0  0  0
   57.6279   22.9724   44.9695 H   0  0  0  0  0  0  0  0  0  0  0  0
   55.9926   24.2033   47.2470 H   0  0  0  0  0  0  0  0  0  0  0  0
   57.7159   23.6855   47.3835 H   0  0  0  0  0  0  0  0  0  0  0  0
   54.7260   26.7170   47.1240 H   0  0  0  0  0  0  0  0  0  0  0  0
   56.1701   28.4237   45.3369 H   0  0  0  0  0  0  0  0  0  0  0  0
   57.4599   30.3308   42.6752 H   0  0  0  0  0  0  0  0  0  0  0  0
   56.7832   28.7427   43.2239 H   0  0  0  0  0  0  0  0  0  0  0  0
   58.0278   33.8564   44.3180 H   0  0  0  0  0  0  0  0  0  0  0  0
   60.0968   34.6024   45.4819 H   0  0  0  0  0  0  0  0  0  0  0  0
   62.5187   32.8268   45.9865 H   0  0  0  0  0  0  0  0  0  0  0  0
   62.6158   34.5705   46.4878 H   0  0  0  0  0  0  0  0  0  0  0  0
   64.1455   32.2186   47.4502 H   0  0  0  0  0  0  0  0  0  0  0  0
   64.5244   34.0047   47.4929 H   0  0  0  0  0  0  0  0  0  0  0  0
   64.5348   33.4085   50.9939 H   0  0  0  0  0  0  0  0  0  0  0  0
   65.4489   32.6264   49.6600 H   0  0  0  0  0  0  0  0  0  0  0  0
   65.2069   34.4063   49.6600 H   0  0  0  0  0  0  0  0  0  0  0  0
   62.4959   34.4667   50.5805 H   0  0  0  0  0  0  0  0  0  0  0  0
   62.8791   35.2892   49.0389 H   0  0  0  0  0  0  0  0  0  0  0  0
   60.7280   33.1976   49.6094 H   0  0  0  0  0  0  0  0  0  0  0  0
   60.5478   34.8541   48.9065 H   0  0  0  0  0  0  0  0  0  0  0  0
   59.8024   31.2178   48.1701 H   0  0  0  0  0  0  0  0  0  0  0  0
   57.7367   30.4679   46.9967 H   0  0  0  0  0  0  0  0  0  0  0  0
  1  2  1  0
  2  3  1  0
  3  4  1  0
  4  5  1  0
  4  6  2  0
  6  7  1  0
  7  8  1  0
  8  9  1  0
  9 10  1  0
 10 11  2  0
 10 12  1  0
 12 13  1  0
 13 14  2  0
 14 15  1  0
 15 16  2  0
 16 17  1  0
 17 18  1  0
 18 19  1  0
 19 20  1  0
 20 21  1  0
 20 22  1  0
 22 23  1  0
 16 24  1  0
 24 25  2  0
  7 26  2  0
 26 27  1  0
 27 28  2  0
 27  3  1  0
 25 13  1  0
 23 17  1  0
  1 29  1  0
  1 30  1  0
  1 31  1  0
  2 32  1  0
  2 33  1  0
  5 34  1  0
  6 35  1  0
  9 36  1  0
  9 37  1  0
 14 38  1  0
 15 39  1  0
 18 40  1  0
 18 41  1  0
 19 42  1  0
 19 43  1  0
 21 44  1  0
 21 45  1  0
 21 46  1  0
 22 47  1  0
 22 48  1  0
 23 49  1  0
 23 50  1  0
 24 51  1  0
 25 52  1  0
M  CHG  1  12  -1
M  END
>  <UniqueID>  (77) 
73

>  <SMILES>  (77) 
CCn1c(O)cc(SCC(=O)[N-]c2ccc(N3CCN(C)CC3)cc2)nc1=O

>  <Energy>  (77) 
59.222086396913234

>  <Genealogy>  (77) 
CCn1c(O)cc(SCC(=O)[N-]c2ccc(N3CCN(C)CC3)cc2)nc1=O (protonated)
CCn1c(O)cc(SCC(=O)[N-]c2ccc(N3CCN(C)CC3)cc2)nc1=O (3D coordinates assigned)
CCn1c(O)cc(SCC(=O)[N-]c2ccc(N3CCN(C)CC3)cc2)nc1=O (nonaromatic ring conformer: 59.222086396913234 kcal/mol)

>  <smiles>  (77) 
CCn1c(O)cc(SCC(=O)Nc2ccc(N3CCN(C)CC3)cc2)nc1=O

>  <score_type>  (77) 
oracle

>  <origin>  (77) 
adg

>  <m_score__min__energy>  (77) 
-11

>  <m_primary>  (77) 
energy

$$$$
77:0
     RDKit          3D

 47 49  0  0  0  0  0  0  0  0999 V2000
   59.0290   33.8180   52.9020 C   0  0  0  0  0  0  0  0  0  0  0  0
   58.5550   32.9260   52.0240 C   0  0  0  0  0  0  0  0  0  0  0  0
   57.7620   31.7510   52.5300 C   0  0  0  0  0  0  0  0  0  0  0  0
   58.8860   33.0320   50.5770 C   0  0  0  0  0  0  0  0  0  0  0  0
   58.1340   32.3350   49.6100 C   0  0  0  0  0  0  0  0  0  0  0  0
   58.4590   32.4330   48.2550 C   0  0  0  0  0  0  0  0  0  0  0  0
   59.5420   33.2160   47.8430 C   0  0  0  0  0  0  0  0  0  0  0  0
   59.9540   33.3280   46.0970 S   0  0  0  0  0  0  0  0  0  0  0  0
   59.1200   31.7830   45.6850 C   0  0  0  0  0  0  0  0  0  0  0  0
   58.0080   31.8390   44.8430 C   0  0  0  0  0  0  0  0  0  0  0  0
   57.3010   30.6790   44.4720 C   0  0  0  0  0  0  0  0  0  0  0  0
   56.2670   30.8390   43.6200 C   0  0  0  0  0  0  0  0  0  0  0  0
   57.7340   29.4070   44.9710 C   0  0  0  0  0  0  0  0  0  0  0  0
   57.0610   28.2540   44.7060 C   0  0  0  0  0  0  0  0  0  0  0  0
   57.1530   27.0080   45.4970 C   0  0  0  0  0  0  0  0  0  0  0  0
   58.2670   26.2750   45.6740 N   0  0  0  0  0  0  0  0  0  0  0  0
   57.8500   25.1790   46.3380 C   0  0  0  0  0  0  0  0  0  0  0  0
   58.6270   24.2510   46.6860 O   0  0  0  0  0  0  0  0  0  0  0  0
   56.5230   25.1550   46.5840 N   0  0  0  0  0  0  0  0  0  0  0  0
   56.0970   26.3090   46.0350 C   0  0  0  0  0  0  0  0  0  0  0  0
   54.7680   26.7110   46.0210 O   0  0  0  0  0  0  0  0  0  0  0  0
   58.8750   29.3760   45.8090 C   0  0  0  0  0  0  0  0  0  0  0  0
   59.5690   30.5410   46.1670 C   0  0  0  0  0  0  0  0  0  0  0  0
   60.8280   30.4080   46.9940 C   0  0  0  0  0  0  0  0  0  0  0  0
   60.5520   29.6150   48.2680 C   0  0  0  0  0  0  0  0  0  0  0  0
   60.2890   33.9200   48.7950 C   0  0  0  0  0  0  0  0  0  0  0  0
   59.9690   33.8230   50.1520 C   0  0  0  0  0  0  0  0  0  0  0  0
   59.6104   34.6823   52.5485 H   0  0  0  0  0  0  0  0  0  0  0  0
   58.8372   33.6869   53.9772 H   0  0  0  0  0  0  0  0  0  0  0  0
   57.7639   31.7538   53.6300 H   0  0  0  0  0  0  0  0  0  0  0  0
   56.7268   31.8227   52.1649 H   0  0  0  0  0  0  0  0  0  0  0  0
   58.2158   30.8178   52.1649 H   0  0  0  0  0  0  0  0  0  0  0  0
   57.2854   31.7096   49.9244 H   0  0  0  0  0  0  0  0  0  0  0  0
   57.8599   31.8914   47.5081 H   0  0  0  0  0  0  0  0  0  0  0  0
   57.6753   32.8147   44.4593 H   0  0  0  0  0  0  0  0  0  0  0  0
   55.6803   29.9663   43.2971 H   0  0  0  0  0  0  0  0  0  0  0  0
   56.0108   31.8421   43.2483 H   0  0  0  0  0  0  0  0  0  0  0  0
   56.3938   28.2486   43.8315 H   0  0  0  0  0  0  0  0  0  0  0  0
   59.2330   26.4790   45.3330 H   0  0  0  0  0  0  0  0  0  0  0  0
   59.2284   28.4071   46.1915 H   0  0  0  0  0  0  0  0  0  0  0  0
   61.5955   29.8869   46.4029 H   0  0  0  0  0  0  0  0  0  0  0  0
   61.1785   31.4133   47.2708 H   0  0  0  0  0  0  0  0  0  0  0  0
   60.7703   30.2423   49.1449 H   0  0  0  0  0  0  0  0  0  0  0  0
   59.4951   29.3108   48.2888 H   0  0  0  0  0  0  0  0  0  0  0  0
   61.1916   28.7203   48.2888 H   0  0  0  0  0  0  0  0  0  0  0  0
   61.1305   34.5515   48.4739 H   0  0  0  0  0  0  0  0  0  0  0  0
   60.5691   34.3699   50.8942 H   0  0  0  0  0  0  0  0  0  0  0  0
  1  2  2  0
  2  3  1  0
  2  4  1  0
  4  5  2  0
  5  6  1  0
  6  7  2  0
  7  8  1  0
  8  9  1  0
  9 10  2  0
 10 11  1  0
 11 12  2  0
 11 13  1  0
 13 14  2  3
 14 15  1  0
 15 16  1  0
 16 17  1  0
 17 18  2  0
 17 19  1  0
 19 20  1  0
 20 21  1  0
 13 22  1  0
 22 23  2  0
 23 24  1  0
 24 25  1  0
  7 26  1  0
 26 27  2  0
 27  4  1  0
 23  9  1  0
 20 15  2  0
  1 28  1  0
  1 29  1  0
  3 30  1  0
  3 31  1  0
  3 32  1  0
  5 33  1  0
  6 34  1  0
 10 35  1  0
 12 36  1  0
 12 37  1  0
 14 38  1  0
 16 39  1  0
 22 40  1  0
 24 41  1  0
 24 42  1  0
 25 43  1  0
 25 44  1  0
 25 45  1  0
 26 46  1  0
 27 47  1  0
M  CHG  2  19  -1  21  -1
M  END
>  <UniqueID>  (78) 
74

>  <SMILES>  (78) 
C=C(C)c1ccc(Sc2cc(=C)c(=Cc3[nH]c(=O)[n-]c3[O-])cc2CC)cc1

>  <Energy>  (78) 
92.39134516699421

>  <Genealogy>  (78) 
C=C(C)c1ccc(Sc2cc(=C)c(=Cc3[nH]c(=O)[n-]c3[O-])cc2CC)cc1 (protonated)
C=C(C)c1ccc(Sc2cc(=C)c(=Cc3[nH]c(=O)[n-]c3[O-])cc2CC)cc1 (3D coordinates assigned)
C=C(C)c1ccc(Sc2cc(=C)c(=Cc3[nH]c(=O)[n-]c3[O-])cc2CC)cc1 (optimized conformer: 92.39134516699421 kcal/mol)

>  <smiles>  (78) 
C=C(C)c1ccc(Sc2cc(=C)c(=Cc3[nH]c(=O)[nH]c3O)cc2CC)cc1

>  <score_type>  (78) 
oracle

>  <origin>  (78) 
adg

>  <m_score__min__energy>  (78) 
-15.25

>  <m_primary>  (78) 
energy

$$$$
78:0
     RDKit          3D

 18 19  0  0  0  0  0  0  0  0999 V2000
   55.2870   28.9590   44.5410 O   0  0  0  0  0  0  0  0  0  0  0  0
   56.0310   29.9280   44.2350 C   0  0  0  0  0  0  0  0  0  0  0  0
   56.6530   30.6370   45.2160 N   0  0  0  0  0  0  0  0  0  0  0  0
   57.4500   31.6760   44.8700 C   0  0  0  0  0  0  0  0  0  0  0  0
   57.6300   32.0110   43.5870 N   0  0  0  0  0  0  0  0  0  0  0  0
   57.0150   31.3140   42.5950 C   0  0  0  0  0  0  0  0  0  0  0  0
   57.1850   31.6310   41.3870 O   0  0  0  0  0  0  0  0  0  0  0  0
   56.2110   30.2650   42.9240 N   0  0  0  0  0  0  0  0  0  0  0  0
   58.5180   33.1480   43.4470 C   0  0  0  0  0  0  0  0  0  0  0  0
   58.9100   33.5270   44.8890 C   0  0  0  0  0  0  0  0  0  0  0  0
   58.1880   32.5330   45.8190 C   0  0  0  0  0  0  0  0  0  0  0  0
   55.7310   29.7190   42.1730 H   0  0  0  0  0  0  0  0  0  0  0  0
   59.4091   32.8732   42.8635 H   0  0  0  0  0  0  0  0  0  0  0  0
   58.0392   33.9836   42.9155 H   0  0  0  0  0  0  0  0  0  0  0  0
   59.9992   33.4460   45.0197 H   0  0  0  0  0  0  0  0  0  0  0  0
   58.6226   34.5638   45.1180 H   0  0  0  0  0  0  0  0  0  0  0  0
   58.9084   31.9449   46.4066 H   0  0  0  0  0  0  0  0  0  0  0  0
   57.5390   33.0221   46.5603 H   0  0  0  0  0  0  0  0  0  0  0  0
  1  2  2  0
  2  3  1  0
  3  4  2  0
  4  5  1  0
  5  6  1  0
  6  7  2  0
  6  8  1  0
  5  9  1  0
  9 10  1  0
 10 11  1  0
  8  2  1  0
 11  4  1  0
  8 12  1  0
  9 13  1  0
  9 14  1  0
 10 15  1  0
 10 16  1  0
 11 17  1  0
 11 18  1  0
M  END
>  <UniqueID>  (79) 
75

>  <SMILES>  (79) 
O=c1nc2n(c(=O)[nH]1)CCC2

>  <Energy>  (79) 
26.547541263965908

>  <Genealogy>  (79) 
O=c1nc2n(c(=O)[nH]1)CCC2 (3D coordinates assigned)
O=c1nc2n(c(=O)[nH]1)CCC2 (nonaromatic ring conformer: 26.547541263965908 kcal/mol)

>  <smiles>  (79) 
O=c1nc2n(c(=O)[nH]1)CCC2

>  <score_type>  (79) 
oracle

>  <origin>  (79) 
adg

>  <m_score__min__energy>  (79) 
-5.29

>  <m_primary>  (79) 
energy

$$$$
79:0
     RDKit          3D

 48 51  0  0  0  0  0  0  0  0999 V2000
   54.2260   27.8950   52.7280 C   0  0  0  0  0  0  0  0  0  0  0  0
   54.6370   29.1590   52.5880 C   0  0  0  0  0  0  0  0  0  0  0  0
   55.9350   29.5040   52.7200 N   0  0  0  0  0  0  0  0  0  0  0  0
   55.9960   30.8490   52.6880 C   0  0  0  0  0  0  0  0  0  0  0  0
   57.2380   31.6270   52.8520 C   0  0  0  0  0  0  0  0  0  0  0  0
   57.4590   32.2120   53.9480 O   0  0  0  0  0  0  0  0  0  0  0  0
   58.2040   31.7110   51.7920 N   0  0  0  0  0  0  0  0  0  0  0  0
   59.6320   31.7410   52.1230 C   0  0  0  0  0  0  0  0  0  0  0  0
   60.4440   31.0640   51.0160 C   0  0  0  0  0  0  0  0  0  0  0  0
   60.0290   31.5630   49.7020 N   0  0  0  0  0  0  0  0  0  0  0  0
   60.9770   31.5730   48.6220 C   0  0  0  0  0  0  0  0  0  0  0  0
   60.9090   30.6810   47.7360 O   0  0  0  0  0  0  0  0  0  0  0  0
   62.0450   32.6370   48.4980 C   0  0  0  0  0  0  0  0  0  0  0  0
   63.3980   32.1830   47.9460 C   0  0  0  0  0  0  0  0  0  0  0  0
   63.2090   33.0990   46.7440 C   0  0  0  0  0  0  0  0  0  0  0  0
   61.8590   33.5490   47.2890 C   0  0  0  0  0  0  0  0  0  0  0  0
   58.6020   31.5320   49.3760 C   0  0  0  0  0  0  0  0  0  0  0  0
   57.7980   32.2230   50.4780 C   0  0  0  0  0  0  0  0  0  0  0  0
   54.7320   31.3840   52.5360 C   0  0  0  0  0  0  0  0  0  0  0  0
   53.8560   30.3150   52.4300 C   0  0  0  0  0  0  0  0  0  0  0  0
   52.5350   30.4680   52.2160 C   0  0  0  0  0  0  0  0  0  0  0  0
   51.9160   30.8860   50.9500 C   0  0  0  0  0  0  0  0  0  0  0  0
   51.8110   30.0860   49.8740 N   0  0  0  0  0  0  0  0  0  0  0  0
   51.0740   30.8180   49.0110 C   0  0  0  0  0  0  0  0  0  0  0  0
   50.7700   30.4070   47.8610 O   0  0  0  0  0  0  0  0  0  0  0  0
   50.6760   32.0200   49.4820 N   0  0  0  0  0  0  0  0  0  0  0  0
   51.2050   32.0410   50.7160 C   0  0  0  0  0  0  0  0  0  0  0  0
   51.0180   33.0810   51.6180 O   0  0  0  0  0  0  0  0  0  0  0  0
   53.1603   27.6473   52.6140 H   0  0  0  0  0  0  0  0  0  0  0  0
   54.9534   27.1023   52.9572 H   0  0  0  0  0  0  0  0  0  0  0  0
   56.7340   28.8530   52.8900 H   0  0  0  0  0  0  0  0  0  0  0  0
   59.9593   32.7860   52.2268 H   0  0  0  0  0  0  0  0  0  0  0  0
   59.7934   31.2020   53.0682 H   0  0  0  0  0  0  0  0  0  0  0  0
   61.5121   31.2805   51.1655 H   0  0  0  0  0  0  0  0  0  0  0  0
   60.2697   29.9787   51.0576 H   0  0  0  0  0  0  0  0  0  0  0  0
   61.9910   33.0234   49.5265 H   0  0  0  0  0  0  0  0  0  0  0  0
   64.2552   32.4473   48.5827 H   0  0  0  0  0  0  0  0  0  0  0  0
   63.6132   31.1135   47.8048 H   0  0  0  0  0  0  0  0  0  0  0  0
   63.9546   33.9047   46.6733 H   0  0  0  0  0  0  0  0  0  0  0  0
   63.2883   32.6970   45.7232 H   0  0  0  0  0  0  0  0  0  0  0  0
   61.8088   34.6195   47.5372 H   0  0  0  0  0  0  0  0  0  0  0  0
   60.9542   33.4737   46.6681 H   0  0  0  0  0  0  0  0  0  0  0  0
   58.4350   32.0534   48.4219 H   0  0  0  0  0  0  0  0  0  0  0  0
   58.2737   30.4855   49.2920 H   0  0  0  0  0  0  0  0  0  0  0  0
   57.9808   33.3069   50.4371 H   0  0  0  0  0  0  0  0  0  0  0  0
   56.7278   32.0190   50.3260 H   0  0  0  0  0  0  0  0  0  0  0  0
   54.4708   32.4521   52.5050 H   0  0  0  0  0  0  0  0  0  0  0  0
   51.8616   30.2625   53.0612 H   0  0  0  0  0  0  0  0  0  0  0  0
  1  2  2  0
  2  3  1  0
  3  4  1  0
  4  5  1  0
  5  6  2  0
  5  7  1  0
  7  8  1  0
  8  9  1  0
  9 10  1  0
 10 11  1  0
 11 12  2  0
 11 13  1  0
 13 14  1  0
 14 15  1  0
 15 16  1  0
 10 17  1  0
 17 18  1  0
  4 19  2  0
 19 20  1  0
 20 21  2  3
 21 22  1  0
 22 23  1  0
 23 24  1  0
 24 25  2  0
 24 26  1  0
 26 27  1  0
 27 28  1  0
 20  2  1  0
 27 22  2  0
 18  7  1  0
 16 13  1  0
  1 29  1  0
  1 30  1  0
  3 31  1  0
  8 32  1  0
  8 33  1  0
  9 34  1  0
  9 35  1  0
 13 36  1  0
 14 37  1  0
 14 38  1  0
 15 39  1  0
 15 40  1  0
 16 41  1  0
 16 42  1  0
 17 43  1  0
 17 44  1  0
 18 45  1  0
 18 46  1  0
 19 47  1  0
 21 48  1  0
M  CHG  3  23  -1  26  -1  28  -1
M  END
>  <UniqueID>  (80) 
76

>  <SMILES>  (80) 
C=c1[nH]c(C(=O)N2CCN(C(=O)C3CCC3)CC2)cc1=Cc1[n-]c(=O)[n-]c1[O-]

>  <Energy>  (80) 
183.979616480056

>  <Genealogy>  (80) 
C=c1[nH]c(C(=O)N2CCN(C(=O)C3CCC3)CC2)cc1=Cc1[n-]c(=O)[n-]c1[O-] (protonated)
C=c1[nH]c(C(=O)N2CCN(C(=O)C3CCC3)CC2)cc1=Cc1[n-]c(=O)[n-]c1[O-] (3D coordinates assigned)
C=c1[nH]c(C(=O)N2CCN(C(=O)C3CCC3)CC2)cc1=Cc1[n-]c(=O)[n-]c1[O-] (nonaromatic ring conformer: 183.979616480056 kcal/mol)

>  <smiles>  (80) 
C=c1[nH]c(C(=O)N2CCN(C(=O)C3CCC3)CC2)cc1=Cc1[nH]c(=O)[nH]c1O

>  <score_type>  (80) 
oracle

>  <origin>  (80) 
adg

>  <m_score__min__energy>  (80) 
-17.579999999999998

>  <m_primary>  (80) 
energy

$$$$
80:0
     RDKit          3D

 77 82  0  0  0  0  0  0  0  0999 V2000
   60.9590   29.9520   47.3850 O   0  0  0  0  0  0  0  0  0  0  0  0
   60.4390   30.9370   47.9720 C   0  0  0  0  0  0  0  0  0  0  0  0
   59.0180   31.0360   48.0750 N   0  0  0  0  0  0  0  0  0  0  0  0
   58.2960   32.3030   48.1550 C   0  0  0  0  0  0  0  0  0  0  0  0
   58.5920   33.0930   46.9010 C   0  0  0  0  0  0  0  0  0  0  0  0
   59.2020   34.3540   47.0520 C   0  0  0  0  0  0  0  0  0  0  0  0
   59.6060   35.0890   45.9440 C   0  0  0  0  0  0  0  0  0  0  0  0
   59.4270   34.5720   44.6670 C   0  0  0  0  0  0  0  0  0  0  0  0
   58.8390   33.3180   44.4920 C   0  0  0  0  0  0  0  0  0  0  0  0
   58.3940   32.5600   45.5920 C   0  0  0  0  0  0  0  0  0  0  0  0
   57.7800   31.2090   45.3460 C   0  0  0  0  0  0  0  0  0  0  0  0
   56.6220   31.1330   44.8510 O   0  0  0  0  0  0  0  0  0  0  0  0
   58.4700   29.9790   45.6960 N   0  0  0  0  0  0  0  0  0  0  0  0
   59.5190   29.6650   44.7040 C   0  0  0  0  0  0  0  0  0  0  0  0
   60.2320   28.3450   45.0690 C   0  0  0  0  0  0  0  0  0  0  0  0
   59.5520   27.6170   46.0830 O   0  0  0  0  0  0  0  0  0  0  0  0
   58.1840   27.4960   45.7530 C   0  0  0  0  0  0  0  0  0  0  0  0
   57.4910   28.8700   45.7890 C   0  0  0  0  0  0  0  0  0  0  0  0
   61.2780   32.0570   48.4410 C   0  0  0  0  0  0  0  0  0  0  0  0
   62.1640   32.6640   47.5300 C   0  0  0  0  0  0  0  0  0  0  0  0
   62.8610   33.8200   47.8860 C   0  0  0  0  0  0  0  0  0  0  0  0
   62.6890   34.3850   49.1500 C   0  0  0  0  0  0  0  0  0  0  0  0
   61.8330   33.7830   50.0730 C   0  0  0  0  0  0  0  0  0  0  0  0
   61.1290   32.6170   49.7350 C   0  0  0  0  0  0  0  0  0  0  0  0
   60.3440   31.9410   50.7980 C   0  0  0  0  0  0  0  0  0  0  0  0
   59.0130   32.3550   51.0020 C   0  0  0  0  0  0  0  0  0  0  0  0
   58.2030   31.7170   51.9380 C   0  0  0  0  0  0  0  0  0  0  0  0
   58.7050   30.6370   52.6610 C   0  0  0  0  0  0  0  0  0  0  0  0
   60.0180   30.2070   52.4700 C   0  0  0  0  0  0  0  0  0  0  0  0
   60.8570   30.8550   51.5470 C   0  0  0  0  0  0  0  0  0  0  0  0
   62.2690   30.4280   51.4550 C   0  0  0  0  0  0  0  0  0  0  0  0
   62.5700   29.3400   50.8840 O   0  0  0  0  0  0  0  0  0  0  0  0
   63.3180   31.3050   51.8760 N   0  0  0  0  0  0  0  0  0  0  0  0
   64.2220   31.8800   50.8810 C   0  0  0  0  0  0  0  0  0  0  0  0
   65.5630   31.1130   50.8710 C   0  0  0  0  0  0  0  0  0  0  0  0
   65.5750   30.0440   51.8960 N   0  0  0  0  0  0  0  0  0  0  0  0
   66.7590   29.1480   51.9490 C   0  0  0  0  0  0  0  0  0  0  0  0
   67.5200   28.9900   50.6330 C   0  0  0  0  0  0  0  0  0  0  0  0
   66.7400   27.8110   51.1950 C   0  0  0  0  0  0  0  0  0  0  0  0
   65.2320   30.5580   53.2380 C   0  0  0  0  0  0  0  0  0  0  0  0
   63.8260   31.1970   53.2470 C   0  0  0  0  0  0  0  0  0  0  0  0
   57.2152   32.1121   48.2288 H   0  0  0  0  0  0  0  0  0  0  0  0
   58.6140   32.8670   49.0443 H   0  0  0  0  0  0  0  0  0  0  0  0
   59.3607   34.7624   48.0610 H   0  0  0  0  0  0  0  0  0  0  0  0
   60.0669   36.0788   46.0779 H   0  0  0  0  0  0  0  0  0  0  0  0
   59.7498   35.1529   43.7905 H   0  0  0  0  0  0  0  0  0  0  0  0
   58.7211   32.9144   43.4755 H   0  0  0  0  0  0  0  0  0  0  0  0
   58.9440   30.0910   46.6220 H   0  0  0  0  0  0  0  0  0  0  0  0
   59.0586   29.5647   43.7100 H   0  0  0  0  0  0  0  0  0  0  0  0
   60.2588   30.4790   44.6994 H   0  0  0  0  0  0  0  0  0  0  0  0
   60.2948   27.7179   44.1674 H   0  0  0  0  0  0  0  0  0  0  0  0
   61.2292   28.6017   45.4559 H   0  0  0  0  0  0  0  0  0  0  0  0
   58.0927   27.0721   44.7421 H   0  0  0  0  0  0  0  0  0  0  0  0
   57.7001   26.8369   46.4888 H   0  0  0  0  0  0  0  0  0  0  0  0
   56.7920   28.9393   44.9425 H   0  0  0  0  0  0  0  0  0  0  0  0
   56.9587   28.9612   46.7473 H   0  0  0  0  0  0  0  0  0  0  0  0
   62.3077   32.2246   46.5319 H   0  0  0  0  0  0  0  0  0  0  0  0
   63.5491   34.2877   47.1665 H   0  0  0  0  0  0  0  0  0  0  0  0
   63.2283   35.3052   49.4190 H   0  0  0  0  0  0  0  0  0  0  0  0
   61.7092   34.2254   51.0725 H   0  0  0  0  0  0  0  0  0  0  0  0
   58.6085   33.1926   50.4147 H   0  0  0  0  0  0  0  0  0  0  0  0
   57.1726   32.0638   52.1056 H   0  0  0  0  0  0  0  0  0  0  0  0
   58.0612   30.1197   53.3876 H   0  0  0  0  0  0  0  0  0  0  0  0
   60.4007   29.3524   53.0473 H   0  0  0  0  0  0  0  0  0  0  0  0
   63.7575   31.8124   49.8862 H   0  0  0  0  0  0  0  0  0  0  0  0
   64.4130   32.9329   51.1360 H   0  0  0  0  0  0  0  0  0  0  0  0
   65.7107   30.6610   49.8791 H   0  0  0  0  0  0  0  0  0  0  0  0
   66.3724   31.8226   51.0976 H   0  0  0  0  0  0  0  0  0  0  0  0
   66.9920   29.4258   52.9875 H   0  0  0  0  0  0  0  0  0  0  0  0
   67.1630   29.5027   49.7277 H   0  0  0  0  0  0  0  0  0  0  0  0
   68.5609   29.1502   50.3154 H   0  0  0  0  0  0  0  0  0  0  0  0
   65.8190   27.4734   50.6972 H   0  0  0  0  0  0  0  0  0  0  0  0
   66.9828   26.7694   51.4523 H   0  0  0  0  0  0  0  0  0  0  0  0
   65.2530   29.7261   53.9573 H   0  0  0  0  0  0  0  0  0  0  0  0
   65.9671   31.3280   53.5152 H   0  0  0  0  0  0  0  0  0  0  0  0
   63.1442   30.5699   53.8402 H   0  0  0  0  0  0  0  0  0  0  0  0
   63.8878   32.2018   53.6904 H   0  0  0  0  0  0  0  0  0  0  0  0
  1  2  2  0
  2  3  1  0
  3  4  1  0
  4  5  1  0
  5  6  2  0
  6  7  1  0
  7  8  2  0
  8  9  1  0
  9 10  2  0
 10 11  1  0
 11 12  2  0
 11 13  1  0
 13 14  1  0
 14 15  1  0
 15 16  1  0
 16 17  1  0
 17 18  1  0
  2 19  1  0
 19 20  2  0
 20 21  1  0
 21 22  2  0
 22 23  1  0
 23 24  2  0
 24 25  1  0
 25 26  2  0
 26 27  1  0
 27 28  2  0
 28 29  1  0
 29 30  2  0
 30 31  1  0
 31 32  2  0
 31 33  1  0
 33 34  1  0
 34 35  1  0
 35 36  1  0
 36 37  1  0
 37 38  1  0
 38 39  1  0
 36 40  1  0
 40 41  1  0
 10  5  1  0
 18 13  1  0
 24 19  1  0
 30 25  1  0
 41 33  1  0
 39 37  1  0
  4 42  1  0
  4 43  1  0
  6 44  1  0
  7 45  1  0
  8 46  1  0
  9 47  1  0
 13 48  1  0
 14 49  1  0
 14 50  1  0
 15 51  1  0
 15 52  1  0
 17 53  1  0
 17 54  1  0
 18 55  1  0
 18 56  1  0
 20 57  1  0
 21 58  1  0
 22 59  1  0
 23 60  1  0
 26 61  1  0
 27 62  1  0
 28 63  1  0
 29 64  1  0
 34 65  1  0
 34 66  1  0
 35 67  1  0
 35 68  1  0
 37 69  1  0
 38 70  1  0
 38 71  1  0
 39 72  1  0
 39 73  1  0
 40 74  1  0
 40 75  1  0
 41 76  1  0
 41 77  1  0
M  CHG  2   3  -1  13   1
M  END
>  <UniqueID>  (81) 
77

>  <SMILES>  (81) 
O=C([N-]Cc1ccccc1C(=O)[NH+]1CCOCC1)c1ccccc1-c1ccccc1C(=O)N1CCN(C2CC2)CC1

>  <Energy>  (81) 
396.99283889989596

>  <Genealogy>  (81) 
O=C([N-]Cc1ccccc1C(=O)[NH+]1CCOCC1)c1ccccc1-c1ccccc1C(=O)N1CCN(C2CC2)CC1 (protonated)
O=C([N-]Cc1ccccc1C(=O)[NH+]1CCOCC1)c1ccccc1-c1ccccc1C(=O)N1CCN(C2CC2)CC1 (3D coordinates assigned)
O=C([N-]Cc1ccccc1C(=O)[NH+]1CCOCC1)c1ccccc1-c1ccccc1C(=O)N1CCN(C2CC2)CC1 (nonaromatic ring conformer: 396.99283889989596 kcal/mol)

>  <smiles>  (81) 
O=C(NCc1ccccc1C(=O)N1CCOCC1)c1ccccc1-c1ccccc1C(=O)N1CCN(C2CC2)CC1

>  <score_type>  (81) 
oracle

>  <origin>  (81) 
adg

>  <m_score__min__energy>  (81) 
-9.4199999999999999

>  <m_primary>  (81) 
energy

$$$$
81:0
     RDKit          3D

 46 49  0  0  0  0  0  0  0  0999 V2000
   53.8300   28.8190   54.1600 C   0  0  0  0  0  0  0  0  0  0  0  0
   54.5820   29.5640   53.3460 C   0  0  0  0  0  0  0  0  0  0  0  0
   55.8750   29.3700   53.2070 O   0  0  0  0  0  0  0  0  0  0  0  0
   56.3400   30.2400   52.3440 C   0  0  0  0  0  0  0  0  0  0  0  0
   57.7440   30.3340   51.8900 C   0  0  0  0  0  0  0  0  0  0  0  0
   58.1960   29.3640   51.2210 O   0  0  0  0  0  0  0  0  0  0  0  0
   58.5910   31.4980   52.1100 N   0  0  0  0  0  0  0  0  0  0  0  0
   58.1910   32.6670   51.3040 C   0  0  0  0  0  0  0  0  0  0  0  0
   58.7420   32.6130   49.8830 C   0  0  0  0  0  0  0  0  0  0  0  0
   60.2090   32.4940   49.8780 N   0  0  0  0  0  0  0  0  0  0  0  0
   60.9320   33.7970   49.8540 C   0  0  0  0  0  0  0  0  0  0  0  0
   62.3830   33.7750   50.3340 C   0  0  0  0  0  0  0  0  0  0  0  0
   62.8510   34.1140   48.9230 C   0  0  0  0  0  0  0  0  0  0  0  0
   61.4010   34.2150   48.4580 C   0  0  0  0  0  0  0  0  0  0  0  0
   60.7270   31.3760   50.7030 C   0  0  0  0  0  0  0  0  0  0  0  0
   60.0460   31.2070   52.0810 C   0  0  0  0  0  0  0  0  0  0  0  0
   55.3190   31.0450   51.8780 C   0  0  0  0  0  0  0  0  0  0  0  0
   54.1700   30.6240   52.5320 C   0  0  0  0  0  0  0  0  0  0  0  0
   52.9250   31.1350   52.4320 C   0  0  0  0  0  0  0  0  0  0  0  0
   52.1320   31.2280   51.1850 C   0  0  0  0  0  0  0  0  0  0  0  0
   52.1070   30.3200   50.1930 N   0  0  0  0  0  0  0  0  0  0  0  0
   51.2500   30.8510   49.2970 C   0  0  0  0  0  0  0  0  0  0  0  0
   50.9640   30.2820   48.2100 O   0  0  0  0  0  0  0  0  0  0  0  0
   50.7130   32.0360   49.6570 N   0  0  0  0  0  0  0  0  0  0  0  0
   51.2800   32.2590   50.8540 C   0  0  0  0  0  0  0  0  0  0  0  0
   51.0230   33.3810   51.6310 O   0  0  0  0  0  0  0  0  0  0  0  0
   52.7512   29.0160   54.2459 H   0  0  0  0  0  0  0  0  0  0  0  0
   54.2893   28.0083   54.7446 H   0  0  0  0  0  0  0  0  0  0  0  0
   58.3990   31.7770   53.1040 H   0  0  0  0  0  0  0  0  0  0  0  0
   57.0927   32.7027   51.2553 H   0  0  0  0  0  0  0  0  0  0  0  0
   58.6038   33.5641   51.7886 H   0  0  0  0  0  0  0  0  0  0  0  0
   58.3110   31.7434   49.3652 H   0  0  0  0  0  0  0  0  0  0  0  0
   58.4696   33.5478   49.3712 H   0  0  0  0  0  0  0  0  0  0  0  0
   60.1918   34.3884   50.4129 H   0  0  0  0  0  0  0  0  0  0  0  0
   62.6204   34.5444   51.0835 H   0  0  0  0  0  0  0  0  0  0  0  0
   62.7839   32.8951   50.8585 H   0  0  0  0  0  0  0  0  0  0  0  0
   63.4111   35.0580   48.8515 H   0  0  0  0  0  0  0  0  0  0  0  0
   63.5562   33.4520   48.3990 H   0  0  0  0  0  0  0  0  0  0  0  0
   61.0921   35.2290   48.1642 H   0  0  0  0  0  0  0  0  0  0  0  0
   61.0603   33.6680   47.5665 H   0  0  0  0  0  0  0  0  0  0  0  0
   60.5883   30.4426   50.1377 H   0  0  0  0  0  0  0  0  0  0  0  0
   61.7817   31.6108   50.9094 H   0  0  0  0  0  0  0  0  0  0  0  0
   60.1908   30.1662   52.4061 H   0  0  0  0  0  0  0  0  0  0  0  0
   60.5171   31.9463   52.7455 H   0  0  0  0  0  0  0  0  0  0  0  0
   55.4003   31.8553   51.1386 H   0  0  0  0  0  0  0  0  0  0  0  0
   52.4604   31.5142   53.3541 H   0  0  0  0  0  0  0  0  0  0  0  0
  1  2  2  0
  2  3  1  0
  3  4  1  0
  4  5  1  0
  5  6  2  0
  5  7  1  0
  7  8  1  0
  8  9  1  0
  9 10  1  0
 10 11  1  0
 11 12  1  0
 12 13  1  0
 13 14  1  0
 10 15  1  0
 15 16  1  0
  4 17  2  0
 17 18  1  0
 18 19  2  3
 19 20  1  0
 20 21  1  0
 21 22  1  0
 22 23  2  0
 22 24  1  0
 24 25  1  0
 25 26  1  0
 18  2  1  0
 25 20  2  0
 16  7  1  0
 14 11  1  0
  1 27  1  0
  1 28  1  0
  7 29  1  0
  8 30  1  0
  8 31  1  0
  9 32  1  0
  9 33  1  0
 11 34  1  0
 12 35  1  0
 12 36  1  0
 13 37  1  0
 13 38  1  0
 14 39  1  0
 14 40  1  0
 15 41  1  0
 15 42  1  0
 16 43  1  0
 16 44  1  0
 17 45  1  0
 19 46  1  0
M  CHG  4   7   1  21  -1  24  -1  26  -1
M  END
>  <UniqueID>  (82) 
78

>  <SMILES>  (82) 
C=c1oc(C(=O)[NH+]2CCN(C3CCC3)CC2)cc1=Cc1[n-]c(=O)[n-]c1[O-]

>  <Energy>  (82) 
197.74919461686818

>  <Genealogy>  (82) 
C=c1oc(C(=O)[NH+]2CCN(C3CCC3)CC2)cc1=Cc1[n-]c(=O)[n-]c1[O-] (protonated)
C=c1oc(C(=O)[NH+]2CCN(C3CCC3)CC2)cc1=Cc1[n-]c(=O)[n-]c1[O-] (3D coordinates assigned)
C=c1oc(C(=O)[NH+]2CCN(C3CCC3)CC2)cc1=Cc1[n-]c(=O)[n-]c1[O-] (nonaromatic ring conformer: 197.74919461686818 kcal/mol)

>  <smiles>  (82) 
C=c1oc(C(=O)N2CCN(C3CCC3)CC2)cc1=Cc1[nH]c(=O)[nH]c1O

>  <score_type>  (82) 
oracle

>  <origin>  (82) 
adg

>  <m_score__min__energy>  (82) 
-16.260000000000002

>  <m_primary>  (82) 
energy

$$$$
82:0
     RDKit          3D

 43 46  0  0  0  0  0  0  0  0999 V2000
   55.1830   29.9510   43.7140 C   0  0  0  0  0  0  0  0  0  0  0  0
   56.1880   29.4430   44.4310 C   0  0  0  0  0  0  0  0  0  0  0  0
   56.0490   28.3780   45.2460 N   0  0  0  0  0  0  0  0  0  0  0  0
   57.2650   28.1450   45.7910 C   0  0  0  0  0  0  0  0  0  0  0  0
   57.5710   27.1720   46.6680 C   0  0  0  0  0  0  0  0  0  0  0  0
   57.0100   25.8040   46.6800 C   0  0  0  0  0  0  0  0  0  0  0  0
   57.6510   24.6880   47.0710 N   0  0  0  0  0  0  0  0  0  0  0  0
   56.7150   23.7240   46.9440 C   0  0  0  0  0  0  0  0  0  0  0  0
   56.9440   22.5160   47.2190 O   0  0  0  0  0  0  0  0  0  0  0  0
   55.5140   24.1540   46.5050 N   0  0  0  0  0  0  0  0  0  0  0  0
   55.7170   25.4720   46.3460 C   0  0  0  0  0  0  0  0  0  0  0  0
   54.7380   26.3550   45.9080 O   0  0  0  0  0  0  0  0  0  0  0  0
   58.1820   29.0730   45.3270 C   0  0  0  0  0  0  0  0  0  0  0  0
   57.4970   29.9060   44.4640 C   0  0  0  0  0  0  0  0  0  0  0  0
   58.1140   31.0170   43.6600 C   0  0  0  0  0  0  0  0  0  0  0  0
   58.2880   32.2450   44.5140 C   0  0  0  0  0  0  0  0  0  0  0  0
   57.6970   33.4570   44.1270 C   0  0  0  0  0  0  0  0  0  0  0  0
   57.8260   34.5910   44.9300 C   0  0  0  0  0  0  0  0  0  0  0  0
   58.5410   34.5250   46.1290 C   0  0  0  0  0  0  0  0  0  0  0  0
   59.1360   33.3190   46.5400 C   0  0  0  0  0  0  0  0  0  0  0  0
   59.8910   33.2450   47.8150 C   0  0  0  0  0  0  0  0  0  0  0  0
   59.5320   32.4250   48.7010 O   0  0  0  0  0  0  0  0  0  0  0  0
   61.0220   34.1100   48.0240 N   0  0  0  0  0  0  0  0  0  0  0  0
   62.4650   33.8270   48.0590 C   0  0  0  0  0  0  0  0  0  0  0  0
   63.1870   33.8370   46.7230 C   0  0  0  0  0  0  0  0  0  0  0  0
   62.9100   32.5150   47.4380 C   0  0  0  0  0  0  0  0  0  0  0  0
   59.0010   32.1800   45.7220 C   0  0  0  0  0  0  0  0  0  0  0  0
   55.3557   30.8224   43.0652 H   0  0  0  0  0  0  0  0  0  0  0  0
   54.1822   29.4982   43.7720 H   0  0  0  0  0  0  0  0  0  0  0  0
   55.1560   27.8670   45.4130 H   0  0  0  0  0  0  0  0  0  0  0  0
   58.3066   27.4167   47.4484 H   0  0  0  0  0  0  0  0  0  0  0  0
   59.2474   29.1347   45.5935 H   0  0  0  0  0  0  0  0  0  0  0  0
   59.0964   30.6924   43.2865 H   0  0  0  0  0  0  0  0  0  0  0  0
   57.4514   31.2588   42.8159 H   0  0  0  0  0  0  0  0  0  0  0  0
   57.1294   33.5137   43.1865 H   0  0  0  0  0  0  0  0  0  0  0  0
   57.3637   35.5393   44.6184 H   0  0  0  0  0  0  0  0  0  0  0  0
   58.6391   35.4234   46.7561 H   0  0  0  0  0  0  0  0  0  0  0  0
   62.6222   34.3191   49.0301 H   0  0  0  0  0  0  0  0  0  0  0  0
   62.6397   34.0908   45.8032 H   0  0  0  0  0  0  0  0  0  0  0  0
   64.0838   34.3349   46.3257 H   0  0  0  0  0  0  0  0  0  0  0  0
   62.1631   31.8161   47.0333 H   0  0  0  0  0  0  0  0  0  0  0  0
   63.5245   31.6650   47.7696 H   0  0  0  0  0  0  0  0  0  0  0  0
   59.4591   31.2295   46.0329 H   0  0  0  0  0  0  0  0  0  0  0  0
  1  2  2  0
  2  3  1  0
  3  4  1  0
  4  5  2  3
  5  6  1  0
  6  7  1  0
  7  8  1  0
  8  9  2  0
  8 10  1  0
 10 11  1  0
 11 12  1  0
  4 13  1  0
 13 14  2  0
 14 15  1  0
 15 16  1  0
 16 17  2  0
 17 18  1  0
 18 19  2  0
 19 20  1  0
 20 21  1  0
 21 22  2  0
 21 23  1  0
 23 24  1  0
 24 25  1  0
 25 26  1  0
 20 27  2  0
 14  2  1  0
 27 16  1  0
 11  6  2  0
 26 24  1  0
  1 28  1  0
  1 29  1  0
  3 30  1  0
  5 31  1  0
 13 32  1  0
 15 33  1  0
 15 34  1  0
 17 35  1  0
 18 36  1  0
 19 37  1  0
 24 38  1  0
 25 39  1  0
 25 40  1  0
 26 41  1  0
 26 42  1  0
 27 43  1  0
M  CHG  4   7  -1  10  -1  12  -1  23  -1
M  END
>  <UniqueID>  (83) 
79

>  <SMILES>  (83) 
C=c1[nH]c(=Cc2[n-]c(=O)[n-]c2[O-])cc1Cc1cccc(C(=O)[N-]C2CC2)c1

>  <Energy>  (83) 
374.7610177115454

>  <Genealogy>  (83) 
C=c1[nH]c(=Cc2[n-]c(=O)[n-]c2[O-])cc1Cc1cccc(C(=O)[N-]C2CC2)c1 (protonated)
C=c1[nH]c(=Cc2[n-]c(=O)[n-]c2[O-])cc1Cc1cccc(C(=O)[N-]C2CC2)c1 (3D coordinates assigned)
C=c1[nH]c(=Cc2[n-]c(=O)[n-]c2[O-])cc1Cc1cccc(C(=O)[N-]C2CC2)c1 (nonaromatic ring conformer: 374.7610177115454 kcal/mol)

>  <smiles>  (83) 
C=c1[nH]c(=Cc2[nH]c(=O)[nH]c2O)cc1Cc1cccc(C(=O)NC2CC2)c1

>  <score_type>  (83) 
oracle

>  <origin>  (83) 
adg

>  <m_score__min__energy>  (83) 
-18.079999999999998

>  <m_primary>  (83) 
energy

$$$$
83:0
     RDKit          3D

 40 41  0  0  0  0  0  0  0  0999 V2000
   56.2680   20.0220   44.0550 N   0  0  0  0  0  0  0  0  0  0  0  0
   56.8210   21.5750   43.5300 S   0  0  0  0  0  0  0  0  0  0  0  0
   58.2290   21.4660   43.0150 O   0  0  0  0  0  0  0  0  0  0  0  0
   55.9300   22.0600   42.4220 O   0  0  0  0  0  0  0  0  0  0  0  0
   56.7800   22.7020   44.8830 C   0  0  0  0  0  0  0  0  0  0  0  0
   55.8040   22.5920   45.8830 C   0  0  0  0  0  0  0  0  0  0  0  0
   55.7710   23.5100   46.9360 C   0  0  0  0  0  0  0  0  0  0  0  0
   56.7160   24.5380   47.0000 C   0  0  0  0  0  0  0  0  0  0  0  0
   57.7120   24.6460   46.0210 C   0  0  0  0  0  0  0  0  0  0  0  0
   58.6520   25.7260   46.1010 N   0  0  0  0  0  0  0  0  0  0  0  0
   58.3360   27.0680   46.4910 C   0  0  0  0  0  0  0  0  0  0  0  0
   59.0480   27.6670   47.3410 O   0  0  0  0  0  0  0  0  0  0  0  0
   57.1730   27.7440   45.9010 C   0  0  0  0  0  0  0  0  0  0  0  0
   56.1020   27.1000   45.7310 O   0  0  0  0  0  0  0  0  0  0  0  0
   57.2730   29.1110   45.4700 N   0  0  0  0  0  0  0  0  0  0  0  0
   56.3490   29.7090   44.5490 C   0  0  0  0  0  0  0  0  0  0  0  0
   55.1370   29.3670   44.5570 O   0  0  0  0  0  0  0  0  0  0  0  0
   56.7830   30.7810   43.6300 C   0  0  0  0  0  0  0  0  0  0  0  0
   57.9210   31.4840   43.7510 C   0  0  0  0  0  0  0  0  0  0  0  0
   58.1790   32.5140   44.7820 C   0  0  0  0  0  0  0  0  0  0  0  0
   57.7880   32.2740   46.1080 C   0  0  0  0  0  0  0  0  0  0  0  0
   58.0250   33.2330   47.0980 C   0  0  0  0  0  0  0  0  0  0  0  0
   58.6360   34.4460   46.7680 C   0  0  0  0  0  0  0  0  0  0  0  0
   59.0010   34.7060   45.4450 C   0  0  0  0  0  0  0  0  0  0  0  0
   58.7630   33.7510   44.4520 C   0  0  0  0  0  0  0  0  0  0  0  0
   57.7250   23.7330   44.9500 C   0  0  0  0  0  0  0  0  0  0  0  0
   56.9890   19.6410   44.7070 H   0  0  0  0  0  0  0  0  0  0  0  0
   56.2640   19.3990   43.2160 H   0  0  0  0  0  0  0  0  0  0  0  0
   55.0622   21.7810   45.8387 H   0  0  0  0  0  0  0  0  0  0  0  0
   55.0001   23.4235   47.7159 H   0  0  0  0  0  0  0  0  0  0  0  0
   56.6773   25.2661   47.8236 H   0  0  0  0  0  0  0  0  0  0  0  0
   58.1310   29.6520   45.7220 H   0  0  0  0  0  0  0  0  0  0  0  0
   56.1244   31.0217   42.7825 H   0  0  0  0  0  0  0  0  0  0  0  0
   58.7237   31.2782   43.0276 H   0  0  0  0  0  0  0  0  0  0  0  0
   57.2928   31.3273   46.3700 H   0  0  0  0  0  0  0  0  0  0  0  0
   57.7299   33.0322   48.1385 H   0  0  0  0  0  0  0  0  0  0  0  0
   58.8293   35.1954   47.5497 H   0  0  0  0  0  0  0  0  0  0  0  0
   59.4762   35.6632   45.1841 H   0  0  0  0  0  0  0  0  0  0  0  0
   59.0335   33.9676   43.4080 H   0  0  0  0  0  0  0  0  0  0  0  0
   58.4835   23.8302   44.1593 H   0  0  0  0  0  0  0  0  0  0  0  0
  1  2  1  0
  2  3  2  0
  2  4  2  0
  2  5  1  0
  5  6  2  0
  6  7  1  0
  7  8  2  0
  8  9  1  0
  9 10  1  0
 10 11  1  0
 11 12  2  0
 11 13  1  0
 13 14  2  0
 13 15  1  0
 15 16  1  0
 16 17  2  0
 16 18  1  0
 18 19  2  3
 19 20  1  0
 20 21  2  0
 21 22  1  0
 22 23  2  0
 23 24  1  0
 24 25  2  0
  9 26  2  0
 26  5  1  0
 25 20  1  0
  1 27  1  0
  1 28  1  0
  6 29  1  0
  7 30  1  0
  8 31  1  0
 15 32  1  0
 18 33  1  0
 19 34  1  0
 21 35  1  0
 22 36  1  0
 23 37  1  0
 24 38  1  0
 25 39  1  0
 26 40  1  0
M  CHG  1  10  -1
M  END
>  <UniqueID>  (84) 
80

>  <SMILES>  (84) 
NS(=O)(=O)c1cccc([N-]C(=O)C(=O)NC(=O)C=Cc2ccccc2)c1

>  <Energy>  (84) 
48.18467456745882

>  <Genealogy>  (84) 
NS(=O)(=O)c1cccc([N-]C(=O)C(=O)NC(=O)C=Cc2ccccc2)c1 (protonated)
NS(=O)(=O)c1cccc([N-]C(=O)C(=O)NC(=O)C=Cc2ccccc2)c1 (3D coordinates assigned)
NS(=O)(=O)c1cccc([N-]C(=O)C(=O)NC(=O)C=Cc2ccccc2)c1 (optimized conformer: 48.18467456745882 kcal/mol)

>  <smiles>  (84) 
NS(=O)(=O)c1cccc(NC(=O)C(=O)NC(=O)C=Cc2ccccc2)c1

>  <score_type>  (84) 
oracle

>  <origin>  (84) 
adg

>  <m_score__min__energy>  (84) 
-10.48

>  <m_primary>  (84) 
energy

$$$$
84:0
     RDKit          3D

 63 67  0  0  0  0  0  0  0  0999 V2000
   52.9900   21.4460   47.6940 C   0  0  0  0  0  0  0  0  0  0  0  0
   54.0880   22.4250   47.3640 C   0  0  0  0  0  0  0  0  0  0  0  0
   53.9580   23.2070   46.2100 C   0  0  0  0  0  0  0  0  0  0  0  0
   54.9220   24.1480   45.8750 C   0  0  0  0  0  0  0  0  0  0  0  0
   56.0340   24.3530   46.6970 C   0  0  0  0  0  0  0  0  0  0  0  0
   56.9660   25.4440   46.3420 C   0  0  0  0  0  0  0  0  0  0  0  0
   56.9890   25.9800   45.0490 C   0  0  0  0  0  0  0  0  0  0  0  0
   57.8900   27.0050   44.7210 C   0  0  0  0  0  0  0  0  0  0  0  0
   57.8230   27.5800   43.3600 C   0  0  0  0  0  0  0  0  0  0  0  0
   58.2620   26.9140   42.3830 O   0  0  0  0  0  0  0  0  0  0  0  0
   57.1510   28.8270   43.1420 N   0  0  0  0  0  0  0  0  0  0  0  0
   57.4580   30.0780   43.7720 C   0  0  0  0  0  0  0  0  0  0  0  0
   57.8070   31.2210   43.0290 C   0  0  0  0  0  0  0  0  0  0  0  0
   58.1270   32.4140   43.6830 C   0  0  0  0  0  0  0  0  0  0  0  0
   58.1210   32.4780   45.0810 C   0  0  0  0  0  0  0  0  0  0  0  0
   58.5530   33.9790   45.9040 S   0  0  0  0  0  0  0  0  0  0  0  0
   57.5650   34.2400   47.0060 O   0  0  0  0  0  0  0  0  0  0  0  0
   58.4670   35.1200   44.9280 O   0  0  0  0  0  0  0  0  0  0  0  0
   60.1690   33.9170   46.5780 N   0  0  0  0  0  0  0  0  0  0  0  0
   60.6060   32.5330   46.7850 C   0  0  0  0  0  0  0  0  0  0  0  0
   60.3750   32.1710   48.2440 C   0  0  0  0  0  0  0  0  0  0  0  0
   60.1360   33.4850   48.9620 C   0  0  0  0  0  0  0  0  0  0  0  0
   60.2200   34.5640   47.8930 C   0  0  0  0  0  0  0  0  0  0  0  0
   57.7860   31.3370   45.8230 C   0  0  0  0  0  0  0  0  0  0  0  0
   57.4680   30.1420   45.1700 C   0  0  0  0  0  0  0  0  0  0  0  0
   58.8110   27.4490   45.7040 C   0  0  0  0  0  0  0  0  0  0  0  0
   59.8110   28.4110   45.4390 C   0  0  0  0  0  0  0  0  0  0  0  0
   60.6930   28.8110   46.4460 C   0  0  0  0  0  0  0  0  0  0  0  0
   60.6060   28.2540   47.7220 C   0  0  0  0  0  0  0  0  0  0  0  0
   59.6450   27.2790   47.9950 C   0  0  0  0  0  0  0  0  0  0  0  0
   58.7560   26.8680   46.9960 C   0  0  0  0  0  0  0  0  0  0  0  0
   57.8500   25.8930   47.2700 N   0  0  0  0  0  0  0  0  0  0  0  0
   56.2140   23.5470   47.8490 C   0  0  0  0  0  0  0  0  0  0  0  0
   57.3810   23.7220   48.6710 N   0  0  0  0  0  0  0  0  0  0  0  0
   55.2550   22.5460   48.1640 C   0  0  0  0  0  0  0  0  0  0  0  0
   55.4720   21.6390   49.3550 C   0  0  0  0  0  0  0  0  0  0  0  0
   52.8924   21.3590   48.7862 H   0  0  0  0  0  0  0  0  0  0  0  0
   52.0405   21.8027   47.2683 H   0  0  0  0  0  0  0  0  0  0  0  0
   53.2360   20.4620   47.2683 H   0  0  0  0  0  0  0  0  0  0  0  0
   53.0804   23.0740   45.5602 H   0  0  0  0  0  0  0  0  0  0  0  0
   54.8098   24.7382   44.9536 H   0  0  0  0  0  0  0  0  0  0  0  0
   56.2968   25.5956   44.2854 H   0  0  0  0  0  0  0  0  0  0  0  0
   57.8280   31.1754   41.9301 H   0  0  0  0  0  0  0  0  0  0  0  0
   58.3850   33.3076   43.0957 H   0  0  0  0  0  0  0  0  0  0  0  0
   60.0250   31.8591   46.1383 H   0  0  0  0  0  0  0  0  0  0  0  0
   61.6722   32.4313   46.5341 H   0  0  0  0  0  0  0  0  0  0  0  0
   59.4970   31.5157   48.3418 H   0  0  0  0  0  0  0  0  0  0  0  0
   61.2328   31.6281   48.6675 H   0  0  0  0  0  0  0  0  0  0  0  0
   59.1417   33.4888   49.4325 H   0  0  0  0  0  0  0  0  0  0  0  0
   60.8738   33.6492   49.7612 H   0  0  0  0  0  0  0  0  0  0  0  0
   59.3734   35.2584   47.9986 H   0  0  0  0  0  0  0  0  0  0  0  0
   61.1571   35.1301   47.9999 H   0  0  0  0  0  0  0  0  0  0  0  0
   57.7732   31.3817   46.9220 H   0  0  0  0  0  0  0  0  0  0  0  0
   57.2240   29.2459   45.7594 H   0  0  0  0  0  0  0  0  0  0  0  0
   59.8958   28.8480   44.4331 H   0  0  0  0  0  0  0  0  0  0  0  0
   61.4603   29.5694   46.2315 H   0  0  0  0  0  0  0  0  0  0  0  0
   61.2951   28.5833   48.5136 H   0  0  0  0  0  0  0  0  0  0  0  0
   59.5866   26.8325   48.9986 H   0  0  0  0  0  0  0  0  0  0  0  0
   57.5990   23.0670   49.4540 H   0  0  0  0  0  0  0  0  0  0  0  0
   58.0710   24.4820   48.4910 H   0  0  0  0  0  0  0  0  0  0  0  0
   55.3346   22.2133   50.2831 H   0  0  0  0  0  0  0  0  0  0  0  0
   54.7461   20.8131   49.3240 H   0  0  0  0  0  0  0  0  0  0  0  0
   56.4931   21.2311   49.3240 H   0  0  0  0  0  0  0  0  0  0  0  0
  1  2  1  0
  2  3  2  0
  3  4  1  0
  4  5  2  0
  5  6  1  0
  6  7  2  0
  7  8  1  0
  8  9  1  0
  9 10  2  0
  9 11  1  0
 11 12  1  0
 12 13  2  0
 13 14  1  0
 14 15  2  0
 15 16  1  0
 16 17  2  0
 16 18  2  0
 16 19  1  0
 19 20  1  0
 20 21  1  0
 21 22  1  0
 22 23  1  0
 15 24  1  0
 24 25  2  0
  8 26  2  0
 26 27  1  0
 27 28  2  0
 28 29  1  0
 29 30  2  0
 30 31  1  0
 31 32  2  0
  5 33  1  0
 33 34  1  0
 33 35  2  0
 35 36  1  0
 35  2  1  0
 32  6  1  0
 25 12  1  0
 31 26  1  0
 23 19  1  0
  1 37  1  0
  1 38  1  0
  1 39  1  0
  3 40  1  0
  4 41  1  0
  7 42  1  0
 13 43  1  0
 14 44  1  0
 20 45  1  0
 20 46  1  0
 21 47  1  0
 21 48  1  0
 22 49  1  0
 22 50  1  0
 23 51  1  0
 23 52  1  0
 24 53  1  0
 25 54  1  0
 27 55  1  0
 28 56  1  0
 29 57  1  0
 30 58  1  0
 34 59  1  0
 34 60  1  0
 36 61  1  0
 36 62  1  0
 36 63  1  0
M  CHG  1  11  -1
M  END
>  <UniqueID>  (85) 
81

>  <SMILES>  (85) 
Cc1ccc(-c2cc(C(=O)[N-]c3ccc(S(=O)(=O)N4CCCC4)cc3)c3ccccc3n2)c(N)c1C

>  <Energy>  (85) 
92.76737902872499

>  <Genealogy>  (85) 
Cc1ccc(-c2cc(C(=O)[N-]c3ccc(S(=O)(=O)N4CCCC4)cc3)c3ccccc3n2)c(N)c1C (protonated)
Cc1ccc(-c2cc(C(=O)[N-]c3ccc(S(=O)(=O)N4CCCC4)cc3)c3ccccc3n2)c(N)c1C (3D coordinates assigned)
Cc1ccc(-c2cc(C(=O)[N-]c3ccc(S(=O)(=O)N4CCCC4)cc3)c3ccccc3n2)c(N)c1C (nonaromatic ring conformer: 92.76737902872499 kcal/mol)

>  <smiles>  (85) 
Cc1ccc(-c2cc(C(=O)Nc3ccc(S(=O)(=O)N4CCCC4)cc3)c3ccccc3n2)c(N)c1C

>  <score_type>  (85) 
oracle

>  <origin>  (85) 
adg

>  <m_score__min__energy>  (85) 
-10.970000000000001

>  <m_primary>  (85) 
energy

$$$$
85:0
     RDKit          3D

 20 20  0  0  0  0  0  0  0  0999 V2000
   57.3710   25.1860   43.7150 C   0  0  0  0  0  0  0  0  0  0  0  0
   56.8250   24.8900   45.0770 C   0  0  0  0  0  0  0  0  0  0  0  0
   57.1090   23.7920   45.6270 O   0  0  0  0  0  0  0  0  0  0  0  0
   56.0060   25.8930   45.7910 C   0  0  0  0  0  0  0  0  0  0  0  0
   54.7580   25.7330   45.8620 O   0  0  0  0  0  0  0  0  0  0  0  0
   56.5780   27.0740   46.3710 N   0  0  0  0  0  0  0  0  0  0  0  0
   57.2760   28.1040   45.6580 C   0  0  0  0  0  0  0  0  0  0  0  0
   56.5320   29.0510   44.9340 C   0  0  0  0  0  0  0  0  0  0  0  0
   55.1440   28.9750   44.9020 O   0  0  0  0  0  0  0  0  0  0  0  0
   57.1840   30.0690   44.2320 C   0  0  0  0  0  0  0  0  0  0  0  0
   58.5770   30.1590   44.2580 C   0  0  0  0  0  0  0  0  0  0  0  0
   59.3230   29.2400   44.9990 C   0  0  0  0  0  0  0  0  0  0  0  0
   58.6830   28.2170   45.7090 C   0  0  0  0  0  0  0  0  0  0  0  0
   59.7600   27.0650   46.7990 Br  0  0  0  0  0  0  0  0  0  0  0  0
   58.3343   25.7082   43.8117 H   0  0  0  0  0  0  0  0  0  0  0  0
   57.5180   24.2441   43.1662 H   0  0  0  0  0  0  0  0  0  0  0  0
   56.6619   25.8232   43.1662 H   0  0  0  0  0  0  0  0  0  0  0  0
   56.5978   30.8013   43.6574 H   0  0  0  0  0  0  0  0  0  0  0  0
   59.0871   30.9542   43.6945 H   0  0  0  0  0  0  0  0  0  0  0  0
   60.4198   29.3203   45.0250 H   0  0  0  0  0  0  0  0  0  0  0  0
  1  2  1  0
  2  3  2  0
  2  4  1  0
  4  5  2  0
  4  6  1  0
  6  7  1  0
  7  8  2  0
  8  9  1  0
  8 10  1  0
 10 11  2  0
 11 12  1  0
 12 13  2  0
 13 14  1  0
 13  7  1  0
  1 15  1  0
  1 16  1  0
  1 17  1  0
 10 18  1  0
 11 19  1  0
 12 20  1  0
M  CHG  2   6  -1   9  -1
M  END
>  <UniqueID>  (86) 
82

>  <SMILES>  (86) 
CC(=O)C(=O)[N-]c1c([O-])cccc1Br

>  <Energy>  (86) 
25.573624670937978

>  <Genealogy>  (86) 
CC(=O)C(=O)[N-]c1c([O-])cccc1Br (protonated)
CC(=O)C(=O)[N-]c1c([O-])cccc1Br (3D coordinates assigned)
CC(=O)C(=O)[N-]c1c([O-])cccc1Br (optimized conformer: 25.573624670937978 kcal/mol)

>  <smiles>  (86) 
CC(=O)C(=O)Nc1c(O)cccc1Br

>  <score_type>  (86) 
oracle

>  <origin>  (86) 
adg

>  <m_score__min__energy>  (86) 
-11.880000000000001

>  <m_primary>  (86) 
energy

$$$$
86:0
     RDKit          3D

 64 67  0  0  0  0  0  0  0  0999 V2000
   60.6330   28.3340   45.3150 C   0  0  0  0  0  0  0  0  0  0  0  0
   59.4650   28.9800   45.2680 C   0  0  0  0  0  0  0  0  0  0  0  0
   59.2660   29.9680   44.4240 O   0  0  0  0  0  0  0  0  0  0  0  0
   58.0500   30.4310   44.5840 C   0  0  0  0  0  0  0  0  0  0  0  0
   57.4780   31.5250   43.7800 C   0  0  0  0  0  0  0  0  0  0  0  0
   57.8680   32.8070   43.8520 C   0  0  0  0  0  0  0  0  0  0  0  0
   58.4590   33.4420   45.0460 C   0  0  0  0  0  0  0  0  0  0  0  0
   58.3910   32.9310   46.2940 N   0  0  0  0  0  0  0  0  0  0  0  0
   58.9710   33.7360   47.2240 C   0  0  0  0  0  0  0  0  0  0  0  0
   59.0420   33.3570   48.6160 N   0  0  0  0  0  0  0  0  0  0  0  0
   59.6410   34.2710   49.6010 C   0  0  0  0  0  0  0  0  0  0  0  0
   59.5390   33.7150   51.0280 C   0  0  0  0  0  0  0  0  0  0  0  0
   60.0480   32.2580   51.1150 C   0  0  0  0  0  0  0  0  0  0  0  0
   61.5150   32.2330   51.1200 N   0  0  0  0  0  0  0  0  0  0  0  0
   62.2670   31.0200   51.2920 C   0  0  0  0  0  0  0  0  0  0  0  0
   61.6850   29.9690   51.6730 O   0  0  0  0  0  0  0  0  0  0  0  0
   63.7370   31.0010   51.1470 C   0  0  0  0  0  0  0  0  0  0  0  0
   64.4220   31.5530   50.1320 C   0  0  0  0  0  0  0  0  0  0  0  0
   63.8030   32.2150   48.9670 C   0  0  0  0  0  0  0  0  0  0  0  0
   64.1900   33.5100   48.5840 C   0  0  0  0  0  0  0  0  0  0  0  0
   63.6010   34.1190   47.4720 C   0  0  0  0  0  0  0  0  0  0  0  0
   62.6180   33.4450   46.7440 C   0  0  0  0  0  0  0  0  0  0  0  0
   62.2250   32.1600   47.1240 C   0  0  0  0  0  0  0  0  0  0  0  0
   62.8050   31.5490   48.2410 C   0  0  0  0  0  0  0  0  0  0  0  0
   59.4980   31.3590   49.9730 C   0  0  0  0  0  0  0  0  0  0  0  0
   58.4870   32.0720   49.0710 C   0  0  0  0  0  0  0  0  0  0  0  0
   59.4920   34.9280   46.7130 C   0  0  0  0  0  0  0  0  0  0  0  0
   59.2130   34.9420   45.0530 S   0  0  0  0  0  0  0  0  0  0  0  0
   57.4170   29.7510   45.6040 C   0  0  0  0  0  0  0  0  0  0  0  0
   58.3060   28.7830   46.0350 C   0  0  0  0  0  0  0  0  0  0  0  0
   57.9810   27.8560   46.9600 C   0  0  0  0  0  0  0  0  0  0  0  0
   58.2130   26.3780   46.8330 C   0  0  0  0  0  0  0  0  0  0  0  0
   57.3340   25.7710   45.7340 C   0  0  0  0  0  0  0  0  0  0  0  0
   55.9050   25.7080   46.1700 C   0  0  0  0  0  0  0  0  0  0  0  0
   55.1420   26.6940   45.9860 O   0  0  0  0  0  0  0  0  0  0  0  0
   55.4070   24.5530   46.7580 O   0  0  0  0  0  0  0  0  0  0  0  0
   60.7775   27.5101   46.0293 H   0  0  0  0  0  0  0  0  0  0  0  0
   61.4505   28.6259   44.6394 H   0  0  0  0  0  0  0  0  0  0  0  0
   56.6753   31.2734   43.0713 H   0  0  0  0  0  0  0  0  0  0  0  0
   57.7376   33.4304   42.9551 H   0  0  0  0  0  0  0  0  0  0  0  0
   60.7020   34.4186   49.3511 H   0  0  0  0  0  0  0  0  0  0  0  0
   59.0908   35.2228   49.5641 H   0  0  0  0  0  0  0  0  0  0  0  0
   60.1429   34.3436   51.6989 H   0  0  0  0  0  0  0  0  0  0  0  0
   58.4795   33.7249   51.3235 H   0  0  0  0  0  0  0  0  0  0  0  0
   59.6682   31.8418   52.0598 H   0  0  0  0  0  0  0  0  0  0  0  0
   62.0390   33.1370   51.0560 H   0  0  0  0  0  0  0  0  0  0  0  0
   64.3167   30.4945   51.9327 H   0  0  0  0  0  0  0  0  0  0  0  0
   65.5204   31.5086   50.1717 H   0  0  0  0  0  0  0  0  0  0  0  0
   64.9583   34.0461   49.1604 H   0  0  0  0  0  0  0  0  0  0  0  0
   63.9121   35.1300   47.1701 H   0  0  0  0  0  0  0  0  0  0  0  0
   62.1532   33.9265   45.8710 H   0  0  0  0  0  0  0  0  0  0  0  0
   61.4575   31.6269   46.5437 H   0  0  0  0  0  0  0  0  0  0  0  0
   62.4779   30.5453   48.5501 H   0  0  0  0  0  0  0  0  0  0  0  0
   60.3437   31.0259   49.3535 H   0  0  0  0  0  0  0  0  0  0  0  0
   58.9727   30.5169   50.4472 H   0  0  0  0  0  0  0  0  0  0  0  0
   58.2674   31.4398   48.1980 H   0  0  0  0  0  0  0  0  0  0  0  0
   57.5625   32.2567   49.6378 H   0  0  0  0  0  0  0  0  0  0  0  0
   59.9947   35.7165   47.2923 H   0  0  0  0  0  0  0  0  0  0  0  0
   56.4070   29.9408   45.9962 H   0  0  0  0  0  0  0  0  0  0  0  0
   57.5058   28.2133   47.8855 H   0  0  0  0  0  0  0  0  0  0  0  0
   59.2701   26.2008   46.5857 H   0  0  0  0  0  0  0  0  0  0  0  0
   57.9531   25.9013   47.7897 H   0  0  0  0  0  0  0  0  0  0  0  0
   57.4078   26.3922   44.8292 H   0  0  0  0  0  0  0  0  0  0  0  0
   57.6844   24.7491   45.5270 H   0  0  0  0  0  0  0  0  0  0  0  0
  1  2  2  0
  2  3  1  0
  3  4  1  0
  4  5  1  0
  5  6  2  3
  6  7  1  0
  7  8  2  0
  8  9  1  0
  9 10  1  0
 10 11  1  0
 11 12  1  0
 12 13  1  0
 13 14  1  0
 14 15  1  0
 15 16  2  0
 15 17  1  0
 17 18  2  3
 18 19  1  0
 19 20  2  0
 20 21  1  0
 21 22  2  0
 22 23  1  0
 23 24  2  0
 13 25  1  0
 25 26  1  0
  9 27  2  0
 27 28  1  0
  4 29  2  0
 29 30  1  0
 30 31  2  3
 31 32  1  0
 32 33  1  0
 33 34  1  0
 34 35  2  0
 34 36  1  0
 30  2  1  0
 28  7  1  0
 26 10  1  0
 24 19  1  0
  1 37  1  0
  1 38  1  0
  5 39  1  0
  6 40  1  0
 11 41  1  0
 11 42  1  0
 12 43  1  0
 12 44  1  0
 13 45  1  0
 14 46  1  0
 17 47  1  0
 18 48  1  0
 20 49  1  0
 21 50  1  0
 22 51  1  0
 23 52  1  0
 24 53  1  0
 25 54  1  0
 25 55  1  0
 26 56  1  0
 26 57  1  0
 27 58  1  0
 29 59  1  0
 31 60  1  0
 32 61  1  0
 32 62  1  0
 33 63  1  0
 33 64  1  0
M  CHG  1  36  -1
M  END
>  <UniqueID>  (87) 
83

>  <SMILES>  (87) 
C=c1oc(C=Cc2nc(N3CCC(NC(=O)C=Cc4ccccc4)CC3)cs2)cc1=CCCC(=O)[O-]

>  <Energy>  (87) 
130.05343849760183

>  <Genealogy>  (87) 
C=c1oc(C=Cc2nc(N3CCC(NC(=O)C=Cc4ccccc4)CC3)cs2)cc1=CCCC(=O)[O-] (protonated)
C=c1oc(C=Cc2nc(N3CCC(NC(=O)C=Cc4ccccc4)CC3)cs2)cc1=CCCC(=O)[O-] (3D coordinates assigned)
C=c1oc(C=Cc2nc(N3CCC(NC(=O)C=Cc4ccccc4)CC3)cs2)cc1=CCCC(=O)[O-] (nonaromatic ring conformer: 130.05343849760183 kcal/mol)

>  <smiles>  (87) 
C=c1oc(C=Cc2nc(N3CCC(NC(=O)C=Cc4ccccc4)CC3)cs2)cc1=CCCC(=O)O

>  <score_type>  (87) 
oracle

>  <origin>  (87) 
adg

>  <m_score__min__energy>  (87) 
-15.18

>  <m_primary>  (87) 
energy

$$$$
87:0
     RDKit          3D

 46 49  0  0  0  0  0  0  0  0999 V2000
   52.9350   29.1050   53.0550 C   0  0  0  0  0  0  0  0  0  0  0  0
   52.6230   30.2860   52.2580 N   0  0  0  0  0  0  0  0  0  0  0  0
   51.4710   30.5390   51.6140 C   0  0  0  0  0  0  0  0  0  0  0  0
   51.6370   31.7190   50.9280 C   0  0  0  0  0  0  0  0  0  0  0  0
   50.6710   32.3320   50.1410 O   0  0  0  0  0  0  0  0  0  0  0  0
   52.8770   32.2150   51.1120 N   0  0  0  0  0  0  0  0  0  0  0  0
   53.4540   31.2970   51.9220 C   0  0  0  0  0  0  0  0  0  0  0  0
   54.6750   31.3850   52.3640 N   0  0  0  0  0  0  0  0  0  0  0  0
   55.7560   30.5050   52.0160 C   0  0  0  0  0  0  0  0  0  0  0  0
   55.5410   29.2650   52.0110 O   0  0  0  0  0  0  0  0  0  0  0  0
   57.0890   31.0110   51.6080 C   0  0  0  0  0  0  0  0  0  0  0  0
   57.4170   32.3690   51.7590 C   0  0  0  0  0  0  0  0  0  0  0  0
   58.6700   32.8390   51.3620 C   0  0  0  0  0  0  0  0  0  0  0  0
   59.6020   31.9660   50.7980 C   0  0  0  0  0  0  0  0  0  0  0  0
   59.2840   30.6100   50.6120 C   0  0  0  0  0  0  0  0  0  0  0  0
   60.2730   29.6790   50.0180 C   0  0  0  0  0  0  0  0  0  0  0  0
   61.0790   29.0670   50.7730 O   0  0  0  0  0  0  0  0  0  0  0  0
   60.3380   29.4640   48.5970 N   0  0  0  0  0  0  0  0  0  0  0  0
   61.1080   30.3690   47.7410 C   0  0  0  0  0  0  0  0  0  0  0  0
   60.1450   31.3160   47.0240 C   0  0  0  0  0  0  0  0  0  0  0  0
   58.9560   30.5860   46.4400 C   0  0  0  0  0  0  0  0  0  0  0  0
   58.1760   31.2290   45.4660 C   0  0  0  0  0  0  0  0  0  0  0  0
   57.0370   30.6080   44.9470 C   0  0  0  0  0  0  0  0  0  0  0  0
   56.6600   29.3440   45.4030 C   0  0  0  0  0  0  0  0  0  0  0  0
   55.5290   28.7270   44.8800 O   0  0  0  0  0  0  0  0  0  0  0  0
   57.4190   28.6970   46.3810 C   0  0  0  0  0  0  0  0  0  0  0  0
   58.5580   29.3140   46.9200 C   0  0  0  0  0  0  0  0  0  0  0  0
   59.3890   28.5650   47.9330 C   0  0  0  0  0  0  0  0  0  0  0  0
   58.0250   30.1400   51.0240 C   0  0  0  0  0  0  0  0  0  0  0  0
   52.8687   29.3560   54.1239 H   0  0  0  0  0  0  0  0  0  0  0  0
   52.2175   28.3047   52.8211 H   0  0  0  0  0  0  0  0  0  0  0  0
   53.9542   28.7636   52.8211 H   0  0  0  0  0  0  0  0  0  0  0  0
   50.5636   29.9174   51.6323 H   0  0  0  0  0  0  0  0  0  0  0  0
   56.6832   33.0647   52.1919 H   0  0  0  0  0  0  0  0  0  0  0  0
   58.9239   33.9011   51.4940 H   0  0  0  0  0  0  0  0  0  0  0  0
   60.5911   32.3418   50.4974 H   0  0  0  0  0  0  0  0  0  0  0  0
   61.8085   30.9521   48.3568 H   0  0  0  0  0  0  0  0  0  0  0  0
   61.6764   29.7866   47.0009 H   0  0  0  0  0  0  0  0  0  0  0  0
   59.7826   32.0647   47.7438 H   0  0  0  0  0  0  0  0  0  0  0  0
   60.6913   31.7898   46.1951 H   0  0  0  0  0  0  0  0  0  0  0  0
   58.4635   32.2289   45.1088 H   0  0  0  0  0  0  0  0  0  0  0  0
   56.4366   31.1161   44.1780 H   0  0  0  0  0  0  0  0  0  0  0  0
   57.1218   27.6974   46.7308 H   0  0  0  0  0  0  0  0  0  0  0  0
   58.7233   28.1220   48.6884 H   0  0  0  0  0  0  0  0  0  0  0  0
   59.9548   27.7787   47.4118 H   0  0  0  0  0  0  0  0  0  0  0  0
   57.7694   29.0788   50.8879 H   0  0  0  0  0  0  0  0  0  0  0  0
  1  2  1  0
  2  3  1  0
  3  4  2  0
  4  5  1  0
  4  6  1  0
  6  7  1  0
  7  8  2  3
  8  9  1  0
  9 10  2  0
  9 11  1  0
 11 12  2  0
 12 13  1  0
 13 14  2  0
 14 15  1  0
 15 16  1  0
 16 17  2  0
 16 18  1  0
 18 19  1  0
 19 20  1  0
 20 21  1  0
 21 22  2  0
 22 23  1  0
 23 24  2  0
 24 25  1  0
 24 26  1  0
 26 27  2  0
 27 28  1  0
 15 29  2  0
  7  2  1  0
 29 11  1  0
 28 18  1  0
 27 21  1  0
  1 30  1  0
  1 31  1  0
  1 32  1  0
  3 33  1  0
 12 34  1  0
 13 35  1  0
 14 36  1  0
 19 37  1  0
 19 38  1  0
 20 39  1  0
 20 40  1  0
 22 41  1  0
 23 42  1  0
 26 43  1  0
 28 44  1  0
 28 45  1  0
 29 46  1  0
M  CHG  3   5  -1   6  -1  25  -1
M  END
>  <UniqueID>  (88) 
84

>  <SMILES>  (88) 
Cn1cc([O-])[n-]c1=NC(=O)c1cccc(C(=O)N2CCc3ccc([O-])cc3C2)c1

>  <Energy>  (88) 
95.42922297910333

>  <Genealogy>  (88) 
Cn1cc([O-])[n-]c1=NC(=O)c1cccc(C(=O)N2CCc3ccc([O-])cc3C2)c1 (protonated)
Cn1cc([O-])[n-]c1=NC(=O)c1cccc(C(=O)N2CCc3ccc([O-])cc3C2)c1 (3D coordinates assigned)
Cn1cc([O-])[n-]c1=NC(=O)c1cccc(C(=O)N2CCc3ccc([O-])cc3C2)c1 (nonaromatic ring conformer: 95.42922297910333 kcal/mol)

>  <smiles>  (88) 
Cn1cc(O)[nH]c1=NC(=O)c1cccc(C(=O)N2CCc3ccc(O)cc3C2)c1

>  <score_type>  (88) 
oracle

>  <origin>  (88) 
adg

>  <m_score__min__energy>  (88) 
-16.829999999999998

>  <m_primary>  (88) 
energy

$$$$
88:0
     RDKit          3D

 87 92  0  0  0  0  0  0  0  0999 V2000
   67.8770   32.7010   50.8250 N   0  0  0  0  0  0  0  0  0  0  0  0
   66.7660   32.8960   50.5660 C   0  0  0  0  0  0  0  0  0  0  0  0
   65.3840   33.1430   50.2470 C   0  0  0  0  0  0  0  0  0  0  0  0
   64.8460   32.6670   49.0470 C   0  0  0  0  0  0  0  0  0  0  0  0
   63.5010   32.9010   48.7400 C   0  0  0  0  0  0  0  0  0  0  0  0
   62.6750   33.6260   49.6230 C   0  0  0  0  0  0  0  0  0  0  0  0
   61.1820   33.8290   49.3820 C   0  0  0  0  0  0  0  0  0  0  0  0
   60.6600   33.2860   48.0200 C   0  0  0  0  0  0  0  0  0  0  0  0
   60.0800   31.8580   48.0800 C   0  0  0  0  0  0  0  0  0  0  0  0
   59.2450   31.6300   49.2710 N   0  0  0  0  0  0  0  0  0  0  0  0
   58.7260   30.3060   49.5370 C   0  0  0  0  0  0  0  0  0  0  0  0
   58.0350   30.0790   50.5660 O   0  0  0  0  0  0  0  0  0  0  0  0
   58.9780   29.1970   48.6000 C   0  0  0  0  0  0  0  0  0  0  0  0
   58.1470   29.1090   47.4720 C   0  0  0  0  0  0  0  0  0  0  0  0
   58.3860   28.1520   46.4860 C   0  0  0  0  0  0  0  0  0  0  0  0
   57.6250   28.1830   45.2740 N   0  0  0  0  0  0  0  0  0  0  0  0
   56.8300   29.3030   44.8580 C   0  0  0  0  0  0  0  0  0  0  0  0
   55.6200   29.1070   44.5680 O   0  0  0  0  0  0  0  0  0  0  0  0
   57.3800   30.6810   44.8280 C   0  0  0  0  0  0  0  0  0  0  0  0
   57.8050   31.2630   43.6200 C   0  0  0  0  0  0  0  0  0  0  0  0
   58.2930   32.5720   43.6240 C   0  0  0  0  0  0  0  0  0  0  0  0
   58.3600   33.2910   44.8210 C   0  0  0  0  0  0  0  0  0  0  0  0
   58.8590   34.6420   44.8330 C   0  0  0  0  0  0  0  0  0  0  0  0
   59.2600   35.7290   44.8460 N   0  0  0  0  0  0  0  0  0  0  0  0
   57.9240   32.6850   46.0030 C   0  0  0  0  0  0  0  0  0  0  0  0
   57.4450   31.4140   45.9760 N   0  0  0  0  0  0  0  0  0  0  0  0
   59.4160   27.2230   46.6580 C   0  0  0  0  0  0  0  0  0  0  0  0
   60.2270   27.2750   47.7920 C   0  0  0  0  0  0  0  0  0  0  0  0
   60.0440   28.2710   48.7690 C   0  0  0  0  0  0  0  0  0  0  0  0
   61.0070   28.3290   49.9040 C   0  0  0  0  0  0  0  0  0  0  0  0
   61.3080   27.2700   50.5180 O   0  0  0  0  0  0  0  0  0  0  0  0
   61.6380   29.5600   50.2770 N   0  0  0  0  0  0  0  0  0  0  0  0
   62.3680   29.7510   51.5270 C   0  0  0  0  0  0  0  0  0  0  0  0
   61.6960   30.7880   52.3850 C   0  0  0  0  0  0  0  0  0  0  0  0
   62.3490   31.8240   52.6940 O   0  0  0  0  0  0  0  0  0  0  0  0
   60.3370   30.6360   52.8550 N   0  0  0  0  0  0  0  0  0  0  0  0
   59.6220   29.3540   52.7640 C   0  0  0  0  0  0  0  0  0  0  0  0
   58.7700   29.1230   54.0200 C   0  0  0  0  0  0  0  0  0  0  0  0
   57.8620   30.3290   54.3790 C   0  0  0  0  0  0  0  0  0  0  0  0
   56.4400   29.9600   54.3280 N   0  0  0  0  0  0  0  0  0  0  0  0
   55.5430   30.0490   55.4680 C   0  0  0  0  0  0  0  0  0  0  0  0
   54.1730   29.5280   54.9840 C   0  0  0  0  0  0  0  0  0  0  0  0
   54.3150   29.1720   53.4950 C   0  0  0  0  0  0  0  0  0  0  0  0
   55.7350   29.4590   53.2060 C   0  0  0  0  0  0  0  0  0  0  0  0
   56.2620   29.2770   52.0780 O   0  0  0  0  0  0  0  0  0  0  0  0
   58.1250   31.5720   53.5090 C   0  0  0  0  0  0  0  0  0  0  0  0
   59.6280   31.8290   53.3510 C   0  0  0  0  0  0  0  0  0  0  0  0
   59.0210   32.7350   50.2120 C   0  0  0  0  0  0  0  0  0  0  0  0
   60.3710   33.3280   50.6050 C   0  0  0  0  0  0  0  0  0  0  0  0
   63.2310   34.0920   50.8290 C   0  0  0  0  0  0  0  0  0  0  0  0
   64.5740   33.8530   51.1370 C   0  0  0  0  0  0  0  0  0  0  0  0
   65.4809   32.1081   48.3438 H   0  0  0  0  0  0  0  0  0  0  0  0
   63.0832   32.5147   47.7986 H   0  0  0  0  0  0  0  0  0  0  0  0
   61.0204   34.9128   49.2857 H   0  0  0  0  0  0  0  0  0  0  0  0
   59.8707   33.9625   47.6603 H   0  0  0  0  0  0  0  0  0  0  0  0
   61.5291   33.2424   47.3471 H   0  0  0  0  0  0  0  0  0  0  0  0
   59.4658   31.6903   47.1830 H   0  0  0  0  0  0  0  0  0  0  0  0
   60.9275   31.1586   48.1314 H   0  0  0  0  0  0  0  0  0  0  0  0
   57.2991   29.8015   47.3647 H   0  0  0  0  0  0  0  0  0  0  0  0
   57.7536   30.6927   42.6808 H   0  0  0  0  0  0  0  0  0  0  0  0
   58.6249   33.0375   42.6842 H   0  0  0  0  0  0  0  0  0  0  0  0
   57.9687   33.2366   46.9537 H   0  0  0  0  0  0  0  0  0  0  0  0
   59.5878   26.4480   45.8965 H   0  0  0  0  0  0  0  0  0  0  0  0
   61.0216   26.5260   47.9244 H   0  0  0  0  0  0  0  0  0  0  0  0
   62.4021   28.7973   52.0741 H   0  0  0  0  0  0  0  0  0  0  0  0
   63.3863   30.0941   51.2917 H   0  0  0  0  0  0  0  0  0  0  0  0
   58.9676   29.3665   51.8799 H   0  0  0  0  0  0  0  0  0  0  0  0
   60.3584   28.5413   52.6793 H   0  0  0  0  0  0  0  0  0  0  0  0
   58.1311   28.2436   53.8511 H   0  0  0  0  0  0  0  0  0  0  0  0
   59.4640   28.9773   54.8609 H   0  0  0  0  0  0  0  0  0  0  0  0
   58.1246   30.6035   55.4113 H   0  0  0  0  0  0  0  0  0  0  0  0
   55.9160   29.4275   56.2954 H   0  0  0  0  0  0  0  0  0  0  0  0
   55.4693   31.0821   55.8386 H   0  0  0  0  0  0  0  0  0  0  0  0
   53.8865   28.6346   55.5583 H   0  0  0  0  0  0  0  0  0  0  0  0
   53.3947   30.2919   55.1277 H   0  0  0  0  0  0  0  0  0  0  0  0
   54.0850   28.1105   53.3208 H   0  0  0  0  0  0  0  0  0  0  0  0
   53.6241   29.7366   52.8516 H   0  0  0  0  0  0  0  0  0  0  0  0
   57.6812   31.4148   52.5148 H   0  0  0  0  0  0  0  0  0  0  0  0
   57.6719   32.4448   54.0018 H   0  0  0  0  0  0  0  0  0  0  0  0
   59.7754   32.6533   52.6377 H   0  0  0  0  0  0  0  0  0  0  0  0
   60.0375   32.0843   54.3395 H   0  0  0  0  0  0  0  0  0  0  0  0
   58.4027   33.5086   49.7332 H   0  0  0  0  0  0  0  0  0  0  0  0
   58.5012   32.3636   51.1075 H   0  0  0  0  0  0  0  0  0  0  0  0
   60.1989   34.1757   51.2846 H   0  0  0  0  0  0  0  0  0  0  0  0
   60.9560   32.5319   51.0887 H   0  0  0  0  0  0  0  0  0  0  0  0
   62.6019   34.6507   51.5376 H   0  0  0  0  0  0  0  0  0  0  0  0
   64.9941   34.2252   52.0830 H   0  0  0  0  0  0  0  0  0  0  0  0
  1  2  3  0
  2  3  1  0
  3  4  2  0
  4  5  1  0
  5  6  2  0
  6  7  1  0
  7  8  1  0
  8  9  1  0
  9 10  1  0
 10 11  1  0
 11 12  2  0
 11 13  1  0
 13 14  2  0
 14 15  1  0
 15 16  1  0
 16 17  1  0
 17 18  2  0
 17 19  1  0
 19 20  2  0
 20 21  1  0
 21 22  2  0
 22 23  1  0
 23 24  3  0
 22 25  1  0
 25 26  2  0
 15 27  2  0
 27 28  1  0
 28 29  2  0
 29 30  1  0
 30 31  2  0
 30 32  1  0
 32 33  1  0
 33 34  1  0
 34 35  2  0
 34 36  1  0
 36 37  1  0
 37 38  1  0
 38 39  1  0
 39 40  1  0
 40 41  1  0
 41 42  1  0
 42 43  1  0
 43 44  1  0
 44 45  2  0
 39 46  1  0
 46 47  1  0
 10 48  1  0
 48 49  1  0
  6 50  1  0
 50 51  2  0
 51  3  1  0
 49  7  1  0
 29 13  1  0
 47 36  1  0
 26 19  1  0
 44 40  1  0
  4 52  1  0
  5 53  1  0
  7 54  1  0
  8 55  1  0
  8 56  1  0
  9 57  1  0
  9 58  1  0
 14 59  1  0
 20 60  1  0
 21 61  1  0
 25 62  1  0
 27 63  1  0
 28 64  1  0
 33 65  1  0
 33 66  1  0
 37 67  1  0
 37 68  1  0
 38 69  1  0
 38 70  1  0
 39 71  1  0
 41 72  1  0
 41 73  1  0
 42 74  1  0
 42 75  1  0
 43 76  1  0
 43 77  1  0
 46 78  1  0
 46 79  1  0
 47 80  1  0
 47 81  1  0
 48 82  1  0
 48 83  1  0
 49 84  1  0
 49 85  1  0
 50 86  1  0
 51 87  1  0
M  CHG  2  16  -1  32  -1
M  END
>  <UniqueID>  (89) 
85

>  <SMILES>  (89) 
N#Cc1ccc(C2CCN(C(=O)c3cc([N-]C(=O)c4ccc(C#N)cn4)ccc3C(=O)[N-]CC(=O)N3CCC(N4CCCC4=O)CC3)CC2)cc1

>  <Energy>  (89) 
116.18519956405137

>  <Genealogy>  (89) 
N#Cc1ccc(C2CCN(C(=O)c3cc([N-]C(=O)c4ccc(C#N)cn4)ccc3C(=O)[N-]CC(=O)N3CCC(N4CCCC4=O)CC3)CC2)cc1 (protonated)
N#Cc1ccc(C2CCN(C(=O)c3cc([N-]C(=O)c4ccc(C#N)cn4)ccc3C(=O)[N-]CC(=O)N3CCC(N4CCCC4=O)CC3)CC2)cc1 (3D coordinates assigned)
N#Cc1ccc(C2CCN(C(=O)c3cc([N-]C(=O)c4ccc(C#N)cn4)ccc3C(=O)[N-]CC(=O)N3CCC(N4CCCC4=O)CC3)CC2)cc1 (nonaromatic ring conformer: 116.18519956405137 kcal/mol)

>  <smiles>  (89) 
N#Cc1ccc(C2CCN(C(=O)c3cc(NC(=O)c4ccc(C#N)cn4)ccc3C(=O)NCC(=O)N3CCC(N4CCCC4=O)CC3)CC2)cc1

>  <score_type>  (89) 
oracle

>  <origin>  (89) 
adg

>  <m_score__min__energy>  (89) 
-14

>  <m_primary>  (89) 
energy

$$$$
89:0
     RDKit          3D

 49 51  0  0  0  0  0  0  0  0999 V2000
   55.1020   26.4060   45.9900 N   0  0  0  0  0  0  0  0  0  0  0  0
   56.7320   25.8320   46.0370 S   0  0  0  0  0  0  0  0  0  0  0  0
   56.9810   25.1620   47.3600 O   0  0  0  0  0  0  0  0  0  0  0  0
   56.9450   24.8290   44.9400 O   0  0  0  0  0  0  0  0  0  0  0  0
   57.8370   27.1860   45.8250 C   0  0  0  0  0  0  0  0  0  0  0  0
   59.1290   27.1430   46.3630 C   0  0  0  0  0  0  0  0  0  0  0  0
   59.9920   28.2320   46.2050 C   0  0  0  0  0  0  0  0  0  0  0  0
   59.5650   29.3710   45.5170 C   0  0  0  0  0  0  0  0  0  0  0  0
   58.2700   29.4280   44.9790 C   0  0  0  0  0  0  0  0  0  0  0  0
   57.7910   30.6610   44.2600 C   0  0  0  0  0  0  0  0  0  0  0  0
   58.4320   31.8670   44.8220 N   0  0  0  0  0  0  0  0  0  0  0  0
   58.0230   33.0830   44.0900 C   0  0  0  0  0  0  0  0  0  0  0  0
   58.9020   34.2770   44.5060 C   0  0  0  0  0  0  0  0  0  0  0  0
   59.4460   34.1340   45.9380 C   0  0  0  0  0  0  0  0  0  0  0  0
   58.4320   33.4010   46.8320 C   0  0  2  0  0  0  0  0  0  0  0  0
   58.9220   33.3170   48.2620 C   0  0  0  0  0  0  0  0  0  0  0  0
   59.2780   34.3710   48.8520 O   0  0  0  0  0  0  0  0  0  0  0  0
   59.0570   32.0680   48.9590 N   0  0  0  0  0  0  0  0  0  0  0  0
   60.2130   31.1750   48.9280 C   0  0  0  0  0  0  0  0  0  0  0  0
   61.4690   31.9260   48.5960 C   0  0  0  0  0  0  0  0  0  0  0  0
   61.9270   32.9650   49.4210 C   0  0  0  0  0  0  0  0  0  0  0  0
   63.0970   33.6460   49.0780 C   0  0  0  0  0  0  0  0  0  0  0  0
   63.8020   33.2830   47.9300 C   0  0  0  0  0  0  0  0  0  0  0  0
   63.3260   32.2340   47.1390 C   0  0  0  0  0  0  0  0  0  0  0  0
   62.1830   31.5850   47.4870 N   0  0  0  0  0  0  0  0  0  0  0  0
   58.1240   31.9870   46.2670 C   0  0  0  0  0  0  0  0  0  0  0  0
   57.4090   28.3290   45.1370 C   0  0  0  0  0  0  0  0  0  0  0  0
   55.1470   27.4500   46.0080 H   0  0  0  0  0  0  0  0  0  0  0  0
   59.4659   26.2507   46.9111 H   0  0  0  0  0  0  0  0  0  0  0  0
   61.0087   28.1920   46.6230 H   0  0  0  0  0  0  0  0  0  0  0  0
   60.2464   30.2261   45.3967 H   0  0  0  0  0  0  0  0  0  0  0  0
   58.0448   30.5797   43.1928 H   0  0  0  0  0  0  0  0  0  0  0  0
   56.7013   30.7456   44.3843 H   0  0  0  0  0  0  0  0  0  0  0  0
   58.1329   32.9104   43.0092 H   0  0  0  0  0  0  0  0  0  0  0  0
   56.9737   33.3098   44.3301 H   0  0  0  0  0  0  0  0  0  0  0  0
   59.7515   34.3493   43.8110 H   0  0  0  0  0  0  0  0  0  0  0  0
   58.2765   35.1813   44.4736 H   0  0  0  0  0  0  0  0  0  0  0  0
   60.3851   33.5618   45.9124 H   0  0  0  0  0  0  0  0  0  0  0  0
   59.6228   35.1377   46.3519 H   0  0  0  0  0  0  0  0  0  0  0  0
   57.4984   33.9827   46.8326 H   0  0  0  0  0  0  0  0  0  0  0  0
   60.3277   30.7020   49.9144 H   0  0  0  0  0  0  0  0  0  0  0  0
   60.0456   30.4147   48.1509 H   0  0  0  0  0  0  0  0  0  0  0  0
   61.3699   33.2402   50.3287 H   0  0  0  0  0  0  0  0  0  0  0  0
   63.4622   34.4674   49.7120 H   0  0  0  0  0  0  0  0  0  0  0  0
   64.7224   33.8167   47.6507 H   0  0  0  0  0  0  0  0  0  0  0  0
   63.8759   31.9333   46.2350 H   0  0  0  0  0  0  0  0  0  0  0  0
   58.7267   31.2495   46.8174 H   0  0  0  0  0  0  0  0  0  0  0  0
   57.0460   31.8076   46.3922 H   0  0  0  0  0  0  0  0  0  0  0  0
   56.3926   28.3662   44.7180 H   0  0  0  0  0  0  0  0  0  0  0  0
  1  2  1  0
  2  3  2  0
  2  4  2  0
  2  5  1  0
  5  6  2  0
  6  7  1  0
  7  8  2  0
  8  9  1  0
  9 10  1  0
 10 11  1  0
 11 12  1  0
 12 13  1  0
 13 14  1  0
 14 15  1  0
 15 16  1  0
 16 17  2  0
 16 18  1  0
 18 19  1  0
 19 20  1  0
 20 21  2  0
 21 22  1  0
 22 23  2  0
 23 24  1  0
 24 25  2  0
 15 26  1  0
  9 27  2  0
 27  5  1  0
 26 11  1  0
 25 20  1  0
  1 28  1  0
  6 29  1  0
  7 30  1  0
  8 31  1  0
 10 32  1  0
 10 33  1  0
 12 34  1  0
 12 35  1  0
 13 36  1  0
 13 37  1  0
 14 38  1  0
 14 39  1  0
 15 40  1  1
 19 41  1  0
 19 42  1  0
 21 43  1  0
 22 44  1  0
 23 45  1  0
 24 46  1  0
 26 47  1  0
 26 48  1  0
 27 49  1  0
M  CHG  2   1  -1  18  -1
M  END
>  <UniqueID>  (90) 
86

>  <SMILES>  (90) 
[NH-]S(=O)(=O)c1cccc(CN2CCC[C@H](C(=O)[N-]Cc3ccccn3)C2)c1

>  <Energy>  (90) 
52.62309168360648

>  <Genealogy>  (90) 
[NH-]S(=O)(=O)c1cccc(CN2CCCC(C(=O)[N-]Cc3ccccn3)C2)c1 (protonated)
[NH-]S(=O)(=O)c1cccc(CN2CCC[C@H](C(=O)[N-]Cc3ccccn3)C2)c1 (chirality)
[NH-]S(=O)(=O)c1cccc(CN2CCC[C@H](C(=O)[N-]Cc3ccccn3)C2)c1 (3D coordinates assigned)
[NH-]S(=O)(=O)c1cccc(CN2CCC[C@H](C(=O)[N-]Cc3ccccn3)C2)c1 (nonaromatic ring conformer: 52.62309168360648 kcal/mol)

>  <smiles>  (90) 
NS(=O)(=O)c1cccc(CN2CCCC(C(=O)NCc3ccccn3)C2)c1

>  <score_type>  (90) 
oracle

>  <origin>  (90) 
adg

>  <m_score__min__energy>  (90) 
-13.880000000000001

>  <m_primary>  (90) 
energy

$$$$
