0:0
     RDKit          3D

 55 56  0  0  1  0  0  0  0  0999 V2000
   62.9980   32.7320   51.2920 C   0  0  0  0  0  0  0  0  0  0  0  0
   64.0240   33.7930   50.9550 C   0  0  0  0  0  0  0  0  0  0  0  0
   64.3930   34.5340   52.2090 C   0  0  0  0  0  0  0  0  0  0  0  0
   65.1990   33.1410   50.2880 C   0  0  0  0  0  0  0  0  0  0  0  0
   63.3780   34.7230   50.0710 O   0  0  0  0  0  0  0  0  0  0  0  0
   62.6140   34.2330   49.0170 C   0  0  0  0  0  0  0  0  0  0  0  0
   63.1610   33.4750   48.2120 O   0  0  0  0  0  0  0  0  0  0  0  0
   61.2520   34.5960   48.8770 N   0  0  0  0  0  0  0  0  0  0  0  0
   60.3720   34.1920   47.8870 C   0  0  0  0  0  0  0  0  0  0  0  0
   59.1760   33.5740   48.2970 C   0  0  0  0  0  0  0  0  0  0  0  0
   58.2400   33.1380   47.3860 C   0  0  0  0  0  0  0  0  0  0  0  0
   58.4140   33.2800   46.0270 C   0  0  0  0  0  0  0  0  0  0  0  0
   57.4380   32.8280   45.0160 C   0  0  0  0  0  0  0  0  0  0  0  0
   57.4060   31.3440   45.0000 C   0  0  0  0  0  0  0  0  0  0  0  0
   58.3830   30.5550   45.5630 C   0  0  0  0  0  0  0  0  0  0  0  0
   58.3110   29.1830   45.5250 C   0  0  0  0  0  0  0  0  0  0  0  0
   57.2490   28.5030   44.9130 C   0  0  0  0  0  0  0  0  0  0  0  0
   57.2600   27.0970   44.9220 N   0  0  0  0  0  0  0  0  0  0  0  0
   58.3650   26.2440   45.0890 C   0  0  0  0  0  0  0  0  0  0  0  0
   59.4920   26.7430   45.2530 O   0  0  0  0  0  0  0  0  0  0  0  0
   58.2840   24.7780   45.0850 C   0  0  0  0  0  0  0  0  0  0  0  0
   57.2540   24.0910   45.5180 C   0  0  0  0  0  0  0  0  0  0  0  0
   56.0710   24.6160   46.1710 C   0  0  0  0  0  0  0  0  0  0  0  0
   55.9260   24.4740   47.5750 O   0  0  0  0  0  0  0  0  0  0  0  0
   55.1020   25.2200   45.5960 N   0  0  0  0  0  0  0  0  0  0  0  0
   54.4570   26.3290   45.9840 O   0  0  0  0  0  0  0  0  0  0  0  0
   56.2830   29.3020   44.3550 C   0  0  0  0  0  0  0  0  0  0  0  0
   56.3520   30.6990   44.3930 C   0  0  0  0  0  0  0  0  0  0  0  0
   59.5810   33.8840   45.6100 C   0  0  0  0  0  0  0  0  0  0  0  0
   60.5230   34.3220   46.5360 C   0  0  0  0  0  0  0  0  0  0  0  0
   62.9100   32.6410   52.3847 H   0  0  0  0  0  0  0  0  0  0  0  0
   62.0236   33.0164   50.8681 H   0  0  0  0  0  0  0  0  0  0  0  0
   63.3149   31.7677   50.8681 H   0  0  0  0  0  0  0  0  0  0  0  0
   64.0972   33.9401   53.0864 H   0  0  0  0  0  0  0  0  0  0  0  0
   65.4799   34.7019   52.2293 H   0  0  0  0  0  0  0  0  0  0  0  0
   63.8720   35.5026   52.2293 H   0  0  0  0  0  0  0  0  0  0  0  0
   65.8894   32.7579   51.0539 H   0  0  0  0  0  0  0  0  0  0  0  0
   64.8488   32.3082   49.6605 H   0  0  0  0  0  0  0  0  0  0  0  0
   65.7204   33.8788   49.6605 H   0  0  0  0  0  0  0  0  0  0  0  0
   60.8960   35.2570   49.6390 H   0  0  0  0  0  0  0  0  0  0  0  0
   58.9842   33.4359   49.3713 H   0  0  0  0  0  0  0  0  0  0  0  0
   57.3213   32.6596   47.7564 H   0  0  0  0  0  0  0  0  0  0  0  0
   56.4399   33.2151   45.2689 H   0  0  0  0  0  0  0  0  0  0  0  0
   57.7317   33.2027   44.0244 H   0  0  0  0  0  0  0  0  0  0  0  0
   59.2422   31.0340   46.0553 H   0  0  0  0  0  0  0  0  0  0  0  0
   59.1163   28.5971   45.9920 H   0  0  0  0  0  0  0  0  0  0  0  0
   56.3230   26.6200   44.7860 H   0  0  0  0  0  0  0  0  0  0  0  0
   59.1454   24.2179   44.6923 H   0  0  0  0  0  0  0  0  0  0  0  0
   57.2918   23.0017   45.3701 H   0  0  0  0  0  0  0  0  0  0  0  0
   55.1230   24.8730   48.0650 H   0  0  0  0  0  0  0  0  0  0  0  0
   54.3940   26.7220   46.8980 H   0  0  0  0  0  0  0  0  0  0  0  0
   55.4232   28.8270   43.8599 H   0  0  0  0  0  0  0  0  0  0  0  0
   55.5500   31.2924   43.9297 H   0  0  0  0  0  0  0  0  0  0  0  0
   59.7694   34.0210   44.5350 H   0  0  0  0  0  0  0  0  0  0  0  0
   61.4396   34.7992   46.1590 H   0  0  0  0  0  0  0  0  0  0  0  0
  1  2  1  0
  2  3  1  0
  2  4  1  0
  2  5  1  0
  5  6  1  0
  6  7  2  0
  6  8  1  0
  8  9  1  0
  9 10  2  0
 10 11  1  0
 11 12  2  0
 12 13  1  0
 13 14  1  0
 14 15  2  0
 15 16  1  0
 16 17  2  0
 17 18  1  0
 18 19  1  0
 19 20  2  0
 19 21  1  0
 21 22  2  0
 22 23  1  0
 23 24  1  0
 23 25  2  0
 25 26  1  0
 17 27  1  0
 27 28  2  0
 12 29  1  0
 29 30  2  0
 30  9  1  0
 28 14  1  0
  1 31  1  0
  1 32  1  0
  1 33  1  0
  3 34  1  0
  3 35  1  0
  3 36  1  0
  4 37  1  0
  4 38  1  0
  4 39  1  0
  8 40  1  0
 10 41  1  0
 11 42  1  0
 13 43  1  0
 13 44  1  0
 15 45  1  0
 16 46  1  0
 18 47  1  0
 21 48  1  0
 22 49  1  0
 24 50  1  0
 26 51  1  0
 27 52  1  0
 28 53  1  0
 29 54  1  0
 30 55  1  0
M  END
>  <smiles>  (1) 
CC(C)(C)OC(=O)Nc1ccc(Cc2ccc(NC(=O)C=CC(O)=NO)cc2)cc1

>  <score_type>  (1) 
oracle

>  <origin>  (1) 
adg

>  <m_score__min__energy>  (1) 
-9.5999999999999996

>  <m_primary>  (1) 
energy

$$$$
1:0
     RDKit          3D

 53 56  0  0  0  0  0  0  0  0999 V2000
   56.0780   27.4740   44.5730 H   0  0  0  0  0  0  0  0  0  0  0  0
   55.8820   28.2400   45.2050 O   0  0  0  0  0  0  0  0  0  0  0  0
   56.8100   29.2590   45.3930 C   0  0  0  0  0  0  0  0  0  0  0  0
   56.6580   30.5010   44.8730 N   0  0  0  0  0  0  0  0  0  0  0  0
   57.7340   31.1760   45.3190 C   0  0  0  0  0  0  0  0  0  0  0  0
   58.0450   32.5070   45.0540 C   0  0  0  0  0  0  0  0  0  0  0  0
   57.3874   33.1278   44.4277 H   0  0  0  0  0  0  0  0  0  0  0  0
   59.2240   33.0350   45.6100 C   0  0  0  0  0  0  0  0  0  0  0  0
   59.4916   34.0855   45.4236 H   0  0  0  0  0  0  0  0  0  0  0  0
   60.0690   32.2270   46.4070 C   0  0  0  0  0  0  0  0  0  0  0  0
   61.5360   32.9140   47.0940 S   0  0  0  0  0  0  0  0  0  0  0  0
   62.5230   31.8160   47.3820 O   0  0  0  0  0  0  0  0  0  0  0  0
   62.1430   33.8510   46.0860 O   0  0  0  0  0  0  0  0  0  0  0  0
   61.1300   33.7820   48.5610 N   0  0  0  0  0  0  0  0  0  0  0  0
   59.6660   33.8510   48.7720 C   0  0  0  0  0  0  0  0  0  0  0  0
   59.4134   34.8483   49.1614 H   0  0  0  0  0  0  0  0  0  0  0  0
   59.1818   33.6571   47.8035 H   0  0  0  0  0  0  0  0  0  0  0  0
   59.1570   32.7910   49.7660 C   0  0  0  0  0  0  0  0  0  0  0  0
   59.2114   33.1962   50.7872 H   0  0  0  0  0  0  0  0  0  0  0  0
   58.1167   32.5370   49.5146 H   0  0  0  0  0  0  0  0  0  0  0  0
   59.9440   31.6240   49.6870 O   0  0  0  0  0  0  0  0  0  0  0  0
   61.2470   31.8750   50.1860 C   0  0  0  0  0  0  0  0  0  0  0  0
   61.2062   31.8643   51.2852 H   0  0  0  0  0  0  0  0  0  0  0  0
   61.9029   31.0891   49.7833 H   0  0  0  0  0  0  0  0  0  0  0  0
   61.8350   33.2320   49.7320 C   0  0  0  0  0  0  0  0  0  0  0  0
   61.7539   33.9485   50.5627 H   0  0  0  0  0  0  0  0  0  0  0  0
   62.8842   33.0660   49.4463 H   0  0  0  0  0  0  0  0  0  0  0  0
   59.7250   30.8830   46.6590 C   0  0  0  0  0  0  0  0  0  0  0  0
   60.3687   30.2394   47.2766 H   0  0  0  0  0  0  0  0  0  0  0  0
   58.5450   30.3950   46.1020 C   0  0  0  0  0  0  0  0  0  0  0  0
   57.9730   29.1450   46.1490 C   0  0  0  0  0  0  0  0  0  0  0  0
   58.4820   27.9700   46.8870 C   0  0  0  0  0  0  0  0  0  0  0  0
   58.3880   27.9652   47.9830 H   0  0  0  0  0  0  0  0  0  0  0  0
   59.0360   26.9390   46.3130 N   0  0  0  0  0  0  0  0  0  0  0  0
   58.3550   25.8130   45.7360 C   0  0  0  0  0  0  0  0  0  0  0  0
   58.2760   24.6270   46.4730 C   0  0  0  0  0  0  0  0  0  0  0  0
   58.7402   24.5713   47.4687 H   0  0  0  0  0  0  0  0  0  0  0  0
   57.6130   23.5140   45.9550 C   0  0  0  0  0  0  0  0  0  0  0  0
   57.5446   22.5929   46.5524 H   0  0  0  0  0  0  0  0  0  0  0  0
   57.0350   23.5600   44.6830 C   0  0  0  0  0  0  0  0  0  0  0  0
   56.3680   22.4180   44.2160 O   0  0  0  0  0  0  0  0  0  0  0  0
   56.9820   21.3770   43.4640 C   0  0  0  0  0  0  0  0  0  0  0  0
   57.4185   20.6369   44.1508 H   0  0  0  0  0  0  0  0  0  0  0  0
   56.2274   20.8885   42.8300 H   0  0  0  0  0  0  0  0  0  0  0  0
   57.7746   21.8011   42.8300 H   0  0  0  0  0  0  0  0  0  0  0  0
   57.1460   24.7370   43.9190 C   0  0  0  0  0  0  0  0  0  0  0  0
   56.7016   24.7780   42.9136 H   0  0  0  0  0  0  0  0  0  0  0  0
   57.8210   25.8630   44.4300 C   0  0  0  0  0  0  0  0  0  0  0  0
   57.9970   27.0300   43.6700 O   0  0  0  0  0  0  0  0  0  0  0  0
   58.1470   27.0630   42.2560 C   0  0  0  0  0  0  0  0  0  0  0  0
   59.1926   27.2930   42.0035 H   0  0  0  0  0  0  0  0  0  0  0  0
   57.8752   26.0836   41.8355 H   0  0  0  0  0  0  0  0  0  0  0  0
   57.4892   27.8379   41.8355 H   0  0  0  0  0  0  0  0  0  0  0  0
  1  2  1  0
  2  3  1  0
  3  4  1  0
  4  5  1  0
  5  6  2  0
  6  7  1  0
  6  8  1  0
  8  9  1  0
  8 10  2  0
 10 11  1  0
 11 12  2  0
 11 13  2  0
 11 14  1  0
 14 15  1  0
 15 16  1  0
 15 17  1  0
 15 18  1  0
 18 19  1  0
 18 20  1  0
 18 21  1  0
 21 22  1  0
 22 23  1  0
 22 24  1  0
 22 25  1  0
 25 26  1  0
 25 27  1  0
 10 28  1  0
 28 29  1  0
 28 30  2  0
 30 31  1  0
 31 32  1  0
 32 33  1  0
 32 34  2  0
 34 35  1  0
 35 36  2  0
 36 37  1  0
 36 38  1  0
 38 39  1  0
 38 40  2  0
 40 41  1  0
 41 42  1  0
 42 43  1  0
 42 44  1  0
 42 45  1  0
 40 46  1  0
 46 47  1  0
 46 48  2  0
 48 49  1  0
 49 50  1  0
 50 51  1  0
 50 52  1  0
 50 53  1  0
 31  3  2  0
 48 35  1  0
 30  5  1  0
 25 14  1  0
M  CHG  1   4  -1
M  END
>  <UniqueID>  (2) 
1

>  <SMILES>  (2) 
COc1ccc(/N=C\c2c(O)[n-]c3ccc(S(=O)(=O)N4CCOCC4)cc23)c(OC)c1

>  <Energy>  (2) 
108.42299262451938

>  <Genealogy>  (2) 
COc1ccc(N=Cc2c(O)[n-]c3ccc(S(=O)(=O)N4CCOCC4)cc23)c(OC)c1 (protonated)
COc1ccc(/N=C\c2c(O)[n-]c3ccc(S(=O)(=O)N4CCOCC4)cc23)c(OC)c1 (cis-trans isomerization)
COc1ccc(/N=C\c2c(O)[n-]c3ccc(S(=O)(=O)N4CCOCC4)cc23)c(OC)c1 (3D coordinates assigned)
COc1ccc(/N=C\c2c(O)[n-]c3ccc(S(=O)(=O)N4CCOCC4)cc23)c(OC)c1 (nonaromatic ring conformer: 108.42299262451938 kcal/mol)

>  <smiles>  (2) 
COc1ccc(N=Cc2c(O)[nH]c3ccc(S(=O)(=O)N4CCOCC4)cc23)c(OC)c1

>  <score_type>  (2) 
oracle

>  <origin>  (2) 
adg

>  <m_score__min__energy>  (2) 
-10.630000000000001

>  <m_primary>  (2) 
energy

$$$$
2:0
     RDKit          3D

 54 57  0  0  0  0  0  0  0  0999 V2000
   57.9962   27.0270   42.7337 H   0  0  0  0  0  0  0  0  0  0  0  0
   57.7650   26.3790   43.5920 C   0  0  0  0  0  0  0  0  0  0  0  0
   57.7180   26.8970   44.8270 C   0  0  0  0  0  0  0  0  0  0  0  0
   58.0080   28.3320   45.0690 C   0  0  0  0  0  0  0  0  0  0  0  0
   57.0000   29.3050   44.9530 C   0  0  0  0  0  0  0  0  0  0  0  0
   55.7230   28.9610   44.6490 F   0  0  0  0  0  0  0  0  0  0  0  0
   57.3050   30.6450   45.1980 C   0  0  0  0  0  0  0  0  0  0  0  0
   56.5228   31.4121   45.0994 H   0  0  0  0  0  0  0  0  0  0  0  0
   58.6040   31.0160   45.5690 C   0  0  0  0  0  0  0  0  0  0  0  0
   58.9370   32.4380   45.8270 C   0  0  0  0  0  0  0  0  0  0  0  0
   58.8100   33.3750   44.7860 C   0  0  0  0  0  0  0  0  0  0  0  0
   58.4558   33.0479   43.7973 H   0  0  0  0  0  0  0  0  0  0  0  0
   59.1300   34.7170   44.9980 C   0  0  0  0  0  0  0  0  0  0  0  0
   59.0327   35.4413   44.1759 H   0  0  0  0  0  0  0  0  0  0  0  0
   59.5730   35.1410   46.2510 C   0  0  0  0  0  0  0  0  0  0  0  0
   59.8249   36.1990   46.4157 H   0  0  0  0  0  0  0  0  0  0  0  0
   59.6970   34.2240   47.2960 C   0  0  0  0  0  0  0  0  0  0  0  0
   60.0499   34.5639   48.2809 H   0  0  0  0  0  0  0  0  0  0  0  0
   59.3740   32.8670   47.1000 C   0  0  0  0  0  0  0  0  0  0  0  0
   59.4560   31.9310   48.1450 O   0  0  0  0  0  0  0  0  0  0  0  0
   58.9890   32.1570   49.4710 C   0  0  0  0  0  0  0  0  0  0  0  0
   59.7381   31.7945   50.1903 H   0  0  0  0  0  0  0  0  0  0  0  0
   58.8253   33.2340   49.6235 H   0  0  0  0  0  0  0  0  0  0  0  0
   58.0428   31.6171   49.6235 H   0  0  0  0  0  0  0  0  0  0  0  0
   59.5820   30.0160   45.6740 C   0  0  0  0  0  0  0  0  0  0  0  0
   60.6104   30.2862   45.9558 H   0  0  0  0  0  0  0  0  0  0  0  0
   59.2690   28.7140   45.4300 N   0  0  0  0  0  0  0  0  0  0  0  0
   60.0280   28.0020   45.5070 H   0  0  0  0  0  0  0  0  0  0  0  0
   57.4500   25.9740   45.9890 C   0  0  0  0  0  0  0  0  0  0  0  0
   57.1558   26.5720   46.8641 H   0  0  0  0  0  0  0  0  0  0  0  0
   58.3657   25.4041   46.2050 H   0  0  0  0  0  0  0  0  0  0  0  0
   56.3220   24.9850   45.6520 C   0  0  0  0  0  0  0  0  0  0  0  0
   55.3560   25.5026   45.7468 H   0  0  0  0  0  0  0  0  0  0  0  0
   56.3914   24.1396   46.3524 H   0  0  0  0  0  0  0  0  0  0  0  0
   56.4440   24.4520   44.2820 N   0  0  0  0  0  0  0  0  0  0  0  0
   55.6390   23.3250   43.8970 C   0  0  0  0  0  0  0  0  0  0  0  0
   55.2470   23.2170   42.7050 O   0  0  0  0  0  0  0  0  0  0  0  0
   55.3010   22.2940   44.8350 N   0  0  0  0  0  0  0  0  0  0  0  0
   54.3060   22.3370   45.6740 C   0  0  0  0  0  0  0  0  0  0  0  0
   53.0380   22.5980   45.2480 N   0  0  0  0  0  0  0  0  0  0  0  0
   51.9810   22.6360   46.1020 C   0  0  0  0  0  0  0  0  0  0  0  0
   50.9723   22.8454   45.7165 H   0  0  0  0  0  0  0  0  0  0  0  0
   52.1720   22.4090   47.4740 C   0  0  0  0  0  0  0  0  0  0  0  0
   51.0040   22.3980   48.4270 C   0  0  0  0  0  0  0  0  0  0  0  0
   51.3590   22.9550   49.6440 F   0  0  0  0  0  0  0  0  0  0  0  0
   50.5740   21.1020   48.6530 F   0  0  0  0  0  0  0  0  0  0  0  0
   49.9650   23.1290   47.8820 F   0  0  0  0  0  0  0  0  0  0  0  0
   53.4650   22.0970   47.9240 C   0  0  0  0  0  0  0  0  0  0  0  0
   53.6365   21.8762   48.9879 H   0  0  0  0  0  0  0  0  0  0  0  0
   54.5340   22.0660   47.0260 C   0  0  0  0  0  0  0  0  0  0  0  0
   55.5483   21.8300   47.3802 H   0  0  0  0  0  0  0  0  0  0  0  0
   57.5030   24.9170   43.3770 C   0  0  0  0  0  0  0  0  0  0  0  0
   57.1884   24.7537   42.3357 H   0  0  0  0  0  0  0  0  0  0  0  0
   58.4246   24.3534   43.5842 H   0  0  0  0  0  0  0  0  0  0  0  0
  1  2  1  0
  2  3  2  0
  3  4  1  0
  4  5  2  0
  5  6  1  0
  5  7  1  0
  7  8  1  0
  7  9  2  0
  9 10  1  0
 10 11  2  0
 11 12  1  0
 11 13  1  0
 13 14  1  0
 13 15  2  0
 15 16  1  0
 15 17  1  0
 17 18  1  0
 17 19  2  0
 19 20  1  0
 20 21  1  0
 21 22  1  0
 21 23  1  0
 21 24  1  0
  9 25  1  0
 25 26  1  0
 25 27  2  0
 27 28  1  0
  3 29  1  0
 29 30  1  0
 29 31  1  0
 29 32  1  0
 32 33  1  0
 32 34  1  0
 32 35  1  0
 35 36  1  0
 36 37  2  0
 36 38  1  0
 38 39  2  0
 39 40  1  0
 40 41  1  0
 41 42  1  0
 41 43  2  0
 43 44  1  0
 44 45  1  0
 44 46  1  0
 44 47  1  0
 43 48  1  0
 48 49  1  0
 48 50  2  0
 50 51  1  0
 35 52  1  0
 52 53  1  0
 52 54  1  0
 52  2  1  0
 27  4  1  0
 50 39  1  0
 19 10  1  0
M  CHG  2  27   1  40  -1
M  END
>  <UniqueID>  (3) 
2

>  <SMILES>  (3) 
COc1ccccc1-c1c[nH+]c(C2=CCN(C(=O)/N=c3/ccc(C(F)(F)F)c[n-]3)CC2)c(F)c1

>  <Energy>  (3) 
76.98518187193704

>  <Genealogy>  (3) 
COc1ccccc1-c1c[nH+]c(C2=CCN(C(=O)N=c3ccc(C(F)(F)F)c[n-]3)CC2)c(F)c1 (protonated)
COc1ccccc1-c1c[nH+]c(C2=CCN(C(=O)/N=c3/ccc(C(F)(F)F)c[n-]3)CC2)c(F)c1 (cis-trans isomerization)
COc1ccccc1-c1c[nH+]c(C2=CCN(C(=O)/N=c3/ccc(C(F)(F)F)c[n-]3)CC2)c(F)c1 (3D coordinates assigned)
COc1ccccc1-c1c[nH+]c(C2=CCN(C(=O)/N=c3/ccc(C(F)(F)F)c[n-]3)CC2)c(F)c1 (nonaromatic ring conformer: 76.98518187193704 kcal/mol)

>  <smiles>  (3) 
COc1ccccc1-c1cnc(C2=CCN(C(=O)N=c3ccc(C(F)(F)F)c[nH]3)CC2)c(F)c1

>  <score_type>  (3) 
oracle

>  <origin>  (3) 
adg

>  <m_score__min__energy>  (3) 
-8.8000000000000007

>  <m_primary>  (3) 
energy

$$$$
3:0
     RDKit          3D

 29 30  0  0  0  0  0  0  0  0999 V2000
   56.3830   24.6750   44.7110 C   0  0  0  0  0  0  0  0  0  0  0  0
   55.6220   25.2760   45.8450 C   0  0  0  0  0  0  0  0  0  0  0  0
   55.1490   24.5260   46.7410 O   0  0  0  0  0  0  0  0  0  0  0  0
   55.5330   26.7010   45.9560 N   0  0  0  0  0  0  0  0  0  0  0  0
   56.5520   27.6510   45.6080 C   0  0  0  0  0  0  0  0  0  0  0  0
   57.9200   27.3370   45.6780 C   0  0  0  0  0  0  0  0  0  0  0  0
   58.8790   28.2950   45.3390 C   0  0  0  0  0  0  0  0  0  0  0  0
   58.4840   29.5780   44.9520 C   0  0  0  0  0  0  0  0  0  0  0  0
   57.1210   29.9190   44.9240 C   0  0  0  0  0  0  0  0  0  0  0  0
   56.6690   31.2210   44.5210 N   0  0  0  0  0  0  0  0  0  0  0  0
   57.4920   32.3310   44.1360 C   0  0  0  0  0  0  0  0  0  0  0  0
   57.7290   32.5590   42.9190 O   0  0  0  0  0  0  0  0  0  0  0  0
   58.1050   33.1730   45.1790 C   0  0  0  0  0  0  0  0  0  0  0  0
   58.8740   34.3020   44.8560 C   0  0  0  0  0  0  0  0  0  0  0  0
   59.4190   35.0490   45.8510 N   0  0  0  0  0  0  0  0  0  0  0  0
   59.2320   34.7270   47.1580 C   0  0  0  0  0  0  0  0  0  0  0  0
   58.4670   33.6070   47.4850 C   0  0  0  0  0  0  0  0  0  0  0  0
   57.9230   32.8570   46.4910 N   0  0  0  0  0  0  0  0  0  0  0  0
   56.1650   28.9460   45.2420 C   0  0  0  0  0  0  0  0  0  0  0  0
   57.1886   24.0388   45.1063 H   0  0  0  0  0  0  0  0  0  0  0  0
   55.7041   24.0667   44.0953 H   0  0  0  0  0  0  0  0  0  0  0  0
   56.8174   25.4764   44.0953 H   0  0  0  0  0  0  0  0  0  0  0  0
   58.2367   26.3342   46.0006 H   0  0  0  0  0  0  0  0  0  0  0  0
   59.9480   28.0383   45.3769 H   0  0  0  0  0  0  0  0  0  0  0  0
   59.2419   30.3232   44.6685 H   0  0  0  0  0  0  0  0  0  0  0  0
   59.0343   34.5800   43.8038 H   0  0  0  0  0  0  0  0  0  0  0  0
   59.6798   35.3439   47.9510 H   0  0  0  0  0  0  0  0  0  0  0  0
   58.3057   33.3335   48.5382 H   0  0  0  0  0  0  0  0  0  0  0  0
   55.0960   29.2026   45.2037 H   0  0  0  0  0  0  0  0  0  0  0  0
  1  2  1  0
  2  3  2  0
  2  4  1  0
  4  5  1  0
  5  6  2  0
  6  7  1  0
  7  8  2  0
  8  9  1  0
  9 10  1  0
 10 11  1  0
 11 12  2  0
 11 13  1  0
 13 14  2  0
 14 15  1  0
 15 16  2  0
 16 17  1  0
 17 18  2  0
  9 19  2  0
 19  5  1  0
 18 13  1  0
  1 20  1  0
  1 21  1  0
  1 22  1  0
  6 23  1  0
  7 24  1  0
  8 25  1  0
 14 26  1  0
 16 27  1  0
 17 28  1  0
 19 29  1  0
M  CHG  2   4  -1  10  -1
M  END
>  <UniqueID>  (4) 
3

>  <SMILES>  (4) 
CC(=O)[N-]c1cccc([N-]C(=O)c2cnccn2)c1

>  <Energy>  (4) 
36.575701891086894

>  <Genealogy>  (4) 
CC(=O)[N-]c1cccc([N-]C(=O)c2cnccn2)c1 (protonated)
CC(=O)[N-]c1cccc([N-]C(=O)c2cnccn2)c1 (3D coordinates assigned)
CC(=O)[N-]c1cccc([N-]C(=O)c2cnccn2)c1 (optimized conformer: 36.575701891086894 kcal/mol)

>  <smiles>  (4) 
CC(=O)Nc1cccc(NC(=O)c2cnccn2)c1

>  <score_type>  (4) 
oracle

>  <origin>  (4) 
adg

>  <m_score__min__energy>  (4) 
-10.16

>  <m_primary>  (4) 
energy

$$$$
4:0
     RDKit          3D

 41 43  0  0  0  0  0  0  0  0999 V2000
   55.7190   26.6220   46.2170 N   0  0  0  0  0  0  0  0  0  0  0  0
   57.3640   27.1500   46.2020 S   0  0  0  0  0  0  0  0  0  0  0  0
   58.2010   26.1690   45.4290 O   0  0  0  0  0  0  0  0  0  0  0  0
   57.8830   27.2210   47.6110 O   0  0  0  0  0  0  0  0  0  0  0  0
   57.4600   28.7380   45.4500 C   0  0  0  0  0  0  0  0  0  0  0  0
   56.5820   29.0810   44.4130 C   0  0  0  0  0  0  0  0  0  0  0  0
   56.6650   30.3360   43.8060 C   0  0  0  0  0  0  0  0  0  0  0  0
   57.6320   31.2650   44.2260 C   0  0  0  0  0  0  0  0  0  0  0  0
   57.7530   32.6070   43.5490 C   0  0  0  0  0  0  0  0  0  0  0  0
   57.8490   33.7460   44.5710 C   0  0  0  0  0  0  0  0  0  0  0  0
   59.1920   33.8420   45.1470 N   0  0  0  0  0  0  0  0  0  0  0  0
   59.3890   33.9830   46.5610 C   0  0  0  0  0  0  0  0  0  0  0  0
   58.4050   34.2550   47.3020 O   0  0  0  0  0  0  0  0  0  0  0  0
   60.7340   33.8250   47.1640 C   0  0  0  0  0  0  0  0  0  0  0  0
   61.8630   33.5720   46.3600 C   0  0  0  0  0  0  0  0  0  0  0  0
   63.1270   33.4170   46.9350 C   0  0  0  0  0  0  0  0  0  0  0  0
   63.2830   33.5070   48.3210 C   0  0  0  0  0  0  0  0  0  0  0  0
   64.5140   33.3560   48.8810 N   0  0  0  0  0  0  0  0  0  0  0  0
   64.7020   33.4340   50.2250 C   0  0  0  0  0  0  0  0  0  0  0  0
   63.6170   33.6730   51.0730 C   0  0  0  0  0  0  0  0  0  0  0  0
   62.3410   33.8300   50.5280 C   0  0  0  0  0  0  0  0  0  0  0  0
   62.1600   33.7480   49.1410 C   0  0  0  0  0  0  0  0  0  0  0  0
   60.8930   33.9030   48.5610 C   0  0  0  0  0  0  0  0  0  0  0  0
   58.5160   30.9150   45.2600 C   0  0  0  0  0  0  0  0  0  0  0  0
   58.4310   29.6590   45.8670 C   0  0  0  0  0  0  0  0  0  0  0  0
   55.1290   27.4560   46.0030 H   0  0  0  0  0  0  0  0  0  0  0  0
   55.8242   28.3586   44.0757 H   0  0  0  0  0  0  0  0  0  0  0  0
   55.9698   30.5986   42.9950 H   0  0  0  0  0  0  0  0  0  0  0  0
   58.6576   32.6112   42.9232 H   0  0  0  0  0  0  0  0  0  0  0  0
   56.8527   32.7672   42.9376 H   0  0  0  0  0  0  0  0  0  0  0  0
   57.6063   34.6954   44.0712 H   0  0  0  0  0  0  0  0  0  0  0  0
   57.1395   33.5380   45.3855 H   0  0  0  0  0  0  0  0  0  0  0  0
   60.0230   33.8450   44.5150 H   0  0  0  0  0  0  0  0  0  0  0  0
   61.7482   33.4957   45.2687 H   0  0  0  0  0  0  0  0  0  0  0  0
   64.0010   33.2238   46.2956 H   0  0  0  0  0  0  0  0  0  0  0  0
   65.7104   33.3087   50.6462 H   0  0  0  0  0  0  0  0  0  0  0  0
   63.7670   33.7369   52.1608 H   0  0  0  0  0  0  0  0  0  0  0  0
   61.4798   34.0176   51.1861 H   0  0  0  0  0  0  0  0  0  0  0  0
   60.0176   34.0867   49.2013 H   0  0  0  0  0  0  0  0  0  0  0  0
   59.2793   31.6334   45.5938 H   0  0  0  0  0  0  0  0  0  0  0  0
   59.1284   29.3922   46.6747 H   0  0  0  0  0  0  0  0  0  0  0  0
  1  2  1  0
  2  3  2  0
  2  4  2  0
  2  5  1  0
  5  6  2  0
  6  7  1  0
  7  8  2  0
  8  9  1  0
  9 10  1  0
 10 11  1  0
 11 12  1  0
 12 13  2  0
 12 14  1  0
 14 15  2  0
 15 16  1  0
 16 17  2  0
 17 18  1  0
 18 19  2  0
 19 20  1  0
 20 21  2  0
 21 22  1  0
 22 23  2  0
  8 24  1  0
 24 25  2  0
 25  5  1  0
 23 14  1  0
 22 17  1  0
  1 26  1  0
  6 27  1  0
  7 28  1  0
  9 29  1  0
  9 30  1  0
 10 31  1  0
 10 32  1  0
 11 33  1  0
 15 34  1  0
 16 35  1  0
 19 36  1  0
 20 37  1  0
 21 38  1  0
 23 39  1  0
 24 40  1  0
 25 41  1  0
M  CHG  1   1  -1
M  END
>  <UniqueID>  (5) 
4

>  <SMILES>  (5) 
[NH-]S(=O)(=O)c1ccc(CCNC(=O)c2ccc3ncccc3c2)cc1

>  <Energy>  (5) 
44.50684932534506

>  <Genealogy>  (5) 
[NH-]S(=O)(=O)c1ccc(CCNC(=O)c2ccc3ncccc3c2)cc1 (protonated)
[NH-]S(=O)(=O)c1ccc(CCNC(=O)c2ccc3ncccc3c2)cc1 (3D coordinates assigned)
[NH-]S(=O)(=O)c1ccc(CCNC(=O)c2ccc3ncccc3c2)cc1 (optimized conformer: 44.50684932534506 kcal/mol)

>  <smiles>  (5) 
NS(=O)(=O)c1ccc(CCNC(=O)c2ccc3ncccc3c2)cc1

>  <score_type>  (5) 
oracle

>  <origin>  (5) 
adg

>  <m_score__min__energy>  (5) 
-11.69

>  <m_primary>  (5) 
energy

$$$$
5:0
     RDKit          3D

 45 47  0  0  0  0  0  0  0  0999 V2000
   64.3420   32.7320   49.0080 C   0  0  0  0  0  0  0  0  0  0  0  0
   63.5410   33.8120   48.5390 O   0  0  0  0  0  0  0  0  0  0  0  0
   62.1370   33.8370   48.5460 C   0  0  0  0  0  0  0  0  0  0  0  0
   61.4110   33.8710   47.3400 C   0  0  0  0  0  0  0  0  0  0  0  0
   60.0110   33.8740   47.3430 C   0  0  0  0  0  0  0  0  0  0  0  0
   59.2510   33.9440   46.0790 C   0  0  0  0  0  0  0  0  0  0  0  0
   58.6970   32.8900   45.4620 C   0  0  0  0  0  0  0  0  0  0  0  0
   57.3990   33.1120   44.2400 S   0  0  0  0  0  0  0  0  0  0  0  0
   57.4080   31.3340   43.9810 C   0  0  0  0  0  0  0  0  0  0  0  0
   56.6900   30.6770   42.6650 S   0  0  0  0  0  0  0  0  0  0  0  0
   58.2930   30.5940   44.8260 N   0  0  0  0  0  0  0  0  0  0  0  0
   58.3040   29.1350   44.9570 C   0  0  0  0  0  0  0  0  0  0  0  0
   56.9930   28.6630   45.4980 C   0  0  0  0  0  0  0  0  0  0  0  0
   55.9460   29.3220   45.2520 O   0  0  0  0  0  0  0  0  0  0  0  0
   56.9560   27.4650   46.2930 N   0  0  0  0  0  0  0  0  0  0  0  0
   56.3840   26.3350   45.9990 C   0  0  0  0  0  0  0  0  0  0  0  0
   55.0420   26.1950   45.9920 N   0  0  0  0  0  0  0  0  0  0  0  0
   54.6660   24.9350   45.6440 C   0  0  0  0  0  0  0  0  0  0  0  0
   55.7100   24.0600   45.3670 C   0  0  0  0  0  0  0  0  0  0  0  0
   57.1560   24.8960   45.5680 S   0  0  0  0  0  0  0  0  0  0  0  0
   58.9900   31.4730   45.6990 C   0  0  0  0  0  0  0  0  0  0  0  0
   59.7300   31.0480   46.6270 O   0  0  0  0  0  0  0  0  0  0  0  0
   59.3250   33.9050   48.5580 C   0  0  0  0  0  0  0  0  0  0  0  0
   60.0270   33.8730   49.7760 C   0  0  0  0  0  0  0  0  0  0  0  0
   59.3620   33.8840   51.0150 O   0  0  0  0  0  0  0  0  0  0  0  0
   58.6560   32.7760   51.5630 C   0  0  0  0  0  0  0  0  0  0  0  0
   61.4320   33.8320   49.7790 C   0  0  0  0  0  0  0  0  0  0  0  0
   62.0600   33.7890   51.0380 O   0  0  0  0  0  0  0  0  0  0  0  0
   62.2450   32.6400   51.8560 C   0  0  0  0  0  0  0  0  0  0  0  0
   64.3448   32.7283   50.1080 H   0  0  0  0  0  0  0  0  0  0  0  0
   63.9286   31.7817   48.6391 H   0  0  0  0  0  0  0  0  0  0  0  0
   65.3714   32.8518   48.6391 H   0  0  0  0  0  0  0  0  0  0  0  0
   61.9514   33.8955   46.3822 H   0  0  0  0  0  0  0  0  0  0  0  0
   59.1306   34.9316   45.6097 H   0  0  0  0  0  0  0  0  0  0  0  0
   58.4757   28.6814   43.9697 H   0  0  0  0  0  0  0  0  0  0  0  0
   59.1081   28.8393   45.6469 H   0  0  0  0  0  0  0  0  0  0  0  0
   53.6107   24.6301   45.5859 H   0  0  0  0  0  0  0  0  0  0  0  0
   55.6085   23.0061   45.0688 H   0  0  0  0  0  0  0  0  0  0  0  0
   58.2261   33.9549   48.5629 H   0  0  0  0  0  0  0  0  0  0  0  0
   58.6887   32.8273   52.6613 H   0  0  0  0  0  0  0  0  0  0  0  0
   57.6094   32.8049   51.2256 H   0  0  0  0  0  0  0  0  0  0  0  0
   59.1243   31.8396   51.2256 H   0  0  0  0  0  0  0  0  0  0  0  0
   62.1979   32.9326   52.9153 H   0  0  0  0  0  0  0  0  0  0  0  0
   61.4534   31.9067   51.6426 H   0  0  0  0  0  0  0  0  0  0  0  0
   63.2268   32.1922   51.6426 H   0  0  0  0  0  0  0  0  0  0  0  0
  1  2  1  0
  2  3  1  0
  3  4  2  0
  4  5  1  0
  5  6  1  0
  6  7  2  3
  7  8  1  0
  8  9  1  0
  9 10  2  0
  9 11  1  0
 11 12  1  0
 12 13  1  0
 13 14  2  0
 13 15  1  0
 15 16  2  3
 16 17  1  0
 17 18  1  0
 18 19  2  0
 19 20  1  0
 11 21  1  0
 21 22  2  0
  5 23  2  0
 23 24  1  0
 24 25  1  0
 25 26  1  0
 24 27  2  0
 27 28  1  0
 28 29  1  0
 27  3  1  0
 21  7  1  0
 20 16  1  0
  1 30  1  0
  1 31  1  0
  1 32  1  0
  4 33  1  0
  6 34  1  0
 12 35  1  0
 12 36  1  0
 18 37  1  0
 19 38  1  0
 23 39  1  0
 26 40  1  0
 26 41  1  0
 26 42  1  0
 29 43  1  0
 29 44  1  0
 29 45  1  0
M  CHG  1  17  -1
M  END
>  <UniqueID>  (6) 
5

>  <SMILES>  (6) 
COc1cc(C=C2SC(=S)N(CC(=O)N=c3[n-]ccs3)C2=O)cc(OC)c1OC

>  <Energy>  (6) 
106.6723717576908

>  <Genealogy>  (6) 
COc1cc(C=C2SC(=S)N(CC(=O)N=c3[n-]ccs3)C2=O)cc(OC)c1OC (protonated)
COc1cc(C=C2SC(=S)N(CC(=O)N=c3[n-]ccs3)C2=O)cc(OC)c1OC (3D coordinates assigned)
COc1cc(C=C2SC(=S)N(CC(=O)N=c3[n-]ccs3)C2=O)cc(OC)c1OC (nonaromatic ring conformer: 106.6723717576908 kcal/mol)

>  <smiles>  (6) 
COc1cc(C=C2SC(=S)N(CC(=O)N=c3[nH]ccs3)C2=O)cc(OC)c1OC

>  <score_type>  (6) 
oracle

>  <origin>  (6) 
adg

>  <m_score__min__energy>  (6) 
-10.43

>  <m_primary>  (6) 
energy

$$$$
6:0
     RDKit          3D

 48 50  0  0  0  0  0  0  0  0999 V2000
   64.5230   32.7020   49.3830 C   0  0  0  0  0  0  0  0  0  0  0  0
   63.8420   33.2040   48.1140 C   0  0  0  0  0  0  0  0  0  0  0  0
   62.6620   33.9380   48.4340 O   0  0  0  0  0  0  0  0  0  0  0  0
   61.4290   33.8360   47.7680 C   0  0  0  0  0  0  0  0  0  0  0  0
   61.4260   33.9350   46.3710 C   0  0  0  0  0  0  0  0  0  0  0  0
   60.2290   33.8460   45.6550 C   0  0  0  0  0  0  0  0  0  0  0  0
   59.0170   33.6640   46.3290 C   0  0  0  0  0  0  0  0  0  0  0  0
   57.5130   33.5850   45.4150 S   0  0  0  0  0  0  0  0  0  0  0  0
   57.3140   34.8340   44.6010 O   0  0  0  0  0  0  0  0  0  0  0  0
   56.3700   33.4430   46.3810 O   0  0  0  0  0  0  0  0  0  0  0  0
   57.5440   32.2130   44.3520 N   0  0  0  0  0  0  0  0  0  0  0  0
   57.5580   30.8560   44.8240 C   0  0  0  0  0  0  0  0  0  0  0  0
   56.9890   29.8100   44.0740 C   0  0  0  0  0  0  0  0  0  0  0  0
   57.0470   28.4940   44.5400 C   0  0  0  0  0  0  0  0  0  0  0  0
   57.6850   28.2010   45.7520 C   0  0  0  0  0  0  0  0  0  0  0  0
   57.7640   26.8600   46.2410 N   0  0  0  0  0  0  0  0  0  0  0  0
   56.4110   25.7750   46.2710 S   0  0  0  0  0  0  0  0  0  0  0  0
   55.1610   26.5450   45.9490 O   0  0  0  0  0  0  0  0  0  0  0  0
   56.2720   25.1990   47.6520 O   0  0  0  0  0  0  0  0  0  0  0  0
   56.5910   24.4670   45.1030 C   0  0  0  0  0  0  0  0  0  0  0  0
   55.5310   24.1370   44.2450 C   0  0  0  0  0  0  0  0  0  0  0  0
   55.6630   23.0780   43.3410 C   0  0  0  0  0  0  0  0  0  0  0  0
   56.8500   22.3410   43.2940 C   0  0  0  0  0  0  0  0  0  0  0  0
   56.9740   21.3110   42.4210 F   0  0  0  0  0  0  0  0  0  0  0  0
   57.9100   22.6650   44.1500 C   0  0  0  0  0  0  0  0  0  0  0  0
   57.7820   23.7270   45.0510 C   0  0  0  0  0  0  0  0  0  0  0  0
   58.2030   29.2450   46.5270 C   0  0  0  0  0  0  0  0  0  0  0  0
   58.1460   30.5630   46.0640 C   0  0  0  0  0  0  0  0  0  0  0  0
   59.0100   33.5750   47.7270 C   0  0  0  0  0  0  0  0  0  0  0  0
   60.2070   33.6580   48.4460 C   0  0  0  0  0  0  0  0  0  0  0  0
   63.9921   33.0933   50.2634 H   0  0  0  0  0  0  0  0  0  0  0  0
   64.5011   31.6024   49.4004 H   0  0  0  0  0  0  0  0  0  0  0  0
   65.5669   33.0483   49.4004 H   0  0  0  0  0  0  0  0  0  0  0  0
   64.5364   33.8573   47.5654 H   0  0  0  0  0  0  0  0  0  0  0  0
   63.5640   32.3384   47.4947 H   0  0  0  0  0  0  0  0  0  0  0  0
   62.3737   34.0841   45.8328 H   0  0  0  0  0  0  0  0  0  0  0  0
   60.2401   33.9193   44.5575 H   0  0  0  0  0  0  0  0  0  0  0  0
   57.3940   32.3970   43.3350 H   0  0  0  0  0  0  0  0  0  0  0  0
   56.4958   30.0296   43.1156 H   0  0  0  0  0  0  0  0  0  0  0  0
   56.5895   27.6844   43.9524 H   0  0  0  0  0  0  0  0  0  0  0  0
   54.5943   24.7124   44.2834 H   0  0  0  0  0  0  0  0  0  0  0  0
   54.8320   22.8247   42.6663 H   0  0  0  0  0  0  0  0  0  0  0  0
   58.8434   22.0841   44.1137 H   0  0  0  0  0  0  0  0  0  0  0  0
   58.6167   23.9827   45.7202 H   0  0  0  0  0  0  0  0  0  0  0  0
   58.6571   29.0275   47.5050 H   0  0  0  0  0  0  0  0  0  0  0  0
   58.5648   31.3756   46.6757 H   0  0  0  0  0  0  0  0  0  0  0  0
   58.0585   33.4392   48.2620 H   0  0  0  0  0  0  0  0  0  0  0  0
   60.1941   33.5841   49.5434 H   0  0  0  0  0  0  0  0  0  0  0  0
  1  2  1  0
  2  3  1  0
  3  4  1  0
  4  5  2  0
  5  6  1  0
  6  7  2  0
  7  8  1  0
  8  9  2  0
  8 10  2  0
  8 11  1  0
 11 12  1  0
 12 13  2  0
 13 14  1  0
 14 15  2  0
 15 16  1  0
 16 17  1  0
 17 18  2  0
 17 19  2  0
 17 20  1  0
 20 21  2  0
 21 22  1  0
 22 23  2  0
 23 24  1  0
 23 25  1  0
 25 26  2  0
 15 27  1  0
 27 28  2  0
  7 29  1  0
 29 30  2  0
 30  4  1  0
 28 12  1  0
 26 20  1  0
  1 31  1  0
  1 32  1  0
  1 33  1  0
  2 34  1  0
  2 35  1  0
  5 36  1  0
  6 37  1  0
 11 38  1  0
 13 39  1  0
 14 40  1  0
 21 41  1  0
 22 42  1  0
 25 43  1  0
 26 44  1  0
 27 45  1  0
 28 46  1  0
 29 47  1  0
 30 48  1  0
M  CHG  1  16  -1
M  END
>  <UniqueID>  (7) 
6

>  <SMILES>  (7) 
CCOc1ccc(S(=O)(=O)Nc2ccc([N-]S(=O)(=O)c3ccc(F)cc3)cc2)cc1

>  <Energy>  (7) 
57.17164821800242

>  <Genealogy>  (7) 
CCOc1ccc(S(=O)(=O)Nc2ccc([N-]S(=O)(=O)c3ccc(F)cc3)cc2)cc1 (protonated)
CCOc1ccc(S(=O)(=O)Nc2ccc([N-]S(=O)(=O)c3ccc(F)cc3)cc2)cc1 (3D coordinates assigned)
CCOc1ccc(S(=O)(=O)Nc2ccc([N-]S(=O)(=O)c3ccc(F)cc3)cc2)cc1 (optimized conformer: 57.17164821800242 kcal/mol)

>  <smiles>  (7) 
CCOc1ccc(S(=O)(=O)Nc2ccc(NS(=O)(=O)c3ccc(F)cc3)cc2)cc1

>  <score_type>  (7) 
oracle

>  <origin>  (7) 
adg

>  <m_score__min__energy>  (7) 
-10.51

>  <m_primary>  (7) 
energy

$$$$
7:0
     RDKit          3D

 46 48  0  0  0  0  0  0  0  0999 V2000
   55.6830   29.7370   43.6150 C   0  0  0  0  0  0  0  0  0  0  0  0
   56.2450   30.7030   44.4940 O   0  0  0  0  0  0  0  0  0  0  0  0
   57.2450   31.5970   44.0920 C   0  0  0  0  0  0  0  0  0  0  0  0
   57.5470   31.6980   42.8700 O   0  0  0  0  0  0  0  0  0  0  0  0
   57.9480   32.4180   45.1010 C   0  0  0  0  0  0  0  0  0  0  0  0
   57.9230   32.0600   46.4610 C   0  0  0  0  0  0  0  0  0  0  0  0
   58.5830   32.8450   47.4120 C   0  0  0  0  0  0  0  0  0  0  0  0
   59.2540   34.0140   47.0230 C   0  0  0  0  0  0  0  0  0  0  0  0
   59.9530   34.8280   47.9730 N   0  0  0  0  0  0  0  0  0  0  0  0
   60.7760   34.3640   49.0510 C   0  0  0  0  0  0  0  0  0  0  0  0
   60.2370   33.7250   49.9930 O   0  0  0  0  0  0  0  0  0  0  0  0
   62.2730   34.4940   49.0270 C   0  0  0  0  0  0  0  0  0  0  0  0
   63.0050   33.1530   48.1010 S   0  0  0  0  0  0  0  0  0  0  0  0
   64.4700   33.4300   47.9130 O   0  0  0  0  0  0  0  0  0  0  0  0
   62.3480   33.0750   46.7510 O   0  0  0  0  0  0  0  0  0  0  0  0
   62.8220   31.5800   48.9390 C   0  0  0  0  0  0  0  0  0  0  0  0
   61.5690   30.8480   48.5550 C   0  0  0  0  0  0  0  0  0  0  0  0
   60.4530   30.7190   49.3480 C   0  0  0  0  0  0  0  0  0  0  0  0
   59.5700   30.0240   48.6750 O   0  0  0  0  0  0  0  0  0  0  0  0
   60.1090   29.7290   47.5130 C   0  0  0  0  0  0  0  0  0  0  0  0
   59.4130   28.9730   46.4550 C   0  0  0  0  0  0  0  0  0  0  0  0
   58.2230   28.2820   46.7460 C   0  0  0  0  0  0  0  0  0  0  0  0
   57.5500   27.5830   45.7390 C   0  0  0  0  0  0  0  0  0  0  0  0
   58.0530   27.5730   44.4350 C   0  0  0  0  0  0  0  0  0  0  0  0
   59.2330   28.2590   44.1360 C   0  0  0  0  0  0  0  0  0  0  0  0
   59.9120   28.9560   45.1400 C   0  0  0  0  0  0  0  0  0  0  0  0
   61.3620   30.2130   47.3860 N   0  0  0  0  0  0  0  0  0  0  0  0
   59.3120   34.3530   45.6670 C   0  0  0  0  0  0  0  0  0  0  0  0
   58.6540   33.5690   44.7130 C   0  0  0  0  0  0  0  0  0  0  0  0
   55.2157   28.9337   44.2035 H   0  0  0  0  0  0  0  0  0  0  0  0
   54.9230   30.2166   42.9807 H   0  0  0  0  0  0  0  0  0  0  0  0
   56.4756   29.3133   42.9807 H   0  0  0  0  0  0  0  0  0  0  0  0
   57.3810   31.1570   46.7786 H   0  0  0  0  0  0  0  0  0  0  0  0
   58.5759   32.5443   48.4701 H   0  0  0  0  0  0  0  0  0  0  0  0
   62.5455   35.4499   48.5558 H   0  0  0  0  0  0  0  0  0  0  0  0
   62.6489   34.4586   50.0602 H   0  0  0  0  0  0  0  0  0  0  0  0
   63.6868   30.9479   48.6889 H   0  0  0  0  0  0  0  0  0  0  0  0
   62.7612   31.7890   50.0172 H   0  0  0  0  0  0  0  0  0  0  0  0
   60.3252   31.1252   50.3622 H   0  0  0  0  0  0  0  0  0  0  0  0
   57.8202   28.2915   47.7695 H   0  0  0  0  0  0  0  0  0  0  0  0
   56.6227   27.0398   45.9737 H   0  0  0  0  0  0  0  0  0  0  0  0
   57.5199   27.0251   43.6441 H   0  0  0  0  0  0  0  0  0  0  0  0
   59.6282   28.2507   43.1095 H   0  0  0  0  0  0  0  0  0  0  0  0
   60.8411   29.4938   44.9003 H   0  0  0  0  0  0  0  0  0  0  0  0
   59.8781   35.2409   45.3490 H   0  0  0  0  0  0  0  0  0  0  0  0
   58.6897   33.8559   43.6517 H   0  0  0  0  0  0  0  0  0  0  0  0
  1  2  1  0
  2  3  1  0
  3  4  2  0
  3  5  1  0
  5  6  2  0
  6  7  1  0
  7  8  2  0
  8  9  1  0
  9 10  1  0
 10 11  2  0
 10 12  1  0
 12 13  1  0
 13 14  2  0
 13 15  2  0
 13 16  1  0
 16 17  1  0
 17 18  2  0
 18 19  1  0
 19 20  1  0
 20 21  1  0
 21 22  2  0
 22 23  1  0
 23 24  2  0
 24 25  1  0
 25 26  2  0
 20 27  2  0
  8 28  1  0
 28 29  2  0
 29  5  1  0
 27 17  1  0
 26 21  1  0
  1 30  1  0
  1 31  1  0
  1 32  1  0
  6 33  1  0
  7 34  1  0
 12 35  1  0
 12 36  1  0
 16 37  1  0
 16 38  1  0
 18 39  1  0
 22 40  1  0
 23 41  1  0
 24 42  1  0
 25 43  1  0
 26 44  1  0
 28 45  1  0
 29 46  1  0
M  CHG  1   9  -1
M  END
>  <UniqueID>  (8) 
7

>  <SMILES>  (8) 
COC(=O)c1ccc([N-]C(=O)CS(=O)(=O)Cc2coc(-c3ccccc3)n2)cc1

>  <Energy>  (8) 
65.34898625745049

>  <Genealogy>  (8) 
COC(=O)c1ccc([N-]C(=O)CS(=O)(=O)Cc2coc(-c3ccccc3)n2)cc1 (protonated)
COC(=O)c1ccc([N-]C(=O)CS(=O)(=O)Cc2coc(-c3ccccc3)n2)cc1 (3D coordinates assigned)
COC(=O)c1ccc([N-]C(=O)CS(=O)(=O)Cc2coc(-c3ccccc3)n2)cc1 (optimized conformer: 65.34898625745049 kcal/mol)

>  <smiles>  (8) 
COC(=O)c1ccc(NC(=O)CS(=O)(=O)Cc2coc(-c3ccccc3)n2)cc1

>  <score_type>  (8) 
oracle

>  <origin>  (8) 
adg

>  <m_score__min__energy>  (8) 
-10.220000000000001

>  <m_primary>  (8) 
energy

$$$$
8:0
     RDKit          3D

 33 35  0  0  1  0  0  0  0  0999 V2000
   60.9430   26.7300   46.7090 C   0  0  0  0  0  0  0  0  0  0  0  0
   60.0940   27.8080   46.2240 N   0  0  0  0  0  0  0  0  0  0  0  0
   60.4920   29.0760   45.9770 C   0  0  0  0  0  0  0  0  0  0  0  0
   59.4020   29.7650   45.5410 N   0  0  0  0  0  0  0  0  0  0  0  0
   58.3560   28.9230   45.5240 C   0  0  0  0  0  0  0  0  0  0  0  0
   57.0250   29.0600   45.1800 C   0  0  0  0  0  0  0  0  0  0  0  0
   56.5960   30.1900   44.7800 N   0  0  0  0  0  0  0  0  0  0  0  0
   57.3100   31.2000   44.0660 C   0  0  0  0  0  0  0  0  0  0  0  0
   57.8590   32.2850   44.9200 C   0  0  0  0  0  0  0  0  0  0  0  0
   58.4760   33.4120   44.4160 C   0  0  0  0  0  0  0  0  0  0  0  0
   58.9850   34.4170   45.2130 C   0  0  0  0  0  0  0  0  0  0  0  0
   58.8910   34.3260   46.5860 C   0  0  0  0  0  0  0  0  0  0  0  0
   59.3980   35.3300   47.4550 N   0  0  0  0  0  0  0  0  0  0  0  0
   58.2830   33.2160   47.1230 C   0  0  0  0  0  0  0  0  0  0  0  0
   57.7780   32.2210   46.3160 C   0  0  0  0  0  0  0  0  0  0  0  0
   56.1410   28.0470   45.2460 N   0  0  0  0  0  0  0  0  0  0  0  0
   56.6090   26.8610   45.6700 C   0  0  0  0  0  0  0  0  0  0  0  0
   57.8920   26.6650   46.0200 N   0  0  0  0  0  0  0  0  0  0  0  0
   58.7810   27.6770   45.9550 C   0  0  0  0  0  0  0  0  0  0  0  0
   60.9431   26.7299   47.8090 H   0  0  0  0  0  0  0  0  0  0  0  0
   60.5582   25.7669   46.3423 H   0  0  0  0  0  0  0  0  0  0  0  0
   61.9694   26.8784   46.3423 H   0  0  0  0  0  0  0  0  0  0  0  0
   61.5084   29.4768   46.1047 H   0  0  0  0  0  0  0  0  0  0  0  0
   58.1476   30.7208   43.5381 H   0  0  0  0  0  0  0  0  0  0  0  0
   56.5872   31.6727   43.3848 H   0  0  0  0  0  0  0  0  0  0  0  0
   58.5665   33.5142   43.3245 H   0  0  0  0  0  0  0  0  0  0  0  0
   59.4666   35.2922   44.7525 H   0  0  0  0  0  0  0  0  0  0  0  0
   60.2280   35.1360   48.0700 H   0  0  0  0  0  0  0  0  0  0  0  0
   58.9080   36.2500   47.4440 H   0  0  0  0  0  0  0  0  0  0  0  0
   58.1985   33.1211   48.2156 H   0  0  0  0  0  0  0  0  0  0  0  0
   57.2962   31.3492   46.7827 H   0  0  0  0  0  0  0  0  0  0  0  0
   55.1420   28.1770   44.9800 H   0  0  0  0  0  0  0  0  0  0  0  0
   55.9114   26.0129   45.7335 H   0  0  0  0  0  0  0  0  0  0  0  0
  1  2  1  0
  2  3  1  0
  3  4  2  0
  4  5  1  0
  5  6  1  0
  6  7  2  0
  7  8  1  0
  8  9  1  0
  9 10  2  0
 10 11  1  0
 11 12  2  0
 12 13  1  0
 12 14  1  0
 14 15  2  0
  6 16  1  0
 16 17  1  0
 17 18  2  0
 18 19  1  0
 19  2  1  0
 19  5  2  0
 15  9  1  0
  1 20  1  0
  1 21  1  0
  1 22  1  0
  3 23  1  0
  8 24  1  0
  8 25  1  0
 10 26  1  0
 11 27  1  0
 13 28  1  0
 13 29  1  0
 14 30  1  0
 15 31  1  0
 16 32  1  0
 17 33  1  0
M  END
>  <smiles>  (9) 
Cn1cnc2c(=NCc3ccc(N)cc3)[nH]cnc21

>  <score_type>  (9) 
oracle

>  <origin>  (9) 
adg

>  <m_score__min__energy>  (9) 
-6.5199999999999996

>  <m_primary>  (9) 
energy

$$$$
9:0
     RDKit          3D

 31 32  0  0  0  0  0  0  0  0999 V2000
   60.3800   28.8950   48.0400 C   0  0  0  0  0  0  0  0  0  0  0  0
   59.9240   27.5470   48.0100 O   0  0  0  0  0  0  0  0  0  0  0  0
   58.8420   27.0930   47.2400 C   0  0  0  0  0  0  0  0  0  0  0  0
   58.6820   25.7140   47.0660 C   0  0  0  0  0  0  0  0  0  0  0  0
   57.6150   25.2140   46.3170 C   0  0  0  0  0  0  0  0  0  0  0  0
   56.7040   26.0900   45.7220 C   0  0  0  0  0  0  0  0  0  0  0  0
   56.8600   27.4740   45.8610 C   0  0  0  0  0  0  0  0  0  0  0  0
   55.8980   28.3410   45.2430 N   0  0  0  0  0  0  0  0  0  0  0  0
   56.1090   29.7080   44.8740 C   0  0  0  0  0  0  0  0  0  0  0  0
   55.1230   30.3990   44.5080 O   0  0  0  0  0  0  0  0  0  0  0  0
   57.4360   30.2470   44.8160 N   0  0  0  0  0  0  0  0  0  0  0  0
   57.8550   31.5690   45.1970 C   0  0  0  0  0  0  0  0  0  0  0  0
   58.1590   31.8890   46.5340 C   0  0  0  0  0  0  0  0  0  0  0  0
   58.5870   33.1760   46.8720 C   0  0  0  0  0  0  0  0  0  0  0  0
   58.7300   34.1500   45.8820 C   0  0  0  0  0  0  0  0  0  0  0  0
   58.4570   33.8370   44.5490 C   0  0  0  0  0  0  0  0  0  0  0  0
   58.0280   32.5490   44.2000 C   0  0  0  0  0  0  0  0  0  0  0  0
   57.7650   32.2460   42.8150 C   0  0  0  0  0  0  0  0  0  0  0  0
   57.5550   32.0060   41.7030 N   0  0  0  0  0  0  0  0  0  0  0  0
   57.9170   27.9740   46.6440 C   0  0  0  0  0  0  0  0  0  0  0  0
   60.4905   29.2215   49.0846 H   0  0  0  0  0  0  0  0  0  0  0  0
   61.3518   28.9648   47.5293 H   0  0  0  0  0  0  0  0  0  0  0  0
   59.6502   29.5404   47.5293 H   0  0  0  0  0  0  0  0  0  0  0  0
   59.4019   25.0188   47.5225 H   0  0  0  0  0  0  0  0  0  0  0  0
   57.4915   24.1278   46.1952 H   0  0  0  0  0  0  0  0  0  0  0  0
   55.8597   25.6901   45.1413 H   0  0  0  0  0  0  0  0  0  0  0  0
   58.0592   31.1223   47.3165 H   0  0  0  0  0  0  0  0  0  0  0  0
   58.8117   33.4220   47.9203 H   0  0  0  0  0  0  0  0  0  0  0  0
   59.0579   35.1646   46.1524 H   0  0  0  0  0  0  0  0  0  0  0  0
   58.5790   34.6039   43.7699 H   0  0  0  0  0  0  0  0  0  0  0  0
   58.0220   29.0589   46.7919 H   0  0  0  0  0  0  0  0  0  0  0  0
  1  2  1  0
  2  3  1  0
  3  4  2  0
  4  5  1  0
  5  6  2  0
  6  7  1  0
  7  8  1  0
  8  9  1  0
  9 10  2  0
  9 11  1  0
 11 12  1  0
 12 13  2  0
 13 14  1  0
 14 15  2  0
 15 16  1  0
 16 17  2  0
 17 18  1  0
 18 19  3  0
  7 20  2  0
 20  3  1  0
 17 12  1  0
  1 21  1  0
  1 22  1  0
  1 23  1  0
  4 24  1  0
  5 25  1  0
  6 26  1  0
 13 27  1  0
 14 28  1  0
 15 29  1  0
 16 30  1  0
 20 31  1  0
M  CHG  2   8  -1  11  -1
M  END
>  <UniqueID>  (10) 
8

>  <SMILES>  (10) 
COc1cccc([N-]C(=O)[N-]c2ccccc2C#N)c1

>  <Energy>  (10) 
37.161845012390316

>  <Genealogy>  (10) 
COc1cccc([N-]C(=O)[N-]c2ccccc2C#N)c1 (protonated)
COc1cccc([N-]C(=O)[N-]c2ccccc2C#N)c1 (3D coordinates assigned)
COc1cccc([N-]C(=O)[N-]c2ccccc2C#N)c1 (optimized conformer: 37.161845012390316 kcal/mol)

>  <smiles>  (10) 
COc1cccc(NC(=O)Nc2ccccc2C#N)c1

>  <score_type>  (10) 
oracle

>  <origin>  (10) 
adg

>  <m_score__min__energy>  (10) 
-10.31

>  <m_primary>  (10) 
energy

$$$$
10:0
     RDKit          3D

 42 45  0  0  0  0  0  0  0  0999 V2000
   54.3750   26.7160   45.2230 H   0  0  0  0  0  0  0  0  0  0  0  0
   54.4860   25.7630   45.6270 N   0  0  0  0  0  0  0  0  0  0  0  0
   55.5920   25.2420   46.0650 C   0  0  0  0  0  0  0  0  0  0  0  0
   55.5060   24.0280   46.7600 C   0  0  0  0  0  0  0  0  0  0  0  0
   54.5262   23.5515   46.9115 H   0  0  0  0  0  0  0  0  0  0  0  0
   56.6600   23.4210   47.2610 C   0  0  0  0  0  0  0  0  0  0  0  0
   56.5750   22.1130   47.9830 C   0  0  0  0  0  0  0  0  0  0  0  0
   56.5866   22.2918   49.0683 H   0  0  0  0  0  0  0  0  0  0  0  0
   55.6417   21.6011   47.7057 H   0  0  0  0  0  0  0  0  0  0  0  0
   57.4342   21.4846   47.7057 H   0  0  0  0  0  0  0  0  0  0  0  0
   57.8700   24.0000   47.0590 N   0  0  0  0  0  0  0  0  0  0  0  0
   58.0080   25.1770   46.3940 C   0  0  0  0  0  0  0  0  0  0  0  0
   59.2840   25.7190   46.2230 C   0  0  0  0  0  0  0  0  0  0  0  0
   60.1606   25.1902   46.6255 H   0  0  0  0  0  0  0  0  0  0  0  0
   59.4540   26.9250   45.5460 C   0  0  0  0  0  0  0  0  0  0  0  0
   60.4646   27.3366   45.4068 H   0  0  0  0  0  0  0  0  0  0  0  0
   58.3430   27.6170   45.0410 C   0  0  0  0  0  0  0  0  0  0  0  0
   58.4990   28.8520   44.3210 N   0  0  0  0  0  0  0  0  0  0  0  0
   58.8040   28.8000   43.3230 H   0  0  0  0  0  0  0  0  0  0  0  0
   58.1350   30.1390   44.8440 C   0  0  0  0  0  0  0  0  0  0  0  0
   57.4710   30.2330   45.9130 O   0  0  0  0  0  0  0  0  0  0  0  0
   58.4580   31.3810   44.0720 C   0  0  0  0  0  0  0  0  0  0  0  0
   59.5059   31.3412   43.7398 H   0  0  0  0  0  0  0  0  0  0  0  0
   57.7921   31.4469   43.1989 H   0  0  0  0  0  0  0  0  0  0  0  0
   58.2570   32.5880   44.9360 C   0  0  0  0  0  0  0  0  0  0  0  0
   57.2090   33.5000   44.8450 C   0  0  0  0  0  0  0  0  0  0  0  0
   56.3575   33.4102   44.1545 H   0  0  0  0  0  0  0  0  0  0  0  0
   57.3850   34.5120   45.7250 N   0  0  0  0  0  0  0  0  0  0  0  0
   56.7560   35.3340   45.8670 H   0  0  0  0  0  0  0  0  0  0  0  0
   58.5390   34.2530   46.3630 C   0  0  0  0  0  0  0  0  0  0  0  0
   59.1480   35.0250   47.3510 C   0  0  0  0  0  0  0  0  0  0  0  0
   58.6857   35.9569   47.7087 H   0  0  0  0  0  0  0  0  0  0  0  0
   60.3730   34.5740   47.8760 C   0  0  0  0  0  0  0  0  0  0  0  0
   60.8808   35.1587   48.6572 H   0  0  0  0  0  0  0  0  0  0  0  0
   60.9550   33.3760   47.4070 C   0  0  0  0  0  0  0  0  0  0  0  0
   61.9128   33.0333   47.8256 H   0  0  0  0  0  0  0  0  0  0  0  0
   60.3180   32.6180   46.4080 C   0  0  0  0  0  0  0  0  0  0  0  0
   60.7620   31.6833   46.0349 H   0  0  0  0  0  0  0  0  0  0  0  0
   59.1040   33.0900   45.9050 C   0  0  0  0  0  0  0  0  0  0  0  0
   57.0610   27.0660   45.1880 C   0  0  0  0  0  0  0  0  0  0  0  0
   56.1928   27.5928   44.7652 H   0  0  0  0  0  0  0  0  0  0  0  0
   56.8690   25.8430   45.8720 C   0  0  0  0  0  0  0  0  0  0  0  0
  1  2  1  0
  2  3  2  0
  3  4  1  0
  4  5  1  0
  4  6  2  0
  6  7  1  0
  7  8  1  0
  7  9  1  0
  7 10  1  0
  6 11  1  0
 11 12  1  0
 12 13  2  0
 13 14  1  0
 13 15  1  0
 15 16  1  0
 15 17  2  0
 17 18  1  0
 18 19  1  0
 18 20  1  0
 20 21  2  0
 20 22  1  0
 22 23  1  0
 22 24  1  0
 22 25  1  0
 25 26  2  0
 26 27  1  0
 26 28  1  0
 28 29  1  0
 28 30  1  0
 30 31  2  0
 31 32  1  0
 31 33  1  0
 33 34  1  0
 33 35  2  0
 35 36  1  0
 35 37  1  0
 37 38  1  0
 37 39  2  0
 17 40  1  0
 40 41  1  0
 40 42  2  0
 42  3  1  0
 42 12  1  0
 39 25  1  0
 39 30  1  0
M  CHG  1  11  -1
M  END
>  <UniqueID>  (11) 
9

>  <SMILES>  (11) 
[H]/N=c1/cc(C)[n-]c2ccc(NC(=O)Cc3c[nH]c4ccccc34)cc12

>  <Energy>  (11) 
86.74092176657747

>  <Genealogy>  (11) 
Cc1cc(=N)c2cc(NC(=O)Cc3c[nH]c4ccccc34)ccc2[n-]1 (protonated)
[H]/N=c1/cc(C)[n-]c2ccc(NC(=O)Cc3c[nH]c4ccccc34)cc12 (cis-trans isomerization)
[H]/N=c1/cc(C)[n-]c2ccc(NC(=O)Cc3c[nH]c4ccccc34)cc12 (3D coordinates assigned)
[H]/N=c1/cc(C)[n-]c2ccc(NC(=O)Cc3c[nH]c4ccccc34)cc12 (optimized conformer: 86.74092176657747 kcal/mol)

>  <smiles>  (11) 
Cc1cc(=N)c2cc(NC(=O)Cc3c[nH]c4ccccc34)ccc2[nH]1

>  <score_type>  (11) 
oracle

>  <origin>  (11) 
adg

>  <m_score__min__energy>  (11) 
-10.029999999999999

>  <m_primary>  (11) 
energy

$$$$
11:0
     RDKit          3D

 45 49  0  0  0  0  0  0  0  0999 V2000
   66.8240   32.7620   49.7950 O   0  0  0  0  0  0  0  0  0  0  0  0
   65.8370   33.3370   50.3300 C   0  0  0  0  0  0  0  0  0  0  0  0
   64.5770   33.3470   49.6510 C   0  0  0  0  0  0  0  0  0  0  0  0
   64.4530   32.7130   48.3960 C   0  0  0  0  0  0  0  0  0  0  0  0
   63.2360   32.7050   47.7090 C   0  0  0  0  0  0  0  0  0  0  0  0
   62.1060   33.3340   48.2510 C   0  0  0  0  0  0  0  0  0  0  0  0
   60.8520   33.3140   47.5430 N   0  0  0  0  0  0  0  0  0  0  0  0
   59.6480   32.7670   48.1770 C   0  0  0  0  0  0  0  0  0  0  0  0
   59.0220   31.7180   47.2570 C   0  0  0  0  0  0  0  0  0  0  0  0
   58.8720   32.2290   45.8830 N   0  0  0  0  0  0  0  0  0  0  0  0
   58.0390   31.5070   44.9500 C   0  0  0  0  0  0  0  0  0  0  0  0
   58.0350   31.8440   43.5830 C   0  0  0  0  0  0  0  0  0  0  0  0
   57.2240   31.1480   42.6830 C   0  0  0  0  0  0  0  0  0  0  0  0
   56.4060   30.1100   43.1340 C   0  0  0  0  0  0  0  0  0  0  0  0
   56.3960   29.7640   44.4910 C   0  0  0  0  0  0  0  0  0  0  0  0
   55.5860   28.7290   44.9530 O   0  0  0  0  0  0  0  0  0  0  0  0
   57.2080   30.4610   45.3930 C   0  0  0  0  0  0  0  0  0  0  0  0
   59.4140   33.5490   45.5230 C   0  0  0  0  0  0  0  0  0  0  0  0
   60.8040   33.7580   46.1420 C   0  0  0  0  0  0  0  0  0  0  0  0
   62.2060   33.9640   49.4980 C   0  0  0  0  0  0  0  0  0  0  0  0
   63.4200   33.9750   50.1900 C   0  0  0  0  0  0  0  0  0  0  0  0
   63.5230   34.7430   51.7000 S   0  0  0  0  0  0  0  0  0  0  0  0
   65.0760   34.6170   52.3230 C   0  0  0  0  0  0  0  0  0  0  0  0
   65.5200   35.1320   53.5430 C   0  0  0  0  0  0  0  0  0  0  0  0
   66.8630   34.8630   53.7790 C   0  0  0  0  0  0  0  0  0  0  0  0
   67.4700   33.9890   52.4670 S   0  0  0  0  0  0  0  0  0  0  0  0
   66.0350   33.9450   51.5870 C   0  0  0  0  0  0  0  0  0  0  0  0
   65.3285   32.2171   47.9515 H   0  0  0  0  0  0  0  0  0  0  0  0
   63.1639   32.2006   46.7341 H   0  0  0  0  0  0  0  0  0  0  0  0
   59.9178   32.3002   49.1358 H   0  0  0  0  0  0  0  0  0  0  0  0
   58.9259   33.5774   48.3553 H   0  0  0  0  0  0  0  0  0  0  0  0
   59.6669   30.8270   47.2391 H   0  0  0  0  0  0  0  0  0  0  0  0
   58.0232   31.4691   47.6448 H   0  0  0  0  0  0  0  0  0  0  0  0
   58.6754   32.6617   43.2207 H   0  0  0  0  0  0  0  0  0  0  0  0
   57.2299   31.4183   41.6167 H   0  0  0  0  0  0  0  0  0  0  0  0
   55.7690   29.5637   42.4228 H   0  0  0  0  0  0  0  0  0  0  0  0
   54.7180   28.4880   44.4900 H   0  0  0  0  0  0  0  0  0  0  0  0
   57.1966   30.1886   46.4587 H   0  0  0  0  0  0  0  0  0  0  0  0
   59.4930   33.6195   44.4281 H   0  0  0  0  0  0  0  0  0  0  0  0
   58.7367   34.3245   45.9100 H   0  0  0  0  0  0  0  0  0  0  0  0
   61.5418   33.1846   45.5616 H   0  0  0  0  0  0  0  0  0  0  0  0
   61.0302   34.8342   46.1172 H   0  0  0  0  0  0  0  0  0  0  0  0
   61.3232   34.4533   49.9354 H   0  0  0  0  0  0  0  0  0  0  0  0
   64.8774   35.6893   54.2404 H   0  0  0  0  0  0  0  0  0  0  0  0
   67.4336   35.1674   54.6688 H   0  0  0  0  0  0  0  0  0  0  0  0
  1  2  2  0
  2  3  1  0
  3  4  2  0
  4  5  1  0
  5  6  2  0
  6  7  1  0
  7  8  1  0
  8  9  1  0
  9 10  1  0
 10 11  1  0
 11 12  2  0
 12 13  1  0
 13 14  2  0
 14 15  1  0
 15 16  1  0
 15 17  2  0
 10 18  1  0
 18 19  1  0
  6 20  1  0
 20 21  2  0
 21 22  1  0
 22 23  1  0
 23 24  1  0
 24 25  2  0
 25 26  1  0
 26 27  1  0
 27  2  1  0
 21  3  1  0
 27 23  2  0
 19  7  1  0
 17 11  1  0
  4 28  1  0
  5 29  1  0
  8 30  1  0
  8 31  1  0
  9 32  1  0
  9 33  1  0
 12 34  1  0
 13 35  1  0
 14 36  1  0
 16 37  1  0
 17 38  1  0
 18 39  1  0
 18 40  1  0
 19 41  1  0
 19 42  1  0
 20 43  1  0
 24 44  1  0
 25 45  1  0
M  END
>  <UniqueID>  (12) 
10

>  <SMILES>  (12) 
O=c1c2ccc(N3CCN(c4cccc(O)c4)CC3)cc2sc2ccsc12

>  <Energy>  (12) 
94.47480678517066

>  <Genealogy>  (12) 
O=c1c2ccc(N3CCN(c4cccc(O)c4)CC3)cc2sc2ccsc12 (3D coordinates assigned)
O=c1c2ccc(N3CCN(c4cccc(O)c4)CC3)cc2sc2ccsc12 (nonaromatic ring conformer: 94.47480678517066 kcal/mol)

>  <smiles>  (12) 
O=c1c2ccc(N3CCN(c4cccc(O)c4)CC3)cc2sc2ccsc12

>  <score_type>  (12) 
oracle

>  <origin>  (12) 
adg

>  <m_score__min__energy>  (12) 
-8.8300000000000001

>  <m_primary>  (12) 
energy

$$$$
12:0
     RDKit          3D

 36 37  0  0  0  0  0  0  0  0999 V2000
   59.3810   28.1740   51.0710 H   0  0  0  0  0  0  0  0  0  0  0  0
   60.0500   28.6050   50.4440 O   0  0  0  0  0  0  0  0  0  0  0  0
   59.8870   29.9150   49.9940 C   0  0  0  0  0  0  0  0  0  0  0  0
   60.8910   30.5360   49.2380 C   0  0  0  0  0  0  0  0  0  0  0  0
   61.8131   29.9881   48.9940 H   0  0  0  0  0  0  0  0  0  0  0  0
   60.7220   31.8500   48.7940 C   0  0  0  0  0  0  0  0  0  0  0  0
   61.5035   32.3266   48.1840 H   0  0  0  0  0  0  0  0  0  0  0  0
   59.5590   32.5650   49.1230 C   0  0  0  0  0  0  0  0  0  0  0  0
   59.3600   33.9450   48.6410 C   0  0  0  0  0  0  0  0  0  0  0  0
   59.4007   34.7545   49.3847 H   0  0  0  0  0  0  0  0  0  0  0  0
   59.1330   34.2870   47.3630 C   0  0  0  0  0  0  0  0  0  0  0  0
   59.8449   34.9815   46.8929 H   0  0  0  0  0  0  0  0  0  0  0  0
   58.0080   33.8090   46.5360 C   0  0  0  0  0  0  0  0  0  0  0  0
   57.1130   33.1070   47.0790 O   0  0  0  0  0  0  0  0  0  0  0  0
   57.8890   34.1910   45.1930 O   0  0  0  0  0  0  0  0  0  0  0  0
   58.7670   33.7530   44.1560 C   0  0  0  0  0  0  0  0  0  0  0  0
   59.0041   34.6061   43.5033 H   0  0  0  0  0  0  0  0  0  0  0  0
   59.6801   33.3525   44.6207 H   0  0  0  0  0  0  0  0  0  0  0  0
   58.1260   32.6430   43.3140 C   0  0  0  0  0  0  0  0  0  0  0  0
   57.1639   33.0058   42.9232 H   0  0  0  0  0  0  0  0  0  0  0  0
   58.8212   32.3937   42.4988 H   0  0  0  0  0  0  0  0  0  0  0  0
   57.8830   31.3890   44.1140 C   0  0  0  0  0  0  0  0  0  0  0  0
   56.6140   30.7870   44.1300 C   0  0  0  0  0  0  0  0  0  0  0  0
   55.7838   31.2438   43.5713 H   0  0  0  0  0  0  0  0  0  0  0  0
   56.4020   29.6100   44.8530 C   0  0  0  0  0  0  0  0  0  0  0  0
   55.1440   29.0170   44.8610 O   0  0  0  0  0  0  0  0  0  0  0  0
   57.4520   29.0270   45.5680 C   0  0  0  0  0  0  0  0  0  0  0  0
   57.2837   28.0984   46.1331 H   0  0  0  0  0  0  0  0  0  0  0  0
   58.7160   29.6240   45.5650 C   0  0  0  0  0  0  0  0  0  0  0  0
   60.0340   28.8940   46.4650 Cl  0  0  0  0  0  0  0  0  0  0  0  0
   58.9320   30.8030   44.8420 C   0  0  0  0  0  0  0  0  0  0  0  0
   59.9268   31.2724   44.8439 H   0  0  0  0  0  0  0  0  0  0  0  0
   58.5430   31.9310   49.8520 C   0  0  0  0  0  0  0  0  0  0  0  0
   57.6110   32.4704   50.0767 H   0  0  0  0  0  0  0  0  0  0  0  0
   58.7110   30.6130   50.2950 C   0  0  0  0  0  0  0  0  0  0  0  0
   57.7050   30.0010   51.0340 O   0  0  0  0  0  0  0  0  0  0  0  0
  1  2  1  0
  2  3  1  0
  3  4  2  0
  4  5  1  0
  4  6  1  0
  6  7  1  0
  6  8  2  0
  8  9  1  0
  9 10  1  0
  9 11  2  0
 11 12  1  0
 11 13  1  0
 13 14  2  0
 13 15  1  0
 15 16  1  0
 16 17  1  0
 16 18  1  0
 16 19  1  0
 19 20  1  0
 19 21  1  0
 19 22  1  0
 22 23  2  0
 23 24  1  0
 23 25  1  0
 25 26  1  0
 25 27  2  0
 27 28  1  0
 27 29  1  0
 29 30  1  0
 29 31  2  0
 31 32  1  0
  8 33  1  0
 33 34  1  0
 33 35  2  0
 35 36  1  0
 35  3  1  0
 31 22  1  0
M  CHG  2  26  -1  36  -1
M  END
>  <UniqueID>  (13) 
11

>  <SMILES>  (13) 
O=C(/C=C\c1ccc(O)c([O-])c1)OCCc1cc([O-])cc(Cl)c1

>  <Energy>  (13) 
38.53752253081798

>  <Genealogy>  (13) 
O=C(C=Cc1ccc(O)c([O-])c1)OCCc1cc([O-])cc(Cl)c1 (protonated)
O=C(/C=C\c1ccc(O)c([O-])c1)OCCc1cc([O-])cc(Cl)c1 (cis-trans isomerization)
O=C(/C=C\c1ccc(O)c([O-])c1)OCCc1cc([O-])cc(Cl)c1 (3D coordinates assigned)
O=C(/C=C\c1ccc(O)c([O-])c1)OCCc1cc([O-])cc(Cl)c1 (optimized conformer: 38.53752253081798 kcal/mol)

>  <smiles>  (13) 
O=C(C=Cc1ccc(O)c(O)c1)OCCc1cc(O)cc(Cl)c1

>  <score_type>  (13) 
oracle

>  <origin>  (13) 
adg

>  <m_score__min__energy>  (13) 
-14.09

>  <m_primary>  (13) 
energy

$$$$
13:0
     RDKit          3D

 35 37  0  0  0  0  0  0  0  0999 V2000
   54.8080   26.3430   46.0100 N   0  0  0  0  0  0  0  0  0  0  0  0
   56.5170   26.0900   46.0210 S   0  0  0  0  0  0  0  0  0  0  0  0
   56.9000   25.1880   44.8820 O   0  0  0  0  0  0  0  0  0  0  0  0
   56.9090   25.4340   47.3160 O   0  0  0  0  0  0  0  0  0  0  0  0
   57.3410   27.6350   45.8430 C   0  0  0  0  0  0  0  0  0  0  0  0
   58.7080   27.7400   46.2030 C   0  0  0  0  0  0  0  0  0  0  0  0
   59.3930   28.9620   46.0670 C   0  0  0  0  0  0  0  0  0  0  0  0
   58.6780   30.0470   45.5720 C   0  0  0  0  0  0  0  0  0  0  0  0
   59.1040   31.2990   45.3470 N   0  0  0  0  0  0  0  0  0  0  0  0
   58.0020   31.9190   44.8570 C   0  0  0  0  0  0  0  0  0  0  0  0
   57.9880   33.3460   44.3980 C   0  0  0  0  0  0  0  0  0  0  0  0
   57.9550   34.3130   45.5870 C   0  0  0  0  0  0  0  0  0  0  0  0
   59.1160   34.0860   46.5230 C   0  0  0  0  0  0  0  0  0  0  0  0
   60.4360   34.1490   46.0460 C   0  0  0  0  0  0  0  0  0  0  0  0
   61.5090   33.8920   46.9050 C   0  0  0  0  0  0  0  0  0  0  0  0
   61.2710   33.5660   48.2430 C   0  0  0  0  0  0  0  0  0  0  0  0
   59.9610   33.4930   48.7230 C   0  0  0  0  0  0  0  0  0  0  0  0
   58.8850   33.7480   47.8670 C   0  0  0  0  0  0  0  0  0  0  0  0
   56.9550   31.1140   44.7770 O   0  0  0  0  0  0  0  0  0  0  0  0
   57.3650   29.9510   45.2210 C   0  0  0  0  0  0  0  0  0  0  0  0
   56.6520   28.7610   45.3400 C   0  0  0  0  0  0  0  0  0  0  0  0
   54.6070   27.0890   46.7130 H   0  0  0  0  0  0  0  0  0  0  0  0
   59.2383   26.8584   46.5922 H   0  0  0  0  0  0  0  0  0  0  0  0
   60.4540   29.0552   46.3419 H   0  0  0  0  0  0  0  0  0  0  0  0
   60.0600   31.6940   45.4930 H   0  0  0  0  0  0  0  0  0  0  0  0
   58.8928   33.5400   43.8033 H   0  0  0  0  0  0  0  0  0  0  0  0
   57.0832   33.5076   43.7937 H   0  0  0  0  0  0  0  0  0  0  0  0
   57.9986   35.3449   45.2086 H   0  0  0  0  0  0  0  0  0  0  0  0
   57.0242   34.1373   46.1462 H   0  0  0  0  0  0  0  0  0  0  0  0
   60.6262   34.4015   44.9924 H   0  0  0  0  0  0  0  0  0  0  0  0
   62.5408   33.9464   46.5275 H   0  0  0  0  0  0  0  0  0  0  0  0
   62.1158   33.3667   48.9187 H   0  0  0  0  0  0  0  0  0  0  0  0
   59.7756   33.2345   49.7760 H   0  0  0  0  0  0  0  0  0  0  0  0
   57.8547   33.6838   48.2470 H   0  0  0  0  0  0  0  0  0  0  0  0
   55.5918   28.6999   45.0531 H   0  0  0  0  0  0  0  0  0  0  0  0
  1  2  1  0
  2  3  2  0
  2  4  2  0
  2  5  1  0
  5  6  2  0
  6  7  1  0
  7  8  2  0
  8  9  1  0
  9 10  2  0
 10 11  1  0
 11 12  1  0
 12 13  1  0
 13 14  2  0
 14 15  1  0
 15 16  2  0
 16 17  1  0
 17 18  2  0
 10 19  1  0
 19 20  1  0
 20 21  2  0
 21  5  1  0
 20  8  1  0
 18 13  1  0
  1 22  1  0
  6 23  1  0
  7 24  1  0
  9 25  1  0
 11 26  1  0
 11 27  1  0
 12 28  1  0
 12 29  1  0
 14 30  1  0
 15 31  1  0
 16 32  1  0
 17 33  1  0
 18 34  1  0
 21 35  1  0
M  CHG  2   1  -1   9   1
M  END
>  <UniqueID>  (14) 
12

>  <SMILES>  (14) 
[NH-]S(=O)(=O)c1ccc2[nH+]c(CCc3ccccc3)oc2c1

>  <Energy>  (14) 
71.39933226685305

>  <Genealogy>  (14) 
[NH-]S(=O)(=O)c1ccc2[nH+]c(CCc3ccccc3)oc2c1 (protonated)
[NH-]S(=O)(=O)c1ccc2[nH+]c(CCc3ccccc3)oc2c1 (3D coordinates assigned)
[NH-]S(=O)(=O)c1ccc2[nH+]c(CCc3ccccc3)oc2c1 (optimized conformer: 71.39933226685305 kcal/mol)

>  <smiles>  (14) 
NS(=O)(=O)c1ccc2nc(CCc3ccccc3)oc2c1

>  <score_type>  (14) 
oracle

>  <origin>  (14) 
adg

>  <m_score__min__energy>  (14) 
-9.5299999999999994

>  <m_primary>  (14) 
energy

$$$$
14:0
     RDKit          3D

 51 53  0  0  0  0  0  0  0  0999 V2000
   57.1510   30.8540   52.0180 C   0  0  0  0  0  0  0  0  0  0  0  0
   57.7640   29.8390   51.2290 O   0  0  0  0  0  0  0  0  0  0  0  0
   58.8510   30.0530   50.3680 C   0  0  0  0  0  0  0  0  0  0  0  0
   60.0940   29.4270   50.5550 C   0  0  0  0  0  0  0  0  0  0  0  0
   61.1480   29.6740   49.6720 C   0  0  0  0  0  0  0  0  0  0  0  0
   60.9810   30.5490   48.5810 C   0  0  0  0  0  0  0  0  0  0  0  0
   62.0320   30.8190   47.6890 O   0  0  0  0  0  0  0  0  0  0  0  0
   62.8760   31.9640   47.7530 C   0  0  0  0  0  0  0  0  0  0  0  0
   59.7280   31.1700   48.3800 C   0  0  0  0  0  0  0  0  0  0  0  0
   59.5060   32.1350   47.2260 C   0  0  2  0  0  0  0  0  0  0  0  0
   58.8150   33.4070   47.7560 C   0  0  0  0  0  0  0  0  0  0  0  0
   58.2550   34.2390   46.6090 C   0  0  0  0  0  0  0  0  0  0  0  0
   57.1360   33.4690   45.9150 C   0  0  0  0  0  0  0  0  0  0  0  0
   57.5720   32.0800   45.5490 C   0  0  0  0  0  0  0  0  0  0  0  0
   56.8610   31.4220   44.7430 O   0  0  0  0  0  0  0  0  0  0  0  0
   58.7560   31.4820   46.1260 N   0  0  0  0  0  0  0  0  0  0  0  0
   59.3140   30.2670   45.5060 C   0  0  0  0  0  0  0  0  0  0  0  0
   58.5140   29.0520   45.8980 C   0  0  0  0  0  0  0  0  0  0  0  0
   57.3780   28.6780   45.1640 C   0  0  0  0  0  0  0  0  0  0  0  0
   56.6500   27.5390   45.5220 C   0  0  0  0  0  0  0  0  0  0  0  0
   57.0410   26.7570   46.6150 C   0  0  0  0  0  0  0  0  0  0  0  0
   56.2740   25.6230   46.9260 O   0  0  0  0  0  0  0  0  0  0  0  0
   55.5220   24.8530   45.9910 C   0  0  0  0  0  0  0  0  0  0  0  0
   56.3000   24.6200   44.8730 F   0  0  0  0  0  0  0  0  0  0  0  0
   55.1690   23.6370   46.5490 F   0  0  0  0  0  0  0  0  0  0  0  0
   54.3860   25.5430   45.6080 F   0  0  0  0  0  0  0  0  0  0  0  0
   58.1800   27.1330   47.3530 C   0  0  0  0  0  0  0  0  0  0  0  0
   58.9100   28.2700   46.9940 C   0  0  0  0  0  0  0  0  0  0  0  0
   58.6800   30.9230   49.2880 C   0  0  0  0  0  0  0  0  0  0  0  0
   57.2902   30.6235   53.0845 H   0  0  0  0  0  0  0  0  0  0  0  0
   57.6135   31.8255   51.7894 H   0  0  0  0  0  0  0  0  0  0  0  0
   56.0759   30.8969   51.7894 H   0  0  0  0  0  0  0  0  0  0  0  0
   60.2385   28.7388   51.4009 H   0  0  0  0  0  0  0  0  0  0  0  0
   62.1181   29.1802   49.8304 H   0  0  0  0  0  0  0  0  0  0  0  0
   63.0657   32.2213   48.8055 H   0  0  0  0  0  0  0  0  0  0  0  0
   63.8301   31.7447   47.2515 H   0  0  0  0  0  0  0  0  0  0  0  0
   62.3842   32.8105   47.2515 H   0  0  0  0  0  0  0  0  0  0  0  0
   60.4726   32.4339   46.7943 H   0  0  0  0  0  0  0  0  0  0  0  0
   57.9922   33.1174   48.4261 H   0  0  0  0  0  0  0  0  0  0  0  0
   59.5576   34.0106   48.2984 H   0  0  0  0  0  0  0  0  0  0  0  0
   57.8574   35.1856   47.0038 H   0  0  0  0  0  0  0  0  0  0  0  0
   59.0565   34.4487   45.8854 H   0  0  0  0  0  0  0  0  0  0  0  0
   56.2715   33.4059   46.5923 H   0  0  0  0  0  0  0  0  0  0  0  0
   56.8698   34.0030   44.9909 H   0  0  0  0  0  0  0  0  0  0  0  0
   59.2905   30.3769   44.4118 H   0  0  0  0  0  0  0  0  0  0  0  0
   60.3489   30.1360   45.8549 H   0  0  0  0  0  0  0  0  0  0  0  0
   57.0587   29.2836   44.3030 H   0  0  0  0  0  0  0  0  0  0  0  0
   55.7615   27.2549   44.9390 H   0  0  0  0  0  0  0  0  0  0  0  0
   58.4968   26.5291   48.2161 H   0  0  0  0  0  0  0  0  0  0  0  0
   59.8004   28.5535   47.5743 H   0  0  0  0  0  0  0  0  0  0  0  0
   57.7109   31.4232   49.1446 H   0  0  0  0  0  0  0  0  0  0  0  0
  1  2  1  0
  2  3  1  0
  3  4  2  0
  4  5  1  0
  5  6  2  0
  6  7  1  0
  7  8  1  0
  6  9  1  0
  9 10  1  0
 10 11  1  0
 11 12  1  0
 12 13  1  0
 13 14  1  0
 14 15  2  0
 14 16  1  0
 16 17  1  0
 17 18  1  0
 18 19  2  0
 19 20  1  0
 20 21  2  0
 21 22  1  0
 22 23  1  0
 23 24  1  0
 23 25  1  0
 23 26  1  0
 21 27  1  0
 27 28  2  0
  9 29  2  0
 29  3  1  0
 16 10  1  0
 28 18  1  0
  1 30  1  0
  1 31  1  0
  1 32  1  0
  4 33  1  0
  5 34  1  0
  8 35  1  0
  8 36  1  0
  8 37  1  0
 10 38  1  6
 11 39  1  0
 11 40  1  0
 12 41  1  0
 12 42  1  0
 13 43  1  0
 13 44  1  0
 17 45  1  0
 17 46  1  0
 19 47  1  0
 20 48  1  0
 27 49  1  0
 28 50  1  0
 29 51  1  0
M  END
>  <UniqueID>  (15) 
13

>  <SMILES>  (15) 
COc1ccc(OC)c([C@@H]2CCCC(=O)N2Cc2ccc(OC(F)(F)F)cc2)c1

>  <Energy>  (15) 
49.557430854406434

>  <Genealogy>  (15) 
COc1ccc(OC)c([C@@H]2CCCC(=O)N2Cc2ccc(OC(F)(F)F)cc2)c1 (chirality)
COc1ccc(OC)c([C@@H]2CCCC(=O)N2Cc2ccc(OC(F)(F)F)cc2)c1 (3D coordinates assigned)
COc1ccc(OC)c([C@@H]2CCCC(=O)N2Cc2ccc(OC(F)(F)F)cc2)c1 (nonaromatic ring conformer: 49.557430854406434 kcal/mol)

>  <smiles>  (15) 
COc1ccc(OC)c(C2CCCC(=O)N2Cc2ccc(OC(F)(F)F)cc2)c1

>  <score_type>  (15) 
oracle

>  <origin>  (15) 
adg

>  <m_score__min__energy>  (15) 
-6.8200000000000003

>  <m_primary>  (15) 
energy

$$$$
15:0
     RDKit          3D

 35 37  0  0  0  0  0  0  0  0999 V2000
   57.7309   25.0228   46.7129 H   0  0  0  0  0  0  0  0  0  0  0  0
   57.4140   25.9100   46.1450 C   0  0  0  0  0  0  0  0  0  0  0  0
   55.9770   26.1910   46.0040 C   0  0  0  0  0  0  0  0  0  0  0  0
   55.1410   25.2760   46.2220 O   0  0  0  0  0  0  0  0  0  0  0  0
   55.5270   27.4510   45.6270 O   0  0  0  0  0  0  0  0  0  0  0  0
   58.3460   26.7000   45.6040 C   0  0  0  0  0  0  0  0  0  0  0  0
   59.1299   26.2436   44.9818 H   0  0  0  0  0  0  0  0  0  0  0  0
   58.3640   28.1600   45.8090 C   0  0  0  0  0  0  0  0  0  0  0  0
   58.8120   28.7920   46.9620 C   0  0  0  0  0  0  0  0  0  0  0  0
   59.2136   28.2740   47.8454 H   0  0  0  0  0  0  0  0  0  0  0  0
   58.6850   30.1350   46.8460 N   0  0  0  0  0  0  0  0  0  0  0  0
   58.9870   31.1130   47.8910 C   0  0  0  0  0  0  0  0  0  0  0  0
   58.1537   31.8265   47.9726 H   0  0  0  0  0  0  0  0  0  0  0  0
   59.1253   30.5859   48.8465 H   0  0  0  0  0  0  0  0  0  0  0  0
   60.2500   31.8600   47.5550 C   0  0  0  0  0  0  0  0  0  0  0  0
   60.1930   33.1570   47.0140 C   0  0  0  0  0  0  0  0  0  0  0  0
   59.2180   33.6252   46.8137 H   0  0  0  0  0  0  0  0  0  0  0  0
   61.3720   33.8530   46.7300 C   0  0  0  0  0  0  0  0  0  0  0  0
   61.3225   34.8665   46.3052 H   0  0  0  0  0  0  0  0  0  0  0  0
   62.6140   33.2630   46.9850 C   0  0  0  0  0  0  0  0  0  0  0  0
   63.7550   33.9410   46.7090 F   0  0  0  0  0  0  0  0  0  0  0  0
   62.6780   31.9750   47.5230 C   0  0  0  0  0  0  0  0  0  0  0  0
   63.6551   31.5104   47.7217 H   0  0  0  0  0  0  0  0  0  0  0  0
   61.5010   31.2760   47.8090 C   0  0  0  0  0  0  0  0  0  0  0  0
   61.5558   30.2634   48.2352 H   0  0  0  0  0  0  0  0  0  0  0  0
   58.1280   30.3600   45.6360 C   0  0  0  0  0  0  0  0  0  0  0  0
   57.7520   31.5860   45.0790 C   0  0  0  0  0  0  0  0  0  0  0  0
   57.9391   32.5306   45.6107 H   0  0  0  0  0  0  0  0  0  0  0  0
   57.1280   31.5760   43.8200 C   0  0  0  0  0  0  0  0  0  0  0  0
   56.8301   32.5253   43.3508 H   0  0  0  0  0  0  0  0  0  0  0  0
   56.8810   30.3590   43.1540 C   0  0  0  0  0  0  0  0  0  0  0  0
   56.3846   30.3642   42.1724 H   0  0  0  0  0  0  0  0  0  0  0  0
   57.2650   29.1380   43.7360 C   0  0  0  0  0  0  0  0  0  0  0  0
   57.0624   28.1822   43.2307 H   0  0  0  0  0  0  0  0  0  0  0  0
   57.9110   29.1730   44.9740 C   0  0  0  0  0  0  0  0  0  0  0  0
  1  2  1  0
  2  3  1  0
  3  4  2  0
  3  5  1  0
  2  6  2  0
  6  7  1  0
  6  8  1  0
  8  9  2  0
  9 10  1  0
  9 11  1  0
 11 12  1  0
 12 13  1  0
 12 14  1  0
 12 15  1  0
 15 16  2  0
 16 17  1  0
 16 18  1  0
 18 19  1  0
 18 20  2  0
 20 21  1  0
 20 22  1  0
 22 23  1  0
 22 24  2  0
 24 25  1  0
 11 26  1  0
 26 27  2  0
 27 28  1  0
 27 29  1  0
 29 30  1  0
 29 31  2  0
 31 32  1  0
 31 33  1  0
 33 34  1  0
 33 35  2  0
 35  8  1  0
 24 15  1  0
 35 26  1  0
M  CHG  1   5  -1
M  END
>  <UniqueID>  (16) 
14

>  <SMILES>  (16) 
O=C([O-])/C=C/c1cn(Cc2ccc(F)cc2)c2ccccc12

>  <Energy>  (16) 
71.55541229697316

>  <Genealogy>  (16) 
O=C([O-])C=Cc1cn(Cc2ccc(F)cc2)c2ccccc12 (protonated)
O=C([O-])/C=C/c1cn(Cc2ccc(F)cc2)c2ccccc12 (cis-trans isomerization)
O=C([O-])/C=C/c1cn(Cc2ccc(F)cc2)c2ccccc12 (3D coordinates assigned)
O=C([O-])/C=C/c1cn(Cc2ccc(F)cc2)c2ccccc12 (optimized conformer: 71.55541229697316 kcal/mol)

>  <smiles>  (16) 
O=C(O)C=Cc1cn(Cc2ccc(F)cc2)c2ccccc12

>  <score_type>  (16) 
oracle

>  <origin>  (16) 
adg

>  <m_score__min__energy>  (16) 
-10.4

>  <m_primary>  (16) 
energy

$$$$
16:0
     RDKit          3D

 36 37  0  0  0  0  0  0  0  0999 V2000
   56.7500   25.9160   45.6460 C   0  0  0  0  0  0  0  0  0  0  0  0
   56.7930   27.2650   46.0990 O   0  0  0  0  0  0  0  0  0  0  0  0
   57.9700   28.0120   46.2620 C   0  0  0  0  0  0  0  0  0  0  0  0
   58.5770   28.1860   47.5220 C   0  0  0  0  0  0  0  0  0  0  0  0
   59.7470   28.9370   47.6420 C   0  0  0  0  0  0  0  0  0  0  0  0
   60.3250   29.5190   46.5150 C   0  0  0  0  0  0  0  0  0  0  0  0
   59.7330   29.3530   45.2600 C   0  0  0  0  0  0  0  0  0  0  0  0
   58.5490   28.6010   45.1250 C   0  0  0  0  0  0  0  0  0  0  0  0
   57.9190   28.4110   43.8830 O   0  0  0  0  0  0  0  0  0  0  0  0
   56.9450   29.2810   43.3060 C   0  0  0  0  0  0  0  0  0  0  0  0
   56.1310   29.9420   44.3730 C   0  0  0  0  0  0  0  0  0  0  0  0
   55.1480   29.3350   44.8770 O   0  0  0  0  0  0  0  0  0  0  0  0
   56.4670   31.2650   44.8040 N   0  0  0  0  0  0  0  0  0  0  0  0
   57.5480   32.0530   44.2240 C   0  0  0  0  0  0  0  0  0  0  0  0
   58.1520   32.9580   45.2630 C   0  0  0  0  0  0  0  0  0  0  0  0
   58.0830   32.6110   46.6230 C   0  0  0  0  0  0  0  0  0  0  0  0
   58.6590   33.4390   47.5910 C   0  0  0  0  0  0  0  0  0  0  0  0
   59.3110   34.6150   47.2100 C   0  0  0  0  0  0  0  0  0  0  0  0
   59.3880   34.9640   45.8590 C   0  0  0  0  0  0  0  0  0  0  0  0
   58.8140   34.1390   44.8870 C   0  0  0  0  0  0  0  0  0  0  0  0
   56.7284   25.2387   46.5125 H   0  0  0  0  0  0  0  0  0  0  0  0
   55.8465   25.7621   45.0377 H   0  0  0  0  0  0  0  0  0  0  0  0
   57.6419   25.7049   45.0377 H   0  0  0  0  0  0  0  0  0  0  0  0
   58.1265   27.7278   48.4148 H   0  0  0  0  0  0  0  0  0  0  0  0
   60.2145   29.0701   48.6288 H   0  0  0  0  0  0  0  0  0  0  0  0
   61.2479   30.1094   46.6135 H   0  0  0  0  0  0  0  0  0  0  0  0
   60.1938   29.8118   44.3728 H   0  0  0  0  0  0  0  0  0  0  0  0
   57.4564   30.0524   42.7115 H   0  0  0  0  0  0  0  0  0  0  0  0
   56.2754   28.6883   42.6654 H   0  0  0  0  0  0  0  0  0  0  0  0
   58.3239   31.3755   43.8381 H   0  0  0  0  0  0  0  0  0  0  0  0
   57.1431   32.6678   43.4067 H   0  0  0  0  0  0  0  0  0  0  0  0
   57.5739   31.6845   46.9270 H   0  0  0  0  0  0  0  0  0  0  0  0
   58.5989   33.1644   48.6545 H   0  0  0  0  0  0  0  0  0  0  0  0
   59.7633   35.2655   47.9731 H   0  0  0  0  0  0  0  0  0  0  0  0
   59.9013   35.8897   45.5597 H   0  0  0  0  0  0  0  0  0  0  0  0
   58.8809   34.4154   43.8244 H   0  0  0  0  0  0  0  0  0  0  0  0
  1  2  1  0
  2  3  1  0
  3  4  2  0
  4  5  1  0
  5  6  2  0
  6  7  1  0
  7  8  2  0
  8  9  1  0
  9 10  1  0
 10 11  1  0
 11 12  2  0
 11 13  1  0
 13 14  1  0
 14 15  1  0
 15 16  2  0
 16 17  1  0
 17 18  2  0
 18 19  1  0
 19 20  2  0
  8  3  1  0
 20 15  1  0
  1 21  1  0
  1 22  1  0
  1 23  1  0
  4 24  1  0
  5 25  1  0
  6 26  1  0
  7 27  1  0
 10 28  1  0
 10 29  1  0
 14 30  1  0
 14 31  1  0
 16 32  1  0
 17 33  1  0
 18 34  1  0
 19 35  1  0
 20 36  1  0
M  CHG  1  13  -1
M  END
>  <UniqueID>  (17) 
15

>  <SMILES>  (17) 
COc1ccccc1OCC(=O)[N-]Cc1ccccc1

>  <Energy>  (17) 
32.69964548717953

>  <Genealogy>  (17) 
COc1ccccc1OCC(=O)[N-]Cc1ccccc1 (protonated)
COc1ccccc1OCC(=O)[N-]Cc1ccccc1 (3D coordinates assigned)
COc1ccccc1OCC(=O)[N-]Cc1ccccc1 (optimized conformer: 32.69964548717953 kcal/mol)

>  <smiles>  (17) 
COc1ccccc1OCC(=O)NCc1ccccc1

>  <score_type>  (17) 
oracle

>  <origin>  (17) 
adg

>  <m_score__min__energy>  (17) 
-9.0700000000000003

>  <m_primary>  (17) 
energy

$$$$
17:0
     RDKit          3D

 45 48  0  0  0  0  0  0  0  0999 V2000
   61.1722   31.9083   49.9028 H   0  0  0  0  0  0  0  0  0  0  0  0
   60.8220   31.3110   49.0480 C   0  0  0  0  0  0  0  0  0  0  0  0
   61.4760   31.4020   47.8200 C   0  0  0  0  0  0  0  0  0  0  0  0
   62.3395   32.0737   47.7051 H   0  0  0  0  0  0  0  0  0  0  0  0
   61.0340   30.6390   46.7340 C   0  0  0  0  0  0  0  0  0  0  0  0
   61.5504   30.7147   45.7657 H   0  0  0  0  0  0  0  0  0  0  0  0
   59.9320   29.7750   46.8740 C   0  0  0  0  0  0  0  0  0  0  0  0
   59.4770   28.9420   45.6980 C   0  0  0  0  0  0  0  0  0  0  0  0
   60.2966   28.2761   45.3901 H   0  0  0  0  0  0  0  0  0  0  0  0
   59.2005   29.6179   44.8754 H   0  0  0  0  0  0  0  0  0  0  0  0
   58.2920   28.1210   46.0550 N   0  0  0  0  0  0  0  0  0  0  0  0
   58.5190   26.8480   46.5340 C   0  0  0  0  0  0  0  0  0  0  0  0
   59.6450   26.5460   47.0190 O   0  0  0  0  0  0  0  0  0  0  0  0
   57.5190   25.8670   46.4470 C   0  0  0  0  0  0  0  0  0  0  0  0
   57.7290   24.5350   46.8540 C   0  0  0  0  0  0  0  0  0  0  0  0
   58.6919   24.2410   47.2972 H   0  0  0  0  0  0  0  0  0  0  0  0
   56.7140   23.5860   46.6950 C   0  0  0  0  0  0  0  0  0  0  0  0
   56.8805   22.5463   47.0132 H   0  0  0  0  0  0  0  0  0  0  0  0
   55.4890   23.9550   46.1330 C   0  0  0  0  0  0  0  0  0  0  0  0
   54.6949   23.2045   46.0058 H   0  0  0  0  0  0  0  0  0  0  0  0
   55.2710   25.2770   45.7320 C   0  0  0  0  0  0  0  0  0  0  0  0
   54.3047   25.5665   45.2933 H   0  0  0  0  0  0  0  0  0  0  0  0
   56.2830   26.2320   45.8890 C   0  0  0  0  0  0  0  0  0  0  0  0
   56.0520   27.5250   45.5640 N   0  0  0  0  0  0  0  0  0  0  0  0
   56.9990   28.4860   45.7140 C   0  0  0  0  0  0  0  0  0  0  0  0
   56.5990   29.7270   45.6010 N   0  0  0  0  0  0  0  0  0  0  0  0
   57.0170   30.7490   44.6840 C   0  0  0  0  0  0  0  0  0  0  0  0
   56.9420   30.5430   43.2950 C   0  0  0  0  0  0  0  0  0  0  0  0
   56.5277   29.6021   42.9038 H   0  0  0  0  0  0  0  0  0  0  0  0
   57.3900   31.5250   42.4090 C   0  0  0  0  0  0  0  0  0  0  0  0
   57.3096   31.3648   41.3237 H   0  0  0  0  0  0  0  0  0  0  0  0
   57.9390   32.7080   42.9000 C   0  0  0  0  0  0  0  0  0  0  0  0
   58.2839   33.4848   42.2017 H   0  0  0  0  0  0  0  0  0  0  0  0
   58.0520   32.9090   44.2790 C   0  0  0  0  0  0  0  0  0  0  0  0
   58.4954   33.8403   44.6612 H   0  0  0  0  0  0  0  0  0  0  0  0
   57.6010   31.9250   45.1830 C   0  0  0  0  0  0  0  0  0  0  0  0
   57.7090   32.0820   46.5760 O   0  0  0  0  0  0  0  0  0  0  0  0
   58.3500   33.1810   47.2180 C   0  0  0  0  0  0  0  0  0  0  0  0
   58.2795   33.0602   48.3091 H   0  0  0  0  0  0  0  0  0  0  0  0
   59.4084   33.2131   46.9202 H   0  0  0  0  0  0  0  0  0  0  0  0
   57.8568   34.1181   46.9202 H   0  0  0  0  0  0  0  0  0  0  0  0
   59.2730   29.6940   48.1110 C   0  0  0  0  0  0  0  0  0  0  0  0
   58.4052   29.0284   48.2292 H   0  0  0  0  0  0  0  0  0  0  0  0
   59.7200   30.4600   49.1940 C   0  0  0  0  0  0  0  0  0  0  0  0
   59.2037   30.3931   50.1630 H   0  0  0  0  0  0  0  0  0  0  0  0
  1  2  1  0
  2  3  2  0
  3  4  1  0
  3  5  1  0
  5  6  1  0
  5  7  2  0
  7  8  1  0
  8  9  1  0
  8 10  1  0
  8 11  1  0
 11 12  1  0
 12 13  2  0
 12 14  1  0
 14 15  2  0
 15 16  1  0
 15 17  1  0
 17 18  1  0
 17 19  2  0
 19 20  1  0
 19 21  1  0
 21 22  1  0
 21 23  2  0
 23 24  1  0
 24 25  1  0
 25 26  2  0
 26 27  1  0
 27 28  2  0
 28 29  1  0
 28 30  1  0
 30 31  1  0
 30 32  2  0
 32 33  1  0
 32 34  1  0
 34 35  1  0
 34 36  2  0
 36 37  1  0
 37 38  1  0
 38 39  1  0
 38 40  1  0
 38 41  1  0
  7 42  1  0
 42 43  1  0
 42 44  2  0
 44 45  1  0
 44  2  1  0
 25 11  1  0
 36 27  1  0
 23 14  1  0
M  CHG  1  24  -1
M  END
>  <UniqueID>  (18) 
16

>  <SMILES>  (18) 
COc1ccccc1/N=c1/[n-]c2ccccc2c(=O)n1Cc1ccccc1

>  <Energy>  (18) 
79.62826624616257

>  <Genealogy>  (18) 
COc1ccccc1N=c1[n-]c2ccccc2c(=O)n1Cc1ccccc1 (protonated)
COc1ccccc1/N=c1/[n-]c2ccccc2c(=O)n1Cc1ccccc1 (cis-trans isomerization)
COc1ccccc1/N=c1/[n-]c2ccccc2c(=O)n1Cc1ccccc1 (3D coordinates assigned)
COc1ccccc1/N=c1/[n-]c2ccccc2c(=O)n1Cc1ccccc1 (optimized conformer: 79.62826624616257 kcal/mol)

>  <smiles>  (18) 
COc1ccccc1N=c1[nH]c2ccccc2c(=O)n1Cc1ccccc1

>  <score_type>  (18) 
oracle

>  <origin>  (18) 
adg

>  <m_score__min__energy>  (18) 
-9.0800000000000001

>  <m_primary>  (18) 
energy

$$$$
18:0
     RDKit          3D

 89 94  0  0  0  0  0  0  0  0999 V2000
   59.6350   35.5400   45.9940 C   0  0  0  0  0  0  0  0  0  0  0  0
   58.6980   34.8340   46.8860 N   0  0  0  0  0  0  0  0  0  0  0  0
   59.3890   34.0800   47.9500 C   0  0  0  0  0  0  0  0  0  0  0  0
   60.1880   32.8860   47.3980 C   0  0  0  0  0  0  0  0  0  0  0  0
   59.4830   32.1730   46.2770 C   0  0  0  0  0  0  0  0  0  0  0  0
   58.4230   32.6930   45.6380 C   0  0  0  0  0  0  0  0  0  0  0  0
   57.8550   31.9920   44.4590 C   0  0  0  0  0  0  0  0  0  0  0  0
   57.9550   32.5720   43.1830 C   0  0  0  0  0  0  0  0  0  0  0  0
   57.3890   31.9380   42.0770 C   0  0  0  0  0  0  0  0  0  0  0  0
   56.7310   30.7210   42.2500 C   0  0  0  0  0  0  0  0  0  0  0  0
   56.6500   30.1610   43.4850 N   0  0  0  0  0  0  0  0  0  0  0  0
   57.1920   30.7550   44.5860 C   0  0  0  0  0  0  0  0  0  0  0  0
   57.1210   30.1280   45.8380 O   0  0  0  0  0  0  0  0  0  0  0  0
   57.6680   28.8430   46.1210 C   0  0  0  0  0  0  0  0  0  0  0  0
   58.5670   28.8810   47.3230 C   0  0  0  0  0  0  0  0  0  0  0  0
   58.8940   30.0480   47.9360 N   0  0  0  0  0  0  0  0  0  0  0  0
   59.7460   29.6590   48.9000 C   0  0  0  0  0  0  0  0  0  0  0  0
   60.4290   30.4670   49.8040 C   0  0  0  0  0  0  0  0  0  0  0  0
   61.3070   29.8490   50.7200 C   0  0  0  0  0  0  0  0  0  0  0  0
   62.0730   30.6640   51.6870 C   0  0  0  0  0  0  0  0  0  0  0  0
   63.3270   30.7080   51.5920 O   0  0  0  0  0  0  0  0  0  0  0  0
   61.4380   31.4080   52.7370 N   0  0  0  0  0  0  0  0  0  0  0  0
   61.1540   32.8480   52.7310 C   0  0  2  0  0  0  0  0  0  0  0  0
   60.0700   33.1360   51.6740 C   0  0  0  0  0  0  0  0  0  0  0  0
   58.7900   32.4080   51.9940 C   0  0  0  0  0  0  0  0  0  0  0  0
   57.9390   31.9750   50.9620 C   0  0  0  0  0  0  0  0  0  0  0  0
   56.7790   31.2550   51.2600 C   0  0  0  0  0  0  0  0  0  0  0  0
   56.4670   30.9500   52.5870 C   0  0  0  0  0  0  0  0  0  0  0  0
   57.3070   31.3740   53.6190 C   0  0  0  0  0  0  0  0  0  0  0  0
   58.4650   32.1000   53.3250 C   0  0  0  0  0  0  0  0  0  0  0  0
   62.4510   33.6460   52.4220 C   0  0  1  0  0  0  0  0  0  0  0  0
   63.5750   33.0040   52.9750 O   0  0  0  0  0  0  0  0  0  0  0  0
   62.6610   33.8580   50.9070 C   0  0  0  0  0  0  0  0  0  0  0  0
   63.9400   33.2750   50.4710 N   0  0  0  0  0  0  0  0  0  0  0  0
   64.0070   33.0720   49.0100 C   0  0  0  0  0  0  0  0  0  0  0  0
   63.2680   34.1820   48.2310 C   0  0  0  0  0  0  0  0  0  0  0  0
   63.2140   33.8590   46.7190 C   0  0  0  0  0  0  0  0  0  0  0  0
   63.7730   32.5940   46.4090 O   0  0  0  0  0  0  0  0  0  0  0  0
   63.1140   31.5820   47.1490 C   0  0  0  0  0  0  0  0  0  0  0  0
   63.4010   31.7050   48.6590 C   0  0  0  0  0  0  0  0  0  0  0  0
   61.5010   28.4450   50.6670 C   0  0  0  0  0  0  0  0  0  0  0  0
   60.8090   27.6570   49.7280 C   0  0  0  0  0  0  0  0  0  0  0  0
   59.9300   28.3080   48.8600 C   0  0  0  0  0  0  0  0  0  0  0  0
   59.1840   27.7950   47.8660 N   0  0  0  0  0  0  0  0  0  0  0  0
   59.2090   26.4130   47.3780 C   0  0  0  0  0  0  0  0  0  0  0  0
   57.7660   33.9620   46.1450 C   0  0  0  0  0  0  0  0  0  0  0  0
   60.3694   36.0934   46.5976 H   0  0  0  0  0  0  0  0  0  0  0  0
   60.1579   34.8095   45.3593 H   0  0  0  0  0  0  0  0  0  0  0  0
   59.0770   36.2441   45.3593 H   0  0  0  0  0  0  0  0  0  0  0  0
   60.0812   34.7578   48.4710 H   0  0  0  0  0  0  0  0  0  0  0  0
   58.6227   33.6842   48.6327 H   0  0  0  0  0  0  0  0  0  0  0  0
   61.1553   33.2541   47.0254 H   0  0  0  0  0  0  0  0  0  0  0  0
   60.3109   32.1651   48.2197 H   0  0  0  0  0  0  0  0  0  0  0  0
   59.8514   31.1838   45.9677 H   0  0  0  0  0  0  0  0  0  0  0  0
   58.4815   33.5294   43.0559 H   0  0  0  0  0  0  0  0  0  0  0  0
   57.4610   32.3936   41.0784 H   0  0  0  0  0  0  0  0  0  0  0  0
   56.2771   30.2139   41.3858 H   0  0  0  0  0  0  0  0  0  0  0  0
   56.8452   28.1383   46.3120 H   0  0  0  0  0  0  0  0  0  0  0  0
   58.2641   28.5227   45.2538 H   0  0  0  0  0  0  0  0  0  0  0  0
   60.2884   31.5580   49.8046 H   0  0  0  0  0  0  0  0  0  0  0  0
   60.7893   33.1631   53.7198 H   0  0  0  0  0  0  0  0  0  0  0  0
   59.8711   34.2176   51.6494 H   0  0  0  0  0  0  0  0  0  0  0  0
   60.4346   32.7865   50.6968 H   0  0  0  0  0  0  0  0  0  0  0  0
   58.1874   32.2040   49.9152 H   0  0  0  0  0  0  0  0  0  0  0  0
   56.1113   30.9283   50.4492 H   0  0  0  0  0  0  0  0  0  0  0  0
   55.5585   30.3751   52.8194 H   0  0  0  0  0  0  0  0  0  0  0  0
   57.0574   31.1366   54.6637 H   0  0  0  0  0  0  0  0  0  0  0  0
   59.1248   32.4316   54.1403 H   0  0  0  0  0  0  0  0  0  0  0  0
   62.3322   34.6365   52.8854 H   0  0  0  0  0  0  0  0  0  0  0  0
   63.5650   32.0590   52.6680 H   0  0  0  0  0  0  0  0  0  0  0  0
   61.8389   33.3758   50.3578 H   0  0  0  0  0  0  0  0  0  0  0  0
   62.6769   34.9383   50.7006 H   0  0  0  0  0  0  0  0  0  0  0  0
   64.0850   32.3630   50.9630 H   0  0  0  0  0  0  0  0  0  0  0  0
   65.0658   33.1109   48.7143 H   0  0  0  0  0  0  0  0  0  0  0  0
   62.2415   34.2693   48.6167 H   0  0  0  0  0  0  0  0  0  0  0  0
   63.8136   35.1274   48.3673 H   0  0  0  0  0  0  0  0  0  0  0  0
   62.1630   33.8682   46.3946 H   0  0  0  0  0  0  0  0  0  0  0  0
   63.8084   34.6220   46.1951 H   0  0  0  0  0  0  0  0  0  0  0  0
   62.0299   31.6674   46.9836 H   0  0  0  0  0  0  0  0  0  0  0  0
   63.4880   30.6061   46.8060 H   0  0  0  0  0  0  0  0  0  0  0  0
   62.4589   31.5794   49.2128 H   0  0  0  0  0  0  0  0  0  0  0  0
   64.1264   30.9258   48.9359 H   0  0  0  0  0  0  0  0  0  0  0  0
   62.2005   27.9662   51.3680 H   0  0  0  0  0  0  0  0  0  0  0  0
   60.9554   26.5679   49.6798 H   0  0  0  0  0  0  0  0  0  0  0  0
   59.2215   25.7221   48.2339 H   0  0  0  0  0  0  0  0  0  0  0  0
   58.3141   26.2237   46.7670 H   0  0  0  0  0  0  0  0  0  0  0  0
   60.1101   26.2562   46.7670 H   0  0  0  0  0  0  0  0  0  0  0  0
   57.3714   34.5213   45.2839 H   0  0  0  0  0  0  0  0  0  0  0  0
   56.9673   33.6653   46.8408 H   0  0  0  0  0  0  0  0  0  0  0  0
  1  2  1  0
  2  3  1  0
  3  4  1  0
  4  5  1  0
  5  6  2  0
  6  7  1  0
  7  8  2  0
  8  9  1  0
  9 10  2  0
 10 11  1  0
 11 12  2  0
 12 13  1  0
 13 14  1  0
 14 15  1  0
 15 16  2  0
 16 17  1  0
 17 18  2  0
 18 19  1  0
 19 20  1  0
 20 21  2  0
 20 22  1  0
 22 23  1  0
 23 24  1  0
 24 25  1  0
 25 26  2  0
 26 27  1  0
 27 28  2  0
 28 29  1  0
 29 30  2  0
 23 31  1  0
 31 32  1  0
 31 33  1  0
 33 34  1  0
 34 35  1  0
 35 36  1  0
 36 37  1  0
 37 38  1  0
 38 39  1  0
 39 40  1  0
 19 41  2  0
 41 42  1  0
 42 43  2  0
 43 44  1  0
 44 45  1  0
  6 46  1  0
 46  2  1  0
 12  7  1  0
 44 15  1  0
 43 17  1  0
 30 25  1  0
 40 35  1  0
  1 47  1  0
  1 48  1  0
  1 49  1  0
  3 50  1  0
  3 51  1  0
  4 52  1  0
  4 53  1  0
  5 54  1  0
  8 55  1  0
  9 56  1  0
 10 57  1  0
 14 58  1  0
 14 59  1  0
 18 60  1  0
 23 61  1  1
 24 62  1  0
 24 63  1  0
 26 64  1  0
 27 65  1  0
 28 66  1  0
 29 67  1  0
 30 68  1  0
 31 69  1  1
 32 70  1  0
 33 71  1  0
 33 72  1  0
 34 73  1  0
 35 74  1  0
 36 75  1  0
 36 76  1  0
 37 77  1  0
 37 78  1  0
 39 79  1  0
 39 80  1  0
 40 81  1  0
 40 82  1  0
 41 83  1  0
 42 84  1  0
 45 85  1  0
 45 86  1  0
 45 87  1  0
 46 88  1  0
 46 89  1  0
M  CHG  1  22  -1
M  END
>  <UniqueID>  (19) 
17

>  <SMILES>  (19) 
CN1CCC=C(c2cccnc2OCc2nc3cc(C(=O)[N-][C@H](Cc4ccccc4)[C@@H](O)CNC4CCOCC4)ccc3n2C)C1

>  <Energy>  (19) 
147.53880214631147

>  <Genealogy>  (19) 
CN1CCC=C(c2cccnc2OCc2nc3cc(C(=O)[N-]C(Cc4ccccc4)C(O)CNC4CCOCC4)ccc3n2C)C1 (protonated)
CN1CCC=C(c2cccnc2OCc2nc3cc(C(=O)[N-][C@H](Cc4ccccc4)[C@@H](O)CNC4CCOCC4)ccc3n2C)C1 (chirality)
CN1CCC=C(c2cccnc2OCc2nc3cc(C(=O)[N-][C@H](Cc4ccccc4)[C@@H](O)CNC4CCOCC4)ccc3n2C)C1 (3D coordinates assigned)
CN1CCC=C(c2cccnc2OCc2nc3cc(C(=O)[N-][C@H](Cc4ccccc4)[C@@H](O)CNC4CCOCC4)ccc3n2C)C1 (nonaromatic ring conformer: 147.53880214631147 kcal/mol)

>  <smiles>  (19) 
CN1CCC=C(c2cccnc2OCc2nc3cc(C(=O)NC(Cc4ccccc4)C(O)CNC4CCOCC4)ccc3n2C)C1

>  <score_type>  (19) 
oracle

>  <origin>  (19) 
adg

>  <m_score__min__energy>  (19) 
-13.49

>  <m_primary>  (19) 
energy

$$$$
19:0
     RDKit          3D

 69 73  0  0  0  0  0  0  0  0999 V2000
   59.2860   35.8140   44.8320 N   0  0  0  0  0  0  0  0  0  0  0  0
   59.1890   34.7010   45.1300 C   0  0  0  0  0  0  0  0  0  0  0  0
   59.0660   33.3110   45.4990 C   0  0  0  0  0  0  0  0  0  0  0  0
   58.0850   32.5270   44.8810 C   0  0  0  0  0  0  0  0  0  0  0  0
   57.9920   31.1550   45.1600 C   0  0  0  0  0  0  0  0  0  0  0  0
   56.7570   30.1590   44.3810 S   0  0  0  0  0  0  0  0  0  0  0  0
   57.0770   30.0050   42.9200 O   0  0  0  0  0  0  0  0  0  0  0  0
   55.4540   30.9000   44.4790 O   0  0  0  0  0  0  0  0  0  0  0  0
   56.5280   28.5740   45.0880 N   0  0  0  0  0  0  0  0  0  0  0  0
   57.6410   27.6060   45.0260 C   0  0  1  0  0  0  0  0  0  0  0  0
   59.0080   28.1410   44.5970 C   0  0  0  0  0  0  0  0  0  0  0  0
   59.9950   27.5870   45.6200 C   0  0  0  0  0  0  0  0  0  0  0  0
   59.2990   26.5590   46.4160 N   0  0  1  0  0  0  0  0  0  0  0  0
   59.7660   26.5000   47.8200 C   0  0  0  0  0  0  0  0  0  0  0  0
   59.7900   27.8660   48.4630 C   0  0  0  0  0  0  0  0  0  0  0  0
   61.0100   28.4330   48.8730 C   0  0  0  0  0  0  0  0  0  0  0  0
   61.0370   29.7070   49.4460 C   0  0  0  0  0  0  0  0  0  0  0  0
   59.8480   30.4210   49.6240 C   0  0  0  0  0  0  0  0  0  0  0  0
   58.6300   29.8610   49.2250 C   0  0  0  0  0  0  0  0  0  0  0  0
   58.5970   28.5890   48.6440 C   0  0  0  0  0  0  0  0  0  0  0  0
   57.8630   26.8720   46.3420 C   0  0  0  0  0  0  0  0  0  0  0  0
   58.8450   30.5870   46.1160 C   0  0  0  0  0  0  0  0  0  0  0  0
   59.8210   31.3660   46.7400 C   0  0  0  0  0  0  0  0  0  0  0  0
   59.9450   32.7290   46.4350 C   0  0  0  0  0  0  0  0  0  0  0  0
   60.9520   33.5110   47.0930 N   0  0  0  0  0  0  0  0  0  0  0  0
   62.2040   33.8270   46.3960 C   0  0  0  0  0  0  0  0  0  0  0  0
   63.3960   33.2680   47.1820 C   0  0  0  0  0  0  0  0  0  0  0  0
   63.2490   33.5000   48.6260 N   0  0  0  0  0  0  0  0  0  0  0  0
   64.2890   33.0440   49.5140 C   0  0  0  0  0  0  0  0  0  0  0  0
   65.4930   33.1040   49.1430 O   0  0  0  0  0  0  0  0  0  0  0  0
   63.9740   32.4830   50.8480 C   0  0  0  0  0  0  0  0  0  0  0  0
   63.8640   33.3320   51.9640 C   0  0  0  0  0  0  0  0  0  0  0  0
   63.5830   32.8010   53.2290 C   0  0  0  0  0  0  0  0  0  0  0  0
   63.4220   31.4220   53.3920 C   0  0  0  0  0  0  0  0  0  0  0  0
   63.1560   30.9110   54.6210 F   0  0  0  0  0  0  0  0  0  0  0  0
   63.5510   30.5710   52.2910 C   0  0  0  0  0  0  0  0  0  0  0  0
   63.8290   31.0970   51.0270 C   0  0  0  0  0  0  0  0  0  0  0  0
   62.1250   34.3040   49.1300 C   0  0  0  0  0  0  0  0  0  0  0  0
   60.8100   33.7940   48.5290 C   0  0  0  0  0  0  0  0  0  0  0  0
   57.3824   32.9894   44.1721 H   0  0  0  0  0  0  0  0  0  0  0  0
   57.2774   26.9396   44.2299 H   0  0  0  0  0  0  0  0  0  0  0  0
   59.2607   27.7871   43.5866 H   0  0  0  0  0  0  0  0  0  0  0  0
   59.0262   29.2403   44.5625 H   0  0  0  0  0  0  0  0  0  0  0  0
   60.8562   27.1387   45.1028 H   0  0  0  0  0  0  0  0  0  0  0  0
   60.3603   28.3931   46.2733 H   0  0  0  0  0  0  0  0  0  0  0  0
   59.4490   25.6250   45.9620 H   0  0  0  0  0  0  0  0  0  0  0  0
   59.0892   25.8491   48.3929 H   0  0  0  0  0  0  0  0  0  0  0  0
   60.7923   26.1042   47.8217 H   0  0  0  0  0  0  0  0  0  0  0  0
   61.9466   27.8712   48.7420 H   0  0  0  0  0  0  0  0  0  0  0  0
   61.9949   30.1489   49.7575 H   0  0  0  0  0  0  0  0  0  0  0  0
   59.8705   31.4228   50.0777 H   0  0  0  0  0  0  0  0  0  0  0  0
   57.6951   30.4226   49.3685 H   0  0  0  0  0  0  0  0  0  0  0  0
   57.6374   28.1537   48.3284 H   0  0  0  0  0  0  0  0  0  0  0  0
   57.2715   25.9448   46.3631 H   0  0  0  0  0  0  0  0  0  0  0  0
   57.5485   27.4891   47.1966 H   0  0  0  0  0  0  0  0  0  0  0  0
   58.7450   29.5228   46.3758 H   0  0  0  0  0  0  0  0  0  0  0  0
   60.4976   30.9073   47.4762 H   0  0  0  0  0  0  0  0  0  0  0  0
   62.1860   33.3771   45.3924 H   0  0  0  0  0  0  0  0  0  0  0  0
   62.3058   34.9191   46.3129 H   0  0  0  0  0  0  0  0  0  0  0  0
   63.4676   32.1855   46.9999 H   0  0  0  0  0  0  0  0  0  0  0  0
   64.3054   33.7848   46.8414 H   0  0  0  0  0  0  0  0  0  0  0  0
   63.9992   34.4169   51.8427 H   0  0  0  0  0  0  0  0  0  0  0  0
   63.4887   33.4707   54.0965 H   0  0  0  0  0  0  0  0  0  0  0  0
   63.4334   29.4849   52.4199 H   0  0  0  0  0  0  0  0  0  0  0  0
   63.9351   30.4212   50.1656 H   0  0  0  0  0  0  0  0  0  0  0  0
   62.0810   34.2232   50.2261 H   0  0  0  0  0  0  0  0  0  0  0  0
   62.2724   35.3551   48.8411 H   0  0  0  0  0  0  0  0  0  0  0  0
   60.5131   32.8709   49.0483 H   0  0  0  0  0  0  0  0  0  0  0  0
   60.0455   34.5748   48.6546 H   0  0  0  0  0  0  0  0  0  0  0  0
  1  2  3  0
  2  3  1  0
  3  4  2  0
  4  5  1  0
  5  6  1  0
  6  7  2  0
  6  8  2  0
  6  9  1  0
  9 10  1  0
 10 11  1  0
 11 12  1  0
 12 13  1  0
 13 14  1  0
 14 15  1  0
 15 16  2  0
 16 17  1  0
 17 18  2  0
 18 19  1  0
 19 20  2  0
 13 21  1  0
  5 22  2  0
 22 23  1  0
 23 24  2  0
 24 25  1  0
 25 26  1  0
 26 27  1  0
 27 28  1  0
 28 29  1  0
 29 30  2  0
 29 31  1  0
 31 32  2  0
 32 33  1  0
 33 34  2  0
 34 35  1  0
 34 36  1  0
 36 37  2  0
 28 38  1  0
 38 39  1  0
 24  3  1  0
 39 25  1  0
 21 10  1  0
 37 31  1  0
 20 15  1  0
  4 40  1  0
 10 41  1  6
 11 42  1  0
 11 43  1  0
 12 44  1  0
 12 45  1  0
 13 46  1  6
 14 47  1  0
 14 48  1  0
 16 49  1  0
 17 50  1  0
 18 51  1  0
 19 52  1  0
 20 53  1  0
 21 54  1  0
 21 55  1  0
 22 56  1  0
 23 57  1  0
 26 58  1  0
 26 59  1  0
 27 60  1  0
 27 61  1  0
 32 62  1  0
 33 63  1  0
 36 64  1  0
 37 65  1  0
 38 66  1  0
 38 67  1  0
 39 68  1  0
 39 69  1  0
M  CHG  2   9  -1  13   1
M  END
>  <UniqueID>  (20) 
18

>  <SMILES>  (20) 
N#Cc1cc(S(=O)(=O)[N-][C@H]2CC[N@@H+](Cc3ccccc3)C2)ccc1N1CCN(C(=O)c2ccc(F)cc2)CC1

>  <Energy>  (20) 
92.17454555935025

>  <Genealogy>  (20) 
N#Cc1cc(S(=O)(=O)[N-]C2CC[NH+](Cc3ccccc3)C2)ccc1N1CCN(C(=O)c2ccc(F)cc2)CC1 (protonated)
N#Cc1cc(S(=O)(=O)[N-][C@H]2CC[N@@H+](Cc3ccccc3)C2)ccc1N1CCN(C(=O)c2ccc(F)cc2)CC1 (chirality)
N#Cc1cc(S(=O)(=O)[N-][C@H]2CC[N@@H+](Cc3ccccc3)C2)ccc1N1CCN(C(=O)c2ccc(F)cc2)CC1 (3D coordinates assigned)
N#Cc1cc(S(=O)(=O)[N-][C@H]2CC[N@@H+](Cc3ccccc3)C2)ccc1N1CCN(C(=O)c2ccc(F)cc2)CC1 (nonaromatic ring conformer: 92.17454555935025 kcal/mol)

>  <smiles>  (20) 
N#Cc1cc(S(=O)(=O)NC2CCN(Cc3ccccc3)C2)ccc1N1CCN(C(=O)c2ccc(F)cc2)CC1

>  <score_type>  (20) 
oracle

>  <origin>  (20) 
adg

>  <m_score__min__energy>  (20) 
-10.02

>  <m_primary>  (20) 
energy

$$$$
20:0
     RDKit          3D

 37 39  0  0  0  0  0  0  0  0999 V2000
   65.4840   32.2060   50.2460 C   0  0  0  0  0  0  0  0  0  0  0  0
   65.1830   33.2570   49.3570 O   0  0  0  0  0  0  0  0  0  0  0  0
   63.9610   33.4340   48.7550 C   0  0  0  0  0  0  0  0  0  0  0  0
   63.7270   33.2870   47.4050 C   0  0  0  0  0  0  0  0  0  0  0  0
   62.4680   33.4770   46.8440 C   0  0  0  0  0  0  0  0  0  0  0  0
   61.4060   33.8240   47.6510 C   0  0  0  0  0  0  0  0  0  0  0  0
   60.1070   34.0240   47.1030 N   0  0  0  0  0  0  0  0  0  0  0  0
   59.0100   33.1760   47.4980 C   0  0  0  0  0  0  0  0  0  0  0  0
   58.9200   31.9530   46.6570 C   0  0  0  0  0  0  0  0  0  0  0  0
   60.0400   31.1460   46.6040 C   0  0  0  0  0  0  0  0  0  0  0  0
   60.0520   30.0030   45.8580 N   0  0  0  0  0  0  0  0  0  0  0  0
   58.9220   29.6810   45.1660 C   0  0  0  0  0  0  0  0  0  0  0  0
   58.9490   28.5500   44.4330 N   0  0  0  0  0  0  0  0  0  0  0  0
   57.8510   28.2030   43.7380 C   0  0  0  0  0  0  0  0  0  0  0  0
   57.8620   27.1120   43.0270 N   0  0  0  0  0  0  0  0  0  0  0  0
   56.7400   28.9530   43.7580 N   0  0  0  0  0  0  0  0  0  0  0  0
   56.6840   30.1050   44.4900 C   0  0  0  0  0  0  0  0  0  0  0  0
   55.6090   30.8180   44.5000 N   0  0  0  0  0  0  0  0  0  0  0  0
   57.8020   30.4900   45.2190 C   0  0  0  0  0  0  0  0  0  0  0  0
   57.7910   31.6330   45.9660 N   0  0  0  0  0  0  0  0  0  0  0  0
   61.6360   33.9700   48.9980 C   0  0  0  0  0  0  0  0  0  0  0  0
   62.8940   33.7800   49.5570 C   0  0  0  0  0  0  0  0  0  0  0  0
   65.3822   32.5615   51.2820 H   0  0  0  0  0  0  0  0  0  0  0  0
   64.7890   31.3707   50.0750 H   0  0  0  0  0  0  0  0  0  0  0  0
   66.5158   31.8653   50.0750 H   0  0  0  0  0  0  0  0  0  0  0  0
   64.5646   33.0098   46.7481 H   0  0  0  0  0  0  0  0  0  0  0  0
   62.3209   33.3508   45.7612 H   0  0  0  0  0  0  0  0  0  0  0  0
   59.9630   34.7920   46.4130 H   0  0  0  0  0  0  0  0  0  0  0  0
   59.1528   32.8761   48.5466 H   0  0  0  0  0  0  0  0  0  0  0  0
   58.0775   33.7454   47.3702 H   0  0  0  0  0  0  0  0  0  0  0  0
   60.9378   31.4295   47.1729 H   0  0  0  0  0  0  0  0  0  0  0  0
   59.8010   27.9470   44.4010 H   0  0  0  0  0  0  0  0  0  0  0  0
   57.0010   26.6950   42.6400 H   0  0  0  0  0  0  0  0  0  0  0  0
   55.9260   28.6220   43.1930 H   0  0  0  0  0  0  0  0  0  0  0  0
   55.5190   31.5830   45.1980 H   0  0  0  0  0  0  0  0  0  0  0  0
   60.7977   34.2460   49.6545 H   0  0  0  0  0  0  0  0  0  0  0  0
   63.0387   33.9057   50.6402 H   0  0  0  0  0  0  0  0  0  0  0  0
  1  2  1  0
  2  3  1  0
  3  4  2  0
  4  5  1  0
  5  6  2  0
  6  7  1  0
  7  8  1  0
  8  9  1  0
  9 10  2  0
 10 11  1  0
 11 12  2  0
 12 13  1  0
 13 14  1  0
 14 15  2  3
 14 16  1  0
 16 17  1  0
 17 18  2  3
 17 19  1  0
 19 20  2  0
  6 21  1  0
 21 22  2  0
 22  3  1  0
 20  9  1  0
 19 12  1  0
  1 23  1  0
  1 24  1  0
  1 25  1  0
  4 26  1  0
  5 27  1  0
  7 28  1  0
  8 29  1  0
  8 30  1  0
 10 31  1  0
 13 32  1  0
 15 33  1  0
 16 34  1  0
 18 35  1  0
 21 36  1  0
 22 37  1  0
M  END
>  <smiles>  (21) 
COc1ccc(NCc2cnc3[nH]c(=N)[nH]c(=N)c3n2)cc1

>  <score_type>  (21) 
oracle

>  <origin>  (21) 
adg

>  <m_score__min__energy>  (21) 
-6.7599999999999998

>  <m_primary>  (21) 
energy

$$$$
21:0
     RDKit          3D

 65 68  0  0  0  0  0  0  0  0999 V2000
   51.1660   24.0850   43.8300 C   0  0  0  0  0  0  0  0  0  0  0  0
   51.9630   23.0080   44.3030 O   0  0  0  0  0  0  0  0  0  0  0  0
   52.5470   23.0010   45.5750 C   0  0  0  0  0  0  0  0  0  0  0  0
   51.9310   22.4850   46.5480 O   0  0  0  0  0  0  0  0  0  0  0  0
   53.8860   23.6000   45.7750 C   0  0  0  0  0  0  0  0  0  0  0  0
   54.0710   24.9830   45.6150 C   0  0  0  0  0  0  0  0  0  0  0  0
   55.3390   25.5580   45.7930 C   0  0  0  0  0  0  0  0  0  0  0  0
   55.5430   26.9720   45.6670 N   0  0  0  0  0  0  0  0  0  0  0  0
   56.8020   27.6570   45.7150 C   0  0  0  0  0  0  0  0  0  0  0  0
   57.4300   27.6930   46.8060 O   0  0  0  0  0  0  0  0  0  0  0  0
   57.3980   28.3070   44.4930 C   0  0  0  0  0  0  0  0  0  0  0  0
   57.0330   29.7950   44.4180 C   0  0  0  0  0  0  0  0  0  0  0  0
   58.0590   30.6320   45.1330 C   0  0  0  0  0  0  0  0  0  0  0  0
   59.1740   30.0290   45.7360 C   0  0  0  0  0  0  0  0  0  0  0  0
   60.1380   30.8100   46.3800 C   0  0  0  0  0  0  0  0  0  0  0  0
   60.0110   32.2120   46.4140 C   0  0  0  0  0  0  0  0  0  0  0  0
   60.9490   33.0490   47.0410 O   0  0  0  0  0  0  0  0  0  0  0  0
   62.2910   32.6920   47.3870 C   0  0  0  0  0  0  0  0  0  0  0  0
   63.0140   33.8890   48.0340 C   0  0  0  0  0  0  0  0  0  0  0  0
   62.2860   34.3340   49.3100 C   0  0  0  0  0  0  0  0  0  0  0  0
   61.8300   33.1790   50.0980 N   0  0  0  0  0  0  0  0  0  0  0  0
   60.9120   33.3770   51.1870 C   0  0  0  0  0  0  0  0  0  0  0  0
   61.3890   33.4680   52.5060 C   0  0  0  0  0  0  0  0  0  0  0  0
   60.4980   33.6620   53.5660 C   0  0  0  0  0  0  0  0  0  0  0  0
   59.1290   33.7710   53.3200 C   0  0  0  0  0  0  0  0  0  0  0  0
   58.6460   33.6900   52.0120 C   0  0  0  0  0  0  0  0  0  0  0  0
   59.5310   33.4980   50.9460 C   0  0  0  0  0  0  0  0  0  0  0  0
   59.0470   33.4570   49.6800 F   0  0  0  0  0  0  0  0  0  0  0  0
   62.3930   31.8500   49.8330 C   0  0  0  0  0  0  0  0  0  0  0  0
   62.2550   31.4770   48.3450 C   0  0  0  0  0  0  0  0  0  0  0  0
   58.9010   32.8090   45.8040 C   0  0  0  0  0  0  0  0  0  0  0  0
   57.9340   32.0290   45.1650 C   0  0  0  0  0  0  0  0  0  0  0  0
   56.4140   24.7530   46.1780 C   0  0  0  0  0  0  0  0  0  0  0  0
   56.2510   23.3680   46.3460 C   0  0  0  0  0  0  0  0  0  0  0  0
   57.4010   22.5240   46.7420 C   0  0  0  0  0  0  0  0  0  0  0  0
   58.4010   22.4070   45.9850 O   0  0  0  0  0  0  0  0  0  0  0  0
   57.3920   21.8480   47.9560 O   0  0  0  0  0  0  0  0  0  0  0  0
   54.9830   22.7990   46.1350 C   0  0  0  0  0  0  0  0  0  0  0  0
   50.7550   24.6404   44.6859 H   0  0  0  0  0  0  0  0  0  0  0  0
   51.7850   24.7584   43.2190 H   0  0  0  0  0  0  0  0  0  0  0  0
   50.3411   23.6899   43.2190 H   0  0  0  0  0  0  0  0  0  0  0  0
   53.2153   25.6207   45.3481 H   0  0  0  0  0  0  0  0  0  0  0  0
   58.4928   28.2084   44.5328 H   0  0  0  0  0  0  0  0  0  0  0  0
   56.9938   27.8054   43.6014 H   0  0  0  0  0  0  0  0  0  0  0  0
   56.9878   30.1028   43.3629 H   0  0  0  0  0  0  0  0  0  0  0  0
   56.0563   29.9440   44.9017 H   0  0  0  0  0  0  0  0  0  0  0  0
   59.2898   28.9357   45.7016 H   0  0  0  0  0  0  0  0  0  0  0  0
   61.0003   30.3269   46.8627 H   0  0  0  0  0  0  0  0  0  0  0  0
   62.8503   32.4176   46.4804 H   0  0  0  0  0  0  0  0  0  0  0  0
   64.0430   33.5953   48.2886 H   0  0  0  0  0  0  0  0  0  0  0  0
   63.0229   34.7260   47.3204 H   0  0  0  0  0  0  0  0  0  0  0  0
   62.9731   34.9364   49.9225 H   0  0  0  0  0  0  0  0  0  0  0  0
   61.4045   34.9237   49.0180 H   0  0  0  0  0  0  0  0  0  0  0  0
   62.4677   33.3863   52.7052 H   0  0  0  0  0  0  0  0  0  0  0  0
   60.8773   33.7288   54.5964 H   0  0  0  0  0  0  0  0  0  0  0  0
   58.4301   33.9207   54.1561 H   0  0  0  0  0  0  0  0  0  0  0  0
   57.5665   33.7774   51.8196 H   0  0  0  0  0  0  0  0  0  0  0  0
   63.4585   31.8500   50.1062 H   0  0  0  0  0  0  0  0  0  0  0  0
   61.8409   31.1105   50.4316 H   0  0  0  0  0  0  0  0  0  0  0  0
   63.0819   30.8020   48.0792 H   0  0  0  0  0  0  0  0  0  0  0  0
   61.2686   31.0052   48.2247 H   0  0  0  0  0  0  0  0  0  0  0  0
   58.7893   33.9030   45.8282 H   0  0  0  0  0  0  0  0  0  0  0  0
   57.0705   32.5125   44.6847 H   0  0  0  0  0  0  0  0  0  0  0  0
   57.3998   25.2092   46.3516 H   0  0  0  0  0  0  0  0  0  0  0  0
   54.8479   21.7137   46.2531 H   0  0  0  0  0  0  0  0  0  0  0  0
  1  2  1  0
  2  3  1  0
  3  4  2  0
  3  5  1  0
  5  6  2  0
  6  7  1  0
  7  8  1  0
  8  9  1  0
  9 10  2  0
  9 11  1  0
 11 12  1  0
 12 13  1  0
 13 14  2  0
 14 15  1  0
 15 16  2  0
 16 17  1  0
 17 18  1  0
 18 19  1  0
 19 20  1  0
 20 21  1  0
 21 22  1  0
 22 23  2  0
 23 24  1  0
 24 25  2  0
 25 26  1  0
 26 27  2  0
 27 28  1  0
 21 29  1  0
 29 30  1  0
 16 31  1  0
 31 32  2  0
  7 33  2  0
 33 34  1  0
 34 35  1  0
 35 36  2  0
 35 37  1  0
 34 38  2  0
 38  5  1  0
 32 13  1  0
 30 18  1  0
 27 22  1  0
  1 39  1  0
  1 40  1  0
  1 41  1  0
  6 42  1  0
 11 43  1  0
 11 44  1  0
 12 45  1  0
 12 46  1  0
 14 47  1  0
 15 48  1  0
 18 49  1  0
 19 50  1  0
 19 51  1  0
 20 52  1  0
 20 53  1  0
 23 54  1  0
 24 55  1  0
 25 56  1  0
 26 57  1  0
 29 58  1  0
 29 59  1  0
 30 60  1  0
 30 61  1  0
 31 62  1  0
 32 63  1  0
 33 64  1  0
 38 65  1  0
M  CHG  2   8  -1  37  -1
M  END
>  <UniqueID>  (22) 
19

>  <SMILES>  (22) 
COC(=O)c1cc([N-]C(=O)CCc2ccc(OC3CCN(c4ccccc4F)CC3)cc2)cc(C(=O)[O-])c1

>  <Energy>  (22) 
76.3082421811444

>  <Genealogy>  (22) 
COC(=O)c1cc([N-]C(=O)CCc2ccc(OC3CCN(c4ccccc4F)CC3)cc2)cc(C(=O)[O-])c1 (protonated)
COC(=O)c1cc([N-]C(=O)CCc2ccc(OC3CCN(c4ccccc4F)CC3)cc2)cc(C(=O)[O-])c1 (3D coordinates assigned)
COC(=O)c1cc([N-]C(=O)CCc2ccc(OC3CCN(c4ccccc4F)CC3)cc2)cc(C(=O)[O-])c1 (nonaromatic ring conformer: 76.3082421811444 kcal/mol)

>  <smiles>  (22) 
COC(=O)c1cc(NC(=O)CCc2ccc(OC3CCN(c4ccccc4F)CC3)cc2)cc(C(=O)O)c1

>  <score_type>  (22) 
oracle

>  <origin>  (22) 
adg

>  <m_score__min__energy>  (22) 
-13.699999999999999

>  <m_primary>  (22) 
energy

$$$$
22:0
     RDKit          3D

 58 61  0  0  0  0  0  0  0  0999 V2000
   55.5820   28.6070   44.8720 N   0  0  0  0  0  0  0  0  0  0  0  0
   56.3220   29.6400   44.6160 C   0  0  0  0  0  0  0  0  0  0  0  0
   56.4100   30.1580   43.3160 C   0  0  0  0  0  0  0  0  0  0  0  0
   57.2220   31.2680   43.0740 C   0  0  0  0  0  0  0  0  0  0  0  0
   57.9550   31.8410   44.1240 C   0  0  0  0  0  0  0  0  0  0  0  0
   58.7830   32.9960   43.9270 N   0  0  0  0  0  0  0  0  0  0  0  0
   58.9420   34.0960   44.8320 C   0  0  0  0  0  0  0  0  0  0  0  0
   58.0780   35.0120   44.8230 O   0  0  0  0  0  0  0  0  0  0  0  0
   60.0550   34.1290   45.8670 C   0  0  1  0  0  0  0  0  0  0  0  0
   59.7140   35.1050   46.9970 C   0  0  0  0  0  0  0  0  0  0  0  0
   59.2580   34.2450   48.1660 C   0  0  0  0  0  0  0  0  0  0  0  0
   59.4320   32.7980   47.7190 C   0  0  0  0  0  0  0  0  0  0  0  0
   60.2390   32.7990   46.4880 N   0  0  2  0  0  0  0  0  0  0  0  0
   61.6390   32.5520   46.7920 C   0  0  0  0  0  0  0  0  0  0  0  0
   62.4770   33.4270   46.6130 O   0  0  0  0  0  0  0  0  0  0  0  0
   62.0850   31.2070   47.3010 C   0  0  0  0  0  0  0  0  0  0  0  0
   60.9720   30.4540   47.7830 O   0  0  0  0  0  0  0  0  0  0  0  0
   60.2400   29.5180   47.0350 C   0  0  0  0  0  0  0  0  0  0  0  0
   60.4790   29.2840   45.6680 C   0  0  0  0  0  0  0  0  0  0  0  0
   59.7170   28.3410   44.9720 C   0  0  0  0  0  0  0  0  0  0  0  0
   58.7040   27.6240   45.6190 C   0  0  0  0  0  0  0  0  0  0  0  0
   57.9600   26.7000   44.8690 O   0  0  0  0  0  0  0  0  0  0  0  0
   57.0370   25.7530   45.4070 C   0  0  0  0  0  0  0  0  0  0  0  0
   57.1880   24.4150   44.7320 C   0  0  0  0  0  0  0  0  0  0  0  0
   58.1930   23.5260   45.1480 C   0  0  0  0  0  0  0  0  0  0  0  0
   58.3320   22.2810   44.5260 C   0  0  0  0  0  0  0  0  0  0  0  0
   57.4650   21.9120   43.4950 C   0  0  0  0  0  0  0  0  0  0  0  0
   56.4550   22.7850   43.0850 C   0  0  0  0  0  0  0  0  0  0  0  0
   56.3100   24.0300   43.7030 C   0  0  0  0  0  0  0  0  0  0  0  0
   58.4700   27.8550   46.9870 C   0  0  0  0  0  0  0  0  0  0  0  0
   59.2320   28.7970   47.6840 C   0  0  0  0  0  0  0  0  0  0  0  0
   57.8160   31.3110   45.4100 C   0  0  0  0  0  0  0  0  0  0  0  0
   57.0190   30.2300   45.6240 N   0  0  0  0  0  0  0  0  0  0  0  0
   55.9500   27.6300   44.8380 H   0  0  0  0  0  0  0  0  0  0  0  0
   55.8446   29.6942   42.4943 H   0  0  0  0  0  0  0  0  0  0  0  0
   57.2868   31.6926   42.0613 H   0  0  0  0  0  0  0  0  0  0  0  0
   60.9697   34.4413   45.3418 H   0  0  0  0  0  0  0  0  0  0  0  0
   60.6013   35.6918   47.2767 H   0  0  0  0  0  0  0  0  0  0  0  0
   58.9350   35.8195   46.6927 H   0  0  0  0  0  0  0  0  0  0  0  0
   59.8762   34.4476   49.0530 H   0  0  0  0  0  0  0  0  0  0  0  0
   58.2141   34.4586   48.4391 H   0  0  0  0  0  0  0  0  0  0  0  0
   59.9472   32.2239   48.5032 H   0  0  0  0  0  0  0  0  0  0  0  0
   58.4522   32.3333   47.5346 H   0  0  0  0  0  0  0  0  0  0  0  0
   59.8960   32.0410   45.8500 H   0  0  0  0  0  0  0  0  0  0  0  0
   62.5679   30.6533   46.4823 H   0  0  0  0  0  0  0  0  0  0  0  0
   62.7930   31.3598   48.1289 H   0  0  0  0  0  0  0  0  0  0  0  0
   61.2679   29.8449   45.1455 H   0  0  0  0  0  0  0  0  0  0  0  0
   59.9156   28.1607   43.9052 H   0  0  0  0  0  0  0  0  0  0  0  0
   57.2266   25.6367   46.4843 H   0  0  0  0  0  0  0  0  0  0  0  0
   56.0146   26.1208   45.2353 H   0  0  0  0  0  0  0  0  0  0  0  0
   58.8725   23.8098   45.9652 H   0  0  0  0  0  0  0  0  0  0  0  0
   59.1255   21.5912   44.8494 H   0  0  0  0  0  0  0  0  0  0  0  0
   57.5778   20.9333   43.0057 H   0  0  0  0  0  0  0  0  0  0  0  0
   55.7722   22.4920   42.2739 H   0  0  0  0  0  0  0  0  0  0  0  0
   55.5070   24.7107   43.3838 H   0  0  0  0  0  0  0  0  0  0  0  0
   57.6836   27.2916   47.5106 H   0  0  0  0  0  0  0  0  0  0  0  0
   59.0374   28.9730   48.7522 H   0  0  0  0  0  0  0  0  0  0  0  0
   58.3536   31.7703   46.2526 H   0  0  0  0  0  0  0  0  0  0  0  0
  1  2  2  3
  2  3  1  0
  3  4  2  0
  4  5  1  0
  5  6  1  0
  6  7  1  0
  7  8  2  0
  7  9  1  0
  9 10  1  0
 10 11  1  0
 11 12  1  0
 12 13  1  0
 13 14  1  0
 14 15  2  0
 14 16  1  0
 16 17  1  0
 17 18  1  0
 18 19  2  0
 19 20  1  0
 20 21  2  0
 21 22  1  0
 22 23  1  0
 23 24  1  0
 24 25  2  0
 25 26  1  0
 26 27  2  0
 27 28  1  0
 28 29  2  0
 21 30  1  0
 30 31  2  0
  5 32  2  0
 32 33  1  0
 33  2  1  0
 13  9  1  0
 31 18  1  0
 29 24  1  0
  1 34  1  0
  3 35  1  0
  4 36  1  0
  9 37  1  6
 10 38  1  0
 10 39  1  0
 11 40  1  0
 11 41  1  0
 12 42  1  0
 12 43  1  0
 13 44  1  6
 16 45  1  0
 16 46  1  0
 19 47  1  0
 20 48  1  0
 23 49  1  0
 23 50  1  0
 25 51  1  0
 26 52  1  0
 27 53  1  0
 28 54  1  0
 29 55  1  0
 30 56  1  0
 31 57  1  0
 32 58  1  0
M  CHG  3   6  -1  13   1  33  -1
M  END
>  <UniqueID>  (23) 
20

>  <SMILES>  (23) 
N=c1ccc([N-]C(=O)[C@H]2CCC[N@@H+]2C(=O)COc2ccc(OCc3ccccc3)cc2)c[n-]1

>  <Energy>  (23) 
71.59676599248395

>  <Genealogy>  (23) 
N=c1ccc([N-]C(=O)C2CCC[NH+]2C(=O)COc2ccc(OCc3ccccc3)cc2)c[n-]1 (protonated)
N=c1ccc([N-]C(=O)[C@H]2CCC[N@@H+]2C(=O)COc2ccc(OCc3ccccc3)cc2)c[n-]1 (chirality)
N=c1ccc([N-]C(=O)[C@H]2CCC[N@@H+]2C(=O)COc2ccc(OCc3ccccc3)cc2)c[n-]1 (3D coordinates assigned)
N=c1ccc([N-]C(=O)[C@H]2CCC[N@@H+]2C(=O)COc2ccc(OCc3ccccc3)cc2)c[n-]1 (nonaromatic ring conformer: 71.59676599248395 kcal/mol)

>  <smiles>  (23) 
N=c1ccc(NC(=O)C2CCCN2C(=O)COc2ccc(OCc3ccccc3)cc2)c[nH]1

>  <score_type>  (23) 
oracle

>  <origin>  (23) 
adg

>  <m_score__min__energy>  (23) 
-12.49

>  <m_primary>  (23) 
energy

$$$$
23:0
     RDKit          3D

 39 41  0  0  0  0  0  0  0  0999 V2000
   57.0300   28.8950   43.1580 N   0  0  0  0  0  0  0  0  0  0  0  0
   56.6840   29.5850   44.7040 S   0  0  0  0  0  0  0  0  0  0  0  0
   57.1880   28.6730   45.7870 O   0  0  0  0  0  0  0  0  0  0  0  0
   55.1960   29.7390   44.8610 O   0  0  0  0  0  0  0  0  0  0  0  0
   57.4690   31.1560   44.8390 C   0  0  0  0  0  0  0  0  0  0  0  0
   57.7250   31.9150   43.6710 C   0  0  0  0  0  0  0  0  0  0  0  0
   58.3330   33.1790   43.7580 C   0  0  0  0  0  0  0  0  0  0  0  0
   58.6640   33.6500   45.0230 C   0  0  0  0  0  0  0  0  0  0  0  0
   59.2380   34.8210   45.3490 N   0  0  0  0  0  0  0  0  0  0  0  0
   59.3400   34.8160   46.6760 N   0  0  0  0  0  0  0  0  0  0  0  0
   58.8560   33.6920   47.1920 N   0  0  0  0  0  0  0  0  0  0  0  0
   58.8560   33.4550   48.5570 O   0  0  0  0  0  0  0  0  0  0  0  0
   59.5320   32.3770   49.1910 C   0  0  0  0  0  0  0  0  0  0  0  0
   58.5210   31.4730   49.8130 C   0  0  0  0  0  0  0  0  0  0  0  0
   57.6230   31.9550   50.5560 O   0  0  0  0  0  0  0  0  0  0  0  0
   58.5510   30.0710   49.5250 N   0  0  0  0  0  0  0  0  0  0  0  0
   59.7810   29.3090   49.3520 C   0  0  0  0  0  0  0  0  0  0  0  0
   59.9500   28.9110   47.9100 C   0  0  0  0  0  0  0  0  0  0  0  0
   60.3580   29.8650   46.9630 C   0  0  0  0  0  0  0  0  0  0  0  0
   60.5000   29.5080   45.6180 C   0  0  0  0  0  0  0  0  0  0  0  0
   60.2280   28.1990   45.2090 C   0  0  0  0  0  0  0  0  0  0  0  0
   59.8140   27.2460   46.1440 C   0  0  0  0  0  0  0  0  0  0  0  0
   59.6730   27.5990   47.4910 C   0  0  0  0  0  0  0  0  0  0  0  0
   58.4190   32.9330   46.1600 C   0  0  0  0  0  0  0  0  0  0  0  0
   57.8130   31.6700   46.1100 C   0  0  0  0  0  0  0  0  0  0  0  0
   56.9440   27.8580   43.2590 H   0  0  0  0  0  0  0  0  0  0  0  0
   58.0360   29.0930   42.9550 H   0  0  0  0  0  0  0  0  0  0  0  0
   57.4453   31.5114   42.6867 H   0  0  0  0  0  0  0  0  0  0  0  0
   58.5397   33.7746   42.8566 H   0  0  0  0  0  0  0  0  0  0  0  0
   60.1178   31.8189   48.4458 H   0  0  0  0  0  0  0  0  0  0  0  0
   60.2111   32.7655   49.9642 H   0  0  0  0  0  0  0  0  0  0  0  0
   60.6372   29.9268   49.6608 H   0  0  0  0  0  0  0  0  0  0  0  0
   59.7295   28.4008   49.9704 H   0  0  0  0  0  0  0  0  0  0  0  0
   60.5667   30.8973   47.2805 H   0  0  0  0  0  0  0  0  0  0  0  0
   60.8258   30.2575   44.8817 H   0  0  0  0  0  0  0  0  0  0  0  0
   60.3398   27.9190   44.1511 H   0  0  0  0  0  0  0  0  0  0  0  0
   59.5987   26.2169   45.8206 H   0  0  0  0  0  0  0  0  0  0  0  0
   59.3444   26.8471   48.2236 H   0  0  0  0  0  0  0  0  0  0  0  0
   57.6121   31.0986   47.0282 H   0  0  0  0  0  0  0  0  0  0  0  0
  1  2  1  0
  2  3  2  0
  2  4  2  0
  2  5  1  0
  5  6  2  0
  6  7  1  0
  7  8  2  0
  8  9  1  0
  9 10  2  0
 10 11  1  0
 11 12  1  0
 12 13  1  0
 13 14  1  0
 14 15  2  0
 14 16  1  0
 16 17  1  0
 17 18  1  0
 18 19  2  0
 19 20  1  0
 20 21  2  0
 21 22  1  0
 22 23  2  0
 11 24  1  0
 24 25  2  0
 25  5  1  0
 24  8  1  0
 23 18  1  0
  1 26  1  0
  1 27  1  0
  6 28  1  0
  7 29  1  0
 13 30  1  0
 13 31  1  0
 17 32  1  0
 17 33  1  0
 19 34  1  0
 20 35  1  0
 21 36  1  0
 22 37  1  0
 23 38  1  0
 25 39  1  0
M  CHG  1  16  -1
M  END
>  <UniqueID>  (24) 
21

>  <SMILES>  (24) 
NS(=O)(=O)c1ccc2nnn(OCC(=O)[N-]Cc3ccccc3)c2c1

>  <Energy>  (24) 
84.06316638426215

>  <Genealogy>  (24) 
NS(=O)(=O)c1ccc2nnn(OCC(=O)[N-]Cc3ccccc3)c2c1 (protonated)
NS(=O)(=O)c1ccc2nnn(OCC(=O)[N-]Cc3ccccc3)c2c1 (3D coordinates assigned)
NS(=O)(=O)c1ccc2nnn(OCC(=O)[N-]Cc3ccccc3)c2c1 (optimized conformer: 84.06316638426215 kcal/mol)

>  <smiles>  (24) 
NS(=O)(=O)c1ccc2nnn(OCC(=O)NCc3ccccc3)c2c1

>  <score_type>  (24) 
oracle

>  <origin>  (24) 
adg

>  <m_score__min__energy>  (24) 
-10.66

>  <m_primary>  (24) 
energy

$$$$
24:0
     RDKit          3D

 58 62  0  0  0  0  0  0  0  0999 V2000
   55.4560   23.5770   48.1960 O   0  0  0  0  0  0  0  0  0  0  0  0
   56.6470   23.1730   48.2430 C   0  0  0  0  0  0  0  0  0  0  0  0
   57.5880   23.6890   47.3040 N   0  0  0  0  0  0  0  0  0  0  0  0
   57.5380   25.0090   46.7550 C   0  0  0  0  0  0  0  0  0  0  0  0
   58.6930   25.7960   46.7420 C   0  0  0  0  0  0  0  0  0  0  0  0
   58.6680   27.0770   46.1820 C   0  0  0  0  0  0  0  0  0  0  0  0
   57.4730   27.6080   45.6570 C   0  0  0  0  0  0  0  0  0  0  0  0
   57.4430   28.9710   45.0550 C   0  0  0  0  0  0  0  0  0  0  0  0
   56.9710   29.1670   43.7510 C   0  0  0  0  0  0  0  0  0  0  0  0
   56.9520   30.4510   43.2060 C   0  0  0  0  0  0  0  0  0  0  0  0
   57.3920   31.5090   43.9390 N   0  0  0  0  0  0  0  0  0  0  0  0
   57.8570   31.3690   45.2090 C   0  0  0  0  0  0  0  0  0  0  0  0
   58.3180   32.5300   45.9270 N   0  0  0  0  0  0  0  0  0  0  0  0
   58.7870   32.4890   47.3000 C   0  0  0  0  0  0  0  0  0  0  0  0
   59.4830   33.8270   47.6370 C   0  0  0  0  0  0  0  0  0  0  0  0
   58.9910   34.9430   46.7200 C   0  0  0  0  0  0  0  0  0  0  0  0
   58.3760   34.1220   45.2900 S   0  0  0  0  0  0  0  0  0  0  0  0
   57.0070   34.6200   44.9180 O   0  0  0  0  0  0  0  0  0  0  0  0
   59.3370   34.2200   44.1420 O   0  0  0  0  0  0  0  0  0  0  0  0
   57.8820   30.0890   45.7890 C   0  0  0  0  0  0  0  0  0  0  0  0
   56.3070   26.8240   45.7150 C   0  0  0  0  0  0  0  0  0  0  0  0
   56.3440   25.5370   46.2540 C   0  0  0  0  0  0  0  0  0  0  0  0
   57.0800   22.2900   49.2930 N   0  0  0  0  0  0  0  0  0  0  0  0
   56.2250   21.8370   50.3580 C   0  0  0  0  0  0  0  0  0  0  0  0
   54.9090   21.4150   50.1140 C   0  0  0  0  0  0  0  0  0  0  0  0
   54.0980   20.9830   51.1710 C   0  0  0  0  0  0  0  0  0  0  0  0
   54.5950   20.9570   52.4870 C   0  0  0  0  0  0  0  0  0  0  0  0
   53.7390   20.5020   53.6120 C   0  0  0  0  0  0  0  0  0  0  0  0
   52.5990   21.2410   53.9880 C   0  0  0  0  0  0  0  0  0  0  0  0
   51.8030   20.8200   55.0570 C   0  0  0  0  0  0  0  0  0  0  0  0
   52.1370   19.6640   55.7660 C   0  0  0  0  0  0  0  0  0  0  0  0
   53.2650   18.9220   55.4040 C   0  0  0  0  0  0  0  0  0  0  0  0
   54.0610   19.3350   54.3300 C   0  0  0  0  0  0  0  0  0  0  0  0
   55.9220   21.3600   52.7210 C   0  0  0  0  0  0  0  0  0  0  0  0
   56.7300   21.7860   51.6640 C   0  0  0  0  0  0  0  0  0  0  0  0
   59.6261   25.4058   47.1744 H   0  0  0  0  0  0  0  0  0  0  0  0
   59.5901   27.6760   46.1510 H   0  0  0  0  0  0  0  0  0  0  0  0
   56.6163   28.3109   43.1583 H   0  0  0  0  0  0  0  0  0  0  0  0
   56.5808   30.6080   42.1825 H   0  0  0  0  0  0  0  0  0  0  0  0
   57.9330   32.3374   47.9765 H   0  0  0  0  0  0  0  0  0  0  0  0
   59.4989   31.6596   47.4237 H   0  0  0  0  0  0  0  0  0  0  0  0
   59.2622   34.0949   48.6808 H   0  0  0  0  0  0  0  0  0  0  0  0
   60.5667   33.7055   47.4925 H   0  0  0  0  0  0  0  0  0  0  0  0
   58.1916   35.5199   47.2081 H   0  0  0  0  0  0  0  0  0  0  0  0
   59.7905   35.6573   46.4738 H   0  0  0  0  0  0  0  0  0  0  0  0
   58.2456   29.9606   46.8192 H   0  0  0  0  0  0  0  0  0  0  0  0
   55.3582   27.2282   45.3325 H   0  0  0  0  0  0  0  0  0  0  0  0
   55.4255   24.9325   46.2850 H   0  0  0  0  0  0  0  0  0  0  0  0
   58.1100   22.1740   49.4260 H   0  0  0  0  0  0  0  0  0  0  0  0
   54.5126   21.4236   49.0879 H   0  0  0  0  0  0  0  0  0  0  0  0
   53.0652   20.6618   50.9709 H   0  0  0  0  0  0  0  0  0  0  0  0
   52.3341   22.1551   53.4364 H   0  0  0  0  0  0  0  0  0  0  0  0
   50.9123   21.4000   55.3403 H   0  0  0  0  0  0  0  0  0  0  0  0
   51.5119   19.3371   56.6100 H   0  0  0  0  0  0  0  0  0  0  0  0
   53.5272   18.0123   55.9642 H   0  0  0  0  0  0  0  0  0  0  0  0
   54.9439   18.7440   54.0450 H   0  0  0  0  0  0  0  0  0  0  0  0
   56.3266   21.3396   53.7437 H   0  0  0  0  0  0  0  0  0  0  0  0
   57.7709   22.0837   51.8585 H   0  0  0  0  0  0  0  0  0  0  0  0
  1  2  2  0
  2  3  1  0
  3  4  1  0
  4  5  2  0
  5  6  1  0
  6  7  2  0
  7  8  1  0
  8  9  2  0
  9 10  1  0
 10 11  2  0
 11 12  1  0
 12 13  1  0
 13 14  1  0
 14 15  1  0
 15 16  1  0
 16 17  1  0
 17 18  2  0
 17 19  2  0
 12 20  2  0
  7 21  1  0
 21 22  2  0
  2 23  1  0
 23 24  1  0
 24 25  2  0
 25 26  1  0
 26 27  2  0
 27 28  1  0
 28 29  2  0
 29 30  1  0
 30 31  2  0
 31 32  1  0
 32 33  2  0
 27 34  1  0
 34 35  2  0
 22  4  1  0
 35 24  1  0
 20  8  1  0
 33 28  1  0
 17 13  1  0
  5 36  1  0
  6 37  1  0
  9 38  1  0
 10 39  1  0
 14 40  1  0
 14 41  1  0
 15 42  1  0
 15 43  1  0
 16 44  1  0
 16 45  1  0
 20 46  1  0
 21 47  1  0
 22 48  1  0
 23 49  1  0
 25 50  1  0
 26 51  1  0
 29 52  1  0
 30 53  1  0
 31 54  1  0
 32 55  1  0
 33 56  1  0
 34 57  1  0
 35 58  1  0
M  CHG  1   3  -1
M  END
>  <UniqueID>  (25) 
22

>  <SMILES>  (25) 
O=C([N-]c1ccc(-c2ccnc(N3CCCS3(=O)=O)c2)cc1)Nc1ccc(-c2ccccc2)cc1

>  <Energy>  (25) 
89.91457244414222

>  <Genealogy>  (25) 
O=C([N-]c1ccc(-c2ccnc(N3CCCS3(=O)=O)c2)cc1)Nc1ccc(-c2ccccc2)cc1 (protonated)
O=C([N-]c1ccc(-c2ccnc(N3CCCS3(=O)=O)c2)cc1)Nc1ccc(-c2ccccc2)cc1 (3D coordinates assigned)
O=C([N-]c1ccc(-c2ccnc(N3CCCS3(=O)=O)c2)cc1)Nc1ccc(-c2ccccc2)cc1 (nonaromatic ring conformer: 89.91457244414222 kcal/mol)

>  <smiles>  (25) 
O=C(Nc1ccc(-c2ccccc2)cc1)Nc1ccc(-c2ccnc(N3CCCS3(=O)=O)c2)cc1

>  <score_type>  (25) 
oracle

>  <origin>  (25) 
adg

>  <m_score__min__energy>  (25) 
-10.91

>  <m_primary>  (25) 
energy

$$$$
25:0
     RDKit          3D

 41 43  0  0  0  0  0  0  0  0999 V2000
   63.3240   34.2200   48.5030 C   0  0  0  0  0  0  0  0  0  0  0  0
   62.4460   33.1770   47.8790 C   0  0  0  0  0  0  0  0  0  0  0  0
   62.8160   31.8250   47.9220 C   0  0  0  0  0  0  0  0  0  0  0  0
   61.9810   30.8460   47.3750 C   0  0  0  0  0  0  0  0  0  0  0  0
   60.7540   31.2020   46.7860 C   0  0  0  0  0  0  0  0  0  0  0  0
   59.8650   30.1640   46.2040 C   0  0  0  0  0  0  0  0  0  0  0  0
   58.4670   30.2900   46.2890 C   0  0  0  0  0  0  0  0  0  0  0  0
   57.6320   29.3100   45.7470 C   0  0  0  0  0  0  0  0  0  0  0  0
   58.1750   28.1850   45.1060 C   0  0  0  0  0  0  0  0  0  0  0  0
   57.3120   27.1510   44.5850 N   0  0  0  0  0  0  0  0  0  0  0  0
   57.7130   25.8210   45.0750 C   0  0  0  0  0  0  0  0  0  0  0  0
   56.5290   24.8880   45.2060 C   0  0  0  0  0  0  0  0  0  0  0  0
   56.6620   23.5350   44.8480 C   0  0  0  0  0  0  0  0  0  0  0  0
   55.5650   22.6740   44.9220 C   0  0  0  0  0  0  0  0  0  0  0  0
   54.3250   23.1530   45.3500 C   0  0  0  0  0  0  0  0  0  0  0  0
   54.1790   24.4980   45.7020 C   0  0  0  0  0  0  0  0  0  0  0  0
   55.2730   25.3680   45.6290 C   0  0  0  0  0  0  0  0  0  0  0  0
   55.1040   26.7040   45.9750 O   0  0  0  0  0  0  0  0  0  0  0  0
   59.5730   28.0570   45.0210 C   0  0  0  0  0  0  0  0  0  0  0  0
   60.4090   29.0360   45.5630 C   0  0  0  0  0  0  0  0  0  0  0  0
   60.3800   32.5580   46.7610 C   0  0  0  0  0  0  0  0  0  0  0  0
   61.2160   33.5350   47.3090 C   0  0  0  0  0  0  0  0  0  0  0  0
   63.2608   34.1449   49.5986 H   0  0  0  0  0  0  0  0  0  0  0  0
   64.3648   34.0618   48.1841 H   0  0  0  0  0  0  0  0  0  0  0  0
   62.9906   35.2186   48.1841 H   0  0  0  0  0  0  0  0  0  0  0  0
   63.7684   31.5331   48.3886 H   0  0  0  0  0  0  0  0  0  0  0  0
   62.2857   29.7895   47.4054 H   0  0  0  0  0  0  0  0  0  0  0  0
   58.0275   31.1672   46.7862 H   0  0  0  0  0  0  0  0  0  0  0  0
   56.5402   29.4206   45.8230 H   0  0  0  0  0  0  0  0  0  0  0  0
   57.3120   27.1630   43.5390 H   0  0  0  0  0  0  0  0  0  0  0  0
   56.3300   27.3400   44.8950 H   0  0  0  0  0  0  0  0  0  0  0  0
   58.4338   25.3840   44.3683 H   0  0  0  0  0  0  0  0  0  0  0  0
   58.1611   25.9455   46.0718 H   0  0  0  0  0  0  0  0  0  0  0  0
   57.6356   23.1524   44.5077 H   0  0  0  0  0  0  0  0  0  0  0  0
   55.6779   21.6161   44.6425 H   0  0  0  0  0  0  0  0  0  0  0  0
   53.4632   22.4720   45.4101 H   0  0  0  0  0  0  0  0  0  0  0  0
   53.2011   24.8738   46.0374 H   0  0  0  0  0  0  0  0  0  0  0  0
   60.0114   27.1792   44.5239 H   0  0  0  0  0  0  0  0  0  0  0  0
   61.5007   28.9242   45.4881 H   0  0  0  0  0  0  0  0  0  0  0  0
   59.4222   32.8516   46.3067 H   0  0  0  0  0  0  0  0  0  0  0  0
   60.9072   34.5907   47.2930 H   0  0  0  0  0  0  0  0  0  0  0  0
  1  2  1  0
  2  3  2  0
  3  4  1  0
  4  5  2  0
  5  6  1  0
  6  7  2  0
  7  8  1  0
  8  9  2  0
  9 10  1  0
 10 11  1  0
 11 12  1  0
 12 13  2  0
 13 14  1  0
 14 15  2  0
 15 16  1  0
 16 17  2  0
 17 18  1  0
  9 19  1  0
 19 20  2  0
  5 21  1  0
 21 22  2  0
 22  2  1  0
 20  6  1  0
 17 12  1  0
  1 23  1  0
  1 24  1  0
  1 25  1  0
  3 26  1  0
  4 27  1  0
  7 28  1  0
  8 29  1  0
 10 30  1  0
 10 31  1  0
 11 32  1  0
 11 33  1  0
 13 34  1  0
 14 35  1  0
 15 36  1  0
 16 37  1  0
 19 38  1  0
 20 39  1  0
 21 40  1  0
 22 41  1  0
M  CHG  2  10   1  18  -1
M  END
>  <UniqueID>  (26) 
23

>  <SMILES>  (26) 
Cc1ccc(-c2ccc([NH2+]Cc3ccccc3[O-])cc2)cc1

>  <Energy>  (26) 
48.670379639144166

>  <Genealogy>  (26) 
Cc1ccc(-c2ccc([NH2+]Cc3ccccc3[O-])cc2)cc1 (protonated)
Cc1ccc(-c2ccc([NH2+]Cc3ccccc3[O-])cc2)cc1 (3D coordinates assigned)
Cc1ccc(-c2ccc([NH2+]Cc3ccccc3[O-])cc2)cc1 (optimized conformer: 48.670379639144166 kcal/mol)

>  <smiles>  (26) 
Cc1ccc(-c2ccc(NCc3ccccc3O)cc2)cc1

>  <score_type>  (26) 
oracle

>  <origin>  (26) 
adg

>  <m_score__min__energy>  (26) 
-9.2300000000000004

>  <m_primary>  (26) 
energy

$$$$
26:0
     RDKit          3D

 44 45  0  0  0  0  0  0  0  0999 V2000
   57.0690   34.2240   45.3040 C   0  0  0  0  0  0  0  0  0  0  0  0
   58.1650   33.5280   45.9970 N   0  0  0  0  0  0  0  0  0  0  0  0
   59.3510   34.3960   46.0550 C   0  0  0  0  0  0  0  0  0  0  0  0
   58.4850   32.2430   45.3340 C   0  0  0  0  0  0  0  0  0  0  0  0
   57.5530   32.0200   44.1410 C   0  0  0  0  0  0  0  0  0  0  0  0
   56.3850   31.2410   44.5430 N   0  0  0  0  0  0  0  0  0  0  0  0
   56.2280   29.8190   44.4310 C   0  0  0  0  0  0  0  0  0  0  0  0
   55.1610   29.3020   44.8600 O   0  0  0  0  0  0  0  0  0  0  0  0
   57.2360   28.9430   43.7280 C   0  0  0  0  0  0  0  0  0  0  0  0
   58.0850   28.1790   44.7110 C   0  0  0  0  0  0  0  0  0  0  0  0
   59.4320   28.5320   44.9060 C   0  0  0  0  0  0  0  0  0  0  0  0
   60.2230   27.8250   45.8140 C   0  0  0  0  0  0  0  0  0  0  0  0
   59.6780   26.7630   46.5400 C   0  0  0  0  0  0  0  0  0  0  0  0
   58.3410   26.3980   46.3520 C   0  0  0  0  0  0  0  0  0  0  0  0
   57.6370   25.0580   47.3140 S   0  0  0  0  0  0  0  0  0  0  0  0
   57.1180   24.1480   45.8610 C   0  0  0  0  0  0  0  0  0  0  0  0
   55.8360   24.3380   45.3310 C   0  0  0  0  0  0  0  0  0  0  0  0
   55.4350   23.6270   44.1950 C   0  0  0  0  0  0  0  0  0  0  0  0
   56.3150   22.7300   43.5800 C   0  0  0  0  0  0  0  0  0  0  0  0
   55.9020   22.0280   42.4490 O   0  0  0  0  0  0  0  0  0  0  0  0
   57.6020   22.5480   44.1050 C   0  0  0  0  0  0  0  0  0  0  0  0
   58.0020   23.2560   45.2430 C   0  0  0  0  0  0  0  0  0  0  0  0
   57.5470   27.0990   45.4340 C   0  0  0  0  0  0  0  0  0  0  0  0
   56.3837   34.6592   46.0463 H   0  0  0  0  0  0  0  0  0  0  0  0
   57.4835   35.0247   44.6739 H   0  0  0  0  0  0  0  0  0  0  0  0
   56.5206   33.5083   44.6739 H   0  0  0  0  0  0  0  0  0  0  0  0
   59.6137   34.5882   47.1057 H   0  0  0  0  0  0  0  0  0  0  0  0
   60.1936   33.8997   45.5513 H   0  0  0  0  0  0  0  0  0  0  0  0
   59.1327   35.3492   45.5513 H   0  0  0  0  0  0  0  0  0  0  0  0
   59.5271   32.2647   44.9824 H   0  0  0  0  0  0  0  0  0  0  0  0
   58.3499   31.4229   46.0545 H   0  0  0  0  0  0  0  0  0  0  0  0
   57.2220   32.9947   43.7531 H   0  0  0  0  0  0  0  0  0  0  0  0
   58.0984   31.4671   43.3620 H   0  0  0  0  0  0  0  0  0  0  0  0
   56.7014   28.2276   43.0858 H   0  0  0  0  0  0  0  0  0  0  0  0
   57.8965   29.5884   43.1303 H   0  0  0  0  0  0  0  0  0  0  0  0
   59.8652   29.3699   44.3400 H   0  0  0  0  0  0  0  0  0  0  0  0
   61.2771   28.1047   45.9579 H   0  0  0  0  0  0  0  0  0  0  0  0
   60.3013   26.2131   47.2605 H   0  0  0  0  0  0  0  0  0  0  0  0
   55.1436   25.0470   45.8084 H   0  0  0  0  0  0  0  0  0  0  0  0
   54.4252   23.7736   43.7842 H   0  0  0  0  0  0  0  0  0  0  0  0
   56.2620   22.2500   41.5280 H   0  0  0  0  0  0  0  0  0  0  0  0
   58.2984   21.8473   43.6212 H   0  0  0  0  0  0  0  0  0  0  0  0
   59.0126   23.1116   45.6528 H   0  0  0  0  0  0  0  0  0  0  0  0
   56.4990   26.8034   45.2783 H   0  0  0  0  0  0  0  0  0  0  0  0
  1  2  1  0
  2  3  1  0
  2  4  1  0
  4  5  1  0
  5  6  1  0
  6  7  1  0
  7  8  2  0
  7  9  1  0
  9 10  1  0
 10 11  2  0
 11 12  1  0
 12 13  2  0
 13 14  1  0
 14 15  1  0
 15 16  1  0
 16 17  2  0
 17 18  1  0
 18 19  2  0
 19 20  1  0
 19 21  1  0
 21 22  2  0
 14 23  2  0
 23 10  1  0
 22 16  1  0
  1 24  1  0
  1 25  1  0
  1 26  1  0
  3 27  1  0
  3 28  1  0
  3 29  1  0
  4 30  1  0
  4 31  1  0
  5 32  1  0
  5 33  1  0
  9 34  1  0
  9 35  1  0
 11 36  1  0
 12 37  1  0
 13 38  1  0
 17 39  1  0
 18 40  1  0
 20 41  1  0
 21 42  1  0
 22 43  1  0
 23 44  1  0
M  CHG  1   6  -1
M  END
>  <UniqueID>  (27) 
24

>  <SMILES>  (27) 
CN(C)CC[N-]C(=O)Cc1cccc(Sc2ccc(O)cc2)c1

>  <Energy>  (27) 
34.79373882759318

>  <Genealogy>  (27) 
CN(C)CC[N-]C(=O)Cc1cccc(Sc2ccc(O)cc2)c1 (protonated)
CN(C)CC[N-]C(=O)Cc1cccc(Sc2ccc(O)cc2)c1 (3D coordinates assigned)
CN(C)CC[N-]C(=O)Cc1cccc(Sc2ccc(O)cc2)c1 (optimized conformer: 34.79373882759318 kcal/mol)

>  <smiles>  (27) 
CN(C)CCNC(=O)Cc1cccc(Sc2ccc(O)cc2)c1

>  <score_type>  (27) 
oracle

>  <origin>  (27) 
adg

>  <m_score__min__energy>  (27) 
-9.8699999999999992

>  <m_primary>  (27) 
energy

$$$$
27:0
     RDKit          3D

 67 70  0  0  0  0  0  0  0  0999 V2000
   60.8250   26.0840   52.4590 C   0  0  0  0  0  0  0  0  0  0  0  0
   60.7610   27.4000   52.9990 O   0  0  0  0  0  0  0  0  0  0  0  0
   61.0040   28.5690   52.2640 C   0  0  0  0  0  0  0  0  0  0  0  0
   60.0800   29.6230   52.1990 C   0  0  0  0  0  0  0  0  0  0  0  0
   60.3630   30.7700   51.4530 C   0  0  0  0  0  0  0  0  0  0  0  0
   61.5820   30.9000   50.7430 C   0  0  0  0  0  0  0  0  0  0  0  0
   61.8730   32.0920   49.9450 N   0  0  0  0  0  0  0  0  0  0  0  0
   62.8330   31.9810   48.8220 C   0  0  0  0  0  0  0  0  0  0  0  0
   63.0690   33.2710   48.0110 C   0  0  0  0  0  0  0  0  0  0  0  0
   61.9410   34.2070   48.0310 N   0  0  0  0  0  0  0  0  0  0  0  0
   60.5840   33.6670   47.0640 S   0  0  0  0  0  0  0  0  0  0  0  0
   59.3440   34.4650   47.3670 O   0  0  0  0  0  0  0  0  0  0  0  0
   60.8990   33.8240   45.6010 O   0  0  0  0  0  0  0  0  0  0  0  0
   60.2870   31.9640   47.3990 C   0  0  0  0  0  0  0  0  0  0  0  0
   59.2690   31.5970   48.2870 C   0  0  0  0  0  0  0  0  0  0  0  0
   59.0140   30.2490   48.5480 C   0  0  0  0  0  0  0  0  0  0  0  0
   59.7680   29.2430   47.9160 C   0  0  0  0  0  0  0  0  0  0  0  0
   59.4900   27.8130   48.1860 C   0  0  0  0  0  0  0  0  0  0  0  0
   60.0250   27.2440   49.1780 O   0  0  0  0  0  0  0  0  0  0  0  0
   58.5760   27.0910   47.3490 N   0  0  0  0  0  0  0  0  0  0  0  0
   58.2530   27.3740   45.9800 C   0  0  0  0  0  0  0  0  0  0  0  0
   58.4790   26.4440   44.9490 C   0  0  0  0  0  0  0  0  0  0  0  0
   58.1920   26.7830   43.6230 C   0  0  0  0  0  0  0  0  0  0  0  0
   57.6980   28.0510   43.3120 C   0  0  0  0  0  0  0  0  0  0  0  0
   57.4890   28.9930   44.3270 C   0  0  0  0  0  0  0  0  0  0  0  0
   56.8900   30.6050   43.9320 S   0  0  0  0  0  0  0  0  0  0  0  0
   55.5290   30.7890   44.5490 O   0  0  0  0  0  0  0  0  0  0  0  0
   56.7400   30.7260   42.4410 O   0  0  0  0  0  0  0  0  0  0  0  0
   57.9680   31.8540   44.5040 N   0  0  0  0  0  0  0  0  0  0  0  0
   57.3210   32.6100   45.5860 C   0  0  0  0  0  0  0  0  0  0  0  0
   58.3180   32.7550   43.3980 C   0  0  0  0  0  0  0  0  0  0  0  0
   57.7720   28.6510   45.6570 C   0  0  0  0  0  0  0  0  0  0  0  0
   60.7840   29.6200   47.0180 C   0  0  0  0  0  0  0  0  0  0  0  0
   61.0410   30.9700   46.7630 C   0  0  0  0  0  0  0  0  0  0  0  0
   61.5770   34.5400   49.4080 C   0  0  0  0  0  0  0  0  0  0  0  0
   61.0980   33.3230   50.2000 C   0  0  0  0  0  0  0  0  0  0  0  0
   62.4980   29.8250   50.8220 C   0  0  0  0  0  0  0  0  0  0  0  0
   62.2090   28.6820   51.5710 C   0  0  0  0  0  0  0  0  0  0  0  0
   60.8606   25.3523   53.2796 H   0  0  0  0  0  0  0  0  0  0  0  0
   59.9348   25.8979   51.8401 H   0  0  0  0  0  0  0  0  0  0  0  0
   61.7290   25.9852   51.8401 H   0  0  0  0  0  0  0  0  0  0  0  0
   59.1252   29.5456   52.7397 H   0  0  0  0  0  0  0  0  0  0  0  0
   59.6265   31.5862   51.4163 H   0  0  0  0  0  0  0  0  0  0  0  0
   63.8006   31.6606   49.2356 H   0  0  0  0  0  0  0  0  0  0  0  0
   62.3875   31.2628   48.1180 H   0  0  0  0  0  0  0  0  0  0  0  0
   63.9498   33.7831   48.4256 H   0  0  0  0  0  0  0  0  0  0  0  0
   63.2082   32.9654   46.9635 H   0  0  0  0  0  0  0  0  0  0  0  0
   58.6673   32.3738   48.7814 H   0  0  0  0  0  0  0  0  0  0  0  0
   58.2171   29.9713   49.2535 H   0  0  0  0  0  0  0  0  0  0  0  0
   58.8822   25.4484   45.1863 H   0  0  0  0  0  0  0  0  0  0  0  0
   58.3562   26.0474   42.8218 H   0  0  0  0  0  0  0  0  0  0  0  0
   57.4724   28.3109   42.2672 H   0  0  0  0  0  0  0  0  0  0  0  0
   57.6560   32.2186   46.5579 H   0  0  0  0  0  0  0  0  0  0  0  0
   57.5938   33.6725   45.5049 H   0  0  0  0  0  0  0  0  0  0  0  0
   56.2291   32.5046   45.5049 H   0  0  0  0  0  0  0  0  0  0  0  0
   58.6881   33.7078   43.8044 H   0  0  0  0  0  0  0  0  0  0  0  0
   59.1012   32.2907   42.7807 H   0  0  0  0  0  0  0  0  0  0  0  0
   57.4268   32.9412   42.7807 H   0  0  0  0  0  0  0  0  0  0  0  0
   57.6152   29.3917   46.4549 H   0  0  0  0  0  0  0  0  0  0  0  0
   61.3805   28.8461   46.5128 H   0  0  0  0  0  0  0  0  0  0  0  0
   61.8385   31.2527   46.0601 H   0  0  0  0  0  0  0  0  0  0  0  0
   62.4576   34.9644   49.9124 H   0  0  0  0  0  0  0  0  0  0  0  0
   60.7462   35.2599   49.3683 H   0  0  0  0  0  0  0  0  0  0  0  0
   61.1686   33.5593   51.2720 H   0  0  0  0  0  0  0  0  0  0  0  0
   60.0667   33.1204   49.8755 H   0  0  0  0  0  0  0  0  0  0  0  0
   63.4552   29.8904   50.2839 H   0  0  0  0  0  0  0  0  0  0  0  0
   62.9403   27.8615   51.6148 H   0  0  0  0  0  0  0  0  0  0  0  0
  1  2  1  0
  2  3  1  0
  3  4  2  0
  4  5  1  0
  5  6  2  0
  6  7  1  0
  7  8  1  0
  8  9  1  0
  9 10  1  0
 10 11  1  0
 11 12  2  0
 11 13  2  0
 11 14  1  0
 14 15  2  0
 15 16  1  0
 16 17  2  0
 17 18  1  0
 18 19  2  0
 18 20  1  0
 20 21  1  0
 21 22  2  0
 22 23  1  0
 23 24  2  0
 24 25  1  0
 25 26  1  0
 26 27  2  0
 26 28  2  0
 26 29  1  0
 29 30  1  0
 29 31  1  0
 25 32  2  0
 17 33  1  0
 33 34  2  0
 10 35  1  0
 35 36  1  0
  6 37  1  0
 37 38  2  0
 38  3  1  0
 36  7  1  0
 34 14  1  0
 32 21  1  0
  1 39  1  0
  1 40  1  0
  1 41  1  0
  4 42  1  0
  5 43  1  0
  8 44  1  0
  8 45  1  0
  9 46  1  0
  9 47  1  0
 15 48  1  0
 16 49  1  0
 22 50  1  0
 23 51  1  0
 24 52  1  0
 30 53  1  0
 30 54  1  0
 30 55  1  0
 31 56  1  0
 31 57  1  0
 31 58  1  0
 32 59  1  0
 33 60  1  0
 34 61  1  0
 35 62  1  0
 35 63  1  0
 36 64  1  0
 36 65  1  0
 37 66  1  0
 38 67  1  0
M  CHG  1  20  -1
M  END
>  <UniqueID>  (28) 
25

>  <SMILES>  (28) 
COc1ccc(N2CCN(S(=O)(=O)c3ccc(C(=O)[N-]c4cccc(S(=O)(=O)N(C)C)c4)cc3)CC2)cc1

>  <Energy>  (28) 
82.61209675829105

>  <Genealogy>  (28) 
COc1ccc(N2CCN(S(=O)(=O)c3ccc(C(=O)[N-]c4cccc(S(=O)(=O)N(C)C)c4)cc3)CC2)cc1 (protonated)
COc1ccc(N2CCN(S(=O)(=O)c3ccc(C(=O)[N-]c4cccc(S(=O)(=O)N(C)C)c4)cc3)CC2)cc1 (3D coordinates assigned)
COc1ccc(N2CCN(S(=O)(=O)c3ccc(C(=O)[N-]c4cccc(S(=O)(=O)N(C)C)c4)cc3)CC2)cc1 (nonaromatic ring conformer: 82.61209675829105 kcal/mol)

>  <smiles>  (28) 
COc1ccc(N2CCN(S(=O)(=O)c3ccc(C(=O)Nc4cccc(S(=O)(=O)N(C)C)c4)cc3)CC2)cc1

>  <score_type>  (28) 
oracle

>  <origin>  (28) 
adg

>  <m_score__min__energy>  (28) 
-11.77

>  <m_primary>  (28) 
energy

$$$$
28:0
     RDKit          3D

 21 21  0  0  0  0  0  0  0  0999 V2000
   55.4860   30.2040   54.1730 O   0  0  0  0  0  0  0  0  0  0  0  0
   54.9090   30.0930   53.0610 C   0  0  0  0  0  0  0  0  0  0  0  0
   53.4810   29.9630   53.0230 N   0  0  0  0  0  0  0  0  0  0  0  0
   52.6440   30.8450   52.5510 C   0  0  0  0  0  0  0  0  0  0  0  0
   52.7270   31.3390   51.2330 C   0  0  0  0  0  0  0  0  0  0  0  0
   51.7900   32.2780   50.7900 C   0  0  0  0  0  0  0  0  0  0  0  0
   50.8040   32.7040   51.6230 N   0  0  0  0  0  0  0  0  0  0  0  0
   50.6960   32.2380   52.8940 C   0  0  0  0  0  0  0  0  0  0  0  0
   51.6100   31.2990   53.3790 C   0  0  0  0  0  0  0  0  0  0  0  0
   55.6870   30.1510   51.8590 N   0  0  0  0  0  0  0  0  0  0  0  0
   57.0430   30.6830   51.7710 C   0  0  0  0  0  0  0  0  0  0  0  0
   57.0530   32.1830   52.0460 C   0  0  0  0  0  0  0  0  0  0  0  0
   57.9210   32.4600   53.0850 F   0  0  0  0  0  0  0  0  0  0  0  0
   53.5223   30.9887   50.5586 H   0  0  0  0  0  0  0  0  0  0  0  0
   51.8511   32.6727   49.7651 H   0  0  0  0  0  0  0  0  0  0  0  0
   49.8862   32.6010   53.5439 H   0  0  0  0  0  0  0  0  0  0  0  0
   51.5177   30.9181   54.4068 H   0  0  0  0  0  0  0  0  0  0  0  0
   57.6785   30.1759   52.5119 H   0  0  0  0  0  0  0  0  0  0  0  0
   57.4263   30.5074   50.7550 H   0  0  0  0  0  0  0  0  0  0  0  0
   57.3812   32.7182   51.1428 H   0  0  0  0  0  0  0  0  0  0  0  0
   56.0393   32.5098   52.3210 H   0  0  0  0  0  0  0  0  0  0  0  0
  1  2  2  0
  2  3  1  0
  3  4  2  3
  4  5  1  0
  5  6  2  0
  6  7  1  0
  7  8  1  0
  8  9  2  0
  2 10  1  0
 10 11  1  0
 11 12  1  0
 12 13  1  0
  9  4  1  0
  5 14  1  0
  6 15  1  0
  8 16  1  0
  9 17  1  0
 11 18  1  0
 11 19  1  0
 12 20  1  0
 12 21  1  0
M  CHG  2   7  -1  10  -1
M  END
>  <UniqueID>  (29) 
26

>  <SMILES>  (29) 
O=C(N=c1cc[n-]cc1)[N-]CCF

>  <Energy>  (29) 
25.58529761013794

>  <Genealogy>  (29) 
O=C(N=c1cc[n-]cc1)[N-]CCF (protonated)
O=C(N=c1cc[n-]cc1)[N-]CCF (3D coordinates assigned)
O=C(N=c1cc[n-]cc1)[N-]CCF (optimized conformer: 25.58529761013794 kcal/mol)

>  <smiles>  (29) 
O=C(N=c1cc[nH]cc1)NCCF

>  <score_type>  (29) 
oracle

>  <origin>  (29) 
adg

>  <m_score__min__energy>  (29) 
-7.5899999999999999

>  <m_primary>  (29) 
energy

$$$$
29:0
     RDKit          3D

 21 21  0  0  0  0  0  0  0  0999 V2000
   56.6610   25.2200   46.5820 C   0  0  0  0  0  0  0  0  0  0  0  0
   55.9570   26.3790   46.0430 N   0  0  0  0  0  0  0  0  0  0  0  0
   54.6050   26.3370   45.9530 O   0  0  0  0  0  0  0  0  0  0  0  0
   56.6450   27.5800   45.6550 C   0  0  0  0  0  0  0  0  0  0  0  0
   57.8860   27.6690   45.8630 O   0  0  0  0  0  0  0  0  0  0  0  0
   55.9350   28.6850   45.0680 N   0  0  0  0  0  0  0  0  0  0  0  0
   56.5750   29.7660   44.3690 C   0  0  0  0  0  0  0  0  0  0  0  0
   56.3590   29.9820   42.9950 C   0  0  0  0  0  0  0  0  0  0  0  0
   56.9750   31.0570   42.3450 C   0  0  0  0  0  0  0  0  0  0  0  0
   57.7990   31.9300   43.0590 C   0  0  0  0  0  0  0  0  0  0  0  0
   58.0020   31.7350   44.4270 C   0  0  0  0  0  0  0  0  0  0  0  0
   57.3880   30.6630   45.0820 C   0  0  0  0  0  0  0  0  0  0  0  0
   56.6390   25.2562   47.6812 H   0  0  0  0  0  0  0  0  0  0  0  0
   56.1697   24.2988   46.2356 H   0  0  0  0  0  0  0  0  0  0  0  0
   57.7050   25.2313   46.2356 H   0  0  0  0  0  0  0  0  0  0  0  0
   54.9070   28.7630   45.2380 H   0  0  0  0  0  0  0  0  0  0  0  0
   55.7034   29.3030   42.4301 H   0  0  0  0  0  0  0  0  0  0  0  0
   56.8099   31.2150   41.2690 H   0  0  0  0  0  0  0  0  0  0  0  0
   58.2877   32.7704   42.5443 H   0  0  0  0  0  0  0  0  0  0  0  0
   58.6462   32.4261   44.9903 H   0  0  0  0  0  0  0  0  0  0  0  0
   57.5424   30.5211   46.1618 H   0  0  0  0  0  0  0  0  0  0  0  0
  1  2  1  0
  2  3  1  0
  2  4  1  0
  4  5  2  0
  4  6  1  0
  6  7  1  0
  7  8  2  0
  8  9  1  0
  9 10  2  0
 10 11  1  0
 11 12  2  0
 12  7  1  0
  1 13  1  0
  1 14  1  0
  1 15  1  0
  6 16  1  0
  8 17  1  0
  9 18  1  0
 10 19  1  0
 11 20  1  0
 12 21  1  0
M  CHG  1   3  -1
M  END
>  <UniqueID>  (30) 
27

>  <SMILES>  (30) 
CN([O-])C(=O)Nc1ccccc1

>  <Energy>  (30) 
20.58239960783536

>  <Genealogy>  (30) 
CN([O-])C(=O)Nc1ccccc1 (protonated)
CN([O-])C(=O)Nc1ccccc1 (3D coordinates assigned)
CN([O-])C(=O)Nc1ccccc1 (optimized conformer: 20.58239960783536 kcal/mol)

>  <smiles>  (30) 
CN(O)C(=O)Nc1ccccc1

>  <score_type>  (30) 
oracle

>  <origin>  (30) 
adg

>  <m_score__min__energy>  (30) 
-8.9900000000000002

>  <m_primary>  (30) 
energy

$$$$
30:0
     RDKit          3D

 34 35  0  0  0  0  0  0  0  0999 V2000
   54.6500   29.5740   43.4230 O   0  0  0  0  0  0  0  0  0  0  0  0
   55.6350   29.6570   44.2050 C   0  0  0  0  0  0  0  0  0  0  0  0
   56.6270   30.7640   44.0320 C   0  0  0  0  0  0  0  0  0  0  0  0
   57.0300   31.3210   45.3260 N   0  0  0  0  0  0  0  0  0  0  0  0
   57.7550   32.8930   45.1470 S   0  0  0  0  0  0  0  0  0  0  0  0
   58.3520   33.0230   43.7730 O   0  0  0  0  0  0  0  0  0  0  0  0
   56.6890   33.9410   45.2980 O   0  0  0  0  0  0  0  0  0  0  0  0
   58.9950   33.1650   46.3700 C   0  0  0  0  0  0  0  0  0  0  0  0
   59.9030   32.1430   46.6820 C   0  0  0  0  0  0  0  0  0  0  0  0
   60.9020   32.3570   47.6380 C   0  0  0  0  0  0  0  0  0  0  0  0
   60.9990   33.5940   48.2830 C   0  0  0  0  0  0  0  0  0  0  0  0
   60.1000   34.6180   47.9710 C   0  0  0  0  0  0  0  0  0  0  0  0
   59.1000   34.4060   47.0160 C   0  0  0  0  0  0  0  0  0  0  0  0
   55.8560   28.6600   45.2120 N   0  0  0  0  0  0  0  0  0  0  0  0
   57.1060   28.0220   45.5200 C   0  0  0  0  0  0  0  0  0  0  0  0
   58.3250   28.6620   45.2260 C   0  0  0  0  0  0  0  0  0  0  0  0
   59.5420   28.0350   45.4950 C   0  0  0  0  0  0  0  0  0  0  0  0
   59.5600   26.7550   46.0440 C   0  0  0  0  0  0  0  0  0  0  0  0
   58.3630   26.0950   46.3190 C   0  0  0  0  0  0  0  0  0  0  0  0
   57.1220   26.7080   46.0580 C   0  0  0  0  0  0  0  0  0  0  0  0
   55.8750   25.9570   46.3680 C   0  0  0  0  0  0  0  0  0  0  0  0
   54.7570   26.3390   45.9350 O   0  0  0  0  0  0  0  0  0  0  0  0
   55.9260   24.8110   47.1540 O   0  0  0  0  0  0  0  0  0  0  0  0
   57.5166   30.3716   43.5175 H   0  0  0  0  0  0  0  0  0  0  0  0
   56.1575   31.5632   43.4396 H   0  0  0  0  0  0  0  0  0  0  0  0
   59.8297   31.1702   46.1737 H   0  0  0  0  0  0  0  0  0  0  0  0
   61.6110   31.5523   47.8822 H   0  0  0  0  0  0  0  0  0  0  0  0
   61.7830   33.7613   49.0362 H   0  0  0  0  0  0  0  0  0  0  0  0
   60.1790   35.5915   48.4770 H   0  0  0  0  0  0  0  0  0  0  0  0
   58.3947   35.2138   46.7711 H   0  0  0  0  0  0  0  0  0  0  0  0
   58.3179   29.6672   44.7794 H   0  0  0  0  0  0  0  0  0  0  0  0
   60.4875   28.5516   45.2735 H   0  0  0  0  0  0  0  0  0  0  0  0
   60.5201   26.2640   46.2610 H   0  0  0  0  0  0  0  0  0  0  0  0
   58.3882   25.0815   46.7457 H   0  0  0  0  0  0  0  0  0  0  0  0
  1  2  2  0
  2  3  1  0
  3  4  1  0
  4  5  1  0
  5  6  2  0
  5  7  2  0
  5  8  1  0
  8  9  2  0
  9 10  1  0
 10 11  2  0
 11 12  1  0
 12 13  2  0
  2 14  1  0
 14 15  1  0
 15 16  2  0
 16 17  1  0
 17 18  2  0
 18 19  1  0
 19 20  2  0
 20 21  1  0
 21 22  2  0
 21 23  1  0
 13  8  1  0
 20 15  1  0
  3 24  1  0
  3 25  1  0
  9 26  1  0
 10 27  1  0
 11 28  1  0
 12 29  1  0
 13 30  1  0
 16 31  1  0
 17 32  1  0
 18 33  1  0
 19 34  1  0
M  CHG  3   4  -1  14  -1  23  -1
M  END
>  <UniqueID>  (31) 
28

>  <SMILES>  (31) 
O=C(C[N-]S(=O)(=O)c1ccccc1)[N-]c1ccccc1C(=O)[O-]

>  <Energy>  (31) 
39.17245769665974

>  <Genealogy>  (31) 
O=C(C[N-]S(=O)(=O)c1ccccc1)[N-]c1ccccc1C(=O)[O-] (protonated)
O=C(C[N-]S(=O)(=O)c1ccccc1)[N-]c1ccccc1C(=O)[O-] (3D coordinates assigned)
O=C(C[N-]S(=O)(=O)c1ccccc1)[N-]c1ccccc1C(=O)[O-] (optimized conformer: 39.17245769665974 kcal/mol)

>  <smiles>  (31) 
O=C(CNS(=O)(=O)c1ccccc1)Nc1ccccc1C(=O)O

>  <score_type>  (31) 
oracle

>  <origin>  (31) 
adg

>  <m_score__min__energy>  (31) 
-14.970000000000001

>  <m_primary>  (31) 
energy

$$$$
31:0
     RDKit          3D

 35 36  0  0  0  0  0  0  0  0999 V2000
   56.6480   30.1710   42.3640 N   0  0  0  0  0  0  0  0  0  0  0  0
   57.0200   31.5050   41.8940 C   0  0  0  0  0  0  0  0  0  0  0  0
   58.1730   32.1150   42.7140 C   0  0  0  0  0  0  0  0  0  0  0  0
   57.7120   32.7910   44.0300 C   0  0  2  0  0  0  0  0  0  0  0  0
   58.7700   33.6050   44.5140 O   0  0  0  0  0  0  0  0  0  0  0  0
   58.4060   34.2070   45.7430 C   0  0  0  0  0  0  0  0  0  0  0  0
   58.3140   33.1680   46.8820 C   0  0  0  0  0  0  0  0  0  0  0  0
   58.0760   31.7270   46.3770 C   0  0  2  0  0  0  0  0  0  0  0  0
   59.6640   30.8460   46.1200 S   0  0  0  0  0  0  0  0  0  0  0  0
   58.9190   29.2650   45.7040 C   0  0  0  0  0  0  0  0  0  0  0  0
   59.0600   28.7360   44.4150 C   0  0  0  0  0  0  0  0  0  0  0  0
   58.4720   27.5090   44.0930 C   0  0  0  0  0  0  0  0  0  0  0  0
   57.7340   26.8120   45.0560 C   0  0  0  0  0  0  0  0  0  0  0  0
   57.5810   27.3450   46.3390 C   0  0  0  0  0  0  0  0  0  0  0  0
   58.1690   28.5720   46.6640 C   0  0  0  0  0  0  0  0  0  0  0  0
   57.3370   31.7510   45.0700 C   0  0  0  0  0  0  0  0  0  0  0  0
   56.4500   30.9390   44.8530 O   0  0  0  0  0  0  0  0  0  0  0  0
   55.8460   29.7980   41.8050 H   0  0  0  0  0  0  0  0  0  0  0  0
   56.3580   30.2330   43.3660 H   0  0  0  0  0  0  0  0  0  0  0  0
   57.4660   29.5230   42.2980 H   0  0  0  0  0  0  0  0  0  0  0  0
   57.3332   31.4345   40.8419 H   0  0  0  0  0  0  0  0  0  0  0  0
   56.1429   32.1587   42.0099 H   0  0  0  0  0  0  0  0  0  0  0  0
   58.8824   31.3129   42.9656 H   0  0  0  0  0  0  0  0  0  0  0  0
   58.6295   32.8994   42.0925 H   0  0  0  0  0  0  0  0  0  0  0  0
   56.8210   33.4049   43.8320 H   0  0  0  0  0  0  0  0  0  0  0  0
   59.1616   34.9611   46.0083 H   0  0  0  0  0  0  0  0  0  0  0  0
   57.4154   34.6688   45.6189 H   0  0  0  0  0  0  0  0  0  0  0  0
   59.2560   33.1879   47.4497 H   0  0  0  0  0  0  0  0  0  0  0  0
   57.4493   33.4422   47.5041 H   0  0  0  0  0  0  0  0  0  0  0  0
   57.4851   31.2028   47.1426 H   0  0  0  0  0  0  0  0  0  0  0  0
   59.6340   29.2864   43.6550 H   0  0  0  0  0  0  0  0  0  0  0  0
   58.5896   27.0914   43.0822 H   0  0  0  0  0  0  0  0  0  0  0  0
   57.2744   25.8450   44.8035 H   0  0  0  0  0  0  0  0  0  0  0  0
   56.9972   26.7987   47.0945 H   0  0  0  0  0  0  0  0  0  0  0  0
   58.0428   28.9927   47.6725 H   0  0  0  0  0  0  0  0  0  0  0  0
  1  2  1  0
  2  3  1  0
  3  4  1  0
  4  5  1  0
  5  6  1  0
  6  7  1  0
  7  8  1  0
  8  9  1  0
  9 10  1  0
 10 11  2  0
 11 12  1  0
 12 13  2  0
 13 14  1  0
 14 15  2  0
  8 16  1  0
 16 17  2  0
 16  4  1  0
 15 10  1  0
  1 18  1  0
  1 19  1  0
  1 20  1  0
  2 21  1  0
  2 22  1  0
  3 23  1  0
  3 24  1  0
  4 25  1  6
  6 26  1  0
  6 27  1  0
  7 28  1  0
  7 29  1  0
  8 30  1  1
 11 31  1  0
 12 32  1  0
 13 33  1  0
 14 34  1  0
 15 35  1  0
M  CHG  1   1   1
M  END
>  <UniqueID>  (32) 
29

>  <SMILES>  (32) 
[NH3+]CC[C@@H]1OCC[C@H](Sc2ccccc2)C1=O

>  <Energy>  (32) 
36.38889290077738

>  <Genealogy>  (32) 
[NH3+]CCC1OCCC(Sc2ccccc2)C1=O (protonated)
[NH3+]CC[C@@H]1OCC[C@H](Sc2ccccc2)C1=O (chirality)
[NH3+]CC[C@@H]1OCC[C@H](Sc2ccccc2)C1=O (3D coordinates assigned)
[NH3+]CC[C@@H]1OCC[C@H](Sc2ccccc2)C1=O (nonaromatic ring conformer: 36.38889290077738 kcal/mol)

>  <smiles>  (32) 
NCCC1OCCC(Sc2ccccc2)C1=O

>  <score_type>  (32) 
oracle

>  <origin>  (32) 
adg

>  <m_score__min__energy>  (32) 
-4.7300000000000004

>  <m_primary>  (32) 
energy

$$$$
32:0
     RDKit          3D

 29 31  0  0  0  0  0  0  0  0999 V2000
   55.4820   29.9900   44.5340 O   0  0  0  0  0  0  0  0  0  0  0  0
   56.6020   30.1280   43.9740 C   0  0  0  0  0  0  0  0  0  0  0  0
   57.0120   29.1290   42.9890 C   0  0  0  0  0  0  0  0  0  0  0  0
   57.9570   27.7840   43.7430 S   0  0  0  0  0  0  0  0  0  0  0  0
   59.0740   28.4150   44.9900 C   0  0  0  0  0  0  0  0  0  0  0  0
   58.8420   28.3490   46.3120 N   0  0  0  0  0  0  0  0  0  0  0  0
   59.8950   28.9310   46.9130 C   0  0  0  0  0  0  0  0  0  0  0  0
   60.7650   29.3520   45.9940 N   0  0  0  0  0  0  0  0  0  0  0  0
   60.2680   29.0370   44.8120 N   0  0  0  0  0  0  0  0  0  0  0  0
   57.3970   31.2850   44.3630 C   0  0  0  0  0  0  0  0  0  0  0  0
   57.8170   31.4990   45.6590 C   0  0  0  0  0  0  0  0  0  0  0  0
   58.5580   32.6340   45.9670 C   0  0  0  0  0  0  0  0  0  0  0  0
   58.9390   32.7760   47.2860 C   0  0  0  0  0  0  0  0  0  0  0  0
   59.6830   33.9280   47.5690 C   0  0  0  0  0  0  0  0  0  0  0  0
   60.2610   34.2250   49.3790 Br  0  0  0  0  0  0  0  0  0  0  0  0
   60.0050   34.8420   46.5950 C   0  0  0  0  0  0  0  0  0  0  0  0
   59.6090   34.6740   45.2720 C   0  0  0  0  0  0  0  0  0  0  0  0
   58.8690   33.5360   44.9790 C   0  0  0  0  0  0  0  0  0  0  0  0
   58.4600   33.3120   43.7570 O   0  0  0  0  0  0  0  0  0  0  0  0
   57.7530   32.2410   43.4340 C   0  0  0  0  0  0  0  0  0  0  0  0
   57.4180   32.1440   42.2130 O   0  0  0  0  0  0  0  0  0  0  0  0
   56.1133   28.7089   42.5137 H   0  0  0  0  0  0  0  0  0  0  0  0
   57.6575   29.6254   42.2494 H   0  0  0  0  0  0  0  0  0  0  0  0
   60.0200   29.0430   48.0001 H   0  0  0  0  0  0  0  0  0  0  0  0
   61.6690   29.8420   46.2350 H   0  0  0  0  0  0  0  0  0  0  0  0
   57.5663   30.7735   46.4469 H   0  0  0  0  0  0  0  0  0  0  0  0
   58.6773   32.0380   48.0586 H   0  0  0  0  0  0  0  0  0  0  0  0
   60.5921   35.7310   46.8688 H   0  0  0  0  0  0  0  0  0  0  0  0
   59.8696   35.4077   44.4950 H   0  0  0  0  0  0  0  0  0  0  0  0
  1  2  2  0
  2  3  1  0
  3  4  1  0
  4  5  1  0
  5  6  1  0
  6  7  2  0
  7  8  1  0
  8  9  1  0
  2 10  1  0
 10 11  2  0
 11 12  1  0
 12 13  2  0
 13 14  1  0
 14 15  1  0
 14 16  2  0
 16 17  1  0
 17 18  2  0
 18 19  1  0
 19 20  1  0
 20 21  2  0
  9  5  2  0
 20 10  1  0
 18 12  1  0
  3 22  1  0
  3 23  1  0
  7 24  1  0
  8 25  1  0
 11 26  1  0
 13 27  1  0
 16 28  1  0
 17 29  1  0
M  END
>  <smiles>  (33) 
O=C(CSc1nc[nH]n1)c1cc2cc(Br)ccc2oc1=O

>  <score_type>  (33) 
oracle

>  <origin>  (33) 
adg

>  <m_score__min__energy>  (33) 
-8.4700000000000006

>  <m_primary>  (33) 
energy

$$$$
33:0
     RDKit          3D

 43 45  0  0  0  0  0  0  0  0999 V2000
   64.2169   34.8992   48.1917 H   0  0  0  0  0  0  0  0  0  0  0  0
   63.5270   34.0450   48.1250 C   0  0  0  0  0  0  0  0  0  0  0  0
   62.3800   34.0110   48.9190 C   0  0  0  0  0  0  0  0  0  0  0  0
   62.1690   34.8374   49.6136 H   0  0  0  0  0  0  0  0  0  0  0  0
   61.4980   32.9290   48.8340 C   0  0  0  0  0  0  0  0  0  0  0  0
   60.5980   32.9064   49.4661 H   0  0  0  0  0  0  0  0  0  0  0  0
   61.7550   31.8680   47.9440 C   0  0  0  0  0  0  0  0  0  0  0  0
   60.8320   30.7110   47.8490 C   0  0  0  0  0  0  0  0  0  0  0  0
   60.3810   30.1870   48.9040 O   0  0  0  0  0  0  0  0  0  0  0  0
   60.4840   30.1490   46.5720 N   0  0  0  0  0  0  0  0  0  0  0  0
   61.1750   30.2390   45.7920 H   0  0  0  0  0  0  0  0  0  0  0  0
   59.3180   29.3380   46.3450 C   0  0  0  0  0  0  0  0  0  0  0  0
   58.3250   29.7910   45.4640 C   0  0  0  0  0  0  0  0  0  0  0  0
   58.4546   30.7504   44.9418 H   0  0  0  0  0  0  0  0  0  0  0  0
   57.1720   29.0320   45.2450 C   0  0  0  0  0  0  0  0  0  0  0  0
   56.4138   29.3847   44.5303 H   0  0  0  0  0  0  0  0  0  0  0  0
   56.9750   27.8270   45.9280 C   0  0  0  0  0  0  0  0  0  0  0  0
   55.7880   27.0620   45.6500 N   0  0  0  0  0  0  0  0  0  0  0  0
   55.5530   25.8290   45.9950 C   0  0  0  0  0  0  0  0  0  0  0  0
   54.3780   25.2540   45.6320 N   0  0  0  0  0  0  0  0  0  0  0  0
   54.0600   23.9760   45.9820 C   0  0  0  0  0  0  0  0  0  0  0  0
   52.7930   23.4140   45.5610 N   0  0  0  0  0  0  0  0  0  0  0  0
   52.2320   22.2250   46.2150 C   0  0  0  0  0  0  0  0  0  0  0  0
   52.2890   22.3458   47.3069 H   0  0  0  0  0  0  0  0  0  0  0  0
   51.1811   22.1025   45.9140 H   0  0  0  0  0  0  0  0  0  0  0  0
   52.8056   21.3360   45.9140 H   0  0  0  0  0  0  0  0  0  0  0  0
   52.0630   24.0530   44.4600 C   0  0  0  0  0  0  0  0  0  0  0  0
   51.2951   24.7252   44.8705 H   0  0  0  0  0  0  0  0  0  0  0  0
   52.7649   24.6322   43.8421 H   0  0  0  0  0  0  0  0  0  0  0  0
   51.5818   23.2806   43.8421 H   0  0  0  0  0  0  0  0  0  0  0  0
   54.9810   23.2390   46.7490 C   0  0  0  0  0  0  0  0  0  0  0  0
   54.7605   22.2034   47.0471 H   0  0  0  0  0  0  0  0  0  0  0  0
   56.1790   23.8470   47.1240 C   0  0  0  0  0  0  0  0  0  0  0  0
   57.0210   23.2140   47.8140 O   0  0  0  0  0  0  0  0  0  0  0  0
   56.4400   25.1230   46.7470 N   0  0  0  0  0  0  0  0  0  0  0  0
   57.9730   27.3630   46.8040 C   0  0  0  0  0  0  0  0  0  0  0  0
   57.8448   26.3998   47.3195 H   0  0  0  0  0  0  0  0  0  0  0  0
   59.1270   28.1210   47.0220 C   0  0  0  0  0  0  0  0  0  0  0  0
   59.8907   27.7628   47.7280 H   0  0  0  0  0  0  0  0  0  0  0  0
   62.9210   31.9100   47.1560 C   0  0  0  0  0  0  0  0  0  0  0  0
   63.1430   31.0837   46.4647 H   0  0  0  0  0  0  0  0  0  0  0  0
   63.7990   32.9950   47.2460 C   0  0  0  0  0  0  0  0  0  0  0  0
   64.7053   33.0211   46.6232 H   0  0  0  0  0  0  0  0  0  0  0  0
  1  2  1  0
  2  3  2  0
  3  4  1  0
  3  5  1  0
  5  6  1  0
  5  7  2  0
  7  8  1  0
  8  9  2  0
  8 10  1  0
 10 11  1  0
 10 12  1  0
 12 13  2  0
 13 14  1  0
 13 15  1  0
 15 16  1  0
 15 17  2  0
 17 18  1  0
 18 19  2  0
 19 20  1  0
 20 21  1  0
 21 22  1  0
 22 23  1  0
 23 24  1  0
 23 25  1  0
 23 26  1  0
 22 27  1  0
 27 28  1  0
 27 29  1  0
 27 30  1  0
 21 31  2  0
 31 32  1  0
 31 33  1  0
 33 34  2  0
 33 35  1  0
 17 36  1  0
 36 37  1  0
 36 38  2  0
 38 39  1  0
  7 40  1  0
 40 41  1  0
 40 42  2  0
 42 43  1  0
 42  2  1  0
 38 12  1  0
 35 19  1  0
M  CHG  2  20  -1  35  -1
M  END
>  <UniqueID>  (34) 
30

>  <SMILES>  (34) 
CN(C)c1cc(=O)[n-]/c(=N\c2ccc(NC(=O)c3ccccc3)cc2)[n-]1

>  <Energy>  (34) 
57.617447572598046

>  <Genealogy>  (34) 
CN(C)c1cc(=O)[n-]c(=Nc2ccc(NC(=O)c3ccccc3)cc2)[n-]1 (protonated)
CN(C)c1cc(=O)[n-]/c(=N\c2ccc(NC(=O)c3ccccc3)cc2)[n-]1 (cis-trans isomerization)
CN(C)c1cc(=O)[n-]/c(=N\c2ccc(NC(=O)c3ccccc3)cc2)[n-]1 (3D coordinates assigned)
CN(C)c1cc(=O)[n-]/c(=N\c2ccc(NC(=O)c3ccccc3)cc2)[n-]1 (optimized conformer: 57.617447572598046 kcal/mol)

>  <smiles>  (34) 
CN(C)c1cc(=O)[nH]c(=Nc2ccc(NC(=O)c3ccccc3)cc2)[nH]1

>  <score_type>  (34) 
oracle

>  <origin>  (34) 
adg

>  <m_score__min__energy>  (34) 
-11

>  <m_primary>  (34) 
energy

$$$$
34:0
     RDKit          3D

 53 56  0  0  0  0  0  0  0  0999 V2000
   59.7140   34.8730   48.8450 O   0  0  0  0  0  0  0  0  0  0  0  0
   60.2220   34.2500   47.8730 C   0  0  0  0  0  0  0  0  0  0  0  0
   61.7220   34.2110   47.7690 C   0  0  0  0  0  0  0  0  0  0  0  0
   62.3350   32.6090   47.1310 S   0  0  0  0  0  0  0  0  0  0  0  0
   63.2440   32.1640   48.6130 C   0  0  0  0  0  0  0  0  0  0  0  0
   64.3720   32.7970   48.9930 N   0  0  0  0  0  0  0  0  0  0  0  0
   64.6860   32.2280   50.1740 C   0  0  0  0  0  0  0  0  0  0  0  0
   63.7430   31.2800   50.4970 C   0  0  0  0  0  0  0  0  0  0  0  0
   62.8430   31.2240   49.4970 N   0  0  0  0  0  0  0  0  0  0  0  0
   61.5690   30.4980   49.4910 C   0  0  0  0  0  0  0  0  0  0  0  0
   60.4790   31.2840   50.1690 C   0  0  0  0  0  0  0  0  0  0  0  0
   59.1510   30.8260   50.1510 C   0  0  0  0  0  0  0  0  0  0  0  0
   58.1470   31.5540   50.7970 C   0  0  0  0  0  0  0  0  0  0  0  0
   58.4590   32.7450   51.4580 C   0  0  0  0  0  0  0  0  0  0  0  0
   57.4860   33.4540   52.0800 F   0  0  0  0  0  0  0  0  0  0  0  0
   59.7770   33.2130   51.4690 C   0  0  0  0  0  0  0  0  0  0  0  0
   60.7830   32.4860   50.8260 C   0  0  0  0  0  0  0  0  0  0  0  0
   59.3280   33.5970   46.8770 C   0  0  0  0  0  0  0  0  0  0  0  0
   58.5630   32.4620   47.2050 C   0  0  0  0  0  0  0  0  0  0  0  0
   57.7940   31.8190   46.2330 C   0  0  0  0  0  0  0  0  0  0  0  0
   57.7620   32.3010   44.9140 C   0  0  0  0  0  0  0  0  0  0  0  0
   57.0250   31.6190   43.8870 N   0  0  0  0  0  0  0  0  0  0  0  0
   56.6210   29.9360   44.0090 S   0  0  0  0  0  0  0  0  0  0  0  0
   55.3560   29.7870   44.8120 O   0  0  0  0  0  0  0  0  0  0  0  0
   56.3980   29.3710   42.6350 O   0  0  0  0  0  0  0  0  0  0  0  0
   57.9550   29.0720   44.7680 C   0  0  0  0  0  0  0  0  0  0  0  0
   59.2900   29.4080   44.4820 C   0  0  0  0  0  0  0  0  0  0  0  0
   60.3400   28.6880   45.0700 C   0  0  0  0  0  0  0  0  0  0  0  0
   60.0600   27.6300   45.9410 C   0  0  0  0  0  0  0  0  0  0  0  0
   58.7310   27.3000   46.2360 C   0  0  0  0  0  0  0  0  0  0  0  0
   57.6820   28.0140   45.6490 C   0  0  0  0  0  0  0  0  0  0  0  0
   58.4770   33.4630   44.5970 C   0  0  0  0  0  0  0  0  0  0  0  0
   59.2540   34.1030   45.5650 C   0  0  0  0  0  0  0  0  0  0  0  0
   62.0500   35.0110   47.0890 H   0  0  0  0  0  0  0  0  0  0  0  0
   62.1322   34.3486   48.7803 H   0  0  0  0  0  0  0  0  0  0  0  0
   65.5633   32.4831   50.7866 H   0  0  0  0  0  0  0  0  0  0  0  0
   63.7269   30.6725   51.4139 H   0  0  0  0  0  0  0  0  0  0  0  0
   61.2738   30.3040   48.4493 H   0  0  0  0  0  0  0  0  0  0  0  0
   61.7075   29.5564   50.0425 H   0  0  0  0  0  0  0  0  0  0  0  0
   58.9002   29.8918   49.6271 H   0  0  0  0  0  0  0  0  0  0  0  0
   57.1096   31.1885   50.7848 H   0  0  0  0  0  0  0  0  0  0  0  0
   60.0220   34.1536   51.9839 H   0  0  0  0  0  0  0  0  0  0  0  0
   61.8181   32.8581   50.8351 H   0  0  0  0  0  0  0  0  0  0  0  0
   58.5710   32.0783   48.2359 H   0  0  0  0  0  0  0  0  0  0  0  0
   57.2084   30.9276   46.5024 H   0  0  0  0  0  0  0  0  0  0  0  0
   56.9420   32.0610   42.9430 H   0  0  0  0  0  0  0  0  0  0  0  0
   59.5115   30.2381   43.7950 H   0  0  0  0  0  0  0  0  0  0  0  0
   61.3834   28.9552   44.8463 H   0  0  0  0  0  0  0  0  0  0  0  0
   60.8828   27.0575   46.3940 H   0  0  0  0  0  0  0  0  0  0  0  0
   58.5120   26.4765   46.9317 H   0  0  0  0  0  0  0  0  0  0  0  0
   56.6401   27.7459   45.8782 H   0  0  0  0  0  0  0  0  0  0  0  0
   58.4261   33.8745   43.5781 H   0  0  0  0  0  0  0  0  0  0  0  0
   59.8140   35.0119   45.2998 H   0  0  0  0  0  0  0  0  0  0  0  0
  1  2  2  0
  2  3  1  0
  3  4  1  0
  4  5  1  0
  5  6  2  0
  6  7  1  0
  7  8  2  0
  8  9  1  0
  9 10  1  0
 10 11  1  0
 11 12  2  0
 12 13  1  0
 13 14  2  0
 14 15  1  0
 14 16  1  0
 16 17  2  0
  2 18  1  0
 18 19  2  0
 19 20  1  0
 20 21  2  0
 21 22  1  0
 22 23  1  0
 23 24  2  0
 23 25  2  0
 23 26  1  0
 26 27  2  0
 27 28  1  0
 28 29  2  0
 29 30  1  0
 30 31  2  0
 21 32  1  0
 32 33  2  0
  9  5  1  0
 17 11  1  0
 33 18  1  0
 31 26  1  0
  3 34  1  0
  3 35  1  0
  7 36  1  0
  8 37  1  0
 10 38  1  0
 10 39  1  0
 12 40  1  0
 13 41  1  0
 16 42  1  0
 17 43  1  0
 19 44  1  0
 20 45  1  0
 22 46  1  0
 27 47  1  0
 28 48  1  0
 29 49  1  0
 30 50  1  0
 31 51  1  0
 32 52  1  0
 33 53  1  0
M  END
>  <UniqueID>  (35) 
31

>  <SMILES>  (35) 
O=C(CSc1nccn1Cc1ccc(F)cc1)c1ccc(NS(=O)(=O)c2ccccc2)cc1

>  <Energy>  (35) 
82.54629174239352

>  <Genealogy>  (35) 
O=C(CSc1nccn1Cc1ccc(F)cc1)c1ccc(NS(=O)(=O)c2ccccc2)cc1 (3D coordinates assigned)
O=C(CSc1nccn1Cc1ccc(F)cc1)c1ccc(NS(=O)(=O)c2ccccc2)cc1 (optimized conformer: 82.54629174239352 kcal/mol)

>  <smiles>  (35) 
O=C(CSc1nccn1Cc1ccc(F)cc1)c1ccc(NS(=O)(=O)c2ccccc2)cc1

>  <score_type>  (35) 
oracle

>  <origin>  (35) 
adg

>  <m_score__min__energy>  (35) 
-9.6699999999999999

>  <m_primary>  (35) 
energy

$$$$
35:0
     RDKit          3D

 52 56  0  0  0  0  0  0  0  0999 V2000
   60.6610   34.4720   45.9390 O   0  0  0  0  0  0  0  0  0  0  0  0
   60.8160   33.3110   46.4080 C   0  0  0  0  0  0  0  0  0  0  0  0
   59.7100   32.2920   46.1610 C   0  0  2  0  0  0  0  0  0  0  0  0
   58.5610   32.9400   45.3400 C   0  0  0  0  0  0  0  0  0  0  0  0
   57.7840   31.9090   44.5550 C   0  0  0  0  0  0  0  0  0  0  0  0
   57.7690   31.9520   43.1500 C   0  0  0  0  0  0  0  0  0  0  0  0
   57.0230   31.0190   42.4240 C   0  0  0  0  0  0  0  0  0  0  0  0
   56.2810   30.0410   43.0930 C   0  0  0  0  0  0  0  0  0  0  0  0
   56.2820   29.9970   44.4900 C   0  0  0  0  0  0  0  0  0  0  0  0
   55.5380   29.0290   45.1550 O   0  0  0  0  0  0  0  0  0  0  0  0
   57.0290   30.9280   45.2200 C   0  0  0  0  0  0  0  0  0  0  0  0
   59.3310   31.5450   47.4130 N   0  0  0  0  0  0  0  0  0  0  0  0
   58.8630   32.1910   48.5490 C   0  0  0  0  0  0  0  0  0  0  0  0
   58.7480   33.4450   48.5980 O   0  0  0  0  0  0  0  0  0  0  0  0
   58.5180   31.4810   49.7020 C   0  0  0  0  0  0  0  0  0  0  0  0
   58.0600   32.1360   50.8070 N   0  0  0  0  0  0  0  0  0  0  0  0
   57.7250   31.4680   51.9410 C   0  0  0  0  0  0  0  0  0  0  0  0
   57.8500   30.0810   51.9770 C   0  0  0  0  0  0  0  0  0  0  0  0
   58.3070   29.4260   50.8790 N   0  0  0  0  0  0  0  0  0  0  0  0
   58.6450   30.0910   49.7370 C   0  0  0  0  0  0  0  0  0  0  0  0
   59.1170   29.4130   48.6100 C   0  0  0  0  0  0  0  0  0  0  0  0
   59.2530   28.0090   48.6330 C   0  0  0  0  0  0  0  0  0  0  0  0
   59.7160   27.3230   47.5180 C   0  0  0  0  0  0  0  0  0  0  0  0
   60.0480   28.0180   46.3640 C   0  0  0  0  0  0  0  0  0  0  0  0
   59.9220   29.4080   46.3160 C   0  0  0  0  0  0  0  0  0  0  0  0
   59.4570   30.1530   47.4370 C   0  0  0  0  0  0  0  0  0  0  0  0
   61.9700   33.0490   47.2320 N   0  0  0  0  0  0  0  0  0  0  0  0
   62.8120   34.1240   47.7320 C   0  0  0  0  0  0  0  0  0  0  0  0
   63.8110   33.4670   48.6720 C   0  0  0  0  0  0  0  0  0  0  0  0
   63.7910   31.9840   48.3210 C   0  0  0  0  0  0  0  0  0  0  0  0
   62.4590   31.7380   47.6230 C   0  0  0  0  0  0  0  0  0  0  0  0
   60.0765   31.4774   45.5190 H   0  0  0  0  0  0  0  0  0  0  0  0
   57.8754   33.4534   46.0302 H   0  0  0  0  0  0  0  0  0  0  0  0
   59.0070   33.6490   44.6269 H   0  0  0  0  0  0  0  0  0  0  0  0
   58.3468   32.7232   42.6196 H   0  0  0  0  0  0  0  0  0  0  0  0
   57.0198   31.0544   41.3246 H   0  0  0  0  0  0  0  0  0  0  0  0
   55.6965   29.3062   42.5200 H   0  0  0  0  0  0  0  0  0  0  0  0
   57.0252   30.8918   46.3194 H   0  0  0  0  0  0  0  0  0  0  0  0
   57.3589   32.0162   52.8216 H   0  0  0  0  0  0  0  0  0  0  0  0
   57.5812   29.5222   52.8856 H   0  0  0  0  0  0  0  0  0  0  0  0
   58.9894   27.4517   49.5440 H   0  0  0  0  0  0  0  0  0  0  0  0
   59.8196   26.2283   47.5497 H   0  0  0  0  0  0  0  0  0  0  0  0
   60.4125   27.4711   45.4819 H   0  0  0  0  0  0  0  0  0  0  0  0
   60.1882   29.9398   45.3906 H   0  0  0  0  0  0  0  0  0  0  0  0
   63.3363   34.6178   46.9006 H   0  0  0  0  0  0  0  0  0  0  0  0
   62.2199   34.8953   48.2463 H   0  0  0  0  0  0  0  0  0  0  0  0
   64.8166   33.8848   48.5164 H   0  0  0  0  0  0  0  0  0  0  0  0
   63.5507   33.6389   49.7269 H   0  0  0  0  0  0  0  0  0  0  0  0
   64.6263   31.7386   47.6487 H   0  0  0  0  0  0  0  0  0  0  0  0
   63.8995   31.3554   49.2171 H   0  0  0  0  0  0  0  0  0  0  0  0
   62.6024   31.1025   46.7367 H   0  0  0  0  0  0  0  0  0  0  0  0
   61.7463   31.2194   48.2811 H   0  0  0  0  0  0  0  0  0  0  0  0
  1  2  2  0
  2  3  1  0
  3  4  1  0
  4  5  1  0
  5  6  2  0
  6  7  1  0
  7  8  2  0
  8  9  1  0
  9 10  1  0
  9 11  2  0
  3 12  1  0
 12 13  1  0
 13 14  2  0
 13 15  1  0
 15 16  2  0
 16 17  1  0
 17 18  2  0
 18 19  1  0
 19 20  2  0
 20 21  1  0
 21 22  2  0
 22 23  1  0
 23 24  2  0
 24 25  1  0
 25 26  2  0
  2 27  1  0
 27 28  1  0
 28 29  1  0
 29 30  1  0
 30 31  1  0
 11  5  1  0
 26 12  1  0
 31 27  1  0
 20 15  1  0
 26 21  1  0
  3 32  1  6
  4 33  1  0
  4 34  1  0
  6 35  1  0
  7 36  1  0
  8 37  1  0
 11 38  1  0
 17 39  1  0
 18 40  1  0
 22 41  1  0
 23 42  1  0
 24 43  1  0
 25 44  1  0
 28 45  1  0
 28 46  1  0
 29 47  1  0
 29 48  1  0
 30 49  1  0
 30 50  1  0
 31 51  1  0
 31 52  1  0
M  CHG  1  10  -1
M  END
>  <UniqueID>  (36) 
32

>  <SMILES>  (36) 
O=C([C@H](Cc1cccc([O-])c1)n1c(=O)c2nccnc2c2ccccc21)N1CCCC1

>  <Energy>  (36) 
84.03774533293547

>  <Genealogy>  (36) 
O=C(C(Cc1cccc([O-])c1)n1c(=O)c2nccnc2c2ccccc21)N1CCCC1 (protonated)
O=C([C@H](Cc1cccc([O-])c1)n1c(=O)c2nccnc2c2ccccc21)N1CCCC1 (chirality)
O=C([C@H](Cc1cccc([O-])c1)n1c(=O)c2nccnc2c2ccccc21)N1CCCC1 (3D coordinates assigned)
O=C([C@H](Cc1cccc([O-])c1)n1c(=O)c2nccnc2c2ccccc21)N1CCCC1 (nonaromatic ring conformer: 84.03774533293547 kcal/mol)

>  <smiles>  (36) 
O=C(C(Cc1cccc(O)c1)n1c(=O)c2nccnc2c2ccccc21)N1CCCC1

>  <score_type>  (36) 
oracle

>  <origin>  (36) 
adg

>  <m_score__min__energy>  (36) 
-12.44

>  <m_primary>  (36) 
energy

$$$$
36:0
     RDKit          3D

 47 49  0  0  0  0  0  0  0  0999 V2000
   63.0400   33.7760   46.7870 C   0  0  0  0  0  0  0  0  0  0  0  0
   61.7020   33.0430   47.0120 C   0  0  0  0  0  0  0  0  0  0  0  0
   61.9650   31.6650   47.6500 C   0  0  0  0  0  0  0  0  0  0  0  0
   60.7010   33.8230   47.8000 N   0  0  2  0  0  0  0  0  0  0  0  0
   60.2390   33.0940   48.9970 C   0  0  0  0  0  0  0  0  0  0  0  0
   59.5700   34.2630   47.0000 C   0  0  0  0  0  0  0  0  0  0  0  0
   58.9760   35.3420   47.2860 O   0  0  0  0  0  0  0  0  0  0  0  0
   59.0370   33.4400   45.8870 C   0  0  0  0  0  0  0  0  0  0  0  0
   58.9740   33.9360   44.5730 C   0  0  0  0  0  0  0  0  0  0  0  0
   58.4730   33.1380   43.5410 C   0  0  0  0  0  0  0  0  0  0  0  0
   58.0240   31.8440   43.8080 C   0  0  0  0  0  0  0  0  0  0  0  0
   58.0640   31.3390   45.1150 C   0  0  0  0  0  0  0  0  0  0  0  0
   57.5970   30.0020   45.3930 N   0  0  0  0  0  0  0  0  0  0  0  0
   56.3440   29.6170   44.9900 C   0  0  0  0  0  0  0  0  0  0  0  0
   55.5950   30.4160   44.3650 O   0  0  0  0  0  0  0  0  0  0  0  0
   55.8960   28.3630   45.2480 N   0  0  0  0  0  0  0  0  0  0  0  0
   56.6610   27.4560   45.9040 C   0  0  0  0  0  0  0  0  0  0  0  0
   56.1630   26.1690   46.1520 C   0  0  0  0  0  0  0  0  0  0  0  0
   54.9110   25.8610   45.7240 F   0  0  0  0  0  0  0  0  0  0  0  0
   56.9530   25.2180   46.8350 C   0  0  0  0  0  0  0  0  0  0  0  0
   56.4560   23.8450   47.1140 C   0  0  0  0  0  0  0  0  0  0  0  0
   57.3200   22.8420   47.6430 N   0  0  0  0  0  0  0  0  0  0  0  0
   55.2510   23.5490   46.8830 O   0  0  0  0  0  0  0  0  0  0  0  0
   58.2450   25.5890   47.2570 C   0  0  0  0  0  0  0  0  0  0  0  0
   58.7390   26.8700   47.0100 C   0  0  0  0  0  0  0  0  0  0  0  0
   57.9510   27.8140   46.3310 C   0  0  0  0  0  0  0  0  0  0  0  0
   58.4060   29.1170   46.0610 C   0  0  0  0  0  0  0  0  0  0  0  0
   59.5550   29.4740   46.4460 O   0  0  0  0  0  0  0  0  0  0  0  0
   58.5650   32.1420   46.1510 C   0  0  0  0  0  0  0  0  0  0  0  0
   63.4908   34.0230   47.7595 H   0  0  0  0  0  0  0  0  0  0  0  0
   63.7233   33.1262   46.2205 H   0  0  0  0  0  0  0  0  0  0  0  0
   62.8603   34.7016   46.2205 H   0  0  0  0  0  0  0  0  0  0  0  0
   61.2432   32.9142   46.0206 H   0  0  0  0  0  0  0  0  0  0  0  0
   61.9471   31.7589   48.7458 H   0  0  0  0  0  0  0  0  0  0  0  0
   61.1856   30.9579   47.3298 H   0  0  0  0  0  0  0  0  0  0  0  0
   62.9500   31.2947   47.3298 H   0  0  0  0  0  0  0  0  0  0  0  0
   61.2040   34.6590   48.1740 H   0  0  0  0  0  0  0  0  0  0  0  0
   60.5745   33.6234   49.9010 H   0  0  0  0  0  0  0  0  0  0  0  0
   59.1404   33.0384   48.9911 H   0  0  0  0  0  0  0  0  0  0  0  0
   60.6577   32.0768   48.9911 H   0  0  0  0  0  0  0  0  0  0  0  0
   59.3207   34.9572   44.3562 H   0  0  0  0  0  0  0  0  0  0  0  0
   58.4324   33.5313   42.5145 H   0  0  0  0  0  0  0  0  0  0  0  0
   57.6374   31.2182   42.9901 H   0  0  0  0  0  0  0  0  0  0  0  0
   57.5980   22.0140   47.0700 H   0  0  0  0  0  0  0  0  0  0  0  0
   58.8727   24.8586   47.7885 H   0  0  0  0  0  0  0  0  0  0  0  0
   59.7497   27.1420   47.3483 H   0  0  0  0  0  0  0  0  0  0  0  0
   58.5887   31.7524   47.1794 H   0  0  0  0  0  0  0  0  0  0  0  0
  1  2  1  0
  2  3  1  0
  2  4  1  0
  4  5  1  0
  4  6  1  0
  6  7  2  0
  6  8  1  0
  8  9  2  0
  9 10  1  0
 10 11  2  0
 11 12  1  0
 12 13  1  0
 13 14  1  0
 14 15  2  0
 14 16  1  0
 16 17  1  0
 17 18  2  0
 18 19  1  0
 18 20  1  0
 20 21  1  0
 21 22  1  0
 21 23  2  0
 20 24  2  0
 24 25  1  0
 25 26  2  0
 26 27  1  0
 27 28  2  0
 12 29  2  0
 29  8  1  0
 27 13  1  0
 26 17  1  0
  1 30  1  0
  1 31  1  0
  1 32  1  0
  2 33  1  0
  3 34  1  0
  3 35  1  0
  3 36  1  0
  4 37  1  1
  5 38  1  0
  5 39  1  0
  5 40  1  0
  9 41  1  0
 10 42  1  0
 11 43  1  0
 22 44  1  0
 24 45  1  0
 25 46  1  0
 29 47  1  0
M  CHG  3   4   1  16  -1  22  -1
M  END
>  <UniqueID>  (37) 
33

>  <SMILES>  (37) 
CC(C)[N@H+](C)C(=O)c1cccc(-n2c(=O)[n-]c3c(F)c(C([NH-])=O)ccc3c2=O)c1

>  <Energy>  (37) 
72.85281231945089

>  <Genealogy>  (37) 
CC(C)[NH+](C)C(=O)c1cccc(-n2c(=O)[n-]c3c(F)c(C([NH-])=O)ccc3c2=O)c1 (protonated)
CC(C)[N@H+](C)C(=O)c1cccc(-n2c(=O)[n-]c3c(F)c(C([NH-])=O)ccc3c2=O)c1 (chirality)
CC(C)[N@H+](C)C(=O)c1cccc(-n2c(=O)[n-]c3c(F)c(C([NH-])=O)ccc3c2=O)c1 (3D coordinates assigned)
CC(C)[N@H+](C)C(=O)c1cccc(-n2c(=O)[n-]c3c(F)c(C([NH-])=O)ccc3c2=O)c1 (optimized conformer: 72.85281231945089 kcal/mol)

>  <smiles>  (37) 
CC(C)N(C)C(=O)c1cccc(-n2c(=O)[nH]c3c(F)c(C(N)=O)ccc3c2=O)c1

>  <score_type>  (37) 
oracle

>  <origin>  (37) 
adg

>  <m_score__min__energy>  (37) 
-11.02

>  <m_primary>  (37) 
energy

$$$$
37:0
     RDKit          3D

 46 48  0  0  0  0  0  0  0  0999 V2000
   60.5260   30.9630   48.1670 C   0  0  0  0  0  0  0  0  0  0  0  0
   61.7130   31.7930   47.8180 C   0  0  0  0  0  0  0  0  0  0  0  0
   62.7740   31.3650   47.1090 N   0  0  0  0  0  0  0  0  0  0  0  0
   63.6140   32.3780   47.0060 N   0  0  0  0  0  0  0  0  0  0  0  0
   63.1130   33.4700   47.6420 C   0  0  0  0  0  0  0  0  0  0  0  0
   63.6970   34.5820   47.7090 O   0  0  0  0  0  0  0  0  0  0  0  0
   61.8720   33.1170   48.1820 C   0  0  0  0  0  0  0  0  0  0  0  0
   61.0020   33.9820   48.9380 C   0  0  0  0  0  0  0  0  0  0  0  0
   61.3840   34.2870   50.1190 O   0  0  0  0  0  0  0  0  0  0  0  0
   59.7270   34.5380   48.4670 C   0  0  0  0  0  0  0  0  0  0  0  0
   59.8170   35.2220   47.1250 C   0  0  0  0  0  0  0  0  0  0  0  0
   59.2230   34.2670   46.1250 C   0  0  0  0  0  0  0  0  0  0  0  0
   58.7860   34.6280   44.8550 C   0  0  0  0  0  0  0  0  0  0  0  0
   58.3240   33.4440   44.2960 C   0  0  0  0  0  0  0  0  0  0  0  0
   58.4980   32.4420   45.2260 C   0  0  0  0  0  0  0  0  0  0  0  0
   58.1400   31.0430   45.0340 C   0  0  0  0  0  0  0  0  0  0  0  0
   56.9150   30.6940   44.5120 C   0  0  0  0  0  0  0  0  0  0  0  0
   56.6270   29.3410   44.3500 C   0  0  0  0  0  0  0  0  0  0  0  0
   57.5150   28.3480   44.6900 C   0  0  0  0  0  0  0  0  0  0  0  0
   57.2500   26.9620   44.5370 N   0  0  0  0  0  0  0  0  0  0  0  0
   56.6410   26.0170   45.8590 S   0  0  0  0  0  0  0  0  0  0  0  0
   56.8310   24.2820   45.5170 C   0  0  0  0  0  0  0  0  0  0  0  0
   57.3530   26.3590   47.1220 O   0  0  0  0  0  0  0  0  0  0  0  0
   55.1900   26.3280   46.0110 O   0  0  0  0  0  0  0  0  0  0  0  0
   58.7430   28.7000   45.2130 C   0  0  0  0  0  0  0  0  0  0  0  0
   59.0190   30.0350   45.3700 C   0  0  0  0  0  0  0  0  0  0  0  0
   59.0290   32.9730   46.2860 O   0  0  0  0  0  0  0  0  0  0  0  0
   60.4330   30.8979   49.2611 H   0  0  0  0  0  0  0  0  0  0  0  0
   59.6196   31.4252   47.7488 H   0  0  0  0  0  0  0  0  0  0  0  0
   60.6490   29.9531   47.7488 H   0  0  0  0  0  0  0  0  0  0  0  0
   62.8720   30.3990   46.7280 H   0  0  0  0  0  0  0  0  0  0  0  0
   64.5300   32.3140   46.4970 H   0  0  0  0  0  0  0  0  0  0  0  0
   58.9988   33.7172   48.3893 H   0  0  0  0  0  0  0  0  0  0  0  0
   59.4238   35.3038   49.1961 H   0  0  0  0  0  0  0  0  0  0  0  0
   59.2477   36.1631   47.1380 H   0  0  0  0  0  0  0  0  0  0  0  0
   60.8581   35.4708   46.8715 H   0  0  0  0  0  0  0  0  0  0  0  0
   58.8026   35.6276   44.3962 H   0  0  0  0  0  0  0  0  0  0  0  0
   57.8953   33.3266   43.2898 H   0  0  0  0  0  0  0  0  0  0  0  0
   56.1821   31.4642   44.2299 H   0  0  0  0  0  0  0  0  0  0  0  0
   55.6499   29.0554   43.9333 H   0  0  0  0  0  0  0  0  0  0  0  0
   57.4280   26.5140   43.6100 H   0  0  0  0  0  0  0  0  0  0  0  0
   56.8919   23.7261   46.4642 H   0  0  0  0  0  0  0  0  0  0  0  0
   55.9665   23.9257   44.9376 H   0  0  0  0  0  0  0  0  0  0  0  0
   57.7521   24.1212   44.9376 H   0  0  0  0  0  0  0  0  0  0  0  0
   59.4788   27.9328   45.4957 H   0  0  0  0  0  0  0  0  0  0  0  0
   59.9968   30.3171   45.7875 H   0  0  0  0  0  0  0  0  0  0  0  0
  1  2  1  0
  2  3  1  0
  3  4  1  0
  4  5  1  0
  5  6  2  0
  5  7  1  0
  7  8  1  0
  8  9  2  0
  8 10  1  0
 10 11  1  0
 11 12  1  0
 12 13  2  0
 13 14  1  0
 14 15  2  0
 15 16  1  0
 16 17  2  0
 17 18  1  0
 18 19  2  0
 19 20  1  0
 20 21  1  0
 21 22  1  0
 21 23  2  0
 21 24  2  0
 19 25  1  0
 25 26  2  0
 15 27  1  0
  7  2  2  0
 27 12  1  0
 26 16  1  0
  1 28  1  0
  1 29  1  0
  1 30  1  0
  3 31  1  0
  4 32  1  0
 10 33  1  0
 10 34  1  0
 11 35  1  0
 11 36  1  0
 13 37  1  0
 14 38  1  0
 17 39  1  0
 18 40  1  0
 20 41  1  0
 22 42  1  0
 22 43  1  0
 22 44  1  0
 25 45  1  0
 26 46  1  0
M  END
>  <smiles>  (38) 
Cc1[nH][nH]c(=O)c1C(=O)CCc1ccc(-c2ccc(NS(C)(=O)=O)cc2)o1

>  <score_type>  (38) 
oracle

>  <origin>  (38) 
adg

>  <m_score__min__energy>  (38) 
-8.9600000000000009

>  <m_primary>  (38) 
energy

$$$$
38:0
     RDKit          3D

 61 63  0  0  0  0  0  0  0  0999 V2000
   59.7540   35.0947   44.0996 H   0  0  0  0  0  0  0  0  0  0  0  0
   59.2660   34.3700   44.7680 C   0  0  0  0  0  0  0  0  0  0  0  0
   59.6240   34.3080   46.0770 N   0  0  0  0  0  0  0  0  0  0  0  0
   59.0550   33.4180   46.9370 C   0  0  0  0  0  0  0  0  0  0  0  0
   59.3880   33.3850   48.1970 N   0  0  0  0  0  0  0  0  0  0  0  0
   60.7000   33.5840   48.7480 C   0  0  0  0  0  0  0  0  0  0  0  0
   60.9630   34.6090   49.4330 O   0  0  0  0  0  0  0  0  0  0  0  0
   61.6840   32.6180   48.4920 O   0  0  0  0  0  0  0  0  0  0  0  0
   62.9170   32.8230   47.7870 C   0  0  0  0  0  0  0  0  0  0  0  0
   62.7280   33.8580   46.6630 C   0  0  0  0  0  0  0  0  0  0  0  0
   62.5470   34.8493   47.1040 H   0  0  0  0  0  0  0  0  0  0  0  0
   63.6345   33.8934   46.0409 H   0  0  0  0  0  0  0  0  0  0  0  0
   61.8675   33.5707   46.0409 H   0  0  0  0  0  0  0  0  0  0  0  0
   63.3100   31.4750   47.1630 C   0  0  0  0  0  0  0  0  0  0  0  0
   63.5217   30.7490   47.9618 H   0  0  0  0  0  0  0  0  0  0  0  0
   62.4826   31.1041   46.5402 H   0  0  0  0  0  0  0  0  0  0  0  0
   64.2071   31.6069   46.5402 H   0  0  0  0  0  0  0  0  0  0  0  0
   64.0340   33.2680   48.7530 C   0  0  0  0  0  0  0  0  0  0  0  0
   63.6961   33.1334   49.7911 H   0  0  0  0  0  0  0  0  0  0  0  0
   64.9337   32.6596   48.5784 H   0  0  0  0  0  0  0  0  0  0  0  0
   64.2689   34.3284   48.5784 H   0  0  0  0  0  0  0  0  0  0  0  0
   58.0700   32.5390   46.4670 C   0  0  0  0  0  0  0  0  0  0  0  0
   57.6190   31.8022   47.1480 H   0  0  0  0  0  0  0  0  0  0  0  0
   57.6600   32.6000   45.1270 C   0  0  0  0  0  0  0  0  0  0  0  0
   56.5990   31.6660   44.6000 C   0  0  0  0  0  0  0  0  0  0  0  0
   56.4659   31.8446   43.5228 H   0  0  0  0  0  0  0  0  0  0  0  0
   55.6619   31.8598   45.1425 H   0  0  0  0  0  0  0  0  0  0  0  0
   56.9760   30.2720   44.8090 N   0  0  0  0  0  0  0  0  0  0  0  0
   56.0310   29.1980   44.8760 C   0  0  0  0  0  0  0  0  0  0  0  0
   54.8490   29.3630   44.4680 O   0  0  0  0  0  0  0  0  0  0  0  0
   56.4300   27.9110   45.4520 C   0  0  0  0  0  0  0  0  0  0  0  0
   55.5820   26.8770   45.6370 N   0  0  0  0  0  0  0  0  0  0  0  0
   56.2560   25.8990   46.2230 N   0  0  0  0  0  0  0  0  0  0  0  0
   55.6460   24.6020   46.5040 C   0  0  0  0  0  0  0  0  0  0  0  0
   55.5778   24.4570   47.5923 H   0  0  0  0  0  0  0  0  0  0  0  0
   54.6377   24.5684   46.0657 H   0  0  0  0  0  0  0  0  0  0  0  0
   56.2631   23.8039   46.0657 H   0  0  0  0  0  0  0  0  0  0  0  0
   57.5340   26.3100   46.4190 C   0  0  0  0  0  0  0  0  0  0  0  0
   58.4990   25.6400   46.9830 N   0  0  0  0  0  0  0  0  0  0  0  0
   59.8670   25.5870   46.5650 C   0  0  0  0  0  0  0  0  0  0  0  0
   60.2960   24.5670   45.9690 O   0  0  0  0  0  0  0  0  0  0  0  0
   60.7470   26.7000   46.7940 N   0  0  0  0  0  0  0  0  0  0  0  0
   60.4090   27.8700   47.5550 C   0  0  0  0  0  0  0  0  0  0  0  0
   60.1390   27.7260   48.9220 C   0  0  0  0  0  0  0  0  0  0  0  0
   60.2105   26.7334   49.3907 H   0  0  0  0  0  0  0  0  0  0  0  0
   59.7800   28.8320   49.6940 C   0  0  0  0  0  0  0  0  0  0  0  0
   59.5559   28.7061   50.7636 H   0  0  0  0  0  0  0  0  0  0  0  0
   59.7050   30.0980   49.1100 C   0  0  0  0  0  0  0  0  0  0  0  0
   59.4067   30.9656   49.7168 H   0  0  0  0  0  0  0  0  0  0  0  0
   60.0080   30.2650   47.7570 C   0  0  0  0  0  0  0  0  0  0  0  0
   59.9533   31.2658   47.3038 H   0  0  0  0  0  0  0  0  0  0  0  0
   60.3840   29.1570   46.9680 C   0  0  0  0  0  0  0  0  0  0  0  0
   60.7600   29.3010   45.6230 O   0  0  0  0  0  0  0  0  0  0  0  0
   59.8580   29.2830   44.5200 C   0  0  0  0  0  0  0  0  0  0  0  0
   58.8233   29.2624   44.8928 H   0  0  0  0  0  0  0  0  0  0  0  0
   60.0093   30.1843   43.9079 H   0  0  0  0  0  0  0  0  0  0  0  0
   60.0451   28.3884   43.9079 H   0  0  0  0  0  0  0  0  0  0  0  0
   57.6880   27.5840   45.9220 C   0  0  0  0  0  0  0  0  0  0  0  0
   58.5999   28.1989   45.9032 H   0  0  0  0  0  0  0  0  0  0  0  0
   58.2810   33.5170   44.2690 C   0  0  0  0  0  0  0  0  0  0  0  0
   57.9938   33.5642   43.2082 H   0  0  0  0  0  0  0  0  0  0  0  0
  1  2  1  0
  2  3  1  0
  3  4  1  0
  4  5  2  0
  5  6  1  0
  6  7  2  0
  6  8  1  0
  8  9  1  0
  9 10  1  0
 10 11  1  0
 10 12  1  0
 10 13  1  0
  9 14  1  0
 14 15  1  0
 14 16  1  0
 14 17  1  0
  9 18  1  0
 18 19  1  0
 18 20  1  0
 18 21  1  0
  4 22  1  0
 22 23  1  0
 22 24  2  0
 24 25  1  0
 25 26  1  0
 25 27  1  0
 25 28  1  0
 28 29  1  0
 29 30  2  0
 29 31  1  0
 31 32  1  0
 32 33  1  0
 33 34  1  0
 34 35  1  0
 34 36  1  0
 34 37  1  0
 33 38  1  0
 38 39  2  3
 39 40  1  0
 40 41  2  0
 40 42  1  0
 42 43  1  0
 43 44  2  0
 44 45  1  0
 44 46  1  0
 46 47  1  0
 46 48  2  0
 48 49  1  0
 48 50  1  0
 50 51  1  0
 50 52  2  0
 52 53  1  0
 53 54  1  0
 54 55  1  0
 54 56  1  0
 54 57  1  0
 38 58  1  0
 58 59  1  0
 24 60  1  0
 60 61  1  0
 60  2  2  0
 58 31  2  0
 52 43  1  0
M  CHG  4   3  -1  28  -1  32  -1  42  -1
M  END
>  <UniqueID>  (39) 
34

>  <SMILES>  (39) 
COc1ccccc1[N-]C(=O)N=c1cc(C(=O)[N-]Cc2cc[n-]/c(=N\C(=O)OC(C)(C)C)c2)[n-]n1C

>  <Energy>  (39) 
104.94394498393622

>  <Genealogy>  (39) 
COc1ccccc1[N-]C(=O)N=c1cc(C(=O)[N-]Cc2cc[n-]c(=NC(=O)OC(C)(C)C)c2)[n-]n1C (protonated)
COc1ccccc1[N-]C(=O)N=c1cc(C(=O)[N-]Cc2cc[n-]/c(=N\C(=O)OC(C)(C)C)c2)[n-]n1C (cis-trans isomerization)
COc1ccccc1[N-]C(=O)N=c1cc(C(=O)[N-]Cc2cc[n-]/c(=N\C(=O)OC(C)(C)C)c2)[n-]n1C (3D coordinates assigned)
COc1ccccc1[N-]C(=O)N=c1cc(C(=O)[N-]Cc2cc[n-]/c(=N\C(=O)OC(C)(C)C)c2)[n-]n1C (optimized conformer: 104.94394498393622 kcal/mol)

>  <smiles>  (39) 
COc1ccccc1NC(=O)N=c1cc(C(=O)NCc2cc[nH]c(=NC(=O)OC(C)(C)C)c2)[nH]n1C

>  <score_type>  (39) 
oracle

>  <origin>  (39) 
adg

>  <m_score__min__energy>  (39) 
-14.050000000000001

>  <m_primary>  (39) 
energy

$$$$
39:0
     RDKit          3D

 43 45  0  0  0  0  0  0  0  0999 V2000
   54.1099   24.4963   46.0285 H   0  0  0  0  0  0  0  0  0  0  0  0
   55.1280   24.9100   45.9800 C   0  0  0  0  0  0  0  0  0  0  0  0
   55.3130   26.2580   45.9950 N   0  0  0  0  0  0  0  0  0  0  0  0
   56.5480   26.8280   45.9230 C   0  0  0  0  0  0  0  0  0  0  0  0
   56.6920   28.1230   45.9040 N   0  0  0  0  0  0  0  0  0  0  0  0
   56.2920   29.0260   44.8570 C   0  0  0  0  0  0  0  0  0  0  0  0
   55.1430   29.5400   44.9060 O   0  0  0  0  0  0  0  0  0  0  0  0
   57.1440   29.2720   43.6390 C   0  0  0  0  0  0  0  0  0  0  0  0
   56.8435   28.5780   42.8402 H   0  0  0  0  0  0  0  0  0  0  0  0
   58.1995   29.1099   43.9029 H   0  0  0  0  0  0  0  0  0  0  0  0
   56.9360   30.9920   43.0530 S   0  0  0  0  0  0  0  0  0  0  0  0
   57.9900   31.6970   44.3190 C   0  0  0  0  0  0  0  0  0  0  0  0
   58.7030   30.8890   45.1410 N   0  0  0  0  0  0  0  0  0  0  0  0
   59.5040   31.4030   46.0740 N   0  0  0  0  0  0  0  0  0  0  0  0
   59.6390   32.7460   46.2410 C   0  0  0  0  0  0  0  0  0  0  0  0
   60.5100   33.2430   47.3310 C   0  0  0  0  0  0  0  0  0  0  0  0
   59.9660   33.6550   48.5630 C   0  0  0  0  0  0  0  0  0  0  0  0
   58.8772   33.6245   48.7162 H   0  0  0  0  0  0  0  0  0  0  0  0
   60.8000   34.1030   49.5940 C   0  0  0  0  0  0  0  0  0  0  0  0
   60.3637   34.4324   50.5485 H   0  0  0  0  0  0  0  0  0  0  0  0
   62.1920   34.1330   49.4130 C   0  0  0  0  0  0  0  0  0  0  0  0
   63.1000   34.5860   50.5210 C   0  0  0  0  0  0  0  0  0  0  0  0
   62.6372   34.3551   51.4918 H   0  0  0  0  0  0  0  0  0  0  0  0
   64.0647   34.0636   50.4412 H   0  0  0  0  0  0  0  0  0  0  0  0
   63.2628   35.6709   50.4412 H   0  0  0  0  0  0  0  0  0  0  0  0
   62.7390   33.6800   48.2040 C   0  0  0  0  0  0  0  0  0  0  0  0
   63.8304   33.6726   48.0669 H   0  0  0  0  0  0  0  0  0  0  0  0
   61.9050   33.2370   47.1700 C   0  0  0  0  0  0  0  0  0  0  0  0
   62.3451   32.8823   46.2263 H   0  0  0  0  0  0  0  0  0  0  0  0
   58.9210   33.5950   45.3710 C   0  0  0  0  0  0  0  0  0  0  0  0
   59.0890   35.0160   45.3840 N   0  0  0  0  0  0  0  0  0  0  0  0
   59.1990   35.5160   46.2920 H   0  0  0  0  0  0  0  0  0  0  0  0
   58.9740   35.5920   44.5200 H   0  0  0  0  0  0  0  0  0  0  0  0
   58.1050   33.0410   44.4370 N   0  0  0  0  0  0  0  0  0  0  0  0
   57.6770   26.0010   45.8140 C   0  0  0  0  0  0  0  0  0  0  0  0
   59.2990   26.6780   45.7000 Cl  0  0  0  0  0  0  0  0  0  0  0  0
   57.5120   24.6100   45.8000 C   0  0  0  0  0  0  0  0  0  0  0  0
   58.3915   23.9558   45.7078 H   0  0  0  0  0  0  0  0  0  0  0  0
   56.2300   24.0460   45.9030 C   0  0  0  0  0  0  0  0  0  0  0  0
   56.0520   22.5470   45.8370 C   0  0  0  0  0  0  0  0  0  0  0  0
   55.8450   22.1270   44.5330 F   0  0  0  0  0  0  0  0  0  0  0  0
   57.1860   21.9280   46.3310 F   0  0  0  0  0  0  0  0  0  0  0  0
   54.9590   22.1630   46.5970 F   0  0  0  0  0  0  0  0  0  0  0  0
  1  2  1  0
  2  3  1  0
  3  4  1  0
  4  5  2  0
  5  6  1  0
  6  7  2  0
  6  8  1  0
  8  9  1  0
  8 10  1  0
  8 11  1  0
 11 12  1  0
 12 13  2  0
 13 14  1  0
 14 15  2  0
 15 16  1  0
 16 17  2  0
 17 18  1  0
 17 19  1  0
 19 20  1  0
 19 21  2  0
 21 22  1  0
 22 23  1  0
 22 24  1  0
 22 25  1  0
 21 26  1  0
 26 27  1  0
 26 28  2  0
 28 29  1  0
 15 30  1  0
 30 31  1  0
 31 32  1  0
 31 33  1  0
 30 34  2  0
  4 35  1  0
 35 36  1  0
 35 37  2  0
 37 38  1  0
 37 39  1  0
 39 40  1  0
 40 41  1  0
 40 42  1  0
 40 43  1  0
 39  2  2  0
 34 12  1  0
 28 16  1  0
M  CHG  1   3  -1
M  END
>  <UniqueID>  (40) 
35

>  <SMILES>  (40) 
Cc1ccc(-c2nnc(SCC(=O)/N=c3\[n-]cc(C(F)(F)F)cc3Cl)nc2N)cc1

>  <Energy>  (40) 
56.81977563465424

>  <Genealogy>  (40) 
Cc1ccc(-c2nnc(SCC(=O)N=c3[n-]cc(C(F)(F)F)cc3Cl)nc2N)cc1 (protonated)
Cc1ccc(-c2nnc(SCC(=O)/N=c3\[n-]cc(C(F)(F)F)cc3Cl)nc2N)cc1 (cis-trans isomerization)
Cc1ccc(-c2nnc(SCC(=O)/N=c3\[n-]cc(C(F)(F)F)cc3Cl)nc2N)cc1 (3D coordinates assigned)
Cc1ccc(-c2nnc(SCC(=O)/N=c3\[n-]cc(C(F)(F)F)cc3Cl)nc2N)cc1 (optimized conformer: 56.81977563465424 kcal/mol)

>  <smiles>  (40) 
Cc1ccc(-c2nnc(SCC(=O)N=c3[nH]cc(C(F)(F)F)cc3Cl)nc2N)cc1

>  <score_type>  (40) 
oracle

>  <origin>  (40) 
adg

>  <m_score__min__energy>  (40) 
-10.029999999999999

>  <m_primary>  (40) 
energy

$$$$
40:0
     RDKit          3D

 14 14  0  0  1  0  0  0  0  0999 V2000
   56.4500   24.8860   47.2790 O   0  0  0  0  0  0  0  0  0  0  0  0
   57.1770   25.7490   46.4760 N   0  0  0  0  0  0  0  0  0  0  0  0
   56.5560   26.7470   45.9520 C   0  0  0  0  0  0  0  0  0  0  0  0
   55.1500   26.6810   45.9890 O   0  0  0  0  0  0  0  0  0  0  0  0
   57.1610   27.8850   45.3510 C   0  0  0  0  0  0  0  0  0  0  0  0
   58.4950   28.1390   45.0930 C   0  0  0  0  0  0  0  0  0  0  0  0
   58.8300   29.2830   44.5170 C   0  0  0  0  0  0  0  0  0  0  0  0
   57.8050   30.1810   44.1990 C   0  0  0  0  0  0  0  0  0  0  0  0
   56.2790   29.3440   44.7540 S   0  0  0  0  0  0  0  0  0  0  0  0
   55.5210   25.2120   47.5610 H   0  0  0  0  0  0  0  0  0  0  0  0
   54.6610   25.9050   46.3770 H   0  0  0  0  0  0  0  0  0  0  0  0
   59.2662   27.4022   45.3620 H   0  0  0  0  0  0  0  0  0  0  0  0
   59.8810   29.5202   44.2954 H   0  0  0  0  0  0  0  0  0  0  0  0
   57.8973   31.1681   43.7224 H   0  0  0  0  0  0  0  0  0  0  0  0
  1  2  1  0
  2  3  2  0
  3  4  1  0
  3  5  1  0
  5  6  2  0
  6  7  1  0
  7  8  2  0
  8  9  1  0
  9  5  1  0
  1 10  1  0
  4 11  1  0
  6 12  1  0
  7 13  1  0
  8 14  1  0
M  END
>  <smiles>  (41) 
ON=C(O)c1cccs1

>  <score_type>  (41) 
oracle

>  <origin>  (41) 
adg

>  <m_score__min__energy>  (41) 
-5.6799999999999997

>  <m_primary>  (41) 
energy

$$$$
41:0
     RDKit          3D

 29 30  0  0  0  0  0  0  0  0999 V2000
   55.1530   29.3560   44.8730 N   0  0  0  0  0  0  0  0  0  0  0  0
   56.7300   29.3320   44.1690 S   0  0  0  0  0  0  0  0  0  0  0  0
   56.6180   29.0710   42.6940 O   0  0  0  0  0  0  0  0  0  0  0  0
   57.5400   28.2310   44.7940 O   0  0  0  0  0  0  0  0  0  0  0  0
   57.5200   30.8820   44.4460 C   0  0  0  0  0  0  0  0  0  0  0  0
   57.5780   31.8360   43.4230 C   0  0  0  0  0  0  0  0  0  0  0  0
   58.1920   33.0700   43.6470 C   0  0  0  0  0  0  0  0  0  0  0  0
   58.7460   33.3610   44.8960 C   0  0  0  0  0  0  0  0  0  0  0  0
   58.6900   32.4180   45.9370 C   0  0  0  0  0  0  0  0  0  0  0  0
   59.2310   32.7290   47.2380 N   0  0  0  0  0  0  0  0  0  0  0  0
   60.6750   32.7100   47.1890 C   0  0  0  0  0  0  0  0  0  0  0  0
   61.3930   31.5760   47.6260 C   0  0  0  0  0  0  0  0  0  0  0  0
   60.7430   30.4690   48.0620 F   0  0  0  0  0  0  0  0  0  0  0  0
   62.7910   31.5750   47.6050 C   0  0  0  0  0  0  0  0  0  0  0  0
   63.4880   32.6980   47.1540 C   0  0  0  0  0  0  0  0  0  0  0  0
   62.7890   33.8250   46.7190 C   0  0  0  0  0  0  0  0  0  0  0  0
   61.3920   33.8370   46.7340 C   0  0  0  0  0  0  0  0  0  0  0  0
   60.7380   34.9430   46.2990 F   0  0  0  0  0  0  0  0  0  0  0  0
   58.0700   31.1770   45.7010 C   0  0  0  0  0  0  0  0  0  0  0  0
   55.1440   28.6330   45.6270 H   0  0  0  0  0  0  0  0  0  0  0  0
   57.1385   31.6128   42.4396 H   0  0  0  0  0  0  0  0  0  0  0  0
   58.2395   33.8143   42.8385 H   0  0  0  0  0  0  0  0  0  0  0  0
   59.2292   34.3344   45.0660 H   0  0  0  0  0  0  0  0  0  0  0  0
   58.8850   32.0420   47.9470 H   0  0  0  0  0  0  0  0  0  0  0  0
   58.8880   33.6670   47.5500 H   0  0  0  0  0  0  0  0  0  0  0  0
   63.3437   30.6867   47.9448 H   0  0  0  0  0  0  0  0  0  0  0  0
   64.5879   32.6943   47.1416 H   0  0  0  0  0  0  0  0  0  0  0  0
   63.3404   34.7077   46.3628 H   0  0  0  0  0  0  0  0  0  0  0  0
   58.0165   30.4319   46.5085 H   0  0  0  0  0  0  0  0  0  0  0  0
  1  2  1  0
  2  3  2  0
  2  4  2  0
  2  5  1  0
  5  6  2  0
  6  7  1  0
  7  8  2  0
  8  9  1  0
  9 10  1  0
 10 11  1  0
 11 12  2  0
 12 13  1  0
 12 14  1  0
 14 15  2  0
 15 16  1  0
 16 17  2  0
 17 18  1  0
  9 19  2  0
 19  5  1  0
 17 11  1  0
  1 20  1  0
  6 21  1  0
  7 22  1  0
  8 23  1  0
 10 24  1  0
 10 25  1  0
 14 26  1  0
 15 27  1  0
 16 28  1  0
 19 29  1  0
M  CHG  2   1  -1  10   1
M  END
>  <UniqueID>  (42) 
36

>  <SMILES>  (42) 
[NH-]S(=O)(=O)c1cccc([NH2+]c2c(F)cccc2F)c1

>  <Energy>  (42) 
32.391051731755454

>  <Genealogy>  (42) 
[NH-]S(=O)(=O)c1cccc([NH2+]c2c(F)cccc2F)c1 (protonated)
[NH-]S(=O)(=O)c1cccc([NH2+]c2c(F)cccc2F)c1 (3D coordinates assigned)
[NH-]S(=O)(=O)c1cccc([NH2+]c2c(F)cccc2F)c1 (optimized conformer: 32.391051731755454 kcal/mol)

>  <smiles>  (42) 
NS(=O)(=O)c1cccc(Nc2c(F)cccc2F)c1

>  <score_type>  (42) 
oracle

>  <origin>  (42) 
adg

>  <m_score__min__energy>  (42) 
-8.2599999999999998

>  <m_primary>  (42) 
energy

$$$$
42:0
     RDKit          3D

 38 39  0  0  0  0  0  0  0  0999 V2000
   55.5220   27.5130   45.2990 H   0  0  0  0  0  0  0  0  0  0  0  0
   55.3680   26.7030   45.9420 N   0  0  0  0  0  0  0  0  0  0  0  0
   56.9040   25.9440   46.1740 S   0  0  0  0  0  0  0  0  0  0  0  0
   56.8460   25.1120   47.4240 O   0  0  0  0  0  0  0  0  0  0  0  0
   57.2070   25.0600   44.9980 O   0  0  0  0  0  0  0  0  0  0  0  0
   58.1630   27.1660   46.3260 C   0  0  0  0  0  0  0  0  0  0  0  0
   58.9810   27.4770   45.2320 C   0  0  0  0  0  0  0  0  0  0  0  0
   58.8414   26.9504   44.2764 H   0  0  0  0  0  0  0  0  0  0  0  0
   59.9740   28.4540   45.3500 C   0  0  0  0  0  0  0  0  0  0  0  0
   60.6213   28.6835   44.4907 H   0  0  0  0  0  0  0  0  0  0  0  0
   60.1490   29.1450   46.5630 C   0  0  0  0  0  0  0  0  0  0  0  0
   61.1720   30.1360   46.7360 N   0  0  0  0  0  0  0  0  0  0  0  0
   61.3050   31.0380   47.8420 C   0  0  0  0  0  0  0  0  0  0  0  0
   60.8970   30.7200   48.9900 O   0  0  0  0  0  0  0  0  0  0  0  0
   61.9650   32.3610   47.6370 C   0  0  0  0  0  0  0  0  0  0  0  0
   62.6532   32.5618   48.4713 H   0  0  0  0  0  0  0  0  0  0  0  0
   62.5305   32.3491   46.6935 H   0  0  0  0  0  0  0  0  0  0  0  0
   60.9690   33.3800   47.5850 O   0  0  0  0  0  0  0  0  0  0  0  0
   60.8180   34.2560   46.5220 N   0  0  0  0  0  0  0  0  0  0  0  0
   59.7080   34.4560   45.8760 C   0  0  0  0  0  0  0  0  0  0  0  0
   59.3828   35.4849   45.6621 H   0  0  0  0  0  0  0  0  0  0  0  0
   58.8770   33.3210   45.4250 C   0  0  0  0  0  0  0  0  0  0  0  0
   58.3510   33.3240   44.1260 C   0  0  0  0  0  0  0  0  0  0  0  0
   58.5637   34.1682   43.4537 H   0  0  0  0  0  0  0  0  0  0  0  0
   57.5580   32.2630   43.6770 C   0  0  0  0  0  0  0  0  0  0  0  0
   57.1536   32.2782   42.6541 H   0  0  0  0  0  0  0  0  0  0  0  0
   57.2740   31.1770   44.5240 C   0  0  0  0  0  0  0  0  0  0  0  0
   56.4560   30.0830   44.0680 N   0  0  0  0  0  0  0  0  0  0  0  0
   56.6620   29.5550   42.9550 O   0  0  0  0  0  0  0  0  0  0  0  0
   55.4310   29.6040   44.8510 O   0  0  0  0  0  0  0  0  0  0  0  0
   57.8010   31.1750   45.8270 C   0  0  0  0  0  0  0  0  0  0  0  0
   57.5872   30.3321   46.5006 H   0  0  0  0  0  0  0  0  0  0  0  0
   58.5950   32.2360   46.2740 C   0  0  0  0  0  0  0  0  0  0  0  0
   59.0015   32.2217   47.2961 H   0  0  0  0  0  0  0  0  0  0  0  0
   59.3390   28.8180   47.6590 C   0  0  0  0  0  0  0  0  0  0  0  0
   59.4862   29.3326   48.6200 H   0  0  0  0  0  0  0  0  0  0  0  0
   58.3450   27.8420   47.5390 C   0  0  0  0  0  0  0  0  0  0  0  0
   57.7036   27.6042   48.4005 H   0  0  0  0  0  0  0  0  0  0  0  0
  1  2  1  0
  2  3  1  0
  3  4  2  0
  3  5  2  0
  3  6  1  0
  6  7  2  0
  7  8  1  0
  7  9  1  0
  9 10  1  0
  9 11  2  0
 11 12  1  0
 12 13  1  0
 13 14  2  0
 13 15  1  0
 15 16  1  0
 15 17  1  0
 15 18  1  0
 18 19  1  0
 19 20  2  0
 20 21  1  0
 20 22  1  0
 22 23  2  0
 23 24  1  0
 23 25  1  0
 25 26  1  0
 25 27  2  0
 27 28  1  0
 28 29  2  0
 28 30  1  0
 27 31  1  0
 31 32  1  0
 31 33  2  0
 33 34  1  0
 11 35  1  0
 35 36  1  0
 35 37  2  0
 37 38  1  0
 37  6  1  0
 33 22  1  0
M  CHG  4   2  -1  12  -1  28   1  30  -1
M  END
>  <UniqueID>  (43) 
37

>  <SMILES>  (43) 
[NH-]S(=O)(=O)c1ccc([N-]C(=O)CO/N=C/c2ccc([N+](=O)[O-])cc2)cc1

>  <Energy>  (43) 
42.27469113807218

>  <Genealogy>  (43) 
[NH-]S(=O)(=O)c1ccc([N-]C(=O)CON=Cc2ccc([N+](=O)[O-])cc2)cc1 (protonated)
[NH-]S(=O)(=O)c1ccc([N-]C(=O)CO/N=C/c2ccc([N+](=O)[O-])cc2)cc1 (cis-trans isomerization)
[NH-]S(=O)(=O)c1ccc([N-]C(=O)CO/N=C/c2ccc([N+](=O)[O-])cc2)cc1 (3D coordinates assigned)
[NH-]S(=O)(=O)c1ccc([N-]C(=O)CO/N=C/c2ccc([N+](=O)[O-])cc2)cc1 (optimized conformer: 42.27469113807218 kcal/mol)

>  <smiles>  (43) 
NS(=O)(=O)c1ccc(NC(=O)CON=Cc2ccc([N+](=O)[O-])cc2)cc1

>  <score_type>  (43) 
oracle

>  <origin>  (43) 
adg

>  <m_score__min__energy>  (43) 
-11.48

>  <m_primary>  (43) 
energy

$$$$
43:0
     RDKit          3D

 36 37  0  0  0  0  0  0  0  0999 V2000
   56.2760   29.8170   42.7810 C   0  0  0  0  0  0  0  0  0  0  0  0
   56.1100   30.0400   44.2450 C   0  0  0  0  0  0  0  0  0  0  0  0
   55.1740   29.4640   44.8620 O   0  0  0  0  0  0  0  0  0  0  0  0
   57.0250   30.8510   44.9240 O   0  0  0  0  0  0  0  0  0  0  0  0
   58.4220   30.5660   44.9950 C   0  0  0  0  0  0  0  0  0  0  0  0
   58.6790   29.5010   45.9930 N   0  0  0  0  0  0  0  0  0  0  0  0
   58.8820   29.8540   47.3130 C   0  0  0  0  0  0  0  0  0  0  0  0
   58.5240   31.5460   47.8760 S   0  0  0  0  0  0  0  0  0  0  0  0
   60.1560   32.1830   47.4620 C   0  0  0  0  0  0  0  0  0  0  0  0
   60.3010   33.3840   46.7550 C   0  0  0  0  0  0  0  0  0  0  0  0
   61.5760   33.8670   46.4420 C   0  0  0  0  0  0  0  0  0  0  0  0
   62.7100   33.1450   46.8220 C   0  0  0  0  0  0  0  0  0  0  0  0
   62.5700   31.9340   47.5050 C   0  0  0  0  0  0  0  0  0  0  0  0
   61.2970   31.4500   47.8160 C   0  0  0  0  0  0  0  0  0  0  0  0
   59.3460   28.8940   48.2440 C   0  0  0  0  0  0  0  0  0  0  0  0
   59.7210   29.2690   49.6320 C   0  0  0  0  0  0  0  0  0  0  0  0
   61.1250   29.1140   50.1330 C   0  0  0  0  0  0  0  0  0  0  0  0
   58.8540   29.7670   50.3990 O   0  0  0  0  0  0  0  0  0  0  0  0
   59.4800   27.5690   47.8080 C   0  0  0  0  0  0  0  0  0  0  0  0
   59.8890   26.6650   48.5850 O   0  0  0  0  0  0  0  0  0  0  0  0
   59.1860   27.2480   46.5290 N   0  0  0  0  0  0  0  0  0  0  0  0
   58.7960   28.1760   45.6240 C   0  0  0  0  0  0  0  0  0  0  0  0
   58.4790   27.6400   44.1030 S   0  0  0  0  0  0  0  0  0  0  0  0
   56.9252   28.9448   42.6143 H   0  0  0  0  0  0  0  0  0  0  0  0
   55.2922   29.6345   42.3240 H   0  0  0  0  0  0  0  0  0  0  0  0
   56.7331   30.7071   42.3240 H   0  0  0  0  0  0  0  0  0  0  0  0
   58.7748   30.2316   44.0083 H   0  0  0  0  0  0  0  0  0  0  0  0
   58.9584   31.4774   45.2977 H   0  0  0  0  0  0  0  0  0  0  0  0
   59.4094   33.9488   46.4451 H   0  0  0  0  0  0  0  0  0  0  0  0
   61.6857   34.8158   45.8964 H   0  0  0  0  0  0  0  0  0  0  0  0
   63.7126   33.5296   46.5837 H   0  0  0  0  0  0  0  0  0  0  0  0
   63.4625   31.3616   47.7979 H   0  0  0  0  0  0  0  0  0  0  0  0
   61.1896   30.4894   48.3410 H   0  0  0  0  0  0  0  0  0  0  0  0
   61.1239   29.1141   51.2330 H   0  0  0  0  0  0  0  0  0  0  0  0
   61.5422   28.1643   49.7669 H   0  0  0  0  0  0  0  0  0  0  0  0
   61.7393   29.9498   49.7669 H   0  0  0  0  0  0  0  0  0  0  0  0
  1  2  1  0
  2  3  2  0
  2  4  1  0
  4  5  1  0
  5  6  1  0
  6  7  1  0
  7  8  1  0
  8  9  1  0
  9 10  2  0
 10 11  1  0
 11 12  2  0
 12 13  1  0
 13 14  2  0
  7 15  2  0
 15 16  1  0
 16 17  1  0
 16 18  2  0
 15 19  1  0
 19 20  2  0
 19 21  1  0
 21 22  1  0
 22 23  2  0
 22  6  1  0
 14  9  1  0
  1 24  1  0
  1 25  1  0
  1 26  1  0
  5 27  1  0
  5 28  1  0
 10 29  1  0
 11 30  1  0
 12 31  1  0
 13 32  1  0
 14 33  1  0
 17 34  1  0
 17 35  1  0
 17 36  1  0
M  CHG  1  21  -1
M  END
>  <UniqueID>  (44) 
38

>  <SMILES>  (44) 
CC(=O)OCn1c(Sc2ccccc2)c(C(C)=O)c(=O)[n-]c1=S

>  <Energy>  (44) 
44.34968070468326

>  <Genealogy>  (44) 
CC(=O)OCn1c(Sc2ccccc2)c(C(C)=O)c(=O)[n-]c1=S (protonated)
CC(=O)OCn1c(Sc2ccccc2)c(C(C)=O)c(=O)[n-]c1=S (3D coordinates assigned)
CC(=O)OCn1c(Sc2ccccc2)c(C(C)=O)c(=O)[n-]c1=S (optimized conformer: 44.34968070468326 kcal/mol)

>  <smiles>  (44) 
CC(=O)OCn1c(Sc2ccccc2)c(C(C)=O)c(=O)[nH]c1=S

>  <score_type>  (44) 
oracle

>  <origin>  (44) 
adg

>  <m_score__min__energy>  (44) 
-8.4700000000000006

>  <m_primary>  (44) 
energy

$$$$
44:0
     RDKit          3D

 41 43  0  0  0  0  0  0  0  0999 V2000
   56.0800   23.4790   47.6260 C   0  0  0  0  0  0  0  0  0  0  0  0
   57.1450   24.4130   47.3010 N   0  0  0  0  0  0  0  0  0  0  0  0
   56.9960   25.7100   46.7050 C   0  0  0  0  0  0  0  0  0  0  0  0
   55.8430   26.0440   46.3250 O   0  0  0  0  0  0  0  0  0  0  0  0
   58.1690   26.6260   46.3820 C   0  0  1  0  0  0  0  0  0  0  0  0
   58.5270   26.7270   44.8680 C   0  0  1  0  0  0  0  0  0  0  0  0
   57.4420   26.3430   44.0580 O   0  0  0  0  0  0  0  0  0  0  0  0
   58.8350   28.2340   44.6010 C   0  0  2  0  0  0  0  0  0  0  0  0
   60.6480   28.5210   44.6480 S   0  0  0  0  0  0  0  0  0  0  0  0
   58.0220   28.9980   45.6840 C   0  0  2  0  0  0  0  0  0  0  0  0
   56.7340   29.3440   45.2320 O   0  0  0  0  0  0  0  0  0  0  0  0
   58.6300   29.9820   46.5730 C   0  0  1  0  0  0  0  0  0  0  0  0
   57.7720   31.1250   46.8700 N   0  0  0  0  0  0  0  0  0  0  0  0
   57.5520   32.1930   45.9420 C   0  0  0  0  0  0  0  0  0  0  0  0
   56.6680   32.0780   45.0510 O   0  0  0  0  0  0  0  0  0  0  0  0
   58.3990   33.4050   46.0040 C   0  0  0  0  0  0  0  0  0  0  0  0
   58.5470   34.1800   44.8390 C   0  0  0  0  0  0  0  0  0  0  0  0
   59.2770   35.3700   44.8630 C   0  0  0  0  0  0  0  0  0  0  0  0
   59.8710   35.8010   46.0480 C   0  0  0  0  0  0  0  0  0  0  0  0
   59.7520   35.0370   47.2080 C   0  0  0  0  0  0  0  0  0  0  0  0
   59.0340   33.8290   47.2000 C   0  0  0  0  0  0  0  0  0  0  0  0
   59.0170   33.0330   48.3930 N   0  0  0  0  0  0  0  0  0  0  0  0
   58.5300   28.9670   47.6630 C   0  0  0  0  0  0  0  0  0  0  0  0
   58.8880   28.9230   48.8690 O   0  0  0  0  0  0  0  0  0  0  0  0
   57.9170   28.0070   46.7090 N   0  0  0  0  0  0  0  0  0  0  0  0
   55.9857   23.3963   48.7188 H   0  0  0  0  0  0  0  0  0  0  0  0
   55.1319   23.8422   47.2026 H   0  0  0  0  0  0  0  0  0  0  0  0
   56.3163   22.4916   47.2026 H   0  0  0  0  0  0  0  0  0  0  0  0
   58.9670   26.1560   46.9756 H   0  0  0  0  0  0  0  0  0  0  0  0
   59.3735   26.0656   44.6314 H   0  0  0  0  0  0  0  0  0  0  0  0
   56.6340   26.7760   44.4380 H   0  0  0  0  0  0  0  0  0  0  0  0
   58.5366   28.5888   43.6035 H   0  0  0  0  0  0  0  0  0  0  0  0
   60.8840   27.9360   43.3890 H   0  0  0  0  0  0  0  0  0  0  0  0
   56.4240   30.0900   45.8090 H   0  0  0  0  0  0  0  0  0  0  0  0
   59.5678   30.4821   46.2892 H   0  0  0  0  0  0  0  0  0  0  0  0
   58.0828   33.8450   43.8997 H   0  0  0  0  0  0  0  0  0  0  0  0
   59.3834   35.9679   43.9459 H   0  0  0  0  0  0  0  0  0  0  0  0
   60.4346   36.7455   46.0679 H   0  0  0  0  0  0  0  0  0  0  0  0
   60.2249   35.3832   48.1389 H   0  0  0  0  0  0  0  0  0  0  0  0
   58.6580   32.0530   48.4000 H   0  0  0  0  0  0  0  0  0  0  0  0
   59.4900   33.3710   49.2610 H   0  0  0  0  0  0  0  0  0  0  0  0
  1  2  1  0
  2  3  1  0
  3  4  2  0
  3  5  1  0
  5  6  1  0
  6  7  1  0
  6  8  1  0
  8  9  1  0
  8 10  1  0
 10 11  1  6
 10 12  1  0
 12 13  1  0
 13 14  1  0
 14 15  2  0
 14 16  1  0
 16 17  2  0
 17 18  1  0
 18 19  2  0
 19 20  1  0
 20 21  2  0
 21 22  1  0
 12 23  1  0
 23 24  2  0
 23 25  1  0
 25  5  1  0
 25 10  1  0
 21 16  1  0
  1 26  1  0
  1 27  1  0
  1 28  1  0
  5 29  1  1
  6 30  1  1
  7 31  1  0
  8 32  1  6
  9 33  1  0
 11 34  1  0
 12 35  1  6
 17 36  1  0
 18 37  1  0
 19 38  1  0
 20 39  1  0
 22 40  1  0
 22 41  1  0
M  CHG  2   2  -1  13  -1
M  END
>  <UniqueID>  (45) 
39

>  <SMILES>  (45) 
C[N-]C(=O)[C@H]1[C@@H](O)C(S)C2(O)C([N-]C(=O)c3ccccc3N)C(=O)N12

>  <Energy>  (45) 
110.56764166971445

>  <Genealogy>  (45) 
C[N-]C(=O)C1C(O)C(S)C2(O)C([N-]C(=O)c3ccccc3N)C(=O)N12 (protonated)
C[N-]C(=O)[C@H]1[C@@H](O)C(S)C2(O)C([N-]C(=O)c3ccccc3N)C(=O)N12 (chirality)
C[N-]C(=O)[C@H]1[C@@H](O)C(S)C2(O)C([N-]C(=O)c3ccccc3N)C(=O)N12 (3D coordinates assigned)
C[N-]C(=O)[C@H]1[C@@H](O)C(S)C2(O)C([N-]C(=O)c3ccccc3N)C(=O)N12 (nonaromatic ring conformer: 110.56764166971445 kcal/mol)

>  <smiles>  (45) 
CNC(=O)C1C(O)C(S)C2(O)C(NC(=O)c3ccccc3N)C(=O)N12

>  <score_type>  (45) 
oracle

>  <origin>  (45) 
adg

>  <m_score__min__energy>  (45) 
-11.02

>  <m_primary>  (45) 
energy

$$$$
45:0
     RDKit          3D

 84 89  0  0  0  0  0  0  0  0999 V2000
   65.4690   32.7220   49.7570 C   0  0  0  0  0  0  0  0  0  0  0  0
   65.7730   32.2590   51.1220 N   0  0  0  0  0  0  0  0  0  0  0  0
   67.2230   32.2930   51.3790 C   0  0  0  0  0  0  0  0  0  0  0  0
   65.1530   30.9470   51.4410 C   0  0  0  0  0  0  0  0  0  0  0  0
   63.9760   30.9820   52.4420 C   0  0  0  0  0  0  0  0  0  0  0  0
   63.5460   32.3080   52.7480 O   0  0  0  0  0  0  0  0  0  0  0  0
   62.3230   32.6700   53.3370 C   0  0  0  0  0  0  0  0  0  0  0  0
   62.1370   32.6530   54.7420 C   0  0  0  0  0  0  0  0  0  0  0  0
   60.9250   33.0680   55.3150 C   0  0  0  0  0  0  0  0  0  0  0  0
   59.8710   33.4960   54.5050 C   0  0  0  0  0  0  0  0  0  0  0  0
   60.0510   33.4800   53.1280 C   0  0  0  0  0  0  0  0  0  0  0  0
   58.9200   33.8860   51.9690 S   0  0  0  0  0  0  0  0  0  0  0  0
   59.8970   33.5270   50.6390 C   0  0  0  0  0  0  0  0  0  0  0  0
   59.4030   33.6390   49.2450 C   0  0  0  0  0  0  0  0  0  0  0  0
   59.9070   34.6070   48.3600 C   0  0  0  0  0  0  0  0  0  0  0  0
   59.5040   34.6280   47.0240 C   0  0  0  0  0  0  0  0  0  0  0  0
   58.6070   33.6740   46.5370 C   0  0  0  0  0  0  0  0  0  0  0  0
   58.2660   33.7170   45.1770 O   0  0  0  0  0  0  0  0  0  0  0  0
   58.3840   32.6150   44.2810 C   0  0  0  0  0  0  0  0  0  0  0  0
   57.0190   31.9110   44.1700 C   0  0  0  0  0  0  0  0  0  0  0  0
   56.9390   30.6060   44.8690 N   0  0  0  0  0  0  0  0  0  0  0  0
   58.2230   30.1410   45.4060 C   0  0  0  0  0  0  0  0  0  0  0  0
   58.7400   29.0390   44.4940 C   0  0  0  0  0  0  0  0  0  0  0  0
   57.5300   28.5500   43.7180 C   0  0  0  0  0  0  0  0  0  0  0  0
   56.3990   29.5230   44.0350 C   0  0  0  0  0  0  0  0  0  0  0  0
   58.0930   32.7040   47.4160 C   0  0  0  0  0  0  0  0  0  0  0  0
   58.4940   32.6860   48.7560 C   0  0  0  0  0  0  0  0  0  0  0  0
   61.1590   33.0860   51.1020 C   0  0  0  0  0  0  0  0  0  0  0  0
   62.2780   32.6370   50.1840 C   0  0  0  0  0  0  0  0  0  0  0  0
   61.8080   31.6740   49.1130 C   0  0  0  0  0  0  0  0  0  0  0  0
   61.9940   31.9990   47.7600 C   0  0  0  0  0  0  0  0  0  0  0  0
   61.5530   31.1310   46.7560 C   0  0  0  0  0  0  0  0  0  0  0  0
   60.8890   29.9480   47.0910 C   0  0  0  0  0  0  0  0  0  0  0  0
   60.6500   29.6310   48.4320 C   0  0  0  0  0  0  0  0  0  0  0  0
   59.9580   28.4510   48.7440 O   0  0  0  0  0  0  0  0  0  0  0  0
   59.4690   27.5430   47.7910 C   0  0  0  0  0  0  0  0  0  0  0  0
   58.1000   27.4800   47.4630 C   0  0  0  0  0  0  0  0  0  0  0  0
   57.6430   26.5620   46.5130 C   0  0  0  0  0  0  0  0  0  0  0  0
   58.5490   25.7140   45.8690 C   0  0  0  0  0  0  0  0  0  0  0  0
   59.9130   25.7880   46.1710 C   0  0  0  0  0  0  0  0  0  0  0  0
   60.3720   26.7030   47.1260 C   0  0  0  0  0  0  0  0  0  0  0  0
   61.1330   30.4820   49.4390 C   0  0  0  0  0  0  0  0  0  0  0  0
   61.2360   33.0670   52.5230 C   0  0  0  0  0  0  0  0  0  0  0  0
   64.8659   33.6406   49.8072 H   0  0  0  0  0  0  0  0  0  0  0  0
   66.4078   32.9285   49.2223 H   0  0  0  0  0  0  0  0  0  0  0  0
   64.9063   31.9426   49.2223 H   0  0  0  0  0  0  0  0  0  0  0  0
   65.3360   32.9540   51.7730 H   0  0  0  0  0  0  0  0  0  0  0  0
   67.4030   32.2972   52.4642 H   0  0  0  0  0  0  0  0  0  0  0  0
   67.6954   31.4057   50.9324 H   0  0  0  0  0  0  0  0  0  0  0  0
   67.6533   33.2015   50.9324 H   0  0  0  0  0  0  0  0  0  0  0  0
   64.7831   30.5116   50.5010 H   0  0  0  0  0  0  0  0  0  0  0  0
   65.9417   30.3561   51.9296 H   0  0  0  0  0  0  0  0  0  0  0  0
   63.1294   30.4300   52.0077 H   0  0  0  0  0  0  0  0  0  0  0  0
   64.3260   30.5242   53.3790 H   0  0  0  0  0  0  0  0  0  0  0  0
   62.9546   32.3095   55.3928 H   0  0  0  0  0  0  0  0  0  0  0  0
   60.8046   33.0561   56.4083 H   0  0  0  0  0  0  0  0  0  0  0  0
   58.9228   33.8370   54.9462 H   0  0  0  0  0  0  0  0  0  0  0  0
   60.6262   35.3556   48.7237 H   0  0  0  0  0  0  0  0  0  0  0  0
   59.8961   35.4025   46.3484 H   0  0  0  0  0  0  0  0  0  0  0  0
   58.6939   32.9772   43.2896 H   0  0  0  0  0  0  0  0  0  0  0  0
   59.1373   31.9079   44.6586 H   0  0  0  0  0  0  0  0  0  0  0  0
   56.2541   32.5763   44.5969 H   0  0  0  0  0  0  0  0  0  0  0  0
   56.8617   31.7025   43.1015 H   0  0  0  0  0  0  0  0  0  0  0  0
   58.9414   30.9736   45.4304 H   0  0  0  0  0  0  0  0  0  0  0  0
   58.0949   29.7617   46.4305 H   0  0  0  0  0  0  0  0  0  0  0  0
   59.5023   29.4352   43.8070 H   0  0  0  0  0  0  0  0  0  0  0  0
   59.2129   28.2264   45.0651 H   0  0  0  0  0  0  0  0  0  0  0  0
   57.7430   28.5516   42.6388 H   0  0  0  0  0  0  0  0  0  0  0  0
   57.2633   27.5204   43.9987 H   0  0  0  0  0  0  0  0  0  0  0  0
   55.9947   29.9398   43.1008 H   0  0  0  0  0  0  0  0  0  0  0  0
   55.5906   29.0020   44.5689 H   0  0  0  0  0  0  0  0  0  0  0  0
   57.3736   31.9573   47.0488 H   0  0  0  0  0  0  0  0  0  0  0  0
   58.0935   31.9178   49.4338 H   0  0  0  0  0  0  0  0  0  0  0  0
   62.7086   33.5234   49.6952 H   0  0  0  0  0  0  0  0  0  0  0  0
   63.0208   32.1098   50.8006 H   0  0  0  0  0  0  0  0  0  0  0  0
   62.4898   32.9424   47.4878 H   0  0  0  0  0  0  0  0  0  0  0  0
   61.7294   31.3803   45.6993 H   0  0  0  0  0  0  0  0  0  0  0  0
   60.5533   29.2640   46.2976 H   0  0  0  0  0  0  0  0  0  0  0  0
   57.3873   28.1567   47.9571 H   0  0  0  0  0  0  0  0  0  0  0  0
   56.5711   26.5068   46.2722 H   0  0  0  0  0  0  0  0  0  0  0  0
   58.1892   24.9884   45.1246 H   0  0  0  0  0  0  0  0  0  0  0  0
   60.6259   25.1263   45.6573 H   0  0  0  0  0  0  0  0  0  0  0  0
   61.4462   26.7627   47.3553 H   0  0  0  0  0  0  0  0  0  0  0  0
   60.9823   30.2143   50.4952 H   0  0  0  0  0  0  0  0  0  0  0  0
  1  2  1  0
  2  3  1  0
  2  4  1  0
  4  5  1  0
  5  6  1  0
  6  7  1  0
  7  8  2  0
  8  9  1  0
  9 10  2  0
 10 11  1  0
 11 12  1  0
 12 13  1  0
 13 14  1  0
 14 15  2  0
 15 16  1  0
 16 17  2  0
 17 18  1  0
 18 19  1  0
 19 20  1  0
 20 21  1  0
 21 22  1  0
 22 23  1  0
 23 24  1  0
 24 25  1  0
 17 26  1  0
 26 27  2  0
 13 28  2  0
 28 29  1  0
 29 30  1  0
 30 31  2  0
 31 32  1  0
 32 33  2  0
 33 34  1  0
 34 35  1  0
 35 36  1  0
 36 37  2  0
 37 38  1  0
 38 39  2  0
 39 40  1  0
 40 41  2  0
 34 42  2  0
 28 43  1  0
 43  7  1  0
 43 11  2  0
 27 14  1  0
 42 30  1  0
 25 21  1  0
 41 36  1  0
  1 44  1  0
  1 45  1  0
  1 46  1  0
  2 47  1  0
  3 48  1  0
  3 49  1  0
  3 50  1  0
  4 51  1  0
  4 52  1  0
  5 53  1  0
  5 54  1  0
  8 55  1  0
  9 56  1  0
 10 57  1  0
 15 58  1  0
 16 59  1  0
 19 60  1  0
 19 61  1  0
 20 62  1  0
 20 63  1  0
 22 64  1  0
 22 65  1  0
 23 66  1  0
 23 67  1  0
 24 68  1  0
 24 69  1  0
 25 70  1  0
 25 71  1  0
 26 72  1  0
 27 73  1  0
 29 74  1  0
 29 75  1  0
 31 76  1  0
 32 77  1  0
 33 78  1  0
 37 79  1  0
 38 80  1  0
 39 81  1  0
 40 82  1  0
 41 83  1  0
 42 84  1  0
M  CHG  1   2   1
M  END
>  <UniqueID>  (46) 
40

>  <SMILES>  (46) 
C[NH+](C)CCOc1cccc2sc(-c3ccc(OCCN4CCCC4)cc3)c(Cc3cccc(Oc4ccccc4)c3)c12

>  <Energy>  (46) 
139.1741009213163

>  <Genealogy>  (46) 
C[NH+](C)CCOc1cccc2sc(-c3ccc(OCCN4CCCC4)cc3)c(Cc3cccc(Oc4ccccc4)c3)c12 (protonated)
C[NH+](C)CCOc1cccc2sc(-c3ccc(OCCN4CCCC4)cc3)c(Cc3cccc(Oc4ccccc4)c3)c12 (3D coordinates assigned)
C[NH+](C)CCOc1cccc2sc(-c3ccc(OCCN4CCCC4)cc3)c(Cc3cccc(Oc4ccccc4)c3)c12 (nonaromatic ring conformer: 139.1741009213163 kcal/mol)

>  <smiles>  (46) 
CN(C)CCOc1cccc2sc(-c3ccc(OCCN4CCCC4)cc3)c(Cc3cccc(Oc4ccccc4)c3)c12

>  <score_type>  (46) 
oracle

>  <origin>  (46) 
adg

>  <m_score__min__energy>  (46) 
-9.5600000000000005

>  <m_primary>  (46) 
energy

$$$$
46:0
     RDKit          3D

 52 55  0  0  0  0  0  0  0  0999 V2000
   55.7799   28.8275   44.2599 H   0  0  0  0  0  0  0  0  0  0  0  0
   56.6170   29.1410   44.9010 C   0  0  0  0  0  0  0  0  0  0  0  0
   56.9860   30.4490   44.9400 N   0  0  0  0  0  0  0  0  0  0  0  0
   58.0180   30.8970   45.7070 C   0  0  0  0  0  0  0  0  0  0  0  0
   58.3510   32.3020   45.7040 N   0  0  0  0  0  0  0  0  0  0  0  0
   58.1490   33.1250   44.5030 C   0  0  0  0  0  0  0  0  0  0  0  0
   59.0297   33.0359   43.8500 H   0  0  0  0  0  0  0  0  0  0  0  0
   57.2505   32.7724   43.9754 H   0  0  0  0  0  0  0  0  0  0  0  0
   57.9540   34.5940   44.8900 C   0  0  0  0  0  0  0  0  0  0  0  0
   57.9573   35.2103   43.9788 H   0  0  0  0  0  0  0  0  0  0  0  0
   56.9940   34.6947   45.4176 H   0  0  0  0  0  0  0  0  0  0  0  0
   58.9900   35.0300   45.7480 O   0  0  0  0  0  0  0  0  0  0  0  0
   58.9110   34.3350   46.9760 C   0  0  0  0  0  0  0  0  0  0  0  0
   59.6504   34.7528   47.6751 H   0  0  0  0  0  0  0  0  0  0  0  0
   57.8945   34.4486   47.3807 H   0  0  0  0  0  0  0  0  0  0  0  0
   59.1960   32.8430   46.7760 C   0  0  0  0  0  0  0  0  0  0  0  0
   60.2541   32.7086   46.5069 H   0  0  0  0  0  0  0  0  0  0  0  0
   58.9741   32.3078   47.7111 H   0  0  0  0  0  0  0  0  0  0  0  0
   58.7310   29.9750   46.4910 C   0  0  0  0  0  0  0  0  0  0  0  0
   59.5673   30.3143   47.1199 H   0  0  0  0  0  0  0  0  0  0  0  0
   58.3730   28.6260   46.4680 C   0  0  0  0  0  0  0  0  0  0  0  0
   58.9358   27.9015   47.0749 H   0  0  0  0  0  0  0  0  0  0  0  0
   57.3000   28.1870   45.6760 C   0  0  0  0  0  0  0  0  0  0  0  0
   56.9310   26.7470   45.6520 C   0  0  0  0  0  0  0  0  0  0  0  0
   55.6130   26.3980   45.6540 N   0  0  0  0  0  0  0  0  0  0  0  0
   55.1870   25.1060   45.6250 C   0  0  0  0  0  0  0  0  0  0  0  0
   53.9040   24.8770   45.6430 N   0  0  0  0  0  0  0  0  0  0  0  0
   53.2280   23.6950   46.0980 C   0  0  0  0  0  0  0  0  0  0  0  0
   51.9860   23.3190   45.5750 C   0  0  0  0  0  0  0  0  0  0  0  0
   51.5224   23.9078   44.7698 H   0  0  0  0  0  0  0  0  0  0  0  0
   51.3410   22.1930   46.0820 C   0  0  0  0  0  0  0  0  0  0  0  0
   50.3739   21.8809   45.6608 H   0  0  0  0  0  0  0  0  0  0  0  0
   51.9000   21.4770   47.0950 N   0  0  0  0  0  0  0  0  0  0  0  0
   51.3690   20.6520   47.4480 H   0  0  0  0  0  0  0  0  0  0  0  0
   53.0960   21.8330   47.6590 C   0  0  0  0  0  0  0  0  0  0  0  0
   53.6590   21.0530   48.7450 N   0  0  0  0  0  0  0  0  0  0  0  0
   54.5600   19.9280   48.4710 C   0  0  0  0  0  0  0  0  0  0  0  0
   54.9063   19.4957   49.4214 H   0  0  0  0  0  0  0  0  0  0  0  0
   54.0236   19.1610   47.8931 H   0  0  0  0  0  0  0  0  0  0  0  0
   55.4257   20.2839   47.8931 H   0  0  0  0  0  0  0  0  0  0  0  0
   53.3410   21.3870   50.1380 C   0  0  0  0  0  0  0  0  0  0  0  0
   53.9404   20.7574   50.8120 H   0  0  0  0  0  0  0  0  0  0  0  0
   53.5726   22.4463   50.3231 H   0  0  0  0  0  0  0  0  0  0  0  0
   52.2716   21.2077   50.3231 H   0  0  0  0  0  0  0  0  0  0  0  0
   53.7670   22.9680   47.1630 C   0  0  0  0  0  0  0  0  0  0  0  0
   54.7187   23.2832   47.6156 H   0  0  0  0  0  0  0  0  0  0  0  0
   56.1450   24.0740   45.6200 C   0  0  0  0  0  0  0  0  0  0  0  0
   55.8259   23.0213   45.6286 H   0  0  0  0  0  0  0  0  0  0  0  0
   57.5010   24.3970   45.6040 C   0  0  0  0  0  0  0  0  0  0  0  0
   58.2558   23.5971   45.5850 H   0  0  0  0  0  0  0  0  0  0  0  0
   57.9020   25.7320   45.6120 C   0  0  0  0  0  0  0  0  0  0  0  0
   58.9712   25.9892   45.5872 H   0  0  0  0  0  0  0  0  0  0  0  0
  1  2  1  0
  2  3  2  0
  3  4  1  0
  4  5  1  0
  5  6  1  0
  6  7  1  0
  6  8  1  0
  6  9  1  0
  9 10  1  0
  9 11  1  0
  9 12  1  0
 12 13  1  0
 13 14  1  0
 13 15  1  0
 13 16  1  0
 16 17  1  0
 16 18  1  0
  4 19  2  0
 19 20  1  0
 19 21  1  0
 21 22  1  0
 21 23  2  0
 23 24  1  0
 24 25  1  0
 25 26  1  0
 26 27  2  0
 27 28  1  0
 28 29  2  0
 29 30  1  0
 29 31  1  0
 31 32  1  0
 31 33  2  0
 33 34  1  0
 33 35  1  0
 35 36  1  0
 36 37  1  0
 37 38  1  0
 37 39  1  0
 37 40  1  0
 36 41  1  0
 41 42  1  0
 41 43  1  0
 41 44  1  0
 35 45  2  0
 45 46  1  0
 26 47  1  0
 47 48  1  0
 47 49  2  0
 49 50  1  0
 49 51  1  0
 51 52  1  0
 23  2  1  0
 51 24  2  0
 16  5  1  0
 45 28  1  0
M  CHG  2  25  -1  33   1
M  END
>  <UniqueID>  (47) 
41

>  <SMILES>  (47) 
CN(C)c1cc(/N=c2\cccc(-c3ccc(N4CCOCC4)nc3)[n-]2)cc[nH+]1

>  <Energy>  (47) 
75.24209877602668

>  <Genealogy>  (47) 
CN(C)c1cc(N=c2cccc(-c3ccc(N4CCOCC4)nc3)[n-]2)cc[nH+]1 (protonated)
CN(C)c1cc(/N=c2\cccc(-c3ccc(N4CCOCC4)nc3)[n-]2)cc[nH+]1 (cis-trans isomerization)
CN(C)c1cc(/N=c2\cccc(-c3ccc(N4CCOCC4)nc3)[n-]2)cc[nH+]1 (3D coordinates assigned)
CN(C)c1cc(/N=c2\cccc(-c3ccc(N4CCOCC4)nc3)[n-]2)cc[nH+]1 (nonaromatic ring conformer: 75.24209877602668 kcal/mol)

>  <smiles>  (47) 
CN(C)c1cc(N=c2cccc(-c3ccc(N4CCOCC4)nc3)[nH]2)ccn1

>  <score_type>  (47) 
oracle

>  <origin>  (47) 
adg

>  <m_score__min__energy>  (47) 
-7.9699999999999998

>  <m_primary>  (47) 
energy

$$$$
47:0
     RDKit          3D

 48 52  0  0  0  0  0  0  0  0999 V2000
   58.8860   29.9470   44.2670 N   0  0  0  0  0  0  0  0  0  0  0  0
   57.5530   30.3710   45.2820 S   0  0  0  0  0  0  0  0  0  0  0  0
   56.8530   29.1250   45.7480 O   0  0  0  0  0  0  0  0  0  0  0  0
   56.5770   31.2100   44.5050 O   0  0  0  0  0  0  0  0  0  0  0  0
   58.1420   31.2780   46.6720 C   0  0  0  0  0  0  0  0  0  0  0  0
   57.9430   32.6620   46.7480 C   0  0  0  0  0  0  0  0  0  0  0  0
   58.4210   33.3810   47.8470 C   0  0  0  0  0  0  0  0  0  0  0  0
   59.1170   32.7280   48.8750 C   0  0  0  0  0  0  0  0  0  0  0  0
   59.6030   33.4920   50.0770 C   0  0  0  0  0  0  0  0  0  0  0  0
   58.6370   33.3750   51.1680 N   0  0  0  0  0  0  0  0  0  0  0  0
   58.0010   32.2880   51.4880 C   0  0  0  0  0  0  0  0  0  0  0  0
   56.6380   32.2750   51.5950 N   0  0  0  0  0  0  0  0  0  0  0  0
   56.0330   31.1160   51.9470 C   0  0  0  0  0  0  0  0  0  0  0  0
   54.6870   30.8350   52.0910 C   0  0  0  0  0  0  0  0  0  0  0  0
   53.6120   31.6300   51.9840 C   0  0  0  0  0  0  0  0  0  0  0  0
   52.5750   31.4990   50.9490 C   0  0  0  0  0  0  0  0  0  0  0  0
   52.5450   30.4970   50.0540 N   0  0  0  0  0  0  0  0  0  0  0  0
   51.3840   30.7000   49.3930 C   0  0  0  0  0  0  0  0  0  0  0  0
   51.0040   29.9620   48.4470 O   0  0  0  0  0  0  0  0  0  0  0  0
   50.6600   31.7510   49.8310 N   0  0  0  0  0  0  0  0  0  0  0  0
   51.4180   32.2370   50.8260 C   0  0  0  0  0  0  0  0  0  0  0  0
   51.0380   33.3030   51.6330 O   0  0  0  0  0  0  0  0  0  0  0  0
   54.6650   29.4670   52.3580 C   0  0  0  0  0  0  0  0  0  0  0  0
   55.9300   28.9800   52.3920 N   0  0  0  0  0  0  0  0  0  0  0  0
   56.7370   29.9980   52.1410 N   0  0  0  0  0  0  0  0  0  0  0  0
   58.0880   29.9790   52.0440 C   0  0  0  0  0  0  0  0  0  0  0  0
   58.7400   28.8660   52.2530 N   0  0  0  0  0  0  0  0  0  0  0  0
   59.0890   28.1280   53.4820 C   0  0  0  0  0  0  0  0  0  0  0  0
   58.3250   28.4870   54.7470 C   0  0  0  0  0  0  0  0  0  0  0  0
   58.0490   27.1640   54.0300 C   0  0  0  0  0  0  0  0  0  0  0  0
   58.7150   31.1450   51.7210 N   0  0  0  0  0  0  0  0  0  0  0  0
   59.3100   31.3400   48.7990 C   0  0  0  0  0  0  0  0  0  0  0  0
   58.8310   30.6200   47.7000 C   0  0  0  0  0  0  0  0  0  0  0  0
   58.5620   30.0540   43.2790 H   0  0  0  0  0  0  0  0  0  0  0  0
   59.6280   30.6660   44.4210 H   0  0  0  0  0  0  0  0  0  0  0  0
   57.4091   33.1846   45.9407 H   0  0  0  0  0  0  0  0  0  0  0  0
   58.2503   34.4661   47.9062 H   0  0  0  0  0  0  0  0  0  0  0  0
   60.5709   33.0826   50.4020 H   0  0  0  0  0  0  0  0  0  0  0  0
   59.7177   34.5525   49.8085 H   0  0  0  0  0  0  0  0  0  0  0  0
   53.4978   32.4371   52.7226 H   0  0  0  0  0  0  0  0  0  0  0  0
   53.7549   28.8701   52.5177 H   0  0  0  0  0  0  0  0  0  0  0  0
   60.1530   28.0516   53.2134 H   0  0  0  0  0  0  0  0  0  0  0  0
   58.8397   28.4895   55.7191 H   0  0  0  0  0  0  0  0  0  0  0  0
   57.7113   29.3405   55.0708 H   0  0  0  0  0  0  0  0  0  0  0  0
   58.3650   26.2142   54.4862 H   0  0  0  0  0  0  0  0  0  0  0  0
   57.1540   26.6702   53.6237 H   0  0  0  0  0  0  0  0  0  0  0  0
   59.8405   30.8160   49.6077 H   0  0  0  0  0  0  0  0  0  0  0  0
   58.9955   29.5339   47.6422 H   0  0  0  0  0  0  0  0  0  0  0  0
  1  2  1  0
  2  3  2  0
  2  4  2  0
  2  5  1  0
  5  6  2  0
  6  7  1  0
  7  8  2  0
  8  9  1  0
  9 10  1  0
 10 11  2  3
 11 12  1  0
 12 13  2  0
 13 14  1  0
 14 15  2  3
 15 16  1  0
 16 17  1  0
 17 18  1  0
 18 19  2  0
 18 20  1  0
 20 21  1  0
 21 22  1  0
 14 23  1  0
 23 24  2  0
 24 25  1  0
 25 26  1  0
 26 27  2  3
 27 28  1  0
 28 29  1  0
 29 30  1  0
 26 31  1  0
  8 32  1  0
 32 33  2  0
 33  5  1  0
 31 11  1  0
 25 13  1  0
 30 28  1  0
 21 16  2  0
  1 34  1  0
  1 35  1  0
  6 36  1  0
  7 37  1  0
  9 38  1  0
  9 39  1  0
 15 40  1  0
 23 41  1  0
 28 42  1  0
 29 43  1  0
 29 44  1  0
 30 45  1  0
 30 46  1  0
 32 47  1  0
 33 48  1  0
M  CHG  4  17  -1  20  -1  22  -1  31  -1
M  END
>  <UniqueID>  (48) 
42

>  <SMILES>  (48) 
NS(=O)(=O)c1ccc(CN=c2nc3c(=Cc4[n-]c(=O)[n-]c4[O-])cnn3c(=NC3CC3)[n-]2)cc1

>  <Energy>  (48) 
398.9101166512954

>  <Genealogy>  (48) 
NS(=O)(=O)c1ccc(CN=c2nc3c(=Cc4[n-]c(=O)[n-]c4[O-])cnn3c(=NC3CC3)[n-]2)cc1 (protonated)
NS(=O)(=O)c1ccc(CN=c2nc3c(=Cc4[n-]c(=O)[n-]c4[O-])cnn3c(=NC3CC3)[n-]2)cc1 (3D coordinates assigned)
NS(=O)(=O)c1ccc(CN=c2nc3c(=Cc4[n-]c(=O)[n-]c4[O-])cnn3c(=NC3CC3)[n-]2)cc1 (nonaromatic ring conformer: 398.9101166512954 kcal/mol)

>  <smiles>  (48) 
NS(=O)(=O)c1ccc(CN=c2nc3c(=Cc4[nH]c(=O)[nH]c4O)cnn3c(=NC3CC3)[nH]2)cc1

>  <score_type>  (48) 
oracle

>  <origin>  (48) 
adg

>  <m_score__min__energy>  (48) 
-19.02

>  <m_primary>  (48) 
energy

$$$$
48:0
     RDKit          3D

 32 33  0  0  1  0  0  0  0  0999 V2000
   54.9930   22.8780   47.9660 N   0  0  0  0  0  0  0  0  0  0  0  0
   56.5910   23.4460   47.6310 S   0  0  0  0  0  0  0  0  0  0  0  0
   57.3610   22.4240   46.8320 O   0  0  0  0  0  0  0  0  0  0  0  0
   57.3200   23.6010   48.9280 O   0  0  0  0  0  0  0  0  0  0  0  0
   56.4550   24.9550   46.7970 C   0  0  0  0  0  0  0  0  0  0  0  0
   55.7000   25.7510   46.3170 N   0  0  0  0  0  0  0  0  0  0  0  0
   55.9240   26.8650   45.7240 N   0  0  0  0  0  0  0  0  0  0  0  0
   57.1950   27.2270   45.6050 C   0  0  0  0  0  0  0  0  0  0  0  0
   57.8080   28.2560   45.0820 N   0  0  0  0  0  0  0  0  0  0  0  0
   57.0130   29.3540   44.6680 C   0  0  0  0  0  0  0  0  0  0  0  0
   55.7860   29.3330   44.9200 O   0  0  0  0  0  0  0  0  0  0  0  0
   57.6090   30.5120   43.9510 C   0  0  0  0  0  0  0  0  0  0  0  0
   57.0870   31.8130   44.5170 C   0  0  0  0  0  0  0  0  0  0  0  0
   57.9860   32.9470   44.0670 C   0  0  0  0  0  0  0  0  0  0  0  0
   58.5080   33.6680   45.2540 C   0  0  0  0  0  0  0  0  0  0  0  0
   59.2730   34.7910   45.2900 C   0  0  0  0  0  0  0  0  0  0  0  0
   59.6540   35.3060   46.4610 C   0  0  0  0  0  0  0  0  0  0  0  0
   59.1950   34.5880   47.5980 C   0  0  0  0  0  0  0  0  0  0  0  0
   58.2340   33.2020   46.9390 S   0  0  0  0  0  0  0  0  0  0  0  0
   58.1250   25.8390   46.4170 S   0  0  0  0  0  0  0  0  0  0  0  0
   54.8980   22.8430   49.0060 H   0  0  0  0  0  0  0  0  0  0  0  0
   54.3410   23.6350   47.6530 H   0  0  0  0  0  0  0  0  0  0  0  0
   55.1430   27.4880   45.3390 H   0  0  0  0  0  0  0  0  0  0  0  0
   58.7030   30.4822   44.0623 H   0  0  0  0  0  0  0  0  0  0  0  0
   57.3334   30.4514   42.8878 H   0  0  0  0  0  0  0  0  0  0  0  0
   56.0636   31.9882   44.1538 H   0  0  0  0  0  0  0  0  0  0  0  0
   57.0781   31.7615   45.6158 H   0  0  0  0  0  0  0  0  0  0  0  0
   58.8270   32.5395   43.4868 H   0  0  0  0  0  0  0  0  0  0  0  0
   57.4101   33.6436   43.4400 H   0  0  0  0  0  0  0  0  0  0  0  0
   59.5789   35.2767   44.3516 H   0  0  0  0  0  0  0  0  0  0  0  0
   60.2727   36.2121   46.5394 H   0  0  0  0  0  0  0  0  0  0  0  0
   59.3837   34.8243   48.6556 H   0  0  0  0  0  0  0  0  0  0  0  0
  1  2  1  0
  2  3  2  0
  2  4  2  0
  2  5  1  0
  5  6  2  0
  6  7  1  0
  7  8  1  0
  8  9  2  0
  9 10  1  0
 10 11  2  0
 10 12  1  0
 12 13  1  0
 13 14  1  0
 14 15  1  0
 15 16  2  0
 16 17  1  0
 17 18  2  0
 18 19  1  0
  8 20  1  0
 20  5  1  0
 19 15  1  0
  1 21  1  0
  1 22  1  0
  7 23  1  0
 12 24  1  0
 12 25  1  0
 13 26  1  0
 13 27  1  0
 14 28  1  0
 14 29  1  0
 16 30  1  0
 17 31  1  0
 18 32  1  0
M  END
>  <smiles>  (49) 
NS(=O)(=O)c1n[nH]c(=NC(=O)CCCc2cccs2)s1

>  <score_type>  (49) 
oracle

>  <origin>  (49) 
adg

>  <m_score__min__energy>  (49) 
-7.8200000000000003

>  <m_primary>  (49) 
energy

$$$$
49:0
     RDKit          3D

 32 33  0  0  0  0  0  0  0  0999 V2000
   60.6030   26.5520   46.4140 C   0  0  0  0  0  0  0  0  0  0  0  0
   59.1550   26.6300   46.2310 C   0  0  0  0  0  0  0  0  0  0  0  0
   57.9600   26.6860   46.0850 C   0  0  0  0  0  0  0  0  0  0  0  0
   56.5340   26.7670   45.8960 C   0  0  0  0  0  0  0  0  0  0  0  0
   55.8020   25.8590   46.3700 O   0  0  0  0  0  0  0  0  0  0  0  0
   55.9260   27.8910   45.2460 N   0  0  0  0  0  0  0  0  0  0  0  0
   56.5460   29.1620   44.9990 C   0  0  0  0  0  0  0  0  0  0  0  0
   56.3410   29.7870   43.7510 C   0  0  0  0  0  0  0  0  0  0  0  0
   56.9160   31.0380   43.4700 C   0  0  0  0  0  0  0  0  0  0  0  0
   57.7110   31.6440   44.4420 C   0  0  0  0  0  0  0  0  0  0  0  0
   58.3050   32.8560   44.3040 N   0  0  0  0  0  0  0  0  0  0  0  0
   59.0060   33.1760   45.4180 C   0  0  0  0  0  0  0  0  0  0  0  0
   59.8860   34.7230   45.6160 S   0  0  0  0  0  0  0  0  0  0  0  0
   59.9960   34.6030   47.4350 C   0  0  0  0  0  0  0  0  0  0  0  0
   61.3110   34.0280   47.8520 C   0  0  0  0  0  0  0  0  0  0  0  0
   61.7250   34.2000   49.0310 O   0  0  0  0  0  0  0  0  0  0  0  0
   62.0860   33.3350   46.9170 O   0  0  0  0  0  0  0  0  0  0  0  0
   63.4760   33.0940   47.1000 C   0  0  0  0  0  0  0  0  0  0  0  0
   58.9300   31.9720   46.6050 S   0  0  0  0  0  0  0  0  0  0  0  0
   57.9410   31.0100   45.6530 C   0  0  0  0  0  0  0  0  0  0  0  0
   57.3860   29.7710   45.9560 C   0  0  0  0  0  0  0  0  0  0  0  0
   60.8366   26.5394   47.4888 H   0  0  0  0  0  0  0  0  0  0  0  0
   60.9828   25.6321   45.9454 H   0  0  0  0  0  0  0  0  0  0  0  0
   61.0794   27.4258   45.9454 H   0  0  0  0  0  0  0  0  0  0  0  0
   55.7237   29.2891   42.9888 H   0  0  0  0  0  0  0  0  0  0  0  0
   56.7422   31.5299   42.5016 H   0  0  0  0  0  0  0  0  0  0  0  0
   59.8880   35.6077   47.8696 H   0  0  0  0  0  0  0  0  0  0  0  0
   59.1933   33.9417   47.7932 H   0  0  0  0  0  0  0  0  0  0  0  0
   63.7028   33.0547   48.1756 H   0  0  0  0  0  0  0  0  0  0  0  0
   63.7466   32.1355   46.6329 H   0  0  0  0  0  0  0  0  0  0  0  0
   64.0534   33.9054   46.6329 H   0  0  0  0  0  0  0  0  0  0  0  0
   57.5964   29.2784   46.9168 H   0  0  0  0  0  0  0  0  0  0  0  0
  1  2  1  0
  2  3  3  0
  3  4  1  0
  4  5  2  0
  4  6  1  0
  6  7  1  0
  7  8  2  0
  8  9  1  0
  9 10  2  0
 10 11  1  0
 11 12  2  0
 12 13  1  0
 13 14  1  0
 14 15  1  0
 15 16  2  0
 15 17  1  0
 17 18  1  0
 12 19  1  0
 19 20  1  0
 20 21  2  0
 21  7  1  0
 20 10  1  0
  1 22  1  0
  1 23  1  0
  1 24  1  0
  8 25  1  0
  9 26  1  0
 14 27  1  0
 14 28  1  0
 18 29  1  0
 18 30  1  0
 18 31  1  0
 21 32  1  0
M  CHG  1   6  -1
M  END
>  <UniqueID>  (50) 
43

>  <SMILES>  (50) 
CC#CC(=O)[N-]c1ccc2nc(SCC(=O)OC)sc2c1

>  <Energy>  (50) 
56.7535105133261

>  <Genealogy>  (50) 
CC#CC(=O)[N-]c1ccc2nc(SCC(=O)OC)sc2c1 (protonated)
CC#CC(=O)[N-]c1ccc2nc(SCC(=O)OC)sc2c1 (3D coordinates assigned)
CC#CC(=O)[N-]c1ccc2nc(SCC(=O)OC)sc2c1 (optimized conformer: 56.7535105133261 kcal/mol)

>  <smiles>  (50) 
CC#CC(=O)Nc1ccc2nc(SCC(=O)OC)sc2c1

>  <score_type>  (50) 
oracle

>  <origin>  (50) 
adg

>  <m_score__min__energy>  (50) 
-8.2699999999999996

>  <m_primary>  (50) 
energy

$$$$
50:0
     RDKit          3D

 54 57  0  0  0  0  0  0  0  0999 V2000
   56.1970   27.4300   44.7940 H   0  0  0  0  0  0  0  0  0  0  0  0
   56.5730   26.9480   45.6410 N   0  0  0  0  0  0  0  0  0  0  0  0
   57.4730   27.4980   46.3890 C   0  0  0  0  0  0  0  0  0  0  0  0
   57.5820   28.8550   46.4420 N   0  0  0  0  0  0  0  0  0  0  0  0
   58.5160   29.4700   47.2170 C   0  0  0  0  0  0  0  0  0  0  0  0
   58.5789   30.5680   47.2363 H   0  0  0  0  0  0  0  0  0  0  0  0
   59.3960   28.7050   47.9890 C   0  0  0  0  0  0  0  0  0  0  0  0
   60.3880   29.3420   48.8120 C   0  0  0  0  0  0  0  0  0  0  0  0
   61.2280   29.8770   49.4910 C   0  0  0  0  0  0  0  0  0  0  0  0
   62.2480   30.5250   50.2880 C   0  0  0  0  0  0  0  0  0  0  0  0
   62.6300   31.8580   50.0140 C   0  0  0  0  0  0  0  0  0  0  0  0
   61.9720   32.6630   48.9550 C   0  0  0  0  0  0  0  0  0  0  0  0
   62.5620   32.7800   47.6870 C   0  0  0  0  0  0  0  0  0  0  0  0
   63.5181   32.2769   47.4804 H   0  0  0  0  0  0  0  0  0  0  0  0
   61.9420   33.5320   46.6850 C   0  0  0  0  0  0  0  0  0  0  0  0
   62.4051   33.6039   45.6898 H   0  0  0  0  0  0  0  0  0  0  0  0
   60.7320   34.1960   46.9410 C   0  0  0  0  0  0  0  0  0  0  0  0
   60.0530   34.9760   45.8850 C   0  0  0  0  0  0  0  0  0  0  0  0
   60.0060   36.2300   45.9910 O   0  0  0  0  0  0  0  0  0  0  0  0
   59.4680   34.3650   44.7270 N   0  0  0  0  0  0  0  0  0  0  0  0
   58.0370   34.1740   44.4810 C   0  0  2  0  0  0  0  0  0  0  0  0
   57.7130   34.9502   43.7721 H   0  0  0  0  0  0  0  0  0  0  0  0
   57.2740   34.2420   45.8030 C   0  0  0  0  0  0  0  0  0  0  0  0
   57.8707   34.7784   46.5555 H   0  0  0  0  0  0  0  0  0  0  0  0
   56.3226   34.7797   45.6779 H   0  0  0  0  0  0  0  0  0  0  0  0
   57.0290   32.8030   46.2570 C   0  0  0  0  0  0  0  0  0  0  0  0
   57.5287   32.6190   47.2195 H   0  0  0  0  0  0  0  0  0  0  0  0
   55.9550   32.6095   46.3954 H   0  0  0  0  0  0  0  0  0  0  0  0
   57.6160   31.8950   45.1770 C   0  0  1  0  0  0  0  0  0  0  0  0
   58.5716   31.4600   45.5050 H   0  0  0  0  0  0  0  0  0  0  0  0
   56.7670   30.8140   44.8980 O   0  0  0  0  0  0  0  0  0  0  0  0
   56.6440   30.3260   45.7530 H   0  0  0  0  0  0  0  0  0  0  0  0
   57.7840   32.7720   43.9460 C   0  0  0  0  0  0  0  0  0  0  0  0
   58.6383   32.4300   43.3433 H   0  0  0  0  0  0  0  0  0  0  0  0
   56.8988   32.7362   43.2940 H   0  0  0  0  0  0  0  0  0  0  0  0
   60.1370   34.0710   48.2060 C   0  0  0  0  0  0  0  0  0  0  0  0
   59.1761   34.5663   48.4094 H   0  0  0  0  0  0  0  0  0  0  0  0
   60.7580   33.3210   49.2090 C   0  0  0  0  0  0  0  0  0  0  0  0
   60.2928   33.2459   50.2030 H   0  0  0  0  0  0  0  0  0  0  0  0
   63.6680   32.4350   50.7560 C   0  0  0  0  0  0  0  0  0  0  0  0
   63.9902   33.4654   50.5449 H   0  0  0  0  0  0  0  0  0  0  0  0
   64.2920   31.7000   51.7630 C   0  0  0  0  0  0  0  0  0  0  0  0
   65.1038   32.1551   52.3494 H   0  0  0  0  0  0  0  0  0  0  0  0
   63.9030   30.4250   52.0240 N   0  0  0  0  0  0  0  0  0  0  0  0
   64.3960   29.9070   52.7880 H   0  0  0  0  0  0  0  0  0  0  0  0
   62.9030   29.8170   51.3190 C   0  0  0  0  0  0  0  0  0  0  0  0
   62.5290   28.3940   51.6410 C   0  0  0  0  0  0  0  0  0  0  0  0
   62.4943   28.2620   52.7325 H   0  0  0  0  0  0  0  0  0  0  0  0
   61.5411   28.1687   51.2128 H   0  0  0  0  0  0  0  0  0  0  0  0
   63.2784   27.7121   51.2128 H   0  0  0  0  0  0  0  0  0  0  0  0
   59.3030   27.3090   47.9510 C   0  0  0  0  0  0  0  0  0  0  0  0
   59.9891   26.6936   48.5515 H   0  0  0  0  0  0  0  0  0  0  0  0
   58.3360   26.7000   47.1480 C   0  0  0  0  0  0  0  0  0  0  0  0
   58.2537   25.6037   47.1126 H   0  0  0  0  0  0  0  0  0  0  0  0
  1  2  1  0
  2  3  2  0
  3  4  1  0
  4  5  1  0
  5  6  1  0
  5  7  2  0
  7  8  1  0
  8  9  3  0
  9 10  1  0
 10 11  1  0
 11 12  1  0
 12 13  2  0
 13 14  1  0
 13 15  1  0
 15 16  1  0
 15 17  2  0
 17 18  1  0
 18 19  2  0
 18 20  1  0
 20 21  1  0
 21 22  1  6
 21 23  1  0
 23 24  1  0
 23 25  1  0
 23 26  1  0
 26 27  1  0
 26 28  1  0
 26 29  1  0
 29 30  1  1
 29 31  1  0
 31 32  1  0
 29 33  1  0
 33 34  1  0
 33 35  1  0
 17 36  1  0
 36 37  1  0
 36 38  2  0
 38 39  1  0
 11 40  2  0
 40 41  1  0
 40 42  1  0
 42 43  1  0
 42 44  2  0
 44 45  1  0
 44 46  1  0
 46 47  1  0
 47 48  1  0
 47 49  1  0
 47 50  1  0
  7 51  1  0
 51 52  1  0
 51 53  2  0
 53 54  1  0
 53  3  1  0
 46 10  2  0
 38 12  1  0
 33 21  1  0
M  CHG  3   4  -1  20  -1  44   1
M  END
>  <UniqueID>  (51) 
44

>  <SMILES>  (51) 
[H]/N=c1/ccc(C#Cc2c(-c3ccc(C(=O)[N-][C@@H]4CC[C@@H](O)C4)cc3)cc[nH+]c2C)c[n-]1

>  <Energy>  (51) 
67.53309690043976

>  <Genealogy>  (51) 
Cc1[nH+]ccc(-c2ccc(C(=O)[N-]C3CCC(O)C3)cc2)c1C#Cc1ccc(=N)[n-]c1 (protonated)
Cc1[nH+]ccc(-c2ccc(C(=O)[N-][C@@H]3CC[C@@H](O)C3)cc2)c1C#Cc1ccc(=N)[n-]c1 (chirality)
[H]/N=c1/ccc(C#Cc2c(-c3ccc(C(=O)[N-][C@@H]4CC[C@@H](O)C4)cc3)cc[nH+]c2C)c[n-]1 (cis-trans isomerization)
[H]/N=c1/ccc(C#Cc2c(-c3ccc(C(=O)[N-][C@@H]4CC[C@@H](O)C4)cc3)cc[nH+]c2C)c[n-]1 (3D coordinates assigned)
[H]/N=c1/ccc(C#Cc2c(-c3ccc(C(=O)[N-][C@@H]4CC[C@@H](O)C4)cc3)cc[nH+]c2C)c[n-]1 (nonaromatic ring conformer: 67.53309690043976 kcal/mol)

>  <smiles>  (51) 
Cc1nccc(-c2ccc(C(=O)NC3CCC(O)C3)cc2)c1C#Cc1ccc(=N)[nH]c1

>  <score_type>  (51) 
oracle

>  <origin>  (51) 
adg

>  <m_score__min__energy>  (51) 
-10.859999999999999

>  <m_primary>  (51) 
energy

$$$$
51:0
     RDKit          3D

 38 39  0  0  0  0  0  0  0  0999 V2000
   63.5450   32.1920   50.0080 C   0  0  0  0  0  0  0  0  0  0  0  0
   62.1300   32.0610   50.0960 O   0  0  0  0  0  0  0  0  0  0  0  0
   61.3190   31.5320   49.0800 C   0  0  0  0  0  0  0  0  0  0  0  0
   61.8770   31.3530   47.8090 C   0  0  0  0  0  0  0  0  0  0  0  0
   61.1140   30.8220   46.7660 C   0  0  0  0  0  0  0  0  0  0  0  0
   59.7790   30.4560   46.9840 C   0  0  0  0  0  0  0  0  0  0  0  0
   58.9720   29.8760   45.8960 C   0  0  0  0  0  0  0  0  0  0  0  0
   58.3140   30.6720   44.9460 C   0  0  0  0  0  0  0  0  0  0  0  0
   57.5940   29.9330   44.0210 C   0  0  0  0  0  0  0  0  0  0  0  0
   56.6310   30.6040   42.6710 S   0  0  0  0  0  0  0  0  0  0  0  0
   57.7680   32.0000   42.4030 C   0  0  0  0  0  0  0  0  0  0  0  0
   57.7400   28.2990   44.3800 S   0  0  0  0  0  0  0  0  0  0  0  0
   58.7450   28.5070   45.7140 C   0  0  0  0  0  0  0  0  0  0  0  0
   59.2560   27.1880   46.7660 S   0  0  0  0  0  0  0  0  0  0  0  0
   59.9690   27.7480   47.9640 O   0  0  0  0  0  0  0  0  0  0  0  0
   60.2060   26.3030   46.0090 O   0  0  0  0  0  0  0  0  0  0  0  0
   57.8700   26.1940   47.3030 C   0  0  0  0  0  0  0  0  0  0  0  0
   57.2750   25.4010   46.1380 C   0  0  0  0  0  0  0  0  0  0  0  0
   55.7820   25.4890   46.1600 C   0  0  0  0  0  0  0  0  0  0  0  0
   55.0890   24.4620   46.3860 O   0  0  0  0  0  0  0  0  0  0  0  0
   55.1560   26.7160   45.9790 O   0  0  0  0  0  0  0  0  0  0  0  0
   59.2080   30.6520   48.2510 C   0  0  0  0  0  0  0  0  0  0  0  0
   59.9730   31.1790   49.2950 C   0  0  0  0  0  0  0  0  0  0  0  0
   63.9732   32.2316   51.0204 H   0  0  0  0  0  0  0  0  0  0  0  0
   63.9603   31.3285   49.4678 H   0  0  0  0  0  0  0  0  0  0  0  0
   63.7947   33.1171   49.4678 H   0  0  0  0  0  0  0  0  0  0  0  0
   62.9256   31.6329   47.6297 H   0  0  0  0  0  0  0  0  0  0  0  0
   61.5627   30.6908   45.7703 H   0  0  0  0  0  0  0  0  0  0  0  0
   58.3646   31.7708   44.9365 H   0  0  0  0  0  0  0  0  0  0  0  0
   58.0935   32.3996   43.3748 H   0  0  0  0  0  0  0  0  0  0  0  0
   58.6452   31.6548   41.8361 H   0  0  0  0  0  0  0  0  0  0  0  0
   57.2524   32.7892   41.8361 H   0  0  0  0  0  0  0  0  0  0  0  0
   58.2107   25.4919   48.0783 H   0  0  0  0  0  0  0  0  0  0  0  0
   57.0938   26.8640   47.7013 H   0  0  0  0  0  0  0  0  0  0  0  0
   57.6490   25.8137   45.1894 H   0  0  0  0  0  0  0  0  0  0  0  0
   57.5731   24.3464   46.2333 H   0  0  0  0  0  0  0  0  0  0  0  0
   58.1537   30.3896   48.4230 H   0  0  0  0  0  0  0  0  0  0  0  0
   59.5219   31.3186   50.2885 H   0  0  0  0  0  0  0  0  0  0  0  0
  1  2  1  0
  2  3  1  0
  3  4  2  0
  4  5  1  0
  5  6  2  0
  6  7  1  0
  7  8  1  0
  8  9  2  0
  9 10  1  0
 10 11  1  0
  9 12  1  0
 12 13  1  0
 13 14  1  0
 14 15  2  0
 14 16  2  0
 14 17  1  0
 17 18  1  0
 18 19  1  0
 19 20  2  0
 19 21  1  0
  6 22  1  0
 22 23  2  0
 23  3  1  0
 13  7  2  0
  1 24  1  0
  1 25  1  0
  1 26  1  0
  4 27  1  0
  5 28  1  0
  8 29  1  0
 11 30  1  0
 11 31  1  0
 11 32  1  0
 17 33  1  0
 17 34  1  0
 18 35  1  0
 18 36  1  0
 22 37  1  0
 23 38  1  0
M  CHG  1  21  -1
M  END
>  <UniqueID>  (52) 
45

>  <SMILES>  (52) 
COc1ccc(-c2cc(SC)sc2S(=O)(=O)CCC(=O)[O-])cc1

>  <Energy>  (52) 
57.890997906630616

>  <Genealogy>  (52) 
COc1ccc(-c2cc(SC)sc2S(=O)(=O)CCC(=O)[O-])cc1 (protonated)
COc1ccc(-c2cc(SC)sc2S(=O)(=O)CCC(=O)[O-])cc1 (3D coordinates assigned)
COc1ccc(-c2cc(SC)sc2S(=O)(=O)CCC(=O)[O-])cc1 (optimized conformer: 57.890997906630616 kcal/mol)

>  <smiles>  (52) 
COc1ccc(-c2cc(SC)sc2S(=O)(=O)CCC(=O)O)cc1

>  <score_type>  (52) 
oracle

>  <origin>  (52) 
adg

>  <m_score__min__energy>  (52) 
-10.609999999999999

>  <m_primary>  (52) 
energy

$$$$
52:0
     RDKit          3D

 54 57  0  0  0  0  0  0  0  0999 V2000
   55.7900   29.3730   52.7930 C   0  0  0  0  0  0  0  0  0  0  0  0
   56.6670   29.7760   51.7470 O   0  0  0  0  0  0  0  0  0  0  0  0
   57.5080   30.8990   51.8010 C   0  0  0  0  0  0  0  0  0  0  0  0
   57.0590   32.1490   52.2720 C   0  0  0  0  0  0  0  0  0  0  0  0
   57.9330   33.2390   52.3190 C   0  0  0  0  0  0  0  0  0  0  0  0
   59.2530   33.0960   51.8900 C   0  0  0  0  0  0  0  0  0  0  0  0
   59.7080   31.8630   51.4200 C   0  0  0  0  0  0  0  0  0  0  0  0
   58.8430   30.7580   51.3850 C   0  0  0  0  0  0  0  0  0  0  0  0
   59.2890   29.4850   50.9090 N   0  0  0  0  0  0  0  0  0  0  0  0
   59.7700   29.1610   49.2730 S   0  0  0  0  0  0  0  0  0  0  0  0
   61.1040   28.4700   49.2890 O   0  0  0  0  0  0  0  0  0  0  0  0
   58.7570   28.2840   48.5920 O   0  0  0  0  0  0  0  0  0  0  0  0
   59.8700   30.6860   48.3880 C   0  0  0  0  0  0  0  0  0  0  0  0
   58.7220   31.1930   47.7620 C   0  0  0  0  0  0  0  0  0  0  0  0
   58.7780   32.3780   47.0130 C   0  0  0  0  0  0  0  0  0  0  0  0
   57.6160   32.9250   46.3710 N   0  0  0  0  0  0  0  0  0  0  0  0
   57.4250   33.0900   44.9600 C   0  0  0  0  0  0  0  0  0  0  0  0
   56.8510   34.1130   44.5000 O   0  0  0  0  0  0  0  0  0  0  0  0
   57.8940   32.0210   44.0210 C   0  0  0  0  0  0  0  0  0  0  0  0
   57.3920   30.6670   44.4530 C   0  0  0  0  0  0  0  0  0  0  0  0
   56.0460   30.4740   44.4950 N   0  0  0  0  0  0  0  0  0  0  0  0
   55.5050   29.3190   44.8820 N   0  0  0  0  0  0  0  0  0  0  0  0
   56.2680   28.2640   45.2610 C   0  0  0  0  0  0  0  0  0  0  0  0
   55.7060   27.1940   45.6170 O   0  0  0  0  0  0  0  0  0  0  0  0
   57.6670   28.3830   45.2550 C   0  0  0  0  0  0  0  0  0  0  0  0
   58.4940   27.3140   45.6460 C   0  0  0  0  0  0  0  0  0  0  0  0
   59.8820   27.4570   45.6360 C   0  0  0  0  0  0  0  0  0  0  0  0
   60.4590   28.6630   45.2380 C   0  0  0  0  0  0  0  0  0  0  0  0
   59.6540   29.7340   44.8460 C   0  0  0  0  0  0  0  0  0  0  0  0
   58.2480   29.6100   44.8450 C   0  0  0  0  0  0  0  0  0  0  0  0
   59.9860   33.0780   46.9320 C   0  0  0  0  0  0  0  0  0  0  0  0
   61.1350   32.5800   47.5510 C   0  0  0  0  0  0  0  0  0  0  0  0
   61.0920   31.3740   48.2770 C   0  0  0  0  0  0  0  0  0  0  0  0
   62.2340   30.8390   48.8940 O   0  0  0  0  0  0  0  0  0  0  0  0
   63.1030   31.5660   49.7570 C   0  0  0  0  0  0  0  0  0  0  0  0
   56.2566   29.5874   53.7658 H   0  0  0  0  0  0  0  0  0  0  0  0
   54.8428   29.9262   52.7108 H   0  0  0  0  0  0  0  0  0  0  0  0
   55.5928   28.2939   52.7108 H   0  0  0  0  0  0  0  0  0  0  0  0
   56.0170   32.2674   52.6039 H   0  0  0  0  0  0  0  0  0  0  0  0
   57.5797   34.2106   52.6946 H   0  0  0  0  0  0  0  0  0  0  0  0
   59.9367   33.9571   51.9223 H   0  0  0  0  0  0  0  0  0  0  0  0
   60.7474   31.7569   51.0760 H   0  0  0  0  0  0  0  0  0  0  0  0
   57.7671   30.6556   47.8593 H   0  0  0  0  0  0  0  0  0  0  0  0
   57.5178   32.2389   43.0105 H   0  0  0  0  0  0  0  0  0  0  0  0
   58.9939   32.0061   44.0268 H   0  0  0  0  0  0  0  0  0  0  0  0
   58.0442   26.3609   45.9611 H   0  0  0  0  0  0  0  0  0  0  0  0
   60.5225   26.6169   45.9426 H   0  0  0  0  0  0  0  0  0  0  0  0
   61.5537   28.7706   45.2330 H   0  0  0  0  0  0  0  0  0  0  0  0
   60.1188   30.6814   44.5356 H   0  0  0  0  0  0  0  0  0  0  0  0
   60.0317   34.0268   46.3773 H   0  0  0  0  0  0  0  0  0  0  0  0
   62.0815   33.1346   47.4707 H   0  0  0  0  0  0  0  0  0  0  0  0
   62.8447   31.3499   50.8042 H   0  0  0  0  0  0  0  0  0  0  0  0
   64.1440   31.2659   49.5667 H   0  0  0  0  0  0  0  0  0  0  0  0
   62.9914   32.6436   49.5667 H   0  0  0  0  0  0  0  0  0  0  0  0
  1  2  1  0
  2  3  1  0
  3  4  2  0
  4  5  1  0
  5  6  2  0
  6  7  1  0
  7  8  2  0
  8  9  1  0
  9 10  1  0
 10 11  2  0
 10 12  2  0
 10 13  1  0
 13 14  2  0
 14 15  1  0
 15 16  1  0
 16 17  1  0
 17 18  2  0
 17 19  1  0
 19 20  1  0
 20 21  2  0
 21 22  1  0
 22 23  1  0
 23 24  2  0
 23 25  1  0
 25 26  2  0
 26 27  1  0
 27 28  2  0
 28 29  1  0
 29 30  2  0
 15 31  2  0
 31 32  1  0
 32 33  2  0
 33 34  1  0
 34 35  1  0
  8  3  1  0
 33 13  1  0
 30 20  1  0
 30 25  1  0
  1 36  1  0
  1 37  1  0
  1 38  1  0
  4 39  1  0
  5 40  1  0
  6 41  1  0
  7 42  1  0
 14 43  1  0
 19 44  1  0
 19 45  1  0
 26 46  1  0
 27 47  1  0
 28 48  1  0
 29 49  1  0
 31 50  1  0
 32 51  1  0
 35 52  1  0
 35 53  1  0
 35 54  1  0
M  CHG  3   9  -1  16  -1  22  -1
M  END
>  <UniqueID>  (53) 
46

>  <SMILES>  (53) 
COc1ccccc1[N-]S(=O)(=O)c1cc([N-]C(=O)Cc2n[n-]c(=O)c3ccccc23)ccc1OC

>  <Energy>  (53) 
73.87961634385047

>  <Genealogy>  (53) 
COc1ccccc1[N-]S(=O)(=O)c1cc([N-]C(=O)Cc2n[n-]c(=O)c3ccccc23)ccc1OC (protonated)
COc1ccccc1[N-]S(=O)(=O)c1cc([N-]C(=O)Cc2n[n-]c(=O)c3ccccc23)ccc1OC (3D coordinates assigned)
COc1ccccc1[N-]S(=O)(=O)c1cc([N-]C(=O)Cc2n[n-]c(=O)c3ccccc23)ccc1OC (optimized conformer: 73.87961634385047 kcal/mol)

>  <smiles>  (53) 
COc1ccccc1NS(=O)(=O)c1cc(NC(=O)Cc2n[nH]c(=O)c3ccccc23)ccc1OC

>  <score_type>  (53) 
oracle

>  <origin>  (53) 
adg

>  <m_score__min__energy>  (53) 
-14

>  <m_primary>  (53) 
energy

$$$$
53:0
     RDKit          3D

 25 26  0  0  0  0  0  0  0  0999 V2000
   55.1270   26.7130   45.9910 O   0  0  0  0  0  0  0  0  0  0  0  0
   56.1170   25.9650   46.2100 C   0  0  0  0  0  0  0  0  0  0  0  0
   55.9940   24.9010   47.0950 O   0  0  0  0  0  0  0  0  0  0  0  0
   57.4340   26.2510   45.5630 C   0  0  0  0  0  0  0  0  0  0  0  0
   57.8110   27.6920   45.7740 C   0  0  0  0  0  0  0  0  0  0  0  0
   58.6620   28.0520   46.8300 C   0  0  0  0  0  0  0  0  0  0  0  0
   58.9910   29.3920   47.0490 C   0  0  0  0  0  0  0  0  0  0  0  0
   58.4670   30.3920   46.2190 C   0  0  0  0  0  0  0  0  0  0  0  0
   58.7910   31.7420   46.4320 C   0  0  0  0  0  0  0  0  0  0  0  0
   58.2600   32.7450   45.6020 C   0  0  0  0  0  0  0  0  0  0  0  0
   58.6010   34.1680   45.8250 C   0  0  0  0  0  0  0  0  0  0  0  0
   58.6620   34.9720   44.8570 O   0  0  0  0  0  0  0  0  0  0  0  0
   58.8580   34.6380   47.1070 O   0  0  0  0  0  0  0  0  0  0  0  0
   57.3970   32.3810   44.5540 C   0  0  0  0  0  0  0  0  0  0  0  0
   57.0680   31.0400   44.3350 C   0  0  0  0  0  0  0  0  0  0  0  0
   57.5980   30.0390   45.1610 C   0  0  0  0  0  0  0  0  0  0  0  0
   57.2710   28.6910   44.9480 C   0  0  0  0  0  0  0  0  0  0  0  0
   58.2054   25.6043   46.0065 H   0  0  0  0  0  0  0  0  0  0  0  0
   57.3556   26.0535   44.4837 H   0  0  0  0  0  0  0  0  0  0  0  0
   59.0729   27.2738   47.4900 H   0  0  0  0  0  0  0  0  0  0  0  0
   59.6638   29.6630   47.8760 H   0  0  0  0  0  0  0  0  0  0  0  0
   59.4663   32.0170   47.2556 H   0  0  0  0  0  0  0  0  0  0  0  0
   56.9764   33.1588   43.8998 H   0  0  0  0  0  0  0  0  0  0  0  0
   56.3908   30.7693   43.5115 H   0  0  0  0  0  0  0  0  0  0  0  0
   56.5886   28.4157   44.1303 H   0  0  0  0  0  0  0  0  0  0  0  0
  1  2  2  0
  2  3  1  0
  2  4  1  0
  4  5  1  0
  5  6  2  0
  6  7  1  0
  7  8  2  0
  8  9  1  0
  9 10  2  0
 10 11  1  0
 11 12  2  0
 11 13  1  0
 10 14  1  0
 14 15  2  0
 15 16  1  0
 16 17  2  0
 17  5  1  0
 16  8  1  0
  4 18  1  0
  4 19  1  0
  6 20  1  0
  7 21  1  0
  9 22  1  0
 14 23  1  0
 15 24  1  0
 17 25  1  0
M  CHG  2   3  -1  13  -1
M  END
>  <UniqueID>  (54) 
47

>  <SMILES>  (54) 
O=C([O-])Cc1ccc2cc(C(=O)[O-])ccc2c1

>  <Energy>  (54) 
27.627579148212963

>  <Genealogy>  (54) 
O=C([O-])Cc1ccc2cc(C(=O)[O-])ccc2c1 (protonated)
O=C([O-])Cc1ccc2cc(C(=O)[O-])ccc2c1 (3D coordinates assigned)
O=C([O-])Cc1ccc2cc(C(=O)[O-])ccc2c1 (optimized conformer: 27.627579148212963 kcal/mol)

>  <smiles>  (54) 
O=C(O)Cc1ccc2cc(C(=O)O)ccc2c1

>  <score_type>  (54) 
oracle

>  <origin>  (54) 
adg

>  <m_score__min__energy>  (54) 
-10.130000000000001

>  <m_primary>  (54) 
energy

$$$$
54:0
     RDKit          3D

 49 50  0  0  0  0  0  0  0  0999 V2000
   58.5370   23.6510   45.9940 C   0  0  0  0  0  0  0  0  0  0  0  0
   58.4800   25.1540   46.0270 C   0  0  0  0  0  0  0  0  0  0  0  0
   59.6780   25.8820   46.1310 C   0  0  0  0  0  0  0  0  0  0  0  0
   59.6640   27.2760   46.1640 C   0  0  0  0  0  0  0  0  0  0  0  0
   58.4590   27.9740   46.0620 C   0  0  0  0  0  0  0  0  0  0  0  0
   58.4750   29.4050   46.1560 N   0  0  0  0  0  0  0  0  0  0  0  0
   57.8860   30.2960   45.2010 C   0  0  0  0  0  0  0  0  0  0  0  0
   56.6480   30.5440   45.2330 O   0  0  0  0  0  0  0  0  0  0  0  0
   58.7490   30.9540   44.1730 C   0  0  0  0  0  0  0  0  0  0  0  0
   58.1000   32.1820   43.7060 N   0  0  0  0  0  0  0  0  0  0  0  0
   57.6520   32.3130   42.3200 C   0  0  0  0  0  0  0  0  0  0  0  0
   57.6980   33.1690   44.6620 C   0  0  0  0  0  0  0  0  0  0  0  0
   56.6190   33.0190   45.2990 O   0  0  0  0  0  0  0  0  0  0  0  0
   58.5210   34.3990   44.8650 C   0  0  0  0  0  0  0  0  0  0  0  0
   59.8220   34.0310   45.3990 N   0  0  0  0  0  0  0  0  0  0  0  0
   60.1350   34.1040   46.7950 C   0  0  0  0  0  0  0  0  0  0  0  0
   59.3260   34.6500   47.5880 O   0  0  0  0  0  0  0  0  0  0  0  0
   61.3650   33.4860   47.3320 C   0  0  0  0  0  0  0  0  0  0  0  0
   62.5950   33.8230   46.7410 C   0  0  0  0  0  0  0  0  0  0  0  0
   63.7880   33.2860   47.2280 C   0  0  0  0  0  0  0  0  0  0  0  0
   63.7670   32.3990   48.3070 C   0  0  0  0  0  0  0  0  0  0  0  0
   62.5520   32.0360   48.9010 C   0  0  0  0  0  0  0  0  0  0  0  0
   62.5770   30.8900   50.2430 Cl  0  0  0  0  0  0  0  0  0  0  0  0
   61.3420   32.5730   48.4140 C   0  0  0  0  0  0  0  0  0  0  0  0
   59.8140   32.0230   49.1080 Cl  0  0  0  0  0  0  0  0  0  0  0  0
   57.2550   27.2580   45.9650 C   0  0  0  0  0  0  0  0  0  0  0  0
   57.2510   25.8540   45.9440 C   0  0  0  0  0  0  0  0  0  0  0  0
   55.6940   25.0050   45.8690 S   0  0  0  0  0  0  0  0  0  0  0  0
   54.4050   26.1460   45.9860 N   0  0  0  0  0  0  0  0  0  0  0  0
   55.5650   24.2620   44.5730 O   0  0  0  0  0  0  0  0  0  0  0  0
   55.5920   24.0140   46.9940 O   0  0  0  0  0  0  0  0  0  0  0  0
   58.5518   23.2620   47.0228 H   0  0  0  0  0  0  0  0  0  0  0  0
   57.6530   23.2620   45.4675 H   0  0  0  0  0  0  0  0  0  0  0  0
   59.4480   23.3301   45.4675 H   0  0  0  0  0  0  0  0  0  0  0  0
   60.6370   25.3462   46.1870 H   0  0  0  0  0  0  0  0  0  0  0  0
   60.6086   27.8295   46.2711 H   0  0  0  0  0  0  0  0  0  0  0  0
   59.7249   31.2006   44.6166 H   0  0  0  0  0  0  0  0  0  0  0  0
   58.8952   30.2701   43.3239 H   0  0  0  0  0  0  0  0  0  0  0  0
   56.5963   32.6217   42.3035 H   0  0  0  0  0  0  0  0  0  0  0  0
   58.2634   33.0700   41.8070 H   0  0  0  0  0  0  0  0  0  0  0  0
   57.7593   31.3459   41.8070 H   0  0  0  0  0  0  0  0  0  0  0  0
   58.6527   34.9147   43.9023 H   0  0  0  0  0  0  0  0  0  0  0  0
   58.0106   35.0679   45.5735 H   0  0  0  0  0  0  0  0  0  0  0  0
   60.4460   33.4660   44.7810 H   0  0  0  0  0  0  0  0  0  0  0  0
   62.6177   34.5161   45.8871 H   0  0  0  0  0  0  0  0  0  0  0  0
   64.7454   33.5615   46.7617 H   0  0  0  0  0  0  0  0  0  0  0  0
   64.7099   31.9835   48.6921 H   0  0  0  0  0  0  0  0  0  0  0  0
   56.3022   27.8043   45.9047 H   0  0  0  0  0  0  0  0  0  0  0  0
   54.7940   26.9940   46.4550 H   0  0  0  0  0  0  0  0  0  0  0  0
  1  2  1  0
  2  3  2  0
  3  4  1  0
  4  5  2  0
  5  6  1  0
  6  7  1  0
  7  8  2  0
  7  9  1  0
  9 10  1  0
 10 11  1  0
 10 12  1  0
 12 13  2  0
 12 14  1  0
 14 15  1  0
 15 16  1  0
 16 17  2  0
 16 18  1  0
 18 19  2  0
 19 20  1  0
 20 21  2  0
 21 22  1  0
 22 23  1  0
 22 24  2  0
 24 25  1  0
  5 26  1  0
 26 27  2  0
 27 28  1  0
 28 29  1  0
 28 30  2  0
 28 31  2  0
 27  2  1  0
 24 18  1  0
  1 32  1  0
  1 33  1  0
  1 34  1  0
  3 35  1  0
  4 36  1  0
  9 37  1  0
  9 38  1  0
 11 39  1  0
 11 40  1  0
 11 41  1  0
 14 42  1  0
 14 43  1  0
 15 44  1  0
 19 45  1  0
 20 46  1  0
 21 47  1  0
 26 48  1  0
 29 49  1  0
M  CHG  2   6  -1  29  -1
M  END
>  <UniqueID>  (55) 
48

>  <SMILES>  (55) 
Cc1ccc([N-]C(=O)CN(C)C(=O)CNC(=O)c2cccc(Cl)c2Cl)cc1S([NH-])(=O)=O

>  <Energy>  (55) 
60.27397278579612

>  <Genealogy>  (55) 
Cc1ccc([N-]C(=O)CN(C)C(=O)CNC(=O)c2cccc(Cl)c2Cl)cc1S([NH-])(=O)=O (protonated)
Cc1ccc([N-]C(=O)CN(C)C(=O)CNC(=O)c2cccc(Cl)c2Cl)cc1S([NH-])(=O)=O (3D coordinates assigned)
Cc1ccc([N-]C(=O)CN(C)C(=O)CNC(=O)c2cccc(Cl)c2Cl)cc1S([NH-])(=O)=O (optimized conformer: 60.27397278579612 kcal/mol)

>  <smiles>  (55) 
Cc1ccc(NC(=O)CN(C)C(=O)CNC(=O)c2cccc(Cl)c2Cl)cc1S(N)(=O)=O

>  <score_type>  (55) 
oracle

>  <origin>  (55) 
adg

>  <m_score__min__energy>  (55) 
-13.34

>  <m_primary>  (55) 
energy

$$$$
55:0
     RDKit          3D

 51 53  0  0  0  0  0  0  0  0999 V2000
   57.2020   24.3820   43.7100 C   0  0  0  0  0  0  0  0  0  0  0  0
   56.9890   25.2090   44.9000 N   0  0  0  0  0  0  0  0  0  0  0  0
   57.9470   26.2230   45.2620 C   0  0  0  0  0  0  0  0  0  0  0  0
   59.0860   25.8930   46.0160 C   0  0  0  0  0  0  0  0  0  0  0  0
   60.0040   26.8830   46.3810 C   0  0  0  0  0  0  0  0  0  0  0  0
   59.7890   28.2160   46.0150 C   0  0  0  0  0  0  0  0  0  0  0  0
   58.6470   28.5660   45.2770 C   0  0  0  0  0  0  0  0  0  0  0  0
   58.4020   29.9300   44.8930 N   0  0  0  0  0  0  0  0  0  0  0  0
   57.0900   30.5090   44.8500 C   0  0  0  0  0  0  0  0  0  0  0  0
   56.0840   29.8460   45.2240 O   0  0  0  0  0  0  0  0  0  0  0  0
   56.9250   31.8320   44.3260 N   0  0  0  0  0  0  0  0  0  0  0  0
   57.0410   33.0420   45.1330 C   0  0  0  0  0  0  0  0  0  0  0  0
   58.3510   33.0300   45.8720 C   0  0  0  0  0  0  0  0  0  0  0  0
   59.3860   33.8950   45.4770 C   0  0  0  0  0  0  0  0  0  0  0  0
   60.5520   33.9980   46.2410 C   0  0  0  0  0  0  0  0  0  0  0  0
   60.6990   33.2460   47.4230 C   0  0  0  0  0  0  0  0  0  0  0  0
   61.8850   33.4460   48.3000 C   0  0  0  0  0  0  0  0  0  0  0  0
   63.1400   32.9250   47.9290 C   0  0  0  0  0  0  0  0  0  0  0  0
   64.2450   33.0600   48.7770 C   0  0  0  0  0  0  0  0  0  0  0  0
   64.1120   33.7150   50.0050 C   0  0  0  0  0  0  0  0  0  0  0  0
   62.8740   34.2410   50.3830 C   0  0  0  0  0  0  0  0  0  0  0  0
   61.7640   34.1100   49.5380 C   0  0  0  0  0  0  0  0  0  0  0  0
   59.6730   32.3570   47.7950 C   0  0  0  0  0  0  0  0  0  0  0  0
   58.5110   32.2530   47.0280 C   0  0  0  0  0  0  0  0  0  0  0  0
   57.7430   27.5640   44.8890 C   0  0  0  0  0  0  0  0  0  0  0  0
   55.5410   24.9940   45.8430 S   0  0  0  0  0  0  0  0  0  0  0  0
   54.4700   23.8170   45.0440 C   0  0  0  0  0  0  0  0  0  0  0  0
   54.8320   26.3100   45.9970 O   0  0  0  0  0  0  0  0  0  0  0  0
   55.8890   24.4630   47.2060 O   0  0  0  0  0  0  0  0  0  0  0  0
   57.4655   23.3590   44.0168 H   0  0  0  0  0  0  0  0  0  0  0  0
   56.2805   24.3589   43.1098 H   0  0  0  0  0  0  0  0  0  0  0  0
   58.0200   24.8070   43.1098 H   0  0  0  0  0  0  0  0  0  0  0  0
   59.2566   24.8500   46.3209 H   0  0  0  0  0  0  0  0  0  0  0  0
   60.8999   26.6121   46.9590 H   0  0  0  0  0  0  0  0  0  0  0  0
   60.5147   28.9900   46.3054 H   0  0  0  0  0  0  0  0  0  0  0  0
   59.1820   30.4650   44.4490 H   0  0  0  0  0  0  0  0  0  0  0  0
   56.9979   33.9247   44.4781 H   0  0  0  0  0  0  0  0  0  0  0  0
   56.2131   33.0803   45.8563 H   0  0  0  0  0  0  0  0  0  0  0  0
   59.2778   34.4945   44.5611 H   0  0  0  0  0  0  0  0  0  0  0  0
   61.3599   34.6706   45.9171 H   0  0  0  0  0  0  0  0  0  0  0  0
   63.2524   32.4077   46.9647 H   0  0  0  0  0  0  0  0  0  0  0  0
   65.2205   32.6498   48.4767 H   0  0  0  0  0  0  0  0  0  0  0  0
   64.9805   33.8161   50.6724 H   0  0  0  0  0  0  0  0  0  0  0  0
   62.7704   34.7598   51.3474 H   0  0  0  0  0  0  0  0  0  0  0  0
   60.7928   34.5275   49.8421 H   0  0  0  0  0  0  0  0  0  0  0  0
   59.7877   31.7389   48.6977 H   0  0  0  0  0  0  0  0  0  0  0  0
   57.7157   31.5568   47.3327 H   0  0  0  0  0  0  0  0  0  0  0  0
   56.8633   27.8313   44.2851 H   0  0  0  0  0  0  0  0  0  0  0  0
   53.9363   23.2305   45.8063 H   0  0  0  0  0  0  0  0  0  0  0  0
   53.7418   24.3512   44.4161 H   0  0  0  0  0  0  0  0  0  0  0  0
   55.0704   23.1423   44.4161 H   0  0  0  0  0  0  0  0  0  0  0  0
  1  2  1  0
  2  3  1  0
  3  4  2  0
  4  5  1  0
  5  6  2  0
  6  7  1  0
  7  8  1  0
  8  9  1  0
  9 10  2  0
  9 11  1  0
 11 12  1  0
 12 13  1  0
 13 14  2  0
 14 15  1  0
 15 16  2  0
 16 17  1  0
 17 18  2  0
 18 19  1  0
 19 20  2  0
 20 21  1  0
 21 22  2  0
 16 23  1  0
 23 24  2  0
  7 25  2  0
  2 26  1  0
 26 27  1  0
 26 28  2  0
 26 29  2  0
 25  3  1  0
 24 13  1  0
 22 17  1  0
  1 30  1  0
  1 31  1  0
  1 32  1  0
  4 33  1  0
  5 34  1  0
  6 35  1  0
  8 36  1  0
 12 37  1  0
 12 38  1  0
 14 39  1  0
 15 40  1  0
 18 41  1  0
 19 42  1  0
 20 43  1  0
 21 44  1  0
 22 45  1  0
 23 46  1  0
 24 47  1  0
 25 48  1  0
 27 49  1  0
 27 50  1  0
 27 51  1  0
M  CHG  1  11  -1
M  END
>  <UniqueID>  (56) 
49

>  <SMILES>  (56) 
CN(c1cccc(NC(=O)[N-]Cc2ccc(-c3ccccc3)cc2)c1)S(C)(=O)=O

>  <Energy>  (56) 
60.9621920078866

>  <Genealogy>  (56) 
CN(c1cccc(NC(=O)[N-]Cc2ccc(-c3ccccc3)cc2)c1)S(C)(=O)=O (protonated)
CN(c1cccc(NC(=O)[N-]Cc2ccc(-c3ccccc3)cc2)c1)S(C)(=O)=O (3D coordinates assigned)
CN(c1cccc(NC(=O)[N-]Cc2ccc(-c3ccccc3)cc2)c1)S(C)(=O)=O (optimized conformer: 60.9621920078866 kcal/mol)

>  <smiles>  (56) 
CN(c1cccc(NC(=O)NCc2ccc(-c3ccccc3)cc2)c1)S(C)(=O)=O

>  <score_type>  (56) 
oracle

>  <origin>  (56) 
adg

>  <m_score__min__energy>  (56) 
-11.369999999999999

>  <m_primary>  (56) 
energy

$$$$
56:0
     RDKit          3D

 39 42  0  0  0  0  0  0  0  0999 V2000
   60.4030   33.8330   45.8710 N   0  0  0  0  0  0  0  0  0  0  0  0
   58.8010   33.9890   45.2360 S   0  0  0  0  0  0  0  0  0  0  0  0
   58.6870   35.3060   44.5230 O   0  0  0  0  0  0  0  0  0  0  0  0
   57.7980   33.9510   46.3540 O   0  0  0  0  0  0  0  0  0  0  0  0
   58.4890   32.7310   44.1180 O   0  0  0  0  0  0  0  0  0  0  0  0
   57.7440   31.5700   44.3830 C   0  0  0  0  0  0  0  0  0  0  0  0
   56.5980   31.2190   43.6440 C   0  0  0  0  0  0  0  0  0  0  0  0
   55.8900   30.0530   43.9470 C   0  0  0  0  0  0  0  0  0  0  0  0
   56.3100   29.2160   44.9830 C   0  0  0  0  0  0  0  0  0  0  0  0
   55.5840   28.0620   45.2620 O   0  0  0  0  0  0  0  0  0  0  0  0
   57.4560   29.5470   45.7270 C   0  0  0  0  0  0  0  0  0  0  0  0
   57.9100   28.7380   46.7780 C   0  0  0  0  0  0  0  0  0  0  0  0
   59.0510   29.0980   47.4960 C   0  0  0  0  0  0  0  0  0  0  0  0
   59.7480   30.2710   47.1580 C   0  0  0  0  0  0  0  0  0  0  0  0
   60.9660   30.6960   47.8950 C   0  0  0  0  0  0  0  0  0  0  0  0
   61.9780   31.4530   47.2660 C   0  0  0  0  0  0  0  0  0  0  0  0
   63.1140   31.8520   47.9780 C   0  0  0  0  0  0  0  0  0  0  0  0
   63.2510   31.5060   49.3230 C   0  0  0  0  0  0  0  0  0  0  0  0
   62.2370   30.7890   49.9690 C   0  0  0  0  0  0  0  0  0  0  0  0
   61.1070   30.3750   49.2600 C   0  0  0  0  0  0  0  0  0  0  0  0
   62.3750   30.4950   51.3300 O   0  0  0  0  0  0  0  0  0  0  0  0
   63.3720   31.1400   52.1270 C   0  0  0  0  0  0  0  0  0  0  0  0
   64.6690   31.3030   51.3260 C   0  0  0  0  0  0  0  0  0  0  0  0
   64.3930   31.8720   50.0440 O   0  0  0  0  0  0  0  0  0  0  0  0
   59.2820   31.0470   46.1400 N   0  0  0  0  0  0  0  0  0  0  0  0
   58.1720   30.7260   45.4210 C   0  0  0  0  0  0  0  0  0  0  0  0
   60.5100   32.8440   46.1920 H   0  0  0  0  0  0  0  0  0  0  0  0
   61.0730   33.9670   45.0820 H   0  0  0  0  0  0  0  0  0  0  0  0
   56.2578   31.8669   42.8227 H   0  0  0  0  0  0  0  0  0  0  0  0
   54.9941   29.7922   43.3645 H   0  0  0  0  0  0  0  0  0  0  0  0
   57.3658   27.8178   47.0371 H   0  0  0  0  0  0  0  0  0  0  0  0
   59.4040   28.4658   48.3241 H   0  0  0  0  0  0  0  0  0  0  0  0
   61.8723   31.7314   46.2071 H   0  0  0  0  0  0  0  0  0  0  0  0
   63.8990   32.4383   47.4779 H   0  0  0  0  0  0  0  0  0  0  0  0
   60.3232   29.7955   49.7696 H   0  0  0  0  0  0  0  0  0  0  0  0
   63.0070   32.1317   52.4325 H   0  0  0  0  0  0  0  0  0  0  0  0
   63.5747   30.5234   53.0151 H   0  0  0  0  0  0  0  0  0  0  0  0
   65.3546   31.9642   51.8763 H   0  0  0  0  0  0  0  0  0  0  0  0
   65.1297   30.3139   51.1865 H   0  0  0  0  0  0  0  0  0  0  0  0
  1  2  1  0
  2  3  2  0
  2  4  2  0
  2  5  1  0
  5  6  1  0
  6  7  2  0
  7  8  1  0
  8  9  2  0
  9 10  1  0
  9 11  1  0
 11 12  2  0
 12 13  1  0
 13 14  2  0
 14 15  1  0
 15 16  2  0
 16 17  1  0
 17 18  2  0
 18 19  1  0
 19 20  2  0
 19 21  1  0
 21 22  1  0
 22 23  1  0
 23 24  1  0
 14 25  1  0
 25 26  2  0
 26  6  1  0
 26 11  1  0
 20 15  1  0
 24 18  1  0
  1 27  1  0
  1 28  1  0
  7 29  1  0
  8 30  1  0
 12 31  1  0
 13 32  1  0
 16 33  1  0
 17 34  1  0
 20 35  1  0
 22 36  1  0
 22 37  1  0
 23 38  1  0
 23 39  1  0
M  CHG  1  10  -1
M  END
>  <UniqueID>  (57) 
50

>  <SMILES>  (57) 
NS(=O)(=O)Oc1ccc([O-])c2ccc(-c3ccc4c(c3)OCCO4)nc12

>  <Energy>  (57) 
49.56302691913946

>  <Genealogy>  (57) 
NS(=O)(=O)Oc1ccc([O-])c2ccc(-c3ccc4c(c3)OCCO4)nc12 (protonated)
NS(=O)(=O)Oc1ccc([O-])c2ccc(-c3ccc4c(c3)OCCO4)nc12 (3D coordinates assigned)
NS(=O)(=O)Oc1ccc([O-])c2ccc(-c3ccc4c(c3)OCCO4)nc12 (nonaromatic ring conformer: 49.56302691913946 kcal/mol)

>  <smiles>  (57) 
NS(=O)(=O)Oc1ccc(O)c2ccc(-c3ccc4c(c3)OCCO4)nc12

>  <score_type>  (57) 
oracle

>  <origin>  (57) 
adg

>  <m_score__min__energy>  (57) 
-9.9900000000000002

>  <m_primary>  (57) 
energy

$$$$
57:0
     RDKit          3D

 35 37  0  0  0  0  0  0  0  0999 V2000
   55.7600   30.0440   43.5340 C   0  0  0  0  0  0  0  0  0  0  0  0
   55.9270   29.7070   44.8780 O   0  0  0  0  0  0  0  0  0  0  0  0
   57.0830   29.1930   45.4260 C   0  0  0  0  0  0  0  0  0  0  0  0
   58.2470   29.9100   45.5950 C   0  0  0  0  0  0  0  0  0  0  0  0
   59.3940   29.3830   46.1450 C   0  0  0  0  0  0  0  0  0  0  0  0
   60.6250   30.1600   46.3160 C   0  0  0  0  0  0  0  0  0  0  0  0
   60.5700   31.1360   47.4270 C   0  0  0  0  0  0  0  0  0  0  0  0
   60.9830   30.7700   48.6650 N   0  0  0  0  0  0  0  0  0  0  0  0
   60.9560   31.6080   49.7000 N   0  0  0  0  0  0  0  0  0  0  0  0
   60.5110   32.8750   49.5780 C   0  0  0  0  0  0  0  0  0  0  0  0
   60.4870   33.6720   50.5770 O   0  0  0  0  0  0  0  0  0  0  0  0
   60.0830   33.2750   48.3310 C   0  0  0  0  0  0  0  0  0  0  0  0
   59.6140   34.5590   48.1260 C   0  0  0  0  0  0  0  0  0  0  0  0
   59.1870   34.9590   46.8810 C   0  0  0  0  0  0  0  0  0  0  0  0
   59.2040   34.1050   45.7760 C   0  0  0  0  0  0  0  0  0  0  0  0
   59.6800   32.8140   45.9970 C   0  0  0  0  0  0  0  0  0  0  0  0
   60.1020   32.4250   47.2410 C   0  0  0  0  0  0  0  0  0  0  0  0
   59.3940   28.0510   46.5590 C   0  0  0  0  0  0  0  0  0  0  0  0
   58.2290   27.3320   46.3900 C   0  0  0  0  0  0  0  0  0  0  0  0
   57.0840   27.8750   45.8360 C   0  0  0  0  0  0  0  0  0  0  0  0
   55.9420   27.0860   45.6980 O   0  0  0  0  0  0  0  0  0  0  0  0
   55.2727   31.0274   43.4604 H   0  0  0  0  0  0  0  0  0  0  0  0
   56.7426   30.0839   43.0412 H   0  0  0  0  0  0  0  0  0  0  0  0
   55.1331   29.2863   43.0412 H   0  0  0  0  0  0  0  0  0  0  0  0
   58.2609   30.9617   45.2728 H   0  0  0  0  0  0  0  0  0  0  0  0
   61.4515   29.4607   46.5103 H   0  0  0  0  0  0  0  0  0  0  0  0
   60.7683   30.7378   45.3910 H   0  0  0  0  0  0  0  0  0  0  0  0
   61.2800   31.3150   50.6600 H   0  0  0  0  0  0  0  0  0  0  0  0
   59.5819   35.2678   48.9666 H   0  0  0  0  0  0  0  0  0  0  0  0
   58.8193   35.9876   46.7512 H   0  0  0  0  0  0  0  0  0  0  0  0
   58.8600   34.4338   44.7843 H   0  0  0  0  0  0  0  0  0  0  0  0
   59.7174   32.0985   45.1623 H   0  0  0  0  0  0  0  0  0  0  0  0
   60.2891   27.5914   47.0034 H   0  0  0  0  0  0  0  0  0  0  0  0
   58.2098   26.2798   46.7101 H   0  0  0  0  0  0  0  0  0  0  0  0
   55.1400   27.5290   45.2520 H   0  0  0  0  0  0  0  0  0  0  0  0
  1  2  1  0
  2  3  1  0
  3  4  2  0
  4  5  1  0
  5  6  1  0
  6  7  1  0
  7  8  2  0
  8  9  1  0
  9 10  1  0
 10 11  2  0
 10 12  1  0
 12 13  2  0
 13 14  1  0
 14 15  2  0
 15 16  1  0
 16 17  2  0
  5 18  2  0
 18 19  1  0
 19 20  2  0
 20 21  1  0
 20  3  1  0
 17  7  1  0
 17 12  1  0
  1 22  1  0
  1 23  1  0
  1 24  1  0
  4 25  1  0
  6 26  1  0
  6 27  1  0
  9 28  1  0
 13 29  1  0
 14 30  1  0
 15 31  1  0
 16 32  1  0
 18 33  1  0
 19 34  1  0
 21 35  1  0
M  END
>  <smiles>  (58) 
COc1cc(Cc2n[nH]c(=O)c3ccccc23)ccc1O

>  <score_type>  (58) 
oracle

>  <origin>  (58) 
adg

>  <m_score__min__energy>  (58) 
-7.9400000000000004

>  <m_primary>  (58) 
energy

$$$$
58:0
     RDKit          3D

 45 48  0  0  0  0  0  0  0  0999 V2000
   59.5780   29.5100   45.5580 C   0  0  0  0  0  0  0  0  0  0  0  0
   58.5240   29.8560   46.5970 C   0  0  0  0  0  0  0  0  0  0  0  0
   57.4860   30.6130   45.9800 O   0  0  0  0  0  0  0  0  0  0  0  0
   57.4920   31.0520   44.6450 C   0  0  0  0  0  0  0  0  0  0  0  0
   56.8750   30.3020   43.6240 C   0  0  0  0  0  0  0  0  0  0  0  0
   56.8840   30.7610   42.3040 C   0  0  0  0  0  0  0  0  0  0  0  0
   57.5050   31.9670   41.9880 C   0  0  0  0  0  0  0  0  0  0  0  0
   58.1220   32.7210   42.9880 C   0  0  0  0  0  0  0  0  0  0  0  0
   58.1260   32.2740   44.3210 C   0  0  0  0  0  0  0  0  0  0  0  0
   58.7900   33.0920   45.3640 C   0  0  0  0  0  0  0  0  0  0  0  0
   58.5250   34.3990   45.5780 N   0  0  0  0  0  0  0  0  0  0  0  0
   59.3370   34.7290   46.6010 C   0  0  0  0  0  0  0  0  0  0  0  0
   60.0670   33.6170   46.9660 C   0  0  0  0  0  0  0  0  0  0  0  0
   61.0550   33.4790   48.0610 C   0  0  0  0  0  0  0  0  0  0  0  0
   62.4170   33.3900   47.6920 C   0  0  0  0  0  0  0  0  0  0  0  0
   63.3700   33.2350   48.6930 C   0  0  0  0  0  0  0  0  0  0  0  0
   64.6980   33.1110   48.5410 N   0  0  0  0  0  0  0  0  0  0  0  0
   65.1960   32.9780   49.7920 C   0  0  0  0  0  0  0  0  0  0  0  0
   66.6410   32.7450   50.0890 C   0  0  0  0  0  0  0  0  0  0  0  0
   64.1780   33.0000   50.7410 C   0  0  0  0  0  0  0  0  0  0  0  0
   63.0210   33.1720   50.0120 C   0  0  0  0  0  0  0  0  0  0  0  0
   61.6990   33.2740   50.4290 C   0  0  0  0  0  0  0  0  0  0  0  0
   60.6960   33.4560   49.4500 C   0  0  0  0  0  0  0  0  0  0  0  0
   59.2760   33.6350   49.9180 C   0  0  0  0  0  0  0  0  0  0  0  0
   59.7000   32.6280   46.1910 O   0  0  0  0  0  0  0  0  0  0  0  0
   60.5058   29.2054   46.0643 H   0  0  0  0  0  0  0  0  0  0  0  0
   59.2153   28.6837   44.9289 H   0  0  0  0  0  0  0  0  0  0  0  0
   59.7756   30.3904   44.9289 H   0  0  0  0  0  0  0  0  0  0  0  0
   58.1039   28.9301   47.0169 H   0  0  0  0  0  0  0  0  0  0  0  0
   58.9817   30.4470   47.4040 H   0  0  0  0  0  0  0  0  0  0  0  0
   56.3829   29.3488   43.8676 H   0  0  0  0  0  0  0  0  0  0  0  0
   56.3999   30.1689   41.5134 H   0  0  0  0  0  0  0  0  0  0  0  0
   57.5093   32.3262   40.9483 H   0  0  0  0  0  0  0  0  0  0  0  0
   58.6092   33.6731   42.7307 H   0  0  0  0  0  0  0  0  0  0  0  0
   59.4065   35.7223   47.0685 H   0  0  0  0  0  0  0  0  0  0  0  0
   62.7167   33.4423   46.6349 H   0  0  0  0  0  0  0  0  0  0  0  0
   65.2340   33.1070   47.6440 H   0  0  0  0  0  0  0  0  0  0  0  0
   66.7921   32.7206   51.1783 H   0  0  0  0  0  0  0  0  0  0  0  0
   66.9546   31.7847   49.6537 H   0  0  0  0  0  0  0  0  0  0  0  0
   67.2405   33.5581   49.6537 H   0  0  0  0  0  0  0  0  0  0  0  0
   64.2754   32.9018   51.8323 H   0  0  0  0  0  0  0  0  0  0  0  0
   61.4394   33.2144   51.4963 H   0  0  0  0  0  0  0  0  0  0  0  0
   59.2500   33.6383   51.0177 H   0  0  0  0  0  0  0  0  0  0  0  0
   58.8827   34.5898   49.5391 H   0  0  0  0  0  0  0  0  0  0  0  0
   58.6580   32.8076   49.5391 H   0  0  0  0  0  0  0  0  0  0  0  0
  1  2  1  0
  2  3  1  0
  3  4  1  0
  4  5  2  0
  5  6  1  0
  6  7  2  0
  7  8  1  0
  8  9  2  0
  9 10  1  0
 10 11  2  0
 11 12  1  0
 12 13  2  0
 13 14  1  0
 14 15  2  0
 15 16  1  0
 16 17  1  0
 17 18  1  0
 18 19  1  0
 18 20  2  0
 20 21  1  0
 21 22  1  0
 22 23  2  0
 23 24  1  0
 13 25  1  0
  9  4  1  0
 25 10  1  0
 23 14  1  0
 21 16  2  0
  1 26  1  0
  1 27  1  0
  1 28  1  0
  2 29  1  0
  2 30  1  0
  5 31  1  0
  6 32  1  0
  7 33  1  0
  8 34  1  0
 12 35  1  0
 15 36  1  0
 17 37  1  0
 19 38  1  0
 19 39  1  0
 19 40  1  0
 20 41  1  0
 22 42  1  0
 24 43  1  0
 24 44  1  0
 24 45  1  0
M  END
>  <UniqueID>  (59) 
51

>  <SMILES>  (59) 
CCOc1ccccc1-c1ncc(-c2cc3[nH]c(C)cc3cc2C)o1

>  <Energy>  (59) 
112.2335697046886

>  <Genealogy>  (59) 
CCOc1ccccc1-c1ncc(-c2cc3[nH]c(C)cc3cc2C)o1 (3D coordinates assigned)
CCOc1ccccc1-c1ncc(-c2cc3[nH]c(C)cc3cc2C)o1 (optimized conformer: 112.2335697046886 kcal/mol)

>  <smiles>  (59) 
CCOc1ccccc1-c1ncc(-c2cc3[nH]c(C)cc3cc2C)o1

>  <score_type>  (59) 
oracle

>  <origin>  (59) 
adg

>  <m_score__min__energy>  (59) 
-8.1799999999999997

>  <m_primary>  (59) 
energy

$$$$
59:0
     RDKit          3D

 46 48  0  0  0  0  0  0  0  0999 V2000
   56.9950   31.9190   51.9500 C   0  0  0  0  0  0  0  0  0  0  0  0
   58.1120   32.5520   51.2630 N   0  0  0  0  0  0  0  0  0  0  0  0
   58.5750   32.2280   50.0410 C   0  0  0  0  0  0  0  0  0  0  0  0
   59.6670   33.0220   49.7940 C   0  0  0  0  0  0  0  0  0  0  0  0
   60.4580   33.0130   48.6040 N   0  0  0  0  0  0  0  0  0  0  0  0
   61.5570   31.7310   48.2140 S   0  0  0  0  0  0  0  0  0  0  0  0
   62.4250   32.1680   47.0670 O   0  0  0  0  0  0  0  0  0  0  0  0
   62.4230   31.4420   49.4080 O   0  0  0  0  0  0  0  0  0  0  0  0
   60.6590   30.2770   47.7900 C   0  0  0  0  0  0  0  0  0  0  0  0
   59.8390   29.6570   48.7410 C   0  0  0  0  0  0  0  0  0  0  0  0
   59.1130   28.5110   48.4060 C   0  0  0  0  0  0  0  0  0  0  0  0
   59.2050   27.9650   47.1110 C   0  0  0  0  0  0  0  0  0  0  0  0
   58.5050   26.8130   46.7200 O   0  0  0  0  0  0  0  0  0  0  0  0
   57.7580   26.6600   45.5130 C   0  0  0  0  0  0  0  0  0  0  0  0
   56.4320   27.3620   45.6160 C   0  0  0  0  0  0  0  0  0  0  0  0
   55.4290   26.7190   46.0190 O   0  0  0  0  0  0  0  0  0  0  0  0
   56.2670   28.7400   45.2600 N   0  0  0  0  0  0  0  0  0  0  0  0
   56.9470   29.4410   44.1760 C   0  0  0  0  0  0  0  0  0  0  0  0
   57.4970   30.7700   44.6340 C   0  0  0  0  0  0  0  0  0  0  0  0
   57.7710   30.9670   46.0000 C   0  0  0  0  0  0  0  0  0  0  0  0
   58.2510   32.1960   46.4570 C   0  0  0  0  0  0  0  0  0  0  0  0
   58.4560   33.2450   45.5590 C   0  0  0  0  0  0  0  0  0  0  0  0
   58.1820   33.0670   44.2020 C   0  0  0  0  0  0  0  0  0  0  0  0
   57.6980   31.8410   43.7320 C   0  0  0  0  0  0  0  0  0  0  0  0
   57.3340   31.6920   42.0170 Cl  0  0  0  0  0  0  0  0  0  0  0  0
   60.0240   28.5930   46.1650 C   0  0  0  0  0  0  0  0  0  0  0  0
   60.7510   29.7390   46.5010 C   0  0  0  0  0  0  0  0  0  0  0  0
   59.8310   33.8120   50.9160 C   0  0  0  0  0  0  0  0  0  0  0  0
   58.8670   33.4990   51.8040 N   0  0  0  0  0  0  0  0  0  0  0  0
   57.1394   32.0008   53.0374 H   0  0  0  0  0  0  0  0  0  0  0  0
   56.0581   32.4204   51.6658 H   0  0  0  0  0  0  0  0  0  0  0  0
   56.9437   30.8576   51.6658 H   0  0  0  0  0  0  0  0  0  0  0  0
   58.1557   31.4677   49.3656 H   0  0  0  0  0  0  0  0  0  0  0  0
   59.7661   30.0740   49.7563 H   0  0  0  0  0  0  0  0  0  0  0  0
   58.4668   28.0332   49.1570 H   0  0  0  0  0  0  0  0  0  0  0  0
   58.3300   27.0895   44.6774 H   0  0  0  0  0  0  0  0  0  0  0  0
   57.5785   25.5884   45.3416 H   0  0  0  0  0  0  0  0  0  0  0  0
   57.7769   28.8172   43.8124 H   0  0  0  0  0  0  0  0  0  0  0  0
   56.2166   29.6280   43.3750 H   0  0  0  0  0  0  0  0  0  0  0  0
   57.6058   30.1463   46.7135 H   0  0  0  0  0  0  0  0  0  0  0  0
   58.4679   32.3378   47.5260 H   0  0  0  0  0  0  0  0  0  0  0  0
   58.8338   34.2126   45.9211 H   0  0  0  0  0  0  0  0  0  0  0  0
   58.3475   33.8956   43.4977 H   0  0  0  0  0  0  0  0  0  0  0  0
   60.0962   28.1809   45.1477 H   0  0  0  0  0  0  0  0  0  0  0  0
   61.3967   30.2189   45.7508 H   0  0  0  0  0  0  0  0  0  0  0  0
   60.6162   34.5688   51.0599 H   0  0  0  0  0  0  0  0  0  0  0  0
  1  2  1  0
  2  3  1  0
  3  4  2  0
  4  5  1  0
  5  6  1  0
  6  7  2  0
  6  8  2  0
  6  9  1  0
  9 10  2  0
 10 11  1  0
 11 12  2  0
 12 13  1  0
 13 14  1  0
 14 15  1  0
 15 16  2  0
 15 17  1  0
 17 18  1  0
 18 19  1  0
 19 20  2  0
 20 21  1  0
 21 22  2  0
 22 23  1  0
 23 24  2  0
 24 25  1  0
 12 26  1  0
 26 27  2  0
  4 28  1  0
 28 29  2  0
 29  2  1  0
 27  9  1  0
 24 19  1  0
  1 30  1  0
  1 31  1  0
  1 32  1  0
  3 33  1  0
 10 34  1  0
 11 35  1  0
 14 36  1  0
 14 37  1  0
 18 38  1  0
 18 39  1  0
 20 40  1  0
 21 41  1  0
 22 42  1  0
 23 43  1  0
 26 44  1  0
 27 45  1  0
 28 46  1  0
M  CHG  2   5  -1  17  -1
M  END
>  <UniqueID>  (60) 
52

>  <SMILES>  (60) 
Cn1cc([N-]S(=O)(=O)c2ccc(OCC(=O)[N-]Cc3ccccc3Cl)cc2)cn1

>  <Energy>  (60) 
77.42162833746427

>  <Genealogy>  (60) 
Cn1cc([N-]S(=O)(=O)c2ccc(OCC(=O)[N-]Cc3ccccc3Cl)cc2)cn1 (protonated)
Cn1cc([N-]S(=O)(=O)c2ccc(OCC(=O)[N-]Cc3ccccc3Cl)cc2)cn1 (3D coordinates assigned)
Cn1cc([N-]S(=O)(=O)c2ccc(OCC(=O)[N-]Cc3ccccc3Cl)cc2)cn1 (optimized conformer: 77.42162833746427 kcal/mol)

>  <smiles>  (60) 
Cn1cc(NS(=O)(=O)c2ccc(OCC(=O)NCc3ccccc3Cl)cc2)cn1

>  <score_type>  (60) 
oracle

>  <origin>  (60) 
adg

>  <m_score__min__energy>  (60) 
-11.220000000000001

>  <m_primary>  (60) 
energy

$$$$
60:0
     RDKit          3D

 52 54  0  0  0  0  0  0  0  0999 V2000
   55.9010   25.2010   45.8590 C   0  0  0  0  0  0  0  0  0  0  0  0
   56.3420   26.4670   46.3360 O   0  0  0  0  0  0  0  0  0  0  0  0
   57.6880   26.8240   46.5300 C   0  0  0  0  0  0  0  0  0  0  0  0
   58.3120   26.7090   47.7880 C   0  0  0  0  0  0  0  0  0  0  0  0
   59.6460   27.0930   47.9510 C   0  0  0  0  0  0  0  0  0  0  0  0
   60.3690   27.5970   46.8700 C   0  0  0  0  0  0  0  0  0  0  0  0
   59.7620   27.7150   45.6170 C   0  0  0  0  0  0  0  0  0  0  0  0
   58.4290   27.3150   45.4330 C   0  0  0  0  0  0  0  0  0  0  0  0
   57.7760   27.4890   44.0860 C   0  0  0  0  0  0  0  0  0  0  0  0
   57.7230   28.9070   43.7460 N   0  0  0  0  0  0  0  0  0  0  0  0
   56.4970   29.6490   43.7820 C   0  0  0  0  0  0  0  0  0  0  0  0
   55.5670   29.2920   44.5560 O   0  0  0  0  0  0  0  0  0  0  0  0
   56.2820   30.8090   42.8590 C   0  0  0  0  0  0  0  0  0  0  0  0
   57.7710   31.8670   42.7480 S   0  0  0  0  0  0  0  0  0  0  0  0
   58.1890   31.7320   44.4910 C   0  0  0  0  0  0  0  0  0  0  0  0
   58.9800   30.7640   44.9880 N   0  0  0  0  0  0  0  0  0  0  0  0
   59.1550   31.0300   46.2740 N   0  0  0  0  0  0  0  0  0  0  0  0
   58.4650   32.1570   46.5410 C   0  0  0  0  0  0  0  0  0  0  0  0
   58.5220   32.8500   47.8700 C   0  0  0  0  0  0  0  0  0  0  0  0
   58.8690   31.8940   48.9160 N   0  0  0  0  0  0  0  0  0  0  0  0
   60.1730   31.3150   49.0620 C   0  0  0  0  0  0  0  0  0  0  0  0
   60.2930   30.1780   49.5900 O   0  0  0  0  0  0  0  0  0  0  0  0
   61.3760   32.0580   48.6040 C   0  0  0  0  0  0  0  0  0  0  0  0
   61.7640   33.2430   49.2600 C   0  0  0  0  0  0  0  0  0  0  0  0
   62.9080   33.9380   48.8570 C   0  0  0  0  0  0  0  0  0  0  0  0
   63.6720   33.4690   47.7870 C   0  0  0  0  0  0  0  0  0  0  0  0
   63.2940   32.3030   47.1180 C   0  0  0  0  0  0  0  0  0  0  0  0
   62.1540   31.5980   47.5180 C   0  0  0  0  0  0  0  0  0  0  0  0
   61.8290   30.4610   46.8510 F   0  0  0  0  0  0  0  0  0  0  0  0
   57.8250   32.6120   45.4430 N   0  0  0  0  0  0  0  0  0  0  0  0
   57.0460   33.8390   45.2860 C   0  0  0  0  0  0  0  0  0  0  0  0
   55.6730   24.5465   46.7132 H   0  0  0  0  0  0  0  0  0  0  0  0
   54.9964   25.3344   45.2475 H   0  0  0  0  0  0  0  0  0  0  0  0
   56.6927   24.7435   45.2475 H   0  0  0  0  0  0  0  0  0  0  0  0
   57.7468   26.3153   48.6456 H   0  0  0  0  0  0  0  0  0  0  0  0
   60.1274   26.9974   48.9354 H   0  0  0  0  0  0  0  0  0  0  0  0
   61.4174   27.9017   47.0039 H   0  0  0  0  0  0  0  0  0  0  0  0
   60.3321   28.1238   44.7697 H   0  0  0  0  0  0  0  0  0  0  0  0
   58.3599   26.9517   43.3242 H   0  0  0  0  0  0  0  0  0  0  0  0
   56.7540   27.0838   44.1210 H   0  0  0  0  0  0  0  0  0  0  0  0
   58.5670   29.3310   43.3060 H   0  0  0  0  0  0  0  0  0  0  0  0
   56.0399   30.4271   41.8562 H   0  0  0  0  0  0  0  0  0  0  0  0
   55.4568   31.4174   43.2576 H   0  0  0  0  0  0  0  0  0  0  0  0
   59.2828   33.6437   47.8348 H   0  0  0  0  0  0  0  0  0  0  0  0
   57.5373   33.2871   48.0921 H   0  0  0  0  0  0  0  0  0  0  0  0
   61.1611   33.6248   50.0971 H   0  0  0  0  0  0  0  0  0  0  0  0
   63.2067   34.8562   49.3840 H   0  0  0  0  0  0  0  0  0  0  0  0
   64.5715   34.0177   47.4709 H   0  0  0  0  0  0  0  0  0  0  0  0
   63.8954   31.9373   46.2727 H   0  0  0  0  0  0  0  0  0  0  0  0
   56.7909   34.2408   46.2777 H   0  0  0  0  0  0  0  0  0  0  0  0
   57.6387   34.5811   44.7311 H   0  0  0  0  0  0  0  0  0  0  0  0
   56.1222   33.6184   44.7311 H   0  0  0  0  0  0  0  0  0  0  0  0
  1  2  1  0
  2  3  1  0
  3  4  2  0
  4  5  1  0
  5  6  2  0
  6  7  1  0
  7  8  2  0
  8  9  1  0
  9 10  1  0
 10 11  1  0
 11 12  2  0
 11 13  1  0
 13 14  1  0
 14 15  1  0
 15 16  2  0
 16 17  1  0
 17 18  2  0
 18 19  1  0
 19 20  1  0
 20 21  1  0
 21 22  2  0
 21 23  1  0
 23 24  2  0
 24 25  1  0
 25 26  2  0
 26 27  1  0
 27 28  2  0
 28 29  1  0
 18 30  1  0
 30 31  1  0
  8  3  1  0
 30 15  1  0
 28 23  1  0
  1 32  1  0
  1 33  1  0
  1 34  1  0
  4 35  1  0
  5 36  1  0
  6 37  1  0
  7 38  1  0
  9 39  1  0
  9 40  1  0
 10 41  1  0
 13 42  1  0
 13 43  1  0
 19 44  1  0
 19 45  1  0
 24 46  1  0
 25 47  1  0
 26 48  1  0
 27 49  1  0
 31 50  1  0
 31 51  1  0
 31 52  1  0
M  CHG  1  20  -1
M  END
>  <UniqueID>  (61) 
53

>  <SMILES>  (61) 
COc1ccccc1CNC(=O)CSc1nnc(C[N-]C(=O)c2ccccc2F)n1C

>  <Energy>  (61) 
77.71838179959897

>  <Genealogy>  (61) 
COc1ccccc1CNC(=O)CSc1nnc(C[N-]C(=O)c2ccccc2F)n1C (protonated)
COc1ccccc1CNC(=O)CSc1nnc(C[N-]C(=O)c2ccccc2F)n1C (3D coordinates assigned)
COc1ccccc1CNC(=O)CSc1nnc(C[N-]C(=O)c2ccccc2F)n1C (optimized conformer: 77.71838179959897 kcal/mol)

>  <smiles>  (61) 
COc1ccccc1CNC(=O)CSc1nnc(CNC(=O)c2ccccc2F)n1C

>  <score_type>  (61) 
oracle

>  <origin>  (61) 
adg

>  <m_score__min__energy>  (61) 
-11.710000000000001

>  <m_primary>  (61) 
energy

$$$$
61:0
     RDKit          3D

 38 40  0  0  0  0  0  0  0  0999 V2000
   59.3700   30.8070   47.1850 C   0  0  0  0  0  0  0  0  0  0  0  0
   58.6970   31.9850   46.5270 C   0  0  0  0  0  0  0  0  0  0  0  0
   58.4560   33.1390   47.2930 C   0  0  0  0  0  0  0  0  0  0  0  0
   57.8070   34.2410   46.7350 C   0  0  0  0  0  0  0  0  0  0  0  0
   57.3880   34.2060   45.4080 C   0  0  0  0  0  0  0  0  0  0  0  0
   57.6260   33.0740   44.6280 C   0  0  0  0  0  0  0  0  0  0  0  0
   58.3070   31.9610   45.1600 C   0  0  0  0  0  0  0  0  0  0  0  0
   58.5280   30.7450   44.2790 C   0  0  0  0  0  0  0  0  0  0  0  0
   57.7220   29.6020   44.7340 N   0  0  0  0  0  0  0  0  0  0  0  0
   56.3620   29.5170   44.7770 C   0  0  0  0  0  0  0  0  0  0  0  0
   55.5640   30.4710   44.4150 N   0  0  0  0  0  0  0  0  0  0  0  0
   55.8970   28.3370   45.2530 N   0  0  0  0  0  0  0  0  0  0  0  0
   57.0310   27.6620   45.5210 C   0  0  0  0  0  0  0  0  0  0  0  0
   58.1250   28.4090   45.2240 C   0  0  0  0  0  0  0  0  0  0  0  0
   59.4000   27.9100   45.4890 C   0  0  0  0  0  0  0  0  0  0  0  0
   60.4260   28.6080   45.2680 O   0  0  0  0  0  0  0  0  0  0  0  0
   59.5090   26.6440   46.0180 N   0  0  0  0  0  0  0  0  0  0  0  0
   60.8370   26.0910   46.3390 C   0  0  0  0  0  0  0  0  0  0  0  0
   58.3740   25.9150   46.3280 C   0  0  0  0  0  0  0  0  0  0  0  0
   58.4870   24.7830   46.8770 O   0  0  0  0  0  0  0  0  0  0  0  0
   57.1200   26.4140   46.0550 N   0  0  0  0  0  0  0  0  0  0  0  0
   55.9050   25.6680   46.4090 C   0  0  0  0  0  0  0  0  0  0  0  0
   59.3092   30.9135   48.2781 H   0  0  0  0  0  0  0  0  0  0  0  0
   58.8661   29.8785   46.8784 H   0  0  0  0  0  0  0  0  0  0  0  0
   60.4258   30.7696   46.8784 H   0  0  0  0  0  0  0  0  0  0  0  0
   58.7824   33.1735   48.3429 H   0  0  0  0  0  0  0  0  0  0  0  0
   57.6262   35.1386   47.3446 H   0  0  0  0  0  0  0  0  0  0  0  0
   56.8682   35.0726   44.9735 H   0  0  0  0  0  0  0  0  0  0  0  0
   57.2777   33.0500   43.5849 H   0  0  0  0  0  0  0  0  0  0  0  0
   58.2446   30.9947   43.2459 H   0  0  0  0  0  0  0  0  0  0  0  0
   59.5903   30.4647   44.3341 H   0  0  0  0  0  0  0  0  0  0  0  0
   54.5440   30.4730   44.6370 H   0  0  0  0  0  0  0  0  0  0  0  0
   60.9589   26.0403   47.4311 H   0  0  0  0  0  0  0  0  0  0  0  0
   60.9264   25.0809   45.9128 H   0  0  0  0  0  0  0  0  0  0  0  0
   61.6169   26.7391   45.9128 H   0  0  0  0  0  0  0  0  0  0  0  0
   55.8147   25.6126   47.5039 H   0  0  0  0  0  0  0  0  0  0  0  0
   55.0253   26.1818   45.9941 H   0  0  0  0  0  0  0  0  0  0  0  0
   55.9652   24.6510   45.9941 H   0  0  0  0  0  0  0  0  0  0  0  0
  1  2  1  0
  2  3  2  0
  3  4  1  0
  4  5  2  0
  5  6  1  0
  6  7  2  0
  7  8  1  0
  8  9  1  0
  9 10  1  0
 10 11  2  3
 10 12  1  0
 12 13  1  0
 13 14  2  0
 14 15  1  0
 15 16  2  0
 15 17  1  0
 17 18  1  0
 17 19  1  0
 19 20  2  0
 19 21  1  0
 21 22  1  0
  7  2  1  0
 14  9  1  0
 21 13  1  0
  1 23  1  0
  1 24  1  0
  1 25  1  0
  3 26  1  0
  4 27  1  0
  5 28  1  0
  6 29  1  0
  8 30  1  0
  8 31  1  0
 11 32  1  0
 18 33  1  0
 18 34  1  0
 18 35  1  0
 22 36  1  0
 22 37  1  0
 22 38  1  0
M  CHG  1  12  -1
M  END
>  <UniqueID>  (62) 
54

>  <SMILES>  (62) 
Cc1ccccc1Cn1c(=N)[n-]c2c1c(=O)n(C)c(=O)n2C

>  <Energy>  (62) 
89.50921817835228

>  <Genealogy>  (62) 
Cc1ccccc1Cn1c(=N)[n-]c2c1c(=O)n(C)c(=O)n2C (protonated)
Cc1ccccc1Cn1c(=N)[n-]c2c1c(=O)n(C)c(=O)n2C (3D coordinates assigned)
Cc1ccccc1Cn1c(=N)[n-]c2c1c(=O)n(C)c(=O)n2C (optimized conformer: 89.50921817835228 kcal/mol)

>  <smiles>  (62) 
Cc1ccccc1Cn1c(=N)[nH]c2c1c(=O)n(C)c(=O)n2C

>  <score_type>  (62) 
oracle

>  <origin>  (62) 
adg

>  <m_score__min__energy>  (62) 
-8.7100000000000009

>  <m_primary>  (62) 
energy

$$$$
62:0
     RDKit          3D

 47 49  0  0  0  0  0  0  0  0999 V2000
   57.3930   31.9600   41.9250 C   0  0  0  0  0  0  0  0  0  0  0  0
   58.4100   32.1060   43.0540 C   0  0  0  0  0  0  0  0  0  0  0  0
   57.7950   31.8310   44.3610 N   0  0  0  0  0  0  0  0  0  0  0  0
   57.6090   32.9050   45.3130 C   0  0  0  0  0  0  0  0  0  0  0  0
   56.5770   33.6280   45.2450 O   0  0  0  0  0  0  0  0  0  0  0  0
   58.6250   33.2100   46.3480 C   0  0  0  0  0  0  0  0  0  0  0  0
   59.7940   33.9080   45.9990 C   0  0  0  0  0  0  0  0  0  0  0  0
   60.7680   34.1820   46.9640 C   0  0  0  0  0  0  0  0  0  0  0  0
   60.5770   33.7730   48.2860 C   0  0  0  0  0  0  0  0  0  0  0  0
   59.4110   33.0920   48.6460 C   0  0  0  0  0  0  0  0  0  0  0  0
   58.4350   32.8190   47.6840 C   0  0  0  0  0  0  0  0  0  0  0  0
   57.5780   30.4600   44.7560 C   0  0  0  0  0  0  0  0  0  0  0  0
   58.5800   29.7240   45.4220 C   0  0  0  0  0  0  0  0  0  0  0  0
   59.8860   30.3100   45.5770 N   0  0  0  0  0  0  0  0  0  0  0  0
   58.3030   28.4580   45.8950 N   0  0  0  0  0  0  0  0  0  0  0  0
   59.3110   27.6600   46.6260 C   0  0  0  0  0  0  0  0  0  0  0  0
   59.5510   28.2240   48.0080 C   0  0  0  0  0  0  0  0  0  0  0  0
   60.5090   27.6350   48.8530 C   0  0  0  0  0  0  0  0  0  0  0  0
   60.7450   28.1610   50.1260 C   0  0  0  0  0  0  0  0  0  0  0  0
   60.0350   29.2810   50.5660 C   0  0  0  0  0  0  0  0  0  0  0  0
   59.0880   29.8780   49.7310 C   0  0  0  0  0  0  0  0  0  0  0  0
   58.8460   29.3560   48.4580 C   0  0  0  0  0  0  0  0  0  0  0  0
   57.0540   27.9170   45.6990 C   0  0  0  0  0  0  0  0  0  0  0  0
   56.7770   26.7680   46.1410 O   0  0  0  0  0  0  0  0  0  0  0  0
   56.1000   28.6080   45.0220 N   0  0  0  0  0  0  0  0  0  0  0  0
   56.3320   29.8580   44.5540 C   0  0  0  0  0  0  0  0  0  0  0  0
   55.4110   30.4810   43.9620 O   0  0  0  0  0  0  0  0  0  0  0  0
   56.3895   31.8159   42.3518 H   0  0  0  0  0  0  0  0  0  0  0  0
   57.4007   32.8685   41.3048 H   0  0  0  0  0  0  0  0  0  0  0  0
   57.6560   31.0904   41.3048 H   0  0  0  0  0  0  0  0  0  0  0  0
   59.2343   31.3966   42.8887 H   0  0  0  0  0  0  0  0  0  0  0  0
   58.7838   33.1405   43.0551 H   0  0  0  0  0  0  0  0  0  0  0  0
   59.9434   34.2405   44.9611 H   0  0  0  0  0  0  0  0  0  0  0  0
   61.6852   34.7199   46.6821 H   0  0  0  0  0  0  0  0  0  0  0  0
   61.3448   33.9871   49.0440 H   0  0  0  0  0  0  0  0  0  0  0  0
   59.2614   32.7707   49.6873 H   0  0  0  0  0  0  0  0  0  0  0  0
   57.5125   32.2949   47.9744 H   0  0  0  0  0  0  0  0  0  0  0  0
   60.0680   31.1100   46.2180 H   0  0  0  0  0  0  0  0  0  0  0  0
   60.6810   30.0090   44.9700 H   0  0  0  0  0  0  0  0  0  0  0  0
   58.9522   26.6242   46.7176 H   0  0  0  0  0  0  0  0  0  0  0  0
   60.2569   27.6923   46.0654 H   0  0  0  0  0  0  0  0  0  0  0  0
   61.0750   26.7563   48.5102 H   0  0  0  0  0  0  0  0  0  0  0  0
   61.4918   27.6919   50.7834 H   0  0  0  0  0  0  0  0  0  0  0  0
   60.2217   29.6921   51.5691 H   0  0  0  0  0  0  0  0  0  0  0  0
   58.5312   30.7615   50.0766 H   0  0  0  0  0  0  0  0  0  0  0  0
   58.1006   29.8321   47.8040 H   0  0  0  0  0  0  0  0  0  0  0  0
   55.1600   28.1750   44.8770 H   0  0  0  0  0  0  0  0  0  0  0  0
  1  2  1  0
  2  3  1  0
  3  4  1  0
  4  5  2  0
  4  6  1  0
  6  7  2  0
  7  8  1  0
  8  9  2  0
  9 10  1  0
 10 11  2  0
  3 12  1  0
 12 13  2  0
 13 14  1  0
 13 15  1  0
 15 16  1  0
 16 17  1  0
 17 18  2  0
 18 19  1  0
 19 20  2  0
 20 21  1  0
 21 22  2  0
 15 23  1  0
 23 24  2  0
 23 25  1  0
 25 26  1  0
 26 27  2  0
 11  6  1  0
 26 12  1  0
 22 17  1  0
  1 28  1  0
  1 29  1  0
  1 30  1  0
  2 31  1  0
  2 32  1  0
  7 33  1  0
  8 34  1  0
  9 35  1  0
 10 36  1  0
 11 37  1  0
 14 38  1  0
 14 39  1  0
 16 40  1  0
 16 41  1  0
 18 42  1  0
 19 43  1  0
 20 44  1  0
 21 45  1  0
 22 46  1  0
 25 47  1  0
M  END
>  <UniqueID>  (63) 
55

>  <SMILES>  (63) 
CCN(C(=O)c1ccccc1)c1c(N)n(Cc2ccccc2)c(=O)[nH]c1=O

>  <Energy>  (63) 
62.96571795084825

>  <Genealogy>  (63) 
CCN(C(=O)c1ccccc1)c1c(N)n(Cc2ccccc2)c(=O)[nH]c1=O (3D coordinates assigned)
CCN(C(=O)c1ccccc1)c1c(N)n(Cc2ccccc2)c(=O)[nH]c1=O (optimized conformer: 62.96571795084825 kcal/mol)

>  <smiles>  (63) 
CCN(C(=O)c1ccccc1)c1c(N)n(Cc2ccccc2)c(=O)[nH]c1=O

>  <score_type>  (63) 
oracle

>  <origin>  (63) 
adg

>  <m_score__min__energy>  (63) 
-7.5099999999999998

>  <m_primary>  (63) 
energy

$$$$
63:0
     RDKit          3D

 39 41  0  0  0  0  0  0  0  0999 V2000
   58.9520   31.8570   46.4220 C   0  0  0  0  0  0  0  0  0  0  0  0
   60.3780   32.2160   46.7620 C   0  0  0  0  0  0  0  0  0  0  0  0
   60.8160   33.5590   46.6850 C   0  0  0  0  0  0  0  0  0  0  0  0
   59.6460   35.0000   46.1920 Br  0  0  0  0  0  0  0  0  0  0  0  0
   62.1420   33.8830   46.9920 C   0  0  0  0  0  0  0  0  0  0  0  0
   63.0350   32.8940   47.3960 C   0  0  0  0  0  0  0  0  0  0  0  0
   62.6090   31.5720   47.5090 C   0  0  0  0  0  0  0  0  0  0  0  0
   61.2850   31.2170   47.1980 C   0  0  0  0  0  0  0  0  0  0  0  0
   60.8480   29.8600   47.3910 N   0  0  0  0  0  0  0  0  0  0  0  0
   60.2230   29.3930   48.5930 C   0  0  0  0  0  0  0  0  0  0  0  0
   60.1370   30.1470   49.6010 O   0  0  0  0  0  0  0  0  0  0  0  0
   59.6800   28.0670   48.6280 N   0  0  0  0  0  0  0  0  0  0  0  0
   59.0590   27.3680   47.5380 C   0  0  0  0  0  0  0  0  0  0  0  0
   58.8370   25.9910   47.6640 C   0  0  0  0  0  0  0  0  0  0  0  0
   58.2170   25.2760   46.6360 C   0  0  0  0  0  0  0  0  0  0  0  0
   57.8020   25.9320   45.4680 C   0  0  0  0  0  0  0  0  0  0  0  0
   57.0990   25.1710   44.3780 C   0  0  0  0  0  0  0  0  0  0  0  0
   55.7900   24.6440   44.8780 C   0  0  0  0  0  0  0  0  0  0  0  0
   55.1800   23.1040   44.5630 S   0  0  0  0  0  0  0  0  0  0  0  0
   53.7400   23.4200   45.3710 C   0  0  0  0  0  0  0  0  0  0  0  0
   52.8020   22.5920   45.4980 O   0  0  0  0  0  0  0  0  0  0  0  0
   53.6880   24.6740   45.8710 N   0  0  0  0  0  0  0  0  0  0  0  0
   54.8280   25.3570   45.5900 C   0  0  0  0  0  0  0  0  0  0  0  0
   55.0030   26.6760   45.9890 O   0  0  0  0  0  0  0  0  0  0  0  0
   57.9900   27.3180   45.3540 C   0  0  0  0  0  0  0  0  0  0  0  0
   58.6110   28.0340   46.3830 C   0  0  0  0  0  0  0  0  0  0  0  0
   58.3790   31.7127   47.3498 H   0  0  0  0  0  0  0  0  0  0  0  0
   58.4996   32.6693   45.8342 H   0  0  0  0  0  0  0  0  0  0  0  0
   58.9381   30.9273   45.8342 H   0  0  0  0  0  0  0  0  0  0  0  0
   62.4814   34.9264   46.9137 H   0  0  0  0  0  0  0  0  0  0  0  0
   64.0781   33.1566   47.6263 H   0  0  0  0  0  0  0  0  0  0  0  0
   63.3157   30.7988   47.8448 H   0  0  0  0  0  0  0  0  0  0  0  0
   61.0320   29.1600   46.6350 H   0  0  0  0  0  0  0  0  0  0  0  0
   59.1530   25.4685   48.5789 H   0  0  0  0  0  0  0  0  0  0  0  0
   58.0537   24.1935   46.7434 H   0  0  0  0  0  0  0  0  0  0  0  0
   56.9189   25.8413   43.5247 H   0  0  0  0  0  0  0  0  0  0  0  0
   57.7303   24.3264   44.0649 H   0  0  0  0  0  0  0  0  0  0  0  0
   57.6473   27.8442   44.4508 H   0  0  0  0  0  0  0  0  0  0  0  0
   58.7493   29.1212   46.2885 H   0  0  0  0  0  0  0  0  0  0  0  0
  1  2  1  0
  2  3  2  0
  3  4  1  0
  3  5  1  0
  5  6  2  0
  6  7  1  0
  7  8  2  0
  8  9  1  0
  9 10  1  0
 10 11  2  0
 10 12  1  0
 12 13  1  0
 13 14  2  0
 14 15  1  0
 15 16  2  0
 16 17  1  0
 17 18  1  0
 18 19  1  0
 19 20  1  0
 20 21  2  0
 20 22  1  0
 22 23  1  0
 23 24  1  0
 16 25  1  0
 25 26  2  0
  8  2  1  0
 26 13  1  0
 23 18  2  0
  1 27  1  0
  1 28  1  0
  1 29  1  0
  5 30  1  0
  6 31  1  0
  7 32  1  0
  9 33  1  0
 14 34  1  0
 15 35  1  0
 17 36  1  0
 17 37  1  0
 25 38  1  0
 26 39  1  0
M  CHG  3  12  -1  22  -1  24  -1
M  END
>  <UniqueID>  (64) 
56

>  <SMILES>  (64) 
Cc1c(Br)cccc1NC(=O)[N-]c1ccc(Cc2sc(=O)[n-]c2[O-])cc1

>  <Energy>  (64) 
80.35412906518263

>  <Genealogy>  (64) 
Cc1c(Br)cccc1NC(=O)[N-]c1ccc(Cc2sc(=O)[n-]c2[O-])cc1 (protonated)
Cc1c(Br)cccc1NC(=O)[N-]c1ccc(Cc2sc(=O)[n-]c2[O-])cc1 (3D coordinates assigned)
Cc1c(Br)cccc1NC(=O)[N-]c1ccc(Cc2sc(=O)[n-]c2[O-])cc1 (optimized conformer: 80.35412906518263 kcal/mol)

>  <smiles>  (64) 
Cc1c(Br)cccc1NC(=O)Nc1ccc(Cc2sc(=O)[nH]c2O)cc1

>  <score_type>  (64) 
oracle

>  <origin>  (64) 
adg

>  <m_score__min__energy>  (64) 
-16.120000000000001

>  <m_primary>  (64) 
energy

$$$$
64:0
     RDKit          3D

 35 36  0  0  0  0  0  0  0  0999 V2000
   55.5120   27.6730   45.8080 H   0  0  0  0  0  0  0  0  0  0  0  0
   55.1580   26.7070   45.9870 N   0  0  0  0  0  0  0  0  0  0  0  0
   56.5220   25.6460   45.9430 S   0  0  0  0  0  0  0  0  0  0  0  0
   56.4430   24.7200   47.1240 O   0  0  0  0  0  0  0  0  0  0  0  0
   56.4650   24.8460   44.6720 O   0  0  0  0  0  0  0  0  0  0  0  0
   58.0400   26.5570   46.0130 C   0  0  0  0  0  0  0  0  0  0  0  0
   58.9750   26.2260   47.0080 C   0  0  0  0  0  0  0  0  0  0  0  0
   58.7346   25.4403   47.7394 H   0  0  0  0  0  0  0  0  0  0  0  0
   60.2040   26.8810   47.0800 C   0  0  0  0  0  0  0  0  0  0  0  0
   60.9225   26.6175   47.8701 H   0  0  0  0  0  0  0  0  0  0  0  0
   60.5210   27.8680   46.1520 C   0  0  0  0  0  0  0  0  0  0  0  0
   61.4949   28.3768   46.2036 H   0  0  0  0  0  0  0  0  0  0  0  0
   59.6080   28.2140   45.1570 C   0  0  0  0  0  0  0  0  0  0  0  0
   59.8722   28.9914   44.4249 H   0  0  0  0  0  0  0  0  0  0  0  0
   58.3500   27.5810   45.0760 C   0  0  0  0  0  0  0  0  0  0  0  0
   57.3900   27.9800   44.0700 N   0  0  0  0  0  0  0  0  0  0  0  0
   57.0720   27.3040   43.3460 H   0  0  0  0  0  0  0  0  0  0  0  0
   56.6670   29.5580   43.9670 S   0  0  0  0  0  0  0  0  0  0  0  0
   55.4210   29.5870   44.8060 O   0  0  0  0  0  0  0  0  0  0  0  0
   56.2890   29.8220   42.5370 O   0  0  0  0  0  0  0  0  0  0  0  0
   57.7630   30.8260   44.5220 C   0  0  0  0  0  0  0  0  0  0  0  0
   58.7221   30.9382   43.9951 H   0  0  0  0  0  0  0  0  0  0  0  0
   57.5110   31.6610   45.5380 C   0  0  0  0  0  0  0  0  0  0  0  0
   56.7257   31.3736   46.2527 H   0  0  0  0  0  0  0  0  0  0  0  0
   58.2110   32.9380   45.7670 C   0  0  0  0  0  0  0  0  0  0  0  0
   58.5030   33.8000   44.6970 C   0  0  0  0  0  0  0  0  0  0  0  0
   58.1726   33.5424   43.6799 H   0  0  0  0  0  0  0  0  0  0  0  0
   59.2120   34.9840   44.9200 C   0  0  0  0  0  0  0  0  0  0  0  0
   59.4297   35.6604   44.0803 H   0  0  0  0  0  0  0  0  0  0  0  0
   59.6440   35.3090   46.2070 C   0  0  0  0  0  0  0  0  0  0  0  0
   60.2027   36.2406   46.3804 H   0  0  0  0  0  0  0  0  0  0  0  0
   59.3670   34.4510   47.2760 C   0  0  0  0  0  0  0  0  0  0  0  0
   59.7031   34.7113   48.2905 H   0  0  0  0  0  0  0  0  0  0  0  0
   58.6630   33.2620   47.0570 C   0  0  0  0  0  0  0  0  0  0  0  0
   58.4070   32.4390   48.1050 F   0  0  0  0  0  0  0  0  0  0  0  0
  1  2  1  0
  2  3  1  0
  3  4  2  0
  3  5  2  0
  3  6  1  0
  6  7  2  0
  7  8  1  0
  7  9  1  0
  9 10  1  0
  9 11  2  0
 11 12  1  0
 11 13  1  0
 13 14  1  0
 13 15  2  0
 15 16  1  0
 16 17  1  0
 16 18  1  0
 18 19  2  0
 18 20  2  0
 18 21  1  0
 21 22  1  0
 21 23  2  0
 23 24  1  0
 23 25  1  0
 25 26  2  0
 26 27  1  0
 26 28  1  0
 28 29  1  0
 28 30  2  0
 30 31  1  0
 30 32  1  0
 32 33  1  0
 32 34  2  0
 34 35  1  0
 15  6  1  0
 34 25  1  0
M  CHG  1   2  -1
M  END
>  <UniqueID>  (65) 
57

>  <SMILES>  (65) 
[NH-]S(=O)(=O)c1ccccc1NS(=O)(=O)/C=C\c1ccccc1F

>  <Energy>  (65) 
45.357151334670675

>  <Genealogy>  (65) 
[NH-]S(=O)(=O)c1ccccc1NS(=O)(=O)C=Cc1ccccc1F (protonated)
[NH-]S(=O)(=O)c1ccccc1NS(=O)(=O)/C=C\c1ccccc1F (cis-trans isomerization)
[NH-]S(=O)(=O)c1ccccc1NS(=O)(=O)/C=C\c1ccccc1F (3D coordinates assigned)
[NH-]S(=O)(=O)c1ccccc1NS(=O)(=O)/C=C\c1ccccc1F (optimized conformer: 45.357151334670675 kcal/mol)

>  <smiles>  (65) 
NS(=O)(=O)c1ccccc1NS(=O)(=O)C=Cc1ccccc1F

>  <score_type>  (65) 
oracle

>  <origin>  (65) 
adg

>  <m_score__min__energy>  (65) 
-12.640000000000001

>  <m_primary>  (65) 
energy

$$$$
65:0
     RDKit          3D

 24 25  0  0  0  0  0  0  0  0999 V2000
   58.1350   27.0920   42.9510 C   0  0  0  0  0  0  0  0  0  0  0  0
   58.3490   28.1880   43.8320 O   0  0  0  0  0  0  0  0  0  0  0  0
   57.4210   28.5610   44.8100 C   0  0  0  0  0  0  0  0  0  0  0  0
   57.2900   27.8720   45.8570 O   0  0  0  0  0  0  0  0  0  0  0  0
   56.6240   29.7860   44.6120 C   0  0  0  0  0  0  0  0  0  0  0  0
   55.3870   29.7390   44.8480 O   0  0  0  0  0  0  0  0  0  0  0  0
   57.2250   31.0580   44.1520 C   0  0  0  0  0  0  0  0  0  0  0  0
   57.4530   31.4550   42.8340 C   0  0  0  0  0  0  0  0  0  0  0  0
   58.0620   32.6620   42.7970 N   0  0  0  0  0  0  0  0  0  0  0  0
   58.2270   33.0340   44.0770 C   0  0  0  0  0  0  0  0  0  0  0  0
   58.8130   34.2110   44.5400 C   0  0  0  0  0  0  0  0  0  0  0  0
   58.8840   34.4080   45.9300 C   0  0  0  0  0  0  0  0  0  0  0  0
   58.3710   33.4370   46.8170 C   0  0  0  0  0  0  0  0  0  0  0  0
   57.7860   32.2580   46.3220 C   0  0  0  0  0  0  0  0  0  0  0  0
   57.7330   32.0840   44.9360 C   0  0  0  0  0  0  0  0  0  0  0  0
   57.9567   26.1790   43.5381 H   0  0  0  0  0  0  0  0  0  0  0  0
   57.2599   27.2968   42.3168 H   0  0  0  0  0  0  0  0  0  0  0  0
   59.0229   26.9526   42.3168 H   0  0  0  0  0  0  0  0  0  0  0  0
   57.1755   30.8670   41.9467 H   0  0  0  0  0  0  0  0  0  0  0  0
   58.3530   33.1880   41.9440 H   0  0  0  0  0  0  0  0  0  0  0  0
   59.2074   34.9620   43.8397 H   0  0  0  0  0  0  0  0  0  0  0  0
   59.3423   35.3248   46.3292 H   0  0  0  0  0  0  0  0  0  0  0  0
   58.4293   33.6038   47.9027 H   0  0  0  0  0  0  0  0  0  0  0  0
   57.3823   31.4958   47.0047 H   0  0  0  0  0  0  0  0  0  0  0  0
  1  2  1  0
  2  3  1  0
  3  4  2  0
  3  5  1  0
  5  6  2  0
  5  7  1  0
  7  8  2  0
  8  9  1  0
  9 10  1  0
 10 11  2  0
 11 12  1  0
 12 13  2  0
 13 14  1  0
 14 15  2  0
 15  7  1  0
 15 10  1  0
  1 16  1  0
  1 17  1  0
  1 18  1  0
  8 19  1  0
  9 20  1  0
 11 21  1  0
 12 22  1  0
 13 23  1  0
 14 24  1  0
M  END
>  <UniqueID>  (66) 
58

>  <SMILES>  (66) 
COC(=O)C(=O)c1c[nH]c2ccccc12

>  <Energy>  (66) 
57.28747958810786

>  <Genealogy>  (66) 
COC(=O)C(=O)c1c[nH]c2ccccc12 (3D coordinates assigned)
COC(=O)C(=O)c1c[nH]c2ccccc12 (optimized conformer: 57.28747958810786 kcal/mol)

>  <smiles>  (66) 
COC(=O)C(=O)c1c[nH]c2ccccc12

>  <score_type>  (66) 
oracle

>  <origin>  (66) 
adg

>  <m_score__min__energy>  (66) 
-5.6799999999999997

>  <m_primary>  (66) 
energy

$$$$
66:0
     RDKit          3D

 39 41  0  0  0  0  0  0  0  0999 V2000
   64.6964   32.7808   48.6965 H   0  0  0  0  0  0  0  0  0  0  0  0
   63.7150   32.7650   48.2000 C   0  0  0  0  0  0  0  0  0  0  0  0
   63.3410   33.8140   47.3580 C   0  0  0  0  0  0  0  0  0  0  0  0
   64.0286   34.6564   47.1921 H   0  0  0  0  0  0  0  0  0  0  0  0
   62.0940   33.7960   46.7250 C   0  0  0  0  0  0  0  0  0  0  0  0
   61.8070   34.6244   46.0606 H   0  0  0  0  0  0  0  0  0  0  0  0
   61.2030   32.7250   46.9320 C   0  0  0  0  0  0  0  0  0  0  0  0
   59.8790   32.7060   46.2600 C   0  0  0  0  0  0  0  0  0  0  0  0
   59.1380   31.5790   45.9380 C   0  0  0  0  0  0  0  0  0  0  0  0
   59.3976   30.5265   46.1246 H   0  0  0  0  0  0  0  0  0  0  0  0
   58.0020   32.0740   45.3310 C   0  0  0  0  0  0  0  0  0  0  0  0
   57.0410   31.3070   44.8970 N   0  0  0  0  0  0  0  0  0  0  0  0
   56.9580   30.5810   43.6650 C   0  0  0  0  0  0  0  0  0  0  0  0
   56.9210   31.1920   42.5650 O   0  0  0  0  0  0  0  0  0  0  0  0
   57.1070   29.0930   43.6790 C   0  0  0  0  0  0  0  0  0  0  0  0
   56.1279   28.6314   43.8745 H   0  0  0  0  0  0  0  0  0  0  0  0
   57.4899   28.7610   42.7027 H   0  0  0  0  0  0  0  0  0  0  0  0
   58.0750   28.6790   44.7530 C   0  0  0  0  0  0  0  0  0  0  0  0
   57.6050   28.2520   46.0060 C   0  0  0  0  0  0  0  0  0  0  0  0
   56.5245   28.2434   46.2120 H   0  0  0  0  0  0  0  0  0  0  0  0
   58.5050   27.8380   46.9920 C   0  0  0  0  0  0  0  0  0  0  0  0
   58.1318   27.5124   47.9742 H   0  0  0  0  0  0  0  0  0  0  0  0
   59.8790   27.8370   46.7320 C   0  0  0  0  0  0  0  0  0  0  0  0
   60.5861   27.5128   47.5098 H   0  0  0  0  0  0  0  0  0  0  0  0
   60.3530   28.2480   45.4840 C   0  0  0  0  0  0  0  0  0  0  0  0
   61.4337   28.2444   45.2788 H   0  0  0  0  0  0  0  0  0  0  0  0
   59.4560   28.6640   44.4950 C   0  0  0  0  0  0  0  0  0  0  0  0
   59.8331   28.9807   43.5114 H   0  0  0  0  0  0  0  0  0  0  0  0
   58.0470   33.4320   45.3220 N   0  0  0  0  0  0  0  0  0  0  0  0
   57.0310   34.3980   44.9070 C   0  0  0  0  0  0  0  0  0  0  0  0
   56.5629   34.8431   45.7974 H   0  0  0  0  0  0  0  0  0  0  0  0
   57.5017   35.1897   44.3057 H   0  0  0  0  0  0  0  0  0  0  0  0
   56.2640   33.8879   44.3057 H   0  0  0  0  0  0  0  0  0  0  0  0
   59.1930   33.8030   45.8740 N   0  0  0  0  0  0  0  0  0  0  0  0
   59.4940   34.7960   45.9850 H   0  0  0  0  0  0  0  0  0  0  0  0
   61.5930   31.6730   47.7820 C   0  0  0  0  0  0  0  0  0  0  0  0
   60.9112   30.8269   47.9529 H   0  0  0  0  0  0  0  0  0  0  0  0
   62.8430   31.6970   48.4110 C   0  0  0  0  0  0  0  0  0  0  0  0
   63.1388   30.8707   49.0741 H   0  0  0  0  0  0  0  0  0  0  0  0
  1  2  1  0
  2  3  2  0
  3  4  1  0
  3  5  1  0
  5  6  1  0
  5  7  2  0
  7  8  1  0
  8  9  2  0
  9 10  1  0
  9 11  1  0
 11 12  2  0
 12 13  1  0
 13 14  2  0
 13 15  1  0
 15 16  1  0
 15 17  1  0
 15 18  1  0
 18 19  2  0
 19 20  1  0
 19 21  1  0
 21 22  1  0
 21 23  2  0
 23 24  1  0
 23 25  1  0
 25 26  1  0
 25 27  2  0
 27 28  1  0
 11 29  1  0
 29 30  1  0
 30 31  1  0
 30 32  1  0
 30 33  1  0
 29 34  1  0
 34 35  1  0
  7 36  1  0
 36 37  1  0
 36 38  2  0
 38 39  1  0
 38  2  1  0
 34  8  1  0
 27 18  1  0
M  END
>  <UniqueID>  (67) 
59

>  <SMILES>  (67) 
Cn1[nH]c(-c2ccccc2)c/c1=N/C(=O)Cc1ccccc1

>  <Energy>  (67) 
84.521928615539

>  <Genealogy>  (67) 
Cn1[nH]c(-c2ccccc2)c/c1=N/C(=O)Cc1ccccc1 (cis-trans isomerization)
Cn1[nH]c(-c2ccccc2)c/c1=N/C(=O)Cc1ccccc1 (3D coordinates assigned)
Cn1[nH]c(-c2ccccc2)c/c1=N/C(=O)Cc1ccccc1 (optimized conformer: 84.521928615539 kcal/mol)

>  <smiles>  (67) 
Cn1[nH]c(-c2ccccc2)cc1=NC(=O)Cc1ccccc1

>  <score_type>  (67) 
oracle

>  <origin>  (67) 
adg

>  <m_score__min__energy>  (67) 
-7.7800000000000002

>  <m_primary>  (67) 
energy

$$$$
67:0
     RDKit          3D

 44 47  0  0  0  0  0  0  0  0999 V2000
   60.6490   34.6160   46.7750 O   0  0  0  0  0  0  0  0  0  0  0  0
   60.4430   33.3980   47.0390 C   0  0  0  0  0  0  0  0  0  0  0  0
   59.3680   32.7310   46.4460 C   0  0  0  0  0  0  0  0  0  0  0  0
   58.2930   33.5690   45.3220 S   0  0  0  0  0  0  0  0  0  0  0  0
   59.0560   34.6520   44.6090 O   0  0  0  0  0  0  0  0  0  0  0  0
   57.1500   34.2100   46.0590 O   0  0  0  0  0  0  0  0  0  0  0  0
   57.6530   32.4050   44.1660 C   0  0  0  0  0  0  0  0  0  0  0  0
   57.9340   32.5290   42.7970 C   0  0  0  0  0  0  0  0  0  0  0  0
   57.4340   31.5880   41.8920 C   0  0  0  0  0  0  0  0  0  0  0  0
   56.6590   30.5170   42.3490 C   0  0  0  0  0  0  0  0  0  0  0  0
   56.3840   30.3870   43.7130 C   0  0  0  0  0  0  0  0  0  0  0  0
   56.8810   31.3270   44.6210 C   0  0  0  0  0  0  0  0  0  0  0  0
   59.1620   31.3800   46.7280 C   0  0  0  0  0  0  0  0  0  0  0  0
   59.9810   30.6940   47.5850 N   0  0  0  0  0  0  0  0  0  0  0  0
   59.6620   29.2710   47.8360 C   0  0  0  0  0  0  0  0  0  0  0  0
   58.9760   28.6480   46.6450 C   0  0  0  0  0  0  0  0  0  0  0  0
   59.6900   28.4100   45.4580 C   0  0  0  0  0  0  0  0  0  0  0  0
   59.0500   27.8490   44.3480 C   0  0  0  0  0  0  0  0  0  0  0  0
   57.6900   27.5320   44.4100 C   0  0  0  0  0  0  0  0  0  0  0  0
   56.9670   27.7840   45.5810 C   0  0  0  0  0  0  0  0  0  0  0  0
   55.6120   27.4770   45.6370 O   0  0  0  0  0  0  0  0  0  0  0  0
   57.6040   28.3450   46.6910 C   0  0  0  0  0  0  0  0  0  0  0  0
   61.0430   31.3340   48.1940 C   0  0  0  0  0  0  0  0  0  0  0  0
   61.9100   30.6640   49.0920 C   0  0  0  0  0  0  0  0  0  0  0  0
   62.9770   31.3320   49.6940 C   0  0  0  0  0  0  0  0  0  0  0  0
   63.2080   32.6760   49.4190 C   0  0  0  0  0  0  0  0  0  0  0  0
   62.3740   33.3640   48.5400 C   0  0  0  0  0  0  0  0  0  0  0  0
   61.2900   32.7080   47.9230 C   0  0  0  0  0  0  0  0  0  0  0  0
   58.5480   33.3670   42.4356 H   0  0  0  0  0  0  0  0  0  0  0  0
   57.6505   31.6901   40.8184 H   0  0  0  0  0  0  0  0  0  0  0  0
   56.2663   29.7777   41.6354 H   0  0  0  0  0  0  0  0  0  0  0  0
   55.7757   29.5440   44.0728 H   0  0  0  0  0  0  0  0  0  0  0  0
   56.6658   31.2204   45.6945 H   0  0  0  0  0  0  0  0  0  0  0  0
   58.3222   30.8537   46.2508 H   0  0  0  0  0  0  0  0  0  0  0  0
   60.5947   28.7245   48.0394 H   0  0  0  0  0  0  0  0  0  0  0  0
   58.9828   29.2130   48.6993 H   0  0  0  0  0  0  0  0  0  0  0  0
   60.7582   28.6664   45.4016 H   0  0  0  0  0  0  0  0  0  0  0  0
   59.6174   27.6571   43.4254 H   0  0  0  0  0  0  0  0  0  0  0  0
   57.1887   27.0848   43.5390 H   0  0  0  0  0  0  0  0  0  0  0  0
   57.0288   28.5507   47.6058 H   0  0  0  0  0  0  0  0  0  0  0  0
   61.7395   29.6011   49.3181 H   0  0  0  0  0  0  0  0  0  0  0  0
   63.6382   30.7936   50.3889 H   0  0  0  0  0  0  0  0  0  0  0  0
   64.0510   33.1968   49.8966 H   0  0  0  0  0  0  0  0  0  0  0  0
   62.5630   34.4263   48.3262 H   0  0  0  0  0  0  0  0  0  0  0  0
  1  2  2  0
  2  3  1  0
  3  4  1  0
  4  5  2  0
  4  6  2  0
  4  7  1  0
  7  8  2  0
  8  9  1  0
  9 10  2  0
 10 11  1  0
 11 12  2  0
  3 13  2  0
 13 14  1  0
 14 15  1  0
 15 16  1  0
 16 17  2  0
 17 18  1  0
 18 19  2  0
 19 20  1  0
 20 21  1  0
 20 22  2  0
 14 23  1  0
 23 24  2  0
 24 25  1  0
 25 26  2  0
 26 27  1  0
 27 28  2  0
 28  2  1  0
 12  7  1  0
 22 16  1  0
 28 23  1  0
  8 29  1  0
  9 30  1  0
 10 31  1  0
 11 32  1  0
 12 33  1  0
 13 34  1  0
 15 35  1  0
 15 36  1  0
 17 37  1  0
 18 38  1  0
 19 39  1  0
 22 40  1  0
 24 41  1  0
 25 42  1  0
 26 43  1  0
 27 44  1  0
M  CHG  1  21  -1
M  END
>  <UniqueID>  (68) 
60

>  <SMILES>  (68) 
O=c1c(S(=O)(=O)c2ccccc2)cn(Cc2cccc([O-])c2)c2ccccc12

>  <Energy>  (68) 
60.831689396969665

>  <Genealogy>  (68) 
O=c1c(S(=O)(=O)c2ccccc2)cn(Cc2cccc([O-])c2)c2ccccc12 (protonated)
O=c1c(S(=O)(=O)c2ccccc2)cn(Cc2cccc([O-])c2)c2ccccc12 (3D coordinates assigned)
O=c1c(S(=O)(=O)c2ccccc2)cn(Cc2cccc([O-])c2)c2ccccc12 (optimized conformer: 60.831689396969665 kcal/mol)

>  <smiles>  (68) 
O=c1c(S(=O)(=O)c2ccccc2)cn(Cc2cccc(O)c2)c2ccccc12

>  <score_type>  (68) 
oracle

>  <origin>  (68) 
adg

>  <m_score__min__energy>  (68) 
-12.52

>  <m_primary>  (68) 
energy

$$$$
68:0
     RDKit          3D

 55 58  0  0  1  0  0  0  0  0999 V2000
   68.2430   35.0850   51.2680 C   0  0  0  0  0  0  0  0  0  0  0  0
   68.2410   33.4630   50.4780 S   0  0  0  0  0  0  0  0  0  0  0  0
   66.6460   32.7160   50.6000 C   0  0  0  0  0  0  0  0  0  0  0  0
   66.5660   31.4150   51.0580 C   0  0  0  0  0  0  0  0  0  0  0  0
   65.3070   30.8650   51.1400 C   0  0  0  0  0  0  0  0  0  0  0  0
   64.1880   31.6150   50.7710 C   0  0  0  0  0  0  0  0  0  0  0  0
   64.2740   32.9060   50.3180 C   0  0  0  0  0  0  0  0  0  0  0  0
   63.1870   33.7140   49.9320 N   0  0  0  0  0  0  0  0  0  0  0  0
   62.2370   33.4130   48.9320 C   0  0  0  0  0  0  0  0  0  0  0  0
   62.2470   32.3650   48.2530 O   0  0  0  0  0  0  0  0  0  0  0  0
   61.1730   34.3390   48.6420 N   0  0  0  0  0  0  0  0  0  0  0  0
   60.2040   34.0580   47.6420 C   0  0  0  0  0  0  0  0  0  0  0  0
   59.0750   33.2920   47.9290 C   0  0  0  0  0  0  0  0  0  0  0  0
   58.1830   33.0570   46.9260 C   0  0  0  0  0  0  0  0  0  0  0  0
   58.3960   33.5710   45.6490 C   0  0  0  0  0  0  0  0  0  0  0  0
   57.3990   33.2640   44.6810 N   0  0  0  0  0  0  0  0  0  0  0  0
   57.2060   32.1290   44.1420 C   0  0  0  0  0  0  0  0  0  0  0  0
   57.1920   32.0550   42.7990 N   0  0  0  0  0  0  0  0  0  0  0  0
   56.9860   30.8390   42.2640 C   0  0  0  0  0  0  0  0  0  0  0  0
   56.7960   29.7120   43.0390 C   0  0  0  0  0  0  0  0  0  0  0  0
   56.8190   29.8380   44.4030 C   0  0  0  0  0  0  0  0  0  0  0  0
   56.6560   28.8710   45.2320 N   0  0  0  0  0  0  0  0  0  0  0  0
   57.7600   28.4490   46.0180 C   0  0  0  0  0  0  0  0  0  0  0  0
   58.1550   27.1440   46.1220 C   0  0  0  0  0  0  0  0  0  0  0  0
   59.2360   26.7820   46.9010 C   0  0  0  0  0  0  0  0  0  0  0  0
   59.9430   27.7640   47.5970 C   0  0  0  0  0  0  0  0  0  0  0  0
   59.5600   29.0870   47.5040 C   0  0  0  0  0  0  0  0  0  0  0  0
   60.2740   30.0610   48.2030 O   0  0  0  0  0  0  0  0  0  0  0  0
   58.4670   29.4060   46.7100 C   0  0  0  0  0  0  0  0  0  0  0  0
   57.0280   31.0670   44.9460 N   0  0  0  0  0  0  0  0  0  0  0  0
   59.5130   34.3350   45.3460 C   0  0  0  0  0  0  0  0  0  0  0  0
   60.4070   34.5610   46.3810 C   0  0  0  0  0  0  0  0  0  0  0  0
   65.5390   33.4530   50.2380 C   0  0  0  0  0  0  0  0  0  0  0  0
   68.2428   34.9605   52.3609 H   0  0  0  0  0  0  0  0  0  0  0  0
   69.1418   35.6406   50.9624 H   0  0  0  0  0  0  0  0  0  0  0  0
   67.3455   35.6428   50.9624 H   0  0  0  0  0  0  0  0  0  0  0  0
   67.4639   30.8470   51.3429 H   0  0  0  0  0  0  0  0  0  0  0  0
   65.1817   29.8321   51.4971 H   0  0  0  0  0  0  0  0  0  0  0  0
   63.1943   31.1494   50.8472 H   0  0  0  0  0  0  0  0  0  0  0  0
   63.0450   34.6460   50.4230 H   0  0  0  0  0  0  0  0  0  0  0  0
   61.0870   35.2440   49.1640 H   0  0  0  0  0  0  0  0  0  0  0  0
   58.9087   32.8880   48.9385 H   0  0  0  0  0  0  0  0  0  0  0  0
   57.2848   32.4547   47.1270 H   0  0  0  0  0  0  0  0  0  0  0  0
   57.3380   32.9180   42.2320 H   0  0  0  0  0  0  0  0  0  0  0  0
   56.9681   30.7381   41.1688 H   0  0  0  0  0  0  0  0  0  0  0  0
   56.6293   28.7312   42.5698 H   0  0  0  0  0  0  0  0  0  0  0  0
   57.6008   26.3675   45.5744 H   0  0  0  0  0  0  0  0  0  0  0  0
   59.5381   25.7267   46.9727 H   0  0  0  0  0  0  0  0  0  0  0  0
   60.8054   27.4836   48.2196 H   0  0  0  0  0  0  0  0  0  0  0  0
   60.9610   30.6520   47.7580 H   0  0  0  0  0  0  0  0  0  0  0  0
   58.1557   30.4581   46.6312 H   0  0  0  0  0  0  0  0  0  0  0  0
   57.0540   31.2080   45.9940 H   0  0  0  0  0  0  0  0  0  0  0  0
   59.6808   34.7404   44.3373 H   0  0  0  0  0  0  0  0  0  0  0  0
   61.3072   35.1622   46.1857 H   0  0  0  0  0  0  0  0  0  0  0  0
   65.6646   34.4863   49.8822 H   0  0  0  0  0  0  0  0  0  0  0  0
  1  2  1  0
  2  3  1  0
  3  4  2  0
  4  5  1  0
  5  6  2  0
  6  7  1  0
  7  8  1  0
  8  9  1  0
  9 10  2  0
  9 11  1  0
 11 12  1  0
 12 13  2  0
 13 14  1  0
 14 15  2  0
 15 16  1  0
 16 17  2  0
 17 18  1  0
 18 19  1  0
 19 20  2  0
 20 21  1  0
 21 22  2  0
 22 23  1  0
 23 24  2  0
 24 25  1  0
 25 26  2  0
 26 27  1  0
 27 28  1  0
 27 29  2  0
 21 30  1  0
 15 31  1  0
 31 32  2  0
  7 33  2  0
 33  3  1  0
 32 12  1  0
 30 17  1  0
 29 23  1  0
  1 34  1  0
  1 35  1  0
  1 36  1  0
  4 37  1  0
  5 38  1  0
  6 39  1  0
  8 40  1  0
 11 41  1  0
 13 42  1  0
 14 43  1  0
 18 44  1  0
 19 45  1  0
 20 46  1  0
 24 47  1  0
 25 48  1  0
 26 49  1  0
 28 50  1  0
 29 51  1  0
 30 52  1  0
 31 53  1  0
 32 54  1  0
 33 55  1  0
M  END
>  <smiles>  (69) 
CSc1cccc(NC(=O)Nc2ccc(N=c3[nH]ccc(=Nc4cccc(O)c4)[nH]3)cc2)c1

>  <score_type>  (69) 
oracle

>  <origin>  (69) 
adg

>  <m_score__min__energy>  (69) 
-9.6699999999999999

>  <m_primary>  (69) 
energy

$$$$
69:0
     RDKit          3D

 47 49  0  0  0  0  0  0  0  0999 V2000
   54.2310   24.9000   45.5970 C   0  0  0  0  0  0  0  0  0  0  0  0
   54.8170   26.1430   45.9640 O   0  0  0  0  0  0  0  0  0  0  0  0
   56.1850   26.3320   46.2250 C   0  0  0  0  0  0  0  0  0  0  0  0
   56.9610   25.3500   46.8710 C   0  0  0  0  0  0  0  0  0  0  0  0
   58.3220   25.5640   47.1020 C   0  0  0  0  0  0  0  0  0  0  0  0
   58.9240   26.7480   46.6770 C   0  0  0  0  0  0  0  0  0  0  0  0
   58.1660   27.7280   46.0380 C   0  0  0  0  0  0  0  0  0  0  0  0
   56.7870   27.5410   45.8360 C   0  0  0  0  0  0  0  0  0  0  0  0
   55.9670   28.5610   45.2520 N   0  0  0  0  0  0  0  0  0  0  0  0
   56.4360   29.5970   43.9410 S   0  0  0  0  0  0  0  0  0  0  0  0
   55.2040   30.0800   43.2290 O   0  0  0  0  0  0  0  0  0  0  0  0
   57.2850   28.8180   42.9790 O   0  0  0  0  0  0  0  0  0  0  0  0
   57.3190   30.9920   44.5590 C   0  0  0  0  0  0  0  0  0  0  0  0
   57.6500   32.0600   43.7110 C   0  0  0  0  0  0  0  0  0  0  0  0
   58.4520   33.1020   44.1790 C   0  0  0  0  0  0  0  0  0  0  0  0
   58.9340   33.0850   45.4910 C   0  0  0  0  0  0  0  0  0  0  0  0
   58.5930   32.0320   46.3540 C   0  0  0  0  0  0  0  0  0  0  0  0
   59.1260   31.9850   47.7260 C   0  0  0  0  0  0  0  0  0  0  0  0
   58.5710   32.6700   48.6280 O   0  0  0  0  0  0  0  0  0  0  0  0
   60.2300   31.1260   48.0460 N   0  0  0  0  0  0  0  0  0  0  0  0
   60.6140   30.8160   49.4240 C   0  0  0  0  0  0  0  0  0  0  0  0
   62.0520   31.2680   49.7120 C   0  0  0  0  0  0  0  0  0  0  0  0
   62.5680   32.1840   48.6500 C   0  0  0  0  0  0  0  0  0  0  0  0
   63.3040   31.8060   47.5320 C   0  0  0  0  0  0  0  0  0  0  0  0
   63.7490   32.8920   46.7790 C   0  0  0  0  0  0  0  0  0  0  0  0
   63.3700   34.1240   47.2950 C   0  0  0  0  0  0  0  0  0  0  0  0
   62.4890   33.8630   48.6990 S   0  0  0  0  0  0  0  0  0  0  0  0
   57.7710   30.9950   45.8860 C   0  0  0  0  0  0  0  0  0  0  0  0
   53.9658   24.3375   46.5044 H   0  0  0  0  0  0  0  0  0  0  0  0
   53.3246   25.0836   45.0014 H   0  0  0  0  0  0  0  0  0  0  0  0
   54.9494   24.3176   45.0014 H   0  0  0  0  0  0  0  0  0  0  0  0
   56.4926   24.4091   47.1955 H   0  0  0  0  0  0  0  0  0  0  0  0
   58.9190   24.7984   47.6192 H   0  0  0  0  0  0  0  0  0  0  0  0
   59.9989   26.9089   46.8463 H   0  0  0  0  0  0  0  0  0  0  0  0
   58.6493   28.6528   45.6898 H   0  0  0  0  0  0  0  0  0  0  0  0
   57.2770   32.0759   42.6763 H   0  0  0  0  0  0  0  0  0  0  0  0
   58.7057   33.9398   43.5129 H   0  0  0  0  0  0  0  0  0  0  0  0
   59.5822   33.8989   45.8480 H   0  0  0  0  0  0  0  0  0  0  0  0
   60.6670   30.5620   47.2830 H   0  0  0  0  0  0  0  0  0  0  0  0
   59.9300   31.3336   50.1126 H   0  0  0  0  0  0  0  0  0  0  0  0
   60.5550   29.7269   49.5664 H   0  0  0  0  0  0  0  0  0  0  0  0
   62.0733   31.7944   50.6776 H   0  0  0  0  0  0  0  0  0  0  0  0
   62.6935   30.3747   49.7350 H   0  0  0  0  0  0  0  0  0  0  0  0
   63.5134   30.7586   47.2690 H   0  0  0  0  0  0  0  0  0  0  0  0
   64.3452   32.7827   45.8611 H   0  0  0  0  0  0  0  0  0  0  0  0
   63.6071   35.1050   46.8575 H   0  0  0  0  0  0  0  0  0  0  0  0
   57.4797   30.1797   46.5646 H   0  0  0  0  0  0  0  0  0  0  0  0
  1  2  1  0
  2  3  1  0
  3  4  2  0
  4  5  1  0
  5  6  2  0
  6  7  1  0
  7  8  2  0
  8  9  1  0
  9 10  1  0
 10 11  2  0
 10 12  2  0
 10 13  1  0
 13 14  2  0
 14 15  1  0
 15 16  2  0
 16 17  1  0
 17 18  1  0
 18 19  2  0
 18 20  1  0
 20 21  1  0
 21 22  1  0
 22 23  1  0
 23 24  2  0
 24 25  1  0
 25 26  2  0
 26 27  1  0
 17 28  2  0
  8  3  1  0
 28 13  1  0
 27 23  1  0
  1 29  1  0
  1 30  1  0
  1 31  1  0
  4 32  1  0
  5 33  1  0
  6 34  1  0
  7 35  1  0
 14 36  1  0
 15 37  1  0
 16 38  1  0
 20 39  1  0
 21 40  1  0
 21 41  1  0
 22 42  1  0
 22 43  1  0
 24 44  1  0
 25 45  1  0
 26 46  1  0
 28 47  1  0
M  CHG  1   9  -1
M  END
>  <UniqueID>  (70) 
61

>  <SMILES>  (70) 
COc1ccccc1[N-]S(=O)(=O)c1cccc(C(=O)NCCc2cccs2)c1

>  <Energy>  (70) 
73.2333156168439

>  <Genealogy>  (70) 
COc1ccccc1[N-]S(=O)(=O)c1cccc(C(=O)NCCc2cccs2)c1 (protonated)
COc1ccccc1[N-]S(=O)(=O)c1cccc(C(=O)NCCc2cccs2)c1 (3D coordinates assigned)
COc1ccccc1[N-]S(=O)(=O)c1cccc(C(=O)NCCc2cccs2)c1 (optimized conformer: 73.2333156168439 kcal/mol)

>  <smiles>  (70) 
COc1ccccc1NS(=O)(=O)c1cccc(C(=O)NCCc2cccs2)c1

>  <score_type>  (70) 
oracle

>  <origin>  (70) 
adg

>  <m_score__min__energy>  (70) 
-11.449999999999999

>  <m_primary>  (70) 
energy

$$$$
70:0
     RDKit          3D

 27 28  0  0  0  0  0  0  0  0999 V2000
   60.7230   22.5770   44.7660 H   0  0  0  0  0  0  0  0  0  0  0  0
   59.9520   22.5410   45.4700 N   0  0  0  0  0  0  0  0  0  0  0  0
   58.8010   23.0830   45.2430 C   0  0  0  0  0  0  0  0  0  0  0  0
   57.9080   22.4750   44.4260 N   0  0  0  0  0  0  0  0  0  0  0  0
   56.6600   22.9420   44.1170 C   0  0  0  0  0  0  0  0  0  0  0  0
   55.9410   22.2520   43.3470 O   0  0  0  0  0  0  0  0  0  0  0  0
   56.1270   24.1540   44.6170 C   0  0  0  0  0  0  0  0  0  0  0  0
   55.1008   24.4238   44.3268 H   0  0  0  0  0  0  0  0  0  0  0  0
   56.8240   25.0330   45.4590 C   0  0  0  0  0  0  0  0  0  0  0  0
   56.1930   26.2900   46.0190 C   0  0  2  0  0  0  0  0  0  0  0  0
   56.4522   26.2915   47.0880 H   0  0  0  0  0  0  0  0  0  0  0  0
   54.7890   26.2890   45.9310 O   0  0  0  0  0  0  0  0  0  0  0  0
   54.4520   25.4680   46.3710 H   0  0  0  0  0  0  0  0  0  0  0  0
   56.7470   27.5110   45.4130 N   0  0  0  0  0  0  0  0  0  0  0  0
   56.3360   27.7910   44.4930 H   0  0  0  0  0  0  0  0  0  0  0  0
   57.8500   28.2960   45.9120 C   0  0  0  0  0  0  0  0  0  0  0  0
   58.2850   29.4830   45.2860 C   0  0  0  0  0  0  0  0  0  0  0  0
   57.7663   29.8474   44.3870 H   0  0  0  0  0  0  0  0  0  0  0  0
   59.3700   30.2000   45.7990 C   0  0  0  0  0  0  0  0  0  0  0  0
   59.6967   31.1276   45.3062 H   0  0  0  0  0  0  0  0  0  0  0  0
   60.0400   29.7420   46.9350 C   0  0  0  0  0  0  0  0  0  0  0  0
   61.0930   30.4390   47.4290 F   0  0  0  0  0  0  0  0  0  0  0  0
   59.6270   28.5630   47.5590 C   0  0  0  0  0  0  0  0  0  0  0  0
   60.1555   28.2000   48.4528 H   0  0  0  0  0  0  0  0  0  0  0  0
   58.5430   27.8440   47.0490 C   0  0  0  0  0  0  0  0  0  0  0  0
   58.2278   26.9130   47.5429 H   0  0  0  0  0  0  0  0  0  0  0  0
   58.3700   24.5530   45.9520 S   0  0  0  0  0  0  0  0  0  0  0  0
  1  2  1  0
  2  3  2  0
  3  4  1  0
  4  5  1  0
  5  6  2  0
  5  7  1  0
  7  8  1  0
  7  9  2  0
  9 10  1  0
 10 11  1  1
 10 12  1  0
 12 13  1  0
 10 14  1  0
 14 15  1  0
 14 16  1  0
 16 17  2  0
 17 18  1  0
 17 19  1  0
 19 20  1  0
 19 21  2  0
 21 22  1  0
 21 23  1  0
 23 24  1  0
 23 25  2  0
 25 26  1  0
  9 27  1  0
 27  3  1  0
 25 16  1  0
M  CHG  1   4  -1
M  END
>  <UniqueID>  (71) 
62

>  <SMILES>  (71) 
[H]/N=c1/[n-]c(=O)cc([C@H](O)Nc2ccc(F)cc2)s1

>  <Energy>  (71) 
35.520295984240235

>  <Genealogy>  (71) 
N=c1[n-]c(=O)cc(C(O)Nc2ccc(F)cc2)s1 (protonated)
N=c1[n-]c(=O)cc([C@H](O)Nc2ccc(F)cc2)s1 (chirality)
[H]/N=c1/[n-]c(=O)cc([C@H](O)Nc2ccc(F)cc2)s1 (cis-trans isomerization)
[H]/N=c1/[n-]c(=O)cc([C@H](O)Nc2ccc(F)cc2)s1 (3D coordinates assigned)
[H]/N=c1/[n-]c(=O)cc([C@H](O)Nc2ccc(F)cc2)s1 (optimized conformer: 35.520295984240235 kcal/mol)

>  <smiles>  (71) 
N=c1[nH]c(=O)cc(C(O)Nc2ccc(F)cc2)s1

>  <score_type>  (71) 
oracle

>  <origin>  (71) 
adg

>  <m_score__min__energy>  (71) 
-8.5199999999999996

>  <m_primary>  (71) 
energy

$$$$
71:0
     RDKit          3D

 56 58  0  0  0  0  0  0  0  0999 V2000
   54.4270   26.1980   45.9710 N   0  0  0  0  0  0  0  0  0  0  0  0
   55.3290   25.1250   45.7090 C   0  0  0  0  0  0  0  0  0  0  0  0
   54.9050   24.0770   45.1480 O   0  0  0  0  0  0  0  0  0  0  0  0
   56.7780   25.2520   46.1010 C   0  0  2  0  0  0  0  0  0  0  0  0
   57.0210   24.7720   47.5460 C   0  0  0  0  0  0  0  0  0  0  0  0
   56.5750   23.3560   47.7790 C   0  0  0  0  0  0  0  0  0  0  0  0
   55.3250   22.9560   48.1850 C   0  0  0  0  0  0  0  0  0  0  0  0
   55.3100   21.6160   48.2870 N   0  0  0  0  0  0  0  0  0  0  0  0
   56.5590   21.2450   47.9340 C   0  0  0  0  0  0  0  0  0  0  0  0
   57.3630   22.2800   47.6120 N   0  0  0  0  0  0  0  0  0  0  0  0
   57.2460   26.6310   45.9200 N   0  0  0  0  0  0  0  0  0  0  0  0
   58.4600   27.1100   46.5170 C   0  0  0  0  0  0  0  0  0  0  0  0
   59.2270   26.3150   47.1240 O   0  0  0  0  0  0  0  0  0  0  0  0
   58.8040   28.5730   46.4560 C   0  0  1  0  0  0  0  0  0  0  0  0
   60.3010   28.7660   46.7450 C   0  0  0  0  0  0  0  0  0  0  0  0
   60.5510   30.0340   47.5230 C   0  0  0  0  0  0  0  0  0  0  0  0
   59.7620   30.3410   48.6440 C   0  0  0  0  0  0  0  0  0  0  0  0
   59.9710   31.5310   49.3490 C   0  0  0  0  0  0  0  0  0  0  0  0
   60.9680   32.4200   48.9380 C   0  0  0  0  0  0  0  0  0  0  0  0
   61.7530   32.1250   47.8200 C   0  0  0  0  0  0  0  0  0  0  0  0
   61.5440   30.9390   47.1110 C   0  0  0  0  0  0  0  0  0  0  0  0
   58.4760   29.1140   45.1370 N   0  0  0  0  0  0  0  0  0  0  0  0
   57.2960   29.8650   44.8170 C   0  0  0  0  0  0  0  0  0  0  0  0
   56.1800   29.4280   45.2090 O   0  0  0  0  0  0  0  0  0  0  0  0
   57.3790   31.1930   44.1010 C   0  0  0  0  0  0  0  0  0  0  0  0
   56.6930   32.3260   44.8770 C   0  0  0  0  0  0  0  0  0  0  0  0
   57.7190   33.2440   45.4850 C   0  0  0  0  0  0  0  0  0  0  0  0
   57.8020   33.3950   46.8810 C   0  0  0  0  0  0  0  0  0  0  0  0
   58.7770   34.2240   47.4450 C   0  0  0  0  0  0  0  0  0  0  0  0
   59.6840   34.8980   46.6210 C   0  0  0  0  0  0  0  0  0  0  0  0
   59.6180   34.7400   45.2320 C   0  0  0  0  0  0  0  0  0  0  0  0
   58.6430   33.9140   44.6640 C   0  0  0  0  0  0  0  0  0  0  0  0
   54.7690   27.0890   46.3950 H   0  0  0  0  0  0  0  0  0  0  0  0
   57.3612   24.5982   45.4358 H   0  0  0  0  0  0  0  0  0  0  0  0
   58.0976   24.8400   47.7612 H   0  0  0  0  0  0  0  0  0  0  0  0
   56.4270   25.4168   48.2104 H   0  0  0  0  0  0  0  0  0  0  0  0
   54.4755   23.6232   48.3926 H   0  0  0  0  0  0  0  0  0  0  0  0
   56.8907   20.1964   47.9109 H   0  0  0  0  0  0  0  0  0  0  0  0
   56.6450   27.3120   45.3990 H   0  0  0  0  0  0  0  0  0  0  0  0
   58.2165   29.1109   47.2146 H   0  0  0  0  0  0  0  0  0  0  0  0
   60.6662   27.9090   47.3300 H   0  0  0  0  0  0  0  0  0  0  0  0
   60.8331   28.8376   45.7849 H   0  0  0  0  0  0  0  0  0  0  0  0
   58.9766   29.6427   48.9688 H   0  0  0  0  0  0  0  0  0  0  0  0
   59.3510   31.7669   50.2264 H   0  0  0  0  0  0  0  0  0  0  0  0
   61.1351   33.3535   49.4954 H   0  0  0  0  0  0  0  0  0  0  0  0
   62.5361   32.8270   47.4978 H   0  0  0  0  0  0  0  0  0  0  0  0
   62.1589   30.7131   46.2274 H   0  0  0  0  0  0  0  0  0  0  0  0
   58.4388   31.4526   43.9620 H   0  0  0  0  0  0  0  0  0  0  0  0
   56.8579   31.0855   43.1382 H   0  0  0  0  0  0  0  0  0  0  0  0
   56.0547   32.9008   44.1898 H   0  0  0  0  0  0  0  0  0  0  0  0
   56.0848   31.8885   45.6824 H   0  0  0  0  0  0  0  0  0  0  0  0
   57.0965   32.8584   47.5324 H   0  0  0  0  0  0  0  0  0  0  0  0
   58.8305   34.3459   48.5369 H   0  0  0  0  0  0  0  0  0  0  0  0
   60.4491   35.5522   47.0645 H   0  0  0  0  0  0  0  0  0  0  0  0
   60.3350   35.2670   44.5853 H   0  0  0  0  0  0  0  0  0  0  0  0
   58.5989   33.7881   43.5721 H   0  0  0  0  0  0  0  0  0  0  0  0
  1  2  1  0
  2  3  2  0
  2  4  1  0
  4  5  1  0
  5  6  1  0
  6  7  2  0
  7  8  1  0
  8  9  1  0
  9 10  2  0
  4 11  1  0
 11 12  1  0
 12 13  2  0
 12 14  1  0
 14 15  1  0
 15 16  1  0
 16 17  2  0
 17 18  1  0
 18 19  2  0
 19 20  1  0
 20 21  2  0
 14 22  1  0
 22 23  1  0
 23 24  2  0
 23 25  1  0
 25 26  1  0
 26 27  1  0
 27 28  2  0
 28 29  1  0
 29 30  2  0
 30 31  1  0
 31 32  2  0
 10  6  1  0
 21 16  1  0
 32 27  1  0
  1 33  1  0
  4 34  1  6
  5 35  1  0
  5 36  1  0
  7 37  1  0
  9 38  1  0
 11 39  1  0
 14 40  1  1
 15 41  1  0
 15 42  1  0
 17 43  1  0
 18 44  1  0
 19 45  1  0
 20 46  1  0
 21 47  1  0
 25 48  1  0
 25 49  1  0
 26 50  1  0
 26 51  1  0
 28 52  1  0
 29 53  1  0
 30 54  1  0
 31 55  1  0
 32 56  1  0
M  CHG  3   1  -1   8  -1  22  -1
M  END
>  <UniqueID>  (72) 
63

>  <SMILES>  (72) 
[NH-]C(=O)[C@H](Cc1c[n-]cn1)NC(=O)[C@@H](Cc1ccccc1)[N-]C(=O)CCc1ccccc1

>  <Energy>  (72) 
73.19468816490209

>  <Genealogy>  (72) 
[NH-]C(=O)C(Cc1c[n-]cn1)NC(=O)C(Cc1ccccc1)[N-]C(=O)CCc1ccccc1 (protonated)
[NH-]C(=O)[C@H](Cc1c[n-]cn1)NC(=O)[C@@H](Cc1ccccc1)[N-]C(=O)CCc1ccccc1 (chirality)
[NH-]C(=O)[C@H](Cc1c[n-]cn1)NC(=O)[C@@H](Cc1ccccc1)[N-]C(=O)CCc1ccccc1 (3D coordinates assigned)
[NH-]C(=O)[C@H](Cc1c[n-]cn1)NC(=O)[C@@H](Cc1ccccc1)[N-]C(=O)CCc1ccccc1 (optimized conformer: 73.19468816490209 kcal/mol)

>  <smiles>  (72) 
NC(=O)C(Cc1c[nH]cn1)NC(=O)C(Cc1ccccc1)NC(=O)CCc1ccccc1

>  <score_type>  (72) 
oracle

>  <origin>  (72) 
adg

>  <m_score__min__energy>  (72) 
-15.800000000000001

>  <m_primary>  (72) 
energy

$$$$
72:0
     RDKit          3D

 99104  0  0  0  0  0  0  0  0999 V2000
   55.7690   30.8990   44.4460 N   0  0  0  0  0  0  0  0  0  0  0  0
   56.1750   29.7670   43.6210 C   0  0  0  0  0  0  0  0  0  0  0  0
   57.5310   29.2650   44.0550 C   0  0  0  0  0  0  0  0  0  0  0  0
   57.8230   27.8950   43.9510 C   0  0  0  0  0  0  0  0  0  0  0  0
   59.0760   27.4080   44.3260 C   0  0  0  0  0  0  0  0  0  0  0  0
   60.0530   28.2820   44.8010 C   0  0  0  0  0  0  0  0  0  0  0  0
   59.7840   29.6490   44.8940 C   0  0  0  0  0  0  0  0  0  0  0  0
   58.5220   30.1530   44.5270 C   0  0  0  0  0  0  0  0  0  0  0  0
   58.2530   31.5610   44.5680 N   0  0  0  0  0  0  0  0  0  0  0  0
   57.8860   32.3060   45.7340 C   0  0  0  0  0  0  0  0  0  0  0  0
   56.7850   32.9210   45.7760 O   0  0  0  0  0  0  0  0  0  0  0  0
   58.8620   32.4160   46.8740 C   0  0  1  0  0  0  0  0  0  0  0  0
   59.8820   33.5470   46.6270 C   0  0  0  0  0  0  0  0  0  0  0  0
   61.1610   33.3580   47.4090 C   0  0  0  0  0  0  0  0  0  0  0  0
   61.4600   34.1990   48.4940 C   0  0  0  0  0  0  0  0  0  0  0  0
   62.6190   33.9920   49.2480 C   0  0  0  0  0  0  0  0  0  0  0  0
   63.4890   32.9480   48.9240 C   0  0  0  0  0  0  0  0  0  0  0  0
   63.2010   32.1070   47.8460 C   0  0  0  0  0  0  0  0  0  0  0  0
   62.0380   32.3060   47.0940 C   0  0  0  0  0  0  0  0  0  0  0  0
   58.1430   32.6340   48.1280 N   0  0  0  0  0  0  0  0  0  0  0  0
   58.6880   32.3680   49.4230 C   0  0  0  0  0  0  0  0  0  0  0  0
   58.9060   33.3110   50.2310 O   0  0  0  0  0  0  0  0  0  0  0  0
   59.0190   30.9540   49.7970 C   0  0  1  0  0  0  0  0  0  0  0  0
   60.1220   30.4060   48.8790 C   0  0  0  0  0  0  0  0  0  0  0  0
   59.7780   29.0320   48.3630 C   0  0  0  0  0  0  0  0  0  0  0  0
   58.4850   28.7630   47.8890 C   0  0  0  0  0  0  0  0  0  0  0  0
   58.1480   27.4820   47.4440 C   0  0  0  0  0  0  0  0  0  0  0  0
   59.1020   26.4510   47.4630 C   0  0  0  0  0  0  0  0  0  0  0  0
   58.7930   25.1480   47.0520 O   0  0  0  0  0  0  0  0  0  0  0  0
   57.7810   24.8060   46.1440 C   0  0  0  0  0  0  0  0  0  0  0  0
   58.0670   24.1640   44.9240 C   0  0  0  0  0  0  0  0  0  0  0  0
   57.0310   23.8060   44.0580 C   0  0  0  0  0  0  0  0  0  0  0  0
   55.7040   24.0820   44.4040 C   0  0  0  0  0  0  0  0  0  0  0  0
   55.4150   24.6950   45.6250 C   0  0  0  0  0  0  0  0  0  0  0  0
   56.4510   25.0540   46.4940 C   0  0  0  0  0  0  0  0  0  0  0  0
   60.3870   26.7160   47.9500 C   0  0  0  0  0  0  0  0  0  0  0  0
   60.7240   27.9970   48.3990 C   0  0  0  0  0  0  0  0  0  0  0  0
   59.4440   30.9100   51.1970 N   0  0  0  0  0  0  0  0  0  0  0  0
   60.7580   31.2530   51.6520 C   0  0  0  0  0  0  0  0  0  0  0  0
   61.2160   32.4130   51.4620 O   0  0  0  0  0  0  0  0  0  0  0  0
   61.6120   30.1950   52.2920 C   0  0  1  0  0  0  0  0  0  0  0  0
   62.2120   29.2780   51.2130 C   0  0  0  0  0  0  0  0  0  0  0  0
   62.1020   27.8310   51.6200 C   0  0  0  0  0  0  0  0  0  0  0  0
   60.8790   27.1490   51.5190 C   0  0  0  0  0  0  0  0  0  0  0  0
   60.7980   25.7910   51.8470 C   0  0  0  0  0  0  0  0  0  0  0  0
   61.9430   25.1000   52.2700 C   0  0  0  0  0  0  0  0  0  0  0  0
   61.8800   23.7480   52.5980 O   0  0  0  0  0  0  0  0  0  0  0  0
   63.1630   25.7740   52.3620 C   0  0  0  0  0  0  0  0  0  0  0  0
   63.2460   27.1300   52.0370 C   0  0  0  0  0  0  0  0  0  0  0  0
   62.6870   30.8110   53.0700 N   0  0  0  0  0  0  0  0  0  0  0  0
   64.0790   30.5630   52.8400 C   0  0  0  0  0  0  0  0  0  0  0  0
   64.6090   29.5150   53.2960 O   0  0  0  0  0  0  0  0  0  0  0  0
   64.8900   31.5310   52.0660 C   0  0  0  0  0  0  0  0  0  0  0  0
   65.9010   31.0840   51.1970 C   0  0  0  0  0  0  0  0  0  0  0  0
   66.6610   31.9990   50.4650 C   0  0  0  0  0  0  0  0  0  0  0  0
   66.4220   33.3690   50.5870 C   0  0  0  0  0  0  0  0  0  0  0  0
   65.4240   33.8270   51.4490 C   0  0  0  0  0  0  0  0  0  0  0  0
   64.6600   32.9160   52.1850 C   0  0  0  0  0  0  0  0  0  0  0  0
   56.2810   30.8250   45.3590 H   0  0  0  0  0  0  0  0  0  0  0  0
   56.1170   31.7770   43.9920 H   0  0  0  0  0  0  0  0  0  0  0  0
   55.4373   28.9578   43.7261 H   0  0  0  0  0  0  0  0  0  0  0  0
   56.2312   30.0901   42.5710 H   0  0  0  0  0  0  0  0  0  0  0  0
   57.0587   27.2010   43.5713 H   0  0  0  0  0  0  0  0  0  0  0  0
   59.2932   26.3326   44.2467 H   0  0  0  0  0  0  0  0  0  0  0  0
   61.0371   27.8941   45.1029 H   0  0  0  0  0  0  0  0  0  0  0  0
   60.5629   30.3361   45.2562 H   0  0  0  0  0  0  0  0  0  0  0  0
   59.4216   31.4716   46.9439 H   0  0  0  0  0  0  0  0  0  0  0  0
   60.1256   33.5736   45.5546 H   0  0  0  0  0  0  0  0  0  0  0  0
   59.4227   34.4885   46.9626 H   0  0  0  0  0  0  0  0  0  0  0  0
   60.7793   35.0239   48.7514 H   0  0  0  0  0  0  0  0  0  0  0  0
   62.8463   34.6523   50.0979 H   0  0  0  0  0  0  0  0  0  0  0  0
   64.4011   32.7880   49.5178 H   0  0  0  0  0  0  0  0  0  0  0  0
   63.8889   31.2881   47.5884 H   0  0  0  0  0  0  0  0  0  0  0  0
   61.8090   31.6359   46.2523 H   0  0  0  0  0  0  0  0  0  0  0  0
   58.1261   30.3236   49.6729 H   0  0  0  0  0  0  0  0  0  0  0  0
   60.2478   31.0876   48.0249 H   0  0  0  0  0  0  0  0  0  0  0  0
   61.0521   30.3334   49.4617 H   0  0  0  0  0  0  0  0  0  0  0  0
   57.7325   29.5650   47.8676 H   0  0  0  0  0  0  0  0  0  0  0  0
   57.1309   27.2799   47.0771 H   0  0  0  0  0  0  0  0  0  0  0  0
   59.1098   23.9436   44.6519 H   0  0  0  0  0  0  0  0  0  0  0  0
   57.2586   23.3072   43.1044 H   0  0  0  0  0  0  0  0  0  0  0  0
   54.8888   23.8164   43.7149 H   0  0  0  0  0  0  0  0  0  0  0  0
   54.3702   24.8961   45.9042 H   0  0  0  0  0  0  0  0  0  0  0  0
   56.2178   25.5332   47.4563 H   0  0  0  0  0  0  0  0  0  0  0  0
   61.1368   25.9116   47.9798 H   0  0  0  0  0  0  0  0  0  0  0  0
   61.7361   28.1938   48.7823 H   0  0  0  0  0  0  0  0  0  0  0  0
   60.9819   29.5964   52.9663 H   0  0  0  0  0  0  0  0  0  0  0  0
   61.6692   29.4293   50.2683 H   0  0  0  0  0  0  0  0  0  0  0  0
   63.2755   29.5295   51.0876 H   0  0  0  0  0  0  0  0  0  0  0  0
   59.9800   27.6848   51.1804 H   0  0  0  0  0  0  0  0  0  0  0  0
   59.8349   25.2647   51.7730 H   0  0  0  0  0  0  0  0  0  0  0  0
   61.6080   23.4340   53.5220 H   0  0  0  0  0  0  0  0  0  0  0  0
   64.0629   25.2343   52.6920 H   0  0  0  0  0  0  0  0  0  0  0  0
   64.2119   27.6516   52.1079 H   0  0  0  0  0  0  0  0  0  0  0  0
   66.0947   30.0062   51.0930 H   0  0  0  0  0  0  0  0  0  0  0  0
   67.4510   31.6387   49.7897 H   0  0  0  0  0  0  0  0  0  0  0  0
   67.0191   34.0864   50.0049 H   0  0  0  0  0  0  0  0  0  0  0  0
   65.2383   34.9065   51.5494 H   0  0  0  0  0  0  0  0  0  0  0  0
   63.8741   33.2831   52.8615 H   0  0  0  0  0  0  0  0  0  0  0  0
  1  2  1  0
  2  3  1  0
  3  4  2  0
  4  5  1  0
  5  6  2  0
  6  7  1  0
  7  8  2  0
  8  9  1  0
  9 10  1  0
 10 11  2  0
 10 12  1  0
 12 13  1  0
 13 14  1  0
 14 15  2  0
 15 16  1  0
 16 17  2  0
 17 18  1  0
 18 19  2  0
 12 20  1  0
 20 21  1  0
 21 22  2  0
 21 23  1  0
 23 24  1  0
 24 25  1  0
 25 26  2  0
 26 27  1  0
 27 28  2  0
 28 29  1  0
 29 30  1  0
 30 31  2  0
 31 32  1  0
 32 33  2  0
 33 34  1  0
 34 35  2  0
 28 36  1  0
 36 37  2  0
 23 38  1  0
 38 39  1  0
 39 40  2  0
 39 41  1  0
 41 42  1  0
 42 43  1  0
 43 44  2  0
 44 45  1  0
 45 46  2  0
 46 47  1  0
 46 48  1  0
 48 49  2  0
 41 50  1  0
 50 51  1  0
 51 52  2  0
 51 53  1  0
 53 54  2  0
 54 55  1  0
 55 56  2  0
 56 57  1  0
 57 58  2  0
  8  3  1  0
 19 14  1  0
 37 25  1  0
 49 43  1  0
 58 53  1  0
 35 30  1  0
  1 59  1  0
  1 60  1  0
  2 61  1  0
  2 62  1  0
  4 63  1  0
  5 64  1  0
  6 65  1  0
  7 66  1  0
 12 67  1  1
 13 68  1  0
 13 69  1  0
 15 70  1  0
 16 71  1  0
 17 72  1  0
 18 73  1  0
 19 74  1  0
 23 75  1  1
 24 76  1  0
 24 77  1  0
 26 78  1  0
 27 79  1  0
 31 80  1  0
 32 81  1  0
 33 82  1  0
 34 83  1  0
 35 84  1  0
 36 85  1  0
 37 86  1  0
 41 87  1  1
 42 88  1  0
 42 89  1  0
 44 90  1  0
 45 91  1  0
 47 92  1  0
 48 93  1  0
 49 94  1  0
 54 95  1  0
 55 96  1  0
 56 97  1  0
 57 98  1  0
 58 99  1  0
M  CHG  4   9  -1  20  -1  38  -1  50  -1
M  END
>  <UniqueID>  (73) 
64

>  <SMILES>  (73) 
NCc1ccccc1[N-]C(=O)[C@@H](Cc1ccccc1)[N-]C(=O)[C@@H](Cc1ccc(Oc2ccccc2)cc1)[N-]C(=O)C(Cc1ccc(O)cc1)[N-]C(=O)c1ccccc1

>  <Energy>  (73) 
100.50838441243755

>  <Genealogy>  (73) 
NCc1ccccc1[N-]C(=O)C(Cc1ccccc1)[N-]C(=O)C(Cc1ccc(Oc2ccccc2)cc1)[N-]C(=O)C(Cc1ccc(O)cc1)[N-]C(=O)c1ccccc1 (protonated)
NCc1ccccc1[N-]C(=O)[C@@H](Cc1ccccc1)[N-]C(=O)[C@@H](Cc1ccc(Oc2ccccc2)cc1)[N-]C(=O)C(Cc1ccc(O)cc1)[N-]C(=O)c1ccccc1 (chirality)
NCc1ccccc1[N-]C(=O)[C@@H](Cc1ccccc1)[N-]C(=O)[C@@H](Cc1ccc(Oc2ccccc2)cc1)[N-]C(=O)C(Cc1ccc(O)cc1)[N-]C(=O)c1ccccc1 (3D coordinates assigned)
NCc1ccccc1[N-]C(=O)[C@@H](Cc1ccccc1)[N-]C(=O)[C@@H](Cc1ccc(Oc2ccccc2)cc1)[N-]C(=O)C(Cc1ccc(O)cc1)[N-]C(=O)c1ccccc1 (optimized conformer: 100.50838441243755 kcal/mol)

>  <smiles>  (73) 
NCc1ccccc1NC(=O)C(Cc1ccccc1)NC(=O)C(Cc1ccc(Oc2ccccc2)cc1)NC(=O)C(Cc1ccc(O)cc1)NC(=O)c1ccccc1

>  <score_type>  (73) 
oracle

>  <origin>  (73) 
adg

>  <m_score__min__energy>  (73) 
-16.34

>  <m_primary>  (73) 
energy

$$$$
73:0
     RDKit          3D

 52 56  0  0  0  0  0  0  0  0999 V2000
   50.6620   29.6960   48.9920 H   0  0  0  0  0  0  0  0  0  0  0  0
   51.4850   30.2480   49.1940 O   0  0  0  0  0  0  0  0  0  0  0  0
   51.5770   31.0320   50.3420 C   0  0  0  0  0  0  0  0  0  0  0  0
   50.6680   31.9660   50.6670 N   0  0  0  0  0  0  0  0  0  0  0  0
   51.1890   32.5140   51.7850 C   0  0  0  0  0  0  0  0  0  0  0  0
   50.6240   33.4520   52.4070 O   0  0  0  0  0  0  0  0  0  0  0  0
   52.3650   31.9850   52.1810 N   0  0  0  0  0  0  0  0  0  0  0  0
   52.5990   31.0240   51.2700 C   0  0  0  0  0  0  0  0  0  0  0  0
   53.8080   30.1840   51.2780 C   0  0  0  0  0  0  0  0  0  0  0  0
   54.1024   29.6837   50.3436 H   0  0  0  0  0  0  0  0  0  0  0  0
   54.5680   29.9980   52.3660 C   0  0  0  0  0  0  0  0  0  0  0  0
   54.1770   29.7370   53.6800 C   0  0  0  0  0  0  0  0  0  0  0  0
   53.1377   29.6162   54.0194 H   0  0  0  0  0  0  0  0  0  0  0  0
   55.2710   29.6550   54.4740 N   0  0  0  0  0  0  0  0  0  0  0  0
   56.3300   29.8590   53.7050 N   0  0  0  0  0  0  0  0  0  0  0  0
   57.6500   29.8810   54.0470 C   0  0  0  0  0  0  0  0  0  0  0  0
   58.0780   29.6810   55.2620 N   0  0  0  0  0  0  0  0  0  0  0  0
   58.4380   28.3970   55.8550 C   0  0  0  0  0  0  0  0  0  0  0  0
   59.1626   28.7709   56.5933 H   0  0  0  0  0  0  0  0  0  0  0  0
   57.2990   27.3940   55.8940 C   0  0  0  0  0  0  0  0  0  0  0  0
   57.2335   26.6674   56.7172 H   0  0  0  0  0  0  0  0  0  0  0  0
   56.2014   27.4609   55.8664 H   0  0  0  0  0  0  0  0  0  0  0  0
   58.3960   27.2630   54.8490 C   0  0  0  0  0  0  0  0  0  0  0  0
   59.1241   26.4411   54.9159 H   0  0  0  0  0  0  0  0  0  0  0  0
   58.4207   27.1955   53.7513 H   0  0  0  0  0  0  0  0  0  0  0  0
   58.5560   30.1210   53.0590 N   0  0  0  0  0  0  0  0  0  0  0  0
   58.1570   30.3290   51.7660 C   0  0  0  0  0  0  0  0  0  0  0  0
   59.0210   30.5820   50.8270 N   0  0  0  0  0  0  0  0  0  0  0  0
   58.7370   30.8870   49.4510 C   0  0  0  0  0  0  0  0  0  0  0  0
   58.4600   32.1980   49.0190 C   0  0  0  0  0  0  0  0  0  0  0  0
   58.4299   33.0204   49.7489 H   0  0  0  0  0  0  0  0  0  0  0  0
   58.2230   32.4590   47.6660 C   0  0  0  0  0  0  0  0  0  0  0  0
   57.9917   33.4832   47.3380 H   0  0  0  0  0  0  0  0  0  0  0  0
   58.2790   31.4210   46.7260 C   0  0  0  0  0  0  0  0  0  0  0  0
   57.9910   31.7530   45.0170 S   0  0  0  0  0  0  0  0  0  0  0  0
   56.5710   31.3910   44.6770 O   0  0  0  0  0  0  0  0  0  0  0  0
   58.9010   30.8920   44.1860 O   0  0  0  0  0  0  0  0  0  0  0  0
   58.2690   33.4340   44.6300 N   0  0  0  0  0  0  0  0  0  0  0  0
   59.5240   33.8850   45.2450 C   0  0  0  0  0  0  0  0  0  0  0  0
   59.4286   33.8507   46.3403 H   0  0  0  0  0  0  0  0  0  0  0  0
   60.3455   33.2258   44.9277 H   0  0  0  0  0  0  0  0  0  0  0  0
   59.7380   34.9163   44.9277 H   0  0  0  0  0  0  0  0  0  0  0  0
   57.1470   34.2490   45.1130 C   0  0  0  0  0  0  0  0  0  0  0  0
   57.1428   34.2520   46.2130 H   0  0  0  0  0  0  0  0  0  0  0  0
   57.2567   35.2794   44.7439 H   0  0  0  0  0  0  0  0  0  0  0  0
   56.2010   33.8261   44.7439 H   0  0  0  0  0  0  0  0  0  0  0  0
   58.5850   30.1220   47.1500 C   0  0  0  0  0  0  0  0  0  0  0  0
   58.6376   29.3043   46.4161 H   0  0  0  0  0  0  0  0  0  0  0  0
   58.8240   29.8600   48.5030 C   0  0  0  0  0  0  0  0  0  0  0  0
   59.0821   28.8402   48.8246 H   0  0  0  0  0  0  0  0  0  0  0  0
   56.8300   30.3130   51.4540 N   0  0  0  0  0  0  0  0  0  0  0  0
   55.9400   30.0700   52.4450 C   0  0  0  0  0  0  0  0  0  0  0  0
  1  2  1  0
  2  3  1  0
  3  4  1  0
  4  5  1  0
  5  6  2  0
  5  7  1  0
  7  8  1  0
  8  9  1  0
  9 10  1  0
  9 11  2  3
 11 12  1  0
 12 13  1  0
 12 14  2  0
 14 15  1  0
 15 16  1  0
 16 17  2  3
 17 18  1  0
 18 19  1  0
 18 20  1  0
 20 21  1  0
 20 22  1  0
 20 23  1  0
 23 24  1  0
 23 25  1  0
 16 26  1  0
 26 27  1  0
 27 28  2  0
 28 29  1  0
 29 30  2  0
 30 31  1  0
 30 32  1  0
 32 33  1  0
 32 34  2  0
 34 35  1  0
 35 36  2  0
 35 37  2  0
 35 38  1  0
 38 39  1  0
 39 40  1  0
 39 41  1  0
 39 42  1  0
 38 43  1  0
 43 44  1  0
 43 45  1  0
 43 46  1  0
 34 47  1  0
 47 48  1  0
 47 49  2  0
 49 50  1  0
 27 51  1  0
 51 52  2  0
  8  3  2  0
 52 11  1  0
 52 15  1  0
 23 18  1  0
 49 29  1  0
M  CHG  3   4  -1   7  -1  26  -1
M  END
>  <UniqueID>  (74) 
65

>  <SMILES>  (74) 
CN(C)S(=O)(=O)c1ccc(/N=c2/nc3c(=Cc4[n-]c(=O)[n-]c4O)cnn3c(=NC3CC3)[n-]2)cc1

>  <Energy>  (74) 
401.5732373076696

>  <Genealogy>  (74) 
CN(C)S(=O)(=O)c1ccc(N=c2nc3c(=Cc4[n-]c(=O)[n-]c4O)cnn3c(=NC3CC3)[n-]2)cc1 (protonated)
CN(C)S(=O)(=O)c1ccc(/N=c2/nc3c(=Cc4[n-]c(=O)[n-]c4O)cnn3c(=NC3CC3)[n-]2)cc1 (cis-trans isomerization)
CN(C)S(=O)(=O)c1ccc(/N=c2/nc3c(=Cc4[n-]c(=O)[n-]c4O)cnn3c(=NC3CC3)[n-]2)cc1 (3D coordinates assigned)
CN(C)S(=O)(=O)c1ccc(/N=c2/nc3c(=Cc4[n-]c(=O)[n-]c4O)cnn3c(=NC3CC3)[n-]2)cc1 (nonaromatic ring conformer: 401.5732373076696 kcal/mol)

>  <smiles>  (74) 
CN(C)S(=O)(=O)c1ccc(N=c2nc3c(=Cc4[nH]c(=O)[nH]c4O)cnn3c(=NC3CC3)[nH]2)cc1

>  <score_type>  (74) 
oracle

>  <origin>  (74) 
adg

>  <m_score__min__energy>  (74) 
-14.17

>  <m_primary>  (74) 
energy

$$$$
74:0
     RDKit          3D

 40 42  0  0  0  0  0  0  0  0999 V2000
   59.2540   35.2880   44.8730 C   0  0  0  0  0  0  0  0  0  0  0  0
   58.6130   33.9900   45.2550 C   0  0  0  0  0  0  0  0  0  0  0  0
   57.7940   33.2290   44.4350 C   0  0  0  0  0  0  0  0  0  0  0  0
   57.4550   32.1520   45.2250 C   0  0  0  0  0  0  0  0  0  0  0  0
   56.7120   31.1960   44.8780 O   0  0  0  0  0  0  0  0  0  0  0  0
   58.0290   32.2550   46.4350 N   0  0  0  0  0  0  0  0  0  0  0  0
   58.7280   33.3800   46.4600 N   0  0  0  0  0  0  0  0  0  0  0  0
   59.5190   33.8240   47.6100 C   0  0  0  0  0  0  0  0  0  0  0  0
   60.8670   33.1490   47.6100 C   0  0  0  0  0  0  0  0  0  0  0  0
   62.0160   33.8870   47.2800 C   0  0  0  0  0  0  0  0  0  0  0  0
   63.2650   33.2660   47.2280 C   0  0  0  0  0  0  0  0  0  0  0  0
   63.3780   31.9030   47.5020 C   0  0  0  0  0  0  0  0  0  0  0  0
   62.2440   31.1550   47.8240 C   0  0  0  0  0  0  0  0  0  0  0  0
   60.9750   31.7670   47.8740 C   0  0  0  0  0  0  0  0  0  0  0  0
   59.8110   31.0440   48.1850 O   0  0  0  0  0  0  0  0  0  0  0  0
   59.6840   29.6220   48.1530 C   0  0  0  0  0  0  0  0  0  0  0  0
   59.3550   29.1630   46.7590 C   0  0  0  0  0  0  0  0  0  0  0  0
   58.0550   28.7470   46.4240 C   0  0  0  0  0  0  0  0  0  0  0  0
   57.7770   28.2780   45.1360 C   0  0  0  0  0  0  0  0  0  0  0  0
   58.7920   28.2190   44.1770 C   0  0  0  0  0  0  0  0  0  0  0  0
   60.0850   28.6360   44.5010 C   0  0  0  0  0  0  0  0  0  0  0  0
   60.3660   29.1100   45.7860 C   0  0  0  0  0  0  0  0  0  0  0  0
   59.5281   35.8431   45.7822 H   0  0  0  0  0  0  0  0  0  0  0  0
   60.1577   35.0896   44.2781 H   0  0  0  0  0  0  0  0  0  0  0  0
   58.5471   35.8849   44.2781 H   0  0  0  0  0  0  0  0  0  0  0  0
   57.4874   33.4360   43.3991 H   0  0  0  0  0  0  0  0  0  0  0  0
   57.9490   31.5750   47.2230 H   0  0  0  0  0  0  0  0  0  0  0  0
   59.6589   34.9137   47.5552 H   0  0  0  0  0  0  0  0  0  0  0  0
   58.9859   33.5584   48.5348 H   0  0  0  0  0  0  0  0  0  0  0  0
   61.9308   34.9616   47.0611 H   0  0  0  0  0  0  0  0  0  0  0  0
   64.1601   33.8514   46.9710 H   0  0  0  0  0  0  0  0  0  0  0  0
   64.3636   31.4160   47.4643 H   0  0  0  0  0  0  0  0  0  0  0  0
   62.3414   30.0809   48.0402 H   0  0  0  0  0  0  0  0  0  0  0  0
   60.6323   29.1649   48.4721 H   0  0  0  0  0  0  0  0  0  0  0  0
   58.8741   29.3178   48.8324 H   0  0  0  0  0  0  0  0  0  0  0  0
   57.2541   28.7904   47.1768 H   0  0  0  0  0  0  0  0  0  0  0  0
   56.7578   27.9550   44.8774 H   0  0  0  0  0  0  0  0  0  0  0  0
   58.5724   27.8439   43.1665 H   0  0  0  0  0  0  0  0  0  0  0  0
   60.8827   28.5915   43.7448 H   0  0  0  0  0  0  0  0  0  0  0  0
   61.3841   29.4431   46.0360 H   0  0  0  0  0  0  0  0  0  0  0  0
  1  2  1  0
  2  3  2  0
  3  4  1  0
  4  5  2  0
  4  6  1  0
  6  7  1  0
  7  8  1  0
  8  9  1  0
  9 10  2  0
 10 11  1  0
 11 12  2  0
 12 13  1  0
 13 14  2  0
 14 15  1  0
 15 16  1  0
 16 17  1  0
 17 18  2  0
 18 19  1  0
 19 20  2  0
 20 21  1  0
 21 22  2  0
  7  2  1  0
 14  9  1  0
 22 17  1  0
  1 23  1  0
  1 24  1  0
  1 25  1  0
  3 26  1  0
  6 27  1  0
  8 28  1  0
  8 29  1  0
 10 30  1  0
 11 31  1  0
 12 32  1  0
 13 33  1  0
 16 34  1  0
 16 35  1  0
 18 36  1  0
 19 37  1  0
 20 38  1  0
 21 39  1  0
 22 40  1  0
M  END
>  <UniqueID>  (75) 
66

>  <SMILES>  (75) 
Cc1cc(=O)[nH]n1Cc1ccccc1OCc1ccccc1

>  <Energy>  (75) 
70.26904185227502

>  <Genealogy>  (75) 
Cc1cc(=O)[nH]n1Cc1ccccc1OCc1ccccc1 (3D coordinates assigned)
Cc1cc(=O)[nH]n1Cc1ccccc1OCc1ccccc1 (optimized conformer: 70.26904185227502 kcal/mol)

>  <smiles>  (75) 
Cc1cc(=O)[nH]n1Cc1ccccc1OCc1ccccc1

>  <score_type>  (75) 
oracle

>  <origin>  (75) 
adg

>  <m_score__min__energy>  (75) 
-6.7599999999999998

>  <m_primary>  (75) 
energy

$$$$
75:0
     RDKit          3D

 59 62  0  0  0  0  0  0  0  0999 V2000
   56.1400   29.8980   43.2410 O   0  0  0  0  0  0  0  0  0  0  0  0
   57.2610   30.0550   43.7970 C   0  0  0  0  0  0  0  0  0  0  0  0
   58.1280   28.9650   43.9640 O   0  0  0  0  0  0  0  0  0  0  0  0
   58.1080   28.0670   45.0420 C   0  0  0  0  0  0  0  0  0  0  0  0
   59.2680   27.9220   45.8080 C   0  0  0  0  0  0  0  0  0  0  0  0
   59.3090   27.0150   46.8680 C   0  0  0  0  0  0  0  0  0  0  0  0
   58.1870   26.2320   47.1710 C   0  0  0  0  0  0  0  0  0  0  0  0
   58.2320   25.3220   48.2250 O   0  0  0  0  0  0  0  0  0  0  0  0
   57.0150   26.3620   46.4120 C   0  0  0  0  0  0  0  0  0  0  0  0
   55.8840   25.5460   46.7430 N   0  0  0  0  0  0  0  0  0  0  0  0
   55.9470   23.8500   47.1040 S   0  0  0  0  0  0  0  0  0  0  0  0
   55.5320   23.6150   48.5300 O   0  0  0  0  0  0  0  0  0  0  0  0
   57.3440   23.3380   46.8890 O   0  0  0  0  0  0  0  0  0  0  0  0
   54.8320   22.9720   46.0220 C   0  0  0  0  0  0  0  0  0  0  0  0
   55.5870   22.3740   44.8660 C   0  0  0  0  0  0  0  0  0  0  0  0
   55.9110   23.1600   43.7470 C   0  0  0  0  0  0  0  0  0  0  0  0
   56.5790   22.5920   42.6570 C   0  0  0  0  0  0  0  0  0  0  0  0
   56.9190   21.2360   42.6730 C   0  0  0  0  0  0  0  0  0  0  0  0
   56.5900   20.4460   43.7790 C   0  0  0  0  0  0  0  0  0  0  0  0
   55.9220   21.0090   44.8700 C   0  0  0  0  0  0  0  0  0  0  0  0
   56.9820   27.2750   45.3420 C   0  0  0  0  0  0  0  0  0  0  0  0
   57.6810   31.3940   44.2750 C   0  0  0  0  0  0  0  0  0  0  0  0
   57.7650   31.6050   45.6640 C   0  0  0  0  0  0  0  0  0  0  0  0
   58.2780   32.8060   46.1850 C   0  0  0  0  0  0  0  0  0  0  0  0
   58.3750   33.0420   47.5650 O   0  0  0  0  0  0  0  0  0  0  0  0
   59.5690   33.0250   48.2960 C   0  0  0  0  0  0  0  0  0  0  0  0
   60.2790   34.2190   48.4520 C   0  0  0  0  0  0  0  0  0  0  0  0
   61.4650   34.2480   49.1880 C   0  0  0  0  0  0  0  0  0  0  0  0
   61.9590   33.0780   49.7880 C   0  0  0  0  0  0  0  0  0  0  0  0
   63.2630   33.1000   50.5460 C   0  0  0  0  0  0  0  0  0  0  0  0
   64.2890   32.7190   49.6990 F   0  0  0  0  0  0  0  0  0  0  0  0
   63.5250   34.3730   51.0290 F   0  0  0  0  0  0  0  0  0  0  0  0
   63.2190   32.2290   51.6220 F   0  0  0  0  0  0  0  0  0  0  0  0
   61.2740   31.8660   49.5850 C   0  0  0  0  0  0  0  0  0  0  0  0
   60.0850   31.8340   48.8460 C   0  0  0  0  0  0  0  0  0  0  0  0
   59.3000   30.2840   48.5700 Cl  0  0  0  0  0  0  0  0  0  0  0  0
   58.6870   33.8110   45.3070 C   0  0  0  0  0  0  0  0  0  0  0  0
   58.5840   33.6320   43.9280 C   0  0  0  0  0  0  0  0  0  0  0  0
   58.0660   32.4400   43.3950 C   0  0  0  0  0  0  0  0  0  0  0  0
   57.8850   32.3420   41.9730 N   0  0  0  0  0  0  0  0  0  0  0  0
   56.8460   31.8280   41.5070 O   0  0  0  0  0  0  0  0  0  0  0  0
   58.7140   33.0430   41.1260 O   0  0  0  0  0  0  0  0  0  0  0  0
   60.1558   28.5276   45.5735 H   0  0  0  0  0  0  0  0  0  0  0  0
   60.2255   26.9144   47.4679 H   0  0  0  0  0  0  0  0  0  0  0  0
   57.4260   24.7590   48.4760 H   0  0  0  0  0  0  0  0  0  0  0  0
   54.3368   22.1681   46.5864 H   0  0  0  0  0  0  0  0  0  0  0  0
   54.0826   23.6770   45.6329 H   0  0  0  0  0  0  0  0  0  0  0  0
   55.6384   24.2255   43.7281 H   0  0  0  0  0  0  0  0  0  0  0  0
   56.8370   23.2129   41.7864 H   0  0  0  0  0  0  0  0  0  0  0  0
   57.4452   20.7906   41.8158 H   0  0  0  0  0  0  0  0  0  0  0  0
   56.8575   19.3791   43.7904 H   0  0  0  0  0  0  0  0  0  0  0  0
   55.6577   20.3820   45.7343 H   0  0  0  0  0  0  0  0  0  0  0  0
   56.0698   27.3712   44.7348 H   0  0  0  0  0  0  0  0  0  0  0  0
   57.4240   30.8180   46.3528 H   0  0  0  0  0  0  0  0  0  0  0  0
   59.9002   35.1432   47.9911 H   0  0  0  0  0  0  0  0  0  0  0  0
   62.0163   35.1934   49.2988 H   0  0  0  0  0  0  0  0  0  0  0  0
   61.6762   30.9349   50.0108 H   0  0  0  0  0  0  0  0  0  0  0  0
   59.0939   34.7518   45.7061 H   0  0  0  0  0  0  0  0  0  0  0  0
   58.9121   34.4334   43.2497 H   0  0  0  0  0  0  0  0  0  0  0  0
  1  2  2  0
  2  3  1  0
  3  4  1  0
  4  5  2  0
  5  6  1  0
  6  7  2  0
  7  8  1  0
  7  9  1  0
  9 10  1  0
 10 11  1  0
 11 12  2  0
 11 13  2  0
 11 14  1  0
 14 15  1  0
 15 16  2  0
 16 17  1  0
 17 18  2  0
 18 19  1  0
 19 20  2  0
  9 21  2  0
  2 22  1  0
 22 23  2  0
 23 24  1  0
 24 25  1  0
 25 26  1  0
 26 27  2  0
 27 28  1  0
 28 29  2  0
 29 30  1  0
 30 31  1  0
 30 32  1  0
 30 33  1  0
 29 34  1  0
 34 35  2  0
 35 36  1  0
 24 37  2  0
 37 38  1  0
 38 39  2  0
 39 40  1  0
 40 41  2  0
 40 42  1  0
 21  4  1  0
 39 22  1  0
 20 15  1  0
 35 26  1  0
  5 43  1  0
  6 44  1  0
  8 45  1  0
 14 46  1  0
 14 47  1  0
 16 48  1  0
 17 49  1  0
 18 50  1  0
 19 51  1  0
 20 52  1  0
 21 53  1  0
 23 54  1  0
 27 55  1  0
 28 56  1  0
 34 57  1  0
 37 58  1  0
 38 59  1  0
M  CHG  3  10  -1  40   1  42  -1
M  END
>  <UniqueID>  (76) 
67

>  <SMILES>  (76) 
O=C(Oc1ccc(O)c([N-]S(=O)(=O)Cc2ccccc2)c1)c1cc(Oc2ccc(C(F)(F)F)cc2Cl)ccc1[N+](=O)[O-]

>  <Energy>  (76) 
83.95212196217852

>  <Genealogy>  (76) 
O=C(Oc1ccc(O)c([N-]S(=O)(=O)Cc2ccccc2)c1)c1cc(Oc2ccc(C(F)(F)F)cc2Cl)ccc1[N+](=O)[O-] (protonated)
O=C(Oc1ccc(O)c([N-]S(=O)(=O)Cc2ccccc2)c1)c1cc(Oc2ccc(C(F)(F)F)cc2Cl)ccc1[N+](=O)[O-] (3D coordinates assigned)
O=C(Oc1ccc(O)c([N-]S(=O)(=O)Cc2ccccc2)c1)c1cc(Oc2ccc(C(F)(F)F)cc2Cl)ccc1[N+](=O)[O-] (optimized conformer: 83.95212196217852 kcal/mol)

>  <smiles>  (76) 
O=C(Oc1ccc(O)c(NS(=O)(=O)Cc2ccccc2)c1)c1cc(Oc2ccc(C(F)(F)F)cc2Cl)ccc1[N+](=O)[O-]

>  <score_type>  (76) 
oracle

>  <origin>  (76) 
adg

>  <m_score__min__energy>  (76) 
-11.74

>  <m_primary>  (76) 
energy

$$$$
76:0
     RDKit          3D

 45 49  0  0  0  0  0  0  0  0999 V2000
   63.0580   33.8570   52.1140 C   0  0  0  0  0  0  0  0  0  0  0  0
   62.6050   32.9130   51.0980 N   0  0  0  0  0  0  0  0  0  0  0  0
   61.6280   31.9770   51.2080 C   0  0  0  0  0  0  0  0  0  0  0  0
   60.9870   31.7640   52.2730 O   0  0  0  0  0  0  0  0  0  0  0  0
   61.3960   31.3100   50.0480 N   0  0  0  0  0  0  0  0  0  0  0  0
   60.4390   30.2270   49.8110 C   0  0  0  0  0  0  0  0  0  0  0  0
   59.2460   30.7220   49.0440 C   0  0  0  0  0  0  0  0  0  0  0  0
   58.1390   30.8620   49.6310 O   0  0  0  0  0  0  0  0  0  0  0  0
   59.3400   31.0410   47.6470 N   0  0  0  0  0  0  0  0  0  0  0  0
   59.2150   32.4140   47.2250 C   0  0  0  0  0  0  0  0  0  0  0  0
   59.9320   33.4310   47.8740 C   0  0  0  0  0  0  0  0  0  0  0  0
   59.9360   34.7310   47.3580 C   0  0  0  0  0  0  0  0  0  0  0  0
   59.2350   35.0210   46.1850 C   0  0  0  0  0  0  0  0  0  0  0  0
   58.5070   34.0190   45.5380 C   0  0  0  0  0  0  0  0  0  0  0  0
   58.4800   32.7230   46.0650 C   0  0  0  0  0  0  0  0  0  0  0  0
   57.4020   31.4840   45.3470 S   0  0  0  0  0  0  0  0  0  0  0  0
   58.6320   30.1830   45.4480 C   0  0  0  0  0  0  0  0  0  0  0  0
   58.7900   29.2950   44.3780 C   0  0  0  0  0  0  0  0  0  0  0  0
   59.6540   28.2040   44.4970 C   0  0  0  0  0  0  0  0  0  0  0  0
   60.3630   28.0000   45.6830 C   0  0  0  0  0  0  0  0  0  0  0  0
   60.2290   28.8990   46.7460 C   0  0  0  0  0  0  0  0  0  0  0  0
   59.3680   30.0060   46.6380 C   0  0  0  0  0  0  0  0  0  0  0  0
   62.2580   31.8690   49.1710 C   0  0  0  0  0  0  0  0  0  0  0  0
   62.4370   31.5860   47.8140 C   0  0  0  0  0  0  0  0  0  0  0  0
   63.3960   32.3370   47.1110 C   0  0  0  0  0  0  0  0  0  0  0  0
   64.1420   33.3430   47.7660 C   0  0  0  0  0  0  0  0  0  0  0  0
   63.9370   33.6090   49.1320 C   0  0  0  0  0  0  0  0  0  0  0  0
   62.9840   32.8430   49.8060 C   0  0  0  0  0  0  0  0  0  0  0  0
   62.8594   33.4431   53.1136 H   0  0  0  0  0  0  0  0  0  0  0  0
   64.1378   34.0312   51.9972 H   0  0  0  0  0  0  0  0  0  0  0  0
   62.5183   34.8084   51.9972 H   0  0  0  0  0  0  0  0  0  0  0  0
   60.9323   29.4306   49.2345 H   0  0  0  0  0  0  0  0  0  0  0  0
   60.0963   29.8428   50.7831 H   0  0  0  0  0  0  0  0  0  0  0  0
   60.4933   33.2047   48.7925 H   0  0  0  0  0  0  0  0  0  0  0  0
   60.4919   35.5261   47.8765 H   0  0  0  0  0  0  0  0  0  0  0  0
   59.2561   36.0395   45.7701 H   0  0  0  0  0  0  0  0  0  0  0  0
   57.9553   34.2490   44.6146 H   0  0  0  0  0  0  0  0  0  0  0  0
   58.2336   29.4563   43.4429 H   0  0  0  0  0  0  0  0  0  0  0  0
   59.7761   27.5052   43.6563 H   0  0  0  0  0  0  0  0  0  0  0  0
   61.0287   27.1298   45.7813 H   0  0  0  0  0  0  0  0  0  0  0  0
   60.8005   28.7393   47.6722 H   0  0  0  0  0  0  0  0  0  0  0  0
   61.8483   30.8032   47.3133 H   0  0  0  0  0  0  0  0  0  0  0  0
   63.5669   32.1398   46.0424 H   0  0  0  0  0  0  0  0  0  0  0  0
   64.8887   33.9224   47.2032 H   0  0  0  0  0  0  0  0  0  0  0  0
   64.5076   34.3932   49.6511 H   0  0  0  0  0  0  0  0  0  0  0  0
  1  2  1  0
  2  3  1  0
  3  4  2  0
  3  5  1  0
  5  6  1  0
  6  7  1  0
  7  8  2  0
  7  9  1  0
  9 10  1  0
 10 11  2  0
 11 12  1  0
 12 13  2  0
 13 14  1  0
 14 15  2  0
 15 16  1  0
 16 17  1  0
 17 18  2  0
 18 19  1  0
 19 20  2  0
 20 21  1  0
 21 22  2  0
  5 23  1  0
 23 24  2  0
 24 25  1  0
 25 26  2  0
 26 27  1  0
 27 28  2  0
 28  2  1  0
 22  9  1  0
 28 23  1  0
 15 10  1  0
 22 17  1  0
  1 29  1  0
  1 30  1  0
  1 31  1  0
  6 32  1  0
  6 33  1  0
 11 34  1  0
 12 35  1  0
 13 36  1  0
 14 37  1  0
 18 38  1  0
 19 39  1  0
 20 40  1  0
 21 41  1  0
 24 42  1  0
 25 43  1  0
 26 44  1  0
 27 45  1  0
M  END
>  <UniqueID>  (77) 
68

>  <SMILES>  (77) 
Cn1c(=O)n(CC(=O)N2c3ccccc3Sc3ccccc32)c2ccccc21

>  <Energy>  (77) 
117.02293653931972

>  <Genealogy>  (77) 
Cn1c(=O)n(CC(=O)N2c3ccccc3Sc3ccccc32)c2ccccc21 (3D coordinates assigned)
Cn1c(=O)n(CC(=O)N2c3ccccc3Sc3ccccc32)c2ccccc21 (nonaromatic ring conformer: 117.02293653931972 kcal/mol)

>  <smiles>  (77) 
Cn1c(=O)n(CC(=O)N2c3ccccc3Sc3ccccc32)c2ccccc21

>  <score_type>  (77) 
oracle

>  <origin>  (77) 
adg

>  <m_score__min__energy>  (77) 
-8.7400000000000002

>  <m_primary>  (77) 
energy

$$$$
77:0
     RDKit          3D

 39 41  0  0  0  0  0  0  0  0999 V2000
   51.6070   23.7290   44.8650 C   0  0  0  0  0  0  0  0  0  0  0  0
   52.8990   24.3240   45.1820 N   0  0  0  0  0  0  0  0  0  0  0  0
   54.0460   23.5160   45.4860 C   0  0  0  0  0  0  0  0  0  0  0  0
   53.9110   22.2720   45.6410 O   0  0  0  0  0  0  0  0  0  0  0  0
   55.3820   24.1280   45.6630 C   0  0  0  0  0  0  0  0  0  0  0  0
   56.5230   23.3120   45.5780 C   0  0  0  0  0  0  0  0  0  0  0  0
   57.7950   23.8490   45.7740 C   0  0  0  0  0  0  0  0  0  0  0  0
   57.9480   25.2120   46.0300 C   0  0  0  0  0  0  0  0  0  0  0  0
   56.8330   26.0560   46.0650 C   0  0  0  0  0  0  0  0  0  0  0  0
   57.0420   27.4520   46.3190 N   0  0  0  0  0  0  0  0  0  0  0  0
   56.8430   28.5050   45.3680 C   0  0  0  0  0  0  0  0  0  0  0  0
   55.6960   28.9950   45.1840 O   0  0  0  0  0  0  0  0  0  0  0  0
   57.9860   28.9530   44.5170 C   0  0  0  0  0  0  0  0  0  0  0  0
   57.8690   30.4180   44.2320 C   0  0  0  0  0  0  0  0  0  0  0  0
   57.4490   30.9990   43.0390 C   0  0  0  0  0  0  0  0  0  0  0  0
   57.3880   32.3450   43.1650 N   0  0  0  0  0  0  0  0  0  0  0  0
   57.7550   32.6170   44.4300 C   0  0  0  0  0  0  0  0  0  0  0  0
   57.8280   33.8690   45.0380 C   0  0  0  0  0  0  0  0  0  0  0  0
   58.2170   33.9220   46.3890 C   0  0  0  0  0  0  0  0  0  0  0  0
   58.5160   32.7360   47.0950 C   0  0  0  0  0  0  0  0  0  0  0  0
   58.4320   31.4850   46.4560 C   0  0  0  0  0  0  0  0  0  0  0  0
   58.0500   31.4660   45.1140 C   0  0  0  0  0  0  0  0  0  0  0  0
   55.5410   25.5100   45.9040 C   0  0  0  0  0  0  0  0  0  0  0  0
   54.4240   26.3370   45.9880 O   0  0  0  0  0  0  0  0  0  0  0  0
   51.0770   23.4849   45.7975 H   0  0  0  0  0  0  0  0  0  0  0  0
   51.0087   24.4423   44.2791 H   0  0  0  0  0  0  0  0  0  0  0  0
   51.7601   22.8107   44.2791 H   0  0  0  0  0  0  0  0  0  0  0  0
   52.9670   25.3650   45.2330 H   0  0  0  0  0  0  0  0  0  0  0  0
   56.4118   22.2406   45.3550 H   0  0  0  0  0  0  0  0  0  0  0  0
   58.6795   23.1967   45.7267 H   0  0  0  0  0  0  0  0  0  0  0  0
   58.9521   25.6256   46.2055 H   0  0  0  0  0  0  0  0  0  0  0  0
   58.9312   28.7590   45.0451 H   0  0  0  0  0  0  0  0  0  0  0  0
   57.9683   28.3980   43.5675 H   0  0  0  0  0  0  0  0  0  0  0  0
   57.2016   30.4426   42.1229 H   0  0  0  0  0  0  0  0  0  0  0  0
   57.1000   33.0290   42.4310 H   0  0  0  0  0  0  0  0  0  0  0  0
   57.5892   34.7861   44.4796 H   0  0  0  0  0  0  0  0  0  0  0  0
   58.2888   34.8940   46.8990 H   0  0  0  0  0  0  0  0  0  0  0  0
   58.8166   32.7905   48.1517 H   0  0  0  0  0  0  0  0  0  0  0  0
   58.6597   30.5540   46.9959 H   0  0  0  0  0  0  0  0  0  0  0  0
  1  2  1  0
  2  3  1  0
  3  4  2  0
  3  5  1  0
  5  6  2  0
  6  7  1  0
  7  8  2  0
  8  9  1  0
  9 10  1  0
 10 11  1  0
 11 12  2  0
 11 13  1  0
 13 14  1  0
 14 15  2  0
 15 16  1  0
 16 17  1  0
 17 18  2  0
 18 19  1  0
 19 20  2  0
 20 21  1  0
 21 22  2  0
  9 23  2  0
 23 24  1  0
 23  5  1  0
 22 14  1  0
 22 17  1  0
  1 25  1  0
  1 26  1  0
  1 27  1  0
  2 28  1  0
  6 29  1  0
  7 30  1  0
  8 31  1  0
 13 32  1  0
 13 33  1  0
 15 34  1  0
 16 35  1  0
 18 36  1  0
 19 37  1  0
 20 38  1  0
 21 39  1  0
M  CHG  2  10  -1  24  -1
M  END
>  <UniqueID>  (78) 
69

>  <SMILES>  (78) 
CNC(=O)c1cccc([N-]C(=O)Cc2c[nH]c3ccccc23)c1[O-]

>  <Energy>  (78) 
79.27903164728063

>  <Genealogy>  (78) 
CNC(=O)c1cccc([N-]C(=O)Cc2c[nH]c3ccccc23)c1[O-] (protonated)
CNC(=O)c1cccc([N-]C(=O)Cc2c[nH]c3ccccc23)c1[O-] (3D coordinates assigned)
CNC(=O)c1cccc([N-]C(=O)Cc2c[nH]c3ccccc23)c1[O-] (optimized conformer: 79.27903164728063 kcal/mol)

>  <smiles>  (78) 
CNC(=O)c1cccc(NC(=O)Cc2c[nH]c3ccccc23)c1O

>  <score_type>  (78) 
oracle

>  <origin>  (78) 
adg

>  <m_score__min__energy>  (78) 
-14.17

>  <m_primary>  (78) 
energy

$$$$
78:0
     RDKit          3D

 35 36  0  0  0  0  0  0  0  0999 V2000
   55.1480   29.3330   44.7950 N   0  0  0  0  0  0  0  0  0  0  0  0
   56.4920   29.7980   44.9060 C   0  0  0  0  0  0  0  0  0  0  0  0
   56.7700   30.9650   44.5220 O   0  0  0  0  0  0  0  0  0  0  0  0
   57.5480   28.9210   45.4640 C   0  0  0  0  0  0  0  0  0  0  0  0
   58.9070   29.2230   45.2660 C   0  0  0  0  0  0  0  0  0  0  0  0
   59.9000   28.3880   45.7830 C   0  0  0  0  0  0  0  0  0  0  0  0
   59.5520   27.2490   46.5130 C   0  0  0  0  0  0  0  0  0  0  0  0
   58.2000   26.9440   46.7430 C   0  0  0  0  0  0  0  0  0  0  0  0
   57.7960   25.7710   47.4660 N   0  0  0  0  0  0  0  0  0  0  0  0
   57.2670   24.5600   46.9100 C   0  0  0  0  0  0  0  0  0  0  0  0
   57.4290   23.4620   47.5020 O   0  0  0  0  0  0  0  0  0  0  0  0
   56.5010   24.5870   45.7020 N   0  0  0  0  0  0  0  0  0  0  0  0
   55.1660   24.0870   45.5560 C   0  0  0  0  0  0  0  0  0  0  0  0
   54.1410   24.4010   46.3670 N   0  0  0  0  0  0  0  0  0  0  0  0
   53.1040   23.7140   45.8430 C   0  0  0  0  0  0  0  0  0  0  0  0
   53.4280   22.9910   44.7490 N   0  0  0  0  0  0  0  0  0  0  0  0
   54.7370   23.2330   44.5630 C   0  0  0  0  0  0  0  0  0  0  0  0
   55.5650   22.6390   43.4880 C   0  0  0  0  0  0  0  0  0  0  0  0
   55.6310   23.2260   42.3750 O   0  0  0  0  0  0  0  0  0  0  0  0
   56.3050   21.4190   43.6530 N   0  0  0  0  0  0  0  0  0  0  0  0
   57.6760   21.1540   43.2260 C   0  0  0  0  0  0  0  0  0  0  0  0
   58.6600   21.8080   44.1510 C   0  0  0  0  0  0  0  0  0  0  0  0
   58.2110   22.4930   45.3210 N   0  0  0  0  0  0  0  0  0  0  0  0
   59.8890   21.7880   43.8740 O   0  0  0  0  0  0  0  0  0  0  0  0
   57.2070   27.7710   46.2000 C   0  0  0  0  0  0  0  0  0  0  0  0
   54.5020   29.3560   45.6150 H   0  0  0  0  0  0  0  0  0  0  0  0
   59.1899   30.1229   44.7001 H   0  0  0  0  0  0  0  0  0  0  0  0
   60.9602   28.6282   45.6147 H   0  0  0  0  0  0  0  0  0  0  0  0
   60.3383   26.5894   46.9087 H   0  0  0  0  0  0  0  0  0  0  0  0
   52.0895   23.7405   46.2674 H   0  0  0  0  0  0  0  0  0  0  0  0
   57.8495   20.0678   43.2250 H   0  0  0  0  0  0  0  0  0  0  0  0
   57.8156   21.5659   42.2156 H   0  0  0  0  0  0  0  0  0  0  0  0
   57.1950   22.5430   45.5540 H   0  0  0  0  0  0  0  0  0  0  0  0
   58.8990   22.9520   45.9570 H   0  0  0  0  0  0  0  0  0  0  0  0
   56.1473   27.5178   46.3512 H   0  0  0  0  0  0  0  0  0  0  0  0
  1  2  1  0
  2  3  2  0
  2  4  1  0
  4  5  2  0
  5  6  1  0
  6  7  2  0
  7  8  1  0
  8  9  1  0
  9 10  1  0
 10 11  2  0
 10 12  1  0
 12 13  1  0
 13 14  1  0
 14 15  2  0
 15 16  1  0
 16 17  1  0
 17 18  1  0
 18 19  2  0
 18 20  1  0
 20 21  1  0
 21 22  1  0
 22 23  1  0
 22 24  2  0
  8 25  2  0
 25  4  1  0
 17 13  2  0
  1 26  1  0
  5 27  1  0
  6 28  1  0
  7 29  1  0
 15 30  1  0
 21 31  1  0
 21 32  1  0
 23 33  1  0
 23 34  1  0
 25 35  1  0
M  CHG  5   1  -1   9  -1  12  -1  16  -1  20  -1
M  END
>  <UniqueID>  (79) 
70

>  <SMILES>  (79) 
[NH-]C(=O)c1cccc([N-]C(=O)[N-]c2nc[n-]c2C(=O)[N-]CC(N)=O)c1

>  <Energy>  (79) 
65.80456763703465

>  <Genealogy>  (79) 
[NH-]C(=O)c1cccc([N-]C(=O)[N-]c2nc[n-]c2C(=O)[N-]CC(N)=O)c1 (protonated)
[NH-]C(=O)c1cccc([N-]C(=O)[N-]c2nc[n-]c2C(=O)[N-]CC(N)=O)c1 (3D coordinates assigned)
[NH-]C(=O)c1cccc([N-]C(=O)[N-]c2nc[n-]c2C(=O)[N-]CC(N)=O)c1 (optimized conformer: 65.80456763703465 kcal/mol)

>  <smiles>  (79) 
NC(=O)CNC(=O)c1[nH]cnc1NC(=O)Nc1cccc(C(N)=O)c1

>  <score_type>  (79) 
oracle

>  <origin>  (79) 
adg

>  <m_score__min__energy>  (79) 
-15.66

>  <m_primary>  (79) 
energy

$$$$
79:0
     RDKit          3D

 47 48  0  0  0  0  0  0  0  0999 V2000
   60.3710   29.3930   51.7900 C   0  0  0  0  0  0  0  0  0  0  0  0
   60.2090   28.6140   50.5130 C   0  0  0  0  0  0  0  0  0  0  0  0
   59.4750   29.1620   49.4480 C   0  0  0  0  0  0  0  0  0  0  0  0
   59.3350   28.4630   48.2320 C   0  0  0  0  0  0  0  0  0  0  0  0
   58.6720   29.0270   47.1270 O   0  0  0  0  0  0  0  0  0  0  0  0
   59.3040   29.6810   46.0230 C   0  0  0  0  0  0  0  0  0  0  0  0
   58.6370   30.9940   45.6600 C   0  0  0  0  0  0  0  0  0  0  0  0
   59.2080   32.2090   46.0970 C   0  0  0  0  0  0  0  0  0  0  0  0
   58.6390   33.4340   45.7450 C   0  0  0  0  0  0  0  0  0  0  0  0
   57.5090   33.4680   44.9290 C   0  0  0  0  0  0  0  0  0  0  0  0
   56.9460   32.2810   44.4600 C   0  0  0  0  0  0  0  0  0  0  0  0
   57.4980   31.0370   44.8120 C   0  0  0  0  0  0  0  0  0  0  0  0
   56.7200   29.5630   44.2020 S   0  0  0  0  0  0  0  0  0  0  0  0
   55.1480   29.4000   44.8940 N   0  0  0  0  0  0  0  0  0  0  0  0
   57.5350   28.3560   44.5670 O   0  0  0  0  0  0  0  0  0  0  0  0
   56.6150   29.6330   42.7040 O   0  0  0  0  0  0  0  0  0  0  0  0
   59.9050   27.1760   48.1040 C   0  0  0  0  0  0  0  0  0  0  0  0
   59.7390   26.3830   46.8660 C   0  0  0  0  0  0  0  0  0  0  0  0
   60.6270   25.5460   46.5450 O   0  0  0  0  0  0  0  0  0  0  0  0
   58.5660   26.5330   46.0500 N   0  0  0  0  0  0  0  0  0  0  0  0
   58.3730   25.7920   44.8060 C   0  0  0  0  0  0  0  0  0  0  0  0
   57.1520   24.8730   44.8930 C   0  0  0  0  0  0  0  0  0  0  0  0
   56.1220   25.2620   46.3050 S   0  0  0  0  0  0  0  0  0  0  0  0
   55.2020   26.6930   45.9850 N   0  0  0  0  0  0  0  0  0  0  0  0
   55.1860   24.1160   46.5700 O   0  0  0  0  0  0  0  0  0  0  0  0
   56.9860   25.4860   47.5160 O   0  0  0  0  0  0  0  0  0  0  0  0
   60.6620   26.6460   49.1600 C   0  0  0  0  0  0  0  0  0  0  0  0
   60.8160   27.3530   50.3570 C   0  0  0  0  0  0  0  0  0  0  0  0
   61.7810   26.6350   51.6420 Cl  0  0  0  0  0  0  0  0  0  0  0  0
   60.2313   28.7211   52.6496 H   0  0  0  0  0  0  0  0  0  0  0  0
   61.3794   29.8309   51.8270 H   0  0  0  0  0  0  0  0  0  0  0  0
   59.6208   30.1966   51.8270 H   0  0  0  0  0  0  0  0  0  0  0  0
   59.0036   30.1490   49.5645 H   0  0  0  0  0  0  0  0  0  0  0  0
   60.3533   29.8803   46.2860 H   0  0  0  0  0  0  0  0  0  0  0  0
   59.2223   29.0149   45.1514 H   0  0  0  0  0  0  0  0  0  0  0  0
   60.1125   32.1900   46.7227 H   0  0  0  0  0  0  0  0  0  0  0  0
   59.0818   34.3720   46.1112 H   0  0  0  0  0  0  0  0  0  0  0  0
   57.0600   34.4339   44.6542 H   0  0  0  0  0  0  0  0  0  0  0  0
   56.0609   32.3188   43.8079 H   0  0  0  0  0  0  0  0  0  0  0  0
   55.2070   28.6570   45.6250 H   0  0  0  0  0  0  0  0  0  0  0  0
   57.7830   27.1400   46.3800 H   0  0  0  0  0  0  0  0  0  0  0  0
   58.2268   26.5060   43.9821 H   0  0  0  0  0  0  0  0  0  0  0  0
   59.2639   25.1718   44.6282 H   0  0  0  0  0  0  0  0  0  0  0  0
   56.5555   24.9865   43.9758 H   0  0  0  0  0  0  0  0  0  0  0  0
   57.5109   23.8395   45.0076 H   0  0  0  0  0  0  0  0  0  0  0  0
   55.7340   27.2440   45.2760 H   0  0  0  0  0  0  0  0  0  0  0  0
   61.1403   25.6621   49.0450 H   0  0  0  0  0  0  0  0  0  0  0  0
  1  2  1  0
  2  3  2  0
  3  4  1  0
  4  5  1  0
  5  6  1  0
  6  7  1  0
  7  8  2  0
  8  9  1  0
  9 10  2  0
 10 11  1  0
 11 12  2  0
 12 13  1  0
 13 14  1  0
 13 15  2  0
 13 16  2  0
  4 17  2  0
 17 18  1  0
 18 19  2  0
 18 20  1  0
 20 21  1  0
 21 22  1  0
 22 23  1  0
 23 24  1  0
 23 25  2  0
 23 26  2  0
 17 27  1  0
 27 28  2  0
 28 29  1  0
 28  2  1  0
 12  7  1  0
  1 30  1  0
  1 31  1  0
  1 32  1  0
  3 33  1  0
  6 34  1  0
  6 35  1  0
  8 36  1  0
  9 37  1  0
 10 38  1  0
 11 39  1  0
 14 40  1  0
 20 41  1  0
 21 42  1  0
 21 43  1  0
 22 44  1  0
 22 45  1  0
 24 46  1  0
 27 47  1  0
M  CHG  2  14  -1  24  -1
M  END
>  <UniqueID>  (80) 
71

>  <SMILES>  (80) 
Cc1cc(OCc2ccccc2S([NH-])(=O)=O)c(C(=O)NCCS([NH-])(=O)=O)cc1Cl

>  <Energy>  (80) 
45.784465388326964

>  <Genealogy>  (80) 
Cc1cc(OCc2ccccc2S([NH-])(=O)=O)c(C(=O)NCCS([NH-])(=O)=O)cc1Cl (protonated)
Cc1cc(OCc2ccccc2S([NH-])(=O)=O)c(C(=O)NCCS([NH-])(=O)=O)cc1Cl (3D coordinates assigned)
Cc1cc(OCc2ccccc2S([NH-])(=O)=O)c(C(=O)NCCS([NH-])(=O)=O)cc1Cl (optimized conformer: 45.784465388326964 kcal/mol)

>  <smiles>  (80) 
Cc1cc(OCc2ccccc2S(N)(=O)=O)c(C(=O)NCCS(N)(=O)=O)cc1Cl

>  <score_type>  (80) 
oracle

>  <origin>  (80) 
adg

>  <m_score__min__energy>  (80) 
-13.77

>  <m_primary>  (80) 
energy

$$$$
80:0
     RDKit          3D

 49 53  0  0  0  0  0  0  0  0999 V2000
   55.1280   30.0490   53.6090 C   0  0  0  0  0  0  0  0  0  0  0  0
   55.4700   30.3200   52.2950 C   0  0  0  0  0  0  0  0  0  0  0  0
   56.6300   30.9870   52.3200 N   0  0  0  0  0  0  0  0  0  0  0  0
   57.3780   31.4750   51.2990 C   0  0  0  0  0  0  0  0  0  0  0  0
   58.5790   32.1490   51.6070 C   0  0  0  0  0  0  0  0  0  0  0  0
   59.4350   32.7020   50.5310 C   0  0  0  0  0  0  0  0  0  0  0  0
   60.7690   32.8640   50.7280 N   0  0  0  0  0  0  0  0  0  0  0  0
   61.5630   33.3740   49.7530 C   0  0  0  0  0  0  0  0  0  0  0  0
   62.9770   33.5390   49.9980 N   0  0  0  0  0  0  0  0  0  0  0  0
   63.4250   34.4620   51.0490 C   0  0  0  0  0  0  0  0  0  0  0  0
   64.7930   34.0320   51.5850 C   0  0  0  0  0  0  0  0  0  0  0  0
   65.7100   33.8430   50.5270 O   0  0  0  0  0  0  0  0  0  0  0  0
   65.2950   32.7500   49.7320 C   0  0  0  0  0  0  0  0  0  0  0  0
   63.9690   33.0590   49.0290 C   0  0  0  0  0  0  0  0  0  0  0  0
   61.0080   33.7340   48.5600 N   0  0  0  0  0  0  0  0  0  0  0  0
   59.6740   33.5590   48.3440 C   0  0  0  0  0  0  0  0  0  0  0  0
   59.0770   33.9340   47.0890 N   0  0  0  0  0  0  0  0  0  0  0  0
   59.6150   35.0830   46.3540 C   0  0  0  0  0  0  0  0  0  0  0  0
   59.2690   34.9560   44.8680 C   0  0  0  0  0  0  0  0  0  0  0  0
   57.8810   34.7450   44.6890 O   0  0  0  0  0  0  0  0  0  0  0  0
   57.5110   33.5000   45.2510 C   0  0  0  0  0  0  0  0  0  0  0  0
   57.7090   33.5100   46.7690 C   0  0  0  0  0  0  0  0  0  0  0  0
   58.8970   33.0520   49.3350 N   0  0  0  0  0  0  0  0  0  0  0  0
   58.9470   32.2850   52.9700 C   0  0  0  0  0  0  0  0  0  0  0  0
   58.1340   31.7610   53.9880 C   0  0  0  0  0  0  0  0  0  0  0  0
   56.9650   31.1080   53.6130 C   0  0  0  0  0  0  0  0  0  0  0  0
   56.0700   30.5450   54.4490 N   0  0  0  0  0  0  0  0  0  0  0  0
   54.2232   29.5095   53.9257 H   0  0  0  0  0  0  0  0  0  0  0  0
   54.8963   30.0398   51.3992 H   0  0  0  0  0  0  0  0  0  0  0  0
   57.0558   31.3483   50.2549 H   0  0  0  0  0  0  0  0  0  0  0  0
   63.5011   35.4772   50.6323 H   0  0  0  0  0  0  0  0  0  0  0  0
   62.6966   34.4470   51.8731 H   0  0  0  0  0  0  0  0  0  0  0  0
   65.1769   34.8111   52.2600 H   0  0  0  0  0  0  0  0  0  0  0  0
   64.6768   33.0806   52.1248 H   0  0  0  0  0  0  0  0  0  0  0  0
   66.0649   32.5428   48.9742 H   0  0  0  0  0  0  0  0  0  0  0  0
   65.1525   31.8751   50.3833 H   0  0  0  0  0  0  0  0  0  0  0  0
   64.1350   33.8338   48.2660 H   0  0  0  0  0  0  0  0  0  0  0  0
   63.5919   32.1395   48.5575 H   0  0  0  0  0  0  0  0  0  0  0  0
   61.5890   34.1940   47.8270 H   0  0  0  0  0  0  0  0  0  0  0  0
   59.1767   36.0096   46.7531 H   0  0  0  0  0  0  0  0  0  0  0  0
   60.7084   35.1097   46.4714 H   0  0  0  0  0  0  0  0  0  0  0  0
   59.5626   35.8807   44.3495 H   0  0  0  0  0  0  0  0  0  0  0  0
   59.8120   34.0940   44.4531 H   0  0  0  0  0  0  0  0  0  0  0  0
   56.4523   33.3030   45.0264 H   0  0  0  0  0  0  0  0  0  0  0  0
   58.1464   32.7139   44.8171 H   0  0  0  0  0  0  0  0  0  0  0  0
   56.9935   34.2095   47.2260 H   0  0  0  0  0  0  0  0  0  0  0  0
   57.5409   32.4972   47.1639 H   0  0  0  0  0  0  0  0  0  0  0  0
   59.8793   32.8065   53.2325 H   0  0  0  0  0  0  0  0  0  0  0  0
   58.4127   31.8637   55.0471 H   0  0  0  0  0  0  0  0  0  0  0  0
  1  2  2  0
  2  3  1  0
  3  4  1  0
  4  5  2  0
  5  6  1  0
  6  7  2  0
  7  8  1  0
  8  9  1  0
  9 10  1  0
 10 11  1  0
 11 12  1  0
 12 13  1  0
 13 14  1  0
  8 15  2  0
 15 16  1  0
 16 17  1  0
 17 18  1  0
 18 19  1  0
 19 20  1  0
 20 21  1  0
 21 22  1  0
 16 23  2  0
  5 24  1  0
 24 25  2  0
 25 26  1  0
 26 27  2  0
 27  1  1  0
 26  3  1  0
 23  6  1  0
 14  9  1  0
 22 17  1  0
  1 28  1  0
  2 29  1  0
  4 30  1  0
 10 31  1  0
 10 32  1  0
 11 33  1  0
 11 34  1  0
 13 35  1  0
 13 36  1  0
 14 37  1  0
 14 38  1  0
 15 39  1  0
 18 40  1  0
 18 41  1  0
 19 42  1  0
 19 43  1  0
 21 44  1  0
 21 45  1  0
 22 46  1  0
 22 47  1  0
 24 48  1  0
 25 49  1  0
M  CHG  1  15   1
M  END
>  <UniqueID>  (81) 
72

>  <SMILES>  (81) 
c1cn2cc(-c3nc(N4CCOCC4)[nH+]c(N4CCOCC4)n3)ccc2n1

>  <Energy>  (81) 
95.96369295732993

>  <Genealogy>  (81) 
c1cn2cc(-c3nc(N4CCOCC4)[nH+]c(N4CCOCC4)n3)ccc2n1 (protonated)
c1cn2cc(-c3nc(N4CCOCC4)[nH+]c(N4CCOCC4)n3)ccc2n1 (3D coordinates assigned)
c1cn2cc(-c3nc(N4CCOCC4)[nH+]c(N4CCOCC4)n3)ccc2n1 (nonaromatic ring conformer: 95.96369295732993 kcal/mol)

>  <smiles>  (81) 
c1cn2cc(-c3nc(N4CCOCC4)nc(N4CCOCC4)n3)ccc2n1

>  <score_type>  (81) 
oracle

>  <origin>  (81) 
adg

>  <m_score__min__energy>  (81) 
-5.1100000000000003

>  <m_primary>  (81) 
energy

$$$$
81:0
     RDKit          3D

 34 34  0  0  0  0  0  0  0  0999 V2000
   55.9090   29.9260   43.7050 C   0  0  0  0  0  0  0  0  0  0  0  0
   56.6400   30.4700   44.8600 N   0  0  0  0  0  0  0  0  0  0  0  0
   57.5410   29.4380   45.4010 C   0  0  0  0  0  0  0  0  0  0  0  0
   57.3930   31.6830   44.4710 C   0  0  0  0  0  0  0  0  0  0  0  0
   58.3860   32.1020   45.5700 C   0  0  0  0  0  0  0  0  0  0  0  0
   58.6150   33.5650   45.5680 N   0  0  0  0  0  0  0  0  0  0  0  0
   57.5280   34.3020   44.8980 C   0  0  0  0  0  0  0  0  0  0  0  0
   58.8830   34.0920   46.9280 C   0  0  0  0  0  0  0  0  0  0  0  0
   60.3410   34.0140   47.3340 C   0  0  0  0  0  0  0  0  0  0  0  0
   61.3410   33.8100   46.3670 C   0  0  0  0  0  0  0  0  0  0  0  0
   62.6840   33.7270   46.7450 C   0  0  0  0  0  0  0  0  0  0  0  0
   63.0410   33.8510   48.0910 C   0  0  0  0  0  0  0  0  0  0  0  0
   62.0560   34.0630   49.0580 C   0  0  0  0  0  0  0  0  0  0  0  0
   60.7120   34.1470   48.6840 C   0  0  0  0  0  0  0  0  0  0  0  0
   55.0736   29.3043   44.0595 H   0  0  0  0  0  0  0  0  0  0  0  0
   55.5172   30.7540   43.0960 H   0  0  0  0  0  0  0  0  0  0  0  0
   56.5896   29.3129   43.0960 H   0  0  0  0  0  0  0  0  0  0  0  0
   57.5148   29.4680   46.5003 H   0  0  0  0  0  0  0  0  0  0  0  0
   57.2140   28.4469   45.0534 H   0  0  0  0  0  0  0  0  0  0  0  0
   58.5671   29.6283   45.0534 H   0  0  0  0  0  0  0  0  0  0  0  0
   57.9496   31.4774   43.5447 H   0  0  0  0  0  0  0  0  0  0  0  0
   56.6757   32.5033   44.3205 H   0  0  0  0  0  0  0  0  0  0  0  0
   57.9814   31.8052   46.5489 H   0  0  0  0  0  0  0  0  0  0  0  0
   59.3466   31.6029   45.3746 H   0  0  0  0  0  0  0  0  0  0  0  0
   56.8676   34.7498   45.6552 H   0  0  0  0  0  0  0  0  0  0  0  0
   57.9567   35.0964   44.2695 H   0  0  0  0  0  0  0  0  0  0  0  0
   56.9487   33.6097   44.2695 H   0  0  0  0  0  0  0  0  0  0  0  0
   58.5692   35.1458   46.9604 H   0  0  0  0  0  0  0  0  0  0  0  0
   58.3184   33.4646   47.6334 H   0  0  0  0  0  0  0  0  0  0  0  0
   61.0647   33.7151   45.3065 H   0  0  0  0  0  0  0  0  0  0  0  0
   63.4605   33.5640   45.9831 H   0  0  0  0  0  0  0  0  0  0  0  0
   64.0978   33.7816   48.3884 H   0  0  0  0  0  0  0  0  0  0  0  0
   62.3386   34.1641   50.1163 H   0  0  0  0  0  0  0  0  0  0  0  0
   59.9406   34.3180   49.4493 H   0  0  0  0  0  0  0  0  0  0  0  0
  1  2  1  0
  2  3  1  0
  2  4  1  0
  4  5  1  0
  5  6  1  0
  6  7  1  0
  6  8  1  0
  8  9  1  0
  9 10  2  0
 10 11  1  0
 11 12  2  0
 12 13  1  0
 13 14  2  0
 14  9  1  0
  1 15  1  0
  1 16  1  0
  1 17  1  0
  3 18  1  0
  3 19  1  0
  3 20  1  0
  4 21  1  0
  4 22  1  0
  5 23  1  0
  5 24  1  0
  7 25  1  0
  7 26  1  0
  7 27  1  0
  8 28  1  0
  8 29  1  0
 10 30  1  0
 11 31  1  0
 12 32  1  0
 13 33  1  0
 14 34  1  0
M  END
>  <UniqueID>  (82) 
73

>  <SMILES>  (82) 
CN(C)CCN(C)Cc1ccccc1

>  <Energy>  (82) 
35.11769789668457

>  <Genealogy>  (82) 
CN(C)CCN(C)Cc1ccccc1 (3D coordinates assigned)
CN(C)CCN(C)Cc1ccccc1 (optimized conformer: 35.11769789668457 kcal/mol)

>  <smiles>  (82) 
CN(C)CCN(C)Cc1ccccc1

>  <score_type>  (82) 
oracle

>  <origin>  (82) 
adg

>  <m_score__min__energy>  (82) 
-5.4100000000000001

>  <m_primary>  (82) 
energy

$$$$
82:0
     RDKit          3D

 39 40  0  0  0  0  0  0  0  0999 V2000
   57.3310   31.2070   42.6620 C   0  0  0  0  0  0  0  0  0  0  0  0
   56.9850   31.0360   44.1160 C   0  0  0  0  0  0  0  0  0  0  0  0
   57.0210   32.1220   44.9160 C   0  0  0  0  0  0  0  0  0  0  0  0
   58.1960   32.5430   45.7060 C   0  0  0  0  0  0  0  0  0  0  0  0
   58.6080   31.8150   46.8330 C   0  0  0  0  0  0  0  0  0  0  0  0
   59.7380   32.2130   47.5510 C   0  0  0  0  0  0  0  0  0  0  0  0
   60.4610   33.3500   47.1710 C   0  0  0  0  0  0  0  0  0  0  0  0
   61.5960   33.6890   47.9220 O   0  0  0  0  0  0  0  0  0  0  0  0
   63.2000   33.2150   47.5590 S   0  0  0  0  0  0  0  0  0  0  0  0
   64.2370   33.3890   48.9950 C   0  0  0  0  0  0  0  0  0  0  0  0
   63.1930   31.7700   47.1450 O   0  0  0  0  0  0  0  0  0  0  0  0
   63.7420   34.0430   46.4280 O   0  0  0  0  0  0  0  0  0  0  0  0
   60.0270   34.0960   46.0580 C   0  0  0  0  0  0  0  0  0  0  0  0
   58.8940   33.7000   45.3410 C   0  0  0  0  0  0  0  0  0  0  0  0
   56.5920   29.6830   44.5970 C   0  0  0  0  0  0  0  0  0  0  0  0
   55.3860   29.3300   44.5000 O   0  0  0  0  0  0  0  0  0  0  0  0
   57.5930   28.7060   45.0910 C   0  0  0  0  0  0  0  0  0  0  0  0
   58.9620   28.9910   44.9270 C   0  0  0  0  0  0  0  0  0  0  0  0
   59.9340   28.0930   45.3740 C   0  0  0  0  0  0  0  0  0  0  0  0
   59.5550   26.8960   45.9830 C   0  0  0  0  0  0  0  0  0  0  0  0
   60.5240   26.0050   46.4250 O   0  0  0  0  0  0  0  0  0  0  0  0
   58.2010   26.5970   46.1500 C   0  0  0  0  0  0  0  0  0  0  0  0
   57.2140   27.4950   45.7220 C   0  0  0  0  0  0  0  0  0  0  0  0
   55.8790   27.1670   45.9720 O   0  0  0  0  0  0  0  0  0  0  0  0
   58.3140   31.6928   42.5737 H   0  0  0  0  0  0  0  0  0  0  0  0
   57.3640   30.2214   42.1746 H   0  0  0  0  0  0  0  0  0  0  0  0
   56.5681   31.8318   42.1746 H   0  0  0  0  0  0  0  0  0  0  0  0
   56.1115   32.7370   44.9847 H   0  0  0  0  0  0  0  0  0  0  0  0
   58.0396   30.9288   47.1516 H   0  0  0  0  0  0  0  0  0  0  0  0
   60.0630   31.6274   48.4236 H   0  0  0  0  0  0  0  0  0  0  0  0
   63.6254   33.2864   49.9035 H   0  0  0  0  0  0  0  0  0  0  0  0
   65.0119   32.6083   48.9845 H   0  0  0  0  0  0  0  0  0  0  0  0
   64.7146   34.3798   48.9845 H   0  0  0  0  0  0  0  0  0  0  0  0
   60.5823   34.9947   45.7513 H   0  0  0  0  0  0  0  0  0  0  0  0
   58.5495   34.3004   44.4861 H   0  0  0  0  0  0  0  0  0  0  0  0
   59.2690   29.9296   44.4423 H   0  0  0  0  0  0  0  0  0  0  0  0
   61.0005   28.3299   45.2457 H   0  0  0  0  0  0  0  0  0  0  0  0
   57.9066   25.6479   46.6218 H   0  0  0  0  0  0  0  0  0  0  0  0
   55.1360   27.8510   45.9980 H   0  0  0  0  0  0  0  0  0  0  0  0
  1  2  1  0
  2  3  2  3
  3  4  1  0
  4  5  2  0
  5  6  1  0
  6  7  2  0
  7  8  1  0
  8  9  1  0
  9 10  1  0
  9 11  2  0
  9 12  2  0
  7 13  1  0
 13 14  2  0
  2 15  1  0
 15 16  2  0
 15 17  1  0
 17 18  2  0
 18 19  1  0
 19 20  2  0
 20 21  1  0
 20 22  1  0
 22 23  2  0
 23 24  1  0
 14  4  1  0
 23 17  1  0
  1 25  1  0
  1 26  1  0
  1 27  1  0
  3 28  1  0
  5 29  1  0
  6 30  1  0
 10 31  1  0
 10 32  1  0
 10 33  1  0
 13 34  1  0
 14 35  1  0
 18 36  1  0
 19 37  1  0
 22 38  1  0
 24 39  1  0
M  CHG  1  21  -1
M  END
>  <UniqueID>  (83) 
74

>  <SMILES>  (83) 
CC(=Cc1ccc(OS(C)(=O)=O)cc1)C(=O)c1ccc([O-])cc1O

>  <Energy>  (83) 
47.815319081667525

>  <Genealogy>  (83) 
CC(=Cc1ccc(OS(C)(=O)=O)cc1)C(=O)c1ccc([O-])cc1O (protonated)
CC(=Cc1ccc(OS(C)(=O)=O)cc1)C(=O)c1ccc([O-])cc1O (3D coordinates assigned)
CC(=Cc1ccc(OS(C)(=O)=O)cc1)C(=O)c1ccc([O-])cc1O (optimized conformer: 47.815319081667525 kcal/mol)

>  <smiles>  (83) 
CC(=Cc1ccc(OS(C)(=O)=O)cc1)C(=O)c1ccc(O)cc1O

>  <score_type>  (83) 
oracle

>  <origin>  (83) 
adg

>  <m_score__min__energy>  (83) 
-10.49

>  <m_primary>  (83) 
energy

$$$$
83:0
     RDKit          3D

 60 64  0  0  1  0  0  0  0  0999 V2000
   63.1700   25.3610   51.9260 C   0  0  0  0  0  0  0  0  0  0  0  0
   61.8100   25.7190   51.6210 N   0  0  0  0  0  0  0  0  0  0  0  0
   61.5560   27.4230   51.7620 S   0  0  0  0  0  0  0  0  0  0  0  0
   60.6760   27.7400   52.9320 O   0  0  0  0  0  0  0  0  0  0  0  0
   62.9160   28.0340   52.0190 O   0  0  0  0  0  0  0  0  0  0  0  0
   60.8860   28.0240   50.2710 C   0  0  0  0  0  0  0  0  0  0  0  0
   60.6170   27.1120   49.2720 C   0  0  0  0  0  0  0  0  0  0  0  0
   60.0870   27.5890   48.0930 C   0  0  0  0  0  0  0  0  0  0  0  0
   59.8170   28.9300   47.8770 C   0  0  0  0  0  0  0  0  0  0  0  0
   59.2550   29.4190   46.6250 C   0  0  0  0  0  0  0  0  0  0  0  0
   58.9290   28.5850   45.5970 C   0  0  0  0  0  0  0  0  0  0  0  0
   58.3960   28.9770   44.3950 C   0  0  0  0  0  0  0  0  0  0  0  0
   58.1720   30.3110   44.2090 C   0  0  0  0  0  0  0  0  0  0  0  0
   57.6480   30.6850   43.0270 N   0  0  0  0  0  0  0  0  0  0  0  0
   57.4140   31.9860   42.8110 C   0  0  0  0  0  0  0  0  0  0  0  0
   57.6950   32.8880   43.7480 N   0  0  0  0  0  0  0  0  0  0  0  0
   58.2280   32.5180   44.9490 C   0  0  0  0  0  0  0  0  0  0  0  0
   58.4620   33.4110   45.7650 N   0  0  0  0  0  0  0  0  0  0  0  0
   59.4060   33.5900   46.7150 C   0  0  0  0  0  0  0  0  0  0  0  0
   59.0580   33.9260   48.0410 C   0  0  0  0  0  0  0  0  0  0  0  0
   60.0710   34.2060   48.9360 C   0  0  0  0  0  0  0  0  0  0  0  0
   61.4070   34.1770   48.6140 C   0  0  0  0  0  0  0  0  0  0  0  0
   62.4510   34.4390   49.4400 O   0  0  0  0  0  0  0  0  0  0  0  0
   62.8310   33.9400   50.6700 C   0  0  0  0  0  0  0  0  0  0  0  0
   63.9590   33.0060   50.7010 C   0  0  0  0  0  0  0  0  0  0  0  0
   65.2530   33.2910   50.3310 C   0  0  0  0  0  0  0  0  0  0  0  0
   66.2640   32.3330   50.4190 C   0  0  0  0  0  0  0  0  0  0  0  0
   66.0050   31.0550   50.8810 C   0  0  0  0  0  0  0  0  0  0  0  0
   64.7110   30.7650   51.2510 C   0  0  0  0  0  0  0  0  0  0  0  0
   63.7200   31.7210   51.1610 C   0  0  0  0  0  0  0  0  0  0  0  0
   62.4670   31.3500   51.5500 F   0  0  0  0  0  0  0  0  0  0  0  0
   61.7250   33.8410   47.2910 C   0  0  0  0  0  0  0  0  0  0  0  0
   63.4040   33.7760   46.7760 Cl  0  0  0  0  0  0  0  0  0  0  0  0
   60.7710   33.5500   46.3490 C   0  0  0  0  0  0  0  0  0  0  0  0
   58.4840   31.2060   45.2190 C   0  0  0  0  0  0  0  0  0  0  0  0
   59.0140   30.7890   46.4060 C   0  0  0  0  0  0  0  0  0  0  0  0
   60.0910   29.8030   48.8770 C   0  0  0  0  0  0  0  0  0  0  0  0
   60.6210   29.3780   50.0720 C   0  0  0  0  0  0  0  0  0  0  0  0
   63.3040   25.3257   53.0172 H   0  0  0  0  0  0  0  0  0  0  0  0
   63.3942   24.3732   51.4969 H   0  0  0  0  0  0  0  0  0  0  0  0
   63.8515   26.1104   51.4969 H   0  0  0  0  0  0  0  0  0  0  0  0
   61.1870   25.2090   52.2760 H   0  0  0  0  0  0  0  0  0  0  0  0
   60.8188   26.0397   49.4118 H   0  0  0  0  0  0  0  0  0  0  0  0
   59.8686   26.8726   47.2873 H   0  0  0  0  0  0  0  0  0  0  0  0
   59.1080   27.5095   45.7432 H   0  0  0  0  0  0  0  0  0  0  0  0
   58.1580   28.2438   43.6103 H   0  0  0  0  0  0  0  0  0  0  0  0
   57.4190   29.9920   42.2750 H   0  0  0  0  0  0  0  0  0  0  0  0
   56.9861   32.3114   41.8513 H   0  0  0  0  0  0  0  0  0  0  0  0
   58.0041   33.9638   48.3539 H   0  0  0  0  0  0  0  0  0  0  0  0
   59.7927   34.4677   49.9675 H   0  0  0  0  0  0  0  0  0  0  0  0
   63.0955   34.7975   51.3062 H   0  0  0  0  0  0  0  0  0  0  0  0
   61.9683   33.3494   51.0119 H   0  0  0  0  0  0  0  0  0  0  0  0
   65.4963   34.2966   49.9574 H   0  0  0  0  0  0  0  0  0  0  0  0
   67.2871   32.5994   50.1150 H   0  0  0  0  0  0  0  0  0  0  0  0
   66.8019   30.2999   50.9500 H   0  0  0  0  0  0  0  0  0  0  0  0
   64.4642   29.7595   51.6227 H   0  0  0  0  0  0  0  0  0  0  0  0
   61.0645   33.2888   45.3216 H   0  0  0  0  0  0  0  0  0  0  0  0
   59.2525   31.5223   47.1904 H   0  0  0  0  0  0  0  0  0  0  0  0
   59.8850   30.8734   48.7293 H   0  0  0  0  0  0  0  0  0  0  0  0
   60.8355   30.1047   50.8694 H   0  0  0  0  0  0  0  0  0  0  0  0
  1  2  1  0
  2  3  1  0
  3  4  2  0
  3  5  2  0
  3  6  1  0
  6  7  2  0
  7  8  1  0
  8  9  2  0
  9 10  1  0
 10 11  2  0
 11 12  1  0
 12 13  2  0
 13 14  1  0
 14 15  1  0
 15 16  2  0
 16 17  1  0
 17 18  2  0
 18 19  1  0
 19 20  2  0
 20 21  1  0
 21 22  2  0
 22 23  1  0
 23 24  1  0
 24 25  1  0
 25 26  2  0
 26 27  1  0
 27 28  2  0
 28 29  1  0
 29 30  2  0
 30 31  1  0
 22 32  1  0
 32 33  1  0
 32 34  2  0
 17 35  1  0
 35 36  2  0
  9 37  1  0
 37 38  2  0
 38  6  1  0
 36 10  1  0
 35 13  1  0
 34 19  1  0
 30 25  1  0
  1 39  1  0
  1 40  1  0
  1 41  1  0
  2 42  1  0
  7 43  1  0
  8 44  1  0
 11 45  1  0
 12 46  1  0
 14 47  1  0
 15 48  1  0
 20 49  1  0
 21 50  1  0
 24 51  1  0
 24 52  1  0
 26 53  1  0
 27 54  1  0
 28 55  1  0
 29 56  1  0
 34 57  1  0
 36 58  1  0
 37 59  1  0
 38 60  1  0
M  END
>  <smiles>  (84) 
CNS(=O)(=O)c1ccc(-c2ccc3[nH]cnc(=Nc4ccc(OCc5ccccc5F)c(Cl)c4)c3c2)cc1

>  <score_type>  (84) 
oracle

>  <origin>  (84) 
adg

>  <m_score__min__energy>  (84) 
-10.199999999999999

>  <m_primary>  (84) 
energy

$$$$
84:0
     RDKit          3D

 54 57  0  0  0  0  0  0  0  0999 V2000
   56.7991   32.5175   43.9693 H   0  0  0  0  0  0  0  0  0  0  0  0
   57.1070   31.4650   44.0550 C   0  0  0  0  0  0  0  0  0  0  0  0
   56.1410   30.4570   44.1200 C   0  0  0  0  0  0  0  0  0  0  0  0
   55.0728   30.7170   44.0837 H   0  0  0  0  0  0  0  0  0  0  0  0
   56.5300   29.1190   44.2310 C   0  0  0  0  0  0  0  0  0  0  0  0
   55.7662   28.3287   44.2755 H   0  0  0  0  0  0  0  0  0  0  0  0
   57.8920   28.7790   44.2860 C   0  0  0  0  0  0  0  0  0  0  0  0
   58.3060   27.3520   44.5330 C   0  0  0  0  0  0  0  0  0  0  0  0
   59.3900   27.2578   44.3717 H   0  0  0  0  0  0  0  0  0  0  0  0
   57.7576   26.7000   43.8372 H   0  0  0  0  0  0  0  0  0  0  0  0
   57.9870   26.9480   45.9070 N   0  0  0  0  0  0  0  0  0  0  0  0
   58.5950   27.6120   47.0200 C   0  0  0  0  0  0  0  0  0  0  0  0
   59.4550   26.9200   47.8740 C   0  0  0  0  0  0  0  0  0  0  0  0
   59.6705   25.8552   47.7016 H   0  0  0  0  0  0  0  0  0  0  0  0
   60.0390   27.5920   48.9490 C   0  0  0  0  0  0  0  0  0  0  0  0
   61.1270   26.7330   50.0260 Cl  0  0  0  0  0  0  0  0  0  0  0  0
   59.7760   28.9140   49.1570 N   0  0  0  0  0  0  0  0  0  0  0  0
   60.2380   29.3990   49.9610 H   0  0  0  0  0  0  0  0  0  0  0  0
   58.9350   29.6180   48.3460 C   0  0  0  0  0  0  0  0  0  0  0  0
   58.7580   30.8920   48.5690 N   0  0  0  0  0  0  0  0  0  0  0  0
   59.2990   31.9700   47.7850 C   0  0  0  0  0  0  0  0  0  0  0  0
   58.4370   32.7950   47.0470 C   0  0  0  0  0  0  0  0  0  0  0  0
   57.3492   32.6445   47.1112 H   0  0  0  0  0  0  0  0  0  0  0  0
   58.9490   33.8040   46.2330 C   0  0  0  0  0  0  0  0  0  0  0  0
   58.2663   34.4409   45.6513 H   0  0  0  0  0  0  0  0  0  0  0  0
   60.3250   34.0060   46.1560 C   0  0  0  0  0  0  0  0  0  0  0  0
   60.7258   34.7925   45.4997 H   0  0  0  0  0  0  0  0  0  0  0  0
   61.2010   33.2150   46.9080 C   0  0  0  0  0  0  0  0  0  0  0  0
   62.9300   33.5030   46.7410 Cl  0  0  0  0  0  0  0  0  0  0  0  0
   60.6930   32.2060   47.7570 C   0  0  0  0  0  0  0  0  0  0  0  0
   61.6360   31.3350   48.5490 C   0  0  0  0  0  0  0  0  0  0  0  0
   61.4652   31.4927   49.6241 H   0  0  0  0  0  0  0  0  0  0  0  0
   61.4558   30.2788   48.3002 H   0  0  0  0  0  0  0  0  0  0  0  0
   62.6746   31.5983   48.3002 H   0  0  0  0  0  0  0  0  0  0  0  0
   58.3210   28.9600   47.2630 C   0  0  0  0  0  0  0  0  0  0  0  0
   57.6261   29.5071   46.6089 H   0  0  0  0  0  0  0  0  0  0  0  0
   56.7730   25.7460   46.2200 S   0  0  0  0  0  0  0  0  0  0  0  0
   56.8660   25.2860   47.6480 O   0  0  0  0  0  0  0  0  0  0  0  0
   55.4060   26.3350   46.0070 O   0  0  0  0  0  0  0  0  0  0  0  0
   57.0020   24.3910   45.1210 C   0  0  0  0  0  0  0  0  0  0  0  0
   56.0690   24.1230   44.1090 C   0  0  0  0  0  0  0  0  0  0  0  0
   55.2004   24.7843   43.9738 H   0  0  0  0  0  0  0  0  0  0  0  0
   56.2410   23.0160   43.2710 C   0  0  0  0  0  0  0  0  0  0  0  0
   55.5052   22.8052   42.4810 H   0  0  0  0  0  0  0  0  0  0  0  0
   57.3480   22.1770   43.4370 C   0  0  0  0  0  0  0  0  0  0  0  0
   57.4816   21.3057   42.7789 H   0  0  0  0  0  0  0  0  0  0  0  0
   58.2840   22.4460   44.4390 C   0  0  0  0  0  0  0  0  0  0  0  0
   59.1566   21.7884   44.5664 H   0  0  0  0  0  0  0  0  0  0  0  0
   58.1130   23.5500   45.2800 C   0  0  0  0  0  0  0  0  0  0  0  0
   58.8515   23.7593   46.0680 H   0  0  0  0  0  0  0  0  0  0  0  0
   58.8580   29.7980   44.2180 C   0  0  0  0  0  0  0  0  0  0  0  0
   59.9273   29.5432   44.2585 H   0  0  0  0  0  0  0  0  0  0  0  0
   58.4640   31.1350   44.0990 C   0  0  0  0  0  0  0  0  0  0  0  0
   59.2240   31.9281   44.0400 H   0  0  0  0  0  0  0  0  0  0  0  0
  1  2  1  0
  2  3  2  0
  3  4  1  0
  3  5  1  0
  5  6  1  0
  5  7  2  0
  7  8  1  0
  8  9  1  0
  8 10  1  0
  8 11  1  0
 11 12  1  0
 12 13  1  0
 13 14  1  0
 13 15  2  0
 15 16  1  0
 15 17  1  0
 17 18  1  0
 17 19  1  0
 19 20  2  0
 20 21  1  0
 21 22  2  0
 22 23  1  0
 22 24  1  0
 24 25  1  0
 24 26  2  0
 26 27  1  0
 26 28  1  0
 28 29  1  0
 28 30  2  0
 30 31  1  0
 31 32  1  0
 31 33  1  0
 31 34  1  0
 19 35  1  0
 35 36  1  0
 11 37  1  0
 37 38  2  0
 37 39  2  0
 37 40  1  0
 40 41  2  0
 41 42  1  0
 41 43  1  0
 43 44  1  0
 43 45  2  0
 45 46  1  0
 45 47  1  0
 47 48  1  0
 47 49  2  0
 49 50  1  0
  7 51  1  0
 51 52  1  0
 51 53  2  0
 53 54  1  0
 53  2  1  0
 35 12  2  0
 49 40  1  0
 30 21  1  0
M  END
>  <UniqueID>  (85) 
75

>  <SMILES>  (85) 
Cc1c(Cl)cccc1/N=c1\cc(N(Cc2ccccc2)S(=O)(=O)c2ccccc2)cc(Cl)[nH]1

>  <Energy>  (85) 
69.02846713283702

>  <Genealogy>  (85) 
Cc1c(Cl)cccc1/N=c1\cc(N(Cc2ccccc2)S(=O)(=O)c2ccccc2)cc(Cl)[nH]1 (cis-trans isomerization)
Cc1c(Cl)cccc1/N=c1\cc(N(Cc2ccccc2)S(=O)(=O)c2ccccc2)cc(Cl)[nH]1 (3D coordinates assigned)
Cc1c(Cl)cccc1/N=c1\cc(N(Cc2ccccc2)S(=O)(=O)c2ccccc2)cc(Cl)[nH]1 (optimized conformer: 69.02846713283702 kcal/mol)

>  <smiles>  (85) 
Cc1c(Cl)cccc1N=c1cc(N(Cc2ccccc2)S(=O)(=O)c2ccccc2)cc(Cl)[nH]1

>  <score_type>  (85) 
oracle

>  <origin>  (85) 
adg

>  <m_score__min__energy>  (85) 
-10.109999999999999

>  <m_primary>  (85) 
energy

$$$$
85:0
     RDKit          3D

 30 31  0  0  0  0  0  0  0  0999 V2000
   57.2712   30.7161   43.4347 H   0  0  0  0  0  0  0  0  0  0  0  0
   57.4960   30.6080   44.5060 C   0  0  0  0  0  0  0  0  0  0  0  0
   57.6790   31.6710   45.2310 N   0  0  0  0  0  0  0  0  0  0  0  0
   58.2490   31.6500   46.4930 O   0  0  0  0  0  0  0  0  0  0  0  0
   59.4670   32.2650   46.8180 C   0  0  0  0  0  0  0  0  0  0  0  0
   59.5710   33.6560   46.9980 C   0  0  0  0  0  0  0  0  0  0  0  0
   58.6780   34.2900   46.8953 H   0  0  0  0  0  0  0  0  0  0  0  0
   60.8050   34.2360   47.3070 C   0  0  0  0  0  0  0  0  0  0  0  0
   60.8793   35.3235   47.4551 H   0  0  0  0  0  0  0  0  0  0  0  0
   61.9450   33.4350   47.4280 C   0  0  0  0  0  0  0  0  0  0  0  0
   62.9143   33.8914   47.6773 H   0  0  0  0  0  0  0  0  0  0  0  0
   61.8520   32.0540   47.2320 C   0  0  0  0  0  0  0  0  0  0  0  0
   62.9570   31.2770   47.3400 F   0  0  0  0  0  0  0  0  0  0  0  0
   60.6170   31.4720   46.9220 C   0  0  0  0  0  0  0  0  0  0  0  0
   60.5494   30.3862   46.7592 H   0  0  0  0  0  0  0  0  0  0  0  0
   57.5850   29.2540   45.0980 C   0  0  0  0  0  0  0  0  0  0  0  0
   58.8250   28.7250   45.4990 C   0  0  0  0  0  0  0  0  0  0  0  0
   59.7399   29.3227   45.3736 H   0  0  0  0  0  0  0  0  0  0  0  0
   58.9030   27.4470   46.0550 C   0  0  0  0  0  0  0  0  0  0  0  0
   60.5960   26.7430   46.5950 Br  0  0  0  0  0  0  0  0  0  0  0  0
   57.7470   26.6800   46.2180 C   0  0  0  0  0  0  0  0  0  0  0  0
   57.8144   25.6736   46.6568 H   0  0  0  0  0  0  0  0  0  0  0  0
   56.4970   27.1900   45.8230 C   0  0  0  0  0  0  0  0  0  0  0  0
   55.3110   26.4540   45.9680 O   0  0  0  0  0  0  0  0  0  0  0  0
   55.1860   25.0630   45.6900 C   0  0  0  0  0  0  0  0  0  0  0  0
   55.1357   24.5032   46.6356 H   0  0  0  0  0  0  0  0  0  0  0  0
   54.2683   24.8860   45.1098 H   0  0  0  0  0  0  0  0  0  0  0  0
   56.0574   24.7253   45.1098 H   0  0  0  0  0  0  0  0  0  0  0  0
   56.4220   28.4750   45.2640 C   0  0  0  0  0  0  0  0  0  0  0  0
   55.1810   28.9730   44.8740 O   0  0  0  0  0  0  0  0  0  0  0  0
  1  2  1  0
  2  3  2  0
  3  4  1  0
  4  5  1  0
  5  6  2  0
  6  7  1  0
  6  8  1  0
  8  9  1  0
  8 10  2  0
 10 11  1  0
 10 12  1  0
 12 13  1  0
 12 14  2  0
 14 15  1  0
  2 16  1  0
 16 17  2  0
 17 18  1  0
 17 19  1  0
 19 20  1  0
 19 21  2  0
 21 22  1  0
 21 23  1  0
 23 24  1  0
 24 25  1  0
 25 26  1  0
 25 27  1  0
 25 28  1  0
 23 29  2  0
 29 30  1  0
 14  5  1  0
 29 16  1  0
M  CHG  1  30  -1
M  END
>  <UniqueID>  (86) 
76

>  <SMILES>  (86) 
COc1cc(Br)cc(/C=N/Oc2cccc(F)c2)c1[O-]

>  <Energy>  (86) 
38.113752171370564

>  <Genealogy>  (86) 
COc1cc(Br)cc(C=NOc2cccc(F)c2)c1[O-] (protonated)
COc1cc(Br)cc(/C=N/Oc2cccc(F)c2)c1[O-] (cis-trans isomerization)
COc1cc(Br)cc(/C=N/Oc2cccc(F)c2)c1[O-] (3D coordinates assigned)
COc1cc(Br)cc(/C=N/Oc2cccc(F)c2)c1[O-] (optimized conformer: 38.113752171370564 kcal/mol)

>  <smiles>  (86) 
COc1cc(Br)cc(C=NOc2cccc(F)c2)c1O

>  <score_type>  (86) 
oracle

>  <origin>  (86) 
adg

>  <m_score__min__energy>  (86) 
-12.35

>  <m_primary>  (86) 
energy

$$$$
86:0
     RDKit          3D

 44 46  0  0  0  0  0  0  0  0999 V2000
   61.3380   30.8550   47.1030 C   0  0  0  0  0  0  0  0  0  0  0  0
   60.1350   31.7830   48.1040 S   0  0  0  0  0  0  0  0  0  0  0  0
   59.2090   32.3500   46.6770 C   0  0  0  0  0  0  0  0  0  0  0  0
   59.5890   33.5230   46.0160 C   0  0  0  0  0  0  0  0  0  0  0  0
   58.8690   33.9610   44.9010 C   0  0  0  0  0  0  0  0  0  0  0  0
   57.7780   33.2230   44.4370 C   0  0  0  0  0  0  0  0  0  0  0  0
   57.4060   32.0310   45.0820 C   0  0  0  0  0  0  0  0  0  0  0  0
   56.3100   31.2390   44.6100 N   0  0  0  0  0  0  0  0  0  0  0  0
   56.2550   29.8060   44.5980 C   0  0  0  0  0  0  0  0  0  0  0  0
   55.1640   29.2400   44.8660 O   0  0  0  0  0  0  0  0  0  0  0  0
   57.4640   28.9530   44.3040 C   0  0  0  0  0  0  0  0  0  0  0  0
   58.2780   28.7350   45.5180 N   0  0  0  0  0  0  0  0  0  0  0  0
   59.6140   28.2130   45.2220 C   0  0  0  0  0  0  0  0  0  0  0  0
   60.0950   27.4870   46.4750 C   0  0  0  0  0  0  0  0  0  0  0  0
   58.8940   27.4260   47.4070 C   0  0  0  0  0  0  0  0  0  0  0  0
   57.7070   27.8540   46.5510 C   0  0  2  0  0  0  0  0  0  0  0  0
   57.0040   26.6400   45.9820 C   0  0  0  0  0  0  0  0  0  0  0  0
   57.5800   25.6900   45.1610 C   0  0  0  0  0  0  0  0  0  0  0  0
   56.5910   24.7630   44.9080 C   0  0  0  0  0  0  0  0  0  0  0  0
   55.4770   25.2100   45.5930 C   0  0  0  0  0  0  0  0  0  0  0  0
   54.1490   24.5340   45.6230 C   0  0  0  0  0  0  0  0  0  0  0  0
   55.7510   26.3280   46.2240 O   0  0  0  0  0  0  0  0  0  0  0  0
   58.1080   31.6160   46.2200 C   0  0  0  0  0  0  0  0  0  0  0  0
   62.0322   30.3195   47.7673 H   0  0  0  0  0  0  0  0  0  0  0  0
   60.8060   30.1311   46.4683 H   0  0  0  0  0  0  0  0  0  0  0  0
   61.9031   31.5534   46.4683 H   0  0  0  0  0  0  0  0  0  0  0  0
   60.4542   34.1004   46.3737 H   0  0  0  0  0  0  0  0  0  0  0  0
   59.1623   34.8888   44.3880 H   0  0  0  0  0  0  0  0  0  0  0  0
   57.2084   33.5755   43.5645 H   0  0  0  0  0  0  0  0  0  0  0  0
   57.1294   27.9789   43.9177 H   0  0  0  0  0  0  0  0  0  0  0  0
   58.0840   29.4755   43.5606 H   0  0  0  0  0  0  0  0  0  0  0  0
   59.5674   27.5136   44.3742 H   0  0  0  0  0  0  0  0  0  0  0  0
   60.3027   29.0264   44.9500 H   0  0  0  0  0  0  0  0  0  0  0  0
   60.4355   26.4720   46.2224 H   0  0  0  0  0  0  0  0  0  0  0  0
   60.9439   28.0070   46.9429 H   0  0  0  0  0  0  0  0  0  0  0  0
   58.7493   26.4030   47.7845 H   0  0  0  0  0  0  0  0  0  0  0  0
   59.0219   28.0721   48.2880 H   0  0  0  0  0  0  0  0  0  0  0  0
   56.9324   28.3887   47.1203 H   0  0  0  0  0  0  0  0  0  0  0  0
   58.6142   25.6759   44.7864 H   0  0  0  0  0  0  0  0  0  0  0  0
   56.6719   23.8567   44.2899 H   0  0  0  0  0  0  0  0  0  0  0  0
   53.8409   24.3772   46.6673 H   0  0  0  0  0  0  0  0  0  0  0  0
   53.4056   25.1634   45.1119 H   0  0  0  0  0  0  0  0  0  0  0  0
   54.2204   23.5626   45.1119 H   0  0  0  0  0  0  0  0  0  0  0  0
   57.7931   30.7093   46.7573 H   0  0  0  0  0  0  0  0  0  0  0  0
  1  2  1  0
  2  3  1  0
  3  4  2  0
  4  5  1  0
  5  6  2  0
  6  7  1  0
  7  8  1  0
  8  9  1  0
  9 10  2  0
  9 11  1  0
 11 12  1  0
 12 13  1  0
 13 14  1  0
 14 15  1  0
 15 16  1  0
 16 17  1  0
 17 18  2  0
 18 19  1  0
 19 20  2  0
 20 21  1  0
 20 22  1  0
  7 23  2  0
 23  3  1  0
 16 12  1  0
 22 17  1  0
  1 24  1  0
  1 25  1  0
  1 26  1  0
  4 27  1  0
  5 28  1  0
  6 29  1  0
 11 30  1  0
 11 31  1  0
 13 32  1  0
 13 33  1  0
 14 34  1  0
 14 35  1  0
 15 36  1  0
 15 37  1  0
 16 38  1  1
 18 39  1  0
 19 40  1  0
 21 41  1  0
 21 42  1  0
 21 43  1  0
 23 44  1  0
M  CHG  1   8  -1
M  END
>  <UniqueID>  (87) 
77

>  <SMILES>  (87) 
CSc1cccc([N-]C(=O)CN2CCC[C@@H]2c2ccc(C)o2)c1

>  <Energy>  (87) 
73.46001016590886

>  <Genealogy>  (87) 
CSc1cccc([N-]C(=O)CN2CCCC2c2ccc(C)o2)c1 (protonated)
CSc1cccc([N-]C(=O)CN2CCC[C@@H]2c2ccc(C)o2)c1 (chirality)
CSc1cccc([N-]C(=O)CN2CCC[C@@H]2c2ccc(C)o2)c1 (3D coordinates assigned)
CSc1cccc([N-]C(=O)CN2CCC[C@@H]2c2ccc(C)o2)c1 (nonaromatic ring conformer: 73.46001016590886 kcal/mol)

>  <smiles>  (87) 
CSc1cccc(NC(=O)CN2CCCC2c2ccc(C)o2)c1

>  <score_type>  (87) 
oracle

>  <origin>  (87) 
adg

>  <m_score__min__energy>  (87) 
-10.16

>  <m_primary>  (87) 
energy

$$$$
87:0
     RDKit          3D

 27 28  0  0  0  0  0  0  0  0999 V2000
   58.9828   34.8959   44.5135 H   0  0  0  0  0  0  0  0  0  0  0  0
   58.5660   33.8780   44.5000 C   0  0  0  0  0  0  0  0  0  0  0  0
   57.9570   33.0410   45.8290 S   0  0  0  0  0  0  0  0  0  0  0  0
   57.5730   31.6680   44.9250 C   0  0  0  0  0  0  0  0  0  0  0  0
   57.0260   30.5720   45.3650 N   0  0  0  0  0  0  0  0  0  0  0  0
   56.3640   29.5510   44.6000 C   0  0  0  0  0  0  0  0  0  0  0  0
   56.1320   29.7080   43.3720 O   0  0  0  0  0  0  0  0  0  0  0  0
   55.8920   28.3620   45.2410 N   0  0  0  0  0  0  0  0  0  0  0  0
   56.7070   27.2960   45.7530 C   0  0  0  0  0  0  0  0  0  0  0  0
   58.1050   27.4210   45.8450 C   0  0  0  0  0  0  0  0  0  0  0  0
   58.5915   28.3588   45.5388 H   0  0  0  0  0  0  0  0  0  0  0  0
   58.8790   26.3610   46.3230 C   0  0  0  0  0  0  0  0  0  0  0  0
   59.9707   26.4698   46.4031 H   0  0  0  0  0  0  0  0  0  0  0  0
   58.2680   25.1640   46.6990 C   0  0  0  0  0  0  0  0  0  0  0  0
   58.8781   24.3338   47.0844 H   0  0  0  0  0  0  0  0  0  0  0  0
   56.8840   25.0180   46.5870 C   0  0  0  0  0  0  0  0  0  0  0  0
   56.4089   24.0688   46.8755 H   0  0  0  0  0  0  0  0  0  0  0  0
   56.0920   26.0810   46.1060 C   0  0  0  0  0  0  0  0  0  0  0  0
   54.6990   25.9700   45.9720 O   0  0  0  0  0  0  0  0  0  0  0  0
   54.0170   24.7730   45.6100 C   0  0  0  0  0  0  0  0  0  0  0  0
   53.7110   24.2359   46.5199 H   0  0  0  0  0  0  0  0  0  0  0  0
   53.1263   25.0240   45.0153 H   0  0  0  0  0  0  0  0  0  0  0  0
   54.6870   24.1348   45.0153 H   0  0  0  0  0  0  0  0  0  0  0  0
   57.9000   31.8390   43.6260 N   0  0  0  0  0  0  0  0  0  0  0  0
   57.7470   31.1180   42.8850 H   0  0  0  0  0  0  0  0  0  0  0  0
   58.4500   33.0580   43.3830 C   0  0  0  0  0  0  0  0  0  0  0  0
   58.7778   33.3714   42.3808 H   0  0  0  0  0  0  0  0  0  0  0  0
  1  2  1  0
  2  3  1  0
  3  4  1  0
  4  5  2  0
  5  6  1  0
  6  7  2  0
  6  8  1  0
  8  9  1  0
  9 10  2  0
 10 11  1  0
 10 12  1  0
 12 13  1  0
 12 14  2  0
 14 15  1  0
 14 16  1  0
 16 17  1  0
 16 18  2  0
 18 19  1  0
 19 20  1  0
 20 21  1  0
 20 22  1  0
 20 23  1  0
  4 24  1  0
 24 25  1  0
 24 26  1  0
 26 27  1  0
 26  2  2  0
 18  9  1  0
M  CHG  1   8  -1
M  END
>  <UniqueID>  (88) 
78

>  <SMILES>  (88) 
COc1ccccc1[N-]C(=O)/N=c1/[nH]ccs1

>  <Energy>  (88) 
63.60710263398984

>  <Genealogy>  (88) 
COc1ccccc1[N-]C(=O)N=c1[nH]ccs1 (protonated)
COc1ccccc1[N-]C(=O)/N=c1/[nH]ccs1 (cis-trans isomerization)
COc1ccccc1[N-]C(=O)/N=c1/[nH]ccs1 (3D coordinates assigned)
COc1ccccc1[N-]C(=O)/N=c1/[nH]ccs1 (optimized conformer: 63.60710263398984 kcal/mol)

>  <smiles>  (88) 
COc1ccccc1NC(=O)N=c1[nH]ccs1

>  <score_type>  (88) 
oracle

>  <origin>  (88) 
adg

>  <m_score__min__energy>  (88) 
-8.0199999999999996

>  <m_primary>  (88) 
energy

$$$$
88:0
     RDKit          3D

 43 45  0  0  1  0  0  0  0  0999 V2000
   54.6710   24.9040   45.6250 C   0  0  0  0  0  0  0  0  0  0  0  0
   55.1360   26.1640   46.0190 O   0  0  0  0  0  0  0  0  0  0  0  0
   56.4430   26.5490   46.1510 C   0  0  0  0  0  0  0  0  0  0  0  0
   57.3450   25.9930   47.0340 C   0  0  0  0  0  0  0  0  0  0  0  0
   58.6560   26.4120   47.1340 C   0  0  0  0  0  0  0  0  0  0  0  0
   59.0860   27.4340   46.3150 C   0  0  0  0  0  0  0  0  0  0  0  0
   58.2160   28.0180   45.4180 C   0  0  0  0  0  0  0  0  0  0  0  0
   58.7080   29.1280   44.5400 C   0  0  0  0  0  0  0  0  0  0  0  0
   57.5280   29.9060   43.9910 C   0  0  0  0  0  0  0  0  0  0  0  0
   57.0150   30.8260   44.9690 N   0  0  0  0  0  0  0  0  0  0  0  0
   57.6550   31.8820   45.2670 C   0  0  0  0  0  0  0  0  0  0  0  0
   58.8940   31.8960   45.8950 C   0  0  0  0  0  0  0  0  0  0  0  0
   59.5590   33.0640   46.2040 C   0  0  0  0  0  0  0  0  0  0  0  0
   60.8600   33.0560   46.8630 C   0  0  0  0  0  0  0  0  0  0  0  0
   61.1240   32.2700   47.9700 C   0  0  0  0  0  0  0  0  0  0  0  0
   62.3750   32.2710   48.5950 C   0  0  0  0  0  0  0  0  0  0  0  0
   63.4050   33.0590   48.1320 C   0  0  0  0  0  0  0  0  0  0  0  0
   64.6560   33.0950   48.7130 O   0  0  0  0  0  0  0  0  0  0  0  0
   63.1520   33.8450   47.0290 C   0  0  0  0  0  0  0  0  0  0  0  0
   61.8980   33.8410   46.4090 C   0  0  0  0  0  0  0  0  0  0  0  0
   58.9290   34.2120   45.8550 N   0  0  0  0  0  0  0  0  0  0  0  0
   57.7260   34.2260   45.2440 C   0  0  0  0  0  0  0  0  0  0  0  0
   57.0880   33.0720   44.9490 N   0  0  0  0  0  0  0  0  0  0  0  0
   56.9040   27.5700   45.3460 C   0  0  0  0  0  0  0  0  0  0  0  0
   54.4481   24.3000   46.5169 H   0  0  0  0  0  0  0  0  0  0  0  0
   53.7571   25.0218   45.0242 H   0  0  0  0  0  0  0  0  0  0  0  0
   55.4423   24.3999   45.0242 H   0  0  0  0  0  0  0  0  0  0  0  0
   57.0035   25.1778   47.6888 H   0  0  0  0  0  0  0  0  0  0  0  0
   59.3432   25.9405   47.8519 H   0  0  0  0  0  0  0  0  0  0  0  0
   60.1266   27.7851   46.3770 H   0  0  0  0  0  0  0  0  0  0  0  0
   59.3491   29.8019   45.1272 H   0  0  0  0  0  0  0  0  0  0  0  0
   59.2851   28.7038   43.7051 H   0  0  0  0  0  0  0  0  0  0  0  0
   57.8507   30.4689   43.1027 H   0  0  0  0  0  0  0  0  0  0  0  0
   56.7314   29.1941   43.7291 H   0  0  0  0  0  0  0  0  0  0  0  0
   59.3638   30.9364   46.1565 H   0  0  0  0  0  0  0  0  0  0  0  0
   60.3273   31.6258   48.3702 H   0  0  0  0  0  0  0  0  0  0  0  0
   62.5394   31.6298   49.4736 H   0  0  0  0  0  0  0  0  0  0  0  0
   65.5020   32.7700   48.2600 H   0  0  0  0  0  0  0  0  0  0  0  0
   63.9504   34.4872   46.6288 H   0  0  0  0  0  0  0  0  0  0  0  0
   61.7353   34.4844   45.5318 H   0  0  0  0  0  0  0  0  0  0  0  0
   59.3500   35.1460   46.0450 H   0  0  0  0  0  0  0  0  0  0  0  0
   57.2595   35.1875   44.9832 H   0  0  0  0  0  0  0  0  0  0  0  0
   56.2150   28.0408   44.6293 H   0  0  0  0  0  0  0  0  0  0  0  0
  1  2  1  0
  2  3  1  0
  3  4  2  0
  4  5  1  0
  5  6  2  0
  6  7  1  0
  7  8  1  0
  8  9  1  0
  9 10  1  0
 10 11  2  0
 11 12  1  0
 12 13  2  0
 13 14  1  0
 14 15  2  0
 15 16  1  0
 16 17  2  0
 17 18  1  0
 17 19  1  0
 19 20  2  0
 13 21  1  0
 21 22  1  0
 22 23  2  0
  7 24  2  0
 24  3  1  0
 23 11  1  0
 20 14  1  0
  1 25  1  0
  1 26  1  0
  1 27  1  0
  4 28  1  0
  5 29  1  0
  6 30  1  0
  8 31  1  0
  8 32  1  0
  9 33  1  0
  9 34  1  0
 12 35  1  0
 15 36  1  0
 16 37  1  0
 18 38  1  0
 19 39  1  0
 20 40  1  0
 21 41  1  0
 22 42  1  0
 24 43  1  0
M  END
>  <smiles>  (89) 
COc1cccc(CCN=c2cc(-c3ccc(O)cc3)[nH]cn2)c1

>  <score_type>  (89) 
oracle

>  <origin>  (89) 
adg

>  <m_score__min__energy>  (89) 
-8.0099999999999998

>  <m_primary>  (89) 
energy

$$$$
89:0
     RDKit          3D

 35 36  0  0  0  0  0  0  0  0999 V2000
   58.2270   31.1721   42.1663 H   0  0  0  0  0  0  0  0  0  0  0  0
   57.6780   31.4870   43.0660 C   0  0  0  0  0  0  0  0  0  0  0  0
   56.8970   30.4600   43.7830 C   0  0  0  0  0  0  0  0  0  0  0  0
   55.9250   30.8270   44.4970 O   0  0  0  0  0  0  0  0  0  0  0  0
   57.1560   29.0650   43.5630 N   0  0  0  0  0  0  0  0  0  0  0  0
   57.8630   28.2710   44.3110 C   0  0  0  0  0  0  0  0  0  0  0  0
   59.0510   28.8250   45.3620 S   0  0  0  0  0  0  0  0  0  0  0  0
   59.3810   27.2850   45.9590 C   0  0  0  0  0  0  0  0  0  0  0  0
   60.3950   26.9740   47.0110 C   0  0  0  0  0  0  0  0  0  0  0  0
   59.9456   27.1118   48.0055 H   0  0  0  0  0  0  0  0  0  0  0  0
   60.7296   25.9319   46.9011 H   0  0  0  0  0  0  0  0  0  0  0  0
   61.2564   27.6493   46.9011 H   0  0  0  0  0  0  0  0  0  0  0  0
   58.5430   26.3710   45.3160 C   0  0  0  0  0  0  0  0  0  0  0  0
   58.5170   24.9070   45.6340 C   0  0  0  0  0  0  0  0  0  0  0  0
   58.5145   24.7688   46.7253 H   0  0  0  0  0  0  0  0  0  0  0  0
   57.6107   24.4547   45.2051 H   0  0  0  0  0  0  0  0  0  0  0  0
   59.4067   24.4228   45.2051 H   0  0  0  0  0  0  0  0  0  0  0  0
   57.6930   26.9290   44.4100 N   0  0  0  0  0  0  0  0  0  0  0  0
   56.9740   26.3750   43.8970 H   0  0  0  0  0  0  0  0  0  0  0  0
   57.7690   32.7770   43.4290 C   0  0  0  0  0  0  0  0  0  0  0  0
   57.4641   33.5345   42.6919 H   0  0  0  0  0  0  0  0  0  0  0  0
   58.2470   33.2570   44.7420 C   0  0  0  0  0  0  0  0  0  0  0  0
   59.2200   34.2670   44.8360 C   0  0  0  0  0  0  0  0  0  0  0  0
   59.6357   34.7134   43.9206 H   0  0  0  0  0  0  0  0  0  0  0  0
   59.6620   34.7070   46.0870 C   0  0  0  0  0  0  0  0  0  0  0  0
   60.4157   35.5055   46.1527 H   0  0  0  0  0  0  0  0  0  0  0  0
   59.1470   34.1330   47.2590 C   0  0  0  0  0  0  0  0  0  0  0  0
   59.6440   34.5830   48.6010 C   0  0  0  0  0  0  0  0  0  0  0  0
   59.0777   34.0703   49.3925 H   0  0  0  0  0  0  0  0  0  0  0  0
   60.7122   34.3386   48.6973 H   0  0  0  0  0  0  0  0  0  0  0  0
   59.5065   35.6701   48.6973 H   0  0  0  0  0  0  0  0  0  0  0  0
   58.2190   33.0850   47.1640 C   0  0  0  0  0  0  0  0  0  0  0  0
   57.8392   32.6052   48.0780 H   0  0  0  0  0  0  0  0  0  0  0  0
   57.7750   32.6480   45.9120 C   0  0  0  0  0  0  0  0  0  0  0  0
   57.0516   31.8220   45.8455 H   0  0  0  0  0  0  0  0  0  0  0  0
  1  2  1  0
  2  3  1  0
  3  4  2  0
  3  5  1  0
  5  6  2  0
  6  7  1  0
  7  8  1  0
  8  9  1  0
  9 10  1  0
  9 11  1  0
  9 12  1  0
  8 13  2  0
 13 14  1  0
 14 15  1  0
 14 16  1  0
 14 17  1  0
 13 18  1  0
 18 19  1  0
  2 20  2  3
 20 21  1  0
 20 22  1  0
 22 23  2  0
 23 24  1  0
 23 25  1  0
 25 26  1  0
 25 27  2  0
 27 28  1  0
 28 29  1  0
 28 30  1  0
 28 31  1  0
 27 32  1  0
 32 33  1  0
 32 34  2  0
 34 35  1  0
 18  6  1  0
 34 22  1  0
M  END
>  <UniqueID>  (90) 
79

>  <SMILES>  (90) 
Cc1ccc(C=CC(=O)/N=c2\[nH]c(C)c(C)s2)cc1

>  <Energy>  (90) 
72.76387619266308

>  <Genealogy>  (90) 
Cc1ccc(C=CC(=O)/N=c2\[nH]c(C)c(C)s2)cc1 (cis-trans isomerization)
Cc1ccc(C=CC(=O)/N=c2\[nH]c(C)c(C)s2)cc1 (3D coordinates assigned)
Cc1ccc(C=CC(=O)/N=c2\[nH]c(C)c(C)s2)cc1 (optimized conformer: 72.76387619266308 kcal/mol)

>  <smiles>  (90) 
Cc1ccc(C=CC(=O)N=c2[nH]c(C)c(C)s2)cc1

>  <score_type>  (90) 
oracle

>  <origin>  (90) 
adg

>  <m_score__min__energy>  (90) 
-7.6299999999999999

>  <m_primary>  (90) 
energy

$$$$
90:0
     RDKit          3D

 76 80  0  0  0  0  0  0  0  0999 V2000
   58.6010   30.9950   51.5740 C   0  0  0  0  0  0  0  0  0  0  0  0
   59.2730   31.2940   50.2630 C   0  0  0  0  0  0  0  0  0  0  0  0
   59.4340   30.2650   49.3240 C   0  0  0  0  0  0  0  0  0  0  0  0
   60.0400   30.5060   48.0820 C   0  0  0  0  0  0  0  0  0  0  0  0
   60.2220   29.3510   47.1220 C   0  0  0  0  0  0  0  0  0  0  0  0
   58.9680   28.9630   46.4570 N   0  0  0  0  0  0  0  0  0  0  0  0
   58.2180   29.6440   45.5340 C   0  0  0  0  0  0  0  0  0  0  0  0
   58.4660   31.0500   45.0210 C   0  0  0  0  0  0  0  0  0  0  0  0
   57.7990   32.1430   45.8680 C   0  0  0  0  0  0  0  0  0  0  0  0
   58.2390   33.5430   45.3870 C   0  0  0  0  0  0  0  0  0  0  0  0
   58.5280   33.6140   43.9380 N   0  0  0  0  0  0  0  0  0  0  0  0
   57.7470   32.6440   43.1550 C   0  0  0  0  0  0  0  0  0  0  0  0
   58.1220   31.1940   43.5220 C   0  0  0  0  0  0  0  0  0  0  0  0
   57.1140   28.9470   45.1610 N   0  0  0  0  0  0  0  0  0  0  0  0
   57.1740   27.8060   45.8600 C   0  0  0  0  0  0  0  0  0  0  0  0
   56.2760   26.7430   45.8440 C   0  0  0  0  0  0  0  0  0  0  0  0
   56.5500   25.6310   46.6770 C   0  0  0  0  0  0  0  0  0  0  0  0
   55.7070   24.5120   46.7340 O   0  0  0  0  0  0  0  0  0  0  0  0
   56.1590   23.1610   46.7230 C   0  0  0  0  0  0  0  0  0  0  0  0
   56.4010   22.7380   45.3040 C   0  0  0  0  0  0  0  0  0  0  0  0
   55.7170   23.3680   44.2510 C   0  0  0  0  0  0  0  0  0  0  0  0
   55.9060   22.9420   42.9330 C   0  0  0  0  0  0  0  0  0  0  0  0
   56.7690   21.8760   42.6590 C   0  0  0  0  0  0  0  0  0  0  0  0
   57.4400   21.2330   43.7030 C   0  0  0  0  0  0  0  0  0  0  0  0
   57.2540   21.6570   45.0220 C   0  0  0  0  0  0  0  0  0  0  0  0
   57.7120   25.6360   47.4860 C   0  0  0  0  0  0  0  0  0  0  0  0
   58.5950   26.7300   47.4780 C   0  0  0  0  0  0  0  0  0  0  0  0
   58.2870   27.8090   46.6460 C   0  0  0  0  0  0  0  0  0  0  0  0
   60.5370   31.7920   47.8080 C   0  0  0  0  0  0  0  0  0  0  0  0
   60.3970   32.8300   48.7400 C   0  0  0  0  0  0  0  0  0  0  0  0
   60.9460   34.1960   48.4340 C   0  0  0  0  0  0  0  0  0  0  0  0
   59.7870   32.5750   49.9820 C   0  0  0  0  0  0  0  0  0  0  0  0
   59.6890   33.6050   50.9220 O   0  0  0  0  0  0  0  0  0  0  0  0
   60.6620   33.7710   51.9490 C   0  0  0  0  0  0  0  0  0  0  0  0
   60.0360   33.4880   53.3130 C   0  0  0  0  0  0  0  0  0  0  0  0
   58.9170   34.4890   53.6400 C   0  0  0  0  0  0  0  0  0  0  0  0
   58.0840   34.7550   52.4700 N   0  0  0  0  0  0  0  0  0  0  0  0
   59.2635   31.2898   52.4012 H   0  0  0  0  0  0  0  0  0  0  0  0
   57.6588   31.5588   51.6401 H   0  0  0  0  0  0  0  0  0  0  0  0
   58.3890   29.9176   51.6401 H   0  0  0  0  0  0  0  0  0  0  0  0
   59.0792   29.2521   49.5653 H   0  0  0  0  0  0  0  0  0  0  0  0
   60.9521   29.6440   46.3532 H   0  0  0  0  0  0  0  0  0  0  0  0
   60.5707   28.4858   47.7050 H   0  0  0  0  0  0  0  0  0  0  0  0
   59.5490   31.2105   45.1273 H   0  0  0  0  0  0  0  0  0  0  0  0
   56.7063   32.0556   45.7767 H   0  0  0  0  0  0  0  0  0  0  0  0
   58.1029   32.0153   46.9174 H   0  0  0  0  0  0  0  0  0  0  0  0
   57.4338   34.2568   45.6152 H   0  0  0  0  0  0  0  0  0  0  0  0
   59.1756   33.7820   45.9121 H   0  0  0  0  0  0  0  0  0  0  0  0
   59.5450   33.4200   43.7860 H   0  0  0  0  0  0  0  0  0  0  0  0
   56.6770   32.7993   43.3573 H   0  0  0  0  0  0  0  0  0  0  0  0
   57.9689   32.8002   42.0890 H   0  0  0  0  0  0  0  0  0  0  0  0
   57.2719   30.5365   43.2874 H   0  0  0  0  0  0  0  0  0  0  0  0
   59.0121   30.9142   42.9395 H   0  0  0  0  0  0  0  0  0  0  0  0
   56.3660   29.2400   44.4920 H   0  0  0  0  0  0  0  0  0  0  0  0
   55.3814   26.7658   45.2044 H   0  0  0  0  0  0  0  0  0  0  0  0
   57.0943   23.0804   47.2964 H   0  0  0  0  0  0  0  0  0  0  0  0
   55.3982   22.5110   47.1798 H   0  0  0  0  0  0  0  0  0  0  0  0
   55.0298   24.2000   44.4645 H   0  0  0  0  0  0  0  0  0  0  0  0
   55.3758   23.4454   42.1111 H   0  0  0  0  0  0  0  0  0  0  0  0
   56.9197   21.5435   41.6214 H   0  0  0  0  0  0  0  0  0  0  0  0
   58.1154   20.3922   43.4864 H   0  0  0  0  0  0  0  0  0  0  0  0
   57.7769   21.1430   45.8419 H   0  0  0  0  0  0  0  0  0  0  0  0
   57.9271   24.7709   48.1305 H   0  0  0  0  0  0  0  0  0  0  0  0
   59.4982   26.7361   48.1059 H   0  0  0  0  0  0  0  0  0  0  0  0
   61.0421   31.9864   46.8504 H   0  0  0  0  0  0  0  0  0  0  0  0
   61.1586   34.7249   49.3748 H   0  0  0  0  0  0  0  0  0  0  0  0
   61.8739   34.0963   47.8517 H   0  0  0  0  0  0  0  0  0  0  0  0
   60.2072   34.7661   47.8517 H   0  0  0  0  0  0  0  0  0  0  0  0
   61.4944   33.0725   51.7784 H   0  0  0  0  0  0  0  0  0  0  0  0
   61.0335   34.8062   51.9302 H   0  0  0  0  0  0  0  0  0  0  0  0
   59.6158   32.4714   53.3090 H   0  0  0  0  0  0  0  0  0  0  0  0
   60.8199   33.5858   54.0785 H   0  0  0  0  0  0  0  0  0  0  0  0
   58.2877   34.0738   54.4410 H   0  0  0  0  0  0  0  0  0  0  0  0
   59.3795   35.4347   53.9590 H   0  0  0  0  0  0  0  0  0  0  0  0
   57.8310   33.8440   52.0230 H   0  0  0  0  0  0  0  0  0  0  0  0
   58.6420   35.3050   51.7770 H   0  0  0  0  0  0  0  0  0  0  0  0
  1  2  1  0
  2  3  2  0
  3  4  1  0
  4  5  1  0
  5  6  1  0
  6  7  1  0
  7  8  1  0
  8  9  1  0
  9 10  1  0
 10 11  1  0
 11 12  1  0
 12 13  1  0
  7 14  2  0
 14 15  1  0
 15 16  2  0
 16 17  1  0
 17 18  1  0
 18 19  1  0
 19 20  1  0
 20 21  2  0
 21 22  1  0
 22 23  2  0
 23 24  1  0
 24 25  2  0
 17 26  2  0
 26 27  1  0
 27 28  2  0
  4 29  2  0
 29 30  1  0
 30 31  1  0
 30 32  2  0
 32 33  1  0
 33 34  1  0
 34 35  1  0
 35 36  1  0
 36 37  1  0
 32  2  1  0
 28  6  1  0
 13  8  1  0
 28 15  1  0
 25 20  1  0
  1 38  1  0
  1 39  1  0
  1 40  1  0
  3 41  1  0
  5 42  1  0
  5 43  1  0
  8 44  1  0
  9 45  1  0
  9 46  1  0
 10 47  1  0
 10 48  1  0
 11 49  1  0
 12 50  1  0
 12 51  1  0
 13 52  1  0
 13 53  1  0
 14 54  1  0
 16 55  1  0
 19 56  1  0
 19 57  1  0
 21 58  1  0
 22 59  1  0
 23 60  1  0
 24 61  1  0
 25 62  1  0
 26 63  1  0
 27 64  1  0
 29 65  1  0
 31 66  1  0
 31 67  1  0
 31 68  1  0
 34 69  1  0
 34 70  1  0
 35 71  1  0
 35 72  1  0
 36 73  1  0
 36 74  1  0
 37 75  1  0
 37 76  1  0
M  CHG  1  14   1
M  END
>  <UniqueID>  (91) 
80

>  <SMILES>  (91) 
Cc1cc(Cn2c(C3CCNCC3)[nH+]c3cc(OCc4ccccc4)ccc32)cc(C)c1OCCCN

>  <Energy>  (91) 
124.39128499084677

>  <Genealogy>  (91) 
Cc1cc(Cn2c(C3CCNCC3)[nH+]c3cc(OCc4ccccc4)ccc32)cc(C)c1OCCCN (protonated)
Cc1cc(Cn2c(C3CCNCC3)[nH+]c3cc(OCc4ccccc4)ccc32)cc(C)c1OCCCN (3D coordinates assigned)
Cc1cc(Cn2c(C3CCNCC3)[nH+]c3cc(OCc4ccccc4)ccc32)cc(C)c1OCCCN (nonaromatic ring conformer: 124.39128499084677 kcal/mol)

>  <smiles>  (91) 
Cc1cc(Cn2c(C3CCNCC3)nc3cc(OCc4ccccc4)ccc32)cc(C)c1OCCCN

>  <score_type>  (91) 
oracle

>  <origin>  (91) 
adg

>  <m_score__min__energy>  (91) 
-9.3599999999999994

>  <m_primary>  (91) 
energy

$$$$
91:0
     RDKit          3D

 50 53  0  0  0  0  0  0  0  0999 V2000
   56.6330   31.9130   51.9880 C   0  0  0  0  0  0  0  0  0  0  0  0
   57.8390   31.1210   52.2900 N   0  0  0  0  0  0  0  0  0  0  0  0
   59.0360   31.7340   52.6040 C   0  0  0  0  0  0  0  0  0  0  0  0
   59.1610   33.2050   52.7470 C   0  0  0  0  0  0  0  0  0  0  0  0
   58.3370   33.8140   53.4800 O   0  0  0  0  0  0  0  0  0  0  0  0
   60.1860   33.9640   52.0830 N   0  0  0  0  0  0  0  0  0  0  0  0
   60.5090   33.8890   50.8250 C   0  0  0  0  0  0  0  0  0  0  0  0
   59.6290   33.9880   49.8070 N   0  0  0  0  0  0  0  0  0  0  0  0
   60.2290   33.8560   48.5960 C   0  0  0  0  0  0  0  0  0  0  0  0
   59.4200   33.8990   47.3690 C   0  0  0  0  0  0  0  0  0  0  0  0
   59.7410   34.7770   46.3230 C   0  0  0  0  0  0  0  0  0  0  0  0
   58.9320   34.8400   45.1830 C   0  0  0  0  0  0  0  0  0  0  0  0
   57.7820   34.0500   45.0970 C   0  0  0  0  0  0  0  0  0  0  0  0
   57.4320   33.2070   46.1540 C   0  0  0  0  0  0  0  0  0  0  0  0
   58.2410   33.1410   47.2930 C   0  0  0  0  0  0  0  0  0  0  0  0
   61.6180   33.6510   48.6580 C   0  0  0  0  0  0  0  0  0  0  0  0
   62.7190   33.2000   47.3540 S   0  0  0  0  0  0  0  0  0  0  0  0
   64.0990   33.6760   47.7120 O   0  0  0  0  0  0  0  0  0  0  0  0
   62.3260   33.8390   46.0550 O   0  0  0  0  0  0  0  0  0  0  0  0
   62.7600   31.4260   47.1500 C   0  0  0  0  0  0  0  0  0  0  0  0
   61.4260   30.8070   47.4890 C   0  0  0  0  0  0  0  0  0  0  0  0
   60.4540   30.6950   46.4800 C   0  0  0  0  0  0  0  0  0  0  0  0
   59.2040   30.1360   46.7560 C   0  0  0  0  0  0  0  0  0  0  0  0
   58.9050   29.6940   48.0450 C   0  0  0  0  0  0  0  0  0  0  0  0
   59.8560   29.8080   49.0600 C   0  0  0  0  0  0  0  0  0  0  0  0
   61.1150   30.3590   48.7940 C   0  0  0  0  0  0  0  0  0  0  0  0
   62.2740   30.4440   50.1180 Cl  0  0  0  0  0  0  0  0  0  0  0  0
   62.0740   33.6430   50.2800 S   0  0  0  0  0  0  0  0  0  0  0  0
   60.1830   30.9590   52.8310 C   0  0  0  0  0  0  0  0  0  0  0  0
   60.0980   29.5730   52.7980 C   0  0  0  0  0  0  0  0  0  0  0  0
   58.8770   28.9620   52.5420 C   0  0  0  0  0  0  0  0  0  0  0  0
   57.7490   29.7480   52.2910 C   0  0  0  0  0  0  0  0  0  0  0  0
   56.6480   29.1720   52.0700 O   0  0  0  0  0  0  0  0  0  0  0  0
   56.1554   32.2266   52.9280 H   0  0  0  0  0  0  0  0  0  0  0  0
   56.9148   32.8024   51.4053 H   0  0  0  0  0  0  0  0  0  0  0  0
   55.9288   31.3010   51.4053 H   0  0  0  0  0  0  0  0  0  0  0  0
   60.6316   35.4181   46.3992 H   0  0  0  0  0  0  0  0  0  0  0  0
   59.2011   35.5114   44.3543 H   0  0  0  0  0  0  0  0  0  0  0  0
   57.1522   34.0923   44.1961 H   0  0  0  0  0  0  0  0  0  0  0  0
   56.5202   32.5950   46.0907 H   0  0  0  0  0  0  0  0  0  0  0  0
   57.9521   32.4922   48.1330 H   0  0  0  0  0  0  0  0  0  0  0  0
   63.0096   31.1906   46.1049 H   0  0  0  0  0  0  0  0  0  0  0  0
   63.5186   31.0143   47.8320 H   0  0  0  0  0  0  0  0  0  0  0  0
   60.6797   31.0507   45.4639 H   0  0  0  0  0  0  0  0  0  0  0  0
   58.4545   30.0442   45.9561 H   0  0  0  0  0  0  0  0  0  0  0  0
   57.9196   29.2556   48.2613 H   0  0  0  0  0  0  0  0  0  0  0  0
   59.6146   29.4625   50.0760 H   0  0  0  0  0  0  0  0  0  0  0  0
   61.1472   31.4476   53.0346 H   0  0  0  0  0  0  0  0  0  0  0  0
   60.9949   28.9610   52.9741 H   0  0  0  0  0  0  0  0  0  0  0  0
   58.7984   27.8648   52.5369 H   0  0  0  0  0  0  0  0  0  0  0  0
  1  2  1  0
  2  3  1  0
  3  4  1  0
  4  5  2  0
  4  6  1  0
  6  7  2  3
  7  8  1  0
  8  9  1  0
  9 10  1  0
 10 11  2  0
 11 12  1  0
 12 13  2  0
 13 14  1  0
 14 15  2  0
  9 16  2  0
 16 17  1  0
 17 18  2  0
 17 19  2  0
 17 20  1  0
 20 21  1  0
 21 22  2  0
 22 23  1  0
 23 24  2  0
 24 25  1  0
 25 26  2  0
 26 27  1  0
 16 28  1  0
  3 29  2  0
 29 30  1  0
 30 31  2  0
 31 32  1  0
 32 33  2  0
 32  2  1  0
 28  7  1  0
 15 10  1  0
 26 21  1  0
  1 34  1  0
  1 35  1  0
  1 36  1  0
 11 37  1  0
 12 38  1  0
 13 39  1  0
 14 40  1  0
 15 41  1  0
 20 42  1  0
 20 43  1  0
 22 44  1  0
 23 45  1  0
 24 46  1  0
 25 47  1  0
 29 48  1  0
 30 49  1  0
 31 50  1  0
M  CHG  1   8  -1
M  END
>  <UniqueID>  (92) 
81

>  <SMILES>  (92) 
Cn1c(C(=O)N=c2[n-]c(-c3ccccc3)c(S(=O)(=O)Cc3ccccc3Cl)s2)cccc1=O

>  <Energy>  (92) 
96.42012690580634

>  <Genealogy>  (92) 
Cn1c(C(=O)N=c2[n-]c(-c3ccccc3)c(S(=O)(=O)Cc3ccccc3Cl)s2)cccc1=O (protonated)
Cn1c(C(=O)N=c2[n-]c(-c3ccccc3)c(S(=O)(=O)Cc3ccccc3Cl)s2)cccc1=O (3D coordinates assigned)
Cn1c(C(=O)N=c2[n-]c(-c3ccccc3)c(S(=O)(=O)Cc3ccccc3Cl)s2)cccc1=O (optimized conformer: 96.42012690580634 kcal/mol)

>  <smiles>  (92) 
Cn1c(C(=O)N=c2[nH]c(-c3ccccc3)c(S(=O)(=O)Cc3ccccc3Cl)s2)cccc1=O

>  <score_type>  (92) 
oracle

>  <origin>  (92) 
adg

>  <m_score__min__energy>  (92) 
-12.85

>  <m_primary>  (92) 
energy

$$$$
92:0
     RDKit          3D

 46 48  0  0  0  0  0  0  0  0999 V2000
   61.4770   28.9580   51.8570 C   0  0  0  0  0  0  0  0  0  0  0  0
   61.7040   30.1780   51.0610 N   0  0  0  0  0  0  0  0  0  0  0  0
   63.1010   30.6200   51.2260 C   0  0  0  0  0  0  0  0  0  0  0  0
   60.7410   31.2340   51.4590 C   0  0  0  0  0  0  0  0  0  0  0  0
   59.5660   31.3630   50.4800 C   0  0  0  0  0  0  0  0  0  0  0  0
   59.6710   30.3730   49.4080 N   0  0  0  0  0  0  0  0  0  0  0  0
   60.4700   30.5540   48.2320 C   0  0  0  0  0  0  0  0  0  0  0  0
   61.7230   30.4700   48.3190 O   0  0  0  0  0  0  0  0  0  0  0  0
   59.8400   30.7940   46.9200 C   0  0  0  0  0  0  0  0  0  0  0  0
   59.3590   29.6670   46.2400 C   0  0  0  0  0  0  0  0  0  0  0  0
   58.4740   29.8040   45.1760 C   0  0  0  0  0  0  0  0  0  0  0  0
   58.0230   31.0650   44.7990 C   0  0  0  0  0  0  0  0  0  0  0  0
   58.5110   32.2160   45.4380 C   0  0  0  0  0  0  0  0  0  0  0  0
   58.0190   33.4800   45.0700 C   0  0  0  0  0  0  0  0  0  0  0  0
   57.0510   33.6040   44.1260 F   0  0  0  0  0  0  0  0  0  0  0  0
   58.5170   34.6290   45.6770 C   0  0  0  0  0  0  0  0  0  0  0  0
   59.5510   34.5430   46.6020 C   0  0  0  0  0  0  0  0  0  0  0  0
   60.0820   33.2990   46.9780 C   0  0  0  0  0  0  0  0  0  0  0  0
   61.3610   33.3160   47.7310 C   0  0  0  0  0  0  0  0  0  0  0  0
   62.5530   32.9530   47.0780 C   0  0  0  0  0  0  0  0  0  0  0  0
   63.7740   32.9980   47.7560 C   0  0  0  0  0  0  0  0  0  0  0  0
   63.8210   33.4250   49.0850 C   0  0  0  0  0  0  0  0  0  0  0  0
   65.0070   33.4690   49.7400 F   0  0  0  0  0  0  0  0  0  0  0  0
   62.6500   33.8200   49.7330 C   0  0  0  0  0  0  0  0  0  0  0  0
   61.4240   33.7800   49.0600 C   0  0  0  0  0  0  0  0  0  0  0  0
   60.3080   34.2040   49.7030 F   0  0  0  0  0  0  0  0  0  0  0  0
   59.4970   32.1010   46.4620 C   0  0  0  0  0  0  0  0  0  0  0  0
   61.5230   29.2051   52.9279 H   0  0  0  0  0  0  0  0  0  0  0  0
   60.4863   28.5436   51.6185 H   0  0  0  0  0  0  0  0  0  0  0  0
   62.2523   28.2150   51.6185 H   0  0  0  0  0  0  0  0  0  0  0  0
   61.5550   29.9330   50.0570 H   0  0  0  0  0  0  0  0  0  0  0  0
   63.3377   30.6949   52.2976 H   0  0  0  0  0  0  0  0  0  0  0  0
   63.7746   29.8911   50.7517 H   0  0  0  0  0  0  0  0  0  0  0  0
   63.2328   31.6037   50.7517 H   0  0  0  0  0  0  0  0  0  0  0  0
   60.3438   30.9907   52.4555 H   0  0  0  0  0  0  0  0  0  0  0  0
   61.2803   32.1927   51.4592 H   0  0  0  0  0  0  0  0  0  0  0  0
   58.6236   31.2055   51.0251 H   0  0  0  0  0  0  0  0  0  0  0  0
   59.5876   32.3684   50.0343 H   0  0  0  0  0  0  0  0  0  0  0  0
   59.6849   28.6635   46.5511 H   0  0  0  0  0  0  0  0  0  0  0  0
   58.1296   28.9128   44.6309 H   0  0  0  0  0  0  0  0  0  0  0  0
   57.2788   31.1609   43.9946 H   0  0  0  0  0  0  0  0  0  0  0  0
   58.0901   35.6106   45.4234 H   0  0  0  0  0  0  0  0  0  0  0  0
   59.9591   35.4630   47.0458 H   0  0  0  0  0  0  0  0  0  0  0  0
   62.5237   32.6315   46.0264 H   0  0  0  0  0  0  0  0  0  0  0  0
   64.6990   32.6969   47.2426 H   0  0  0  0  0  0  0  0  0  0  0  0
   62.6909   34.1642   50.7770 H   0  0  0  0  0  0  0  0  0  0  0  0
  1  2  1  0
  2  3  1  0
  2  4  1  0
  4  5  1  0
  5  6  1  0
  6  7  1  0
  7  8  2  0
  7  9  1  0
  9 10  2  0
 10 11  1  0
 11 12  2  0
 12 13  1  0
 13 14  2  0
 14 15  1  0
 14 16  1  0
 16 17  2  0
 17 18  1  0
 18 19  1  0
 19 20  2  0
 20 21  1  0
 21 22  2  0
 22 23  1  0
 22 24  1  0
 24 25  2  0
 25 26  1  0
 18 27  2  0
 27  9  1  0
 27 13  1  0
 25 19  1  0
  1 28  1  0
  1 29  1  0
  1 30  1  0
  2 31  1  0
  3 32  1  0
  3 33  1  0
  3 34  1  0
  4 35  1  0
  4 36  1  0
  5 37  1  0
  5 38  1  0
 10 39  1  0
 11 40  1  0
 12 41  1  0
 16 42  1  0
 17 43  1  0
 20 44  1  0
 21 45  1  0
 24 46  1  0
M  CHG  2   2   1   6  -1
M  END
>  <UniqueID>  (93) 
82

>  <SMILES>  (93) 
C[NH+](C)CC[N-]C(=O)c1cccc2c(F)ccc(-c3ccc(F)cc3F)c12

>  <Energy>  (93) 
74.24093129822376

>  <Genealogy>  (93) 
C[NH+](C)CC[N-]C(=O)c1cccc2c(F)ccc(-c3ccc(F)cc3F)c12 (protonated)
C[NH+](C)CC[N-]C(=O)c1cccc2c(F)ccc(-c3ccc(F)cc3F)c12 (3D coordinates assigned)
C[NH+](C)CC[N-]C(=O)c1cccc2c(F)ccc(-c3ccc(F)cc3F)c12 (optimized conformer: 74.24093129822376 kcal/mol)

>  <smiles>  (93) 
CN(C)CCNC(=O)c1cccc2c(F)ccc(-c3ccc(F)cc3F)c12

>  <score_type>  (93) 
oracle

>  <origin>  (93) 
adg

>  <m_score__min__energy>  (93) 
-5.7599999999999998

>  <m_primary>  (93) 
energy

$$$$
93:0
     RDKit          3D

 37 40  0  0  0  0  0  0  0  0999 V2000
   59.7713   28.3037   47.1193 H   0  0  0  0  0  0  0  0  0  0  0  0
   58.7910   27.9130   46.8090 C   0  0  0  0  0  0  0  0  0  0  0  0
   58.2480   26.3370   47.0220 S   0  0  0  0  0  0  0  0  0  0  0  0
   56.7510   26.6480   46.3100 C   0  0  0  0  0  0  0  0  0  0  0  0
   55.8020   25.7830   46.1030 N   0  0  0  0  0  0  0  0  0  0  0  0
   55.9390   24.4910   45.4920 C   0  0  0  0  0  0  0  0  0  0  0  0
   55.1630   23.3920   45.9030 C   0  0  0  0  0  0  0  0  0  0  0  0
   54.4523   23.5040   46.7351 H   0  0  0  0  0  0  0  0  0  0  0  0
   55.2910   22.1590   45.2590 C   0  0  0  0  0  0  0  0  0  0  0  0
   54.6931   21.2998   45.5971 H   0  0  0  0  0  0  0  0  0  0  0  0
   56.1780   22.0120   44.1840 C   0  0  0  0  0  0  0  0  0  0  0  0
   56.3080   20.7500   43.5240 N   0  0  0  0  0  0  0  0  0  0  0  0
   57.1980   20.2050   43.5820 H   0  0  0  0  0  0  0  0  0  0  0  0
   55.5150   20.3490   42.9750 H   0  0  0  0  0  0  0  0  0  0  0  0
   56.9280   23.1140   43.7510 C   0  0  0  0  0  0  0  0  0  0  0  0
   57.6196   23.0078   42.9022 H   0  0  0  0  0  0  0  0  0  0  0  0
   56.7990   24.3490   44.3960 C   0  0  0  0  0  0  0  0  0  0  0  0
   57.3771   25.2143   44.0397 H   0  0  0  0  0  0  0  0  0  0  0  0
   56.6580   27.9260   45.8920 N   0  0  0  0  0  0  0  0  0  0  0  0
   57.7840   28.6430   46.1700 C   0  0  0  0  0  0  0  0  0  0  0  0
   57.9070   30.0810   45.8090 C   0  0  0  0  0  0  0  0  0  0  0  0
   58.9080   30.8750   46.3940 C   0  0  0  0  0  0  0  0  0  0  0  0
   59.6071   30.4278   47.1160 H   0  0  0  0  0  0  0  0  0  0  0  0
   59.0220   32.2300   46.0650 C   0  0  0  0  0  0  0  0  0  0  0  0
   60.0160   33.0340   46.6440 C   0  0  0  0  0  0  0  0  0  0  0  0
   60.7211   32.5997   47.3680 H   0  0  0  0  0  0  0  0  0  0  0  0
   60.1110   34.3850   46.3020 C   0  0  0  0  0  0  0  0  0  0  0  0
   60.8915   35.0124   46.7571 H   0  0  0  0  0  0  0  0  0  0  0  0
   59.2170   34.9420   45.3830 C   0  0  0  0  0  0  0  0  0  0  0  0
   59.2956   36.0065   45.1170 H   0  0  0  0  0  0  0  0  0  0  0  0
   58.2230   34.1490   44.8010 C   0  0  0  0  0  0  0  0  0  0  0  0
   57.5222   34.5911   44.0775 H   0  0  0  0  0  0  0  0  0  0  0  0
   58.1170   32.7890   45.1380 C   0  0  0  0  0  0  0  0  0  0  0  0
   57.1500   32.0100   44.5790 N   0  0  0  0  0  0  0  0  0  0  0  0
   56.4820   32.4290   43.8910 H   0  0  0  0  0  0  0  0  0  0  0  0
   57.0250   30.6880   44.8860 C   0  0  0  0  0  0  0  0  0  0  0  0
   56.1200   30.0110   44.3260 O   0  0  0  0  0  0  0  0  0  0  0  0
  1  2  1  0
  2  3  1  0
  3  4  1  0
  4  5  2  0
  5  6  1  0
  6  7  2  0
  7  8  1  0
  7  9  1  0
  9 10  1  0
  9 11  2  0
 11 12  1  0
 12 13  1  0
 12 14  1  0
 11 15  1  0
 15 16  1  0
 15 17  2  0
 17 18  1  0
  4 19  1  0
 19 20  1  0
 20 21  1  0
 21 22  2  0
 22 23  1  0
 22 24  1  0
 24 25  2  0
 25 26  1  0
 25 27  1  0
 27 28  1  0
 27 29  2  0
 29 30  1  0
 29 31  1  0
 31 32  1  0
 31 33  2  0
 33 34  1  0
 34 35  1  0
 34 36  1  0
 36 37  2  0
 20  2  2  0
 36 21  1  0
 17  6  1  0
 33 24  1  0
M  CHG  1  19  -1
M  END
>  <UniqueID>  (94) 
83

>  <SMILES>  (94) 
Nc1ccc(/N=c2/[n-]c(-c3cc4ccccc4[nH]c3=O)cs2)cc1

>  <Energy>  (94) 
86.01837423535675

>  <Genealogy>  (94) 
Nc1ccc(N=c2[n-]c(-c3cc4ccccc4[nH]c3=O)cs2)cc1 (protonated)
Nc1ccc(/N=c2/[n-]c(-c3cc4ccccc4[nH]c3=O)cs2)cc1 (cis-trans isomerization)
Nc1ccc(/N=c2/[n-]c(-c3cc4ccccc4[nH]c3=O)cs2)cc1 (3D coordinates assigned)
Nc1ccc(/N=c2/[n-]c(-c3cc4ccccc4[nH]c3=O)cs2)cc1 (optimized conformer: 86.01837423535675 kcal/mol)

>  <smiles>  (94) 
Nc1ccc(N=c2[nH]c(-c3cc4ccccc4[nH]c3=O)cs2)cc1

>  <score_type>  (94) 
oracle

>  <origin>  (94) 
adg

>  <m_score__min__energy>  (94) 
-10.210000000000001

>  <m_primary>  (94) 
energy

$$$$
94:0
     RDKit          3D

 62 65  0  0  0  0  0  0  0  0999 V2000
   56.7380   20.8490   47.7710 C   0  0  0  0  0  0  0  0  0  0  0  0
   57.5090   21.8310   47.0850 O   0  0  0  0  0  0  0  0  0  0  0  0
   57.2640   22.2700   45.7740 C   0  0  0  0  0  0  0  0  0  0  0  0
   57.6080   21.4800   44.6580 C   0  0  0  0  0  0  0  0  0  0  0  0
   57.3350   21.9230   43.3600 C   0  0  0  0  0  0  0  0  0  0  0  0
   56.7070   23.1480   43.1580 C   0  0  0  0  0  0  0  0  0  0  0  0
   56.3570   23.9420   44.2520 C   0  0  0  0  0  0  0  0  0  0  0  0
   56.6440   23.5240   45.5630 C   0  0  0  0  0  0  0  0  0  0  0  0
   56.1600   24.5740   46.9080 S   0  0  0  0  0  0  0  0  0  0  0  0
   55.4570   25.7740   46.3370 O   0  0  0  0  0  0  0  0  0  0  0  0
   55.2140   23.8640   47.8340 O   0  0  0  0  0  0  0  0  0  0  0  0
   57.5940   25.1350   47.8410 C   0  0  0  0  0  0  0  0  0  0  0  0
   58.7230   25.7370   46.9720 C   0  0  2  0  0  0  0  0  0  0  0  0
   59.6560   26.5160   47.7890 N   0  0  0  0  0  0  0  0  0  0  0  0
   59.7890   27.9390   47.7080 C   0  0  0  0  0  0  0  0  0  0  0  0
   59.3100   28.6770   48.6110 O   0  0  0  0  0  0  0  0  0  0  0  0
   60.4550   28.5460   46.5100 C   0  0  0  0  0  0  0  0  0  0  0  0
   60.4970   30.0480   46.6100 C   0  0  0  0  0  0  0  0  0  0  0  0
   59.3820   30.8090   46.2250 C   0  0  0  0  0  0  0  0  0  0  0  0
   59.3940   32.1960   46.3770 C   0  0  0  0  0  0  0  0  0  0  0  0
   60.5120   32.8350   46.9210 C   0  0  0  0  0  0  0  0  0  0  0  0
   61.6380   32.0890   47.3130 C   0  0  0  0  0  0  0  0  0  0  0  0
   62.8220   32.7580   47.9070 C   0  0  0  0  0  0  0  0  0  0  0  0
   62.6440   33.8360   48.8370 N   0  0  0  0  0  0  0  0  0  0  0  0
   64.0250   32.3720   47.5980 N   0  0  0  0  0  0  0  0  0  0  0  0
   61.6160   30.6910   47.1600 C   0  0  0  0  0  0  0  0  0  0  0  0
   58.2280   26.5820   45.8170 C   0  0  0  0  0  0  0  0  0  0  0  0
   57.4530   27.7270   46.0710 C   0  0  0  0  0  0  0  0  0  0  0  0
   57.0370   28.5340   45.0060 C   0  0  0  0  0  0  0  0  0  0  0  0
   56.2560   29.6800   45.2340 C   0  0  0  0  0  0  0  0  0  0  0  0
   55.8550   30.4810   44.1600 C   0  0  0  0  0  0  0  0  0  0  0  0
   56.2270   30.1410   42.8560 C   0  0  0  0  0  0  0  0  0  0  0  0
   57.0070   29.0040   42.6170 C   0  0  0  0  0  0  0  0  0  0  0  0
   57.4160   28.1960   43.6880 C   0  0  0  0  0  0  0  0  0  0  0  0
   58.2070   27.0600   43.4790 C   0  0  0  0  0  0  0  0  0  0  0  0
   58.5970   26.2980   44.5350 N   0  0  0  0  0  0  0  0  0  0  0  0
   56.8480   20.9891   48.8565 H   0  0  0  0  0  0  0  0  0  0  0  0
   55.6789   20.9545   47.4931 H   0  0  0  0  0  0  0  0  0  0  0  0
   57.0918   19.8452   47.4931 H   0  0  0  0  0  0  0  0  0  0  0  0
   58.0958   20.5058   44.8098 H   0  0  0  0  0  0  0  0  0  0  0  0
   57.6173   21.3019   42.4972 H   0  0  0  0  0  0  0  0  0  0  0  0
   56.4862   23.4910   42.1364 H   0  0  0  0  0  0  0  0  0  0  0  0
   55.8514   24.9047   44.0861 H   0  0  0  0  0  0  0  0  0  0  0  0
   57.2617   25.9033   48.5546 H   0  0  0  0  0  0  0  0  0  0  0  0
   58.0158   24.2470   48.3345 H   0  0  0  0  0  0  0  0  0  0  0  0
   59.2410   24.8723   46.5315 H   0  0  0  0  0  0  0  0  0  0  0  0
   61.4836   28.1627   46.4392 H   0  0  0  0  0  0  0  0  0  0  0  0
   59.8758   28.2736   45.6154 H   0  0  0  0  0  0  0  0  0  0  0  0
   58.4969   30.3108   45.8026 H   0  0  0  0  0  0  0  0  0  0  0  0
   58.5205   32.7888   46.0676 H   0  0  0  0  0  0  0  0  0  0  0  0
   60.5111   33.9282   47.0432 H   0  0  0  0  0  0  0  0  0  0  0  0
   63.4650   34.2820   49.3010 H   0  0  0  0  0  0  0  0  0  0  0  0
   61.6960   34.2260   49.0380 H   0  0  0  0  0  0  0  0  0  0  0  0
   64.5060   32.7050   46.7320 H   0  0  0  0  0  0  0  0  0  0  0  0
   64.5360   31.6890   48.2020 H   0  0  0  0  0  0  0  0  0  0  0  0
   62.4855   30.0954   47.4750 H   0  0  0  0  0  0  0  0  0  0  0  0
   57.1746   27.9876   47.1028 H   0  0  0  0  0  0  0  0  0  0  0  0
   55.9596   29.9474   46.2590 H   0  0  0  0  0  0  0  0  0  0  0  0
   55.2465   31.3792   44.3414 H   0  0  0  0  0  0  0  0  0  0  0  0
   55.9049   30.7705   42.0134 H   0  0  0  0  0  0  0  0  0  0  0  0
   57.2994   28.7439   41.5890 H   0  0  0  0  0  0  0  0  0  0  0  0
   58.5132   26.7837   42.4592 H   0  0  0  0  0  0  0  0  0  0  0  0
  1  2  1  0
  2  3  1  0
  3  4  2  0
  4  5  1  0
  5  6  2  0
  6  7  1  0
  7  8  2  0
  8  9  1  0
  9 10  2  0
  9 11  2  0
  9 12  1  0
 12 13  1  0
 13 14  1  0
 14 15  1  0
 15 16  2  0
 15 17  1  0
 17 18  1  0
 18 19  2  0
 19 20  1  0
 20 21  2  0
 21 22  1  0
 22 23  1  0
 23 24  1  0
 23 25  2  0
 22 26  2  0
 13 27  1  0
 27 28  2  0
 28 29  1  0
 29 30  2  0
 30 31  1  0
 31 32  2  0
 32 33  1  0
 33 34  2  0
 34 35  1  0
 35 36  2  0
  8  3  1  0
 26 18  1  0
 36 27  1  0
 34 29  1  0
  1 37  1  0
  1 38  1  0
  1 39  1  0
  4 40  1  0
  5 41  1  0
  6 42  1  0
  7 43  1  0
 12 44  1  0
 12 45  1  0
 13 46  1  6
 17 47  1  0
 17 48  1  0
 19 49  1  0
 20 50  1  0
 21 51  1  0
 24 52  1  0
 24 53  1  0
 25 54  1  0
 25 55  1  0
 26 56  1  0
 28 57  1  0
 30 58  1  0
 31 59  1  0
 32 60  1  0
 33 61  1  0
 35 62  1  0
M  CHG  2  14  -1  25   1
M  END
>  <UniqueID>  (95) 
84

>  <SMILES>  (95) 
COc1ccccc1S(=O)(=O)C[C@H]([N-]C(=O)Cc1cccc(C(N)=[NH2+])c1)c1cc2ccccc2cn1

>  <Energy>  (95) 
67.33045675303678

>  <Genealogy>  (95) 
COc1ccccc1S(=O)(=O)CC([N-]C(=O)Cc1cccc(C(N)=[NH2+])c1)c1cc2ccccc2cn1 (protonated)
COc1ccccc1S(=O)(=O)C[C@H]([N-]C(=O)Cc1cccc(C(N)=[NH2+])c1)c1cc2ccccc2cn1 (chirality)
COc1ccccc1S(=O)(=O)C[C@H]([N-]C(=O)Cc1cccc(C(N)=[NH2+])c1)c1cc2ccccc2cn1 (3D coordinates assigned)
COc1ccccc1S(=O)(=O)C[C@H]([N-]C(=O)Cc1cccc(C(N)=[NH2+])c1)c1cc2ccccc2cn1 (optimized conformer: 67.33045675303678 kcal/mol)

>  <smiles>  (95) 
COc1ccccc1S(=O)(=O)CC(NC(=O)Cc1cccc(C(=N)N)c1)c1cc2ccccc2cn1

>  <score_type>  (95) 
oracle

>  <origin>  (95) 
adg

>  <m_score__min__energy>  (95) 
-9.5999999999999996

>  <m_primary>  (95) 
energy

$$$$
