0:0
     RDKit          3D

 56 59  0  0  0  0  0  0  0  0999 V2000
   59.4940   25.3450   45.6260 C   0  0  0  0  0  0  0  0  0  0  0  0
   57.9980   25.3440   45.7210 C   0  0  0  0  0  0  0  0  0  0  0  0
   57.1910   26.3830   46.1660 C   0  0  0  0  0  0  0  0  0  0  0  0
   57.6120   27.7650   46.5790 C   0  0  0  0  0  0  0  0  0  0  0  0
   57.7200   28.6480   45.3700 C   0  0  0  0  0  0  0  0  0  0  0  0
   58.5280   28.1050   44.0470 S   0  0  0  0  0  0  0  0  0  0  0  0
   57.1120   29.9500   45.3870 N   0  0  0  0  0  0  0  0  0  0  0  0
   57.7190   31.1260   44.8290 C   0  0  0  0  0  0  0  0  0  0  0  0
   58.8420   31.0650   44.2590 O   0  0  0  0  0  0  0  0  0  0  0  0
   57.0600   32.4600   45.0030 C   0  0  0  0  0  0  0  0  0  0  0  0
   57.9840   33.3980   45.7280 C   0  0  0  0  0  0  0  0  0  0  0  0
   58.2210   33.2420   47.1050 C   0  0  0  0  0  0  0  0  0  0  0  0
   59.1150   34.0890   47.7680 C   0  0  0  0  0  0  0  0  0  0  0  0
   59.7830   35.0930   47.0610 C   0  0  0  0  0  0  0  0  0  0  0  0
   59.5610   35.2510   45.6900 C   0  0  0  0  0  0  0  0  0  0  0  0
   58.6700   34.4030   45.0230 C   0  0  0  0  0  0  0  0  0  0  0  0
   55.8900   25.9540   45.9970 C   0  0  0  0  0  0  0  0  0  0  0  0
   54.7590   26.7120   46.2770 O   0  0  0  0  0  0  0  0  0  0  0  0
   55.8490   24.7050   45.4880 N   0  0  0  0  0  0  0  0  0  0  0  0
   54.6180   24.0160   45.0900 C   0  0  0  0  0  0  0  0  0  0  0  0
   54.0070   23.3130   46.2750 C   0  0  0  0  0  0  0  0  0  0  0  0
   54.7850   23.0200   47.4060 C   0  0  0  0  0  0  0  0  0  0  0  0
   54.2030   22.3530   48.4870 C   0  0  0  0  0  0  0  0  0  0  0  0
   52.8970   21.9810   48.4380 N   0  0  0  0  0  0  0  0  0  0  0  0
   52.1220   22.2410   47.3500 C   0  0  0  0  0  0  0  0  0  0  0  0
   52.6620   22.9110   46.2500 C   0  0  0  0  0  0  0  0  0  0  0  0
   57.1400   24.3300   45.3080 C   0  0  0  0  0  0  0  0  0  0  0  0
   57.5680   23.0810   44.7350 N   0  0  0  0  0  0  0  0  0  0  0  0
   57.0610   22.1410   43.7160 C   0  0  0  0  0  0  0  0  0  0  0  0
   58.1970   21.1770   43.7970 C   0  0  0  0  0  0  0  0  0  0  0  0
   58.7030   22.1370   44.8180 C   0  0  0  0  0  0  0  0  0  0  0  0
   59.9257   25.3453   46.6378 H   0  0  0  0  0  0  0  0  0  0  0  0
   59.8277   24.4471   45.0853 H   0  0  0  0  0  0  0  0  0  0  0  0
   59.8265   26.2434   45.0853 H   0  0  0  0  0  0  0  0  0  0  0  0
   56.8652   28.1826   47.2703 H   0  0  0  0  0  0  0  0  0  0  0  0
   58.5910   27.7118   47.0777 H   0  0  0  0  0  0  0  0  0  0  0  0
   56.2550   30.0770   45.9710 H   0  0  0  0  0  0  0  0  0  0  0  0
   56.8176   32.8784   44.0150 H   0  0  0  0  0  0  0  0  0  0  0  0
   56.1386   32.3342   45.5905 H   0  0  0  0  0  0  0  0  0  0  0  0
   57.7008   32.4500   47.6636 H   0  0  0  0  0  0  0  0  0  0  0  0
   59.2926   33.9650   48.8465 H   0  0  0  0  0  0  0  0  0  0  0  0
   60.4843   35.7596   47.5843 H   0  0  0  0  0  0  0  0  0  0  0  0
   60.0868   36.0421   45.1354 H   0  0  0  0  0  0  0  0  0  0  0  0
   58.5053   34.5230   43.9420 H   0  0  0  0  0  0  0  0  0  0  0  0
   53.9017   24.7515   44.6951 H   0  0  0  0  0  0  0  0  0  0  0  0
   54.8580   23.2717   44.3164 H   0  0  0  0  0  0  0  0  0  0  0  0
   55.8446   23.3132   47.4410 H   0  0  0  0  0  0  0  0  0  0  0  0
   54.8039   22.1283   49.3805 H   0  0  0  0  0  0  0  0  0  0  0  0
   51.0690   21.9231   47.3369 H   0  0  0  0  0  0  0  0  0  0  0  0
   52.0375   23.1224   45.3695 H   0  0  0  0  0  0  0  0  0  0  0  0
   56.1000   21.6872   43.9999 H   0  0  0  0  0  0  0  0  0  0  0  0
   56.8323   22.5582   42.7242 H   0  0  0  0  0  0  0  0  0  0  0  0
   57.9437   20.1743   44.1716 H   0  0  0  0  0  0  0  0  0  0  0  0
   58.7802   20.8382   42.9280 H   0  0  0  0  0  0  0  0  0  0  0  0
   58.8026   21.6816   45.8143 H   0  0  0  0  0  0  0  0  0  0  0  0
   59.7085   22.5523   44.6554 H   0  0  0  0  0  0  0  0  0  0  0  0
  1  2  1  0
  2  3  1  0
  3  4  1  0
  4  5  1  0
  5  6  2  0
  5  7  1  0
  7  8  1  0
  8  9  2  0
  8 10  1  0
 10 11  1  0
 11 12  2  0
 12 13  1  0
 13 14  2  0
 14 15  1  0
 15 16  2  0
  3 17  2  0
 17 18  1  0
 17 19  1  0
 19 20  1  0
 20 21  1  0
 21 22  2  0
 22 23  1  0
 23 24  2  0
 24 25  1  0
 25 26  2  0
 19 27  1  0
 27 28  1  0
 28 29  1  0
 29 30  1  0
 30 31  1  0
 27  2  2  0
 31 28  1  0
 16 11  1  0
 26 21  1  0
  1 32  1  0
  1 33  1  0
  1 34  1  0
  4 35  1  0
  4 36  1  0
  7 37  1  0
 10 38  1  0
 10 39  1  0
 12 40  1  0
 13 41  1  0
 14 42  1  0
 15 43  1  0
 16 44  1  0
 20 45  1  0
 20 46  1  0
 22 47  1  0
 23 48  1  0
 25 49  1  0
 26 50  1  0
 29 51  1  0
 29 52  1  0
 30 53  1  0
 30 54  1  0
 31 55  1  0
 31 56  1  0
M  CHG  1  18  -1
M  END
>  <UniqueID>  (1) 
1

>  <SMILES>  (1) 
Cc1c(CC(=S)NC(=O)Cc2ccccc2)c([O-])n(Cc2ccncc2)c1N1CCC1

>  <Energy>  (1) 
125.93166370850763

>  <Genealogy>  (1) 
Cc1c(CC(=S)NC(=O)Cc2ccccc2)c([O-])n(Cc2ccncc2)c1N1CCC1 (protonated)
Cc1c(CC(=S)NC(=O)Cc2ccccc2)c([O-])n(Cc2ccncc2)c1N1CCC1 (3D coordinates assigned)
Cc1c(CC(=S)NC(=O)Cc2ccccc2)c([O-])n(Cc2ccncc2)c1N1CCC1 (nonaromatic ring conformer: 125.93166370850763 kcal/mol)

>  <smiles>  (1) 
Cc1c(CC(=S)NC(=O)Cc2ccccc2)c(O)n(Cc2ccncc2)c1N1CCC1

>  <score_type>  (1) 
oracle

>  <origin>  (1) 
adg

>  <m_score__min__energy>  (1) 
-11.92

>  <m_primary>  (1) 
energy

$$$$
1:0
     RDKit          3D

 78 81  0  0  0  0  0  0  0  0999 V2000
   63.7180   33.0930   46.7980 C   0  0  0  0  0  0  0  0  0  0  0  0
   62.9120   33.8570   47.8450 C   0  0  0  0  0  0  0  0  0  0  0  0
   63.1380   33.3070   49.1890 N   0  0  0  0  0  0  0  0  0  0  0  0
   63.6570   31.9360   49.3020 C   0  0  0  0  0  0  0  0  0  0  0  0
   64.9220   31.9300   50.1150 C   0  0  0  0  0  0  0  0  0  0  0  0
   65.9690   32.8140   49.8070 C   0  0  0  0  0  0  0  0  0  0  0  0
   67.1400   32.8130   50.5700 C   0  0  0  0  0  0  0  0  0  0  0  0
   67.2710   31.9370   51.6500 C   0  0  0  0  0  0  0  0  0  0  0  0
   66.2260   31.0670   51.9760 C   0  0  0  0  0  0  0  0  0  0  0  0
   65.0530   31.0650   51.2150 C   0  0  0  0  0  0  0  0  0  0  0  0
   62.8370   34.0610   50.3900 C   0  0  0  0  0  0  0  0  0  0  0  0
   63.2330   35.2580   50.4790 O   0  0  0  0  0  0  0  0  0  0  0  0
   62.0720   33.4980   51.5320 C   0  0  0  0  0  0  0  0  0  0  0  0
   62.6400   33.5010   52.8190 C   0  0  0  0  0  0  0  0  0  0  0  0
   61.8870   33.0560   53.9070 C   0  0  0  0  0  0  0  0  0  0  0  0
   62.3880   33.0510   55.0600 O   0  0  0  0  0  0  0  0  0  0  0  0
   60.5770   32.6180   53.7130 C   0  0  0  0  0  0  0  0  0  0  0  0
   60.0350   32.6220   52.4210 C   0  0  0  0  0  0  0  0  0  0  0  0
   58.6340   32.2230   52.2110 C   0  0  0  0  0  0  0  0  0  0  0  0
   58.0820   31.4600   53.0450 O   0  0  0  0  0  0  0  0  0  0  0  0
   57.8910   32.6430   51.0590 N   0  0  0  0  0  0  0  0  0  0  0  0
   58.1680   32.2090   49.6890 C   0  0  1  0  0  0  0  0  0  0  0  0
   59.2520   33.1390   49.0800 C   0  0  0  0  0  0  0  0  0  0  0  0
   58.9390   33.5570   47.6680 C   0  0  0  0  0  0  0  0  0  0  0  0
   59.8870   34.2540   46.9010 C   0  0  0  0  0  0  0  0  0  0  0  0
   59.5950   34.6170   45.5830 C   0  0  0  0  0  0  0  0  0  0  0  0
   58.3520   34.2990   45.0260 C   0  0  0  0  0  0  0  0  0  0  0  0
   57.3970   33.6210   45.7900 C   0  0  0  0  0  0  0  0  0  0  0  0
   57.6850   33.2560   47.1080 C   0  0  0  0  0  0  0  0  0  0  0  0
   58.5460   30.7020   49.7200 C   0  0  2  0  0  0  0  0  0  0  0  0
   57.8470   30.0350   50.7430 O   0  0  0  0  0  0  0  0  0  0  0  0
   60.0600   30.4700   49.8720 C   0  0  0  0  0  0  0  0  0  0  0  0
   60.6050   29.6930   48.7470 N   0  0  0  0  0  0  0  0  0  0  0  0
   60.7630   30.4890   47.5150 C   0  0  0  0  0  0  0  0  0  0  0  0
   59.9900   29.8470   46.3950 C   0  0  0  0  0  0  0  0  0  0  0  0
   60.5850   28.8350   45.6260 C   0  0  0  0  0  0  0  0  0  0  0  0
   59.8680   28.2110   44.6050 C   0  0  0  0  0  0  0  0  0  0  0  0
   58.5510   28.5900   44.3390 C   0  0  0  0  0  0  0  0  0  0  0  0
   57.9350   29.6080   45.0930 C   0  0  0  0  0  0  0  0  0  0  0  0
   56.5380   30.0110   44.8100 C   0  0  0  0  0  0  0  0  0  0  0  0
   55.4750   29.0620   44.9000 N   0  0  0  0  0  0  0  0  0  0  0  0
   56.2710   31.2000   44.4900 O   0  0  0  0  0  0  0  0  0  0  0  0
   58.6680   30.2350   46.1190 C   0  0  0  0  0  0  0  0  0  0  0  0
   60.7870   33.0670   51.3720 N   0  0  0  0  0  0  0  0  0  0  0  0
   64.4280   32.4200   47.3011 H   0  0  0  0  0  0  0  0  0  0  0  0
   63.0356   32.5023   46.1692 H   0  0  0  0  0  0  0  0  0  0  0  0
   64.2713   33.8060   46.1692 H   0  0  0  0  0  0  0  0  0  0  0  0
   63.2171   34.9138   47.8329 H   0  0  0  0  0  0  0  0  0  0  0  0
   61.8433   33.7613   47.6026 H   0  0  0  0  0  0  0  0  0  0  0  0
   62.9051   31.3013   49.7936 H   0  0  0  0  0  0  0  0  0  0  0  0
   63.8728   31.5477   48.2957 H   0  0  0  0  0  0  0  0  0  0  0  0
   65.8670   33.5102   48.9615 H   0  0  0  0  0  0  0  0  0  0  0  0
   67.9594   33.5029   50.3197 H   0  0  0  0  0  0  0  0  0  0  0  0
   68.1966   31.9315   52.2443 H   0  0  0  0  0  0  0  0  0  0  0  0
   66.3268   30.3835   52.8320 H   0  0  0  0  0  0  0  0  0  0  0  0
   64.2300   30.3842   51.4781 H   0  0  0  0  0  0  0  0  0  0  0  0
   63.6719   33.8521   52.9672 H   0  0  0  0  0  0  0  0  0  0  0  0
   59.9750   32.2726   54.5664 H   0  0  0  0  0  0  0  0  0  0  0  0
   57.2906   32.2956   49.0313 H   0  0  0  0  0  0  0  0  0  0  0  0
   59.3310   34.0415   49.7039 H   0  0  0  0  0  0  0  0  0  0  0  0
   60.1957   32.5743   49.0557 H   0  0  0  0  0  0  0  0  0  0  0  0
   60.8619   34.5149   47.3386 H   0  0  0  0  0  0  0  0  0  0  0  0
   60.3443   35.1538   44.9827 H   0  0  0  0  0  0  0  0  0  0  0  0
   58.1258   34.5821   43.9874 H   0  0  0  0  0  0  0  0  0  0  0  0
   56.4180   33.3747   45.3531 H   0  0  0  0  0  0  0  0  0  0  0  0
   56.9279   32.7314   47.7093 H   0  0  0  0  0  0  0  0  0  0  0  0
   58.2514   30.2849   48.7457 H   0  0  0  0  0  0  0  0  0  0  0  0
   57.3530   30.7200   51.2650 H   0  0  0  0  0  0  0  0  0  0  0  0
   60.5682   31.4447   49.9119 H   0  0  0  0  0  0  0  0  0  0  0  0
   60.2294   29.9002   50.7976 H   0  0  0  0  0  0  0  0  0  0  0  0
   61.5510   29.3490   49.0350 H   0  0  0  0  0  0  0  0  0  0  0  0
   60.3824   31.5068   47.6857 H   0  0  0  0  0  0  0  0  0  0  0  0
   61.8281   30.5341   47.2440 H   0  0  0  0  0  0  0  0  0  0  0  0
   61.6227   28.5321   45.8295 H   0  0  0  0  0  0  0  0  0  0  0  0
   60.3417   27.4180   44.0077 H   0  0  0  0  0  0  0  0  0  0  0  0
   57.9905   28.0903   43.5352 H   0  0  0  0  0  0  0  0  0  0  0  0
   54.5200   29.3510   45.2060 H   0  0  0  0  0  0  0  0  0  0  0  0
   58.2010   31.0365   46.7102 H   0  0  0  0  0  0  0  0  0  0  0  0
  1  2  1  0
  2  3  1  0
  3  4  1  0
  4  5  1  0
  5  6  2  0
  6  7  1  0
  7  8  2  0
  8  9  1  0
  9 10  2  0
  3 11  1  0
 11 12  2  0
 11 13  1  0
 13 14  2  0
 14 15  1  0
 15 16  2  0
 15 17  1  0
 17 18  2  0
 18 19  1  0
 19 20  2  0
 19 21  1  0
 21 22  1  0
 22 23  1  0
 23 24  1  0
 24 25  2  0
 25 26  1  0
 26 27  2  0
 27 28  1  0
 28 29  2  0
 22 30  1  0
 30 31  1  0
 30 32  1  0
 32 33  1  0
 33 34  1  0
 34 35  1  0
 35 36  2  0
 36 37  1  0
 37 38  2  0
 38 39  1  0
 39 40  1  0
 40 41  1  0
 40 42  2  0
 39 43  2  0
 18 44  1  0
 10  5  1  0
 44 13  1  0
 29 24  1  0
 43 35  1  0
  1 45  1  0
  1 46  1  0
  1 47  1  0
  2 48  1  0
  2 49  1  0
  4 50  1  0
  4 51  1  0
  6 52  1  0
  7 53  1  0
  8 54  1  0
  9 55  1  0
 10 56  1  0
 14 57  1  0
 17 58  1  0
 22 59  1  6
 23 60  1  0
 23 61  1  0
 25 62  1  0
 26 63  1  0
 27 64  1  0
 28 65  1  0
 29 66  1  0
 30 67  1  6
 31 68  1  0
 32 69  1  0
 32 70  1  0
 33 71  1  0
 34 72  1  0
 34 73  1  0
 36 74  1  0
 37 75  1  0
 38 76  1  0
 41 77  1  0
 43 78  1  0
M  CHG  3  21  -1  41  -1  44  -1
M  END
>  <UniqueID>  (2) 
2

>  <SMILES>  (2) 
CCN(Cc1ccccc1)C(=O)c1cc(=O)cc(C(=O)[N-][C@@H](Cc2ccccc2)[C@H](O)CNCc2cccc(C([NH-])=O)c2)[n-]1

>  <Energy>  (2) 
82.50945109421045

>  <Genealogy>  (2) 
CCN(Cc1ccccc1)C(=O)c1cc(=O)cc(C(=O)[N-]C(Cc2ccccc2)C(O)CNCc2cccc(C([NH-])=O)c2)[n-]1 (protonated)
CCN(Cc1ccccc1)C(=O)c1cc(=O)cc(C(=O)[N-][C@@H](Cc2ccccc2)[C@H](O)CNCc2cccc(C([NH-])=O)c2)[n-]1 (chirality)
CCN(Cc1ccccc1)C(=O)c1cc(=O)cc(C(=O)[N-][C@@H](Cc2ccccc2)[C@H](O)CNCc2cccc(C([NH-])=O)c2)[n-]1 (3D coordinates assigned)
CCN(Cc1ccccc1)C(=O)c1cc(=O)cc(C(=O)[N-][C@@H](Cc2ccccc2)[C@H](O)CNCc2cccc(C([NH-])=O)c2)[n-]1 (optimized conformer: 82.50945109421045 kcal/mol)

>  <smiles>  (2) 
CCN(Cc1ccccc1)C(=O)c1cc(=O)cc(C(=O)NC(Cc2ccccc2)C(O)CNCc2cccc(C(N)=O)c2)[nH]1

>  <score_type>  (2) 
oracle

>  <origin>  (2) 
adg

>  <m_score__min__energy>  (2) 
-17.219999999999999

>  <m_primary>  (2) 
energy

$$$$
2:0
     RDKit          3D

 49 52  0  0  0  0  0  0  0  0999 V2000
   57.4098   35.0058   46.7975 H   0  0  0  0  0  0  0  0  0  0  0  0
   58.3250   34.3970   46.7550 C   0  0  0  0  0  0  0  0  0  0  0  0
   59.6730   34.5680   47.7470 S   0  0  0  0  0  0  0  0  0  0  0  0
   60.4930   33.2800   47.0260 C   0  0  0  0  0  0  0  0  0  0  0  0
   61.6910   32.8690   47.3240 N   0  0  0  0  0  0  0  0  0  0  0  0
   62.0030   31.6690   48.0460 C   0  0  0  0  0  0  0  0  0  0  0  0
   63.2130   31.3860   48.2570 O   0  0  0  0  0  0  0  0  0  0  0  0
   60.9510   30.7250   48.4790 C   0  0  0  0  0  0  0  0  0  0  0  0
   60.6210   29.5770   47.7610 C   0  0  0  0  0  0  0  0  0  0  0  0
   61.0973   29.2442   46.8270 H   0  0  0  0  0  0  0  0  0  0  0  0
   59.3720   28.7860   48.5630 S   0  0  0  0  0  0  0  0  0  0  0  0
   59.2260   29.9040   49.8130 C   0  0  0  0  0  0  0  0  0  0  0  0
   58.3140   29.8400   50.9210 N   0  0  0  0  0  0  0  0  0  0  0  0
   58.3570   28.9880   51.5260 H   0  0  0  0  0  0  0  0  0  0  0  0
   57.3790   30.8780   51.2640 C   0  0  0  0  0  0  0  0  0  0  0  0
   57.5450   32.0480   50.8200 O   0  0  0  0  0  0  0  0  0  0  0  0
   56.2350   30.6010   52.1640 C   0  0  0  0  0  0  0  0  0  0  0  0
   56.4390   30.0600   53.4480 C   0  0  0  0  0  0  0  0  0  0  0  0
   57.4614   29.8572   53.7995 H   0  0  0  0  0  0  0  0  0  0  0  0
   55.3500   29.7790   54.2790 C   0  0  0  0  0  0  0  0  0  0  0  0
   55.5189   29.3567   55.2805 H   0  0  0  0  0  0  0  0  0  0  0  0
   54.0490   30.0330   53.8410 C   0  0  0  0  0  0  0  0  0  0  0  0
   53.1945   29.8152   54.4986 H   0  0  0  0  0  0  0  0  0  0  0  0
   53.8330   30.5640   52.5670 C   0  0  0  0  0  0  0  0  0  0  0  0
   52.8080   30.7636   52.2212 H   0  0  0  0  0  0  0  0  0  0  0  0
   54.9190   30.8420   51.7310 C   0  0  0  0  0  0  0  0  0  0  0  0
   54.7423   31.2528   50.7260 H   0  0  0  0  0  0  0  0  0  0  0  0
   60.1620   30.9100   49.6280 C   0  0  0  0  0  0  0  0  0  0  0  0
   60.2757   31.7653   50.3103 H   0  0  0  0  0  0  0  0  0  0  0  0
   59.7710   32.7250   46.0310 N   0  0  0  0  0  0  0  0  0  0  0  0
   58.5710   33.3490   45.8700 C   0  0  0  0  0  0  0  0  0  0  0  0
   57.5950   32.8890   44.8740 C   0  0  0  0  0  0  0  0  0  0  0  0
   57.4400   33.5650   43.8240 O   0  0  0  0  0  0  0  0  0  0  0  0
   56.7840   31.7250   45.0770 N   0  0  0  0  0  0  0  0  0  0  0  0
   56.6470   30.6130   44.1400 C   0  0  0  0  0  0  0  0  0  0  0  0
   55.5805   30.4580   43.9198 H   0  0  0  0  0  0  0  0  0  0  0  0
   57.1993   30.8599   43.2213 H   0  0  0  0  0  0  0  0  0  0  0  0
   57.2170   29.3510   44.7140 C   0  0  0  0  0  0  0  0  0  0  0  0
   56.3790   28.4090   45.2310 N   0  0  0  0  0  0  0  0  0  0  0  0
   56.8380   27.2410   45.7620 C   0  0  0  0  0  0  0  0  0  0  0  0
   55.8780   26.2750   46.3240 C   0  0  0  0  0  0  0  0  0  0  0  0
   56.2750   25.3780   47.1120 O   0  0  0  0  0  0  0  0  0  0  0  0
   54.5300   26.3420   45.9920 O   0  0  0  0  0  0  0  0  0  0  0  0
   58.2160   26.9810   45.7700 C   0  0  0  0  0  0  0  0  0  0  0  0
   58.6013   26.0429   46.1961 H   0  0  0  0  0  0  0  0  0  0  0  0
   59.0950   27.9240   45.2320 C   0  0  0  0  0  0  0  0  0  0  0  0
   60.1775   27.7287   45.2289 H   0  0  0  0  0  0  0  0  0  0  0  0
   58.5980   29.1150   44.6980 C   0  0  0  0  0  0  0  0  0  0  0  0
   59.2840   29.8603   44.2691 H   0  0  0  0  0  0  0  0  0  0  0  0
  1  2  1  0
  2  3  1  0
  3  4  1  0
  4  5  2  0
  5  6  1  0
  6  7  2  0
  6  8  1  0
  8  9  2  0
  9 10  1  0
  9 11  1  0
 11 12  1  0
 12 13  1  0
 13 14  1  0
 13 15  1  0
 15 16  2  0
 15 17  1  0
 17 18  2  0
 18 19  1  0
 18 20  1  0
 20 21  1  0
 20 22  2  0
 22 23  1  0
 22 24  1  0
 24 25  1  0
 24 26  2  0
 26 27  1  0
 12 28  2  0
 28 29  1  0
  4 30  1  0
 30 31  1  0
 31 32  1  0
 32 33  2  0
 32 34  1  0
 34 35  1  0
 35 36  1  0
 35 37  1  0
 35 38  1  0
 38 39  2  0
 39 40  1  0
 40 41  1  0
 41 42  2  0
 41 43  1  0
 40 44  2  0
 44 45  1  0
 44 46  1  0
 46 47  1  0
 46 48  2  0
 48 49  1  0
 31  2  2  0
 48 38  1  0
 28  8  1  0
 26 17  1  0
M  CHG  3  30  -1  34  -1  43  -1
M  END
>  <UniqueID>  (3) 
3

>  <SMILES>  (3) 
O=C(/N=c1/[n-]c(C(=O)[N-]Cc2cccc(C(=O)[O-])n2)cs1)c1csc(NC(=O)c2ccccc2)c1

>  <Energy>  (3) 
124.73399131826505

>  <Genealogy>  (3) 
O=C(N=c1[n-]c(C(=O)[N-]Cc2cccc(C(=O)[O-])n2)cs1)c1csc(NC(=O)c2ccccc2)c1 (protonated)
O=C(/N=c1/[n-]c(C(=O)[N-]Cc2cccc(C(=O)[O-])n2)cs1)c1csc(NC(=O)c2ccccc2)c1 (cis-trans isomerization)
O=C(/N=c1/[n-]c(C(=O)[N-]Cc2cccc(C(=O)[O-])n2)cs1)c1csc(NC(=O)c2ccccc2)c1 (3D coordinates assigned)
O=C(/N=c1/[n-]c(C(=O)[N-]Cc2cccc(C(=O)[O-])n2)cs1)c1csc(NC(=O)c2ccccc2)c1 (optimized conformer: 124.73399131826505 kcal/mol)

>  <smiles>  (3) 
O=C(N=c1[nH]c(C(=O)NCc2cccc(C(=O)O)n2)cs1)c1csc(NC(=O)c2ccccc2)c1

>  <score_type>  (3) 
oracle

>  <origin>  (3) 
adg

>  <m_score__min__energy>  (3) 
-15.5

>  <m_primary>  (3) 
energy

$$$$
3:0
     RDKit          3D

 52 55  0  0  0  0  0  0  0  0999 V2000
   57.9970   32.4240   41.8410 C   0  0  0  0  0  0  0  0  0  0  0  0
   57.5740   31.4960   42.9410 C   0  0  0  0  0  0  0  0  0  0  0  0
   56.6470   30.4740   42.6920 C   0  0  0  0  0  0  0  0  0  0  0  0
   56.2910   29.5840   43.7080 C   0  0  0  0  0  0  0  0  0  0  0  0
   56.8580   29.7070   44.9800 C   0  0  0  0  0  0  0  0  0  0  0  0
   57.7840   30.7250   45.2490 C   0  0  0  0  0  0  0  0  0  0  0  0
   58.3690   30.8200   46.5600 N   0  0  0  0  0  0  0  0  0  0  0  0
   58.8830   29.6860   47.2810 C   0  0  0  0  0  0  0  0  0  0  0  0
   59.0450   28.5840   46.6890 O   0  0  0  0  0  0  0  0  0  0  0  0
   59.2370   29.7820   48.7140 C   0  0  0  0  0  0  0  0  0  0  0  0
   60.1110   28.8680   49.3230 C   0  0  0  0  0  0  0  0  0  0  0  0
   60.3860   28.9610   50.6900 C   0  0  0  0  0  0  0  0  0  0  0  0
   59.7790   29.9520   51.4660 C   0  0  0  0  0  0  0  0  0  0  0  0
   58.8850   30.8630   50.8800 C   0  0  0  0  0  0  0  0  0  0  0  0
   58.2140   31.9000   51.7040 C   0  0  0  0  0  0  0  0  0  0  0  0
   58.1560   33.0860   51.2840 O   0  0  0  0  0  0  0  0  0  0  0  0
   57.5880   31.5780   52.9540 N   0  0  0  0  0  0  0  0  0  0  0  0
   56.3860   30.8050   53.0630 C   0  0  0  0  0  0  0  0  0  0  0  0
   56.1020   30.0870   54.2340 C   0  0  0  0  0  0  0  0  0  0  0  0
   54.9860   29.2510   54.2880 C   0  0  0  0  0  0  0  0  0  0  0  0
   54.1620   29.1090   53.1690 C   0  0  0  0  0  0  0  0  0  0  0  0
   54.4290   29.8250   51.9950 C   0  0  0  0  0  0  0  0  0  0  0  0
   53.6400   29.5480   50.8300 N   0  0  0  0  0  0  0  0  0  0  0  0
   52.3690   30.1200   50.5020 C   0  0  0  0  0  0  0  0  0  0  0  0
   51.7740   29.7960   49.4380 O   0  0  0  0  0  0  0  0  0  0  0  0
   51.7670   31.1190   51.3960 C   0  0  0  0  0  0  0  0  0  0  0  0
   51.5330   30.9420   52.7480 C   0  0  0  0  0  0  0  0  0  0  0  0
   50.9360   32.1010   53.1890 C   0  0  0  0  0  0  0  0  0  0  0  0
   50.8390   32.9140   52.0820 C   0  0  0  0  0  0  0  0  0  0  0  0
   50.2900   34.1890   52.0840 O   0  0  0  0  0  0  0  0  0  0  0  0
   51.3410   32.3280   50.9780 N   0  0  0  0  0  0  0  0  0  0  0  0
   55.5370   30.6940   51.9550 C   0  0  0  0  0  0  0  0  0  0  0  0
   58.6490   30.7860   49.4960 C   0  0  0  0  0  0  0  0  0  0  0  0
   58.1600   31.6010   44.2120 C   0  0  0  0  0  0  0  0  0  0  0  0
   58.4158   33.3429   42.2772 H   0  0  0  0  0  0  0  0  0  0  0  0
   58.7599   31.9323   41.2196 H   0  0  0  0  0  0  0  0  0  0  0  0
   57.1254   32.6773   41.2196 H   0  0  0  0  0  0  0  0  0  0  0  0
   56.1984   30.3727   41.6928 H   0  0  0  0  0  0  0  0  0  0  0  0
   55.5628   28.7845   43.5068 H   0  0  0  0  0  0  0  0  0  0  0  0
   56.5759   29.0008   45.7748 H   0  0  0  0  0  0  0  0  0  0  0  0
   58.4550   31.7700   46.9810 H   0  0  0  0  0  0  0  0  0  0  0  0
   60.5812   28.0756   48.7221 H   0  0  0  0  0  0  0  0  0  0  0  0
   61.0837   28.2506   51.1575 H   0  0  0  0  0  0  0  0  0  0  0  0
   60.0024   30.0189   52.5410 H   0  0  0  0  0  0  0  0  0  0  0  0
   56.7596   30.1830   55.1106 H   0  0  0  0  0  0  0  0  0  0  0  0
   54.7548   28.7029   55.2133 H   0  0  0  0  0  0  0  0  0  0  0  0
   53.2974   28.4302   53.2100 H   0  0  0  0  0  0  0  0  0  0  0  0
   51.7754   30.0535   53.3496 H   0  0  0  0  0  0  0  0  0  0  0  0
   50.6052   32.3301   54.2128 H   0  0  0  0  0  0  0  0  0  0  0  0
   55.7359   31.2873   51.0504 H   0  0  0  0  0  0  0  0  0  0  0  0
   57.9911   31.5269   49.0183 H   0  0  0  0  0  0  0  0  0  0  0  0
   58.9195   32.3741   44.4000 H   0  0  0  0  0  0  0  0  0  0  0  0
  1  2  1  0
  2  3  2  0
  3  4  1  0
  4  5  2  0
  5  6  1  0
  6  7  1  0
  7  8  1  0
  8  9  2  0
  8 10  1  0
 10 11  2  0
 11 12  1  0
 12 13  2  0
 13 14  1  0
 14 15  1  0
 15 16  2  0
 15 17  1  0
 17 18  1  0
 18 19  2  0
 19 20  1  0
 20 21  2  0
 21 22  1  0
 22 23  1  0
 23 24  1  0
 24 25  2  0
 24 26  1  0
 26 27  2  0
 27 28  1  0
 28 29  2  0
 29 30  1  0
 29 31  1  0
 22 32  2  0
 14 33  2  0
  6 34  2  0
 34  2  1  0
 33 10  1  0
 32 18  1  0
 31 26  1  0
  1 35  1  0
  1 36  1  0
  1 37  1  0
  3 38  1  0
  4 39  1  0
  5 40  1  0
  7 41  1  0
 11 42  1  0
 12 43  1  0
 13 44  1  0
 19 45  1  0
 20 46  1  0
 21 47  1  0
 27 48  1  0
 28 49  1  0
 32 50  1  0
 33 51  1  0
 34 52  1  0
M  CHG  4  17  -1  23  -1  30  -1  31  -1
M  END
>  <UniqueID>  (4) 
4

>  <SMILES>  (4) 
Cc1cccc(NC(=O)c2cccc(C(=O)[N-]c3cccc([N-]C(=O)c4ccc([O-])[n-]4)c3)c2)c1

>  <Energy>  (4) 
98.80572724475999

>  <Genealogy>  (4) 
Cc1cccc(NC(=O)c2cccc(C(=O)[N-]c3cccc([N-]C(=O)c4ccc([O-])[n-]4)c3)c2)c1 (protonated)
Cc1cccc(NC(=O)c2cccc(C(=O)[N-]c3cccc([N-]C(=O)c4ccc([O-])[n-]4)c3)c2)c1 (3D coordinates assigned)
Cc1cccc(NC(=O)c2cccc(C(=O)[N-]c3cccc([N-]C(=O)c4ccc([O-])[n-]4)c3)c2)c1 (optimized conformer: 98.80572724475999 kcal/mol)

>  <smiles>  (4) 
Cc1cccc(NC(=O)c2cccc(C(=O)Nc3cccc(NC(=O)c4ccc(O)[nH]4)c3)c2)c1

>  <score_type>  (4) 
oracle

>  <origin>  (4) 
adg

>  <m_score__min__energy>  (4) 
-18.289999999999999

>  <m_primary>  (4) 
energy

$$$$
4:0
     RDKit          3D

 41 43  0  0  0  0  0  0  0  0999 V2000
   59.0400   29.2380   47.1500 C   0  0  0  0  0  0  0  0  0  0  0  0
   58.2020   29.3940   46.1140 C   0  0  0  0  0  0  0  0  0  0  0  0
   57.6460   28.3970   45.2980 C   0  0  0  0  0  0  0  0  0  0  0  0
   57.9570   27.0930   45.1850 C   0  0  0  0  0  0  0  0  0  0  0  0
   57.3960   25.9990   45.9940 C   0  0  0  0  0  0  0  0  0  0  0  0
   58.0820   24.9130   46.3980 N   0  0  0  0  0  0  0  0  0  0  0  0
   57.1340   24.1420   46.9730 C   0  0  0  0  0  0  0  0  0  0  0  0
   57.3920   23.0260   47.4960 O   0  0  0  0  0  0  0  0  0  0  0  0
   55.8850   24.6550   46.9350 N   0  0  0  0  0  0  0  0  0  0  0  0
   56.0680   25.8240   46.2980 C   0  0  0  0  0  0  0  0  0  0  0  0
   55.0420   26.7130   45.9950 O   0  0  0  0  0  0  0  0  0  0  0  0
   56.6670   28.9430   44.5450 N   0  0  0  0  0  0  0  0  0  0  0  0
   56.6790   30.2480   44.8710 C   0  0  0  0  0  0  0  0  0  0  0  0
   55.8850   31.0850   44.3630 O   0  0  0  0  0  0  0  0  0  0  0  0
   57.6080   30.5690   45.7950 N   0  0  0  0  0  0  0  0  0  0  0  0
   57.7930   31.8940   46.4000 C   0  0  0  0  0  0  0  0  0  0  0  0
   58.3550   32.8620   45.3930 C   0  0  0  0  0  0  0  0  0  0  0  0
   57.6420   33.2280   44.4220 O   0  0  0  0  0  0  0  0  0  0  0  0
   59.7000   33.3530   45.4830 N   0  0  0  0  0  0  0  0  0  0  0  0
   60.6350   33.0900   46.5370 C   0  0  0  0  0  0  0  0  0  0  0  0
   61.2080   34.1260   47.2910 C   0  0  0  0  0  0  0  0  0  0  0  0
   62.1400   33.8390   48.2920 C   0  0  0  0  0  0  0  0  0  0  0  0
   62.5330   32.5120   48.5500 C   0  0  0  0  0  0  0  0  0  0  0  0
   63.5230   32.2220   49.6200 C   0  0  0  0  0  0  0  0  0  0  0  0
   64.8390   32.9380   49.6980 C   0  0  0  0  0  0  0  0  0  0  0  0
   63.2630   31.3530   50.4950 O   0  0  0  0  0  0  0  0  0  0  0  0
   61.9730   31.4810   47.7680 C   0  0  0  0  0  0  0  0  0  0  0  0
   61.0420   31.7720   46.7670 C   0  0  0  0  0  0  0  0  0  0  0  0
   59.3989   30.1177   47.7044 H   0  0  0  0  0  0  0  0  0  0  0  0
   59.3682   28.2304   47.4451 H   0  0  0  0  0  0  0  0  0  0  0  0
   58.6974   26.8198   44.4188 H   0  0  0  0  0  0  0  0  0  0  0  0
   55.1890   27.4610   45.3290 H   0  0  0  0  0  0  0  0  0  0  0  0
   56.8219   32.2671   46.7574 H   0  0  0  0  0  0  0  0  0  0  0  0
   58.4986   31.8055   47.2393 H   0  0  0  0  0  0  0  0  0  0  0  0
   60.9219   35.1695   47.0929 H   0  0  0  0  0  0  0  0  0  0  0  0
   62.5713   34.6590   48.8849 H   0  0  0  0  0  0  0  0  0  0  0  0
   65.1133   33.0872   50.7528 H   0  0  0  0  0  0  0  0  0  0  0  0
   65.6136   32.3370   49.1992 H   0  0  0  0  0  0  0  0  0  0  0  0
   64.7551   33.9148   49.1992 H   0  0  0  0  0  0  0  0  0  0  0  0
   62.2717   30.4377   47.9475 H   0  0  0  0  0  0  0  0  0  0  0  0
   60.6261   30.9579   46.1553 H   0  0  0  0  0  0  0  0  0  0  0  0
  1  2  2  0
  2  3  1  0
  3  4  2  3
  4  5  1  0
  5  6  1  0
  6  7  1  0
  7  8  2  0
  7  9  1  0
  9 10  1  0
 10 11  1  0
  3 12  1  0
 12 13  1  0
 13 14  2  0
 13 15  1  0
 15 16  1  0
 16 17  1  0
 17 18  2  0
 17 19  1  0
 19 20  1  0
 20 21  2  0
 21 22  1  0
 22 23  2  0
 23 24  1  0
 24 25  1  0
 24 26  2  0
 23 27  1  0
 27 28  2  0
 15  2  1  0
 28 20  1  0
 10  5  2  0
  1 29  1  0
  1 30  1  0
  4 31  1  0
 11 32  1  0
 16 33  1  0
 16 34  1  0
 21 35  1  0
 22 36  1  0
 25 37  1  0
 25 38  1  0
 25 39  1  0
 27 40  1  0
 28 41  1  0
M  CHG  4   6  -1   9  -1  12  -1  19  -1
M  END
>  <UniqueID>  (5) 
5

>  <SMILES>  (5) 
C=c1c(=Cc2[n-]c(=O)[n-]c2O)[n-]c(=O)n1CC(=O)[N-]c1ccc(C(C)=O)cc1

>  <Energy>  (5) 
120.37740313770557

>  <Genealogy>  (5) 
C=c1c(=Cc2[n-]c(=O)[n-]c2O)[n-]c(=O)n1CC(=O)[N-]c1ccc(C(C)=O)cc1 (protonated)
C=c1c(=Cc2[n-]c(=O)[n-]c2O)[n-]c(=O)n1CC(=O)[N-]c1ccc(C(C)=O)cc1 (3D coordinates assigned)
C=c1c(=Cc2[n-]c(=O)[n-]c2O)[n-]c(=O)n1CC(=O)[N-]c1ccc(C(C)=O)cc1 (optimized conformer: 120.37740313770557 kcal/mol)

>  <smiles>  (5) 
C=c1c(=Cc2[nH]c(=O)[nH]c2O)[nH]c(=O)n1CC(=O)Nc1ccc(C(C)=O)cc1

>  <score_type>  (5) 
oracle

>  <origin>  (5) 
adg

>  <m_score__min__energy>  (5) 
-15.66

>  <m_primary>  (5) 
energy

$$$$
5:0
     RDKit          3D

 46 48  0  0  0  0  0  0  0  0999 V2000
   59.5620   33.9300   48.7900 O   0  0  0  0  0  0  0  0  0  0  0  0
   59.3490   32.8670   48.1500 C   0  0  0  0  0  0  0  0  0  0  0  0
   59.7270   31.6160   48.7350 N   0  0  0  0  0  0  0  0  0  0  0  0
   61.1930   30.7680   48.3550 S   0  0  0  0  0  0  0  0  0  0  0  0
   61.1430   29.3950   48.9630 O   0  0  0  0  0  0  0  0  0  0  0  0
   61.3120   30.6270   46.8640 O   0  0  0  0  0  0  0  0  0  0  0  0
   62.5880   31.6300   49.0200 C   0  0  0  0  0  0  0  0  0  0  0  0
   63.2000   31.1530   50.1920 C   0  0  0  0  0  0  0  0  0  0  0  0
   64.3360   31.7810   50.7060 C   0  0  0  0  0  0  0  0  0  0  0  0
   64.8720   32.8950   50.0590 C   0  0  0  0  0  0  0  0  0  0  0  0
   64.2700   33.3840   48.8970 C   0  0  0  0  0  0  0  0  0  0  0  0
   63.1310   32.7610   48.3720 C   0  0  0  0  0  0  0  0  0  0  0  0
   62.3720   33.4900   46.7680 Br  0  0  0  0  0  0  0  0  0  0  0  0
   58.7360   32.9440   46.8140 C   0  0  0  0  0  0  0  0  0  0  0  0
   58.1010   34.1220   46.4030 C   0  0  0  0  0  0  0  0  0  0  0  0
   57.5650   34.2160   45.1170 C   0  0  0  0  0  0  0  0  0  0  0  0
   57.6340   33.1260   44.2460 C   0  0  0  0  0  0  0  0  0  0  0  0
   58.2250   31.9220   44.6600 C   0  0  0  0  0  0  0  0  0  0  0  0
   58.2510   30.8060   43.7550 N   0  0  0  0  0  0  0  0  0  0  0  0
   57.0300   29.5720   43.7150 S   0  0  0  0  0  0  0  0  0  0  0  0
   56.2290   29.7240   42.4520 O   0  0  0  0  0  0  0  0  0  0  0  0
   56.1030   29.7310   44.8870 O   0  0  0  0  0  0  0  0  0  0  0  0
   57.7780   27.9520   43.7470 C   0  0  0  0  0  0  0  0  0  0  0  0
   58.4310   27.7080   45.0780 C   0  0  0  0  0  0  0  0  0  0  0  0
   59.8010   27.9600   45.2490 C   0  0  0  0  0  0  0  0  0  0  0  0
   60.4190   27.6980   46.4750 C   0  0  0  0  0  0  0  0  0  0  0  0
   59.6740   27.1750   47.5360 C   0  0  0  0  0  0  0  0  0  0  0  0
   58.3110   26.9120   47.3710 C   0  0  0  0  0  0  0  0  0  0  0  0
   57.6910   27.1730   46.1450 C   0  0  0  0  0  0  0  0  0  0  0  0
   58.7910   31.8440   45.9440 C   0  0  0  0  0  0  0  0  0  0  0  0
   62.7802   30.2773   50.7087 H   0  0  0  0  0  0  0  0  0  0  0  0
   64.8090   31.3972   51.6220 H   0  0  0  0  0  0  0  0  0  0  0  0
   65.7682   33.3880   50.4637 H   0  0  0  0  0  0  0  0  0  0  0  0
   64.6935   34.2642   48.3911 H   0  0  0  0  0  0  0  0  0  0  0  0
   58.0242   34.9745   47.0939 H   0  0  0  0  0  0  0  0  0  0  0  0
   57.0871   35.1509   44.7889 H   0  0  0  0  0  0  0  0  0  0  0  0
   57.2226   33.2118   43.2294 H   0  0  0  0  0  0  0  0  0  0  0  0
   58.9450   30.8070   42.9730 H   0  0  0  0  0  0  0  0  0  0  0  0
   57.0026   27.1904   43.5777 H   0  0  0  0  0  0  0  0  0  0  0  0
   58.5410   27.8934   42.9568 H   0  0  0  0  0  0  0  0  0  0  0  0
   60.3913   28.3657   44.4141 H   0  0  0  0  0  0  0  0  0  0  0  0
   61.4918   27.9034   46.6050 H   0  0  0  0  0  0  0  0  0  0  0  0
   60.1605   26.9703   48.5011 H   0  0  0  0  0  0  0  0  0  0  0  0
   57.7258   26.4995   48.2061 H   0  0  0  0  0  0  0  0  0  0  0  0
   56.6199   26.9585   46.0159 H   0  0  0  0  0  0  0  0  0  0  0  0
   59.2806   30.9143   46.2694 H   0  0  0  0  0  0  0  0  0  0  0  0
  1  2  2  0
  2  3  1  0
  3  4  1  0
  4  5  2  0
  4  6  2  0
  4  7  1  0
  7  8  2  0
  8  9  1  0
  9 10  2  0
 10 11  1  0
 11 12  2  0
 12 13  1  0
  2 14  1  0
 14 15  2  0
 15 16  1  0
 16 17  2  0
 17 18  1  0
 18 19  1  0
 19 20  1  0
 20 21  2  0
 20 22  2  0
 20 23  1  0
 23 24  1  0
 24 25  2  0
 25 26  1  0
 26 27  2  0
 27 28  1  0
 28 29  2  0
 18 30  2  0
 12  7  1  0
 30 14  1  0
 29 24  1  0
  8 31  1  0
  9 32  1  0
 10 33  1  0
 11 34  1  0
 15 35  1  0
 16 36  1  0
 17 37  1  0
 19 38  1  0
 23 39  1  0
 23 40  1  0
 25 41  1  0
 26 42  1  0
 27 43  1  0
 28 44  1  0
 29 45  1  0
 30 46  1  0
M  CHG  1   3  -1
M  END
>  <UniqueID>  (6) 
6

>  <SMILES>  (6) 
O=C([N-]S(=O)(=O)c1ccccc1Br)c1cccc(NS(=O)(=O)Cc2ccccc2)c1

>  <Energy>  (6) 
51.8992179542762

>  <Genealogy>  (6) 
O=C([N-]S(=O)(=O)c1ccccc1Br)c1cccc(NS(=O)(=O)Cc2ccccc2)c1 (protonated)
O=C([N-]S(=O)(=O)c1ccccc1Br)c1cccc(NS(=O)(=O)Cc2ccccc2)c1 (3D coordinates assigned)
O=C([N-]S(=O)(=O)c1ccccc1Br)c1cccc(NS(=O)(=O)Cc2ccccc2)c1 (optimized conformer: 51.8992179542762 kcal/mol)

>  <smiles>  (6) 
O=C(NS(=O)(=O)c1ccccc1Br)c1cccc(NS(=O)(=O)Cc2ccccc2)c1

>  <score_type>  (6) 
oracle

>  <origin>  (6) 
adg

>  <m_score__min__energy>  (6) 
-12.83

>  <m_primary>  (6) 
energy

$$$$
6:0
     RDKit          3D

 63 66  0  0  0  0  0  0  0  0999 V2000
   58.1363   34.3341   52.6630 H   0  0  0  0  0  0  0  0  0  0  0  0
   58.3310   33.3550   52.2010 C   0  0  0  0  0  0  0  0  0  0  0  0
   59.5600   33.1060   51.5910 C   0  0  0  0  0  0  0  0  0  0  0  0
   60.3356   33.8859   51.5779 H   0  0  0  0  0  0  0  0  0  0  0  0
   59.8060   31.8670   50.9970 C   0  0  0  0  0  0  0  0  0  0  0  0
   60.7794   31.6725   50.5230 H   0  0  0  0  0  0  0  0  0  0  0  0
   58.8200   30.8670   51.0000 C   0  0  0  0  0  0  0  0  0  0  0  0
   59.1290   29.5280   50.3810 C   0  0  0  0  0  0  0  0  0  0  0  0
   59.8145   28.9709   51.0366 H   0  0  0  0  0  0  0  0  0  0  0  0
   58.1959   28.9591   50.2558 H   0  0  0  0  0  0  0  0  0  0  0  0
   59.7570   29.7250   49.0750 N   0  0  0  0  0  0  0  0  0  0  0  0
   59.1260   29.8300   47.9430 C   0  0  0  0  0  0  0  0  0  0  0  0
   58.8520   28.7000   47.2200 N   0  0  0  0  0  0  0  0  0  0  0  0
   58.1970   28.7620   46.0250 C   0  0  0  0  0  0  0  0  0  0  0  0
   57.9759   27.8522   45.4476 H   0  0  0  0  0  0  0  0  0  0  0  0
   57.8200   30.0160   45.5650 C   0  0  0  0  0  0  0  0  0  0  0  0
   57.1940   30.4260   44.4050 C   0  0  0  0  0  0  0  0  0  0  0  0
   56.7240   29.5570   43.2860 C   0  0  0  0  0  0  0  0  0  0  0  0
   56.2387   28.6597   43.6975 H   0  0  0  0  0  0  0  0  0  0  0  0
   56.0035   30.1127   42.6679 H   0  0  0  0  0  0  0  0  0  0  0  0
   57.5835   29.2582   42.6679 H   0  0  0  0  0  0  0  0  0  0  0  0
   57.1000   31.7780   44.4310 N   0  0  0  0  0  0  0  0  0  0  0  0
   56.7020   32.3870   43.6830 H   0  0  0  0  0  0  0  0  0  0  0  0
   57.6570   32.1650   45.6070 C   0  0  0  0  0  0  0  0  0  0  0  0
   57.8820   33.5940   46.0370 C   0  0  1  0  0  0  0  0  0  0  0  0
   57.0871   33.8533   46.7517 H   0  0  0  0  0  0  0  0  0  0  0  0
   59.2170   33.7330   46.7390 C   0  0  0  0  0  0  0  0  0  0  0  0
   60.4100   33.5200   46.0300 C   0  0  0  0  0  0  0  0  0  0  0  0
   60.3698   33.2515   44.9640 H   0  0  0  0  0  0  0  0  0  0  0  0
   61.6480   33.6460   46.6660 C   0  0  0  0  0  0  0  0  0  0  0  0
   62.5749   33.4777   46.0981 H   0  0  0  0  0  0  0  0  0  0  0  0
   61.7140   33.9860   48.0250 C   0  0  0  0  0  0  0  0  0  0  0  0
   63.0480   34.1400   48.7120 C   0  0  0  0  0  0  0  0  0  0  0  0
   63.8210   34.3170   47.9497 H   0  0  0  0  0  0  0  0  0  0  0  0
   62.9733   34.9871   49.4097 H   0  0  0  0  0  0  0  0  0  0  0  0
   63.4310   32.8860   49.5270 C   0  0  0  0  0  0  0  0  0  0  0  0
   63.0297   33.0095   50.5437 H   0  0  0  0  0  0  0  0  0  0  0  0
   62.8180   31.6340   48.8860 C   0  0  0  0  0  0  0  0  0  0  0  0
   62.4810   30.9457   49.6751 H   0  0  0  0  0  0  0  0  0  0  0  0
   61.9601   31.9243   48.2617 H   0  0  0  0  0  0  0  0  0  0  0  0
   63.5734   31.1344   48.2617 H   0  0  0  0  0  0  0  0  0  0  0  0
   64.9540   32.7290   49.6390 C   0  0  0  0  0  0  0  0  0  0  0  0
   65.2425   32.6993   50.7001 H   0  0  0  0  0  0  0  0  0  0  0  0
   65.2633   31.7942   49.1486 H   0  0  0  0  0  0  0  0  0  0  0  0
   65.4475   33.5810   49.1486 H   0  0  0  0  0  0  0  0  0  0  0  0
   60.5260   34.2150   48.7340 C   0  0  0  0  0  0  0  0  0  0  0  0
   60.5691   34.4963   49.7965 H   0  0  0  0  0  0  0  0  0  0  0  0
   59.2880   34.0880   48.0990 C   0  0  0  0  0  0  0  0  0  0  0  0
   58.3624   34.2667   48.6659 H   0  0  0  0  0  0  0  0  0  0  0  0
   57.7510   34.5820   44.8710 C   0  0  0  0  0  0  0  0  0  0  0  0
   57.6161   35.5997   45.2661 H   0  0  0  0  0  0  0  0  0  0  0  0
   58.6618   34.5455   44.2554 H   0  0  0  0  0  0  0  0  0  0  0  0
   56.8811   34.3094   44.2554 H   0  0  0  0  0  0  0  0  0  0  0  0
   58.1010   31.0970   46.2930 N   0  0  0  0  0  0  0  0  0  0  0  0
   58.7430   31.0480   47.4580 N   0  0  0  0  0  0  0  0  0  0  0  0
   57.5820   31.1080   51.6350 C   0  0  0  0  0  0  0  0  0  0  0  0
   56.6180   30.0880   51.6640 O   0  0  0  0  0  0  0  0  0  0  0  0
   55.6770   29.8970   52.7150 C   0  0  0  0  0  0  0  0  0  0  0  0
   56.1850   30.0001   53.6852 H   0  0  0  0  0  0  0  0  0  0  0  0
   54.8808   30.6518   52.6359 H   0  0  0  0  0  0  0  0  0  0  0  0
   55.2381   28.8915   52.6359 H   0  0  0  0  0  0  0  0  0  0  0  0
   57.3470   32.3650   52.2270 C   0  0  0  0  0  0  0  0  0  0  0  0
   56.3813   32.5676   52.7131 H   0  0  0  0  0  0  0  0  0  0  0  0
  1  2  1  0
  2  3  2  0
  3  4  1  0
  3  5  1  0
  5  6  1  0
  5  7  2  0
  7  8  1  0
  8  9  1  0
  8 10  1  0
  8 11  1  0
 11 12  2  0
 12 13  1  0
 13 14  2  0
 14 15  1  0
 14 16  1  0
 16 17  2  0
 17 18  1  0
 18 19  1  0
 18 20  1  0
 18 21  1  0
 17 22  1  0
 22 23  1  0
 22 24  2  0
 24 25  1  0
 25 26  1  1
 25 27  1  0
 27 28  2  0
 28 29  1  0
 28 30  1  0
 30 31  1  0
 30 32  2  0
 32 33  1  0
 33 34  1  0
 33 35  1  0
 33 36  1  0
 36 37  1  0
 36 38  1  0
 38 39  1  0
 38 40  1  0
 38 41  1  0
 36 42  1  0
 42 43  1  0
 42 44  1  0
 42 45  1  0
 32 46  1  0
 46 47  1  0
 46 48  2  0
 48 49  1  0
 25 50  1  0
 50 51  1  0
 50 52  1  0
 50 53  1  0
 24 54  1  0
 54 55  1  0
  7 56  1  0
 56 57  1  0
 57 58  1  0
 58 59  1  0
 58 60  1  0
 58 61  1  0
 56 62  2  0
 62 63  1  0
 62  2  1  0
 55 12  1  0
 54 16  1  0
 48 27  1  0
M  CHG  2  22   1  55  -1
M  END
>  <UniqueID>  (7) 
7

>  <SMILES>  (7) 
COc1ccccc1C/N=c1/ncc2c(C)[nH+]c([C@H](C)c3ccc(CC(C)C)cc3)n2[n-]1

>  <Energy>  (7) 
96.80607007194999

>  <Genealogy>  (7) 
COc1ccccc1CN=c1ncc2c(C)[nH+]c(C(C)c3ccc(CC(C)C)cc3)n2[n-]1 (protonated)
COc1ccccc1CN=c1ncc2c(C)[nH+]c([C@H](C)c3ccc(CC(C)C)cc3)n2[n-]1 (chirality)
COc1ccccc1C/N=c1/ncc2c(C)[nH+]c([C@H](C)c3ccc(CC(C)C)cc3)n2[n-]1 (cis-trans isomerization)
COc1ccccc1C/N=c1/ncc2c(C)[nH+]c([C@H](C)c3ccc(CC(C)C)cc3)n2[n-]1 (3D coordinates assigned)
COc1ccccc1C/N=c1/ncc2c(C)[nH+]c([C@H](C)c3ccc(CC(C)C)cc3)n2[n-]1 (optimized conformer: 96.80607007194999 kcal/mol)

>  <smiles>  (7) 
COc1ccccc1CN=c1ncc2c(C)nc(C(C)c3ccc(CC(C)C)cc3)n2[nH]1

>  <score_type>  (7) 
oracle

>  <origin>  (7) 
adg

>  <m_score__min__energy>  (7) 
-8.8900000000000006

>  <m_primary>  (7) 
energy

$$$$
7:0
     RDKit          3D

 57 59  0  0  0  0  0  0  0  0999 V2000
   58.5040   28.4130   43.7710 C   0  0  0  0  0  0  0  0  0  0  0  0
   57.9080   29.4130   44.4230 C   0  0  0  0  0  0  0  0  0  0  0  0
   58.7030   30.5260   44.8690 N   0  0  0  0  0  0  0  0  0  0  0  0
   58.5410   31.1220   46.1970 C   0  0  0  0  0  0  0  0  0  0  0  0
   58.9330   32.5830   46.1780 C   0  0  0  0  0  0  0  0  0  0  0  0
   59.7220   33.0800   47.2300 C   0  0  0  0  0  0  0  0  0  0  0  0
   60.0900   34.4250   47.2700 C   0  0  0  0  0  0  0  0  0  0  0  0
   59.6720   35.2940   46.2640 C   0  0  0  0  0  0  0  0  0  0  0  0
   58.8760   34.8240   45.2180 C   0  0  0  0  0  0  0  0  0  0  0  0
   58.4860   33.4740   45.1640 C   0  0  0  0  0  0  0  0  0  0  0  0
   57.6080   33.0370   44.0090 C   0  0  0  0  0  0  0  0  0  0  0  0
   58.3940   32.5800   42.9240 O   0  0  0  0  0  0  0  0  0  0  0  0
   57.5690   32.0190   41.9240 C   0  0  0  0  0  0  0  0  0  0  0  0
   56.4580   29.3390   44.7280 C   0  0  0  0  0  0  0  0  0  0  0  0
   55.7170   30.3300   44.4950 O   0  0  0  0  0  0  0  0  0  0  0  0
   55.8990   28.1350   45.2720 N   0  0  0  0  0  0  0  0  0  0  0  0
   56.6010   27.1320   46.0210 C   0  0  0  0  0  0  0  0  0  0  0  0
   57.8060   27.4110   46.6930 C   0  0  0  0  0  0  0  0  0  0  0  0
   58.4770   26.3970   47.3810 C   0  0  0  0  0  0  0  0  0  0  0  0
   57.9640   25.0980   47.3940 C   0  0  0  0  0  0  0  0  0  0  0  0
   56.7760   24.8050   46.7130 C   0  0  0  0  0  0  0  0  0  0  0  0
   56.1360   23.1600   46.7100 S   0  0  0  0  0  0  0  0  0  0  0  0
   56.9930   22.2970   47.5930 O   0  0  0  0  0  0  0  0  0  0  0  0
   54.7450   23.1720   47.2820 O   0  0  0  0  0  0  0  0  0  0  0  0
   56.0980   22.4780   45.1030 N   0  0  0  0  0  0  0  0  0  0  0  0
   55.7610   23.5110   44.1110 C   0  0  0  0  0  0  0  0  0  0  0  0
   55.9350   22.9640   42.6790 C   0  0  0  0  0  0  0  0  0  0  0  0
   56.1220   21.5620   42.6870 O   0  0  0  0  0  0  0  0  0  0  0  0
   57.3260   21.2380   43.3620 C   0  0  0  0  0  0  0  0  0  0  0  0
   57.3890   21.8620   44.7720 C   0  0  0  0  0  0  0  0  0  0  0  0
   56.1030   25.8230   46.0220 C   0  0  0  0  0  0  0  0  0  0  0  0
   57.9123   27.5537   43.4224 H   0  0  0  0  0  0  0  0  0  0  0  0
   59.5871   28.4479   43.5820 H   0  0  0  0  0  0  0  0  0  0  0  0
   59.2650   31.0450   44.1550 H   0  0  0  0  0  0  0  0  0  0  0  0
   57.4891   31.0342   46.5065 H   0  0  0  0  0  0  0  0  0  0  0  0
   59.1926   30.5899   46.9057 H   0  0  0  0  0  0  0  0  0  0  0  0
   60.0527   32.4012   48.0300 H   0  0  0  0  0  0  0  0  0  0  0  0
   60.7110   34.8001   48.0968 H   0  0  0  0  0  0  0  0  0  0  0  0
   59.9699   36.3525   46.2942 H   0  0  0  0  0  0  0  0  0  0  0  0
   58.5505   35.5167   44.4279 H   0  0  0  0  0  0  0  0  0  0  0  0
   56.9492   32.2227   44.3450 H   0  0  0  0  0  0  0  0  0  0  0  0
   57.0120   33.8987   43.6739 H   0  0  0  0  0  0  0  0  0  0  0  0
   56.7477   31.4605   42.3969 H   0  0  0  0  0  0  0  0  0  0  0  0
   57.1534   32.8225   41.2982 H   0  0  0  0  0  0  0  0  0  0  0  0
   58.1634   31.3371   41.2982 H   0  0  0  0  0  0  0  0  0  0  0  0
   58.2203   28.4299   46.6764 H   0  0  0  0  0  0  0  0  0  0  0  0
   59.4124   26.6224   47.9142 H   0  0  0  0  0  0  0  0  0  0  0  0
   58.4941   24.3038   47.9401 H   0  0  0  0  0  0  0  0  0  0  0  0
   54.7160   23.8232   44.2545 H   0  0  0  0  0  0  0  0  0  0  0  0
   56.4359   24.3687   44.2481 H   0  0  0  0  0  0  0  0  0  0  0  0
   55.0360   23.2029   42.0918 H   0  0  0  0  0  0  0  0  0  0  0  0
   56.8249   23.4319   42.2328 H   0  0  0  0  0  0  0  0  0  0  0  0
   57.3968   20.1442   43.4550 H   0  0  0  0  0  0  0  0  0  0  0  0
   58.1626   21.6445   42.7748 H   0  0  0  0  0  0  0  0  0  0  0  0
   57.6185   21.0776   45.5083 H   0  0  0  0  0  0  0  0  0  0  0  0
   58.1741   22.6321   44.7929 H   0  0  0  0  0  0  0  0  0  0  0  0
   55.1764   25.5915   45.4763 H   0  0  0  0  0  0  0  0  0  0  0  0
  1  2  2  0
  2  3  1  0
  3  4  1  0
  4  5  1  0
  5  6  2  0
  6  7  1  0
  7  8  2  0
  8  9  1  0
  9 10  2  0
 10 11  1  0
 11 12  1  0
 12 13  1  0
  2 14  1  0
 14 15  2  0
 14 16  1  0
 16 17  1  0
 17 18  2  0
 18 19  1  0
 19 20  2  0
 20 21  1  0
 21 22  1  0
 22 23  2  0
 22 24  2  0
 22 25  1  0
 25 26  1  0
 26 27  1  0
 27 28  1  0
 28 29  1  0
 29 30  1  0
 21 31  2  0
 10  5  1  0
 31 17  1  0
 30 25  1  0
  1 32  1  0
  1 33  1  0
  3 34  1  0
  4 35  1  0
  4 36  1  0
  6 37  1  0
  7 38  1  0
  8 39  1  0
  9 40  1  0
 11 41  1  0
 11 42  1  0
 13 43  1  0
 13 44  1  0
 13 45  1  0
 18 46  1  0
 19 47  1  0
 20 48  1  0
 26 49  1  0
 26 50  1  0
 27 51  1  0
 27 52  1  0
 29 53  1  0
 29 54  1  0
 30 55  1  0
 30 56  1  0
 31 57  1  0
M  CHG  1  16  -1
M  END
>  <UniqueID>  (8) 
8

>  <SMILES>  (8) 
C=C(NCc1ccccc1COC)C(=O)[N-]c1cccc(S(=O)(=O)N2CCOCC2)c1

>  <Energy>  (8) 
73.21011918641622

>  <Genealogy>  (8) 
C=C(NCc1ccccc1COC)C(=O)[N-]c1cccc(S(=O)(=O)N2CCOCC2)c1 (protonated)
C=C(NCc1ccccc1COC)C(=O)[N-]c1cccc(S(=O)(=O)N2CCOCC2)c1 (3D coordinates assigned)
C=C(NCc1ccccc1COC)C(=O)[N-]c1cccc(S(=O)(=O)N2CCOCC2)c1 (nonaromatic ring conformer: 73.21011918641622 kcal/mol)

>  <smiles>  (8) 
C=C(NCc1ccccc1COC)C(=O)Nc1cccc(S(=O)(=O)N2CCOCC2)c1

>  <score_type>  (8) 
oracle

>  <origin>  (8) 
adg

>  <m_score__min__energy>  (8) 
-11.66

>  <m_primary>  (8) 
energy

$$$$
8:0
     RDKit          3D

 44 46  0  0  0  0  0  0  0  0999 V2000
   56.9690   31.1410   42.6030 C   0  0  0  0  0  0  0  0  0  0  0  0
   56.6690   29.8140   43.7520 S   0  0  0  0  0  0  0  0  0  0  0  0
   55.2150   29.4410   43.6890 O   0  0  0  0  0  0  0  0  0  0  0  0
   57.4900   28.6100   43.3870 O   0  0  0  0  0  0  0  0  0  0  0  0
   57.0420   30.3150   45.3720 N   0  0  0  0  0  0  0  0  0  0  0  0
   57.8240   29.5770   46.3220 C   0  0  0  0  0  0  0  0  0  0  0  0
   58.7620   30.2130   47.1570 C   0  0  0  0  0  0  0  0  0  0  0  0
   59.5380   29.4690   48.0640 C   0  0  0  0  0  0  0  0  0  0  0  0
   60.5140   30.0850   48.9170 N   0  0  0  0  0  0  0  0  0  0  0  0
   60.4070   30.1980   50.6450 S   0  0  0  0  0  0  0  0  0  0  0  0
   61.1410   31.4250   51.1040 O   0  0  0  0  0  0  0  0  0  0  0  0
   61.0520   28.9840   51.2520 O   0  0  0  0  0  0  0  0  0  0  0  0
   58.7240   30.3190   51.1510 C   0  0  0  0  0  0  0  0  0  0  0  0
   58.1520   29.3090   51.9330 C   0  0  0  0  0  0  0  0  0  0  0  0
   56.8320   29.4230   52.3750 C   0  0  0  0  0  0  0  0  0  0  0  0
   56.0580   30.5490   52.0360 C   0  0  0  0  0  0  0  0  0  0  0  0
   54.6600   30.6800   52.5170 C   0  0  0  0  0  0  0  0  0  0  0  0
   54.2060   30.1380   53.7220 C   0  0  0  0  0  0  0  0  0  0  0  0
   52.5760   30.5050   53.8940 S   0  0  0  0  0  0  0  0  0  0  0  0
   52.4190   31.3470   52.4480 C   0  0  0  0  0  0  0  0  0  0  0  0
   51.1800   31.9620   51.9530 C   0  0  0  0  0  0  0  0  0  0  0  0
   51.0620   32.3370   50.5830 N   0  0  0  0  0  0  0  0  0  0  0  0
   50.2170   32.1590   52.7390 O   0  0  0  0  0  0  0  0  0  0  0  0
   53.6510   31.3550   51.8050 C   0  0  0  0  0  0  0  0  0  0  0  0
   56.6370   31.5530   51.2360 C   0  0  0  0  0  0  0  0  0  0  0  0
   57.9590   31.4390   50.8000 C   0  0  0  0  0  0  0  0  0  0  0  0
   59.3630   28.0850   48.1380 C   0  0  0  0  0  0  0  0  0  0  0  0
   58.4220   27.4470   47.3270 C   0  0  0  0  0  0  0  0  0  0  0  0
   57.6520   28.1820   46.4220 C   0  0  0  0  0  0  0  0  0  0  0  0
   56.7250   27.5070   45.6270 O   0  0  0  0  0  0  0  0  0  0  0  0
   57.1783   32.0669   43.1587 H   0  0  0  0  0  0  0  0  0  0  0  0
   57.8330   30.8898   41.9703 H   0  0  0  0  0  0  0  0  0  0  0  0
   56.0810   31.2859   41.9703 H   0  0  0  0  0  0  0  0  0  0  0  0
   58.8895   31.3041   47.0995 H   0  0  0  0  0  0  0  0  0  0  0  0
   58.7445   28.4217   52.2006 H   0  0  0  0  0  0  0  0  0  0  0  0
   56.3934   28.6260   52.9934 H   0  0  0  0  0  0  0  0  0  0  0  0
   54.8144   29.5664   54.4384 H   0  0  0  0  0  0  0  0  0  0  0  0
   51.4100   33.2620   50.2490 H   0  0  0  0  0  0  0  0  0  0  0  0
   53.8211   31.8419   50.8334 H   0  0  0  0  0  0  0  0  0  0  0  0
   56.0431   32.4343   50.9521 H   0  0  0  0  0  0  0  0  0  0  0  0
   58.4012   32.2317   50.1786 H   0  0  0  0  0  0  0  0  0  0  0  0
   59.9702   27.4941   48.8395 H   0  0  0  0  0  0  0  0  0  0  0  0
   58.2860   26.3580   47.4012 H   0  0  0  0  0  0  0  0  0  0  0  0
   56.3470   27.9060   44.7750 H   0  0  0  0  0  0  0  0  0  0  0  0
  1  2  1  0
  2  3  2  0
  2  4  2  0
  2  5  1  0
  5  6  1  0
  6  7  2  0
  7  8  1  0
  8  9  1  0
  9 10  1  0
 10 11  2  0
 10 12  2  0
 10 13  1  0
 13 14  2  0
 14 15  1  0
 15 16  2  0
 16 17  1  0
 17 18  2  0
 18 19  1  0
 19 20  1  0
 20 21  1  0
 21 22  1  0
 21 23  2  0
 20 24  2  0
 16 25  1  0
 25 26  2  0
  8 27  2  0
 27 28  1  0
 28 29  2  0
 29 30  1  0
 29  6  1  0
 26 13  1  0
 24 17  1  0
  1 31  1  0
  1 32  1  0
  1 33  1  0
  7 34  1  0
 14 35  1  0
 15 36  1  0
 18 37  1  0
 22 38  1  0
 24 39  1  0
 25 40  1  0
 26 41  1  0
 27 42  1  0
 28 43  1  0
 30 44  1  0
M  CHG  3   5  -1   9  -1  22  -1
M  END
>  <UniqueID>  (9) 
9

>  <SMILES>  (9) 
CS(=O)(=O)[N-]c1cc([N-]S(=O)(=O)c2ccc(-c3csc(C([NH-])=O)c3)cc2)ccc1O

>  <Energy>  (9) 
75.0049745272152

>  <Genealogy>  (9) 
CS(=O)(=O)[N-]c1cc([N-]S(=O)(=O)c2ccc(-c3csc(C([NH-])=O)c3)cc2)ccc1O (protonated)
CS(=O)(=O)[N-]c1cc([N-]S(=O)(=O)c2ccc(-c3csc(C([NH-])=O)c3)cc2)ccc1O (3D coordinates assigned)
CS(=O)(=O)[N-]c1cc([N-]S(=O)(=O)c2ccc(-c3csc(C([NH-])=O)c3)cc2)ccc1O (optimized conformer: 75.0049745272152 kcal/mol)

>  <smiles>  (9) 
CS(=O)(=O)Nc1cc(NS(=O)(=O)c2ccc(-c3csc(C(N)=O)c3)cc2)ccc1O

>  <score_type>  (9) 
oracle

>  <origin>  (9) 
adg

>  <m_score__min__energy>  (9) 
-14.19

>  <m_primary>  (9) 
energy

$$$$
9:0
     RDKit          3D

 40 42  0  0  0  0  0  0  0  0999 V2000
   56.0330   29.2850   44.4690 C   0  0  0  0  0  0  0  0  0  0  0  0
   56.7880   30.4830   43.9620 C   0  0  0  0  0  0  0  0  0  0  0  0
   56.6550   30.8800   42.6210 C   0  0  0  0  0  0  0  0  0  0  0  0
   57.3410   31.9970   42.1410 C   0  0  0  0  0  0  0  0  0  0  0  0
   58.1630   32.7390   42.9900 C   0  0  0  0  0  0  0  0  0  0  0  0
   58.3050   32.3680   44.3390 C   0  0  0  0  0  0  0  0  0  0  0  0
   59.1210   33.0960   45.2260 C   0  0  0  0  0  0  0  0  0  0  0  0
   59.7600   34.1110   44.8340 O   0  0  0  0  0  0  0  0  0  0  0  0
   59.2280   32.6930   46.5590 C   0  0  0  0  0  0  0  0  0  0  0  0
   58.5210   31.5670   47.0070 C   0  0  0  0  0  0  0  0  0  0  0  0
   58.6130   31.1110   48.4050 C   0  0  0  0  0  0  0  0  0  0  0  0
   58.1510   31.8210   49.3400 O   0  0  0  0  0  0  0  0  0  0  0  0
   59.2340   29.8540   48.6980 N   0  0  0  0  0  0  0  0  0  0  0  0
   60.2450   29.2360   47.8500 C   0  0  0  0  0  0  0  0  0  0  0  0
   59.5920   28.5030   46.7100 C   0  0  0  0  0  0  0  0  0  0  0  0
   59.9520   28.7790   45.3820 C   0  0  0  0  0  0  0  0  0  0  0  0
   59.3170   28.1150   44.3280 C   0  0  0  0  0  0  0  0  0  0  0  0
   58.3180   27.1750   44.5910 C   0  0  0  0  0  0  0  0  0  0  0  0
   57.9530   26.8880   45.9130 C   0  0  0  0  0  0  0  0  0  0  0  0
   56.6780   25.7190   46.2460 S   0  0  0  0  0  0  0  0  0  0  0  0
   55.1380   26.4690   46.0320 N   0  0  0  0  0  0  0  0  0  0  0  0
   56.8010   25.2210   47.6580 O   0  0  0  0  0  0  0  0  0  0  0  0
   56.8030   24.5500   45.3090 O   0  0  0  0  0  0  0  0  0  0  0  0
   58.5850   27.5590   46.9690 C   0  0  0  0  0  0  0  0  0  0  0  0
   57.7400   30.8770   46.1330 N   0  0  0  0  0  0  0  0  0  0  0  0
   57.6090   31.2350   44.8260 C   0  0  0  0  0  0  0  0  0  0  0  0
   56.0353   29.2887   45.5690 H   0  0  0  0  0  0  0  0  0  0  0  0
   54.9959   29.3239   44.1044 H   0  0  0  0  0  0  0  0  0  0  0  0
   56.5156   28.3662   44.1044 H   0  0  0  0  0  0  0  0  0  0  0  0
   56.0052   30.3062   41.9439 H   0  0  0  0  0  0  0  0  0  0  0  0
   57.2329   32.2940   41.0874 H   0  0  0  0  0  0  0  0  0  0  0  0
   58.7015   33.6166   42.6030 H   0  0  0  0  0  0  0  0  0  0  0  0
   59.8651   33.2571   47.2560 H   0  0  0  0  0  0  0  0  0  0  0  0
   60.9078   30.0163   47.4477 H   0  0  0  0  0  0  0  0  0  0  0  0
   60.8267   28.5204   48.4496 H   0  0  0  0  0  0  0  0  0  0  0  0
   60.7365   29.5203   45.1695 H   0  0  0  0  0  0  0  0  0  0  0  0
   59.6049   28.3335   43.2891 H   0  0  0  0  0  0  0  0  0  0  0  0
   57.8168   26.6590   43.7588 H   0  0  0  0  0  0  0  0  0  0  0  0
   55.2170   27.0980   45.2010 H   0  0  0  0  0  0  0  0  0  0  0  0
   58.2904   27.3448   48.0070 H   0  0  0  0  0  0  0  0  0  0  0  0
  1  2  1  0
  2  3  2  0
  3  4  1  0
  4  5  2  0
  5  6  1  0
  6  7  1  0
  7  8  2  0
  7  9  1  0
  9 10  2  0
 10 11  1  0
 11 12  2  0
 11 13  1  0
 13 14  1  0
 14 15  1  0
 15 16  2  0
 16 17  1  0
 17 18  2  0
 18 19  1  0
 19 20  1  0
 20 21  1  0
 20 22  2  0
 20 23  2  0
 19 24  2  0
 10 25  1  0
 25 26  1  0
 26  2  1  0
 26  6  2  0
 24 15  1  0
  1 27  1  0
  1 28  1  0
  1 29  1  0
  3 30  1  0
  4 31  1  0
  5 32  1  0
  9 33  1  0
 14 34  1  0
 14 35  1  0
 16 36  1  0
 17 37  1  0
 18 38  1  0
 21 39  1  0
 24 40  1  0
M  CHG  3  13  -1  21  -1  25  -1
M  END
>  <UniqueID>  (10) 
10

>  <SMILES>  (10) 
Cc1cccc2c(=O)cc(C(=O)[N-]Cc3cccc(S([NH-])(=O)=O)c3)[n-]c12

>  <Energy>  (10) 
44.11813718281883

>  <Genealogy>  (10) 
Cc1cccc2c(=O)cc(C(=O)[N-]Cc3cccc(S([NH-])(=O)=O)c3)[n-]c12 (protonated)
Cc1cccc2c(=O)cc(C(=O)[N-]Cc3cccc(S([NH-])(=O)=O)c3)[n-]c12 (3D coordinates assigned)
Cc1cccc2c(=O)cc(C(=O)[N-]Cc3cccc(S([NH-])(=O)=O)c3)[n-]c12 (optimized conformer: 44.11813718281883 kcal/mol)

>  <smiles>  (10) 
Cc1cccc2c(=O)cc(C(=O)NCc3cccc(S(N)(=O)=O)c3)[nH]c12

>  <score_type>  (10) 
oracle

>  <origin>  (10) 
adg

>  <m_score__min__energy>  (10) 
-14.25

>  <m_primary>  (10) 
energy

$$$$
10:0
     RDKit          3D

 57 61  0  0  0  0  0  0  0  0999 V2000
   58.0300   25.0685   46.9878 H   0  0  0  0  0  0  0  0  0  0  0  0
   58.3880   26.1080   46.9520 C   0  0  0  0  0  0  0  0  0  0  0  0
   59.2870   26.5460   47.8660 N   0  0  0  0  0  0  0  0  0  0  0  0
   59.7740   27.8160   47.8830 C   0  0  0  0  0  0  0  0  0  0  0  0
   60.6930   28.0790   48.7730 N   0  0  0  0  0  0  0  0  0  0  0  0
   60.5700   28.7150   50.0530 C   0  0  0  0  0  0  0  0  0  0  0  0
   59.9950   28.1090   50.9970 O   0  0  0  0  0  0  0  0  0  0  0  0
   61.0420   30.1050   50.2460 C   0  0  0  0  0  0  0  0  0  0  0  0
   62.4140   30.3720   50.3980 C   0  0  0  0  0  0  0  0  0  0  0  0
   63.1376   29.5436   50.3852 H   0  0  0  0  0  0  0  0  0  0  0  0
   62.8620   31.6830   50.5650 C   0  0  0  0  0  0  0  0  0  0  0  0
   63.9379   31.8834   50.6760 H   0  0  0  0  0  0  0  0  0  0  0  0
   61.9510   32.7430   50.5920 C   0  0  0  0  0  0  0  0  0  0  0  0
   62.3140   33.7726   50.7267 H   0  0  0  0  0  0  0  0  0  0  0  0
   60.5740   32.5010   50.4480 C   0  0  0  0  0  0  0  0  0  0  0  0
   59.6040   33.6180   50.5190 C   0  0  0  0  0  0  0  0  0  0  0  0
   59.6830   34.5720   49.6990 O   0  0  0  0  0  0  0  0  0  0  0  0
   58.6270   33.6550   51.5710 N   0  0  0  0  0  0  0  0  0  0  0  0
   57.9950   32.6460   52.1050 C   0  0  0  0  0  0  0  0  0  0  0  0
   58.4130   32.1830   53.3570 C   0  0  0  0  0  0  0  0  0  0  0  0
   59.2461   32.6774   53.8780 H   0  0  0  0  0  0  0  0  0  0  0  0
   57.7700   31.0920   53.9430 C   0  0  0  0  0  0  0  0  0  0  0  0
   58.0822   30.7362   54.9360 H   0  0  0  0  0  0  0  0  0  0  0  0
   56.7310   30.4540   53.2670 C   0  0  0  0  0  0  0  0  0  0  0  0
   56.2186   29.5924   53.7199 H   0  0  0  0  0  0  0  0  0  0  0  0
   56.3490   30.9210   52.0100 C   0  0  0  0  0  0  0  0  0  0  0  0
   55.5391   30.4171   51.4622 H   0  0  0  0  0  0  0  0  0  0  0  0
   56.9740   31.9990   51.4560 N   0  0  0  0  0  0  0  0  0  0  0  0
   56.6660   32.2790   50.4990 H   0  0  0  0  0  0  0  0  0  0  0  0
   60.1290   31.1780   50.2640 C   0  0  0  0  0  0  0  0  0  0  0  0
   59.0551   30.9795   50.1326 H   0  0  0  0  0  0  0  0  0  0  0  0
   59.2600   28.7610   46.9400 C   0  0  0  0  0  0  0  0  0  0  0  0
   59.5440   30.2160   47.0250 C   0  0  0  0  0  0  0  0  0  0  0  0
   58.5130   31.1230   47.3340 C   0  0  0  0  0  0  0  0  0  0  0  0
   57.4958   30.7513   47.5267 H   0  0  0  0  0  0  0  0  0  0  0  0
   58.7770   32.4950   47.3970 C   0  0  0  0  0  0  0  0  0  0  0  0
   57.9704   33.1983   47.6516 H   0  0  0  0  0  0  0  0  0  0  0  0
   60.0640   32.9740   47.1370 C   0  0  0  0  0  0  0  0  0  0  0  0
   60.2700   34.0533   47.1888 H   0  0  0  0  0  0  0  0  0  0  0  0
   61.0900   32.0810   46.8110 C   0  0  0  0  0  0  0  0  0  0  0  0
   62.1007   32.4593   46.5977 H   0  0  0  0  0  0  0  0  0  0  0  0
   60.8320   30.7080   46.7560 C   0  0  0  0  0  0  0  0  0  0  0  0
   61.6421   30.0091   46.5007 H   0  0  0  0  0  0  0  0  0  0  0  0
   58.3320   28.3040   45.9680 C   0  0  0  0  0  0  0  0  0  0  0  0
   57.7380   29.2140   44.9620 C   0  0  0  0  0  0  0  0  0  0  0  0
   58.5540   30.1520   44.3080 C   0  0  0  0  0  0  0  0  0  0  0  0
   59.6296   30.1958   44.5344 H   0  0  0  0  0  0  0  0  0  0  0  0
   58.0020   31.0310   43.3690 C   0  0  0  0  0  0  0  0  0  0  0  0
   58.6437   31.7677   42.8635 H   0  0  0  0  0  0  0  0  0  0  0  0
   56.6370   30.9750   43.0720 C   0  0  0  0  0  0  0  0  0  0  0  0
   56.2045   31.6711   42.3382 H   0  0  0  0  0  0  0  0  0  0  0  0
   55.8220   30.0340   43.7080 C   0  0  0  0  0  0  0  0  0  0  0  0
   54.7488   29.9886   43.4710 H   0  0  0  0  0  0  0  0  0  0  0  0
   56.3680   29.1490   44.6460 C   0  0  0  0  0  0  0  0  0  0  0  0
   55.5480   28.2050   45.2520 O   0  0  0  0  0  0  0  0  0  0  0  0
   57.9180   26.9700   45.9700 C   0  0  0  0  0  0  0  0  0  0  0  0
   57.2241   26.6046   45.1986 H   0  0  0  0  0  0  0  0  0  0  0  0
  1  2  1  0
  2  3  1  0
  3  4  1  0
  4  5  2  3
  5  6  1  0
  6  7  2  0
  6  8  1  0
  8  9  2  0
  9 10  1  0
  9 11  1  0
 11 12  1  0
 11 13  2  0
 13 14  1  0
 13 15  1  0
 15 16  1  0
 16 17  2  0
 16 18  1  0
 18 19  2  0
 19 20  1  0
 20 21  1  0
 20 22  2  0
 22 23  1  0
 22 24  1  0
 24 25  1  0
 24 26  2  0
 26 27  1  0
 26 28  1  0
 28 29  1  0
 15 30  2  0
 30 31  1  0
  4 32  1  0
 32 33  1  0
 33 34  2  0
 34 35  1  0
 34 36  1  0
 36 37  1  0
 36 38  2  0
 38 39  1  0
 38 40  1  0
 40 41  1  0
 40 42  2  0
 42 43  1  0
 32 44  2  0
 44 45  1  0
 45 46  2  0
 46 47  1  0
 46 48  1  0
 48 49  1  0
 48 50  2  0
 50 51  1  0
 50 52  1  0
 52 53  1  0
 52 54  2  0
 54 55  1  0
 44 56  1  0
 56 57  1  0
 56  2  2  0
 30  8  1  0
 42 33  1  0
 54 45  1  0
 28 19  1  0
M  CHG  2   3  -1  55  -1
M  END
>  <UniqueID>  (11) 
11

>  <SMILES>  (11) 
O=C(N=c1[n-]ccc(-c2ccccc2[O-])c1-c1ccccc1)c1cccc(C(=O)/N=c2/cccc[nH]2)c1

>  <Energy>  (11) 
103.3996208668467

>  <Genealogy>  (11) 
O=C(N=c1cccc[nH]1)c1cccc(C(=O)N=c2[n-]ccc(-c3ccccc3[O-])c2-c2ccccc2)c1 (protonated)
O=C(N=c1[n-]ccc(-c2ccccc2[O-])c1-c1ccccc1)c1cccc(C(=O)/N=c2/cccc[nH]2)c1 (cis-trans isomerization)
O=C(N=c1[n-]ccc(-c2ccccc2[O-])c1-c1ccccc1)c1cccc(C(=O)/N=c2/cccc[nH]2)c1 (3D coordinates assigned)
O=C(N=c1[n-]ccc(-c2ccccc2[O-])c1-c1ccccc1)c1cccc(C(=O)/N=c2/cccc[nH]2)c1 (optimized conformer: 103.3996208668467 kcal/mol)

>  <smiles>  (11) 
O=C(N=c1cccc[nH]1)c1cccc(C(=O)N=c2[nH]ccc(-c3ccccc3O)c2-c2ccccc2)c1

>  <score_type>  (11) 
oracle

>  <origin>  (11) 
adg

>  <m_score__min__energy>  (11) 
-14.99

>  <m_primary>  (11) 
energy

$$$$
11:0
     RDKit          3D

 48 50  0  0  0  0  0  0  0  0999 V2000
   56.7100   21.4290   43.4170 C   0  0  0  0  0  0  0  0  0  0  0  0
   55.5280   22.2660   43.3000 N   0  0  0  0  0  0  0  0  0  0  0  0
   55.0530   23.1330   44.3360 C   0  0  0  0  0  0  0  0  0  0  0  0
   53.8150   23.2900   44.4870 O   0  0  0  0  0  0  0  0  0  0  0  0
   55.9760   23.8420   45.2350 C   0  0  0  0  0  0  0  0  0  0  0  0
   55.8780   23.7690   46.6220 C   0  0  0  0  0  0  0  0  0  0  0  0
   54.8770   22.9790   47.4000 C   0  0  0  0  0  0  0  0  0  0  0  0
   57.1470   24.6390   47.2970 S   0  0  0  0  0  0  0  0  0  0  0  0
   57.8150   25.1640   45.8430 C   0  0  0  0  0  0  0  0  0  0  0  0
   58.9970   26.0450   45.7030 C   0  0  0  0  0  0  0  0  0  0  0  0
   60.0510   25.7270   46.3150 O   0  0  0  0  0  0  0  0  0  0  0  0
   58.9470   27.3010   44.9750 N   0  0  0  0  0  0  0  0  0  0  0  0
   57.5500   27.8310   44.8420 C   0  0  0  0  0  0  0  0  0  0  0  0
   57.3330   29.2120   45.4880 C   0  0  0  0  0  0  0  0  0  0  0  0
   58.4190   30.1380   45.1430 N   0  0  0  0  0  0  0  0  0  0  0  0
   58.2310   31.5530   45.3560 C   0  0  0  0  0  0  0  0  0  0  0  0
   58.3250   32.0770   46.6620 C   0  0  0  0  0  0  0  0  0  0  0  0
   58.1680   33.4520   46.8880 C   0  0  0  0  0  0  0  0  0  0  0  0
   57.9230   34.3190   45.8100 C   0  0  0  0  0  0  0  0  0  0  0  0
   57.8190   33.8060   44.5090 C   0  0  0  0  0  0  0  0  0  0  0  0
   57.9710   32.4290   44.2710 C   0  0  0  0  0  0  0  0  0  0  0  0
   57.7590   31.8220   42.6270 Cl  0  0  0  0  0  0  0  0  0  0  0  0
   59.7800   29.6300   44.9210 C   0  0  0  0  0  0  0  0  0  0  0  0
   59.9220   28.2510   45.5530 C   0  0  0  0  0  0  0  0  0  0  0  0
   57.0610   24.6290   44.7910 C   0  0  0  0  0  0  0  0  0  0  0  0
   57.3960   24.8460   43.3430 C   0  0  0  0  0  0  0  0  0  0  0  0
   56.9401   21.2661   44.4802 H   0  0  0  0  0  0  0  0  0  0  0  0
   56.5233   20.4607   42.9297 H   0  0  0  0  0  0  0  0  0  0  0  0
   57.5614   21.9266   42.9297 H   0  0  0  0  0  0  0  0  0  0  0  0
   55.0553   23.1197   48.4763 H   0  0  0  0  0  0  0  0  0  0  0  0
   53.8629   23.3228   47.1483 H   0  0  0  0  0  0  0  0  0  0  0  0
   54.9757   21.9127   47.1483 H   0  0  0  0  0  0  0  0  0  0  0  0
   59.2820   27.1030   43.9960 H   0  0  0  0  0  0  0  0  0  0  0  0
   57.3119   27.9102   43.7710 H   0  0  0  0  0  0  0  0  0  0  0  0
   56.8935   27.1270   45.3744 H   0  0  0  0  0  0  0  0  0  0  0  0
   56.3796   29.6288   45.1313 H   0  0  0  0  0  0  0  0  0  0  0  0
   57.3176   29.0860   46.5807 H   0  0  0  0  0  0  0  0  0  0  0  0
   58.5227   31.4030   47.5085 H   0  0  0  0  0  0  0  0  0  0  0  0
   58.2367   33.8522   47.9103 H   0  0  0  0  0  0  0  0  0  0  0  0
   57.8129   35.3992   45.9863 H   0  0  0  0  0  0  0  0  0  0  0  0
   57.6170   34.4862   43.6685 H   0  0  0  0  0  0  0  0  0  0  0  0
   59.9720   29.5586   43.8402 H   0  0  0  0  0  0  0  0  0  0  0  0
   60.5053   30.3179   45.3800 H   0  0  0  0  0  0  0  0  0  0  0  0
   60.9402   27.8757   45.3730 H   0  0  0  0  0  0  0  0  0  0  0  0
   59.7291   28.3383   46.6324 H   0  0  0  0  0  0  0  0  0  0  0  0
   58.3169   25.4425   43.2651 H   0  0  0  0  0  0  0  0  0  0  0  0
   57.5465   23.8734   42.8517 H   0  0  0  0  0  0  0  0  0  0  0  0
   56.5699   25.3810   42.8517 H   0  0  0  0  0  0  0  0  0  0  0  0
  1  2  1  0
  2  3  1  0
  3  4  2  0
  3  5  1  0
  5  6  2  0
  6  7  1  0
  6  8  1  0
  8  9  1  0
  9 10  1  0
 10 11  2  0
 10 12  1  0
 12 13  1  0
 13 14  1  0
 14 15  1  0
 15 16  1  0
 16 17  2  0
 17 18  1  0
 18 19  2  0
 19 20  1  0
 20 21  2  0
 21 22  1  0
 15 23  1  0
 23 24  1  0
  9 25  2  0
 25 26  1  0
 25  5  1  0
 24 12  1  0
 21 16  1  0
  1 27  1  0
  1 28  1  0
  1 29  1  0
  7 30  1  0
  7 31  1  0
  7 32  1  0
 12 33  1  0
 13 34  1  0
 13 35  1  0
 14 36  1  0
 14 37  1  0
 17 38  1  0
 18 39  1  0
 19 40  1  0
 20 41  1  0
 23 42  1  0
 23 43  1  0
 24 44  1  0
 24 45  1  0
 26 46  1  0
 26 47  1  0
 26 48  1  0
M  CHG  2   2  -1  12   1
M  END
>  <UniqueID>  (12) 
12

>  <SMILES>  (12) 
C[N-]C(=O)c1c(C)sc(C(=O)[NH+]2CCN(c3ccccc3Cl)CC2)c1C

>  <Energy>  (12) 
98.97027553629613

>  <Genealogy>  (12) 
C[N-]C(=O)c1c(C)sc(C(=O)[NH+]2CCN(c3ccccc3Cl)CC2)c1C (protonated)
C[N-]C(=O)c1c(C)sc(C(=O)[NH+]2CCN(c3ccccc3Cl)CC2)c1C (3D coordinates assigned)
C[N-]C(=O)c1c(C)sc(C(=O)[NH+]2CCN(c3ccccc3Cl)CC2)c1C (nonaromatic ring conformer: 98.97027553629613 kcal/mol)

>  <smiles>  (12) 
CNC(=O)c1c(C)sc(C(=O)N2CCN(c3ccccc3Cl)CC2)c1C

>  <score_type>  (12) 
oracle

>  <origin>  (12) 
adg

>  <m_score__min__energy>  (12) 
-8.0399999999999991

>  <m_primary>  (12) 
energy

$$$$
12:0
     RDKit          3D

 64 67  0  0  1  0  0  0  0  0999 V2000
   64.8400   32.6910   49.3650 C   0  0  0  0  0  0  0  0  0  0  0  0
   63.4970   33.2660   49.5900 C   0  0  0  0  0  0  0  0  0  0  0  0
   63.1220   33.7410   50.8090 N   0  0  0  0  0  0  0  0  0  0  0  0
   61.8970   34.1880   50.6850 N   0  0  0  0  0  0  0  0  0  0  0  0
   61.4310   34.0290   49.4080 C   0  0  0  0  0  0  0  0  0  0  0  0
   60.0630   34.4680   49.0480 C   0  0  0  0  0  0  0  0  0  0  0  0
   59.5040   33.5480   48.0520 C   0  0  0  0  0  0  0  0  0  0  0  0
   59.6490   32.2930   48.2680 O   0  0  0  0  0  0  0  0  0  0  0  0
   60.1160   28.8870   49.2980 N   0  0  0  0  0  0  0  0  0  0  0  0
   59.6830   28.7840   48.0890 C   0  0  0  0  0  0  0  0  0  0  0  0
   58.4870   33.6370   44.6440 C   0  0  0  0  0  0  0  0  0  0  0  0
   57.9680   32.8030   43.6600 C   0  0  0  0  0  0  0  0  0  0  0  0
   57.4140   31.5750   43.9810 C   0  0  0  0  0  0  0  0  0  0  0  0
   56.7660   30.6720   42.9870 C   0  0  0  0  0  0  0  0  0  0  0  0
   56.4650   29.3590   43.7030 C   0  0  0  0  0  0  0  0  0  0  0  0
   57.6360   28.4520   43.4360 C   0  0  0  0  0  0  0  0  0  0  0  0
   57.9990   27.6000   44.5810 C   0  0  0  0  0  0  0  0  0  0  0  0
   58.6570   28.1780   45.7340 C   0  0  0  0  0  0  0  0  0  0  0  0
   57.3760   31.1840   45.2680 N   0  0  0  0  0  0  0  0  0  0  0  0
   57.8600   31.9600   46.2230 N   0  0  0  0  0  0  0  0  0  0  0  0
   58.4010   33.1480   45.9390 C   0  0  0  0  0  0  0  0  0  0  0  0
   58.8240   33.8950   46.8760 N   0  0  0  0  0  0  0  0  0  0  0  0
   60.8920   29.9250   49.8180 C   0  0  0  0  0  0  0  0  0  0  0  0
   61.5810   30.6090   49.0090 O   0  0  0  0  0  0  0  0  0  0  0  0
   60.9810   30.3090   51.2460 C   0  0  0  0  0  0  0  0  0  0  0  0
   59.8990   31.2860   51.5520 C   0  0  0  0  0  0  0  0  0  0  0  0
   60.0680   32.3840   52.3640 C   0  0  0  0  0  0  0  0  0  0  0  0
   59.0420   33.2830   52.6450 C   0  0  0  0  0  0  0  0  0  0  0  0
   57.8060   33.0550   52.0780 C   0  0  0  0  0  0  0  0  0  0  0  0
   57.6300   31.9660   51.2680 C   0  0  0  0  0  0  0  0  0  0  0  0
   58.6390   31.0640   50.9800 C   0  0  0  0  0  0  0  0  0  0  0  0
   58.7720   27.3380   47.4260 S   0  0  0  0  0  0  0  0  0  0  0  0
   59.2290   29.2050   45.9660 N   0  0  0  0  0  0  0  0  0  0  0  0
   59.7660   29.6310   47.0280 N   0  0  0  0  0  0  0  0  0  0  0  0
   62.4360   33.4420   48.6910 C   0  0  0  0  0  0  0  0  0  0  0  0
   62.4680   33.0610   47.3080 C   0  0  0  0  0  0  0  0  0  0  0  0
   63.0940   33.7880   46.5000 O   0  0  0  0  0  0  0  0  0  0  0  0
   61.8530   31.9330   46.7690 O   0  0  0  0  0  0  0  0  0  0  0  0
   65.3183   32.4862   50.3342 H   0  0  0  0  0  0  0  0  0  0  0  0
   64.7471   31.7538   48.7967 H   0  0  0  0  0  0  0  0  0  0  0  0
   65.4541   33.4051   48.7967 H   0  0  0  0  0  0  0  0  0  0  0  0
   63.7080   33.7530   51.6960 H   0  0  0  0  0  0  0  0  0  0  0  0
   59.4284   34.4663   49.9465 H   0  0  0  0  0  0  0  0  0  0  0  0
   60.1009   35.4846   48.6296 H   0  0  0  0  0  0  0  0  0  0  0  0
   58.9340   34.6149   44.4119 H   0  0  0  0  0  0  0  0  0  0  0  0
   57.9979   33.1241   42.6083 H   0  0  0  0  0  0  0  0  0  0  0  0
   55.8329   31.1236   42.6190 H   0  0  0  0  0  0  0  0  0  0  0  0
   57.4251   30.5043   42.1224 H   0  0  0  0  0  0  0  0  0  0  0  0
   56.3558   29.5313   44.7839 H   0  0  0  0  0  0  0  0  0  0  0  0
   55.5256   28.9143   43.3428 H   0  0  0  0  0  0  0  0  0  0  0  0
   57.3844   27.8016   42.5853 H   0  0  0  0  0  0  0  0  0  0  0  0
   58.5019   29.0980   43.2292 H   0  0  0  0  0  0  0  0  0  0  0  0
   57.0671   27.1418   44.9438 H   0  0  0  0  0  0  0  0  0  0  0  0
   58.7639   26.9285   44.1638 H   0  0  0  0  0  0  0  0  0  0  0  0
   57.8410   31.6750   47.2480 H   0  0  0  0  0  0  0  0  0  0  0  0
   60.8609   29.4157   51.8766 H   0  0  0  0  0  0  0  0  0  0  0  0
   61.9618   30.7639   51.4489 H   0  0  0  0  0  0  0  0  0  0  0  0
   61.0576   32.5595   52.8111 H   0  0  0  0  0  0  0  0  0  0  0  0
   59.2128   34.1498   53.3003 H   0  0  0  0  0  0  0  0  0  0  0  0
   56.9695   33.7417   52.2748 H   0  0  0  0  0  0  0  0  0  0  0  0
   56.6374   31.7996   50.8240 H   0  0  0  0  0  0  0  0  0  0  0  0
   58.4580   30.2004   50.3232 H   0  0  0  0  0  0  0  0  0  0  0  0
   60.2570   30.5590   47.1440 H   0  0  0  0  0  0  0  0  0  0  0  0
   61.4190   31.3130   47.4750 H   0  0  0  0  0  0  0  0  0  0  0  0
  1  2  1  0
  2  3  1  0
  3  4  1  0
  4  5  2  0
  5  6  1  0
  6  7  1  0
  7  8  2  0
  7  9  1  0
  9 10  2  0
 10 11  1  0
 11 12  2  0
 12 13  1  0
 13 14  1  0
 14 15  1  0
 15 16  1  0
 16 17  1  0
 17 18  1  0
 18 19  2  0
 19 20  1  0
 20 21  1  0
 21 22  2  0
 22 23  1  0
 23 24  2  0
 23 25  1  0
 25 26  1  0
 26 27  2  0
 27 28  1  0
 28 29  2  0
 29 30  1  0
 30 31  2  0
 21 32  1  0
 13 33  2  0
 33 34  1  0
  5 35  1  0
 35 36  1  0
 36 37  2  0
 36 38  1  0
 35  2  2  0
 34 10  1  0
 32 18  1  0
 31 26  1  0
  1 39  1  0
  1 40  1  0
  1 41  1  0
  3 42  1  0
  6 43  1  0
  6 44  1  0
 11 45  1  0
 12 46  1  0
 14 47  1  0
 14 48  1  0
 15 49  1  0
 15 50  1  0
 16 51  1  0
 16 52  1  0
 17 53  1  0
 17 54  1  0
 20 55  1  0
 25 56  1  0
 25 57  1  0
 27 58  1  0
 28 59  1  0
 29 60  1  0
 30 61  1  0
 31 62  1  0
 34 63  1  0
 38 64  1  0
M  END
>  <smiles>  (13) 
Cc1[nH]nc(CC(=O)N=c2ccc(CCCCc3n[nH]c(=NC(=O)Cc4ccccc4)s3)n[nH]2)c1C(=O)O

>  <score_type>  (13) 
oracle

>  <origin>  (13) 
adg

>  <m_score__min__energy>  (13) 
-12.19

>  <m_primary>  (13) 
energy

$$$$
13:0
     RDKit          3D

 39 41  0  0  0  0  0  0  0  0999 V2000
   55.1570   27.4980   45.4950 H   0  0  0  0  0  0  0  0  0  0  0  0
   54.9440   26.6430   45.9940 O   0  0  0  0  0  0  0  0  0  0  0  0
   55.9550   25.7500   46.3320 C   0  0  0  0  0  0  0  0  0  0  0  0
   55.7880   24.6970   47.1490 N   0  0  0  0  0  0  0  0  0  0  0  0
   57.0110   24.1270   47.1510 C   0  0  0  0  0  0  0  0  0  0  0  0
   57.2730   23.0850   47.8070 O   0  0  0  0  0  0  0  0  0  0  0  0
   57.9300   24.7520   46.3830 N   0  0  0  0  0  0  0  0  0  0  0  0
   57.2530   25.8040   45.8860 C   0  0  0  0  0  0  0  0  0  0  0  0
   57.7780   26.7360   44.8740 C   0  0  0  0  0  0  0  0  0  0  0  0
   58.3980   26.3079   44.0726 H   0  0  0  0  0  0  0  0  0  0  0  0
   57.5670   28.0650   44.8420 C   0  0  0  0  0  0  0  0  0  0  0  0
   56.3140   28.5670   44.8610 N   0  0  0  0  0  0  0  0  0  0  0  0
   56.4820   29.8970   44.7560 C   0  0  0  0  0  0  0  0  0  0  0  0
   55.5150   30.7050   44.7430 O   0  0  0  0  0  0  0  0  0  0  0  0
   57.7740   30.2780   44.6820 N   0  0  0  0  0  0  0  0  0  0  0  0
   58.2720   31.6610   44.6690 C   0  0  0  0  0  0  0  0  0  0  0  0
   59.2094   31.7018   44.0949 H   0  0  0  0  0  0  0  0  0  0  0  0
   57.5117   32.3062   44.2047 H   0  0  0  0  0  0  0  0  0  0  0  0
   58.5300   32.1490   46.0750 C   0  0  0  0  0  0  0  0  0  0  0  0
   58.5670   31.2290   47.1360 C   0  0  0  0  0  0  0  0  0  0  0  0
   58.3734   30.1641   46.9395 H   0  0  0  0  0  0  0  0  0  0  0  0
   58.8480   31.6530   48.4430 C   0  0  0  0  0  0  0  0  0  0  0  0
   58.9290   30.6790   49.5500 C   0  0  0  0  0  0  0  0  0  0  0  0
   59.9370   29.9290   49.6320 O   0  0  0  0  0  0  0  0  0  0  0  0
   57.8790   30.5300   50.5150 N   0  0  0  0  0  0  0  0  0  0  0  0
   57.4730   31.5510   51.4720 C   0  0  0  0  0  0  0  0  0  0  0  0
   57.6225   31.1750   52.4949 H   0  0  0  0  0  0  0  0  0  0  0  0
   58.0796   32.4563   51.3218 H   0  0  0  0  0  0  0  0  0  0  0  0
   56.4104   31.7925   51.3218 H   0  0  0  0  0  0  0  0  0  0  0  0
   59.0190   33.0210   48.7010 C   0  0  0  0  0  0  0  0  0  0  0  0
   59.2056   33.3662   49.7286 H   0  0  0  0  0  0  0  0  0  0  0  0
   58.9530   33.9460   47.6570 C   0  0  0  0  0  0  0  0  0  0  0  0
   59.0898   35.0173   47.8659 H   0  0  0  0  0  0  0  0  0  0  0  0
   58.7140   33.5180   46.3480 C   0  0  0  0  0  0  0  0  0  0  0  0
   58.6590   34.4410   45.3540 F   0  0  0  0  0  0  0  0  0  0  0  0
   58.4810   29.1270   44.7710 C   0  0  0  0  0  0  0  0  0  0  0  0
   59.8140   29.0830   44.9210 C   0  0  0  0  0  0  0  0  0  0  0  0
   60.4076   30.0054   44.8379 H   0  0  0  0  0  0  0  0  0  0  0  0
   60.3129   28.1246   45.1271 H   0  0  0  0  0  0  0  0  0  0  0  0
  1  2  1  0
  2  3  1  0
  3  4  1  0
  4  5  1  0
  5  6  2  0
  5  7  1  0
  7  8  1  0
  8  9  1  0
  9 10  1  0
  9 11  2  0
 11 12  1  0
 12 13  1  0
 13 14  2  0
 13 15  1  0
 15 16  1  0
 16 17  1  0
 16 18  1  0
 16 19  1  0
 19 20  2  0
 20 21  1  0
 20 22  1  0
 22 23  1  0
 23 24  2  0
 23 25  1  0
 25 26  1  0
 26 27  1  0
 26 28  1  0
 26 29  1  0
 22 30  2  0
 30 31  1  0
 30 32  1  0
 32 33  1  0
 32 34  2  0
 34 35  1  0
 15 36  1  0
 36 37  2  0
 37 38  1  0
 37 39  1  0
  8  3  2  0
 36 11  1  0
 34 19  1  0
M  CHG  4   4  -1   7  -1  12  -1  25  -1
M  END
>  <UniqueID>  (14) 
13

>  <SMILES>  (14) 
C=c1/c(=C\c2[n-]c(=O)[n-]c2O)[n-]c(=O)n1Cc1cc(C(=O)[N-]C)ccc1F

>  <Energy>  (14) 
116.32543437733422

>  <Genealogy>  (14) 
C=c1c(=Cc2[n-]c(=O)[n-]c2O)[n-]c(=O)n1Cc1cc(C(=O)[N-]C)ccc1F (protonated)
C=c1/c(=C\c2[n-]c(=O)[n-]c2O)[n-]c(=O)n1Cc1cc(C(=O)[N-]C)ccc1F (cis-trans isomerization)
C=c1/c(=C\c2[n-]c(=O)[n-]c2O)[n-]c(=O)n1Cc1cc(C(=O)[N-]C)ccc1F (3D coordinates assigned)
C=c1/c(=C\c2[n-]c(=O)[n-]c2O)[n-]c(=O)n1Cc1cc(C(=O)[N-]C)ccc1F (optimized conformer: 116.32543437733422 kcal/mol)

>  <smiles>  (14) 
C=c1c(=Cc2[nH]c(=O)[nH]c2O)[nH]c(=O)n1Cc1cc(C(=O)NC)ccc1F

>  <score_type>  (14) 
oracle

>  <origin>  (14) 
adg

>  <m_score__min__energy>  (14) 
-15.119999999999999

>  <m_primary>  (14) 
energy

$$$$
14:0
     RDKit          3D

 65 68  0  0  0  0  0  0  0  0999 V2000
   58.1320   26.9950   43.6630 C   0  0  0  0  0  0  0  0  0  0  0  0
   58.5730   28.0080   44.6770 C   0  0  0  0  0  0  0  0  0  0  0  0
   59.7780   28.7060   44.4970 C   0  0  0  0  0  0  0  0  0  0  0  0
   60.1770   29.6720   45.4270 C   0  0  0  0  0  0  0  0  0  0  0  0
   59.3790   29.9560   46.5500 C   0  0  0  0  0  0  0  0  0  0  0  0
   59.8120   31.0240   47.5300 C   0  0  0  0  0  0  0  0  0  0  0  0
   61.1160   31.7540   47.1400 C   0  0  2  0  0  0  0  0  0  0  0  0
   62.1020   31.5640   48.2100 N   0  0  0  0  0  0  0  0  0  0  0  0
   63.3610   32.2590   48.2570 C   0  0  0  0  0  0  0  0  0  0  0  0
   63.7500   32.9190   47.2530 O   0  0  0  0  0  0  0  0  0  0  0  0
   64.2240   32.2060   49.4630 C   0  0  0  0  0  0  0  0  0  0  0  0
   63.9570   31.2600   50.4750 C   0  0  0  0  0  0  0  0  0  0  0  0
   64.7710   31.1800   51.6070 C   0  0  0  0  0  0  0  0  0  0  0  0
   65.8640   32.0370   51.7440 C   0  0  0  0  0  0  0  0  0  0  0  0
   66.1480   32.9720   50.7460 C   0  0  0  0  0  0  0  0  0  0  0  0
   65.3360   33.0580   49.6110 C   0  0  0  0  0  0  0  0  0  0  0  0
   60.8860   33.2260   46.8730 C   0  0  0  0  0  0  0  0  0  0  0  0
   61.5660   33.7990   45.9740 O   0  0  0  0  0  0  0  0  0  0  0  0
   59.9060   33.9880   47.5990 N   0  0  0  0  0  0  0  0  0  0  0  0
   58.7690   34.5600   46.8670 C   0  0  0  0  0  0  0  0  0  0  0  0
   58.3740   33.6690   45.7210 C   0  0  0  0  0  0  0  0  0  0  0  0
   57.4640   32.6190   45.9230 C   0  0  0  0  0  0  0  0  0  0  0  0
   57.0850   31.7990   44.8580 C   0  0  0  0  0  0  0  0  0  0  0  0
   57.5950   32.0360   43.5770 C   0  0  0  0  0  0  0  0  0  0  0  0
   58.4900   33.0890   43.3640 C   0  0  0  0  0  0  0  0  0  0  0  0
   58.8780   33.9050   44.4310 C   0  0  0  0  0  0  0  0  0  0  0  0
   60.2290   34.4860   48.9420 C   0  0  0  0  0  0  0  0  0  0  0  0
   59.9990   33.4180   49.9770 C   0  0  0  0  0  0  0  0  0  0  0  0
   58.8030   32.6790   49.9770 C   0  0  0  0  0  0  0  0  0  0  0  0
   58.5840   31.6930   50.9450 C   0  0  0  0  0  0  0  0  0  0  0  0
   59.5610   31.4250   51.9080 C   0  0  0  0  0  0  0  0  0  0  0  0
   60.7610   32.1380   51.8990 C   0  0  0  0  0  0  0  0  0  0  0  0
   60.9840   33.1290   50.9360 C   0  0  0  0  0  0  0  0  0  0  0  0
   58.1410   29.2970   46.6930 C   0  0  0  0  0  0  0  0  0  0  0  0
   57.7470   28.3240   45.7700 C   0  0  0  0  0  0  0  0  0  0  0  0
   57.7443   26.1044   44.1791 H   0  0  0  0  0  0  0  0  0  0  0  0
   57.3406   27.4273   43.0330 H   0  0  0  0  0  0  0  0  0  0  0  0
   58.9876   26.7103   43.0330 H   0  0  0  0  0  0  0  0  0  0  0  0
   60.4100   28.4927   43.6223 H   0  0  0  0  0  0  0  0  0  0  0  0
   61.1227   30.2140   45.2788 H   0  0  0  0  0  0  0  0  0  0  0  0
   59.0078   31.7709   47.6030 H   0  0  0  0  0  0  0  0  0  0  0  0
   60.0100   30.5140   48.4843 H   0  0  0  0  0  0  0  0  0  0  0  0
   61.4940   31.3223   46.2015 H   0  0  0  0  0  0  0  0  0  0  0  0
   61.8780   30.8700   48.9600 H   0  0  0  0  0  0  0  0  0  0  0  0
   63.0995   30.5789   50.3715 H   0  0  0  0  0  0  0  0  0  0  0  0
   64.5505   30.4409   52.3913 H   0  0  0  0  0  0  0  0  0  0  0  0
   66.5019   31.9761   52.6381 H   0  0  0  0  0  0  0  0  0  0  0  0
   67.0132   33.6428   50.8533 H   0  0  0  0  0  0  0  0  0  0  0  0
   65.5670   33.7958   48.8285 H   0  0  0  0  0  0  0  0  0  0  0  0
   57.9152   34.6674   47.5522 H   0  0  0  0  0  0  0  0  0  0  0  0
   59.0626   35.5420   46.4675 H   0  0  0  0  0  0  0  0  0  0  0  0
   57.0474   32.4413   46.9254 H   0  0  0  0  0  0  0  0  0  0  0  0
   56.3856   30.9669   45.0263 H   0  0  0  0  0  0  0  0  0  0  0  0
   57.2918   31.3937   42.7370 H   0  0  0  0  0  0  0  0  0  0  0  0
   58.8892   33.2756   42.3561 H   0  0  0  0  0  0  0  0  0  0  0  0
   59.5801   34.7344   44.2599 H   0  0  0  0  0  0  0  0  0  0  0  0
   61.2850   34.7927   48.9687 H   0  0  0  0  0  0  0  0  0  0  0  0
   59.5761   35.3421   49.1673 H   0  0  0  0  0  0  0  0  0  0  0  0
   58.0366   32.8768   49.2131 H   0  0  0  0  0  0  0  0  0  0  0  0
   57.6406   31.1273   50.9483 H   0  0  0  0  0  0  0  0  0  0  0  0
   59.3845   30.6534   52.6718 H   0  0  0  0  0  0  0  0  0  0  0  0
   61.5338   31.9204   52.6510 H   0  0  0  0  0  0  0  0  0  0  0  0
   61.9340   33.6835   50.9301 H   0  0  0  0  0  0  0  0  0  0  0  0
   57.4811   29.5500   47.5360 H   0  0  0  0  0  0  0  0  0  0  0  0
   56.7867   27.8034   45.8993 H   0  0  0  0  0  0  0  0  0  0  0  0
  1  2  1  0
  2  3  2  0
  3  4  1  0
  4  5  2  0
  5  6  1  0
  6  7  1  0
  7  8  1  0
  8  9  1  0
  9 10  2  0
  9 11  1  0
 11 12  2  0
 12 13  1  0
 13 14  2  0
 14 15  1  0
 15 16  2  0
  7 17  1  0
 17 18  2  0
 17 19  1  0
 19 20  1  0
 20 21  1  0
 21 22  2  0
 22 23  1  0
 23 24  2  0
 24 25  1  0
 25 26  2  0
 19 27  1  0
 27 28  1  0
 28 29  2  0
 29 30  1  0
 30 31  2  0
 31 32  1  0
 32 33  2  0
  5 34  1  0
 34 35  2  0
 35  2  1  0
 16 11  1  0
 26 21  1  0
 33 28  1  0
  1 36  1  0
  1 37  1  0
  1 38  1  0
  3 39  1  0
  4 40  1  0
  6 41  1  0
  6 42  1  0
  7 43  1  6
  8 44  1  0
 12 45  1  0
 13 46  1  0
 14 47  1  0
 15 48  1  0
 16 49  1  0
 20 50  1  0
 20 51  1  0
 22 52  1  0
 23 53  1  0
 24 54  1  0
 25 55  1  0
 26 56  1  0
 27 57  1  0
 27 58  1  0
 29 59  1  0
 30 60  1  0
 31 61  1  0
 32 62  1  0
 33 63  1  0
 34 64  1  0
 35 65  1  0
M  END
>  <UniqueID>  (15) 
14

>  <SMILES>  (15) 
Cc1ccc(C[C@H](NC(=O)c2ccccc2)C(=O)N(Cc2ccccc2)Cc2ccccc2)cc1

>  <Energy>  (15) 
68.63404921191295

>  <Genealogy>  (15) 
Cc1ccc(C[C@H](NC(=O)c2ccccc2)C(=O)N(Cc2ccccc2)Cc2ccccc2)cc1 (chirality)
Cc1ccc(C[C@H](NC(=O)c2ccccc2)C(=O)N(Cc2ccccc2)Cc2ccccc2)cc1 (3D coordinates assigned)
Cc1ccc(C[C@H](NC(=O)c2ccccc2)C(=O)N(Cc2ccccc2)Cc2ccccc2)cc1 (optimized conformer: 68.63404921191295 kcal/mol)

>  <smiles>  (15) 
Cc1ccc(CC(NC(=O)c2ccccc2)C(=O)N(Cc2ccccc2)Cc2ccccc2)cc1

>  <score_type>  (15) 
oracle

>  <origin>  (15) 
adg

>  <m_score__min__energy>  (15) 
-9.25

>  <m_primary>  (15) 
energy

$$$$
15:0
     RDKit          3D

 56 59  0  0  0  0  0  0  0  0999 V2000
   59.0940   32.7140   49.0190 C   0  0  0  0  0  0  0  0  0  0  0  0
   59.1800   32.9270   47.4880 C   0  0  1  0  0  0  0  0  0  0  0  0
   58.4270   31.7620   46.8290 C   0  0  0  0  0  0  0  0  0  0  0  0
   58.7210   30.5770   47.1440 O   0  0  0  0  0  0  0  0  0  0  0  0
   57.4590   31.9350   45.7800 N   0  0  0  0  0  0  0  0  0  0  0  0
   56.9850   30.8300   44.5240 S   0  0  0  0  0  0  0  0  0  0  0  0
   55.4950   30.8450   44.3420 O   0  0  0  0  0  0  0  0  0  0  0  0
   57.6290   31.2760   43.2410 O   0  0  0  0  0  0  0  0  0  0  0  0
   57.5320   29.1950   44.8720 C   0  0  0  0  0  0  0  0  0  0  0  0
   58.8650   28.8420   44.6310 C   0  0  0  0  0  0  0  0  0  0  0  0
   59.2980   27.5340   44.8620 C   0  0  0  0  0  0  0  0  0  0  0  0
   58.3990   26.5680   45.3240 C   0  0  0  0  0  0  0  0  0  0  0  0
   57.0610   26.9120   45.5870 C   0  0  0  0  0  0  0  0  0  0  0  0
   56.0840   25.8780   45.9980 C   0  0  0  0  0  0  0  0  0  0  0  0
   54.8490   26.1330   46.0000 O   0  0  0  0  0  0  0  0  0  0  0  0
   56.5330   24.5760   46.3940 N   0  0  0  0  0  0  0  0  0  0  0  0
   56.9670   23.6170   45.6220 C   0  0  0  0  0  0  0  0  0  0  0  0
   58.1200   22.9880   45.9840 N   0  0  0  0  0  0  0  0  0  0  0  0
   58.6580   21.9700   45.2640 C   0  0  0  0  0  0  0  0  0  0  0  0
   58.0270   21.5280   44.1040 C   0  0  0  0  0  0  0  0  0  0  0  0
   56.8380   22.1330   43.7020 C   0  0  0  0  0  0  0  0  0  0  0  0
   56.2840   23.1750   44.4580 C   0  0  0  0  0  0  0  0  0  0  0  0
   55.0650   23.7270   44.0630 O   0  0  0  0  0  0  0  0  0  0  0  0
   56.6460   28.2420   45.3900 C   0  0  0  0  0  0  0  0  0  0  0  0
   58.5380   34.2830   47.1300 C   0  0  0  0  0  0  0  0  0  0  0  0
   59.1900   34.6910   45.8260 C   0  0  0  0  0  0  0  0  0  0  0  0
   60.3970   33.7700   45.6750 C   0  0  0  0  0  0  0  0  0  0  0  0
   60.5500   32.9860   46.9160 N   0  0  0  0  0  0  0  0  0  0  0  0
   61.7620   33.7580   47.9380 S   0  0  0  0  0  0  0  0  0  0  0  0
   61.1730   34.9280   48.6750 O   0  0  0  0  0  0  0  0  0  0  0  0
   62.9260   34.2370   47.1150 O   0  0  0  0  0  0  0  0  0  0  0  0
   62.3450   32.6270   49.1470 C   0  0  0  0  0  0  0  0  0  0  0  0
   62.0310   31.2780   49.2240 C   0  0  0  0  0  0  0  0  0  0  0  0
   62.6500   30.6340   50.3020 C   0  0  0  0  0  0  0  0  0  0  0  0
   63.4560   31.4710   51.0630 C   0  0  0  0  0  0  0  0  0  0  0  0
   63.3970   33.0140   50.3970 S   0  0  0  0  0  0  0  0  0  0  0  0
   59.4576   33.6146   49.5355 H   0  0  0  0  0  0  0  0  0  0  0  0
   58.0488   32.5243   49.3047 H   0  0  0  0  0  0  0  0  0  0  0  0
   59.7145   31.8518   49.3047 H   0  0  0  0  0  0  0  0  0  0  0  0
   59.5735   29.5966   44.2587 H   0  0  0  0  0  0  0  0  0  0  0  0
   60.3486   27.2635   44.6800 H   0  0  0  0  0  0  0  0  0  0  0  0
   58.7398   25.5342   45.4825 H   0  0  0  0  0  0  0  0  0  0  0  0
   59.5923   21.4945   45.5971 H   0  0  0  0  0  0  0  0  0  0  0  0
   58.4626   20.7100   43.5114 H   0  0  0  0  0  0  0  0  0  0  0  0
   56.3318   21.7913   42.7871 H   0  0  0  0  0  0  0  0  0  0  0  0
   54.6900   24.5630   44.4980 H   0  0  0  0  0  0  0  0  0  0  0  0
   55.6171   28.5357   45.6450 H   0  0  0  0  0  0  0  0  0  0  0  0
   57.4509   34.1746   47.0018 H   0  0  0  0  0  0  0  0  0  0  0  0
   58.6878   35.0334   47.9202 H   0  0  0  0  0  0  0  0  0  0  0  0
   58.4925   34.5531   44.9866 H   0  0  0  0  0  0  0  0  0  0  0  0
   59.4807   35.7519   45.8267 H   0  0  0  0  0  0  0  0  0  0  0  0
   60.2403   33.0904   44.8244 H   0  0  0  0  0  0  0  0  0  0  0  0
   61.3036   34.3658   45.4931 H   0  0  0  0  0  0  0  0  0  0  0  0
   61.3652   30.7676   48.5124 H   0  0  0  0  0  0  0  0  0  0  0  0
   62.5112   29.5659   50.5253 H   0  0  0  0  0  0  0  0  0  0  0  0
   64.0346   31.1749   51.9505 H   0  0  0  0  0  0  0  0  0  0  0  0
  2  1  1  1
  2  3  1  0
  3  4  2  0
  3  5  1  0
  5  6  1  0
  6  7  2  0
  6  8  2  0
  6  9  1  0
  9 10  2  0
 10 11  1  0
 11 12  2  0
 12 13  1  0
 13 14  1  0
 14 15  2  0
 14 16  1  0
 16 17  2  3
 17 18  1  0
 18 19  1  0
 19 20  2  0
 20 21  1  0
 21 22  2  0
 22 23  1  0
 13 24  2  0
  2 25  1  0
 25 26  1  0
 26 27  1  0
 27 28  1  0
 28 29  1  0
 29 30  2  0
 29 31  2  0
 29 32  1  0
 32 33  2  0
 33 34  1  0
 34 35  2  0
 35 36  1  0
 28  2  1  0
 36 32  1  0
 24  9  1  0
 22 17  1  0
  1 37  1  0
  1 38  1  0
  1 39  1  0
 10 40  1  0
 11 41  1  0
 12 42  1  0
 19 43  1  0
 20 44  1  0
 21 45  1  0
 23 46  1  0
 24 47  1  0
 25 48  1  0
 25 49  1  0
 26 50  1  0
 26 51  1  0
 27 52  1  0
 27 53  1  0
 33 54  1  0
 34 55  1  0
 35 56  1  0
M  CHG  2   5  -1  18  -1
M  END
>  <UniqueID>  (16) 
15

>  <SMILES>  (16) 
C[C@@]1(C(=O)[N-]S(=O)(=O)c2cccc(C(=O)N=c3[n-]cccc3O)c2)CCCN1S(=O)(=O)c1cccs1

>  <Energy>  (16) 
110.40306104145448

>  <Genealogy>  (16) 
CC1(C(=O)[N-]S(=O)(=O)c2cccc(C(=O)N=c3[n-]cccc3O)c2)CCCN1S(=O)(=O)c1cccs1 (protonated)
C[C@@]1(C(=O)[N-]S(=O)(=O)c2cccc(C(=O)N=c3[n-]cccc3O)c2)CCCN1S(=O)(=O)c1cccs1 (chirality)
C[C@@]1(C(=O)[N-]S(=O)(=O)c2cccc(C(=O)N=c3[n-]cccc3O)c2)CCCN1S(=O)(=O)c1cccs1 (3D coordinates assigned)
C[C@@]1(C(=O)[N-]S(=O)(=O)c2cccc(C(=O)N=c3[n-]cccc3O)c2)CCCN1S(=O)(=O)c1cccs1 (nonaromatic ring conformer: 110.40306104145448 kcal/mol)

>  <smiles>  (16) 
CC1(C(=O)NS(=O)(=O)c2cccc(C(=O)N=c3[nH]cccc3O)c2)CCCN1S(=O)(=O)c1cccs1

>  <score_type>  (16) 
oracle

>  <origin>  (16) 
adg

>  <m_score__min__energy>  (16) 
-13.76

>  <m_primary>  (16) 
energy

$$$$
16:0
     RDKit          3D

 55 57  0  0  0  0  0  0  0  0999 V2000
   62.7290   31.0420   50.0750 C   0  0  0  0  0  0  0  0  0  0  0  0
   62.6220   32.0050   48.9230 C   0  0  0  0  0  0  0  0  0  0  0  0
   63.7740   32.3790   48.2110 C   0  0  0  0  0  0  0  0  0  0  0  0
   63.6840   33.2650   47.1370 C   0  0  0  0  0  0  0  0  0  0  0  0
   62.4460   33.7980   46.7720 C   0  0  0  0  0  0  0  0  0  0  0  0
   61.2940   33.4340   47.4710 C   0  0  0  0  0  0  0  0  0  0  0  0
   61.3660   32.5170   48.5340 C   0  0  0  0  0  0  0  0  0  0  0  0
   60.1900   32.1510   49.2740 N   0  0  0  0  0  0  0  0  0  0  0  0
   59.4710   30.9130   49.1880 C   0  0  0  0  0  0  0  0  0  0  0  0
   58.6990   30.5930   50.1290 O   0  0  0  0  0  0  0  0  0  0  0  0
   59.6820   29.9440   48.0610 C   0  0  0  0  0  0  0  0  0  0  0  0
   60.3950   28.3930   48.7020 S   0  0  0  0  0  0  0  0  0  0  0  0
   59.5630   27.3770   47.4900 C   0  0  0  0  0  0  0  0  0  0  0  0
   60.1980   26.3030   46.9550 N   0  0  0  0  0  0  0  0  0  0  0  0
   59.5820   25.5140   46.0390 C   0  0  0  0  0  0  0  0  0  0  0  0
   58.2790   25.8040   45.6300 C   0  0  0  0  0  0  0  0  0  0  0  0
   57.4690   24.7290   44.4950 Cl  0  0  0  0  0  0  0  0  0  0  0  0
   57.6440   26.9290   46.1800 C   0  0  0  0  0  0  0  0  0  0  0  0
   56.2770   27.3130   45.7960 C   0  0  0  0  0  0  0  0  0  0  0  0
   55.3380   26.4950   45.9820 O   0  0  0  0  0  0  0  0  0  0  0  0
   55.9780   28.6030   45.2470 N   0  0  0  0  0  0  0  0  0  0  0  0
   56.6210   29.1840   44.0700 C   0  0  0  0  0  0  0  0  0  0  0  0
   57.8030   30.0680   44.4830 C   0  0  0  0  0  0  0  0  0  0  0  0
   57.5840   31.5220   44.0500 C   0  0  0  0  0  0  0  0  0  0  0  0
   58.5730   32.4030   44.7130 N   0  0  0  0  0  0  0  0  0  0  0  0
   58.6910   32.1320   46.1670 C   0  0  0  0  0  0  0  0  0  0  0  0
   57.7660   33.0320   47.0120 C   0  0  0  0  0  0  0  0  0  0  0  0
   56.6410   33.4320   46.2610 O   0  0  0  0  0  0  0  0  0  0  0  0
   57.0370   34.3110   45.2210 C   0  0  0  0  0  0  0  0  0  0  0  0
   58.2980   33.8320   44.4660 C   0  0  0  0  0  0  0  0  0  0  0  0
   58.2960   27.6790   47.1060 N   0  0  0  0  0  0  0  0  0  0  0  0
   62.6674   31.5963   51.0232 H   0  0  0  0  0  0  0  0  0  0  0  0
   61.9062   30.3138   50.0218 H   0  0  0  0  0  0  0  0  0  0  0  0
   63.6915   30.5122   50.0218 H   0  0  0  0  0  0  0  0  0  0  0  0
   64.7530   31.9707   48.5021 H   0  0  0  0  0  0  0  0  0  0  0  0
   64.5890   33.5439   46.5773 H   0  0  0  0  0  0  0  0  0  0  0  0
   62.3786   34.5056   45.9325 H   0  0  0  0  0  0  0  0  0  0  0  0
   60.3234   33.8675   47.1882 H   0  0  0  0  0  0  0  0  0  0  0  0
   58.7169   29.7298   47.5785 H   0  0  0  0  0  0  0  0  0  0  0  0
   60.3739   30.3853   47.3285 H   0  0  0  0  0  0  0  0  0  0  0  0
   60.1096   24.6453   45.6184 H   0  0  0  0  0  0  0  0  0  0  0  0
   56.9846   28.3745   43.4200 H   0  0  0  0  0  0  0  0  0  0  0  0
   55.8863   29.8019   43.5329 H   0  0  0  0  0  0  0  0  0  0  0  0
   57.9134   30.0319   45.5769 H   0  0  0  0  0  0  0  0  0  0  0  0
   58.7105   29.6900   43.9895 H   0  0  0  0  0  0  0  0  0  0  0  0
   57.7016   31.5987   42.9590 H   0  0  0  0  0  0  0  0  0  0  0  0
   56.5702   31.8358   44.3392 H   0  0  0  0  0  0  0  0  0  0  0  0
   58.4261   31.0806   46.3526 H   0  0  0  0  0  0  0  0  0  0  0  0
   59.7283   32.3459   46.4640 H   0  0  0  0  0  0  0  0  0  0  0  0
   57.4293   32.4737   47.8980 H   0  0  0  0  0  0  0  0  0  0  0  0
   58.3257   33.9285   47.3171 H   0  0  0  0  0  0  0  0  0  0  0  0
   56.2097   34.3960   44.5011 H   0  0  0  0  0  0  0  0  0  0  0  0
   57.2815   35.2777   45.6854 H   0  0  0  0  0  0  0  0  0  0  0  0
   58.1469   33.9845   43.3872 H   0  0  0  0  0  0  0  0  0  0  0  0
   59.1573   34.4142   44.8302 H   0  0  0  0  0  0  0  0  0  0  0  0
  1  2  1  0
  2  3  2  0
  3  4  1  0
  4  5  2  0
  5  6  1  0
  6  7  2  0
  7  8  1  0
  8  9  1  0
  9 10  2  0
  9 11  1  0
 11 12  1  0
 12 13  1  0
 13 14  2  0
 14 15  1  0
 15 16  2  0
 16 17  1  0
 16 18  1  0
 18 19  1  0
 19 20  2  0
 19 21  1  0
 21 22  1  0
 22 23  1  0
 23 24  1  0
 24 25  1  0
 25 26  1  0
 26 27  1  0
 27 28  1  0
 28 29  1  0
 29 30  1  0
 18 31  2  0
  7  2  1  0
 31 13  1  0
 30 25  1  0
  1 32  1  0
  1 33  1  0
  1 34  1  0
  3 35  1  0
  4 36  1  0
  5 37  1  0
  6 38  1  0
 11 39  1  0
 11 40  1  0
 15 41  1  0
 22 42  1  0
 22 43  1  0
 23 44  1  0
 23 45  1  0
 24 46  1  0
 24 47  1  0
 26 48  1  0
 26 49  1  0
 27 50  1  0
 27 51  1  0
 29 52  1  0
 29 53  1  0
 30 54  1  0
 30 55  1  0
M  CHG  2   8  -1  21  -1
M  END
>  <UniqueID>  (17) 
16

>  <SMILES>  (17) 
Cc1ccccc1[N-]C(=O)CSc1ncc(Cl)c(C(=O)[N-]CCCN2CCOCC2)n1

>  <Energy>  (17) 
70.64441522221749

>  <Genealogy>  (17) 
Cc1ccccc1[N-]C(=O)CSc1ncc(Cl)c(C(=O)[N-]CCCN2CCOCC2)n1 (protonated)
Cc1ccccc1[N-]C(=O)CSc1ncc(Cl)c(C(=O)[N-]CCCN2CCOCC2)n1 (3D coordinates assigned)
Cc1ccccc1[N-]C(=O)CSc1ncc(Cl)c(C(=O)[N-]CCCN2CCOCC2)n1 (nonaromatic ring conformer: 70.64441522221749 kcal/mol)

>  <smiles>  (17) 
Cc1ccccc1NC(=O)CSc1ncc(Cl)c(C(=O)NCCCN2CCOCC2)n1

>  <score_type>  (17) 
oracle

>  <origin>  (17) 
adg

>  <m_score__min__energy>  (17) 
-11.84

>  <m_primary>  (17) 
energy

$$$$
17:0
     RDKit          3D

 44 47  0  0  0  0  0  0  0  0999 V2000
   59.6929   36.2156   45.2750 H   0  0  0  0  0  0  0  0  0  0  0  0
   59.3970   35.2170   45.6290 C   0  0  0  0  0  0  0  0  0  0  0  0
   59.5130   34.8960   46.9800 C   0  0  0  0  0  0  0  0  0  0  0  0
   59.9145   35.6355   47.6885 H   0  0  0  0  0  0  0  0  0  0  0  0
   59.1200   33.6370   47.4340 C   0  0  0  0  0  0  0  0  0  0  0  0
   59.2054   33.3915   48.5029 H   0  0  0  0  0  0  0  0  0  0  0  0
   58.6140   32.6760   46.5340 C   0  0  0  0  0  0  0  0  0  0  0  0
   58.1550   31.4220   46.9740 O   0  0  0  0  0  0  0  0  0  0  0  0
   58.9000   30.4920   47.7620 C   0  0  0  0  0  0  0  0  0  0  0  0
   58.3905   29.5173   47.7462 H   0  0  0  0  0  0  0  0  0  0  0  0
   58.9641   30.8755   48.7910 H   0  0  0  0  0  0  0  0  0  0  0  0
   60.3150   30.3250   47.2150 C   0  0  0  0  0  0  0  0  0  0  0  0
   61.0241   30.2413   48.0518 H   0  0  0  0  0  0  0  0  0  0  0  0
   60.3651   29.4147   46.5995 H   0  0  0  0  0  0  0  0  0  0  0  0
   60.5757   31.1986   46.5995 H   0  0  0  0  0  0  0  0  0  0  0  0
   58.5410   32.9940   45.1570 C   0  0  0  0  0  0  0  0  0  0  0  0
   58.0640   32.0660   44.1690 N   0  0  0  0  0  0  0  0  0  0  0  0
   57.4560   30.9400   44.4060 C   0  0  0  0  0  0  0  0  0  0  0  0
   56.1210   30.8150   44.5560 N   0  0  0  0  0  0  0  0  0  0  0  0
   55.7490   29.5790   44.8740 N   0  0  0  0  0  0  0  0  0  0  0  0
   56.7870   28.7260   44.9990 C   0  0  0  0  0  0  0  0  0  0  0  0
   56.6060   27.0560   45.6140 S   0  0  0  0  0  0  0  0  0  0  0  0
   58.0880   27.1000   46.6950 C   0  0  0  0  0  0  0  0  0  0  0  0
   58.5284   28.1071   46.6527 H   0  0  0  0  0  0  0  0  0  0  0  0
   57.7701   26.8469   47.7172 H   0  0  0  0  0  0  0  0  0  0  0  0
   59.1220   26.1020   46.2720 C   0  0  0  0  0  0  0  0  0  0  0  0
   60.2920   26.4820   46.0010 O   0  0  0  0  0  0  0  0  0  0  0  0
   58.7610   24.7170   46.1750 N   0  0  0  0  0  0  0  0  0  0  0  0
   57.4520   24.1470   46.3280 C   0  0  0  0  0  0  0  0  0  0  0  0
   56.9520   23.9690   47.6400 C   0  0  0  0  0  0  0  0  0  0  0  0
   57.6117   24.1488   48.5016 H   0  0  0  0  0  0  0  0  0  0  0  0
   55.6220   23.5650   47.8560 C   0  0  0  0  0  0  0  0  0  0  0  0
   55.2286   23.4225   48.8733 H   0  0  0  0  0  0  0  0  0  0  0  0
   54.8220   23.3520   46.7390 C   0  0  0  0  0  0  0  0  0  0  0  0
   53.5250   23.0080   46.7150 N   0  0  0  0  0  0  0  0  0  0  0  0
   53.2700   22.9750   45.3830 C   0  0  0  0  0  0  0  0  0  0  0  0
   52.1350   22.6870   44.9230 O   0  0  0  0  0  0  0  0  0  0  0  0
   54.3210   23.2800   44.5820 N   0  0  0  0  0  0  0  0  0  0  0  0
   55.2940   23.5110   45.4740 C   0  0  0  0  0  0  0  0  0  0  0  0
   56.6030   23.9070   45.2180 C   0  0  0  0  0  0  0  0  0  0  0  0
   56.9676   24.0300   44.1875 H   0  0  0  0  0  0  0  0  0  0  0  0
   58.2590   29.4840   44.6760 S   0  0  0  0  0  0  0  0  0  0  0  0
   58.9070   34.2760   44.7250 C   0  0  0  0  0  0  0  0  0  0  0  0
   58.8066   34.5421   43.6624 H   0  0  0  0  0  0  0  0  0  0  0  0
  1  2  1  0
  2  3  2  0
  3  4  1  0
  3  5  1  0
  5  6  1  0
  5  7  2  0
  7  8  1  0
  8  9  1  0
  9 10  1  0
  9 11  1  0
  9 12  1  0
 12 13  1  0
 12 14  1  0
 12 15  1  0
  7 16  1  0
 16 17  1  0
 17 18  2  0
 18 19  1  0
 19 20  1  0
 20 21  2  0
 21 22  1  0
 22 23  1  0
 23 24  1  0
 23 25  1  0
 23 26  1  0
 26 27  2  0
 26 28  1  0
 28 29  1  0
 29 30  2  0
 30 31  1  0
 30 32  1  0
 32 33  1  0
 32 34  2  0
 34 35  1  0
 35 36  1  0
 36 37  2  0
 36 38  1  0
 38 39  1  0
 39 40  2  0
 40 41  1  0
 21 42  1  0
 16 43  2  0
 43 44  1  0
 43  2  1  0
 42 18  1  0
 40 29  1  0
 39 34  1  0
M  CHG  4  19  -1  28  -1  35  -1  38  -1
M  END
>  <UniqueID>  (18) 
17

>  <SMILES>  (18) 
CCOc1ccccc1/N=c1\[n-]nc(SCC(=O)[N-]c2ccc3[n-]c(=O)[n-]c3c2)s1

>  <Energy>  (18) 
118.8972696782174

>  <Genealogy>  (18) 
CCOc1ccccc1N=c1[n-]nc(SCC(=O)[N-]c2ccc3[n-]c(=O)[n-]c3c2)s1 (protonated)
CCOc1ccccc1/N=c1\[n-]nc(SCC(=O)[N-]c2ccc3[n-]c(=O)[n-]c3c2)s1 (cis-trans isomerization)
CCOc1ccccc1/N=c1\[n-]nc(SCC(=O)[N-]c2ccc3[n-]c(=O)[n-]c3c2)s1 (3D coordinates assigned)
CCOc1ccccc1/N=c1\[n-]nc(SCC(=O)[N-]c2ccc3[n-]c(=O)[n-]c3c2)s1 (optimized conformer: 118.8972696782174 kcal/mol)

>  <smiles>  (18) 
CCOc1ccccc1N=c1[nH]nc(SCC(=O)Nc2ccc3[nH]c(=O)[nH]c3c2)s1

>  <score_type>  (18) 
oracle

>  <origin>  (18) 
adg

>  <m_score__min__energy>  (18) 
-14.98

>  <m_primary>  (18) 
energy

$$$$
18:0
     RDKit          3D

 64 67  0  0  0  0  0  0  0  0999 V2000
   59.2650   34.6080   45.4650 C   0  0  0  0  0  0  0  0  0  0  0  0
   59.3050   33.2870   45.6930 C   0  0  0  0  0  0  0  0  0  0  0  0
   60.5010   32.6870   46.3750 C   0  0  0  0  0  0  0  0  0  0  0  0
   60.2030   31.3660   47.0530 C   0  0  0  0  0  0  0  0  0  0  0  0
   61.0550   30.9250   48.0900 C   0  0  0  0  0  0  0  0  0  0  0  0
   62.1020   31.7600   48.5140 O   0  0  0  0  0  0  0  0  0  0  0  0
   63.2430   32.0800   47.7670 C   0  0  0  0  0  0  0  0  0  0  0  0
   63.6790   31.3050   46.8710 O   0  0  0  0  0  0  0  0  0  0  0  0
   64.0320   33.2970   48.1370 C   0  0  0  0  0  0  0  0  0  0  0  0
   64.9230   33.0440   49.3620 C   0  0  0  0  0  0  0  0  0  0  0  0
   64.2250   33.4060   50.6800 C   0  0  0  0  0  0  0  0  0  0  0  0
   63.0950   34.2430   50.4380 O   0  0  0  0  0  0  0  0  0  0  0  0
   61.7560   33.8200   50.3920 C   0  0  0  0  0  0  0  0  0  0  0  0
   61.1930   32.9610   51.3590 C   0  0  0  0  0  0  0  0  0  0  0  0
   59.8490   32.5800   51.2640 C   0  0  0  0  0  0  0  0  0  0  0  0
   59.0590   33.0470   50.2080 C   0  0  0  0  0  0  0  0  0  0  0  0
   59.6100   33.8980   49.2460 C   0  0  0  0  0  0  0  0  0  0  0  0
   60.9520   34.2820   49.3390 C   0  0  0  0  0  0  0  0  0  0  0  0
   60.8660   29.6530   48.6540 C   0  0  0  0  0  0  0  0  0  0  0  0
   59.8310   28.8360   48.2120 C   0  0  0  0  0  0  0  0  0  0  0  0
   58.9780   29.2680   47.2010 C   0  0  0  0  0  0  0  0  0  0  0  0
   59.1470   30.5350   46.5990 C   0  0  0  0  0  0  0  0  0  0  0  0
   58.2430   30.9990   45.5590 N   0  0  0  0  0  0  0  0  0  0  0  0
   57.2450   30.1000   44.9480 C   0  0  0  0  0  0  0  0  0  0  0  0
   57.8050   28.7190   44.7220 C   0  0  0  0  0  0  0  0  0  0  0  0
   58.9750   28.6030   44.2660 O   0  0  0  0  0  0  0  0  0  0  0  0
   57.0230   27.5460   44.9950 N   0  0  0  0  0  0  0  0  0  0  0  0
   57.6240   26.2120   45.0030 C   0  0  0  0  0  0  0  0  0  0  0  0
   56.5490   25.1580   45.0300 C   0  0  0  0  0  0  0  0  0  0  0  0
   56.8460   23.8500   44.6070 C   0  0  0  0  0  0  0  0  0  0  0  0
   55.8780   22.8440   44.6900 C   0  0  0  0  0  0  0  0  0  0  0  0
   54.6100   23.1310   45.2080 C   0  0  0  0  0  0  0  0  0  0  0  0
   54.3090   24.4240   45.6420 C   0  0  0  0  0  0  0  0  0  0  0  0
   55.2740   25.4360   45.5640 C   0  0  0  0  0  0  0  0  0  0  0  0
   54.9600   26.7120   46.0220 O   0  0  0  0  0  0  0  0  0  0  0  0
   58.2450   32.3940   45.1890 C   0  0  0  0  0  0  0  0  0  0  0  0
   57.3330   32.8570   44.4470 O   0  0  0  0  0  0  0  0  0  0  0  0
   58.3920   35.0538   44.9659 H   0  0  0  0  0  0  0  0  0  0  0  0
   60.1052   35.2457   45.7771 H   0  0  0  0  0  0  0  0  0  0  0  0
   61.2868   32.5240   45.6227 H   0  0  0  0  0  0  0  0  0  0  0  0
   60.8173   33.3915   47.1583 H   0  0  0  0  0  0  0  0  0  0  0  0
   64.6681   33.5821   47.2860 H   0  0  0  0  0  0  0  0  0  0  0  0
   63.3250   34.1018   48.3869 H   0  0  0  0  0  0  0  0  0  0  0  0
   65.1940   31.9782   49.3873 H   0  0  0  0  0  0  0  0  0  0  0  0
   65.8121   33.6847   49.2672 H   0  0  0  0  0  0  0  0  0  0  0  0
   63.8912   32.4833   51.1773 H   0  0  0  0  0  0  0  0  0  0  0  0
   64.9365   33.9481   51.3202 H   0  0  0  0  0  0  0  0  0  0  0  0
   61.8113   32.5896   52.1896 H   0  0  0  0  0  0  0  0  0  0  0  0
   59.4132   31.9119   52.0215 H   0  0  0  0  0  0  0  0  0  0  0  0
   58.0040   32.7443   50.1349 H   0  0  0  0  0  0  0  0  0  0  0  0
   58.9887   34.2657   48.4161 H   0  0  0  0  0  0  0  0  0  0  0  0
   61.3809   34.9523   48.5796 H   0  0  0  0  0  0  0  0  0  0  0  0
   61.5397   29.3011   49.4491 H   0  0  0  0  0  0  0  0  0  0  0  0
   59.6860   27.8436   48.6637 H   0  0  0  0  0  0  0  0  0  0  0  0
   58.1601   28.6134   46.8655 H   0  0  0  0  0  0  0  0  0  0  0  0
   56.3743   30.0269   45.6162 H   0  0  0  0  0  0  0  0  0  0  0  0
   56.9580   30.5182   43.9719 H   0  0  0  0  0  0  0  0  0  0  0  0
   56.0120   27.6500   45.2300 H   0  0  0  0  0  0  0  0  0  0  0  0
   58.2361   26.0837   44.0981 H   0  0  0  0  0  0  0  0  0  0  0  0
   58.2527   26.1067   45.8994 H   0  0  0  0  0  0  0  0  0  0  0  0
   57.8446   23.6171   44.2089 H   0  0  0  0  0  0  0  0  0  0  0  0
   56.1137   21.8256   44.3476 H   0  0  0  0  0  0  0  0  0  0  0  0
   53.8503   22.3382   45.2734 H   0  0  0  0  0  0  0  0  0  0  0  0
   53.3109   24.6482   46.0463 H   0  0  0  0  0  0  0  0  0  0  0  0
  1  2  2  0
  2  3  1  0
  3  4  1  0
  4  5  2  0
  5  6  1  0
  6  7  1  0
  7  8  2  0
  7  9  1  0
  9 10  1  0
 10 11  1  0
 11 12  1  0
 12 13  1  0
 13 14  2  0
 14 15  1  0
 15 16  2  0
 16 17  1  0
 17 18  2  0
  5 19  1  0
 19 20  2  0
 20 21  1  0
 21 22  2  0
 22 23  1  0
 23 24  1  0
 24 25  1  0
 25 26  2  0
 25 27  1  0
 27 28  1  0
 28 29  1  0
 29 30  2  0
 30 31  1  0
 31 32  2  0
 32 33  1  0
 33 34  2  0
 34 35  1  0
 23 36  1  0
 36 37  2  0
 36  2  1  0
 22  4  1  0
 34 29  1  0
 18 13  1  0
  1 38  1  0
  1 39  1  0
  3 40  1  0
  3 41  1  0
  9 42  1  0
  9 43  1  0
 10 44  1  0
 10 45  1  0
 11 46  1  0
 11 47  1  0
 14 48  1  0
 15 49  1  0
 16 50  1  0
 17 51  1  0
 18 52  1  0
 19 53  1  0
 20 54  1  0
 21 55  1  0
 24 56  1  0
 24 57  1  0
 27 58  1  0
 28 59  1  0
 28 60  1  0
 30 61  1  0
 31 62  1  0
 32 63  1  0
 33 64  1  0
M  CHG  1  35  -1
M  END
>  <UniqueID>  (19) 
18

>  <SMILES>  (19) 
C=C1Cc2c(OC(=O)CCCOc3ccccc3)cccc2N(CC(=O)NCc2ccccc2[O-])C1=O

>  <Energy>  (19) 
71.06885361634832

>  <Genealogy>  (19) 
C=C1Cc2c(OC(=O)CCCOc3ccccc3)cccc2N(CC(=O)NCc2ccccc2[O-])C1=O (protonated)
C=C1Cc2c(OC(=O)CCCOc3ccccc3)cccc2N(CC(=O)NCc2ccccc2[O-])C1=O (3D coordinates assigned)
C=C1Cc2c(OC(=O)CCCOc3ccccc3)cccc2N(CC(=O)NCc2ccccc2[O-])C1=O (nonaromatic ring conformer: 71.06885361634832 kcal/mol)

>  <smiles>  (19) 
C=C1Cc2c(OC(=O)CCCOc3ccccc3)cccc2N(CC(=O)NCc2ccccc2O)C1=O

>  <score_type>  (19) 
oracle

>  <origin>  (19) 
adg

>  <m_score__min__energy>  (19) 
-12.66

>  <m_primary>  (19) 
energy

$$$$
19:0
     RDKit          3D

 50 52  0  0  0  0  0  0  0  0999 V2000
   56.3630   29.7650   44.1430 C   0  0  0  0  0  0  0  0  0  0  0  0
   57.4250   29.7010   44.9570 C   0  0  0  0  0  0  0  0  0  0  0  0
   57.9460   30.8870   45.3740 N   0  0  0  0  0  0  0  0  0  0  0  0
   58.8920   30.9820   46.3400 C   0  0  0  0  0  0  0  0  0  0  0  0
   59.3410   29.8290   46.9940 C   0  0  0  0  0  0  0  0  0  0  0  0
   60.2750   29.8680   48.0400 O   0  0  0  0  0  0  0  0  0  0  0  0
   60.5630   31.0260   48.8210 C   0  0  0  0  0  0  0  0  0  0  0  0
   61.7810   31.7270   48.2860 C   0  0  0  0  0  0  0  0  0  0  0  0
   61.7590   32.1730   47.1060 O   0  0  0  0  0  0  0  0  0  0  0  0
   62.9790   31.8580   49.0830 N   0  0  0  0  0  0  0  0  0  0  0  0
   63.1510   31.0400   50.2970 C   0  0  0  0  0  0  0  0  0  0  0  0
   64.5820   31.1240   50.8380 C   0  0  0  0  0  0  0  0  0  0  0  0
   65.0030   32.6040   51.0330 C   0  0  0  0  0  0  0  0  0  0  0  0
   66.4220   32.7750   51.4500 N   0  0  0  0  0  0  0  0  0  0  0  0
   66.9780   34.1130   51.1750 C   0  0  0  0  0  0  0  0  0  0  0  0
   67.2980   31.7300   50.8960 C   0  0  0  0  0  0  0  0  0  0  0  0
   64.6880   33.4920   49.7950 C   0  0  0  0  0  0  0  0  0  0  0  0
   64.0850   32.7110   48.6200 C   0  0  0  0  0  0  0  0  0  0  0  0
   58.8490   28.5920   46.5800 C   0  0  0  0  0  0  0  0  0  0  0  0
   57.9460   28.4820   45.5020 C   0  0  0  0  0  0  0  0  0  0  0  0
   57.6630   27.2310   45.0610 C   0  0  0  0  0  0  0  0  0  0  0  0
   57.1740   26.1040   45.8770 C   0  0  0  0  0  0  0  0  0  0  0  0
   57.9430   25.0620   46.2360 N   0  0  0  0  0  0  0  0  0  0  0  0
   57.0770   24.2360   46.8630 C   0  0  0  0  0  0  0  0  0  0  0  0
   57.4310   23.1380   47.3650 O   0  0  0  0  0  0  0  0  0  0  0  0
   55.8000   24.6740   46.9010 N   0  0  0  0  0  0  0  0  0  0  0  0
   55.8760   25.8520   46.2600 C   0  0  0  0  0  0  0  0  0  0  0  0
   54.7740   26.6600   46.0040 O   0  0  0  0  0  0  0  0  0  0  0  0
   55.8975   28.8398   43.7724 H   0  0  0  0  0  0  0  0  0  0  0  0
   55.9564   30.7428   43.8452 H   0  0  0  0  0  0  0  0  0  0  0  0
   59.3065   31.9646   46.6097 H   0  0  0  0  0  0  0  0  0  0  0  0
   59.7038   31.7119   48.7834 H   0  0  0  0  0  0  0  0  0  0  0  0
   60.7546   30.7184   49.8596 H   0  0  0  0  0  0  0  0  0  0  0  0
   62.4558   31.3988   51.0703 H   0  0  0  0  0  0  0  0  0  0  0  0
   62.9435   29.9916   50.0367 H   0  0  0  0  0  0  0  0  0  0  0  0
   64.6346   30.6023   51.8050 H   0  0  0  0  0  0  0  0  0  0  0  0
   65.2639   30.6524   50.1151 H   0  0  0  0  0  0  0  0  0  0  0  0
   64.3788   32.9538   51.8685 H   0  0  0  0  0  0  0  0  0  0  0  0
   67.1904   34.6242   52.1255 H   0  0  0  0  0  0  0  0  0  0  0  0
   67.9085   34.0117   50.5972 H   0  0  0  0  0  0  0  0  0  0  0  0
   66.2497   34.7010   50.5972 H   0  0  0  0  0  0  0  0  0  0  0  0
   67.7670   31.1705   51.7188 H   0  0  0  0  0  0  0  0  0  0  0  0
   66.7025   31.0423   50.2776 H   0  0  0  0  0  0  0  0  0  0  0  0
   68.0791   32.1962   50.2776 H   0  0  0  0  0  0  0  0  0  0  0  0
   63.9737   34.2716   50.0982 H   0  0  0  0  0  0  0  0  0  0  0  0
   65.6427   33.9138   49.4476 H   0  0  0  0  0  0  0  0  0  0  0  0
   63.7056   33.4207   47.8700 H   0  0  0  0  0  0  0  0  0  0  0  0
   64.8652   32.0739   48.1779 H   0  0  0  0  0  0  0  0  0  0  0  0
   59.1722   27.6814   47.1058 H   0  0  0  0  0  0  0  0  0  0  0  0
   57.8131   27.0379   43.9885 H   0  0  0  0  0  0  0  0  0  0  0  0
  1  2  2  0
  2  3  1  0
  3  4  2  0
  4  5  1  0
  5  6  1  0
  6  7  1  0
  7  8  1  0
  8  9  2  0
  8 10  1  0
 10 11  1  0
 11 12  1  0
 12 13  1  0
 13 14  1  0
 14 15  1  0
 14 16  1  0
 13 17  1  0
 17 18  1  0
  5 19  2  0
 19 20  1  0
 20 21  2  3
 21 22  1  0
 22 23  1  0
 23 24  1  0
 24 25  2  0
 24 26  1  0
 26 27  1  0
 27 28  1  0
 20  2  1  0
 27 22  2  0
 18 10  1  0
  1 29  1  0
  1 30  1  0
  4 31  1  0
  7 32  1  0
  7 33  1  0
 11 34  1  0
 11 35  1  0
 12 36  1  0
 12 37  1  0
 13 38  1  0
 15 39  1  0
 15 40  1  0
 15 41  1  0
 16 42  1  0
 16 43  1  0
 16 44  1  0
 17 45  1  0
 17 46  1  0
 18 47  1  0
 18 48  1  0
 19 49  1  0
 21 50  1  0
M  CHG  3  23  -1  26  -1  28  -1
M  END
>  <UniqueID>  (20) 
19

>  <SMILES>  (20) 
C=c1ncc(OCC(=O)N2CCC(N(C)C)CC2)cc1=Cc1[n-]c(=O)[n-]c1[O-]

>  <Energy>  (20) 
107.76320709920046

>  <Genealogy>  (20) 
C=c1ncc(OCC(=O)N2CCC(N(C)C)CC2)cc1=Cc1[n-]c(=O)[n-]c1[O-] (protonated)
C=c1ncc(OCC(=O)N2CCC(N(C)C)CC2)cc1=Cc1[n-]c(=O)[n-]c1[O-] (3D coordinates assigned)
C=c1ncc(OCC(=O)N2CCC(N(C)C)CC2)cc1=Cc1[n-]c(=O)[n-]c1[O-] (nonaromatic ring conformer: 107.76320709920046 kcal/mol)

>  <smiles>  (20) 
C=c1ncc(OCC(=O)N2CCC(N(C)C)CC2)cc1=Cc1[nH]c(=O)[nH]c1O

>  <score_type>  (20) 
oracle

>  <origin>  (20) 
adg

>  <m_score__min__energy>  (20) 
-17.300000000000001

>  <m_primary>  (20) 
energy

$$$$
20:0
     RDKit          3D

 55 57  0  0  0  0  0  0  0  0999 V2000
   55.5260   29.9330   43.7770 C   0  0  0  0  0  0  0  0  0  0  0  0
   56.6180   29.4700   44.3870 C   0  0  0  0  0  0  0  0  0  0  0  0
   56.7070   28.2240   44.8960 N   0  0  0  0  0  0  0  0  0  0  0  0
   57.9640   28.0800   45.3710 C   0  0  0  0  0  0  0  0  0  0  0  0
   58.4420   26.9580   45.9390 C   0  0  0  0  0  0  0  0  0  0  0  0
   57.7990   25.6080   45.7800 C   0  0  0  0  0  0  0  0  0  0  0  0
   56.5200   25.5100   46.5660 C   0  0  0  0  0  0  0  0  0  0  0  0
   56.5760   25.1780   47.7790 O   0  0  0  0  0  0  0  0  0  0  0  0
   55.2360   25.7840   45.9900 N   0  0  0  0  0  0  0  0  0  0  0  0
   54.3790   24.8350   45.2840 C   0  0  0  0  0  0  0  0  0  0  0  0
   55.1770   23.6690   44.7560 C   0  0  0  0  0  0  0  0  0  0  0  0
   55.8670   23.7930   43.5370 C   0  0  0  0  0  0  0  0  0  0  0  0
   56.6050   22.7230   43.0290 C   0  0  0  0  0  0  0  0  0  0  0  0
   56.6560   21.5160   43.7260 C   0  0  0  0  0  0  0  0  0  0  0  0
   55.9640   21.3720   44.9310 C   0  0  0  0  0  0  0  0  0  0  0  0
   55.2110   22.4430   45.4550 C   0  0  0  0  0  0  0  0  0  0  0  0
   54.4900   22.3230   46.6550 O   0  0  0  0  0  0  0  0  0  0  0  0
   55.0310   22.5630   47.9510 C   0  0  0  0  0  0  0  0  0  0  0  0
   58.6830   29.2560   45.1780 C   0  0  0  0  0  0  0  0  0  0  0  0
   60.1180   29.5070   45.5480 C   0  0  0  0  0  0  0  0  0  0  0  0
   57.8220   30.1430   44.5470 C   0  0  0  0  0  0  0  0  0  0  0  0
   58.1460   31.5130   44.1000 C   0  0  0  0  0  0  0  0  0  0  0  0
   58.2620   31.7380   42.8660 O   0  0  0  0  0  0  0  0  0  0  0  0
   58.3490   32.5820   45.0460 N   0  0  0  0  0  0  0  0  0  0  0  0
   57.9330   33.9480   44.7130 C   0  0  0  0  0  0  0  0  0  0  0  0
   58.8770   34.9560   45.3760 C   0  0  0  0  0  0  0  0  0  0  0  0
   59.0060   34.6910   46.7600 O   0  0  0  0  0  0  0  0  0  0  0  0
   59.6350   33.4390   46.9500 C   0  0  0  0  0  0  0  0  0  0  0  0
   58.7530   32.3010   46.4280 C   0  0  0  0  0  0  0  0  0  0  0  0
   55.5106   30.9591   43.3808 H   0  0  0  0  0  0  0  0  0  0  0  0
   54.6408   29.2888   43.6701 H   0  0  0  0  0  0  0  0  0  0  0  0
   55.9410   27.5130   44.9030 H   0  0  0  0  0  0  0  0  0  0  0  0
   59.3519   27.0321   46.5526 H   0  0  0  0  0  0  0  0  0  0  0  0
   57.5780   25.4406   44.7155 H   0  0  0  0  0  0  0  0  0  0  0  0
   58.4964   24.8469   46.1598 H   0  0  0  0  0  0  0  0  0  0  0  0
   53.6113   24.4602   45.9770 H   0  0  0  0  0  0  0  0  0  0  0  0
   53.9129   25.3526   44.4326 H   0  0  0  0  0  0  0  0  0  0  0  0
   55.8247   24.7404   42.9797 H   0  0  0  0  0  0  0  0  0  0  0  0
   57.1470   22.8317   42.0780 H   0  0  0  0  0  0  0  0  0  0  0  0
   57.2424   20.6756   43.3260 H   0  0  0  0  0  0  0  0  0  0  0  0
   56.0068   20.4167   45.4747 H   0  0  0  0  0  0  0  0  0  0  0  0
   54.3079   22.2422   48.7153 H   0  0  0  0  0  0  0  0  0  0  0  0
   55.9656   21.9951   48.0691 H   0  0  0  0  0  0  0  0  0  0  0  0
   55.2372   23.6370   48.0691 H   0  0  0  0  0  0  0  0  0  0  0  0
   60.2166   29.5242   46.6434 H   0  0  0  0  0  0  0  0  0  0  0  0
   60.7486   28.7055   45.1357 H   0  0  0  0  0  0  0  0  0  0  0  0
   60.4391   30.4749   45.1357 H   0  0  0  0  0  0  0  0  0  0  0  0
   57.9633   34.0829   43.6217 H   0  0  0  0  0  0  0  0  0  0  0  0
   56.9094   34.1147   45.0796 H   0  0  0  0  0  0  0  0  0  0  0  0
   59.8674   34.8877   44.9022 H   0  0  0  0  0  0  0  0  0  0  0  0
   58.4594   35.9656   45.2485 H   0  0  0  0  0  0  0  0  0  0  0  0
   60.5922   33.4307   46.4081 H   0  0  0  0  0  0  0  0  0  0  0  0
   59.8025   33.2890   48.0268 H   0  0  0  0  0  0  0  0  0  0  0  0
   59.3174   31.3573   46.4592 H   0  0  0  0  0  0  0  0  0  0  0  0
   57.8563   32.2164   47.0594 H   0  0  0  0  0  0  0  0  0  0  0  0
  1  2  2  0
  2  3  1  0
  3  4  1  0
  4  5  2  3
  5  6  1  0
  6  7  1  0
  7  8  2  0
  7  9  1  0
  9 10  1  0
 10 11  1  0
 11 12  2  0
 12 13  1  0
 13 14  2  0
 14 15  1  0
 15 16  2  0
 16 17  1  0
 17 18  1  0
  4 19  1  0
 19 20  1  0
 19 21  2  0
 21 22  1  0
 22 23  2  0
 22 24  1  0
 24 25  1  0
 25 26  1  0
 26 27  1  0
 27 28  1  0
 28 29  1  0
 21  2  1  0
 29 24  1  0
 16 11  1  0
  1 30  1  0
  1 31  1  0
  3 32  1  0
  5 33  1  0
  6 34  1  0
  6 35  1  0
 10 36  1  0
 10 37  1  0
 12 38  1  0
 13 39  1  0
 14 40  1  0
 15 41  1  0
 18 42  1  0
 18 43  1  0
 18 44  1  0
 20 45  1  0
 20 46  1  0
 20 47  1  0
 25 48  1  0
 25 49  1  0
 26 50  1  0
 26 51  1  0
 28 52  1  0
 28 53  1  0
 29 54  1  0
 29 55  1  0
M  CHG  1   9  -1
M  END
>  <UniqueID>  (21) 
20

>  <SMILES>  (21) 
C=c1[nH]c(=CCC(=O)[N-]Cc2ccccc2OC)c(C)c1C(=O)N1CCOCC1

>  <Energy>  (21) 
86.30432817608613

>  <Genealogy>  (21) 
C=c1[nH]c(=CCC(=O)[N-]Cc2ccccc2OC)c(C)c1C(=O)N1CCOCC1 (protonated)
C=c1[nH]c(=CCC(=O)[N-]Cc2ccccc2OC)c(C)c1C(=O)N1CCOCC1 (3D coordinates assigned)
C=c1[nH]c(=CCC(=O)[N-]Cc2ccccc2OC)c(C)c1C(=O)N1CCOCC1 (nonaromatic ring conformer: 86.30432817608613 kcal/mol)

>  <smiles>  (21) 
C=c1[nH]c(=CCC(=O)NCc2ccccc2OC)c(C)c1C(=O)N1CCOCC1

>  <score_type>  (21) 
oracle

>  <origin>  (21) 
adg

>  <m_score__min__energy>  (21) 
-11.08

>  <m_primary>  (21) 
energy

$$$$
21:0
     RDKit          3D

 58 61  0  0  0  0  0  0  0  0999 V2000
   59.3450   29.4270   44.9950 C   0  0  0  0  0  0  0  0  0  0  0  0
   59.2170   29.1890   46.3050 C   0  0  0  0  0  0  0  0  0  0  0  0
   59.4140   30.1400   47.2400 N   0  0  0  0  0  0  0  0  0  0  0  0
   59.2120   29.5640   48.4410 C   0  0  0  0  0  0  0  0  0  0  0  0
   59.3170   30.2910   49.7220 C   0  0  0  0  0  0  0  0  0  0  0  0
   58.3380   30.2620   50.5160 O   0  0  0  0  0  0  0  0  0  0  0  0
   60.5060   31.0150   50.0930 N   0  0  0  0  0  0  0  0  0  0  0  0
   60.3630   32.3140   50.7650 C   0  0  0  0  0  0  0  0  0  0  0  0
   61.7230   32.8720   51.1910 C   0  0  0  0  0  0  0  0  0  0  0  0
   62.6940   32.9380   50.0030 C   0  0  0  0  0  0  0  0  0  0  0  0
   62.6890   31.6640   49.1090 C   0  0  2  0  0  0  0  0  0  0  0  0
   62.2500   32.0050   47.6910 C   0  0  0  0  0  0  0  0  0  0  0  0
   61.8930   31.0700   46.9210 O   0  0  0  0  0  0  0  0  0  0  0  0
   62.1430   33.3710   47.2240 N   0  0  0  0  0  0  0  0  0  0  0  0
   63.2210   33.9060   46.3850 C   0  0  0  0  0  0  0  0  0  0  0  0
   61.0510   34.2750   47.6210 C   0  0  0  0  0  0  0  0  0  0  0  0
   59.7940   33.9380   46.8600 C   0  0  0  0  0  0  0  0  0  0  0  0
   58.6950   33.3630   47.5210 C   0  0  0  0  0  0  0  0  0  0  0  0
   57.5180   33.0830   46.8190 C   0  0  0  0  0  0  0  0  0  0  0  0
   57.4270   33.3790   45.4570 C   0  0  0  0  0  0  0  0  0  0  0  0
   58.5130   33.9580   44.7930 C   0  0  0  0  0  0  0  0  0  0  0  0
   59.6920   34.2380   45.4910 C   0  0  0  0  0  0  0  0  0  0  0  0
   61.8410   30.5230   49.7190 C   0  0  0  0  0  0  0  0  0  0  0  0
   58.8640   28.2330   48.2820 C   0  0  0  0  0  0  0  0  0  0  0  0
   58.8650   27.9840   46.9160 C   0  0  0  0  0  0  0  0  0  0  0  0
   58.6250   26.8040   46.3130 C   0  0  0  0  0  0  0  0  0  0  0  0
   57.3190   26.1220   46.3290 C   0  0  0  0  0  0  0  0  0  0  0  0
   57.1760   24.8110   46.5900 N   0  0  0  0  0  0  0  0  0  0  0  0
   55.8520   24.6000   46.4220 C   0  0  0  0  0  0  0  0  0  0  0  0
   55.3190   23.4730   46.5930 O   0  0  0  0  0  0  0  0  0  0  0  0
   55.1480   25.6880   46.0470 N   0  0  0  0  0  0  0  0  0  0  0  0
   56.0920   26.6420   45.9790 C   0  0  0  0  0  0  0  0  0  0  0  0
   55.8450   27.9460   45.5640 O   0  0  0  0  0  0  0  0  0  0  0  0
   59.1738   28.6179   44.2697 H   0  0  0  0  0  0  0  0  0  0  0  0
   59.6215   30.4318   44.6430 H   0  0  0  0  0  0  0  0  0  0  0  0
   59.6800   31.1360   47.0690 H   0  0  0  0  0  0  0  0  0  0  0  0
   59.8847   33.0241   50.0743 H   0  0  0  0  0  0  0  0  0  0  0  0
   59.7477   32.1732   51.6659 H   0  0  0  0  0  0  0  0  0  0  0  0
   61.5839   33.8848   51.5972 H   0  0  0  0  0  0  0  0  0  0  0  0
   62.1502   32.2034   51.9529 H   0  0  0  0  0  0  0  0  0  0  0  0
   62.4177   33.8000   49.3781 H   0  0  0  0  0  0  0  0  0  0  0  0
   63.7063   33.0269   50.4242 H   0  0  0  0  0  0  0  0  0  0  0  0
   63.7211   31.2863   49.0623 H   0  0  0  0  0  0  0  0  0  0  0  0
   64.0217   34.3034   47.0261 H   0  0  0  0  0  0  0  0  0  0  0  0
   63.6241   33.1034   45.7499 H   0  0  0  0  0  0  0  0  0  0  0  0
   62.8255   34.7124   45.7499 H   0  0  0  0  0  0  0  0  0  0  0  0
   60.8631   34.1663   48.6994 H   0  0  0  0  0  0  0  0  0  0  0  0
   61.3418   35.3111   47.3932 H   0  0  0  0  0  0  0  0  0  0  0  0
   58.7607   33.1323   48.5945 H   0  0  0  0  0  0  0  0  0  0  0  0
   56.6625   32.6289   47.3405 H   0  0  0  0  0  0  0  0  0  0  0  0
   56.5009   33.1566   44.9066 H   0  0  0  0  0  0  0  0  0  0  0  0
   58.4398   34.1934   43.7210 H   0  0  0  0  0  0  0  0  0  0  0  0
   60.5436   34.6952   44.9659 H   0  0  0  0  0  0  0  0  0  0  0  0
   61.7349   29.7158   48.9792 H   0  0  0  0  0  0  0  0  0  0  0  0
   62.3468   30.1476   50.6208 H   0  0  0  0  0  0  0  0  0  0  0  0
   58.6322   27.5138   49.0814 H   0  0  0  0  0  0  0  0  0  0  0  0
   59.4541   26.3200   45.7760 H   0  0  0  0  0  0  0  0  0  0  0  0
   55.1300   28.1410   44.8740 H   0  0  0  0  0  0  0  0  0  0  0  0
  1  2  2  0
  2  3  1  0
  3  4  1  0
  4  5  1  0
  5  6  2  0
  5  7  1  0
  7  8  1  0
  8  9  1  0
  9 10  1  0
 10 11  1  0
 11 12  1  0
 12 13  2  0
 12 14  1  0
 14 15  1  0
 14 16  1  0
 16 17  1  0
 17 18  2  0
 18 19  1  0
 19 20  2  0
 20 21  1  0
 21 22  2  0
 11 23  1  0
  4 24  2  0
 24 25  1  0
 25 26  2  3
 26 27  1  0
 27 28  1  0
 28 29  1  0
 29 30  2  0
 29 31  1  0
 31 32  1  0
 32 33  1  0
 25  2  1  0
 32 27  2  0
 23  7  1  0
 22 17  1  0
  1 34  1  0
  1 35  1  0
  3 36  1  0
  8 37  1  0
  8 38  1  0
  9 39  1  0
  9 40  1  0
 10 41  1  0
 10 42  1  0
 11 43  1  6
 15 44  1  0
 15 45  1  0
 15 46  1  0
 16 47  1  0
 16 48  1  0
 18 49  1  0
 19 50  1  0
 20 51  1  0
 21 52  1  0
 22 53  1  0
 23 54  1  0
 23 55  1  0
 24 56  1  0
 26 57  1  0
 33 58  1  0
M  CHG  2  28  -1  31  -1
M  END
>  <UniqueID>  (22) 
21

>  <SMILES>  (22) 
C=c1[nH]c(C(=O)N2CCC[C@H](C(=O)N(C)Cc3ccccc3)C2)cc1=Cc1[n-]c(=O)[n-]c1O

>  <Energy>  (22) 
128.14826261041574

>  <Genealogy>  (22) 
C=c1[nH]c(C(=O)N2CCCC(C(=O)N(C)Cc3ccccc3)C2)cc1=Cc1[n-]c(=O)[n-]c1O (protonated)
C=c1[nH]c(C(=O)N2CCC[C@H](C(=O)N(C)Cc3ccccc3)C2)cc1=Cc1[n-]c(=O)[n-]c1O (chirality)
C=c1[nH]c(C(=O)N2CCC[C@H](C(=O)N(C)Cc3ccccc3)C2)cc1=Cc1[n-]c(=O)[n-]c1O (3D coordinates assigned)
C=c1[nH]c(C(=O)N2CCC[C@H](C(=O)N(C)Cc3ccccc3)C2)cc1=Cc1[n-]c(=O)[n-]c1O (nonaromatic ring conformer: 128.14826261041574 kcal/mol)

>  <smiles>  (22) 
C=c1[nH]c(C(=O)N2CCCC(C(=O)N(C)Cc3ccccc3)C2)cc1=Cc1[nH]c(=O)[nH]c1O

>  <score_type>  (22) 
oracle

>  <origin>  (22) 
adg

>  <m_score__min__energy>  (22) 
-13.65

>  <m_primary>  (22) 
energy

$$$$
22:0
     RDKit          3D

 53 57  0  0  0  0  0  0  0  0999 V2000
   55.7741   30.2214   43.1034 H   0  0  0  0  0  0  0  0  0  0  0  0
   56.3500   29.8720   43.9730 C   0  0  0  0  0  0  0  0  0  0  0  0
   56.0460   28.6830   44.5530 N   0  0  0  0  0  0  0  0  0  0  0  0
   56.7480   28.2220   45.6220 C   0  0  0  0  0  0  0  0  0  0  0  0
   56.4490   27.0900   46.1920 N   0  0  0  0  0  0  0  0  0  0  0  0
   56.4820   25.7860   45.5900 C   0  0  0  0  0  0  0  0  0  0  0  0
   57.5890   25.4340   44.8100 C   0  0  0  0  0  0  0  0  0  0  0  0
   58.4201   26.1447   44.6907 H   0  0  0  0  0  0  0  0  0  0  0  0
   57.6480   24.1870   44.1810 C   0  0  0  0  0  0  0  0  0  0  0  0
   58.5304   23.9201   43.5808 H   0  0  0  0  0  0  0  0  0  0  0  0
   56.5890   23.2710   44.3090 C   0  0  0  0  0  0  0  0  0  0  0  0
   56.6670   21.9520   43.6270 C   0  0  0  0  0  0  0  0  0  0  0  0
   56.2750   21.8670   42.4290 O   0  0  0  0  0  0  0  0  0  0  0  0
   57.1360   20.7670   44.3210 N   0  0  0  0  0  0  0  0  0  0  0  0
   57.7230   20.1820   43.6810 H   0  0  0  0  0  0  0  0  0  0  0  0
   56.0420   19.9140   44.8040 C   0  0  0  0  0  0  0  0  0  0  0  0
   55.1931   20.5323   45.1311 H   0  0  0  0  0  0  0  0  0  0  0  0
   55.6768   19.2453   44.0106 H   0  0  0  0  0  0  0  0  0  0  0  0
   56.6010   19.1250   45.9770 C   0  0  0  0  0  0  0  0  0  0  0  0
   55.8407   19.0138   46.7642 H   0  0  0  0  0  0  0  0  0  0  0  0
   56.9036   18.1094   45.6819 H   0  0  0  0  0  0  0  0  0  0  0  0
   57.7790   19.9440   46.4850 C   0  0  0  0  0  0  0  0  0  0  0  0
   57.5787   20.3146   47.5012 H   0  0  0  0  0  0  0  0  0  0  0  0
   58.6991   19.3434   46.5360 H   0  0  0  0  0  0  0  0  0  0  0  0
   57.9210   21.1090   45.5130 C   0  0  0  0  0  0  0  0  0  0  0  0
   57.5335   22.0319   45.9693 H   0  0  0  0  0  0  0  0  0  0  0  0
   58.9764   21.2797   45.2541 H   0  0  0  0  0  0  0  0  0  0  0  0
   55.4570   23.6440   45.0560 C   0  0  0  0  0  0  0  0  0  0  0  0
   54.6093   22.9488   45.1462 H   0  0  0  0  0  0  0  0  0  0  0  0
   55.4010   24.8920   45.6850 C   0  0  0  0  0  0  0  0  0  0  0  0
   54.5057   25.1758   46.2576 H   0  0  0  0  0  0  0  0  0  0  0  0
   57.7550   28.9750   46.1360 N   0  0  0  0  0  0  0  0  0  0  0  0
   58.0940   30.1800   45.6030 C   0  0  0  0  0  0  0  0  0  0  0  0
   59.2020   30.9380   46.2220 C   0  0  0  0  0  0  0  0  0  0  0  0
   59.0320   32.2630   46.6470 C   0  0  0  0  0  0  0  0  0  0  0  0
   58.0649   32.7662   46.5003 H   0  0  0  0  0  0  0  0  0  0  0  0
   60.0590   32.9280   47.2400 N   0  0  0  0  0  0  0  0  0  0  0  0
   61.2730   32.3510   47.4530 C   0  0  0  0  0  0  0  0  0  0  0  0
   62.2590   32.9950   48.0180 N   0  0  0  0  0  0  0  0  0  0  0  0
   63.1180   32.6910   49.1790 C   0  0  0  0  0  0  0  0  0  0  0  0
   62.6077   31.7392   49.3880 H   0  0  0  0  0  0  0  0  0  0  0  0
   63.5860   33.8630   50.0240 C   0  0  0  0  0  0  0  0  0  0  0  0
   63.2564   34.8837   49.7802 H   0  0  0  0  0  0  0  0  0  0  0  0
   63.5586   34.1108   51.0954 H   0  0  0  0  0  0  0  0  0  0  0  0
   64.5700   33.1360   49.1050 C   0  0  0  0  0  0  0  0  0  0  0  0
   64.9482   33.6332   48.1996 H   0  0  0  0  0  0  0  0  0  0  0  0
   65.5441   32.6432   49.2400 H   0  0  0  0  0  0  0  0  0  0  0  0
   61.4750   31.0230   47.0610 C   0  0  0  0  0  0  0  0  0  0  0  0
   62.4480   30.5388   47.2310 H   0  0  0  0  0  0  0  0  0  0  0  0
   60.4360   30.3150   46.4530 C   0  0  0  0  0  0  0  0  0  0  0  0
   60.5864   29.2669   46.1550 H   0  0  0  0  0  0  0  0  0  0  0  0
   57.3910   30.6520   44.4770 C   0  0  0  0  0  0  0  0  0  0  0  0
   57.8210   32.1380   43.6370 Cl  0  0  0  0  0  0  0  0  0  0  0  0
  1  2  1  0
  2  3  1  0
  3  4  1  0
  4  5  2  0
  5  6  1  0
  6  7  2  0
  7  8  1  0
  7  9  1  0
  9 10  1  0
  9 11  2  0
 11 12  1  0
 12 13  2  0
 12 14  1  0
 14 15  1  0
 14 16  1  0
 16 17  1  0
 16 18  1  0
 16 19  1  0
 19 20  1  0
 19 21  1  0
 19 22  1  0
 22 23  1  0
 22 24  1  0
 22 25  1  0
 25 26  1  0
 25 27  1  0
 11 28  1  0
 28 29  1  0
 28 30  2  0
 30 31  1  0
  4 32  1  0
 32 33  2  0
 33 34  1  0
 34 35  2  0
 35 36  1  0
 35 37  1  0
 37 38  1  0
 38 39  2  3
 39 40  1  0
 40 41  1  0
 40 42  1  0
 42 43  1  0
 42 44  1  0
 42 45  1  0
 45 46  1  0
 45 47  1  0
 38 48  1  0
 48 49  1  0
 48 50  2  0
 50 51  1  0
 33 52  1  0
 52 53  1  0
 52  2  2  0
 30  6  1  0
 50 34  1  0
 25 14  1  0
 45 40  1  0
M  CHG  3   3  -1  14   1  37  -1
M  END
>  <UniqueID>  (23) 
22

>  <SMILES>  (23) 
O=C(c1ccc(/N=c2/nc(-c3ccc(=NC4CC4)[n-]c3)c(Cl)c[n-]2)cc1)[NH+]1CCCC1

>  <Energy>  (23) 
354.6379084628974

>  <Genealogy>  (23) 
O=C(c1ccc(N=c2nc(-c3ccc(=NC4CC4)[n-]c3)c(Cl)c[n-]2)cc1)[NH+]1CCCC1 (protonated)
O=C(c1ccc(/N=c2/nc(-c3ccc(=NC4CC4)[n-]c3)c(Cl)c[n-]2)cc1)[NH+]1CCCC1 (cis-trans isomerization)
O=C(c1ccc(/N=c2/nc(-c3ccc(=NC4CC4)[n-]c3)c(Cl)c[n-]2)cc1)[NH+]1CCCC1 (3D coordinates assigned)
O=C(c1ccc(/N=c2/nc(-c3ccc(=NC4CC4)[n-]c3)c(Cl)c[n-]2)cc1)[NH+]1CCCC1 (nonaromatic ring conformer: 354.6379084628974 kcal/mol)

>  <smiles>  (23) 
O=C(c1ccc(N=c2nc(-c3ccc(=NC4CC4)[nH]c3)c(Cl)c[nH]2)cc1)N1CCCC1

>  <score_type>  (23) 
oracle

>  <origin>  (23) 
adg

>  <m_score__min__energy>  (23) 
-10.949999999999999

>  <m_primary>  (23) 
energy

$$$$
23:0
     RDKit          3D

 54 58  0  0  0  0  0  0  0  0999 V2000
   57.7830   26.9180   44.2200 C   0  0  0  0  0  0  0  0  0  0  0  0
   58.2330   27.1870   45.4600 C   0  0  0  0  0  0  0  0  0  0  0  0
   57.9450   26.4450   46.6170 C   0  0  0  0  0  0  0  0  0  0  0  0
   57.3640   25.2390   46.7780 C   0  0  0  0  0  0  0  0  0  0  0  0
   56.5120   24.5550   45.7910 C   0  0  0  0  0  0  0  0  0  0  0  0
   56.8130   23.3760   45.2160 N   0  0  0  0  0  0  0  0  0  0  0  0
   55.7010   23.0800   44.5090 C   0  0  0  0  0  0  0  0  0  0  0  0
   55.5990   22.0390   43.8100 O   0  0  0  0  0  0  0  0  0  0  0  0
   54.7040   23.9820   44.6200 N   0  0  0  0  0  0  0  0  0  0  0  0
   55.2260   24.9030   45.4460 C   0  0  0  0  0  0  0  0  0  0  0  0
   54.5340   26.0360   45.8680 O   0  0  0  0  0  0  0  0  0  0  0  0
   58.4280   27.1800   47.6800 C   0  0  0  0  0  0  0  0  0  0  0  0
   59.0640   28.2820   47.1530 C   0  0  0  0  0  0  0  0  0  0  0  0
   59.8290   29.2360   47.9760 C   0  0  0  0  0  0  0  0  0  0  0  0
   61.0580   29.4020   47.7520 O   0  0  0  0  0  0  0  0  0  0  0  0
   59.1690   30.0230   48.9710 N   0  0  0  0  0  0  0  0  0  0  0  0
   59.8700   30.8380   49.9550 C   0  0  0  0  0  0  0  0  0  0  0  0
   61.0500   31.5220   49.3210 C   0  0  0  0  0  0  0  0  0  0  0  0
   62.3680   31.2530   49.7760 C   0  0  0  0  0  0  0  0  0  0  0  0
   63.4760   31.8730   49.1700 C   0  0  0  0  0  0  0  0  0  0  0  0
   63.2340   32.7520   48.1160 C   0  0  0  0  0  0  0  0  0  0  0  0
   64.1410   33.4400   47.4040 N   0  0  0  0  0  0  0  0  0  0  0  0
   63.4350   34.1470   46.4920 C   0  0  0  0  0  0  0  0  0  0  0  0
   62.0710   33.9060   46.6280 C   0  0  0  0  0  0  0  0  0  0  0  0
   61.9670   33.0120   47.6720 C   0  0  0  0  0  0  0  0  0  0  0  0
   60.8470   32.4170   48.2470 C   0  0  0  0  0  0  0  0  0  0  0  0
   58.9290   28.3130   45.8000 N   0  0  0  0  0  0  0  0  0  0  0  0
   59.4060   29.3950   44.9100 C   0  0  0  0  0  0  0  0  0  0  0  0
   58.6480   30.6920   45.1220 C   0  0  0  0  0  0  0  0  0  0  0  0
   59.2550   31.7220   45.8660 C   0  0  0  0  0  0  0  0  0  0  0  0
   58.5890   32.9300   46.0880 C   0  0  0  0  0  0  0  0  0  0  0  0
   57.3210   33.1390   45.5470 C   0  0  0  0  0  0  0  0  0  0  0  0
   56.7220   32.1460   44.7710 C   0  0  0  0  0  0  0  0  0  0  0  0
   57.3780   30.9300   44.5420 C   0  0  0  0  0  0  0  0  0  0  0  0
   56.5850   29.7610   43.4960 Cl  0  0  0  0  0  0  0  0  0  0  0  0
   58.0695   27.5658   43.3784 H   0  0  0  0  0  0  0  0  0  0  0  0
   57.1288   26.0505   44.0485 H   0  0  0  0  0  0  0  0  0  0  0  0
   57.5423   24.7200   47.7313 H   0  0  0  0  0  0  0  0  0  0  0  0
   53.6580   25.9610   46.3700 H   0  0  0  0  0  0  0  0  0  0  0  0
   58.3246   26.9326   48.7468 H   0  0  0  0  0  0  0  0  0  0  0  0
   59.1815   31.5975   50.3538 H   0  0  0  0  0  0  0  0  0  0  0  0
   60.2271   30.1889   50.7681 H   0  0  0  0  0  0  0  0  0  0  0  0
   62.5241   30.5532   50.6102 H   0  0  0  0  0  0  0  0  0  0  0  0
   64.5001   31.6705   49.5169 H   0  0  0  0  0  0  0  0  0  0  0  0
   65.1790   33.4320   47.5240 H   0  0  0  0  0  0  0  0  0  0  0  0
   63.8787   34.8209   45.7444 H   0  0  0  0  0  0  0  0  0  0  0  0
   61.2529   34.3359   46.0314 H   0  0  0  0  0  0  0  0  0  0  0  0
   59.8350   32.6372   47.8762 H   0  0  0  0  0  0  0  0  0  0  0  0
   60.4731   29.5724   45.1095 H   0  0  0  0  0  0  0  0  0  0  0  0
   59.2391   29.0740   43.8712 H   0  0  0  0  0  0  0  0  0  0  0  0
   60.2646   31.5739   46.2769 H   0  0  0  0  0  0  0  0  0  0  0  0
   59.0657   33.7173   46.6904 H   0  0  0  0  0  0  0  0  0  0  0  0
   56.7931   34.0862   45.7319 H   0  0  0  0  0  0  0  0  0  0  0  0
   55.7268   32.3196   44.3357 H   0  0  0  0  0  0  0  0  0  0  0  0
  1  2  2  0
  2  3  1  0
  3  4  2  3
  4  5  1  0
  5  6  1  0
  6  7  1  0
  7  8  2  0
  7  9  1  0
  9 10  1  0
 10 11  1  0
  3 12  1  0
 12 13  2  0
 13 14  1  0
 14 15  2  0
 14 16  1  0
 16 17  1  0
 17 18  1  0
 18 19  2  0
 19 20  1  0
 20 21  2  0
 21 22  1  0
 22 23  1  0
 23 24  2  0
 24 25  1  0
 25 26  2  0
 13 27  1  0
 27 28  1  0
 28 29  1  0
 29 30  2  0
 30 31  1  0
 31 32  2  0
 32 33  1  0
 33 34  2  0
 34 35  1  0
 27  2  1  0
 34 29  1  0
 10  5  2  0
 26 18  1  0
 25 21  1  0
  1 36  1  0
  1 37  1  0
  4 38  1  0
 11 39  1  0
 12 40  1  0
 17 41  1  0
 17 42  1  0
 19 43  1  0
 20 44  1  0
 22 45  1  0
 23 46  1  0
 24 47  1  0
 26 48  1  0
 28 49  1  0
 28 50  1  0
 30 51  1  0
 31 52  1  0
 32 53  1  0
 33 54  1  0
M  CHG  3   6  -1   9  -1  16  -1
M  END
>  <UniqueID>  (24) 
23

>  <SMILES>  (24) 
C=c1c(=Cc2[n-]c(=O)[n-]c2O)cc(C(=O)[N-]Cc2ccc3[nH]ccc3c2)n1Cc1ccccc1Cl

>  <Energy>  (24) 
165.4767041600577

>  <Genealogy>  (24) 
C=c1c(=Cc2[n-]c(=O)[n-]c2O)cc(C(=O)[N-]Cc2ccc3[nH]ccc3c2)n1Cc1ccccc1Cl (protonated)
C=c1c(=Cc2[n-]c(=O)[n-]c2O)cc(C(=O)[N-]Cc2ccc3[nH]ccc3c2)n1Cc1ccccc1Cl (3D coordinates assigned)
C=c1c(=Cc2[n-]c(=O)[n-]c2O)cc(C(=O)[N-]Cc2ccc3[nH]ccc3c2)n1Cc1ccccc1Cl (optimized conformer: 165.4767041600577 kcal/mol)

>  <smiles>  (24) 
C=c1c(=Cc2[nH]c(=O)[nH]c2O)cc(C(=O)NCc2ccc3[nH]ccc3c2)n1Cc1ccccc1Cl

>  <score_type>  (24) 
oracle

>  <origin>  (24) 
adg

>  <m_score__min__energy>  (24) 
-15.380000000000001

>  <m_primary>  (24) 
energy

$$$$
24:0
     RDKit          3D

 56 58  0  0  0  0  0  0  0  0999 V2000
   59.7120   31.4970   52.1200 C   0  0  0  0  0  0  0  0  0  0  0  0
   59.2550   30.1650   51.0260 S   0  0  0  0  0  0  0  0  0  0  0  0
   57.7600   30.1180   50.8580 O   0  0  0  0  0  0  0  0  0  0  0  0
   59.7150   28.8680   51.6240 O   0  0  0  0  0  0  0  0  0  0  0  0
   60.0050   30.3530   49.4740 N   0  0  0  0  0  0  0  0  0  0  0  0
   59.7000   29.5890   48.2990 C   0  0  0  0  0  0  0  0  0  0  0  0
   58.6100   28.7040   48.2450 C   0  0  0  0  0  0  0  0  0  0  0  0
   58.3350   27.9930   47.0740 C   0  0  0  0  0  0  0  0  0  0  0  0
   57.2610   27.1640   47.0380 F   0  0  0  0  0  0  0  0  0  0  0  0
   59.1600   28.1400   45.9440 C   0  0  0  0  0  0  0  0  0  0  0  0
   58.8460   27.4120   44.6590 C   0  0  0  0  0  0  0  0  0  0  0  0
   57.9820   28.2720   43.7020 C   0  0  1  0  0  0  0  0  0  0  0  0
   57.3960   27.4430   42.6400 N   0  0  0  0  0  0  0  0  0  0  0  0
   56.8610   29.0050   44.4780 C   0  0  0  0  0  0  0  0  0  0  0  0
   57.0450   30.4940   44.4360 C   0  0  0  0  0  0  0  0  0  0  0  0
   56.5930   31.1390   43.4530 O   0  0  0  0  0  0  0  0  0  0  0  0
   57.7380   31.1730   45.4960 N   0  0  0  0  0  0  0  0  0  0  0  0
   58.2220   32.5210   45.3890 C   0  0  0  0  0  0  0  0  0  0  0  0
   58.0540   33.1800   44.3240 O   0  0  0  0  0  0  0  0  0  0  0  0
   58.9300   33.1650   46.5560 C   0  0  2  0  0  0  0  0  0  0  0  0
   60.4550   33.1190   46.3480 C   0  0  0  0  0  0  0  0  0  0  0  0
   61.1990   33.5140   47.5980 C   0  0  0  0  0  0  0  0  0  0  0  0
   62.5660   33.8230   47.5190 C   0  0  0  0  0  0  0  0  0  0  0  0
   63.2830   34.1440   48.6740 C   0  0  0  0  0  0  0  0  0  0  0  0
   62.6460   34.1570   49.9150 C   0  0  0  0  0  0  0  0  0  0  0  0
   61.2880   33.8430   50.0070 C   0  0  0  0  0  0  0  0  0  0  0  0
   60.5600   33.4990   48.8570 C   0  0  0  0  0  0  0  0  0  0  0  0
   59.0770   33.2230   48.9700 C   0  0  0  0  0  0  0  0  0  0  0  0
   58.5600   32.4860   47.8080 N   0  0  0  0  0  0  0  0  0  0  0  0
   60.2580   29.0110   46.0080 C   0  0  0  0  0  0  0  0  0  0  0  0
   60.5160   29.7410   47.1700 C   0  0  0  0  0  0  0  0  0  0  0  0
   61.5720   30.5930   47.2000 F   0  0  0  0  0  0  0  0  0  0  0  0
   59.5995   31.1691   53.1639 H   0  0  0  0  0  0  0  0  0  0  0  0
   60.7587   31.7803   51.9355 H   0  0  0  0  0  0  0  0  0  0  0  0
   59.0597   32.3633   51.9355 H   0  0  0  0  0  0  0  0  0  0  0  0
   57.9697   28.5702   49.1294 H   0  0  0  0  0  0  0  0  0  0  0  0
   59.7900   27.1585   44.1544 H   0  0  0  0  0  0  0  0  0  0  0  0
   58.2750   26.5065   44.9118 H   0  0  0  0  0  0  0  0  0  0  0  0
   58.6402   29.0233   43.2412 H   0  0  0  0  0  0  0  0  0  0  0  0
   58.0900   27.2750   41.8780 H   0  0  0  0  0  0  0  0  0  0  0  0
   56.5850   27.9390   42.2120 H   0  0  0  0  0  0  0  0  0  0  0  0
   57.0740   26.5290   43.0220 H   0  0  0  0  0  0  0  0  0  0  0  0
   55.8901   28.7521   44.0270 H   0  0  0  0  0  0  0  0  0  0  0  0
   56.9011   28.6821   45.5288 H   0  0  0  0  0  0  0  0  0  0  0  0
   57.9300   30.6410   46.3740 H   0  0  0  0  0  0  0  0  0  0  0  0
   58.6203   34.2184   46.6220 H   0  0  0  0  0  0  0  0  0  0  0  0
   60.7461   32.0959   46.0679 H   0  0  0  0  0  0  0  0  0  0  0  0
   60.7150   33.8337   45.5532 H   0  0  0  0  0  0  0  0  0  0  0  0
   63.0746   33.8123   46.5437 H   0  0  0  0  0  0  0  0  0  0  0  0
   64.3535   34.3873   48.6048 H   0  0  0  0  0  0  0  0  0  0  0  0
   63.2133   34.4146   50.8215 H   0  0  0  0  0  0  0  0  0  0  0  0
   60.7864   33.8654   50.9857 H   0  0  0  0  0  0  0  0  0  0  0  0
   58.8955   32.6274   49.8768 H   0  0  0  0  0  0  0  0  0  0  0  0
   58.5556   34.1905   49.0159 H   0  0  0  0  0  0  0  0  0  0  0  0
   58.9680   31.5220   47.8170 H   0  0  0  0  0  0  0  0  0  0  0  0
   60.9204   29.1196   45.1365 H   0  0  0  0  0  0  0  0  0  0  0  0
  1  2  1  0
  2  3  2  0
  2  4  2  0
  2  5  1  0
  5  6  1  0
  6  7  2  0
  7  8  1  0
  8  9  1  0
  8 10  2  0
 10 11  1  0
 11 12  1  0
 12 13  1  0
 12 14  1  0
 14 15  1  0
 15 16  2  0
 15 17  1  0
 17 18  1  0
 18 19  2  0
 18 20  1  0
 20 21  1  0
 21 22  1  0
 22 23  2  0
 23 24  1  0
 24 25  2  0
 25 26  1  0
 26 27  2  0
 27 28  1  0
 28 29  1  0
 10 30  1  0
 30 31  2  0
 31 32  1  0
 31  6  1  0
 29 20  1  0
 27 22  1  0
  1 33  1  0
  1 34  1  0
  1 35  1  0
  7 36  1  0
 11 37  1  0
 11 38  1  0
 12 39  1  6
 13 40  1  0
 13 41  1  0
 13 42  1  0
 14 43  1  0
 14 44  1  0
 17 45  1  0
 20 46  1  1
 21 47  1  0
 21 48  1  0
 23 49  1  0
 24 50  1  0
 25 51  1  0
 26 52  1  0
 28 53  1  0
 28 54  1  0
 29 55  1  0
 30 56  1  0
M  CHG  2   5  -1  13   1
M  END
>  <UniqueID>  (25) 
24

>  <SMILES>  (25) 
CS(=O)(=O)[N-]c1cc(F)c(C[C@@H]([NH3+])CC(=O)NC(=O)[C@@H]2Cc3ccccc3CN2)cc1F

>  <Energy>  (25) 
56.596080517545765

>  <Genealogy>  (25) 
CS(=O)(=O)[N-]c1cc(F)c(CC([NH3+])CC(=O)NC(=O)C2Cc3ccccc3CN2)cc1F (protonated)
CS(=O)(=O)[N-]c1cc(F)c(C[C@@H]([NH3+])CC(=O)NC(=O)[C@@H]2Cc3ccccc3CN2)cc1F (chirality)
CS(=O)(=O)[N-]c1cc(F)c(C[C@@H]([NH3+])CC(=O)NC(=O)[C@@H]2Cc3ccccc3CN2)cc1F (3D coordinates assigned)
CS(=O)(=O)[N-]c1cc(F)c(C[C@@H]([NH3+])CC(=O)NC(=O)[C@@H]2Cc3ccccc3CN2)cc1F (nonaromatic ring conformer: 56.596080517545765 kcal/mol)

>  <smiles>  (25) 
CS(=O)(=O)Nc1cc(F)c(CC(N)CC(=O)NC(=O)C2Cc3ccccc3CN2)cc1F

>  <score_type>  (25) 
oracle

>  <origin>  (25) 
adg

>  <m_score__min__energy>  (25) 
-9.6400000000000006

>  <m_primary>  (25) 
energy

$$$$
25:0
     RDKit          3D

 62 66  0  0  0  0  0  0  0  0999 V2000
   56.1030   31.9870   52.4100 C   0  0  0  0  0  0  0  0  0  0  0  0
   55.6850   30.7750   52.8350 C   0  0  0  0  0  0  0  0  0  0  0  0
   56.6160   29.7960   53.3160 C   0  0  0  0  0  0  0  0  0  0  0  0
   58.0840   30.0460   53.6160 C   0  0  0  0  0  0  0  0  0  0  0  0
   58.9230   28.8910   53.1360 C   0  0  0  0  0  0  0  0  0  0  0  0
   59.1230   27.6990   53.8380 C   0  0  0  0  0  0  0  0  0  0  0  0
   58.6050   27.3910   55.2080 C   0  0  0  0  0  0  0  0  0  0  0  0
   59.8400   26.8240   53.1080 N   0  0  0  0  0  0  0  0  0  0  0  0
   60.1160   27.4460   51.9500 C   0  0  0  0  0  0  0  0  0  0  0  0
   60.8470   26.9190   50.8890 C   0  0  0  0  0  0  0  0  0  0  0  0
   61.0490   27.7220   49.7610 C   0  0  0  0  0  0  0  0  0  0  0  0
   60.5320   29.0300   49.7140 C   0  0  0  0  0  0  0  0  0  0  0  0
   59.7940   29.5540   50.7950 C   0  0  0  0  0  0  0  0  0  0  0  0
   59.2900   30.9330   50.7010 C   0  0  0  0  0  0  0  0  0  0  0  0
   59.5550   31.7450   51.6270 O   0  0  0  0  0  0  0  0  0  0  0  0
   58.4210   31.3540   49.6400 N   0  0  0  0  0  0  0  0  0  0  0  0
   58.5220   32.6050   48.8910 C   0  0  0  0  0  0  0  0  0  0  0  0
   59.8100   32.6380   48.0640 C   0  0  0  0  0  0  0  0  0  0  0  0
   59.6270   33.3460   46.7760 N   0  0  0  0  0  0  0  0  0  0  0  0
   59.8040   34.7970   46.9810 C   0  0  0  0  0  0  0  0  0  0  0  0
   59.6410   35.5570   45.6480 C   0  0  0  0  0  0  0  0  0  0  0  0
   59.0780   34.7540   44.6260 O   0  0  0  0  0  0  0  0  0  0  0  0
   57.9220   34.1050   45.1080 C   0  0  0  0  0  0  0  0  0  0  0  0
   58.2870   33.0770   46.1990 C   0  0  0  0  0  0  0  0  0  0  0  0
   59.5810   28.7180   51.9140 C   0  0  0  0  0  0  0  0  0  0  0  0
   56.1960   28.5150   53.4830 N   0  0  0  0  0  0  0  0  0  0  0  0
   54.9340   28.1260   53.2110 C   0  0  0  0  0  0  0  0  0  0  0  0
   54.6080   26.9190   53.3300 O   0  0  0  0  0  0  0  0  0  0  0  0
   54.0170   29.0390   52.8200 N   0  0  0  0  0  0  0  0  0  0  0  0
   54.3150   30.3570   52.6820 C   0  0  0  0  0  0  0  0  0  0  0  0
   53.2610   31.1640   52.4170 C   0  0  0  0  0  0  0  0  0  0  0  0
   52.4300   31.1540   51.1990 C   0  0  0  0  0  0  0  0  0  0  0  0
   52.4560   30.1660   50.2870 N   0  0  0  0  0  0  0  0  0  0  0  0
   51.4790   30.5180   49.4210 C   0  0  0  0  0  0  0  0  0  0  0  0
   51.1980   29.8340   48.4030 O   0  0  0  0  0  0  0  0  0  0  0  0
   50.8170   31.6490   49.7400 N   0  0  0  0  0  0  0  0  0  0  0  0
   51.4220   32.0320   50.8760 C   0  0  0  0  0  0  0  0  0  0  0  0
   51.0280   33.1320   51.6280 O   0  0  0  0  0  0  0  0  0  0  0  0
   55.3724   32.7238   52.0447 H   0  0  0  0  0  0  0  0  0  0  0  0
   57.1740   32.2373   52.4291 H   0  0  0  0  0  0  0  0  0  0  0  0
   58.4067   30.9652   53.1051 H   0  0  0  0  0  0  0  0  0  0  0  0
   58.2125   30.1523   54.7033 H   0  0  0  0  0  0  0  0  0  0  0  0
   59.2941   27.8007   55.9612 H   0  0  0  0  0  0  0  0  0  0  0  0
   57.6111   27.8450   55.3348 H   0  0  0  0  0  0  0  0  0  0  0  0
   58.5291   26.3010   55.3348 H   0  0  0  0  0  0  0  0  0  0  0  0
   60.1180   25.8570   53.3790 H   0  0  0  0  0  0  0  0  0  0  0  0
   61.2550   25.8985   50.9361 H   0  0  0  0  0  0  0  0  0  0  0  0
   61.6161   27.3280   48.9047 H   0  0  0  0  0  0  0  0  0  0  0  0
   60.7058   29.6512   48.8230 H   0  0  0  0  0  0  0  0  0  0  0  0
   57.6575   32.6929   48.2166 H   0  0  0  0  0  0  0  0  0  0  0  0
   58.5373   33.4433   49.6030 H   0  0  0  0  0  0  0  0  0  0  0  0
   60.5907   33.1523   48.6437 H   0  0  0  0  0  0  0  0  0  0  0  0
   60.0968   31.5995   47.8420 H   0  0  0  0  0  0  0  0  0  0  0  0
   59.0495   35.1558   47.6965 H   0  0  0  0  0  0  0  0  0  0  0  0
   60.8158   34.9794   47.3721 H   0  0  0  0  0  0  0  0  0  0  0  0
   58.9854   36.4243   45.8153 H   0  0  0  0  0  0  0  0  0  0  0  0
   60.6438   35.8631   45.3154 H   0  0  0  0  0  0  0  0  0  0  0  0
   57.2380   34.8545   45.5327 H   0  0  0  0  0  0  0  0  0  0  0  0
   57.4393   33.5768   44.2725 H   0  0  0  0  0  0  0  0  0  0  0  0
   57.5363   33.1263   47.0015 H   0  0  0  0  0  0  0  0  0  0  0  0
   58.3047   32.0781   45.7386 H   0  0  0  0  0  0  0  0  0  0  0  0
   52.9977   31.9023   53.1887 H   0  0  0  0  0  0  0  0  0  0  0  0
  1  2  2  0
  2  3  1  0
  3  4  1  0
  4  5  1  0
  5  6  2  0
  6  7  1  0
  6  8  1  0
  8  9  1  0
  9 10  2  0
 10 11  1  0
 11 12  2  0
 12 13  1  0
 13 14  1  0
 14 15  2  0
 14 16  1  0
 16 17  1  0
 17 18  1  0
 18 19  1  0
 19 20  1  0
 20 21  1  0
 21 22  1  0
 22 23  1  0
 23 24  1  0
 13 25  2  0
  3 26  2  0
 26 27  1  0
 27 28  2  0
 27 29  1  0
 29 30  1  0
 30 31  2  3
 31 32  1  0
 32 33  1  0
 33 34  1  0
 34 35  2  0
 34 36  1  0
 36 37  1  0
 37 38  1  0
 30  2  1  0
 37 32  2  0
 25  5  1  0
 25  9  1  0
 24 19  1  0
  1 39  1  0
  1 40  1  0
  4 41  1  0
  4 42  1  0
  7 43  1  0
  7 44  1  0
  7 45  1  0
  8 46  1  0
 10 47  1  0
 11 48  1  0
 12 49  1  0
 17 50  1  0
 17 51  1  0
 18 52  1  0
 18 53  1  0
 20 54  1  0
 20 55  1  0
 21 56  1  0
 21 57  1  0
 23 58  1  0
 23 59  1  0
 24 60  1  0
 24 61  1  0
 31 62  1  0
M  CHG  5  16  -1  29  -1  33  -1  36  -1  38  -1
M  END
>  <UniqueID>  (26) 
25

>  <SMILES>  (26) 
C=c1c(Cc2c(C)[nH]c3cccc(C(=O)[N-]CCN4CCOCC4)c23)nc(=O)[n-]c1=Cc1[n-]c(=O)[n-]c1[O-]

>  <Energy>  (26) 
166.8427887139886

>  <Genealogy>  (26) 
C=c1c(Cc2c(C)[nH]c3cccc(C(=O)[N-]CCN4CCOCC4)c23)nc(=O)[n-]c1=Cc1[n-]c(=O)[n-]c1[O-] (protonated)
C=c1c(Cc2c(C)[nH]c3cccc(C(=O)[N-]CCN4CCOCC4)c23)nc(=O)[n-]c1=Cc1[n-]c(=O)[n-]c1[O-] (3D coordinates assigned)
C=c1c(Cc2c(C)[nH]c3cccc(C(=O)[N-]CCN4CCOCC4)c23)nc(=O)[n-]c1=Cc1[n-]c(=O)[n-]c1[O-] (nonaromatic ring conformer: 166.8427887139886 kcal/mol)

>  <smiles>  (26) 
C=c1c(Cc2c(C)[nH]c3cccc(C(=O)NCCN4CCOCC4)c23)nc(=O)[nH]c1=Cc1[nH]c(=O)[nH]c1O

>  <score_type>  (26) 
oracle

>  <origin>  (26) 
adg

>  <m_score__min__energy>  (26) 
-20.370000000000001

>  <m_primary>  (26) 
energy

$$$$
26:0
     RDKit          3D

 48 51  0  0  0  0  0  0  0  0999 V2000
   55.2180   26.6450   46.0460 N   0  0  0  0  0  0  0  0  0  0  0  0
   56.8820   27.0610   45.8390 S   0  0  0  0  0  0  0  0  0  0  0  0
   57.5100   26.1520   44.8220 O   0  0  0  0  0  0  0  0  0  0  0  0
   57.5860   26.8880   47.1560 O   0  0  0  0  0  0  0  0  0  0  0  0
   57.0170   28.7330   45.2970 C   0  0  0  0  0  0  0  0  0  0  0  0
   56.2850   29.1870   44.1940 C   0  0  0  0  0  0  0  0  0  0  0  0
   56.4020   30.5130   43.7700 C   0  0  0  0  0  0  0  0  0  0  0  0
   57.2530   31.3930   44.4430 C   0  0  0  0  0  0  0  0  0  0  0  0
   57.9950   30.9540   45.5540 C   0  0  0  0  0  0  0  0  0  0  0  0
   58.9030   31.8820   46.2690 C   0  0  0  0  0  0  0  0  0  0  0  0
   59.0100   33.0750   45.8720 O   0  0  0  0  0  0  0  0  0  0  0  0
   59.6370   31.4210   47.4170 N   0  0  0  0  0  0  0  0  0  0  0  0
   59.2990   31.5190   48.6710 C   0  0  0  0  0  0  0  0  0  0  0  0
   58.3960   32.4300   49.0940 N   0  0  0  0  0  0  0  0  0  0  0  0
   58.1880   32.3520   50.4350 C   0  0  0  0  0  0  0  0  0  0  0  0
   58.9350   31.3760   51.0860 C   0  0  0  0  0  0  0  0  0  0  0  0
   58.8550   31.0310   52.5390 C   0  0  0  0  0  0  0  0  0  0  0  0
   57.5500   30.3470   52.8390 C   0  0  0  0  0  0  0  0  0  0  0  0
   57.5340   28.9990   53.2290 C   0  0  0  0  0  0  0  0  0  0  0  0
   56.3200   28.3560   53.4840 C   0  0  0  0  0  0  0  0  0  0  0  0
   55.1140   29.0470   53.3370 C   0  0  0  0  0  0  0  0  0  0  0  0
   55.1150   30.3840   52.9050 C   0  0  0  0  0  0  0  0  0  0  0  0
   53.8960   31.1270   52.7640 N   0  0  0  0  0  0  0  0  0  0  0  0
   52.6250   30.5970   52.3680 C   0  0  0  0  0  0  0  0  0  0  0  0
   52.0100   29.8410   53.1650 O   0  0  0  0  0  0  0  0  0  0  0  0
   51.9930   30.9600   51.0860 C   0  0  0  0  0  0  0  0  0  0  0  0
   51.8890   30.1250   49.9870 C   0  0  0  0  0  0  0  0  0  0  0  0
   51.2150   30.8370   49.0220 C   0  0  0  0  0  0  0  0  0  0  0  0
   50.9380   32.0600   49.5900 C   0  0  0  0  0  0  0  0  0  0  0  0
   50.2610   33.0900   48.9530 O   0  0  0  0  0  0  0  0  0  0  0  0
   51.4020   32.1500   50.8510 N   0  0  0  0  0  0  0  0  0  0  0  0
   56.3360   31.0320   52.6760 C   0  0  0  0  0  0  0  0  0  0  0  0
   59.8710   30.5690   49.9460 S   0  0  0  0  0  0  0  0  0  0  0  0
   57.8620   29.6190   45.9790 C   0  0  0  0  0  0  0  0  0  0  0  0
   54.7610   26.7200   45.1090 H   0  0  0  0  0  0  0  0  0  0  0  0
   55.6153   28.4975   43.6591 H   0  0  0  0  0  0  0  0  0  0  0  0
   55.8225   30.8651   42.9039 H   0  0  0  0  0  0  0  0  0  0  0  0
   57.3432   32.4349   44.1021 H   0  0  0  0  0  0  0  0  0  0  0  0
   57.4833   33.0100   50.9645 H   0  0  0  0  0  0  0  0  0  0  0  0
   59.6859   30.3587   52.7991 H   0  0  0  0  0  0  0  0  0  0  0  0
   58.9204   31.9554   53.1316 H   0  0  0  0  0  0  0  0  0  0  0  0
   58.4797   28.4471   53.3342 H   0  0  0  0  0  0  0  0  0  0  0  0
   56.3134   27.3028   53.8014 H   0  0  0  0  0  0  0  0  0  0  0  0
   54.1620   28.5430   53.5600 H   0  0  0  0  0  0  0  0  0  0  0  0
   52.2697   29.0965   49.9021 H   0  0  0  0  0  0  0  0  0  0  0  0
   50.9523   30.4996   48.0085 H   0  0  0  0  0  0  0  0  0  0  0  0
   56.3431   32.0873   52.3656 H   0  0  0  0  0  0  0  0  0  0  0  0
   58.4268   29.2675   46.8550 H   0  0  0  0  0  0  0  0  0  0  0  0
  1  2  1  0
  2  3  2  0
  2  4  2  0
  2  5  1  0
  5  6  2  0
  6  7  1  0
  7  8  2  0
  8  9  1  0
  9 10  1  0
 10 11  2  0
 10 12  1  0
 12 13  2  3
 13 14  1  0
 14 15  1  0
 15 16  2  0
 16 17  1  0
 17 18  1  0
 18 19  2  0
 19 20  1  0
 20 21  2  0
 21 22  1  0
 22 23  1  0
 23 24  1  0
 24 25  2  0
 24 26  1  0
 26 27  2  0
 27 28  1  0
 28 29  2  0
 29 30  1  0
 29 31  1  0
 22 32  2  0
 16 33  1  0
  9 34  2  0
 34  5  1  0
 33 13  1  0
 32 18  1  0
 31 26  1  0
  1 35  1  0
  6 36  1  0
  7 37  1  0
  8 38  1  0
 15 39  1  0
 17 40  1  0
 17 41  1  0
 19 42  1  0
 20 43  1  0
 21 44  1  0
 27 45  1  0
 28 46  1  0
 32 47  1  0
 34 48  1  0
M  CHG  5   1  -1  14  -1  23  -1  30  -1  31  -1
M  END
>  <UniqueID>  (27) 
26

>  <SMILES>  (27) 
[NH-]S(=O)(=O)c1cccc(C(=O)N=c2[n-]cc(Cc3cccc([N-]C(=O)c4ccc([O-])[n-]4)c3)s2)c1

>  <Energy>  (27) 
115.18131899607603

>  <Genealogy>  (27) 
[NH-]S(=O)(=O)c1cccc(C(=O)N=c2[n-]cc(Cc3cccc([N-]C(=O)c4ccc([O-])[n-]4)c3)s2)c1 (protonated)
[NH-]S(=O)(=O)c1cccc(C(=O)N=c2[n-]cc(Cc3cccc([N-]C(=O)c4ccc([O-])[n-]4)c3)s2)c1 (3D coordinates assigned)
[NH-]S(=O)(=O)c1cccc(C(=O)N=c2[n-]cc(Cc3cccc([N-]C(=O)c4ccc([O-])[n-]4)c3)s2)c1 (optimized conformer: 115.18131899607603 kcal/mol)

>  <smiles>  (27) 
NS(=O)(=O)c1cccc(C(=O)N=c2[nH]cc(Cc3cccc(NC(=O)c4ccc(O)[nH]4)c3)s2)c1

>  <score_type>  (27) 
oracle

>  <origin>  (27) 
adg

>  <m_score__min__energy>  (27) 
-21.890000000000001

>  <m_primary>  (27) 
energy

$$$$
27:0
     RDKit          3D

 52 54  0  0  0  0  0  0  0  0999 V2000
   50.6280   32.0790   48.8010 C   0  0  0  0  0  0  0  0  0  0  0  0
   51.3950   32.7200   49.8620 N   0  0  0  0  0  0  0  0  0  0  0  0
   51.4400   32.2830   51.2270 C   0  0  0  0  0  0  0  0  0  0  0  0
   50.7030   32.8600   52.0680 O   0  0  0  0  0  0  0  0  0  0  0  0
   52.3510   31.2210   51.6910 C   0  0  0  0  0  0  0  0  0  0  0  0
   53.7320   31.4340   51.7840 C   0  0  0  0  0  0  0  0  0  0  0  0
   54.5520   30.3800   52.2160 C   0  0  0  0  0  0  0  0  0  0  0  0
   55.9780   30.5430   52.3490 N   0  0  0  0  0  0  0  0  0  0  0  0
   56.8780   29.5360   52.8880 C   0  0  0  0  0  0  0  0  0  0  0  0
   58.2450   30.2020   52.9560 C   0  0  0  0  0  0  0  0  0  0  0  0
   58.1670   31.4230   52.0400 C   0  0  1  0  0  0  0  0  0  0  0  0
   58.7140   31.0850   50.7610 O   0  0  0  0  0  0  0  0  0  0  0  0
   59.7610   31.7660   50.1210 C   0  0  0  0  0  0  0  0  0  0  0  0
   60.0500   33.1220   50.3680 C   0  0  0  0  0  0  0  0  0  0  0  0
   61.1040   33.7520   49.7020 C   0  0  0  0  0  0  0  0  0  0  0  0
   61.8920   33.0440   48.7790 C   0  0  0  0  0  0  0  0  0  0  0  0
   63.0350   33.7380   48.0620 C   0  0  2  0  0  0  0  0  0  0  0  0
   62.8520   33.6680   46.5420 C   0  0  0  0  0  0  0  0  0  0  0  0
   64.3210   33.1470   48.4460 N   0  0  0  0  0  0  0  0  0  0  0  0
   64.7910   33.1450   49.8030 C   0  0  0  0  0  0  0  0  0  0  0  0
   66.1370   32.5840   50.1270 C   0  0  0  0  0  0  0  0  0  0  0  0
   64.0900   33.6470   50.7220 O   0  0  0  0  0  0  0  0  0  0  0  0
   61.6000   31.6890   48.5360 C   0  0  0  0  0  0  0  0  0  0  0  0
   60.5460   31.0610   49.2020 C   0  0  0  0  0  0  0  0  0  0  0  0
   56.6760   31.7430   51.9220 C   0  0  0  0  0  0  0  0  0  0  0  0
   53.9840   29.1780   52.5100 N   0  0  0  0  0  0  0  0  0  0  0  0
   52.6460   28.9810   52.3890 C   0  0  0  0  0  0  0  0  0  0  0  0
   51.8430   29.9940   51.9780 N   0  0  0  0  0  0  0  0  0  0  0  0
   49.8559   31.4337   49.2453 H   0  0  0  0  0  0  0  0  0  0  0  0
   50.1487   32.8490   48.1785 H   0  0  0  0  0  0  0  0  0  0  0  0
   51.3006   31.4706   48.1785 H   0  0  0  0  0  0  0  0  0  0  0  0
   54.1665   32.4103   51.5230 H   0  0  0  0  0  0  0  0  0  0  0  0
   56.5512   29.2270   53.8918 H   0  0  0  0  0  0  0  0  0  0  0  0
   56.8971   28.6311   52.2629 H   0  0  0  0  0  0  0  0  0  0  0  0
   58.4678   30.5121   53.9876 H   0  0  0  0  0  0  0  0  0  0  0  0
   59.0436   29.5139   52.6417 H   0  0  0  0  0  0  0  0  0  0  0  0
   58.7318   32.2839   52.4271 H   0  0  0  0  0  0  0  0  0  0  0  0
   59.4424   33.6882   51.0893 H   0  0  0  0  0  0  0  0  0  0  0  0
   61.3190   34.8121   49.9020 H   0  0  0  0  0  0  0  0  0  0  0  0
   63.0301   34.7961   48.3626 H   0  0  0  0  0  0  0  0  0  0  0  0
   61.8475   33.2838   46.3109 H   0  0  0  0  0  0  0  0  0  0  0  0
   62.9677   34.6739   46.1120 H   0  0  0  0  0  0  0  0  0  0  0  0
   63.6094   32.9961   46.1120 H   0  0  0  0  0  0  0  0  0  0  0  0
   64.9450   32.7410   47.7120 H   0  0  0  0  0  0  0  0  0  0  0  0
   66.2598   32.5328   51.2189 H   0  0  0  0  0  0  0  0  0  0  0  0
   66.2257   31.5740   49.7003 H   0  0  0  0  0  0  0  0  0  0  0  0
   66.9167   33.2320   49.7003 H   0  0  0  0  0  0  0  0  0  0  0  0
   62.2068   31.1204   47.8159 H   0  0  0  0  0  0  0  0  0  0  0  0
   60.3304   30.0010   49.0022 H   0  0  0  0  0  0  0  0  0  0  0  0
   56.4136   32.5905   52.5723 H   0  0  0  0  0  0  0  0  0  0  0  0
   56.4030   32.0259   50.8946 H   0  0  0  0  0  0  0  0  0  0  0  0
   52.2124   27.9979   52.6248 H   0  0  0  0  0  0  0  0  0  0  0  0
  1  2  1  0
  2  3  1  0
  3  4  2  0
  3  5  1  0
  5  6  2  0
  6  7  1  0
  7  8  1  0
  8  9  1  0
  9 10  1  0
 10 11  1  0
 11 12  1  0
 12 13  1  0
 13 14  2  0
 14 15  1  0
 15 16  2  0
 16 17  1  0
 17 18  1  0
 17 19  1  0
 19 20  1  0
 20 21  1  0
 20 22  2  0
 16 23  1  0
 23 24  2  0
 11 25  1  0
  7 26  2  0
 26 27  1  0
 27 28  2  0
 28  5  1  0
 25  8  1  0
 24 13  1  0
  1 29  1  0
  1 30  1  0
  1 31  1  0
  6 32  1  0
  9 33  1  0
  9 34  1  0
 10 35  1  0
 10 36  1  0
 11 37  1  1
 14 38  1  0
 15 39  1  0
 17 40  1  1
 18 41  1  0
 18 42  1  0
 18 43  1  0
 19 44  1  0
 21 45  1  0
 21 46  1  0
 21 47  1  0
 23 48  1  0
 24 49  1  0
 25 50  1  0
 25 51  1  0
 27 52  1  0
M  CHG  1   2  -1
M  END
>  <UniqueID>  (28) 
27

>  <SMILES>  (28) 
C[N-]C(=O)c1cc(N2CC[C@@H](Oc3ccc([C@H](C)NC(C)=O)cc3)C2)ncn1

>  <Energy>  (28) 
53.593877293555174

>  <Genealogy>  (28) 
C[N-]C(=O)c1cc(N2CCC(Oc3ccc(C(C)NC(C)=O)cc3)C2)ncn1 (protonated)
C[N-]C(=O)c1cc(N2CC[C@@H](Oc3ccc([C@H](C)NC(C)=O)cc3)C2)ncn1 (chirality)
C[N-]C(=O)c1cc(N2CC[C@@H](Oc3ccc([C@H](C)NC(C)=O)cc3)C2)ncn1 (3D coordinates assigned)
C[N-]C(=O)c1cc(N2CC[C@@H](Oc3ccc([C@H](C)NC(C)=O)cc3)C2)ncn1 (nonaromatic ring conformer: 53.593877293555174 kcal/mol)

>  <smiles>  (28) 
CNC(=O)c1cc(N2CCC(Oc3ccc(C(C)NC(C)=O)cc3)C2)ncn1

>  <score_type>  (28) 
oracle

>  <origin>  (28) 
adg

>  <m_score__min__energy>  (28) 
-11.81

>  <m_primary>  (28) 
energy

$$$$
28:0
     RDKit          3D

 56 58  0  0  0  0  0  0  0  0999 V2000
   65.1670   32.2930   50.0810 C   0  0  0  0  0  0  0  0  0  0  0  0
   63.7740   31.8390   49.6140 C   0  0  0  0  0  0  0  0  0  0  0  0
   63.5670   32.0560   48.1100 C   0  0  0  0  0  0  0  0  0  0  0  0
   63.3850   33.5380   47.7500 C   0  0  0  0  0  0  0  0  0  0  0  0
   62.3690   34.2240   48.5710 N   0  0  0  0  0  0  0  0  0  0  0  0
   60.7410   34.1340   47.9320 S   0  0  0  0  0  0  0  0  0  0  0  0
   59.8070   34.8500   48.8680 O   0  0  0  0  0  0  0  0  0  0  0  0
   60.6940   34.8490   46.6110 O   0  0  0  0  0  0  0  0  0  0  0  0
   60.1560   32.4850   47.7020 C   0  0  0  0  0  0  0  0  0  0  0  0
   60.3590   31.8290   46.4800 C   0  0  0  0  0  0  0  0  0  0  0  0
   59.8680   30.5350   46.2830 C   0  0  0  0  0  0  0  0  0  0  0  0
   59.1630   29.8800   47.3100 C   0  0  0  0  0  0  0  0  0  0  0  0
   58.6240   28.5590   47.1470 N   0  0  0  0  0  0  0  0  0  0  0  0
   58.8450   27.6730   46.0430 C   0  0  0  0  0  0  0  0  0  0  0  0
   59.8460   26.9050   46.0180 O   0  0  0  0  0  0  0  0  0  0  0  0
   57.8410   27.6190   44.9350 C   0  0  0  0  0  0  0  0  0  0  0  0
   57.9430   28.8030   44.0830 N   0  0  0  0  0  0  0  0  0  0  0  0
   56.9370   29.8250   44.1100 C   0  0  0  0  0  0  0  0  0  0  0  0
   55.9570   29.7280   44.9030 O   0  0  0  0  0  0  0  0  0  0  0  0
   57.0830   31.0510   43.2500 C   0  0  0  0  0  0  0  0  0  0  0  0
   57.4440   32.2580   44.0770 C   0  0  0  0  0  0  0  0  0  0  0  0
   56.8010   32.4940   45.3040 C   0  0  0  0  0  0  0  0  0  0  0  0
   57.1640   33.5940   46.0890 C   0  0  0  0  0  0  0  0  0  0  0  0
   58.1770   34.4570   45.6610 C   0  0  0  0  0  0  0  0  0  0  0  0
   58.8310   34.2210   44.4470 C   0  0  0  0  0  0  0  0  0  0  0  0
   58.4690   33.1240   43.6580 C   0  0  0  0  0  0  0  0  0  0  0  0
   58.9240   30.5560   48.5120 C   0  0  0  0  0  0  0  0  0  0  0  0
   59.4170   31.8490   48.7080 C   0  0  0  0  0  0  0  0  0  0  0  0
   62.4710   33.9940   50.0260 C   0  0  0  0  0  0  0  0  0  0  0  0
   62.6440   32.5150   50.4030 C   0  0  0  0  0  0  0  0  0  0  0  0
   65.1997   32.3037   51.1805 H   0  0  0  0  0  0  0  0  0  0  0  0
   65.9272   31.5961   49.6983 H   0  0  0  0  0  0  0  0  0  0  0  0
   65.3706   33.3040   49.6983 H   0  0  0  0  0  0  0  0  0  0  0  0
   63.7312   30.7583   49.8148 H   0  0  0  0  0  0  0  0  0  0  0  0
   64.4451   31.6677   47.5732 H   0  0  0  0  0  0  0  0  0  0  0  0
   62.6484   31.5256   47.8187 H   0  0  0  0  0  0  0  0  0  0  0  0
   64.3484   34.0506   47.8887 H   0  0  0  0  0  0  0  0  0  0  0  0
   63.0373   33.5766   46.7071 H   0  0  0  0  0  0  0  0  0  0  0  0
   60.9075   32.3350   45.6719 H   0  0  0  0  0  0  0  0  0  0  0  0
   60.0333   30.0268   45.3216 H   0  0  0  0  0  0  0  0  0  0  0  0
   58.0230   26.7205   44.3270 H   0  0  0  0  0  0  0  0  0  0  0  0
   56.8330   27.5867   45.3742 H   0  0  0  0  0  0  0  0  0  0  0  0
   58.7600   28.9110   43.4320 H   0  0  0  0  0  0  0  0  0  0  0  0
   57.8748   30.8756   42.5068 H   0  0  0  0  0  0  0  0  0  0  0  0
   56.1206   31.2445   42.7537 H   0  0  0  0  0  0  0  0  0  0  0  0
   56.0098   31.8118   45.6485 H   0  0  0  0  0  0  0  0  0  0  0  0
   56.6515   33.7799   47.0444 H   0  0  0  0  0  0  0  0  0  0  0  0
   58.4600   35.3219   46.2789 H   0  0  0  0  0  0  0  0  0  0  0  0
   59.6305   34.8985   44.1126 H   0  0  0  0  0  0  0  0  0  0  0  0
   58.9883   32.9384   42.7062 H   0  0  0  0  0  0  0  0  0  0  0  0
   58.3440   30.0662   49.3081 H   0  0  0  0  0  0  0  0  0  0  0  0
   59.2237   32.3701   49.6573 H   0  0  0  0  0  0  0  0  0  0  0  0
   63.3379   34.5539   50.4069 H   0  0  0  0  0  0  0  0  0  0  0  0
   61.5252   34.3330   50.4738 H   0  0  0  0  0  0  0  0  0  0  0  0
   62.8739   32.4485   51.4767 H   0  0  0  0  0  0  0  0  0  0  0  0
   61.7062   31.9945   50.1590 H   0  0  0  0  0  0  0  0  0  0  0  0
  1  2  1  0
  2  3  1  0
  3  4  1  0
  4  5  1  0
  5  6  1  0
  6  7  2  0
  6  8  2  0
  6  9  1  0
  9 10  2  0
 10 11  1  0
 11 12  2  0
 12 13  1  0
 13 14  1  0
 14 15  2  0
 14 16  1  0
 16 17  1  0
 17 18  1  0
 18 19  2  0
 18 20  1  0
 20 21  1  0
 21 22  2  0
 22 23  1  0
 23 24  2  0
 24 25  1  0
 25 26  2  0
 12 27  1  0
 27 28  2  0
  5 29  1  0
 29 30  1  0
 30  2  1  0
 28  9  1  0
 26 21  1  0
  1 31  1  0
  1 32  1  0
  1 33  1  0
  2 34  1  0
  3 35  1  0
  3 36  1  0
  4 37  1  0
  4 38  1  0
 10 39  1  0
 11 40  1  0
 16 41  1  0
 16 42  1  0
 17 43  1  0
 20 44  1  0
 20 45  1  0
 22 46  1  0
 23 47  1  0
 24 48  1  0
 25 49  1  0
 26 50  1  0
 27 51  1  0
 28 52  1  0
 29 53  1  0
 29 54  1  0
 30 55  1  0
 30 56  1  0
M  CHG  1  13  -1
M  END
>  <UniqueID>  (29) 
28

>  <SMILES>  (29) 
CC1CCN(S(=O)(=O)c2ccc([N-]C(=O)CNC(=O)Cc3ccccc3)cc2)CC1

>  <Energy>  (29) 
57.80053334237599

>  <Genealogy>  (29) 
CC1CCN(S(=O)(=O)c2ccc([N-]C(=O)CNC(=O)Cc3ccccc3)cc2)CC1 (protonated)
CC1CCN(S(=O)(=O)c2ccc([N-]C(=O)CNC(=O)Cc3ccccc3)cc2)CC1 (3D coordinates assigned)
CC1CCN(S(=O)(=O)c2ccc([N-]C(=O)CNC(=O)Cc3ccccc3)cc2)CC1 (nonaromatic ring conformer: 57.80053334237599 kcal/mol)

>  <smiles>  (29) 
CC1CCN(S(=O)(=O)c2ccc(NC(=O)CNC(=O)Cc3ccccc3)cc2)CC1

>  <score_type>  (29) 
oracle

>  <origin>  (29) 
adg

>  <m_score__min__energy>  (29) 
-10.779999999999999

>  <m_primary>  (29) 
energy

$$$$
29:0
     RDKit          3D

 54 57  0  0  0  0  0  0  0  0999 V2000
   64.7390   32.9740   50.0410 O   0  0  0  0  0  0  0  0  0  0  0  0
   63.4910   33.1420   50.1120 C   0  0  0  0  0  0  0  0  0  0  0  0
   62.9230   34.5260   50.0970 C   0  0  0  0  0  0  0  0  0  0  0  0
   61.7510   34.5760   49.2300 N   0  0  0  0  0  0  0  0  0  0  0  0
   61.7070   34.2250   47.8410 C   0  0  0  0  0  0  0  0  0  0  0  0
   62.7900   33.9500   47.2620 O   0  0  0  0  0  0  0  0  0  0  0  0
   60.4650   34.2120   47.0440 C   0  0  0  0  0  0  0  0  0  0  0  0
   59.1680   34.3900   47.4940 C   0  0  0  0  0  0  0  0  0  0  0  0
   58.3640   34.2520   46.3840 C   0  0  0  0  0  0  0  0  0  0  0  0
   59.2110   33.9980   45.3260 C   0  0  0  0  0  0  0  0  0  0  0  0
   60.4530   33.9740   45.7520 O   0  0  0  0  0  0  0  0  0  0  0  0
   62.6020   32.0210   50.2100 N   0  0  0  0  0  0  0  0  0  0  0  0
   61.6720   31.5650   49.2160 C   0  0  0  0  0  0  0  0  0  0  0  0
   60.3010   31.6620   49.4880 C   0  0  0  0  0  0  0  0  0  0  0  0
   59.3590   31.2180   48.5570 C   0  0  0  0  0  0  0  0  0  0  0  0
   59.7730   30.6570   47.3370 C   0  0  0  0  0  0  0  0  0  0  0  0
   58.7800   30.1700   46.3540 C   0  0  0  0  0  0  0  0  0  0  0  0
   58.0950   31.0010   45.6960 O   0  0  0  0  0  0  0  0  0  0  0  0
   58.5810   28.7650   46.1270 N   0  0  0  0  0  0  0  0  0  0  0  0
   58.2330   27.8880   47.2550 C   0  0  0  0  0  0  0  0  0  0  0  0
   58.0950   26.4280   46.8100 C   0  0  0  0  0  0  0  0  0  0  0  0
   57.2600   26.3380   45.6050 N   0  0  0  0  0  0  0  0  0  0  0  0
   56.4680   25.1580   45.3810 C   0  0  0  0  0  0  0  0  0  0  0  0
   57.0910   23.9590   44.9940 C   0  0  0  0  0  0  0  0  0  0  0  0
   56.3310   22.8100   44.7630 C   0  0  0  0  0  0  0  0  0  0  0  0
   54.9440   22.8460   44.9170 C   0  0  0  0  0  0  0  0  0  0  0  0
   54.3160   24.0290   45.3100 C   0  0  0  0  0  0  0  0  0  0  0  0
   55.0710   25.1830   45.5470 C   0  0  0  0  0  0  0  0  0  0  0  0
   54.4260   26.3380   45.9710 O   0  0  0  0  0  0  0  0  0  0  0  0
   57.4140   27.3180   44.5180 C   0  0  0  0  0  0  0  0  0  0  0  0
   58.6150   28.2370   44.7580 C   0  0  0  0  0  0  0  0  0  0  0  0
   61.1470   30.5150   47.0840 C   0  0  0  0  0  0  0  0  0  0  0  0
   62.0900   30.9630   48.0160 C   0  0  0  0  0  0  0  0  0  0  0  0
   62.6324   34.8114   51.1188 H   0  0  0  0  0  0  0  0  0  0  0  0
   63.6833   35.2238   49.7162 H   0  0  0  0  0  0  0  0  0  0  0  0
   58.8460   34.5985   48.5249 H   0  0  0  0  0  0  0  0  0  0  0  0
   57.2673   34.3289   46.3487 H   0  0  0  0  0  0  0  0  0  0  0  0
   58.8947   33.8397   44.2844 H   0  0  0  0  0  0  0  0  0  0  0  0
   59.9635   32.0915   50.4428 H   0  0  0  0  0  0  0  0  0  0  0  0
   58.2857   31.3081   48.7804 H   0  0  0  0  0  0  0  0  0  0  0  0
   59.0229   27.9561   48.0175 H   0  0  0  0  0  0  0  0  0  0  0  0
   57.2658   28.2174   47.6624 H   0  0  0  0  0  0  0  0  0  0  0  0
   59.0927   26.0197   46.5912 H   0  0  0  0  0  0  0  0  0  0  0  0
   57.6202   25.8516   47.6177 H   0  0  0  0  0  0  0  0  0  0  0  0
   58.1837   23.9253   44.8723 H   0  0  0  0  0  0  0  0  0  0  0  0
   56.8260   21.8758   44.4594 H   0  0  0  0  0  0  0  0  0  0  0  0
   54.3460   21.9421   44.7286 H   0  0  0  0  0  0  0  0  0  0  0  0
   53.2233   24.0542   45.4339 H   0  0  0  0  0  0  0  0  0  0  0  0
   57.5592   26.7801   43.5695 H   0  0  0  0  0  0  0  0  0  0  0  0
   56.5063   27.9383   44.4809 H   0  0  0  0  0  0  0  0  0  0  0  0
   59.5443   27.6670   44.6109 H   0  0  0  0  0  0  0  0  0  0  0  0
   58.5738   29.0759   44.0477 H   0  0  0  0  0  0  0  0  0  0  0  0
   61.4844   30.0484   46.1468 H   0  0  0  0  0  0  0  0  0  0  0  0
   63.1637   30.8436   47.8087 H   0  0  0  0  0  0  0  0  0  0  0  0
  1  2  2  0
  2  3  1  0
  3  4  1  0
  4  5  1  0
  5  6  2  0
  5  7  1  0
  7  8  2  0
  8  9  1  0
  9 10  2  0
 10 11  1  0
  2 12  1  0
 12 13  1  0
 13 14  2  0
 14 15  1  0
 15 16  2  0
 16 17  1  0
 17 18  2  0
 17 19  1  0
 19 20  1  0
 20 21  1  0
 21 22  1  0
 22 23  1  0
 23 24  2  0
 24 25  1  0
 25 26  2  0
 26 27  1  0
 27 28  2  0
 28 29  1  0
 22 30  1  0
 30 31  1  0
 16 32  1  0
 32 33  2  0
 11  7  1  0
 33 13  1  0
 31 19  1  0
 28 23  1  0
  3 34  1  0
  3 35  1  0
  8 36  1  0
  9 37  1  0
 10 38  1  0
 14 39  1  0
 15 40  1  0
 20 41  1  0
 20 42  1  0
 21 43  1  0
 21 44  1  0
 24 45  1  0
 25 46  1  0
 26 47  1  0
 27 48  1  0
 30 49  1  0
 30 50  1  0
 31 51  1  0
 31 52  1  0
 32 53  1  0
 33 54  1  0
M  CHG  3   4  -1  12  -1  29  -1
M  END
>  <UniqueID>  (30) 
29

>  <SMILES>  (30) 
O=C(C[N-]C(=O)c1ccco1)[N-]c1ccc(C(=O)N2CCN(c3ccccc3[O-])CC2)cc1

>  <Energy>  (30) 
99.32005119046241

>  <Genealogy>  (30) 
O=C(C[N-]C(=O)c1ccco1)[N-]c1ccc(C(=O)N2CCN(c3ccccc3[O-])CC2)cc1 (protonated)
O=C(C[N-]C(=O)c1ccco1)[N-]c1ccc(C(=O)N2CCN(c3ccccc3[O-])CC2)cc1 (3D coordinates assigned)
O=C(C[N-]C(=O)c1ccco1)[N-]c1ccc(C(=O)N2CCN(c3ccccc3[O-])CC2)cc1 (nonaromatic ring conformer: 99.32005119046241 kcal/mol)

>  <smiles>  (30) 
O=C(CNC(=O)c1ccco1)Nc1ccc(C(=O)N2CCN(c3ccccc3O)CC2)cc1

>  <score_type>  (30) 
oracle

>  <origin>  (30) 
adg

>  <m_score__min__energy>  (30) 
-13.029999999999999

>  <m_primary>  (30) 
energy

$$$$
30:0
     RDKit          3D

 47 49  0  0  0  0  0  0  0  0999 V2000
   59.9750   28.1170   46.6940 O   0  0  0  0  0  0  0  0  0  0  0  0
   59.6930   28.8240   47.6980 C   0  0  0  0  0  0  0  0  0  0  0  0
   59.6520   28.2120   48.9920 N   0  0  0  0  0  0  0  0  0  0  0  0
   60.3080   28.7480   50.1810 C   0  0  0  0  0  0  0  0  0  0  0  0
   59.7570   30.1110   50.5300 C   0  0  0  0  0  0  0  0  0  0  0  0
   58.3800   30.2620   50.7740 C   0  0  0  0  0  0  0  0  0  0  0  0
   57.8560   31.5040   51.1430 C   0  0  0  0  0  0  0  0  0  0  0  0
   58.6980   32.6100   51.2630 C   0  0  0  0  0  0  0  0  0  0  0  0
   60.0650   32.4790   51.0080 C   0  0  0  0  0  0  0  0  0  0  0  0
   60.6010   31.2380   50.6410 C   0  0  0  0  0  0  0  0  0  0  0  0
   62.3310   31.1340   50.3300 Cl  0  0  0  0  0  0  0  0  0  0  0  0
   59.4380   30.2260   47.5400 N   0  0  0  0  0  0  0  0  0  0  0  0
   58.7760   30.7960   46.3960 C   0  0  0  0  0  0  0  0  0  0  0  0
   57.7980   30.0660   45.6930 C   0  0  0  0  0  0  0  0  0  0  0  0
   57.0960   30.6440   44.6190 C   0  0  0  0  0  0  0  0  0  0  0  0
   56.0970   29.8920   43.9030 N   0  0  0  0  0  0  0  0  0  0  0  0
   55.1490   29.3520   44.5110 O   0  0  0  0  0  0  0  0  0  0  0  0
   56.1710   29.7570   42.5360 O   0  0  0  0  0  0  0  0  0  0  0  0
   57.3730   31.9720   44.2620 C   0  0  0  0  0  0  0  0  0  0  0  0
   58.3270   32.7100   44.9640 C   0  0  0  0  0  0  0  0  0  0  0  0
   59.0310   32.1320   46.0260 C   0  0  0  0  0  0  0  0  0  0  0  0
   60.0120   32.9130   46.7230 N   0  0  0  0  0  0  0  0  0  0  0  0
   61.3460   32.3460   46.9550 C   0  0  0  0  0  0  0  0  0  0  0  0
   62.3330   33.4260   47.4100 C   0  0  0  0  0  0  0  0  0  0  0  0
   61.8000   34.2160   48.6190 C   0  0  0  0  0  0  0  0  0  0  0  0
   60.2860   34.5230   48.5510 C   0  0  0  0  0  0  0  0  0  0  0  0
   59.6900   34.2750   47.1640 C   0  0  0  0  0  0  0  0  0  0  0  0
   60.1389   28.0637   51.0255 H   0  0  0  0  0  0  0  0  0  0  0  0
   61.3844   28.8450   49.9761 H   0  0  0  0  0  0  0  0  0  0  0  0
   57.7100   29.3954   50.6736 H   0  0  0  0  0  0  0  0  0  0  0  0
   56.7788   31.6096   51.3390 H   0  0  0  0  0  0  0  0  0  0  0  0
   58.2850   33.5857   51.5586 H   0  0  0  0  0  0  0  0  0  0  0  0
   60.7243   33.3552   51.0959 H   0  0  0  0  0  0  0  0  0  0  0  0
   59.7220   30.8600   48.3180 H   0  0  0  0  0  0  0  0  0  0  0  0
   57.5797   29.0289   45.9877 H   0  0  0  0  0  0  0  0  0  0  0  0
   56.8341   32.4352   43.4223 H   0  0  0  0  0  0  0  0  0  0  0  0
   58.5269   33.7538   44.6803 H   0  0  0  0  0  0  0  0  0  0  0  0
   61.2769   31.5717   47.7332 H   0  0  0  0  0  0  0  0  0  0  0  0
   61.7110   31.9143   46.0114 H   0  0  0  0  0  0  0  0  0  0  0  0
   63.2824   32.9457   47.6892 H   0  0  0  0  0  0  0  0  0  0  0  0
   62.4758   34.1307   46.5776 H   0  0  0  0  0  0  0  0  0  0  0  0
   61.9934   33.6286   49.5287 H   0  0  0  0  0  0  0  0  0  0  0  0
   62.3216   35.1845   48.6217 H   0  0  0  0  0  0  0  0  0  0  0  0
   59.7648   33.8814   49.2768 H   0  0  0  0  0  0  0  0  0  0  0  0
   60.1551   35.5908   48.7804 H   0  0  0  0  0  0  0  0  0  0  0  0
   58.5976   34.3961   47.2086 H   0  0  0  0  0  0  0  0  0  0  0  0
   60.1134   34.9981   46.4513 H   0  0  0  0  0  0  0  0  0  0  0  0
  1  2  2  0
  2  3  1  0
  3  4  1  0
  4  5  1  0
  5  6  2  0
  6  7  1  0
  7  8  2  0
  8  9  1  0
  9 10  2  0
 10 11  1  0
  2 12  1  0
 12 13  1  0
 13 14  2  0
 14 15  1  0
 15 16  1  0
 16 17  2  0
 16 18  1  0
 15 19  2  0
 19 20  1  0
 20 21  2  0
 21 22  1  0
 22 23  1  0
 23 24  1  0
 24 25  1  0
 25 26  1  0
 26 27  1  0
 10  5  1  0
 21 13  1  0
 27 22  1  0
  4 28  1  0
  4 29  1  0
  6 30  1  0
  7 31  1  0
  8 32  1  0
  9 33  1  0
 12 34  1  0
 14 35  1  0
 19 36  1  0
 20 37  1  0
 23 38  1  0
 23 39  1  0
 24 40  1  0
 24 41  1  0
 25 42  1  0
 25 43  1  0
 26 44  1  0
 26 45  1  0
 27 46  1  0
 27 47  1  0
M  CHG  3   3  -1  16   1  18  -1
M  END
>  <UniqueID>  (31) 
30

>  <SMILES>  (31) 
O=C([N-]Cc1ccccc1Cl)Nc1cc([N+](=O)[O-])ccc1N1CCCCC1

>  <Energy>  (31) 
56.698185350395185

>  <Genealogy>  (31) 
O=C([N-]Cc1ccccc1Cl)Nc1cc([N+](=O)[O-])ccc1N1CCCCC1 (protonated)
O=C([N-]Cc1ccccc1Cl)Nc1cc([N+](=O)[O-])ccc1N1CCCCC1 (3D coordinates assigned)
O=C([N-]Cc1ccccc1Cl)Nc1cc([N+](=O)[O-])ccc1N1CCCCC1 (nonaromatic ring conformer: 56.698185350395185 kcal/mol)

>  <smiles>  (31) 
O=C(NCc1ccccc1Cl)Nc1cc([N+](=O)[O-])ccc1N1CCCCC1

>  <score_type>  (31) 
oracle

>  <origin>  (31) 
adg

>  <m_score__min__energy>  (31) 
-9.8100000000000005

>  <m_primary>  (31) 
energy

$$$$
31:0
     RDKit          3D

 46 48  0  0  0  0  0  0  0  0999 V2000
   55.1320   26.4260   45.9920 N   0  0  0  0  0  0  0  0  0  0  0  0
   56.3060   25.6900   45.6610 C   0  0  0  0  0  0  0  0  0  0  0  0
   56.2490   24.4360   45.5410 O   0  0  0  0  0  0  0  0  0  0  0  0
   57.6000   26.4040   45.4290 C   0  0  0  0  0  0  0  0  0  0  0  0
   57.9350   27.5880   46.7770 S   0  0  0  0  0  0  0  0  0  0  0  0
   57.4640   29.0350   45.8270 C   0  0  0  0  0  0  0  0  0  0  0  0
   58.2050   30.2170   45.9270 C   0  0  0  0  0  0  0  0  0  0  0  0
   57.8410   31.3290   45.1540 C   0  0  0  0  0  0  0  0  0  0  0  0
   58.6170   32.5840   45.2430 C   0  0  0  0  0  0  0  0  0  0  0  0
   58.6070   33.3860   44.2680 O   0  0  0  0  0  0  0  0  0  0  0  0
   59.3780   32.9110   46.4200 N   0  0  0  0  0  0  0  0  0  0  0  0
   58.7540   32.7550   47.7440 C   0  0  0  0  0  0  0  0  0  0  0  0
   59.5410   33.5040   48.8230 C   0  0  0  0  0  0  0  0  0  0  0  0
   60.9690   33.1920   48.7000 N   0  0  0  0  0  0  0  0  0  0  0  0
   61.6780   32.6210   49.8140 C   0  0  0  0  0  0  0  0  0  0  0  0
   61.1190   31.7320   50.5120 O   0  0  0  0  0  0  0  0  0  0  0  0
   63.0530   33.0490   50.1500 C   0  0  0  0  0  0  0  0  0  0  0  0
   63.2800   34.0140   51.1470 C   0  0  0  0  0  0  0  0  0  0  0  0
   64.5830   34.4040   51.4700 C   0  0  0  0  0  0  0  0  0  0  0  0
   65.6710   33.8280   50.8080 C   0  0  0  0  0  0  0  0  0  0  0  0
   65.4570   32.8580   49.8260 C   0  0  0  0  0  0  0  0  0  0  0  0
   64.1550   32.4640   49.5010 C   0  0  0  0  0  0  0  0  0  0  0  0
   61.6220   33.2530   47.3820 C   0  0  0  0  0  0  0  0  0  0  0  0
   60.6360   33.6560   46.2780 C   0  0  0  0  0  0  0  0  0  0  0  0
   56.7110   31.2430   44.3270 C   0  0  0  0  0  0  0  0  0  0  0  0
   55.9890   30.0490   44.2680 C   0  0  0  0  0  0  0  0  0  0  0  0
   56.3790   28.9790   45.0100 N   0  0  0  0  0  0  0  0  0  0  0  0
   55.1400   27.4700   46.0090 H   0  0  0  0  0  0  0  0  0  0  0  0
   58.4158   25.6674   45.3845 H   0  0  0  0  0  0  0  0  0  0  0  0
   57.5331   26.9576   44.4808 H   0  0  0  0  0  0  0  0  0  0  0  0
   59.0675   30.2740   46.6074 H   0  0  0  0  0  0  0  0  0  0  0  0
   57.7295   33.1537   47.7063 H   0  0  0  0  0  0  0  0  0  0  0  0
   58.7467   31.6852   47.9999 H   0  0  0  0  0  0  0  0  0  0  0  0
   59.3914   34.5867   48.6994 H   0  0  0  0  0  0  0  0  0  0  0  0
   59.1844   33.1927   49.8160 H   0  0  0  0  0  0  0  0  0  0  0  0
   62.4273   34.4647   51.6760 H   0  0  0  0  0  0  0  0  0  0  0  0
   64.7523   35.1650   52.2460 H   0  0  0  0  0  0  0  0  0  0  0  0
   66.6956   34.1386   51.0603 H   0  0  0  0  0  0  0  0  0  0  0  0
   66.3139   32.4032   49.3074 H   0  0  0  0  0  0  0  0  0  0  0  0
   63.9921   31.6926   48.7339 H   0  0  0  0  0  0  0  0  0  0  0  0
   62.4352   33.9927   47.4210 H   0  0  0  0  0  0  0  0  0  0  0  0
   62.0108   32.2516   47.1455 H   0  0  0  0  0  0  0  0  0  0  0  0
   60.4295   34.7339   46.3519 H   0  0  0  0  0  0  0  0  0  0  0  0
   61.0807   33.4233   45.2992 H   0  0  0  0  0  0  0  0  0  0  0  0
   56.3957   32.1106   43.7288 H   0  0  0  0  0  0  0  0  0  0  0  0
   55.1033   29.9743   43.6200 H   0  0  0  0  0  0  0  0  0  0  0  0
  1  2  1  0
  2  3  2  0
  2  4  1  0
  4  5  1  0
  5  6  1  0
  6  7  2  0
  7  8  1  0
  8  9  1  0
  9 10  2  0
  9 11  1  0
 11 12  1  0
 12 13  1  0
 13 14  1  0
 14 15  1  0
 15 16  2  0
 15 17  1  0
 17 18  2  0
 18 19  1  0
 19 20  2  0
 20 21  1  0
 21 22  2  0
 14 23  1  0
 23 24  1  0
  8 25  2  0
 25 26  1  0
 26 27  2  0
 27  6  1  0
 24 11  1  0
 22 17  1  0
  1 28  1  0
  4 29  1  0
  4 30  1  0
  7 31  1  0
 12 32  1  0
 12 33  1  0
 13 34  1  0
 13 35  1  0
 18 36  1  0
 19 37  1  0
 20 38  1  0
 21 39  1  0
 22 40  1  0
 23 41  1  0
 23 42  1  0
 24 43  1  0
 24 44  1  0
 25 45  1  0
 26 46  1  0
M  CHG  1   1  -1
M  END
>  <UniqueID>  (32) 
31

>  <SMILES>  (32) 
[NH-]C(=O)CSc1cc(C(=O)N2CCN(C(=O)c3ccccc3)CC2)ccn1

>  <Energy>  (32) 
53.019101532943026

>  <Genealogy>  (32) 
[NH-]C(=O)CSc1cc(C(=O)N2CCN(C(=O)c3ccccc3)CC2)ccn1 (protonated)
[NH-]C(=O)CSc1cc(C(=O)N2CCN(C(=O)c3ccccc3)CC2)ccn1 (3D coordinates assigned)
[NH-]C(=O)CSc1cc(C(=O)N2CCN(C(=O)c3ccccc3)CC2)ccn1 (nonaromatic ring conformer: 53.019101532943026 kcal/mol)

>  <smiles>  (32) 
NC(=O)CSc1cc(C(=O)N2CCN(C(=O)c3ccccc3)CC2)ccn1

>  <score_type>  (32) 
oracle

>  <origin>  (32) 
adg

>  <m_score__min__energy>  (32) 
-11.76

>  <m_primary>  (32) 
energy

$$$$
32:0
     RDKit          3D

 58 61  0  0  0  0  0  0  0  0999 V2000
   54.3730   30.8500   51.1380 C   0  0  0  0  0  0  0  0  0  0  0  0
   54.3590   30.5410   52.4430 C   0  0  0  0  0  0  0  0  0  0  0  0
   53.2290   30.4470   53.2680 C   0  0  0  0  0  0  0  0  0  0  0  0
   51.9580   30.7510   52.9380 C   0  0  0  0  0  0  0  0  0  0  0  0
   51.5070   31.0920   51.5750 C   0  0  0  0  0  0  0  0  0  0  0  0
   51.5740   30.2780   50.4990 N   0  0  0  0  0  0  0  0  0  0  0  0
   51.0960   31.0500   49.4970 C   0  0  0  0  0  0  0  0  0  0  0  0
   50.9650   30.6290   48.3150 O   0  0  0  0  0  0  0  0  0  0  0  0
   50.7510   32.3030   49.8590 N   0  0  0  0  0  0  0  0  0  0  0  0
   51.0250   32.3160   51.1730 C   0  0  0  0  0  0  0  0  0  0  0  0
   50.8370   33.4250   51.9960 O   0  0  0  0  0  0  0  0  0  0  0  0
   53.6920   30.0910   54.5270 C   0  0  0  0  0  0  0  0  0  0  0  0
   55.0710   30.0070   54.4300 C   0  0  0  0  0  0  0  0  0  0  0  0
   55.9800   29.7100   55.5830 C   0  0  0  0  0  0  0  0  0  0  0  0
   55.4730   30.2610   53.1610 N   0  0  0  0  0  0  0  0  0  0  0  0
   56.8270   30.3500   52.6980 C   0  0  0  0  0  0  0  0  0  0  0  0
   57.3520   29.3680   52.1110 O   0  0  0  0  0  0  0  0  0  0  0  0
   57.6080   31.5210   52.9550 N   0  0  0  0  0  0  0  0  0  0  0  0
   57.7810   32.5170   51.8980 C   0  0  0  0  0  0  0  0  0  0  0  0
   59.1720   32.3560   51.2740 C   0  0  0  0  0  0  0  0  0  0  0  0
   60.1850   31.9950   52.2890 N   0  0  0  0  0  0  0  0  0  0  0  0
   61.5380   31.6700   51.9340 C   0  0  0  0  0  0  0  0  0  0  0  0
   61.9540   30.4980   52.1510 O   0  0  0  0  0  0  0  0  0  0  0  0
   62.4580   32.6670   51.4500 N   0  0  0  0  0  0  0  0  0  0  0  0
   63.8840   32.5680   51.7750 C   0  0  0  0  0  0  0  0  0  0  0  0
   64.6620   32.2990   50.4810 C   0  0  0  0  0  0  0  0  0  0  0  0
   64.3190   33.2490   49.3820 N   0  0  0  0  0  0  0  0  0  0  0  0
   63.9990   32.5380   48.1360 C   0  0  0  0  0  0  0  0  0  0  0  0
   63.2730   34.2510   49.7160 C   0  0  0  0  0  0  0  0  0  0  0  0
   62.0510   33.6250   50.4170 C   0  0  0  0  0  0  0  0  0  0  0  0
   59.8880   32.1900   53.7180 C   0  0  0  0  0  0  0  0  0  0  0  0
   58.5450   31.5240   54.0910 C   0  0  0  0  0  0  0  0  0  0  0  0
   55.3277   30.8932   50.5932 H   0  0  0  0  0  0  0  0  0  0  0  0
   53.4298   31.0602   50.6124 H   0  0  0  0  0  0  0  0  0  0  0  0
   51.2051   30.7444   53.7399 H   0  0  0  0  0  0  0  0  0  0  0  0
   53.0833   29.9109   55.4254 H   0  0  0  0  0  0  0  0  0  0  0  0
   55.4437   29.8852   56.5273 H   0  0  0  0  0  0  0  0  0  0  0  0
   56.3030   28.6596   55.5342 H   0  0  0  0  0  0  0  0  0  0  0  0
   56.8608   30.3671   55.5342 H   0  0  0  0  0  0  0  0  0  0  0  0
   57.0122   32.3701   51.1251 H   0  0  0  0  0  0  0  0  0  0  0  0
   57.6820   33.5268   52.3229 H   0  0  0  0  0  0  0  0  0  0  0  0
   59.1320   31.5637   50.5120 H   0  0  0  0  0  0  0  0  0  0  0  0
   59.4616   33.3178   50.8256 H   0  0  0  0  0  0  0  0  0  0  0  0
   64.2280   33.5108   52.2253 H   0  0  0  0  0  0  0  0  0  0  0  0
   64.0508   31.7500   52.4913 H   0  0  0  0  0  0  0  0  0  0  0  0
   65.7375   32.3852   50.6951 H   0  0  0  0  0  0  0  0  0  0  0  0
   64.3892   31.2899   50.1386 H   0  0  0  0  0  0  0  0  0  0  0  0
   63.5584   31.5589   48.3753 H   0  0  0  0  0  0  0  0  0  0  0  0
   63.2806   33.1301   47.5501 H   0  0  0  0  0  0  0  0  0  0  0  0
   64.9186   32.3929   47.5501 H   0  0  0  0  0  0  0  0  0  0  0  0
   63.7113   35.0083   50.3826 H   0  0  0  0  0  0  0  0  0  0  0  0
   62.9234   34.6935   48.7715 H   0  0  0  0  0  0  0  0  0  0  0  0
   61.4582   34.4250   50.8846 H   0  0  0  0  0  0  0  0  0  0  0  0
   61.4570   33.0884   49.6626 H   0  0  0  0  0  0  0  0  0  0  0  0
   60.6929   31.7415   54.3188 H   0  0  0  0  0  0  0  0  0  0  0  0
   59.8169   33.2688   53.9210 H   0  0  0  0  0  0  0  0  0  0  0  0
   58.7351   30.4855   54.3998 H   0  0  0  0  0  0  0  0  0  0  0  0
   58.0908   32.1004   54.9104 H   0  0  0  0  0  0  0  0  0  0  0  0
  1  2  2  0
  2  3  1  0
  3  4  2  3
  4  5  1  0
  5  6  1  0
  6  7  1  0
  7  8  2  0
  7  9  1  0
  9 10  1  0
 10 11  1  0
  3 12  1  0
 12 13  2  0
 13 14  1  0
 13 15  1  0
 15 16  1  0
 16 17  2  0
 16 18  1  0
 18 19  1  0
 19 20  1  0
 20 21  1  0
 21 22  1  0
 22 23  2  0
 22 24  1  0
 24 25  1  0
 25 26  1  0
 26 27  1  0
 27 28  1  0
 27 29  1  0
 29 30  1  0
 21 31  1  0
 31 32  1  0
 15  2  1  0
 32 18  1  0
 10  5  2  0
 30 24  1  0
  1 33  1  0
  1 34  1  0
  4 35  1  0
 12 36  1  0
 14 37  1  0
 14 38  1  0
 14 39  1  0
 19 40  1  0
 19 41  1  0
 20 42  1  0
 20 43  1  0
 25 44  1  0
 25 45  1  0
 26 46  1  0
 26 47  1  0
 28 48  1  0
 28 49  1  0
 28 50  1  0
 29 51  1  0
 29 52  1  0
 30 53  1  0
 30 54  1  0
 31 55  1  0
 31 56  1  0
 32 57  1  0
 32 58  1  0
M  CHG  3   6  -1   9  -1  11  -1
M  END
>  <UniqueID>  (33) 
32

>  <SMILES>  (33) 
C=c1c(=Cc2[n-]c(=O)[n-]c2[O-])cc(C)n1C(=O)N1CCN(C(=O)N2CCN(C)CC2)CC1

>  <Energy>  (33) 
157.67000606430585

>  <Genealogy>  (33) 
C=c1c(=Cc2[n-]c(=O)[n-]c2[O-])cc(C)n1C(=O)N1CCN(C(=O)N2CCN(C)CC2)CC1 (protonated)
C=c1c(=Cc2[n-]c(=O)[n-]c2[O-])cc(C)n1C(=O)N1CCN(C(=O)N2CCN(C)CC2)CC1 (3D coordinates assigned)
C=c1c(=Cc2[n-]c(=O)[n-]c2[O-])cc(C)n1C(=O)N1CCN(C(=O)N2CCN(C)CC2)CC1 (nonaromatic ring conformer: 157.67000606430585 kcal/mol)

>  <smiles>  (33) 
C=c1c(=Cc2[nH]c(=O)[nH]c2O)cc(C)n1C(=O)N1CCN(C(=O)N2CCN(C)CC2)CC1

>  <score_type>  (33) 
oracle

>  <origin>  (33) 
adg

>  <m_score__min__energy>  (33) 
-17.649999999999999

>  <m_primary>  (33) 
energy

$$$$
33:0
     RDKit          3D

 52 56  0  0  0  0  0  0  0  0999 V2000
   56.9734   20.0412   42.7168 H   0  0  0  0  0  0  0  0  0  0  0  0
   56.6580   20.9300   43.2830 C   0  0  0  0  0  0  0  0  0  0  0  0
   56.5460   22.1660   42.6400 C   0  0  0  0  0  0  0  0  0  0  0  0
   56.7834   22.2507   41.5693 H   0  0  0  0  0  0  0  0  0  0  0  0
   56.1330   23.2950   43.3540 C   0  0  0  0  0  0  0  0  0  0  0  0
   56.0592   24.2683   42.8468 H   0  0  0  0  0  0  0  0  0  0  0  0
   55.8110   23.1890   44.7220 C   0  0  0  0  0  0  0  0  0  0  0  0
   55.4160   24.3270   45.5060 N   0  0  0  0  0  0  0  0  0  0  0  0
   56.1560   25.3520   45.8130 C   0  0  0  0  0  0  0  0  0  0  0  0
   55.6880   26.6050   46.0050 N   0  0  0  0  0  0  0  0  0  0  0  0
   56.6410   27.4670   46.3530 N   0  0  0  0  0  0  0  0  0  0  0  0
   57.8660   26.9010   46.4430 C   0  0  0  0  0  0  0  0  0  0  0  0
   59.0960   27.6520   46.8410 C   0  0  0  0  0  0  0  0  0  0  0  0
   59.9216   27.3809   46.1666 H   0  0  0  0  0  0  0  0  0  0  0  0
   59.3570   27.3908   47.8772 H   0  0  0  0  0  0  0  0  0  0  0  0
   58.8560   29.0950   46.7570 N   0  0  0  0  0  0  0  0  0  0  0  0
   58.8730   29.9820   47.7780 C   0  0  0  0  0  0  0  0  0  0  0  0
   59.1500   29.6560   48.9660 O   0  0  0  0  0  0  0  0  0  0  0  0
   58.5650   31.2530   47.4060 N   0  0  0  0  0  0  0  0  0  0  0  0
   58.6830   32.4150   48.3060 C   0  0  0  0  0  0  0  0  0  0  0  0
   57.9601   33.1814   47.9897 H   0  0  0  0  0  0  0  0  0  0  0  0
   58.4808   32.0674   49.3299 H   0  0  0  0  0  0  0  0  0  0  0  0
   60.0980   33.0320   48.2900 C   0  0  1  0  0  0  0  0  0  0  0  0
   60.1579   33.6323   49.2098 H   0  0  0  0  0  0  0  0  0  0  0  0
   61.0830   32.0210   48.2850 O   0  0  0  0  0  0  0  0  0  0  0  0
   62.0800   32.3980   47.3630 C   0  0  0  0  0  0  0  0  0  0  0  0
   62.0578   31.7164   46.4999 H   0  0  0  0  0  0  0  0  0  0  0  0
   63.0663   32.3445   47.8472 H   0  0  0  0  0  0  0  0  0  0  0  0
   61.8240   33.8150   46.8940 C   0  0  0  0  0  0  0  0  0  0  0  0
   62.0738   33.9314   45.8291 H   0  0  0  0  0  0  0  0  0  0  0  0
   62.4337   34.5651   47.4190 H   0  0  0  0  0  0  0  0  0  0  0  0
   60.3560   33.9780   47.1240 C   0  0  0  0  0  0  0  0  0  0  0  0
   59.7791   33.6809   46.2358 H   0  0  0  0  0  0  0  0  0  0  0  0
   60.0567   35.0167   47.3275 H   0  0  0  0  0  0  0  0  0  0  0  0
   58.3070   31.1420   46.0670 C   0  0  0  0  0  0  0  0  0  0  0  0
   58.4980   29.8370   45.6900 C   0  0  0  0  0  0  0  0  0  0  0  0
   58.3210   29.4520   44.3670 C   0  0  0  0  0  0  0  0  0  0  0  0
   58.4940   28.2610   43.9950 O   0  0  0  0  0  0  0  0  0  0  0  0
   57.9570   30.4040   43.4680 N   0  0  0  0  0  0  0  0  0  0  0  0
   57.8310   30.1350   42.4660 H   0  0  0  0  0  0  0  0  0  0  0  0
   57.7390   31.7030   43.8440 C   0  0  0  0  0  0  0  0  0  0  0  0
   57.3930   32.5350   42.9610 O   0  0  0  0  0  0  0  0  0  0  0  0
   57.8900   32.0960   45.1620 N   0  0  0  0  0  0  0  0  0  0  0  0
   57.5220   33.4630   45.5610 C   0  0  0  0  0  0  0  0  0  0  0  0
   57.5034   33.5321   46.6587 H   0  0  0  0  0  0  0  0  0  0  0  0
   58.2610   34.1731   45.1614 H   0  0  0  0  0  0  0  0  0  0  0  0
   56.5264   33.7062   45.1614 H   0  0  0  0  0  0  0  0  0  0  0  0
   57.8100   25.2510   46.0990 S   0  0  0  0  0  0  0  0  0  0  0  0
   55.9560   21.9510   45.3630 C   0  0  0  0  0  0  0  0  0  0  0  0
   55.7433   21.8649   46.4388 H   0  0  0  0  0  0  0  0  0  0  0  0
   56.3690   20.8250   44.6450 C   0  0  0  0  0  0  0  0  0  0  0  0
   56.4665   19.8546   45.1538 H   0  0  0  0  0  0  0  0  0  0  0  0
  1  2  1  0
  2  3  2  0
  3  4  1  0
  3  5  1  0
  5  6  1  0
  5  7  2  0
  7  8  1  0
  8  9  2  0
  9 10  1  0
 10 11  1  0
 11 12  2  0
 12 13  1  0
 13 14  1  0
 13 15  1  0
 13 16  1  0
 16 17  1  0
 17 18  2  0
 17 19  1  0
 19 20  1  0
 20 21  1  0
 20 22  1  0
 20 23  1  0
 23 24  1  1
 23 25  1  0
 25 26  1  0
 26 27  1  0
 26 28  1  0
 26 29  1  0
 29 30  1  0
 29 31  1  0
 29 32  1  0
 32 33  1  0
 32 34  1  0
 19 35  1  0
 35 36  2  0
 36 37  1  0
 37 38  2  0
 37 39  1  0
 39 40  1  0
 39 41  1  0
 41 42  2  0
 41 43  1  0
 43 44  1  0
 44 45  1  0
 44 46  1  0
 44 47  1  0
 12 48  1  0
  7 49  1  0
 49 50  1  0
 49 51  2  0
 51 52  1  0
 51  2  1  0
 48  9  1  0
 36 16  1  0
 32 23  1  0
 43 35  1  0
M  CHG  1  10  -1
M  END
>  <UniqueID>  (34) 
33

>  <SMILES>  (34) 
Cn1c(=O)[nH]c(=O)c2c1n(C[C@@H]1CCCO1)c(=O)n2Cc1n[n-]/c(=N\c2ccccc2)s1

>  <Energy>  (34) 
149.02406788505905

>  <Genealogy>  (34) 
Cn1c(=O)[nH]c(=O)c2c1n(CC1CCCO1)c(=O)n2Cc1n[n-]c(=Nc2ccccc2)s1 (protonated)
Cn1c(=O)[nH]c(=O)c2c1n(C[C@@H]1CCCO1)c(=O)n2Cc1n[n-]c(=Nc2ccccc2)s1 (chirality)
Cn1c(=O)[nH]c(=O)c2c1n(C[C@@H]1CCCO1)c(=O)n2Cc1n[n-]/c(=N\c2ccccc2)s1 (cis-trans isomerization)
Cn1c(=O)[nH]c(=O)c2c1n(C[C@@H]1CCCO1)c(=O)n2Cc1n[n-]/c(=N\c2ccccc2)s1 (3D coordinates assigned)
Cn1c(=O)[nH]c(=O)c2c1n(C[C@@H]1CCCO1)c(=O)n2Cc1n[n-]/c(=N\c2ccccc2)s1 (nonaromatic ring conformer: 149.02406788505905 kcal/mol)

>  <smiles>  (34) 
Cn1c(=O)[nH]c(=O)c2c1n(CC1CCCO1)c(=O)n2Cc1n[nH]c(=Nc2ccccc2)s1

>  <score_type>  (34) 
oracle

>  <origin>  (34) 
adg

>  <m_score__min__energy>  (34) 
-10.18

>  <m_primary>  (34) 
energy

$$$$
34:0
     RDKit          3D

 55 58  0  0  0  0  0  0  0  0999 V2000
   62.7010   31.8843   48.0975 H   0  0  0  0  0  0  0  0  0  0  0  0
   61.9880   31.0560   47.9730 C   0  0  0  0  0  0  0  0  0  0  0  0
   62.2326   30.0566   48.3619 H   0  0  0  0  0  0  0  0  0  0  0  0
   60.8240   31.2640   47.3490 C   0  0  0  0  0  0  0  0  0  0  0  0
   60.3840   32.4480   46.7590 C   0  0  0  0  0  0  0  0  0  0  0  0
   61.0930   33.7480   46.6960 C   0  0  0  0  0  0  0  0  0  0  0  0
   60.4570   34.8090   46.4560 O   0  0  0  0  0  0  0  0  0  0  0  0
   62.5070   33.7870   46.9200 N   0  0  0  0  0  0  0  0  0  0  0  0
   63.0620   33.8680   48.0880 C   0  0  0  0  0  0  0  0  0  0  0  0
   62.5927   34.4713   48.8791 H   0  0  0  0  0  0  0  0  0  0  0  0
   64.3450   33.1390   48.3620 C   0  0  0  0  0  0  0  0  0  0  0  0
   64.4501   32.3281   47.6262 H   0  0  0  0  0  0  0  0  0  0  0  0
   65.1603   33.8736   48.2873 H   0  0  0  0  0  0  0  0  0  0  0  0
   64.4050   32.5530   49.7190 N   0  0  0  0  0  0  0  0  0  0  0  0
   65.7450   32.0660   50.1220 C   0  0  0  0  0  0  0  0  0  0  0  0
   65.6567   31.0180   50.4443 H   0  0  0  0  0  0  0  0  0  0  0  0
   66.4119   32.1685   49.2532 H   0  0  0  0  0  0  0  0  0  0  0  0
   66.3500   32.8850   51.2720 C   0  0  0  0  0  0  0  0  0  0  0  0
   66.0303   32.4544   52.2324 H   0  0  0  0  0  0  0  0  0  0  0  0
   67.4469   32.8568   51.1949 H   0  0  0  0  0  0  0  0  0  0  0  0
   65.9180   34.2220   51.1950 O   0  0  0  0  0  0  0  0  0  0  0  0
   64.5510   34.2940   51.5490 C   0  0  0  0  0  0  0  0  0  0  0  0
   64.4551   34.0701   52.6217 H   0  0  0  0  0  0  0  0  0  0  0  0
   64.2029   35.3090   51.3068 H   0  0  0  0  0  0  0  0  0  0  0  0
   63.6650   33.3020   50.7580 C   0  0  0  0  0  0  0  0  0  0  0  0
   63.2318   32.5803   51.4662 H   0  0  0  0  0  0  0  0  0  0  0  0
   62.8937   33.8943   50.2439 H   0  0  0  0  0  0  0  0  0  0  0  0
   59.1390   32.1630   46.2000 C   0  0  0  0  0  0  0  0  0  0  0  0
   58.1910   33.1830   45.6280 C   0  0  0  0  0  0  0  0  0  0  0  0
   57.6918   33.7201   46.4480 H   0  0  0  0  0  0  0  0  0  0  0  0
   58.7521   33.8986   45.0090 H   0  0  0  0  0  0  0  0  0  0  0  0
   57.4364   32.6757   45.0090 H   0  0  0  0  0  0  0  0  0  0  0  0
   58.9020   30.8020   46.4400 C   0  0  0  0  0  0  0  0  0  0  0  0
   57.8640   30.0430   46.0420 C   0  0  0  0  0  0  0  0  0  0  0  0
   56.9345   30.5613   45.7638 H   0  0  0  0  0  0  0  0  0  0  0  0
   57.8750   28.5770   45.9500 C   0  0  0  0  0  0  0  0  0  0  0  0
   58.9980   27.8350   46.1140 N   0  0  0  0  0  0  0  0  0  0  0  0
   58.6060   26.5670   45.8720 C   0  0  0  0  0  0  0  0  0  0  0  0
   59.4030   25.4260   45.9230 C   0  0  0  0  0  0  0  0  0  0  0  0
   60.4676   25.4931   46.1915 H   0  0  0  0  0  0  0  0  0  0  0  0
   58.8070   24.1760   45.6200 C   0  0  0  0  0  0  0  0  0  0  0  0
   59.5300   22.9760   45.6470 O   0  0  0  0  0  0  0  0  0  0  0  0
   59.5160   22.0070   44.6040 C   0  0  0  0  0  0  0  0  0  0  0  0
   59.5014   20.9978   45.0413 H   0  0  0  0  0  0  0  0  0  0  0  0
   58.6198   22.1503   43.9824 H   0  0  0  0  0  0  0  0  0  0  0  0
   60.4159   22.1243   43.9824 H   0  0  0  0  0  0  0  0  0  0  0  0
   57.4350   24.1220   45.2760 C   0  0  0  0  0  0  0  0  0  0  0  0
   56.9728   23.1517   45.0420 H   0  0  0  0  0  0  0  0  0  0  0  0
   56.6540   25.2910   45.2290 C   0  0  0  0  0  0  0  0  0  0  0  0
   55.5888   25.2542   44.9571 H   0  0  0  0  0  0  0  0  0  0  0  0
   57.2780   26.4960   45.5390 C   0  0  0  0  0  0  0  0  0  0  0  0
   56.8040   27.7790   45.5680 C   0  0  0  0  0  0  0  0  0  0  0  0
   55.5190   28.1980   45.2440 O   0  0  0  0  0  0  0  0  0  0  0  0
   59.9140   30.2890   47.1680 N   0  0  0  0  0  0  0  0  0  0  0  0
   60.0030   29.2970   47.4890 H   0  0  0  0  0  0  0  0  0  0  0  0
  1  2  1  0
  2  3  1  0
  2  4  2  0
  4  5  1  0
  5  6  1  0
  6  7  2  0
  6  8  1  0
  8  9  2  0
  9 10  1  0
  9 11  1  0
 11 12  1  0
 11 13  1  0
 11 14  1  0
 14 15  1  0
 15 16  1  0
 15 17  1  0
 15 18  1  0
 18 19  1  0
 18 20  1  0
 18 21  1  0
 21 22  1  0
 22 23  1  0
 22 24  1  0
 22 25  1  0
 25 26  1  0
 25 27  1  0
  5 28  2  0
 28 29  1  0
 29 30  1  0
 29 31  1  0
 29 32  1  0
 28 33  1  0
 33 34  2  3
 34 35  1  0
 34 36  1  0
 36 37  1  0
 37 38  1  0
 38 39  2  0
 39 40  1  0
 39 41  1  0
 41 42  1  0
 42 43  1  0
 43 44  1  0
 43 45  1  0
 43 46  1  0
 41 47  2  0
 47 48  1  0
 47 49  1  0
 49 50  1  0
 49 51  2  0
 51 52  1  0
 52 53  1  0
 33 54  1  0
 54 55  1  0
 54  4  1  0
 25 14  1  0
 52 36  2  0
 51 38  1  0
M  CHG  2  37  -1  53  -1
M  END
>  <UniqueID>  (35) 
34

>  <SMILES>  (35) 
C=c1[nH]c(=Cc2[n-]c3cc(OC)ccc3c2[O-])c(C)c1C(=O)/N=C/CN1CCOCC1

>  <Energy>  (35) 
143.28560272182506

>  <Genealogy>  (35) 
C=c1[nH]c(=Cc2[n-]c3cc(OC)ccc3c2[O-])c(C)c1C(=O)N=CCN1CCOCC1 (protonated)
C=c1[nH]c(=Cc2[n-]c3cc(OC)ccc3c2[O-])c(C)c1C(=O)/N=C/CN1CCOCC1 (cis-trans isomerization)
C=c1[nH]c(=Cc2[n-]c3cc(OC)ccc3c2[O-])c(C)c1C(=O)/N=C/CN1CCOCC1 (3D coordinates assigned)
C=c1[nH]c(=Cc2[n-]c3cc(OC)ccc3c2[O-])c(C)c1C(=O)/N=C/CN1CCOCC1 (nonaromatic ring conformer: 143.28560272182506 kcal/mol)

>  <smiles>  (35) 
C=c1[nH]c(=Cc2[nH]c3cc(OC)ccc3c2O)c(C)c1C(=O)N=CCN1CCOCC1

>  <score_type>  (35) 
oracle

>  <origin>  (35) 
adg

>  <m_score__min__energy>  (35) 
-13.65

>  <m_primary>  (35) 
energy

$$$$
35:0
     RDKit          3D

 53 55  0  0  0  0  0  0  0  0999 V2000
   50.8090   28.3890   52.8780 C   0  0  0  0  0  0  0  0  0  0  0  0
   50.6430   29.8370   52.7080 N   0  0  0  0  0  0  0  0  0  0  0  0
   50.7720   30.5180   54.0020 C   0  0  0  0  0  0  0  0  0  0  0  0
   51.8420   30.4430   51.5920 S   0  0  0  0  0  0  0  0  0  0  0  0
   51.6000   31.9060   51.3420 O   0  0  0  0  0  0  0  0  0  0  0  0
   51.7130   29.7200   50.2800 O   0  0  0  0  0  0  0  0  0  0  0  0
   53.4760   30.2270   52.2210 C   0  0  0  0  0  0  0  0  0  0  0  0
   53.6990   29.4310   53.3520 C   0  0  0  0  0  0  0  0  0  0  0  0
   54.9870   29.3100   53.8800 C   0  0  0  0  0  0  0  0  0  0  0  0
   56.0560   29.9840   53.2840 C   0  0  0  0  0  0  0  0  0  0  0  0
   55.8540   30.7690   52.1390 C   0  0  0  0  0  0  0  0  0  0  0  0
   56.9610   31.5060   51.5890 N   0  0  0  0  0  0  0  0  0  0  0  0
   58.3070   31.0060   51.4940 C   0  0  0  0  0  0  0  0  0  0  0  0
   58.6480   29.9740   52.1340 O   0  0  0  0  0  0  0  0  0  0  0  0
   59.3190   31.7240   50.6870 C   0  0  0  0  0  0  0  0  0  0  0  0
   59.3070   33.1310   50.6620 C   0  0  0  0  0  0  0  0  0  0  0  0
   60.2640   33.8370   49.9300 C   0  0  0  0  0  0  0  0  0  0  0  0
   61.2480   33.1520   49.2190 C   0  0  0  0  0  0  0  0  0  0  0  0
   61.2720   31.7550   49.2310 C   0  0  0  0  0  0  0  0  0  0  0  0
   60.3110   31.0330   49.9510 C   0  0  0  0  0  0  0  0  0  0  0  0
   60.3730   29.2350   49.8780 S   0  0  0  0  0  0  0  0  0  0  0  0
   59.5530   29.1620   48.2840 C   0  0  0  0  0  0  0  0  0  0  0  0
   59.5600   27.9730   47.5450 C   0  0  0  0  0  0  0  0  0  0  0  0
   58.9080   27.9110   46.3090 C   0  0  0  0  0  0  0  0  0  0  0  0
   58.2450   29.0390   45.8010 C   0  0  0  0  0  0  0  0  0  0  0  0
   57.5060   28.9610   44.4940 C   0  0  0  0  0  0  0  0  0  0  0  0
   56.1760   29.6370   44.6090 C   0  0  0  0  0  0  0  0  0  0  0  0
   55.1430   28.9650   44.8750 O   0  0  0  0  0  0  0  0  0  0  0  0
   56.0730   31.0070   44.4000 O   0  0  0  0  0  0  0  0  0  0  0  0
   58.2280   30.2240   46.5550 C   0  0  0  0  0  0  0  0  0  0  0  0
   58.8820   30.2840   47.7870 C   0  0  0  0  0  0  0  0  0  0  0  0
   54.5540   30.8870   51.6140 C   0  0  0  0  0  0  0  0  0  0  0  0
   50.8368   28.1465   53.9506 H   0  0  0  0  0  0  0  0  0  0  0  0
   49.9650   27.8652   52.4054 H   0  0  0  0  0  0  0  0  0  0  0  0
   51.7496   28.0698   52.4054 H   0  0  0  0  0  0  0  0  0  0  0  0
   50.6341   29.7899   54.8149 H   0  0  0  0  0  0  0  0  0  0  0  0
   51.7717   30.9701   54.0804 H   0  0  0  0  0  0  0  0  0  0  0  0
   50.0068   31.3044   54.0804 H   0  0  0  0  0  0  0  0  0  0  0  0
   52.8593   28.9007   53.8249 H   0  0  0  0  0  0  0  0  0  0  0  0
   55.1598   28.6827   54.7669 H   0  0  0  0  0  0  0  0  0  0  0  0
   57.0640   29.8984   53.7160 H   0  0  0  0  0  0  0  0  0  0  0  0
   56.7660   32.4740   51.2460 H   0  0  0  0  0  0  0  0  0  0  0  0
   58.5369   33.6796   51.2241 H   0  0  0  0  0  0  0  0  0  0  0  0
   60.2413   34.9367   49.9144 H   0  0  0  0  0  0  0  0  0  0  0  0
   62.0049   33.7107   48.6490 H   0  0  0  0  0  0  0  0  0  0  0  0
   62.0515   31.2178   48.6708 H   0  0  0  0  0  0  0  0  0  0  0  0
   60.0791   27.0860   47.9370 H   0  0  0  0  0  0  0  0  0  0  0  0
   58.9149   26.9741   45.7326 H   0  0  0  0  0  0  0  0  0  0  0  0
   58.0989   29.4572   43.7116 H   0  0  0  0  0  0  0  0  0  0  0  0
   57.3490   27.9038   44.2339 H   0  0  0  0  0  0  0  0  0  0  0  0
   57.6971   31.1085   46.1731 H   0  0  0  0  0  0  0  0  0  0  0  0
   58.8695   31.2173   48.3690 H   0  0  0  0  0  0  0  0  0  0  0  0
   54.3817   31.5028   50.7190 H   0  0  0  0  0  0  0  0  0  0  0  0
  1  2  1  0
  2  3  1  0
  2  4  1  0
  4  5  2  0
  4  6  2  0
  4  7  1  0
  7  8  2  0
  8  9  1  0
  9 10  2  0
 10 11  1  0
 11 12  1  0
 12 13  1  0
 13 14  2  0
 13 15  1  0
 15 16  2  0
 16 17  1  0
 17 18  2  0
 18 19  1  0
 19 20  2  0
 20 21  1  0
 21 22  1  0
 22 23  2  0
 23 24  1  0
 24 25  2  0
 25 26  1  0
 26 27  1  0
 27 28  2  0
 27 29  1  0
 25 30  1  0
 30 31  2  0
 11 32  2  0
 32  7  1  0
 20 15  1  0
 31 22  1  0
  1 33  1  0
  1 34  1  0
  1 35  1  0
  3 36  1  0
  3 37  1  0
  3 38  1  0
  8 39  1  0
  9 40  1  0
 10 41  1  0
 12 42  1  0
 16 43  1  0
 17 44  1  0
 18 45  1  0
 19 46  1  0
 23 47  1  0
 24 48  1  0
 26 49  1  0
 26 50  1  0
 30 51  1  0
 31 52  1  0
 32 53  1  0
M  CHG  1  29  -1
M  END
>  <UniqueID>  (36) 
35

>  <SMILES>  (36) 
CN(C)S(=O)(=O)c1cccc(NC(=O)c2ccccc2Sc2ccc(CC(=O)[O-])cc2)c1

>  <Energy>  (36) 
53.12852897633823

>  <Genealogy>  (36) 
CN(C)S(=O)(=O)c1cccc(NC(=O)c2ccccc2Sc2ccc(CC(=O)[O-])cc2)c1 (protonated)
CN(C)S(=O)(=O)c1cccc(NC(=O)c2ccccc2Sc2ccc(CC(=O)[O-])cc2)c1 (3D coordinates assigned)
CN(C)S(=O)(=O)c1cccc(NC(=O)c2ccccc2Sc2ccc(CC(=O)[O-])cc2)c1 (optimized conformer: 53.12852897633823 kcal/mol)

>  <smiles>  (36) 
CN(C)S(=O)(=O)c1cccc(NC(=O)c2ccccc2Sc2ccc(CC(=O)O)cc2)c1

>  <score_type>  (36) 
oracle

>  <origin>  (36) 
adg

>  <m_score__min__energy>  (36) 
-12.98

>  <m_primary>  (36) 
energy

$$$$
36:0
     RDKit          3D

 55 58  0  0  0  0  0  0  0  0999 V2000
   59.4630   30.1360   44.1250 O   0  0  0  0  0  0  0  0  0  0  0  0
   58.4180   29.8560   44.7750 C   0  0  0  0  0  0  0  0  0  0  0  0
   57.4120   30.8630   44.9720 N   0  0  0  0  0  0  0  0  0  0  0  0
   57.4860   32.1760   44.3340 C   0  0  0  0  0  0  0  0  0  0  0  0
   57.0100   33.2670   45.2970 C   0  0  0  0  0  0  0  0  0  0  0  0
   58.1170   33.6630   46.2370 C   0  0  0  0  0  0  0  0  0  0  0  0
   59.0690   34.6200   45.8490 C   0  0  0  0  0  0  0  0  0  0  0  0
   60.1150   34.9630   46.7120 C   0  0  0  0  0  0  0  0  0  0  0  0
   60.2230   34.3460   47.9610 C   0  0  0  0  0  0  0  0  0  0  0  0
   59.2870   33.3830   48.3490 C   0  0  0  0  0  0  0  0  0  0  0  0
   58.2400   33.0370   47.4890 C   0  0  0  0  0  0  0  0  0  0  0  0
   58.2590   28.4910   45.3330 C   0  0  0  0  0  0  0  0  0  0  0  0
   59.3920   27.7100   45.6060 C   0  0  0  0  0  0  0  0  0  0  0  0
   59.2590   26.4240   46.1310 C   0  0  0  0  0  0  0  0  0  0  0  0
   57.9900   25.8830   46.3760 C   0  0  0  0  0  0  0  0  0  0  0  0
   57.8850   24.5420   46.8890 N   0  0  0  0  0  0  0  0  0  0  0  0
   57.3240   24.2850   48.2180 C   0  0  0  0  0  0  0  0  0  0  0  0
   56.5310   22.9750   48.1870 C   0  0  0  0  0  0  0  0  0  0  0  0
   57.3210   21.9220   47.6650 O   0  0  0  0  0  0  0  0  0  0  0  0
   57.6320   22.1810   46.3070 C   0  0  0  0  0  0  0  0  0  0  0  0
   58.5130   23.4280   46.1780 C   0  0  0  0  0  0  0  0  0  0  0  0
   56.8420   26.6440   46.0840 C   0  0  0  0  0  0  0  0  0  0  0  0
   55.5420   26.1140   46.3820 N   0  0  0  0  0  0  0  0  0  0  0  0
   54.8090   25.1870   45.5710 C   0  0  0  0  0  0  0  0  0  0  0  0
   53.5510   25.1950   45.6270 O   0  0  0  0  0  0  0  0  0  0  0  0
   55.4880   24.1860   44.7260 C   0  0  0  0  0  0  0  0  0  0  0  0
   56.4630   24.4600   43.7740 C   0  0  0  0  0  0  0  0  0  0  0  0
   56.9000   23.3230   43.0830 C   0  0  0  0  0  0  0  0  0  0  0  0
   56.2640   22.1530   43.4750 C   0  0  0  0  0  0  0  0  0  0  0  0
   55.1570   22.5350   44.6820 S   0  0  0  0  0  0  0  0  0  0  0  0
   56.9850   27.9490   45.5780 C   0  0  0  0  0  0  0  0  0  0  0  0
   56.6010   30.6790   45.6030 H   0  0  0  0  0  0  0  0  0  0  0  0
   58.5272   32.3790   44.0429 H   0  0  0  0  0  0  0  0  0  0  0  0
   56.8371   32.1773   43.4458 H   0  0  0  0  0  0  0  0  0  0  0  0
   56.6946   34.1477   44.7183 H   0  0  0  0  0  0  0  0  0  0  0  0
   56.1667   32.8772   45.8860 H   0  0  0  0  0  0  0  0  0  0  0  0
   58.9917   35.1015   44.8630 H   0  0  0  0  0  0  0  0  0  0  0  0
   60.8533   35.7193   46.4071 H   0  0  0  0  0  0  0  0  0  0  0  0
   61.0450   34.6182   48.6393 H   0  0  0  0  0  0  0  0  0  0  0  0
   59.3741   32.8968   49.3319 H   0  0  0  0  0  0  0  0  0  0  0  0
   57.5103   32.2723   47.7936 H   0  0  0  0  0  0  0  0  0  0  0  0
   60.3946   28.1152   45.4043 H   0  0  0  0  0  0  0  0  0  0  0  0
   60.1576   25.8302   46.3543 H   0  0  0  0  0  0  0  0  0  0  0  0
   58.1394   24.2038   48.9518 H   0  0  0  0  0  0  0  0  0  0  0  0
   56.6581   25.1126   48.5037 H   0  0  0  0  0  0  0  0  0  0  0  0
   56.2181   22.7184   49.2099 H   0  0  0  0  0  0  0  0  0  0  0  0
   55.6514   23.1102   47.5405 H   0  0  0  0  0  0  0  0  0  0  0  0
   58.1678   21.3162   45.8886 H   0  0  0  0  0  0  0  0  0  0  0  0
   56.6947   22.3535   45.7577 H   0  0  0  0  0  0  0  0  0  0  0  0
   59.5023   23.2252   46.6141 H   0  0  0  0  0  0  0  0  0  0  0  0
   58.6282   23.6883   45.1155 H   0  0  0  0  0  0  0  0  0  0  0  0
   56.8530   25.4705   43.5822 H   0  0  0  0  0  0  0  0  0  0  0  0
   57.6747   23.3541   42.3027 H   0  0  0  0  0  0  0  0  0  0  0  0
   56.4517   21.1491   43.0665 H   0  0  0  0  0  0  0  0  0  0  0  0
   56.0890   28.5527   45.3715 H   0  0  0  0  0  0  0  0  0  0  0  0
  1  2  2  0
  2  3  1  0
  3  4  1  0
  4  5  1  0
  5  6  1  0
  6  7  2  0
  7  8  1  0
  8  9  2  0
  9 10  1  0
 10 11  2  0
  2 12  1  0
 12 13  2  0
 13 14  1  0
 14 15  2  0
 15 16  1  0
 16 17  1  0
 17 18  1  0
 18 19  1  0
 19 20  1  0
 20 21  1  0
 15 22  1  0
 22 23  1  0
 23 24  1  0
 24 25  2  0
 24 26  1  0
 26 27  2  0
 27 28  1  0
 28 29  2  0
 29 30  1  0
 22 31  2  0
 11  6  1  0
 31 12  1  0
 21 16  1  0
 30 26  1  0
  3 32  1  0
  4 33  1  0
  4 34  1  0
  5 35  1  0
  5 36  1  0
  7 37  1  0
  8 38  1  0
  9 39  1  0
 10 40  1  0
 11 41  1  0
 13 42  1  0
 14 43  1  0
 17 44  1  0
 17 45  1  0
 18 46  1  0
 18 47  1  0
 20 48  1  0
 20 49  1  0
 21 50  1  0
 21 51  1  0
 27 52  1  0
 28 53  1  0
 29 54  1  0
 31 55  1  0
M  CHG  1  23  -1
M  END
>  <UniqueID>  (37) 
36

>  <SMILES>  (37) 
O=C(NCCc1ccccc1)c1ccc(N2CCOCC2)c([N-]C(=O)c2cccs2)c1

>  <Energy>  (37) 
93.45929565272324

>  <Genealogy>  (37) 
O=C(NCCc1ccccc1)c1ccc(N2CCOCC2)c([N-]C(=O)c2cccs2)c1 (protonated)
O=C(NCCc1ccccc1)c1ccc(N2CCOCC2)c([N-]C(=O)c2cccs2)c1 (3D coordinates assigned)
O=C(NCCc1ccccc1)c1ccc(N2CCOCC2)c([N-]C(=O)c2cccs2)c1 (nonaromatic ring conformer: 93.45929565272324 kcal/mol)

>  <smiles>  (37) 
O=C(NCCc1ccccc1)c1ccc(N2CCOCC2)c(NC(=O)c2cccs2)c1

>  <score_type>  (37) 
oracle

>  <origin>  (37) 
adg

>  <m_score__min__energy>  (37) 
-10.49

>  <m_primary>  (37) 
energy

$$$$
37:0
     RDKit          3D

 53 57  0  0  0  0  0  0  0  0999 V2000
   56.2990   25.0360   47.2810 O   0  0  0  0  0  0  0  0  0  0  0  0
   55.5320   25.3340   46.3310 C   0  0  0  0  0  0  0  0  0  0  0  0
   54.8840   24.2830   45.6040 N   0  0  0  0  0  0  0  0  0  0  0  0
   55.5380   23.2790   44.8130 C   0  0  0  0  0  0  0  0  0  0  0  0
   55.8310   22.0050   45.3330 C   0  0  0  0  0  0  0  0  0  0  0  0
   56.4740   21.0530   44.5370 C   0  0  0  0  0  0  0  0  0  0  0  0
   56.8130   21.3580   43.2150 C   0  0  0  0  0  0  0  0  0  0  0  0
   56.5010   22.6130   42.6860 C   0  0  0  0  0  0  0  0  0  0  0  0
   55.8580   23.5680   43.4800 C   0  0  0  0  0  0  0  0  0  0  0  0
   55.3350   26.7170   46.0050 N   0  0  0  0  0  0  0  0  0  0  0  0
   56.3490   27.6250   45.5530 C   0  0  0  0  0  0  0  0  0  0  0  0
   57.6830   27.2160   45.3860 C   0  0  0  0  0  0  0  0  0  0  0  0
   58.6500   28.1310   44.9620 C   0  0  0  0  0  0  0  0  0  0  0  0
   58.2890   29.4510   44.6770 C   0  0  0  0  0  0  0  0  0  0  0  0
   56.9560   29.8600   44.7920 C   0  0  0  0  0  0  0  0  0  0  0  0
   56.6200   31.2230   44.4940 N   0  0  0  0  0  0  0  0  0  0  0  0
   57.5460   32.3000   44.3020 C   0  0  0  0  0  0  0  0  0  0  0  0
   57.7540   32.7160   43.1310 O   0  0  0  0  0  0  0  0  0  0  0  0
   58.2200   32.9690   45.4400 C   0  0  0  0  0  0  0  0  0  0  0  0
   58.8830   34.2110   45.2590 C   0  0  0  0  0  0  0  0  0  0  0  0
   59.5130   34.8520   46.3370 C   0  0  0  0  0  0  0  0  0  0  0  0
   59.4740   34.2300   47.5800 C   0  0  0  0  0  0  0  0  0  0  0  0
   60.0090   34.6290   48.7880 C   0  0  0  0  0  0  0  0  0  0  0  0
   59.6620   33.6200   49.6790 C   0  0  0  0  0  0  0  0  0  0  0  0
   58.9590   32.6380   49.0610 N   0  0  0  0  0  0  0  0  0  0  0  0
   58.8490   33.0230   47.7710 C   0  0  0  0  0  0  0  0  0  0  0  0
   58.2150   32.3590   46.7150 C   0  0  0  0  0  0  0  0  0  0  0  0
   58.6070   31.3490   49.6660 C   0  0  0  0  0  0  0  0  0  0  0  0
   57.6650   31.5090   50.8710 C   0  0  0  0  0  0  0  0  0  0  0  0
   58.3360   31.9810   52.1760 C   0  0  0  0  0  0  0  0  0  0  0  0
   58.9290   33.3130   52.0640 N   0  0  0  0  0  0  0  0  0  0  0  0
   59.9620   33.6080   51.1180 C   0  0  0  0  0  0  0  0  0  0  0  0
   61.1250   33.8660   51.5250 O   0  0  0  0  0  0  0  0  0  0  0  0
   55.9890   28.9430   45.2430 C   0  0  0  0  0  0  0  0  0  0  0  0
   55.5534   21.7576   46.3683 H   0  0  0  0  0  0  0  0  0  0  0  0
   56.7137   20.0625   44.9510 H   0  0  0  0  0  0  0  0  0  0  0  0
   57.3251   20.6101   42.5918 H   0  0  0  0  0  0  0  0  0  0  0  0
   56.7614   22.8501   41.6439 H   0  0  0  0  0  0  0  0  0  0  0  0
   55.6024   24.5503   43.0561 H   0  0  0  0  0  0  0  0  0  0  0  0
   57.9666   26.1729   45.5896 H   0  0  0  0  0  0  0  0  0  0  0  0
   59.6970   27.8121   44.8523 H   0  0  0  0  0  0  0  0  0  0  0  0
   59.0571   30.1721   44.3606 H   0  0  0  0  0  0  0  0  0  0  0  0
   58.9033   34.6764   44.2625 H   0  0  0  0  0  0  0  0  0  0  0  0
   60.0224   35.8176   46.2026 H   0  0  0  0  0  0  0  0  0  0  0  0
   60.5831   35.5433   48.9991 H   0  0  0  0  0  0  0  0  0  0  0  0
   57.7251   31.3869   46.8731 H   0  0  0  0  0  0  0  0  0  0  0  0
   58.1094   30.7263   48.9079 H   0  0  0  0  0  0  0  0  0  0  0  0
   59.5354   30.8800   50.0239 H   0  0  0  0  0  0  0  0  0  0  0  0
   56.8916   32.2435   50.6021 H   0  0  0  0  0  0  0  0  0  0  0  0
   57.2672   30.5051   51.0804 H   0  0  0  0  0  0  0  0  0  0  0  0
   57.5779   32.0006   52.9728 H   0  0  0  0  0  0  0  0  0  0  0  0
   59.1500   31.2762   52.4011 H   0  0  0  0  0  0  0  0  0  0  0  0
   54.9424   29.2633   45.3530 H   0  0  0  0  0  0  0  0  0  0  0  0
  1  2  2  0
  2  3  1  0
  3  4  1  0
  4  5  2  0
  5  6  1  0
  6  7  2  0
  7  8  1  0
  8  9  2  0
  2 10  1  0
 10 11  1  0
 11 12  2  0
 12 13  1  0
 13 14  2  0
 14 15  1  0
 15 16  1  0
 16 17  1  0
 17 18  2  0
 17 19  1  0
 19 20  2  0
 20 21  1  0
 21 22  2  0
 22 23  1  0
 23 24  2  0
 24 25  1  0
 25 26  1  0
 26 27  2  0
 25 28  1  0
 28 29  1  0
 29 30  1  0
 30 31  1  0
 31 32  1  0
 32 33  2  0
 15 34  2  0
  9  4  1  0
 34 11  1  0
 27 19  1  0
 26 22  1  0
 32 24  1  0
  5 35  1  0
  6 36  1  0
  7 37  1  0
  8 38  1  0
  9 39  1  0
 12 40  1  0
 13 41  1  0
 14 42  1  0
 20 43  1  0
 21 44  1  0
 23 45  1  0
 27 46  1  0
 28 47  1  0
 28 48  1  0
 29 49  1  0
 29 50  1  0
 30 51  1  0
 30 52  1  0
 34 53  1  0
M  CHG  4   3  -1  10  -1  16  -1  31  -1
M  END
>  <UniqueID>  (38) 
37

>  <SMILES>  (38) 
O=C([N-]c1ccccc1)[N-]c1cccc([N-]C(=O)c2ccc3cc4n(c3c2)CCC[N-]C4=O)c1

>  <Energy>  (38) 
111.58963853349975

>  <Genealogy>  (38) 
O=C([N-]c1ccccc1)[N-]c1cccc([N-]C(=O)c2ccc3cc4n(c3c2)CCC[N-]C4=O)c1 (protonated)
O=C([N-]c1ccccc1)[N-]c1cccc([N-]C(=O)c2ccc3cc4n(c3c2)CCC[N-]C4=O)c1 (3D coordinates assigned)
O=C([N-]c1ccccc1)[N-]c1cccc([N-]C(=O)c2ccc3cc4n(c3c2)CCC[N-]C4=O)c1 (nonaromatic ring conformer: 111.58963853349975 kcal/mol)

>  <smiles>  (38) 
O=C(Nc1ccccc1)Nc1cccc(NC(=O)c2ccc3cc4n(c3c2)CCCNC4=O)c1

>  <score_type>  (38) 
oracle

>  <origin>  (38) 
adg

>  <m_score__min__energy>  (38) 
-13.880000000000001

>  <m_primary>  (38) 
energy

$$$$
38:0
     RDKit          3D

 65 69  0  0  0  0  0  0  0  0999 V2000
   60.3310   25.5880   54.6540 C   0  0  0  0  0  0  0  0  0  0  0  0
   60.7420   25.6490   53.3840 C   0  0  0  0  0  0  0  0  0  0  0  0
   60.3360   26.6500   52.5780 N   0  0  0  0  0  0  0  0  0  0  0  0
   60.9290   26.3950   51.3980 C   0  0  0  0  0  0  0  0  0  0  0  0
   60.7740   27.2680   50.1910 C   0  0  0  0  0  0  0  0  0  0  0  0
   61.1280   28.6970   50.5210 C   0  0  0  0  0  0  0  0  0  0  0  0
   60.3470   29.7370   49.9870 C   0  0  0  0  0  0  0  0  0  0  0  0
   60.6430   31.0780   50.2770 C   0  0  0  0  0  0  0  0  0  0  0  0
   59.8030   32.1580   49.7250 C   0  0  0  0  0  0  0  0  0  0  0  0
   58.5540   32.1190   49.9060 O   0  0  0  0  0  0  0  0  0  0  0  0
   60.3770   33.2180   48.9330 N   0  0  0  0  0  0  0  0  0  0  0  0
   59.6700   34.4960   48.7970 C   0  0  0  0  0  0  0  0  0  0  0  0
   59.0180   34.5580   47.4120 C   0  0  0  0  0  0  0  0  0  0  0  0
   59.9120   33.9940   46.3890 N   0  0  0  0  0  0  0  0  0  0  0  0
   59.3760   33.6130   45.1150 C   0  0  0  0  0  0  0  0  0  0  0  0
   59.6380   34.3180   44.1060 O   0  0  0  0  0  0  0  0  0  0  0  0
   58.5160   32.4100   44.9840 C   0  0  0  0  0  0  0  0  0  0  0  0
   57.3930   32.4240   44.1130 C   0  0  0  0  0  0  0  0  0  0  0  0
   56.5620   31.2950   43.9900 C   0  0  0  0  0  0  0  0  0  0  0  0
   56.8740   30.1670   44.7450 C   0  0  0  0  0  0  0  0  0  0  0  0
   56.1950   29.0050   44.7760 N   0  0  0  0  0  0  0  0  0  0  0  0
   56.8870   28.2390   45.6570 C   0  0  0  0  0  0  0  0  0  0  0  0
   56.4930   26.8710   46.0070 C   0  0  0  0  0  0  0  0  0  0  0  0
   57.3620   26.0210   46.3290 O   0  0  0  0  0  0  0  0  0  0  0  0
   55.1510   26.5070   45.9820 O   0  0  0  0  0  0  0  0  0  0  0  0
   57.9900   28.9080   46.1760 C   0  0  0  0  0  0  0  0  0  0  0  0
   57.9580   30.1430   45.5770 C   0  0  0  0  0  0  0  0  0  0  0  0
   58.8040   31.2370   45.7210 C   0  0  0  0  0  0  0  0  0  0  0  0
   61.3240   33.7440   46.6910 C   0  0  0  0  0  0  0  0  0  0  0  0
   61.4480   32.9010   47.9730 C   0  0  0  0  0  0  0  0  0  0  0  0
   61.7350   31.3810   51.1020 C   0  0  0  0  0  0  0  0  0  0  0  0
   62.5100   30.3540   51.6480 C   0  0  0  0  0  0  0  0  0  0  0  0
   62.2090   29.0110   51.3700 C   0  0  0  0  0  0  0  0  0  0  0  0
   62.9810   27.9980   51.9370 O   0  0  0  0  0  0  0  0  0  0  0  0
   61.6930   25.2890   51.4110 N   0  0  0  0  0  0  0  0  0  0  0  0
   61.5900   24.7950   52.6610 C   0  0  0  0  0  0  0  0  0  0  0  0
   62.2470   23.6610   53.0230 C   0  0  0  0  0  0  0  0  0  0  0  0
   61.8970   22.3650   52.3240 C   0  0  0  0  0  0  0  0  0  0  0  0
   63.3130   23.6160   54.0870 C   0  0  0  0  0  0  0  0  0  0  0  0
   60.6689   24.7663   55.3026 H   0  0  0  0  0  0  0  0  0  0  0  0
   59.6547   26.3595   55.0509 H   0  0  0  0  0  0  0  0  0  0  0  0
   61.4401   26.9052   49.3943 H   0  0  0  0  0  0  0  0  0  0  0  0
   59.7265   27.2298   49.8575 H   0  0  0  0  0  0  0  0  0  0  0  0
   59.4945   29.4970   49.3346 H   0  0  0  0  0  0  0  0  0  0  0  0
   58.8949   34.5736   49.5737 H   0  0  0  0  0  0  0  0  0  0  0  0
   60.3797   35.3285   48.9122 H   0  0  0  0  0  0  0  0  0  0  0  0
   58.0804   33.9829   47.4285 H   0  0  0  0  0  0  0  0  0  0  0  0
   58.8168   35.6105   47.1634 H   0  0  0  0  0  0  0  0  0  0  0  0
   57.1707   33.3285   43.5278 H   0  0  0  0  0  0  0  0  0  0  0  0
   55.6917   31.3032   43.3174 H   0  0  0  0  0  0  0  0  0  0  0  0
   58.7241   28.5319   46.9038 H   0  0  0  0  0  0  0  0  0  0  0  0
   59.6752   31.1917   46.3910 H   0  0  0  0  0  0  0  0  0  0  0  0
   61.7852   33.2015   45.8525 H   0  0  0  0  0  0  0  0  0  0  0  0
   61.8365   34.7057   46.8408 H   0  0  0  0  0  0  0  0  0  0  0  0
   61.3861   31.8353   47.7074 H   0  0  0  0  0  0  0  0  0  0  0  0
   62.4143   33.1313   48.4454 H   0  0  0  0  0  0  0  0  0  0  0  0
   61.9827   32.4303   51.3204 H   0  0  0  0  0  0  0  0  0  0  0  0
   63.3614   30.5995   52.2998 H   0  0  0  0  0  0  0  0  0  0  0  0
   62.5620   27.1400   52.2800 H   0  0  0  0  0  0  0  0  0  0  0  0
   61.6873   21.5886   53.0745 H   0  0  0  0  0  0  0  0  0  0  0  0
   61.0076   22.5164   51.6947 H   0  0  0  0  0  0  0  0  0  0  0  0
   62.7417   22.0481   51.6947 H   0  0  0  0  0  0  0  0  0  0  0  0
   62.8407   23.6359   55.0803 H   0  0  0  0  0  0  0  0  0  0  0  0
   63.9004   22.6923   53.9787 H   0  0  0  0  0  0  0  0  0  0  0  0
   63.9761   24.4870   53.9787 H   0  0  0  0  0  0  0  0  0  0  0  0
  1  2  2  0
  2  3  1  0
  3  4  1  0
  4  5  1  0
  5  6  1  0
  6  7  2  0
  7  8  1  0
  8  9  1  0
  9 10  2  0
  9 11  1  0
 11 12  1  0
 12 13  1  0
 13 14  1  0
 14 15  1  0
 15 16  2  0
 15 17  1  0
 17 18  2  0
 18 19  1  0
 19 20  2  0
 20 21  1  0
 21 22  1  0
 22 23  1  0
 23 24  2  0
 23 25  1  0
 22 26  2  0
 26 27  1  0
 27 28  2  0
 14 29  1  0
 29 30  1  0
  8 31  2  0
 31 32  1  0
 32 33  2  0
 33 34  1  0
  4 35  2  0
 35 36  1  0
 36 37  2  3
 37 38  1  0
 37 39  1  0
 36  2  1  0
 33  6  1  0
 30 11  1  0
 28 17  1  0
 27 20  1  0
  1 40  1  0
  1 41  1  0
  5 42  1  0
  5 43  1  0
  7 44  1  0
 12 45  1  0
 12 46  1  0
 13 47  1  0
 13 48  1  0
 18 49  1  0
 19 50  1  0
 26 51  1  0
 28 52  1  0
 29 53  1  0
 29 54  1  0
 30 55  1  0
 30 56  1  0
 31 57  1  0
 32 58  1  0
 34 59  1  0
 38 60  1  0
 38 61  1  0
 38 62  1  0
 39 63  1  0
 39 64  1  0
 39 65  1  0
M  CHG  3   3  -1  21  -1  25  -1
M  END
>  <UniqueID>  (39) 
38

>  <SMILES>  (39) 
C=c1[n-]c(Cc2cc(C(=O)N3CCN(C(=O)c4ccc5[n-]c(C(=O)[O-])cc5c4)CC3)ccc2O)nc1=C(C)C

>  <Energy>  (39) 
144.17675309382935

>  <Genealogy>  (39) 
C=c1[n-]c(Cc2cc(C(=O)N3CCN(C(=O)c4ccc5[n-]c(C(=O)[O-])cc5c4)CC3)ccc2O)nc1=C(C)C (protonated)
C=c1[n-]c(Cc2cc(C(=O)N3CCN(C(=O)c4ccc5[n-]c(C(=O)[O-])cc5c4)CC3)ccc2O)nc1=C(C)C (3D coordinates assigned)
C=c1[n-]c(Cc2cc(C(=O)N3CCN(C(=O)c4ccc5[n-]c(C(=O)[O-])cc5c4)CC3)ccc2O)nc1=C(C)C (nonaromatic ring conformer: 144.17675309382935 kcal/mol)

>  <smiles>  (39) 
C=c1[nH]c(Cc2cc(C(=O)N3CCN(C(=O)c4ccc5[nH]c(C(=O)O)cc5c4)CC3)ccc2O)nc1=C(C)C

>  <score_type>  (39) 
oracle

>  <origin>  (39) 
adg

>  <m_score__min__energy>  (39) 
-15.720000000000001

>  <m_primary>  (39) 
energy

$$$$
39:0
     RDKit          3D

 58 60  0  0  0  0  0  0  0  0999 V2000
   59.9750   31.0600   51.1550 C   0  0  0  0  0  0  0  0  0  0  0  0
   58.9980   30.2560   50.3610 C   0  0  0  0  0  0  0  0  0  0  0  0
   57.8480   30.0660   50.8420 O   0  0  0  0  0  0  0  0  0  0  0  0
   59.3400   29.6980   49.0270 C   0  0  0  0  0  0  0  0  0  0  0  0
   60.4140   30.2080   48.2720 C   0  0  0  0  0  0  0  0  0  0  0  0
   60.7340   29.6570   47.0300 C   0  0  0  0  0  0  0  0  0  0  0  0
   59.9820   28.6030   46.5170 C   0  0  0  0  0  0  0  0  0  0  0  0
   58.8880   28.1010   47.2350 C   0  0  0  0  0  0  0  0  0  0  0  0
   58.1210   26.9920   46.7450 N   0  0  0  0  0  0  0  0  0  0  0  0
   57.2430   26.9970   45.6090 C   0  0  0  0  0  0  0  0  0  0  0  0
   56.0080   26.8370   45.8010 O   0  0  0  0  0  0  0  0  0  0  0  0
   57.7570   27.2160   44.2070 C   0  0  0  0  0  0  0  0  0  0  0  0
   57.3970   28.6020   43.6540 C   0  0  0  0  0  0  0  0  0  0  0  0
   56.4660   29.3850   44.5390 C   0  0  0  0  0  0  0  0  0  0  0  0
   55.2170   29.3140   44.3890 O   0  0  0  0  0  0  0  0  0  0  0  0
   57.0200   30.1320   45.6290 N   0  0  0  0  0  0  0  0  0  0  0  0
   57.5860   31.4480   45.5530 C   0  0  0  0  0  0  0  0  0  0  0  0
   57.5370   32.2060   44.3740 C   0  0  0  0  0  0  0  0  0  0  0  0
   58.1630   33.4530   44.3150 C   0  0  0  0  0  0  0  0  0  0  0  0
   58.8530   33.9620   45.4290 C   0  0  0  0  0  0  0  0  0  0  0  0
   59.5300   35.3030   45.3150 C   0  0  0  0  0  0  0  0  0  0  0  0
   58.8790   33.2120   46.6300 C   0  0  0  0  0  0  0  0  0  0  0  0
   59.7060   33.7980   48.0840 S   0  0  0  0  0  0  0  0  0  0  0  0
   59.0020   33.2880   49.3130 O   0  0  0  0  0  0  0  0  0  0  0  0
   59.6650   35.3010   48.1090 O   0  0  0  0  0  0  0  0  0  0  0  0
   61.3640   33.2500   48.0810 N   0  0  0  0  0  0  0  0  0  0  0  0
   62.1080   33.8940   49.1730 C   0  0  0  0  0  0  0  0  0  0  0  0
   63.5830   33.4350   49.1560 C   0  0  0  0  0  0  0  0  0  0  0  0
   63.8890   32.6510   48.0160 O   0  0  0  0  0  0  0  0  0  0  0  0
   63.5180   33.3480   46.8440 C   0  0  0  0  0  0  0  0  0  0  0  0
   61.9900   33.5580   46.7840 C   0  0  0  0  0  0  0  0  0  0  0  0
   58.2640   31.9520   46.6660 C   0  0  0  0  0  0  0  0  0  0  0  0
   58.5880   28.6330   48.4960 C   0  0  0  0  0  0  0  0  0  0  0  0
   59.7892   30.9071   52.2283 H   0  0  0  0  0  0  0  0  0  0  0  0
   60.9984   30.7390   50.9107 H   0  0  0  0  0  0  0  0  0  0  0  0
   59.8569   32.1260   50.9107 H   0  0  0  0  0  0  0  0  0  0  0  0
   61.0059   31.0480   48.6645 H   0  0  0  0  0  0  0  0  0  0  0  0
   61.5824   30.0564   46.4549 H   0  0  0  0  0  0  0  0  0  0  0  0
   60.2477   28.1628   45.5446 H   0  0  0  0  0  0  0  0  0  0  0  0
   58.8522   27.1133   44.2136 H   0  0  0  0  0  0  0  0  0  0  0  0
   57.2821   26.4656   43.5579 H   0  0  0  0  0  0  0  0  0  0  0  0
   58.3257   29.1785   43.5312 H   0  0  0  0  0  0  0  0  0  0  0  0
   56.8729   28.4406   42.7004 H   0  0  0  0  0  0  0  0  0  0  0  0
   57.0042   31.8174   43.4936 H   0  0  0  0  0  0  0  0  0  0  0  0
   58.1157   34.0427   43.3877 H   0  0  0  0  0  0  0  0  0  0  0  0
   59.7301   35.6994   46.3214 H   0  0  0  0  0  0  0  0  0  0  0  0
   60.4789   35.1896   44.7702 H   0  0  0  0  0  0  0  0  0  0  0  0
   58.8753   35.9991   44.7702 H   0  0  0  0  0  0  0  0  0  0  0  0
   62.0657   34.9860   49.0471 H   0  0  0  0  0  0  0  0  0  0  0  0
   61.6542   33.6091   50.1337 H   0  0  0  0  0  0  0  0  0  0  0  0
   64.2303   34.3244   49.1578 H   0  0  0  0  0  0  0  0  0  0  0  0
   63.7523   32.8132   50.0474 H   0  0  0  0  0  0  0  0  0  0  0  0
   64.0162   34.3287   46.8361 H   0  0  0  0  0  0  0  0  0  0  0  0
   63.8239   32.7525   45.9712 H   0  0  0  0  0  0  0  0  0  0  0  0
   61.7808   34.6060   46.5234 H   0  0  0  0  0  0  0  0  0  0  0  0
   61.5727   32.8813   46.0238 H   0  0  0  0  0  0  0  0  0  0  0  0
   58.3163   31.3506   47.5856 H   0  0  0  0  0  0  0  0  0  0  0  0
   57.7545   28.2133   49.0783 H   0  0  0  0  0  0  0  0  0  0  0  0
  1  2  1  0
  2  3  2  0
  2  4  1  0
  4  5  2  0
  5  6  1  0
  6  7  2  0
  7  8  1  0
  8  9  1  0
  9 10  1  0
 10 11  2  0
 10 12  1  0
 12 13  1  0
 13 14  1  0
 14 15  2  0
 14 16  1  0
 16 17  1  0
 17 18  2  0
 18 19  1  0
 19 20  2  0
 20 21  1  0
 20 22  1  0
 22 23  1  0
 23 24  2  0
 23 25  2  0
 23 26  1  0
 26 27  1  0
 27 28  1  0
 28 29  1  0
 29 30  1  0
 30 31  1  0
 22 32  2  0
  8 33  2  0
 33  4  1  0
 32 17  1  0
 31 26  1  0
  1 34  1  0
  1 35  1  0
  1 36  1  0
  5 37  1  0
  6 38  1  0
  7 39  1  0
 12 40  1  0
 12 41  1  0
 13 42  1  0
 13 43  1  0
 18 44  1  0
 19 45  1  0
 21 46  1  0
 21 47  1  0
 21 48  1  0
 27 49  1  0
 27 50  1  0
 28 51  1  0
 28 52  1  0
 30 53  1  0
 30 54  1  0
 31 55  1  0
 31 56  1  0
 32 57  1  0
 33 58  1  0
M  CHG  2   9  -1  16  -1
M  END
>  <UniqueID>  (40) 
39

>  <SMILES>  (40) 
CC(=O)c1cccc([N-]C(=O)CCC(=O)[N-]c2ccc(C)c(S(=O)(=O)N3CCOCC3)c2)c1

>  <Energy>  (40) 
74.20342180645156

>  <Genealogy>  (40) 
CC(=O)c1cccc([N-]C(=O)CCC(=O)[N-]c2ccc(C)c(S(=O)(=O)N3CCOCC3)c2)c1 (protonated)
CC(=O)c1cccc([N-]C(=O)CCC(=O)[N-]c2ccc(C)c(S(=O)(=O)N3CCOCC3)c2)c1 (3D coordinates assigned)
CC(=O)c1cccc([N-]C(=O)CCC(=O)[N-]c2ccc(C)c(S(=O)(=O)N3CCOCC3)c2)c1 (nonaromatic ring conformer: 74.20342180645156 kcal/mol)

>  <smiles>  (40) 
CC(=O)c1cccc(NC(=O)CCC(=O)Nc2ccc(C)c(S(=O)(=O)N3CCOCC3)c2)c1

>  <score_type>  (40) 
oracle

>  <origin>  (40) 
adg

>  <m_score__min__energy>  (40) 
-13.449999999999999

>  <m_primary>  (40) 
energy

$$$$
40:0
     RDKit          3D

 66 69  0  0  0  0  0  0  0  0999 V2000
   57.5440   25.5860   44.6920 C   0  0  0  0  0  0  0  0  0  0  0  0
   58.2490   25.7200   46.0380 C   0  0  0  0  0  0  0  0  0  0  0  0
   59.1140   26.9520   46.0690 C   0  0  0  0  0  0  0  0  0  0  0  0
   59.5610   27.5350   44.8730 C   0  0  0  0  0  0  0  0  0  0  0  0
   60.3770   28.6670   44.9050 C   0  0  0  0  0  0  0  0  0  0  0  0
   60.7500   29.2310   46.1270 C   0  0  0  0  0  0  0  0  0  0  0  0
   60.2970   28.6780   47.3380 C   0  0  0  0  0  0  0  0  0  0  0  0
   60.7890   29.2560   48.6580 C   0  0  0  0  0  0  0  0  0  0  0  0
   61.2010   30.7500   48.5540 C   0  0  0  0  0  0  0  0  0  0  0  0
   60.6970   31.5810   49.7420 C   0  0  0  0  0  0  0  0  0  0  0  0
   59.2300   31.4680   49.9260 N   0  0  0  0  0  0  0  0  0  0  0  0
   58.4850   32.4380   49.0930 C   0  0  0  0  0  0  0  0  0  0  0  0
   59.4650   33.3680   48.3630 C   0  0  0  0  0  0  0  0  0  0  0  0
   59.0340   33.5810   46.9640 N   0  0  0  0  0  0  0  0  0  0  0  0
   57.5630   33.5110   46.8660 C   0  0  0  0  0  0  0  0  0  0  0  0
   57.0470   33.9130   45.4650 C   0  0  0  0  0  0  0  0  0  0  0  0
   58.1240   34.1120   44.4740 N   0  0  0  0  0  0  0  0  0  0  0  0
   58.4980   32.9170   43.6820 C   0  0  0  0  0  0  0  0  0  0  0  0
   57.7860   31.6510   44.1060 C   0  0  0  0  0  0  0  0  0  0  0  0
   56.8170   31.0670   43.2710 C   0  0  0  0  0  0  0  0  0  0  0  0
   56.1650   29.8940   43.6610 C   0  0  0  0  0  0  0  0  0  0  0  0
   56.4920   29.2790   44.8740 C   0  0  0  0  0  0  0  0  0  0  0  0
   55.8530   28.1470   45.2580 F   0  0  0  0  0  0  0  0  0  0  0  0
   57.4740   29.8360   45.6970 C   0  0  0  0  0  0  0  0  0  0  0  0
   58.1100   31.0230   45.3230 C   0  0  0  0  0  0  0  0  0  0  0  0
   59.2450   34.9650   44.9270 C   0  0  0  0  0  0  0  0  0  0  0  0
   59.5010   34.8780   46.4410 C   0  0  0  0  0  0  0  0  0  0  0  0
   58.6870   30.0860   49.8390 C   0  0  0  0  0  0  0  0  0  0  0  0
   59.7700   28.9960   49.7860 C   0  0  0  0  0  0  0  0  0  0  0  0
   59.4670   27.5380   47.2940 C   0  0  0  0  0  0  0  0  0  0  0  0
   56.4755   25.3829   44.8564 H   0  0  0  0  0  0  0  0  0  0  0  0
   57.6563   26.5216   44.1245 H   0  0  0  0  0  0  0  0  0  0  0  0
   57.9918   24.7569   44.1245 H   0  0  0  0  0  0  0  0  0  0  0  0
   57.4941   25.7894   46.8350 H   0  0  0  0  0  0  0  0  0  0  0  0
   58.8875   24.8374   46.1907 H   0  0  0  0  0  0  0  0  0  0  0  0
   59.2672   27.0983   43.9071 H   0  0  0  0  0  0  0  0  0  0  0  0
   60.7276   29.1165   43.9643 H   0  0  0  0  0  0  0  0  0  0  0  0
   61.4038   30.1155   46.1423 H   0  0  0  0  0  0  0  0  0  0  0  0
   61.7151   28.7229   48.9189 H   0  0  0  0  0  0  0  0  0  0  0  0
   62.2987   30.8120   48.5202 H   0  0  0  0  0  0  0  0  0  0  0  0
   60.7453   31.1604   47.6408 H   0  0  0  0  0  0  0  0  0  0  0  0
   61.1963   31.2293   50.6569 H   0  0  0  0  0  0  0  0  0  0  0  0
   60.9301   32.6364   49.5373 H   0  0  0  0  0  0  0  0  0  0  0  0
   57.8804   31.8933   48.3529 H   0  0  0  0  0  0  0  0  0  0  0  0
   57.8306   33.0406   49.7400 H   0  0  0  0  0  0  0  0  0  0  0  0
   59.4994   34.3370   48.8825 H   0  0  0  0  0  0  0  0  0  0  0  0
   60.4618   32.9027   48.3608 H   0  0  0  0  0  0  0  0  0  0  0  0
   57.2433   32.4801   47.0781 H   0  0  0  0  0  0  0  0  0  0  0  0
   57.1437   34.2204   47.5947 H   0  0  0  0  0  0  0  0  0  0  0  0
   56.3797   33.1189   45.0989 H   0  0  0  0  0  0  0  0  0  0  0  0
   56.5281   34.8765   45.5761 H   0  0  0  0  0  0  0  0  0  0  0  0
   58.2576   33.1123   42.6265 H   0  0  0  0  0  0  0  0  0  0  0  0
   59.5724   32.7488   43.8472 H   0  0  0  0  0  0  0  0  0  0  0  0
   56.5711   31.5355   42.3066 H   0  0  0  0  0  0  0  0  0  0  0  0
   55.3931   29.4535   43.0128 H   0  0  0  0  0  0  0  0  0  0  0  0
   57.7468   29.3399   46.6401 H   0  0  0  0  0  0  0  0  0  0  0  0
   58.8681   31.4689   45.9837 H   0  0  0  0  0  0  0  0  0  0  0  0
   60.1580   34.6512   44.3997 H   0  0  0  0  0  0  0  0  0  0  0  0
   58.9740   36.0069   44.7013 H   0  0  0  0  0  0  0  0  0  0  0  0
   60.5792   34.9801   46.6334 H   0  0  0  0  0  0  0  0  0  0  0  0
   58.9508   35.6865   46.9445 H   0  0  0  0  0  0  0  0  0  0  0  0
   58.0558   29.9052   50.7216 H   0  0  0  0  0  0  0  0  0  0  0  0
   58.1221   30.0224   48.8973 H   0  0  0  0  0  0  0  0  0  0  0  0
   60.3019   28.9754   50.7486 H   0  0  0  0  0  0  0  0  0  0  0  0
   59.2769   28.0332   49.5863 H   0  0  0  0  0  0  0  0  0  0  0  0
   59.0918   27.1030   48.2321 H   0  0  0  0  0  0  0  0  0  0  0  0
  1  2  1  0
  2  3  1  0
  3  4  2  0
  4  5  1  0
  5  6  2  0
  6  7  1  0
  7  8  1  0
  8  9  1  0
  9 10  1  0
 10 11  1  0
 11 12  1  0
 12 13  1  0
 13 14  1  0
 14 15  1  0
 15 16  1  0
 16 17  1  0
 17 18  1  0
 18 19  1  0
 19 20  2  0
 20 21  1  0
 21 22  2  0
 22 23  1  0
 22 24  1  0
 24 25  2  0
 17 26  1  0
 26 27  1  0
 11 28  1  0
 28 29  1  0
  7 30  2  0
 30  3  1  0
 29  8  1  0
 27 14  1  0
 25 19  1  0
  1 31  1  0
  1 32  1  0
  1 33  1  0
  2 34  1  0
  2 35  1  0
  4 36  1  0
  5 37  1  0
  6 38  1  0
  8 39  1  0
  9 40  1  0
  9 41  1  0
 10 42  1  0
 10 43  1  0
 12 44  1  0
 12 45  1  0
 13 46  1  0
 13 47  1  0
 15 48  1  0
 15 49  1  0
 16 50  1  0
 16 51  1  0
 18 52  1  0
 18 53  1  0
 20 54  1  0
 21 55  1  0
 24 56  1  0
 25 57  1  0
 26 58  1  0
 26 59  1  0
 27 60  1  0
 27 61  1  0
 28 62  1  0
 28 63  1  0
 29 64  1  0
 29 65  1  0
 30 66  1  0
M  END
>  <UniqueID>  (41) 
40

>  <SMILES>  (41) 
CCc1cccc(C2CCN(CCN3CCN(Cc4ccc(F)cc4)CC3)CC2)c1

>  <Energy>  (41) 
88.88538446150415

>  <Genealogy>  (41) 
CCc1cccc(C2CCN(CCN3CCN(Cc4ccc(F)cc4)CC3)CC2)c1 (3D coordinates assigned)
CCc1cccc(C2CCN(CCN3CCN(Cc4ccc(F)cc4)CC3)CC2)c1 (nonaromatic ring conformer: 88.88538446150415 kcal/mol)

>  <smiles>  (41) 
CCc1cccc(C2CCN(CCN3CCN(Cc4ccc(F)cc4)CC3)CC2)c1

>  <score_type>  (41) 
oracle

>  <origin>  (41) 
adg

>  <m_score__min__energy>  (41) 
-8.9000000000000004

>  <m_primary>  (41) 
energy

$$$$
41:0
     RDKit          3D

 58 61  0  0  0  0  0  0  0  0999 V2000
   55.7450   26.5640   46.0340 O   0  0  0  0  0  0  0  0  0  0  0  0
   56.8840   26.8780   45.5920 C   0  0  0  0  0  0  0  0  0  0  0  0
   57.9130   25.8290   45.3690 C   0  0  0  0  0  0  0  0  0  0  0  0
   57.8020   24.5410   45.7310 C   0  0  0  0  0  0  0  0  0  0  0  0
   57.6290   23.4240   44.7870 C   0  0  0  0  0  0  0  0  0  0  0  0
   56.4440   23.3380   44.0410 C   0  0  0  0  0  0  0  0  0  0  0  0
   56.2620   22.2980   43.1250 C   0  0  0  0  0  0  0  0  0  0  0  0
   57.2650   21.3430   42.9430 C   0  0  0  0  0  0  0  0  0  0  0  0
   58.4480   21.4210   43.6790 C   0  0  0  0  0  0  0  0  0  0  0  0
   58.6440   22.4600   44.5980 C   0  0  0  0  0  0  0  0  0  0  0  0
   59.8450   22.5090   45.3070 O   0  0  0  0  0  0  0  0  0  0  0  0
   57.1770   28.3120   45.3370 C   0  0  0  0  0  0  0  0  0  0  0  0
   58.0410   29.0130   46.1960 C   0  0  0  0  0  0  0  0  0  0  0  0
   58.3270   30.3640   45.9740 C   0  0  0  0  0  0  0  0  0  0  0  0
   57.7450   31.0460   44.8950 C   0  0  0  0  0  0  0  0  0  0  0  0
   58.0580   32.4700   44.6440 C   0  0  0  0  0  0  0  0  0  0  0  0
   57.7770   32.9780   43.5240 O   0  0  0  0  0  0  0  0  0  0  0  0
   58.6810   33.2850   45.6520 N   0  0  0  0  0  0  0  0  0  0  0  0
   58.0380   33.3930   46.9690 C   0  0  0  0  0  0  0  0  0  0  0  0
   58.8470   34.2900   47.9050 C   0  0  0  0  0  0  0  0  0  0  0  0
   60.2810   34.0200   47.6960 N   0  0  0  0  0  0  0  0  0  0  0  0
   61.0990   34.6070   48.7770 C   0  0  0  0  0  0  0  0  0  0  0  0
   62.3250   33.7680   49.0210 C   0  0  0  0  0  0  0  0  0  0  0  0
   62.6670   32.7250   48.1430 C   0  0  0  0  0  0  0  0  0  0  0  0
   63.8140   31.9570   48.3750 C   0  0  0  0  0  0  0  0  0  0  0  0
   64.6250   32.2250   49.4830 C   0  0  0  0  0  0  0  0  0  0  0  0
   64.2950   33.2630   50.3580 C   0  0  0  0  0  0  0  0  0  0  0  0
   63.1510   34.0350   50.1280 C   0  0  0  0  0  0  0  0  0  0  0  0
   60.7170   34.5380   46.3800 C   0  0  0  0  0  0  0  0  0  0  0  0
   59.6990   34.2650   45.2490 C   0  0  0  0  0  0  0  0  0  0  0  0
   56.8810   30.3500   44.0340 C   0  0  0  0  0  0  0  0  0  0  0  0
   56.5910   29.0010   44.2580 C   0  0  0  0  0  0  0  0  0  0  0  0
   58.8426   26.1332   44.8656 H   0  0  0  0  0  0  0  0  0  0  0  0
   57.8430   24.3042   46.8044 H   0  0  0  0  0  0  0  0  0  0  0  0
   55.6549   24.0921   44.1775 H   0  0  0  0  0  0  0  0  0  0  0  0
   55.3284   22.2316   42.5471 H   0  0  0  0  0  0  0  0  0  0  0  0
   57.1221   20.5280   42.2182 H   0  0  0  0  0  0  0  0  0  0  0  0
   59.2314   20.6620   43.5367 H   0  0  0  0  0  0  0  0  0  0  0  0
   60.7380   22.2760   44.8880 H   0  0  0  0  0  0  0  0  0  0  0  0
   58.4970   28.4936   47.0518 H   0  0  0  0  0  0  0  0  0  0  0  0
   59.0130   30.8954   46.6501 H   0  0  0  0  0  0  0  0  0  0  0  0
   57.0319   33.8195   46.8435 H   0  0  0  0  0  0  0  0  0  0  0  0
   57.9797   32.3881   47.4125 H   0  0  0  0  0  0  0  0  0  0  0  0
   58.6329   35.3458   47.6826 H   0  0  0  0  0  0  0  0  0  0  0  0
   58.5751   34.0827   48.9505 H   0  0  0  0  0  0  0  0  0  0  0  0
   61.4064   35.6229   48.4882 H   0  0  0  0  0  0  0  0  0  0  0  0
   60.5005   34.6415   49.6993 H   0  0  0  0  0  0  0  0  0  0  0  0
   62.0314   32.5117   47.2710 H   0  0  0  0  0  0  0  0  0  0  0  0
   64.0780   31.1418   47.6853 H   0  0  0  0  0  0  0  0  0  0  0  0
   65.5238   31.6176   49.6655 H   0  0  0  0  0  0  0  0  0  0  0  0
   64.9346   33.4733   51.2278 H   0  0  0  0  0  0  0  0  0  0  0  0
   62.8963   34.8546   50.8160 H   0  0  0  0  0  0  0  0  0  0  0  0
   60.8633   35.6250   46.4635 H   0  0  0  0  0  0  0  0  0  0  0  0
   61.6474   34.0143   46.1151 H   0  0  0  0  0  0  0  0  0  0  0  0
   59.1992   35.2087   44.9851 H   0  0  0  0  0  0  0  0  0  0  0  0
   60.2475   33.8525   44.3893 H   0  0  0  0  0  0  0  0  0  0  0  0
   56.4290   30.8704   43.1767 H   0  0  0  0  0  0  0  0  0  0  0  0
   55.8989   28.4731   43.5854 H   0  0  0  0  0  0  0  0  0  0  0  0
  1  2  2  0
  2  3  1  0
  3  4  2  3
  4  5  1  0
  5  6  2  0
  6  7  1  0
  7  8  2  0
  8  9  1  0
  9 10  2  0
 10 11  1  0
  2 12  1  0
 12 13  2  0
 13 14  1  0
 14 15  2  0
 15 16  1  0
 16 17  2  0
 16 18  1  0
 18 19  1  0
 19 20  1  0
 20 21  1  0
 21 22  1  0
 22 23  1  0
 23 24  2  0
 24 25  1  0
 25 26  2  0
 26 27  1  0
 27 28  2  0
 21 29  1  0
 29 30  1  0
 15 31  1  0
 31 32  2  0
 10  5  1  0
 32 12  1  0
 30 18  1  0
 28 23  1  0
  3 33  1  0
  4 34  1  0
  6 35  1  0
  7 36  1  0
  8 37  1  0
  9 38  1  0
 11 39  1  0
 13 40  1  0
 14 41  1  0
 19 42  1  0
 19 43  1  0
 20 44  1  0
 20 45  1  0
 22 46  1  0
 22 47  1  0
 24 48  1  0
 25 49  1  0
 26 50  1  0
 27 51  1  0
 28 52  1  0
 29 53  1  0
 29 54  1  0
 30 55  1  0
 30 56  1  0
 31 57  1  0
 32 58  1  0
M  END
>  <UniqueID>  (42) 
41

>  <SMILES>  (42) 
O=C(C=Cc1ccccc1O)c1ccc(C(=O)N2CCN(Cc3ccccc3)CC2)cc1

>  <Energy>  (42) 
84.7467365536787

>  <Genealogy>  (42) 
O=C(C=Cc1ccccc1O)c1ccc(C(=O)N2CCN(Cc3ccccc3)CC2)cc1 (3D coordinates assigned)
O=C(C=Cc1ccccc1O)c1ccc(C(=O)N2CCN(Cc3ccccc3)CC2)cc1 (nonaromatic ring conformer: 84.7467365536787 kcal/mol)

>  <smiles>  (42) 
O=C(C=Cc1ccccc1O)c1ccc(C(=O)N2CCN(Cc3ccccc3)CC2)cc1

>  <score_type>  (42) 
oracle

>  <origin>  (42) 
adg

>  <m_score__min__energy>  (42) 
-10.949999999999999

>  <m_primary>  (42) 
energy

$$$$
42:0
     RDKit          3D

 29 30  0  0  1  0  0  0  0  0999 V2000
   57.0060   24.9030   45.9450 C   0  0  0  0  0  0  0  0  0  0  0  0
   56.5770   26.3110   46.0430 C   0  0  0  0  0  0  0  0  0  0  0  0
   55.3440   26.5720   46.0280 O   0  0  0  0  0  0  0  0  0  0  0  0
   57.4780   27.4060   46.1540 N   0  0  0  0  0  0  0  0  0  0  0  0
   57.2040   28.4950   45.5280 C   0  0  0  0  0  0  0  0  0  0  0  0
   56.0900   29.0570   45.0960 N   0  0  0  0  0  0  0  0  0  0  0  0
   56.2500   30.2020   44.4920 N   0  0  0  0  0  0  0  0  0  0  0  0
   57.1820   30.8160   44.2630 C   0  0  0  0  0  0  0  0  0  0  0  0
   57.8680   32.3280   43.5240 S   0  0  0  0  0  0  0  0  0  0  0  0
   57.4490   33.7270   44.5720 C   0  0  0  0  0  0  0  0  0  0  0  0
   58.2470   33.7970   45.8220 C   0  0  0  0  0  0  0  0  0  0  0  0
   59.2590   34.7560   45.8650 C   0  0  0  0  0  0  0  0  0  0  0  0
   60.0490   34.8890   46.9920 C   0  0  0  0  0  0  0  0  0  0  0  0
   59.8330   34.0710   48.0730 C   0  0  0  0  0  0  0  0  0  0  0  0
   60.6610   34.2540   49.1780 O   0  0  0  0  0  0  0  0  0  0  0  0
   58.8410   33.1370   48.0180 C   0  0  0  0  0  0  0  0  0  0  0  0
   58.0340   32.9770   46.9080 C   0  0  0  0  0  0  0  0  0  0  0  0
   58.5270   29.6990   45.0230 S   0  0  0  0  0  0  0  0  0  0  0  0
   57.1327   24.4871   46.9554 H   0  0  0  0  0  0  0  0  0  0  0  0
   56.2434   24.3242   45.4032 H   0  0  0  0  0  0  0  0  0  0  0  0
   57.9617   24.8478   45.4032 H   0  0  0  0  0  0  0  0  0  0  0  0
   55.1400   28.5900   45.2430 H   0  0  0  0  0  0  0  0  0  0  0  0
   57.6173   34.6517   44.0004 H   0  0  0  0  0  0  0  0  0  0  0  0
   56.3972   33.6024   44.8689 H   0  0  0  0  0  0  0  0  0  0  0  0
   59.4296   35.4103   44.9973 H   0  0  0  0  0  0  0  0  0  0  0  0
   60.8463   35.6462   47.0222 H   0  0  0  0  0  0  0  0  0  0  0  0
   60.4130   33.9780   50.1110 H   0  0  0  0  0  0  0  0  0  0  0  0
   58.6771   32.4867   48.8899 H   0  0  0  0  0  0  0  0  0  0  0  0
   57.2416   32.2142   46.8920 H   0  0  0  0  0  0  0  0  0  0  0  0
  1  2  1  0
  2  3  2  0
  2  4  1  0
  4  5  2  0
  5  6  1  0
  6  7  1  0
  7  8  2  0
  8  9  1  0
  9 10  1  0
 10 11  1  0
 11 12  2  0
 12 13  1  0
 13 14  2  0
 14 15  1  0
 14 16  1  0
 16 17  2  0
  8 18  1  0
 18  5  1  0
 17 11  1  0
  1 19  1  0
  1 20  1  0
  1 21  1  0
  6 22  1  0
 10 23  1  0
 10 24  1  0
 12 25  1  0
 13 26  1  0
 15 27  1  0
 16 28  1  0
 17 29  1  0
M  END
>  <smiles>  (43) 
CC(=O)N=c1[nH]nc(SCc2ccc(O)cc2)s1

>  <score_type>  (43) 
oracle

>  <origin>  (43) 
adg

>  <m_score__min__energy>  (43) 
-7.6200000000000001

>  <m_primary>  (43) 
energy

$$$$
43:0
     RDKit          3D

 61 64  0  0  0  0  0  0  0  0999 V2000
   65.9710   33.0020   48.2840 H   0  0  0  0  0  0  0  0  0  0  0  0
   65.2820   33.1110   49.0200 O   0  0  0  0  0  0  0  0  0  0  0  0
   63.9460   33.3820   48.7300 C   0  0  0  0  0  0  0  0  0  0  0  0
   63.4630   33.1670   47.4350 C   0  0  0  0  0  0  0  0  0  0  0  0
   64.1377   32.7858   46.6544 H   0  0  0  0  0  0  0  0  0  0  0  0
   62.1260   33.4350   47.1300 C   0  0  0  0  0  0  0  0  0  0  0  0
   61.7504   33.2584   46.1113 H   0  0  0  0  0  0  0  0  0  0  0  0
   61.2600   33.9290   48.1190 C   0  0  0  0  0  0  0  0  0  0  0  0
   59.8090   34.1780   47.8030 C   0  0  0  0  0  0  0  0  0  0  0  0
   59.2635   34.3750   48.7376 H   0  0  0  0  0  0  0  0  0  0  0  0
   59.3958   33.2894   47.3033 H   0  0  0  0  0  0  0  0  0  0  0  0
   59.6630   35.3870   46.8680 C   0  0  0  0  0  0  0  0  0  0  0  0
   60.6289   35.9108   46.8165 H   0  0  0  0  0  0  0  0  0  0  0  0
   58.8723   36.0318   47.2792 H   0  0  0  0  0  0  0  0  0  0  0  0
   59.2510   34.9950   45.4700 C   0  0  0  0  0  0  0  0  0  0  0  0
   59.5910   35.7240   44.4970 O   0  0  0  0  0  0  0  0  0  0  0  0
   58.4590   33.8130   45.2230 N   0  0  0  0  0  0  0  0  0  0  0  0
   58.5000   33.2010   43.8860 C   0  0  0  0  0  0  0  0  0  0  0  0
   59.5347   32.8989   43.6665 H   0  0  0  0  0  0  0  0  0  0  0  0
   58.1381   33.9464   43.1626 H   0  0  0  0  0  0  0  0  0  0  0  0
   57.5920   31.9660   43.7840 C   0  0  0  0  0  0  0  0  0  0  0  0
   57.8670   31.3890   42.8888 H   0  0  0  0  0  0  0  0  0  0  0  0
   56.5465   32.3013   43.7168 H   0  0  0  0  0  0  0  0  0  0  0  0
   57.7380   31.1110   44.9730 N   0  0  0  0  0  0  0  0  0  0  0  0
   57.6350   29.6760   44.8510 C   0  0  0  0  0  0  0  0  0  0  0  0
   58.5950   28.9480   44.1270 C   0  0  0  0  0  0  0  0  0  0  0  0
   59.4323   29.4763   43.6476 H   0  0  0  0  0  0  0  0  0  0  0  0
   58.4950   27.5600   44.0110 C   0  0  0  0  0  0  0  0  0  0  0  0
   59.2502   27.0051   43.4351 H   0  0  0  0  0  0  0  0  0  0  0  0
   57.4390   26.8670   44.6230 C   0  0  0  0  0  0  0  0  0  0  0  0
   57.3770   25.3960   44.4900 C   0  0  0  0  0  0  0  0  0  0  0  0
   57.0670   24.9030   43.3720 O   0  0  0  0  0  0  0  0  0  0  0  0
   57.6730   24.5180   45.6470 C   0  0  0  0  0  0  0  0  0  0  0  0
   57.2506   23.5025   45.6292 H   0  0  0  0  0  0  0  0  0  0  0  0
   58.4130   24.8570   46.7150 C   0  0  0  0  0  0  0  0  0  0  0  0
   58.6353   24.0656   47.4460 H   0  0  0  0  0  0  0  0  0  0  0  0
   58.9530   26.2030   46.9900 C   0  0  0  0  0  0  0  0  0  0  0  0
   58.2740   27.0990   47.8360 C   0  0  0  0  0  0  0  0  0  0  0  0
   57.3036   26.8150   48.2693 H   0  0  0  0  0  0  0  0  0  0  0  0
   58.8280   28.3490   48.1280 C   0  0  0  0  0  0  0  0  0  0  0  0
   58.2844   29.0536   48.7746 H   0  0  0  0  0  0  0  0  0  0  0  0
   60.0720   28.7040   47.5990 C   0  0  0  0  0  0  0  0  0  0  0  0
   60.5047   29.6897   47.8251 H   0  0  0  0  0  0  0  0  0  0  0  0
   60.7660   27.8070   46.7830 C   0  0  0  0  0  0  0  0  0  0  0  0
   61.7478   28.0849   46.3720 H   0  0  0  0  0  0  0  0  0  0  0  0
   60.2140   26.5560   46.4880 C   0  0  0  0  0  0  0  0  0  0  0  0
   60.7715   25.8460   45.8595 H   0  0  0  0  0  0  0  0  0  0  0  0
   56.4560   27.5940   45.3220 C   0  0  0  0  0  0  0  0  0  0  0  0
   55.3550   26.9530   45.8800 O   0  0  0  0  0  0  0  0  0  0  0  0
   56.5630   28.9840   45.4400 C   0  0  0  0  0  0  0  0  0  0  0  0
   55.7987   29.5420   46.0007 H   0  0  0  0  0  0  0  0  0  0  0  0
   57.8100   31.7190   46.3120 C   0  0  0  0  0  0  0  0  0  0  0  0
   58.8035   31.5227   46.7413 H   0  0  0  0  0  0  0  0  0  0  0  0
   57.0206   31.2756   46.9367 H   0  0  0  0  0  0  0  0  0  0  0  0
   57.5840   33.2300   46.2510 C   0  0  0  0  0  0  0  0  0  0  0  0
   57.8186   33.6760   47.2288 H   0  0  0  0  0  0  0  0  0  0  0  0
   56.5331   33.4347   45.9986 H   0  0  0  0  0  0  0  0  0  0  0  0
   61.7450   34.1310   49.4210 C   0  0  0  0  0  0  0  0  0  0  0  0
   61.0693   34.5015   50.2059 H   0  0  0  0  0  0  0  0  0  0  0  0
   63.0840   33.8630   49.7240 C   0  0  0  0  0  0  0  0  0  0  0  0
   63.4606   34.0301   50.7439 H   0  0  0  0  0  0  0  0  0  0  0  0
  1  2  1  0
  2  3  1  0
  3  4  2  0
  4  5  1  0
  4  6  1  0
  6  7  1  0
  6  8  2  0
  8  9  1  0
  9 10  1  0
  9 11  1  0
  9 12  1  0
 12 13  1  0
 12 14  1  0
 12 15  1  0
 15 16  2  0
 15 17  1  0
 17 18  1  0
 18 19  1  0
 18 20  1  0
 18 21  1  0
 21 22  1  0
 21 23  1  0
 21 24  1  0
 24 25  1  0
 25 26  2  0
 26 27  1  0
 26 28  1  0
 28 29  1  0
 28 30  2  0
 30 31  1  0
 31 32  2  0
 31 33  1  0
 33 34  1  0
 33 35  2  0
 35 36  1  0
 35 37  1  0
 37 38  2  0
 38 39  1  0
 38 40  1  0
 40 41  1  0
 40 42  2  0
 42 43  1  0
 42 44  1  0
 44 45  1  0
 44 46  2  0
 46 47  1  0
 30 48  1  0
 48 49  1  0
 48 50  2  0
 50 51  1  0
 24 52  1  0
 52 53  1  0
 52 54  1  0
 52 55  1  0
 55 56  1  0
 55 57  1  0
  8 58  1  0
 58 59  1  0
 58 60  2  0
 60 61  1  0
 60  3  1  0
 55 17  1  0
 50 25  1  0
 46 37  1  0
M  CHG  1  49  -1
M  END
>  <UniqueID>  (44) 
42

>  <SMILES>  (44) 
O=C(/C=C\c1ccccc1)c1ccc(N2CCN(C(=O)CCc3ccc(O)cc3)CC2)cc1[O-]

>  <Energy>  (44) 
81.18242336509799

>  <Genealogy>  (44) 
O=C(C=Cc1ccccc1)c1ccc(N2CCN(C(=O)CCc3ccc(O)cc3)CC2)cc1[O-] (protonated)
O=C(/C=C\c1ccccc1)c1ccc(N2CCN(C(=O)CCc3ccc(O)cc3)CC2)cc1[O-] (cis-trans isomerization)
O=C(/C=C\c1ccccc1)c1ccc(N2CCN(C(=O)CCc3ccc(O)cc3)CC2)cc1[O-] (3D coordinates assigned)
O=C(/C=C\c1ccccc1)c1ccc(N2CCN(C(=O)CCc3ccc(O)cc3)CC2)cc1[O-] (nonaromatic ring conformer: 81.18242336509799 kcal/mol)

>  <smiles>  (44) 
O=C(C=Cc1ccccc1)c1ccc(N2CCN(C(=O)CCc3ccc(O)cc3)CC2)cc1O

>  <score_type>  (44) 
oracle

>  <origin>  (44) 
adg

>  <m_score__min__energy>  (44) 
-12.17

>  <m_primary>  (44) 
energy

$$$$
44:0
     RDKit          3D

 43 45  0  0  0  0  0  0  0  0999 V2000
   63.4670   33.8590   46.4690 C   0  0  0  0  0  0  0  0  0  0  0  0
   63.4770   33.3690   47.5720 C   0  0  0  0  0  0  0  0  0  0  0  0
   63.4920   32.7710   48.9210 C   0  0  0  0  0  0  0  0  0  0  0  0
   62.2270   32.0780   49.2550 N   0  0  1  0  0  0  0  0  0  0  0  0
   62.4600   30.9430   50.1840 C   0  0  0  0  0  0  0  0  0  0  0  0
   61.2780   29.9520   50.2150 C   0  0  0  0  0  0  0  0  0  0  0  0
   60.1790   30.3780   49.3290 N   0  0  0  0  0  0  0  0  0  0  0  0
   60.0460   29.9140   47.9600 C   0  0  0  0  0  0  0  0  0  0  0  0
   61.0580   29.8920   47.2080 O   0  0  0  0  0  0  0  0  0  0  0  0
   58.7490   29.3980   47.3940 C   0  0  0  0  0  0  0  0  0  0  0  0
   58.4570   30.0410   46.0680 C   0  0  0  0  0  0  0  0  0  0  0  0
   58.3300   29.3870   44.8440 C   0  0  0  0  0  0  0  0  0  0  0  0
   58.0620   30.2730   43.8590 N   0  0  0  0  0  0  0  0  0  0  0  0
   58.0300   31.4810   44.4460 C   0  0  0  0  0  0  0  0  0  0  0  0
   57.7830   32.7080   43.8320 C   0  0  0  0  0  0  0  0  0  0  0  0
   57.7930   33.8610   44.6380 C   0  0  0  0  0  0  0  0  0  0  0  0
   58.0490   33.7620   46.0240 C   0  0  0  0  0  0  0  0  0  0  0  0
   58.2960   32.5110   46.6160 C   0  0  0  0  0  0  0  0  0  0  0  0
   58.2740   31.3840   45.7920 C   0  0  0  0  0  0  0  0  0  0  0  0
   59.2530   31.3970   49.8450 C   0  0  0  0  0  0  0  0  0  0  0  0
   59.7350   32.8280   49.5210 C   0  0  0  0  0  0  0  0  0  0  0  0
   61.2270   33.0370   49.7140 C   0  0  0  0  0  0  0  0  0  0  0  0
   61.5990   34.0600   50.2710 O   0  0  0  0  0  0  0  0  0  0  0  0
   63.4579   34.3056   45.4638 H   0  0  0  0  0  0  0  0  0  0  0  0
   64.3158   32.0439   48.9741 H   0  0  0  0  0  0  0  0  0  0  0  0
   63.6228   33.5890   49.6447 H   0  0  0  0  0  0  0  0  0  0  0  0
   61.8720   31.6680   48.3600 H   0  0  0  0  0  0  0  0  0  0  0  0
   63.3636   30.4042   49.8628 H   0  0  0  0  0  0  0  0  0  0  0  0
   62.5746   31.3580   51.1962 H   0  0  0  0  0  0  0  0  0  0  0  0
   61.6342   28.9635   49.8895 H   0  0  0  0  0  0  0  0  0  0  0  0
   60.8911   29.9154   51.2441 H   0  0  0  0  0  0  0  0  0  0  0  0
   58.8215   28.3087   47.2593 H   0  0  0  0  0  0  0  0  0  0  0  0
   57.9354   29.6420   48.0929 H   0  0  0  0  0  0  0  0  0  0  0  0
   58.4334   28.3014   44.6996 H   0  0  0  0  0  0  0  0  0  0  0  0
   57.9100   30.0570   42.8490 H   0  0  0  0  0  0  0  0  0  0  0  0
   57.5865   32.7726   42.7516 H   0  0  0  0  0  0  0  0  0  0  0  0
   57.6004   34.8454   44.1865 H   0  0  0  0  0  0  0  0  0  0  0  0
   58.0551   34.6704   46.6444 H   0  0  0  0  0  0  0  0  0  0  0  0
   58.5000   32.4229   47.6933 H   0  0  0  0  0  0  0  0  0  0  0  0
   58.2640   31.2428   49.3889 H   0  0  0  0  0  0  0  0  0  0  0  0
   59.2050   31.2923   50.9390 H   0  0  0  0  0  0  0  0  0  0  0  0
   59.4882   33.0466   48.4716 H   0  0  0  0  0  0  0  0  0  0  0  0
   59.2259   33.5020   50.2257 H   0  0  0  0  0  0  0  0  0  0  0  0
  1  2  3  0
  2  3  1  0
  3  4  1  0
  4  5  1  0
  5  6  1  0
  6  7  1  0
  7  8  1  0
  8  9  2  0
  8 10  1  0
 10 11  1  0
 11 12  2  0
 12 13  1  0
 13 14  1  0
 14 15  2  0
 15 16  1  0
 16 17  2  0
 17 18  1  0
 18 19  2  0
  7 20  1  0
 20 21  1  0
 21 22  1  0
 22 23  2  0
 22  4  1  0
 19 11  1  0
 19 14  1  0
  1 24  1  0
  3 25  1  0
  3 26  1  0
  4 27  1  6
  5 28  1  0
  5 29  1  0
  6 30  1  0
  6 31  1  0
 10 32  1  0
 10 33  1  0
 12 34  1  0
 13 35  1  0
 15 36  1  0
 16 37  1  0
 17 38  1  0
 18 39  1  0
 20 40  1  0
 20 41  1  0
 21 42  1  0
 21 43  1  0
M  CHG  1   4   1
M  END
>  <UniqueID>  (45) 
43

>  <SMILES>  (45) 
C#CC[N@H+]1CCN(C(=O)Cc2c[nH]c3ccccc23)CCC1=O

>  <Energy>  (45) 
84.75092185224071

>  <Genealogy>  (45) 
C#CC[NH+]1CCN(C(=O)Cc2c[nH]c3ccccc23)CCC1=O (protonated)
C#CC[N@H+]1CCN(C(=O)Cc2c[nH]c3ccccc23)CCC1=O (chirality)
C#CC[N@H+]1CCN(C(=O)Cc2c[nH]c3ccccc23)CCC1=O (3D coordinates assigned)
C#CC[N@H+]1CCN(C(=O)Cc2c[nH]c3ccccc23)CCC1=O (nonaromatic ring conformer: 84.75092185224071 kcal/mol)

>  <smiles>  (45) 
C#CCN1CCN(C(=O)Cc2c[nH]c3ccccc23)CCC1=O

>  <score_type>  (45) 
oracle

>  <origin>  (45) 
adg

>  <m_score__min__energy>  (45) 
-4.2300000000000004

>  <m_primary>  (45) 
energy

$$$$
45:0
     RDKit          3D

 53 55  0  0  0  0  0  0  0  0999 V2000
   61.8970   33.3340   49.9480 H   0  0  0  0  0  0  0  0  0  0  0  0
   62.4210   33.6200   49.1550 O   0  0  0  0  0  0  0  0  0  0  0  0
   62.4550   32.5240   48.2820 C   0  0  0  0  0  0  0  0  0  0  0  0
   63.4306   32.0228   48.3661 H   0  0  0  0  0  0  0  0  0  0  0  0
   62.3031   32.8806   47.2526 H   0  0  0  0  0  0  0  0  0  0  0  0
   61.3420   31.5290   48.6360 C   0  0  0  0  0  0  0  0  0  0  0  0
   61.7697   30.5167   48.6844 H   0  0  0  0  0  0  0  0  0  0  0  0
   60.5654   31.5894   47.8594 H   0  0  0  0  0  0  0  0  0  0  0  0
   60.7210   31.8510   49.9390 N   0  0  0  0  0  0  0  0  0  0  0  0
   60.4950   30.6290   50.7550 C   0  0  0  0  0  0  0  0  0  0  0  0
   61.4187   30.3898   51.3023 H   0  0  0  0  0  0  0  0  0  0  0  0
   60.2161   29.8096   50.0761 H   0  0  0  0  0  0  0  0  0  0  0  0
   59.3550   30.8240   51.7640 C   0  0  0  0  0  0  0  0  0  0  0  0
   59.5893   31.6839   52.4087 H   0  0  0  0  0  0  0  0  0  0  0  0
   59.2581   29.9064   52.3628 H   0  0  0  0  0  0  0  0  0  0  0  0
   58.0640   31.0740   51.0720 N   0  0  0  0  0  0  0  0  0  0  0  0
   57.6600   30.1400   50.8290 H   0  0  0  0  0  0  0  0  0  0  0  0
   57.1280   31.7590   51.9420 C   0  0  0  0  0  0  0  0  0  0  0  0
   57.2550   32.9950   52.1640 O   0  0  0  0  0  0  0  0  0  0  0  0
   55.9040   31.0830   52.4220 C   0  0  0  0  0  0  0  0  0  0  0  0
   54.6860   31.2240   51.7960 C   0  0  0  0  0  0  0  0  0  0  0  0
   54.4761   31.8263   50.8998 H   0  0  0  0  0  0  0  0  0  0  0  0
   53.7790   30.4660   52.5070 C   0  0  0  0  0  0  0  0  0  0  0  0
   52.4640   30.4440   52.2120 C   0  0  0  0  0  0  0  0  0  0  0  0
   51.7809   30.0727   52.9902 H   0  0  0  0  0  0  0  0  0  0  0  0
   51.8620   30.8740   50.9380 C   0  0  0  0  0  0  0  0  0  0  0  0
   51.7380   30.0960   49.8460 N   0  0  0  0  0  0  0  0  0  0  0  0
   51.0180   30.8620   48.9980 C   0  0  0  0  0  0  0  0  0  0  0  0
   50.7030   30.4800   47.8420 O   0  0  0  0  0  0  0  0  0  0  0  0
   50.6520   32.0650   49.4920 N   0  0  0  0  0  0  0  0  0  0  0  0
   51.1840   32.0480   50.7250 C   0  0  0  0  0  0  0  0  0  0  0  0
   51.0460   33.0850   51.6400 O   0  0  0  0  0  0  0  0  0  0  0  0
   54.5100   29.8250   53.5230 C   0  0  0  0  0  0  0  0  0  0  0  0
   54.0590   28.8250   54.2960 C   0  0  0  0  0  0  0  0  0  0  0  0
   54.7113   28.3885   55.0667 H   0  0  0  0  0  0  0  0  0  0  0  0
   53.0370   28.4418   54.1589 H   0  0  0  0  0  0  0  0  0  0  0  0
   55.8070   30.2540   53.4950 N   0  0  0  0  0  0  0  0  0  0  0  0
   56.9040   29.9840   54.4540 C   0  0  0  0  0  0  0  0  0  0  0  0
   56.4472   29.5181   55.3396 H   0  0  0  0  0  0  0  0  0  0  0  0
   57.5730   31.2740   54.9490 C   0  0  0  0  0  0  0  0  0  0  0  0
   57.5788   31.2853   56.0489 H   0  0  0  0  0  0  0  0  0  0  0  0
   58.6071   31.3171   54.5764 H   0  0  0  0  0  0  0  0  0  0  0  0
   57.0125   32.1440   54.5764 H   0  0  0  0  0  0  0  0  0  0  0  0
   57.9130   28.9660   53.9030 C   0  0  0  0  0  0  0  0  0  0  0  0
   58.4159   28.4586   54.7395 H   0  0  0  0  0  0  0  0  0  0  0  0
   57.3850   28.2228   53.2874 H   0  0  0  0  0  0  0  0  0  0  0  0
   58.6608   29.4873   53.2874 H   0  0  0  0  0  0  0  0  0  0  0  0
   58.2170   31.8210   49.7950 C   0  0  0  0  0  0  0  0  0  0  0  0
   57.3481   32.4831   49.6662 H   0  0  0  0  0  0  0  0  0  0  0  0
   58.2853   31.0847   48.9806 H   0  0  0  0  0  0  0  0  0  0  0  0
   59.4960   32.6730   49.7670 C   0  0  0  0  0  0  0  0  0  0  0  0
   59.4477   33.4115   50.5808 H   0  0  0  0  0  0  0  0  0  0  0  0
   59.5536   33.1638   48.7842 H   0  0  0  0  0  0  0  0  0  0  0  0
  1  2  1  0
  2  3  1  0
  3  4  1  0
  3  5  1  0
  3  6  1  0
  6  7  1  0
  6  8  1  0
  6  9  1  0
  9 10  1  0
 10 11  1  0
 10 12  1  0
 10 13  1  0
 13 14  1  0
 13 15  1  0
 13 16  1  0
 16 17  1  0
 16 18  1  0
 18 19  2  0
 18 20  1  0
 20 21  2  0
 21 22  1  0
 21 23  1  0
 23 24  2  0
 24 25  1  0
 24 26  1  0
 26 27  1  0
 27 28  1  0
 28 29  2  0
 28 30  1  0
 30 31  1  0
 31 32  1  0
 23 33  1  0
 33 34  2  0
 34 35  1  0
 34 36  1  0
 33 37  1  0
 37 38  1  0
 38 39  1  0
 38 40  1  0
 40 41  1  0
 40 42  1  0
 40 43  1  0
 38 44  1  0
 44 45  1  0
 44 46  1  0
 44 47  1  0
 16 48  1  0
 48 49  1  0
 48 50  1  0
 48 51  1  0
 51 52  1  0
 51 53  1  0
 51  9  1  0
 37 20  1  0
 31 26  2  0
M  CHG  4  16   1  27  -1  30  -1  32  -1
M  END
>  <UniqueID>  (46) 
44

>  <SMILES>  (46) 
C=c1/c(=C\c2[n-]c(=O)[n-]c2[O-])cc(C(=O)[NH+]2CCN(CCO)CC2)n1C(C)C

>  <Energy>  (46) 
143.05242615264075

>  <Genealogy>  (46) 
C=c1c(=Cc2[n-]c(=O)[n-]c2[O-])cc(C(=O)[NH+]2CCN(CCO)CC2)n1C(C)C (protonated)
C=c1/c(=C\c2[n-]c(=O)[n-]c2[O-])cc(C(=O)[NH+]2CCN(CCO)CC2)n1C(C)C (cis-trans isomerization)
C=c1/c(=C\c2[n-]c(=O)[n-]c2[O-])cc(C(=O)[NH+]2CCN(CCO)CC2)n1C(C)C (3D coordinates assigned)
C=c1/c(=C\c2[n-]c(=O)[n-]c2[O-])cc(C(=O)[NH+]2CCN(CCO)CC2)n1C(C)C (nonaromatic ring conformer: 143.05242615264075 kcal/mol)

>  <smiles>  (46) 
C=c1c(=Cc2[nH]c(=O)[nH]c2O)cc(C(=O)N2CCN(CCO)CC2)n1C(C)C

>  <score_type>  (46) 
oracle

>  <origin>  (46) 
adg

>  <m_score__min__energy>  (46) 
-14.359999999999999

>  <m_primary>  (46) 
energy

$$$$
46:0
     RDKit          3D

 28 28  0  0  0  0  0  0  0  0999 V2000
   58.8460   30.1470   44.6400 H   0  0  0  0  0  0  0  0  0  0  0  0
   58.1740   29.3980   44.9240 N   0  0  0  0  0  0  0  0  0  0  0  0
   58.6440   28.1820   45.3290 C   0  0  0  0  0  0  0  0  0  0  0  0
   60.1290   27.9300   45.3610 C   0  0  0  0  0  0  0  0  0  0  0  0
   60.4687   27.8724   46.4056 H   0  0  0  0  0  0  0  0  0  0  0  0
   60.3510   26.9813   44.8504 H   0  0  0  0  0  0  0  0  0  0  0  0
   60.6515   28.7523   44.8504 H   0  0  0  0  0  0  0  0  0  0  0  0
   57.7310   27.1790   45.7090 C   0  0  0  0  0  0  0  0  0  0  0  0
   58.1830   25.8760   46.1450 C   0  0  0  0  0  0  0  0  0  0  0  0
   58.5450   24.8330   46.4940 N   0  0  0  0  0  0  0  0  0  0  0  0
   56.3620   27.4720   45.6570 C   0  0  0  0  0  0  0  0  0  0  0  0
   55.5040   26.6100   45.9860 O   0  0  0  0  0  0  0  0  0  0  0  0
   55.9500   28.6970   45.2480 N   0  0  0  0  0  0  0  0  0  0  0  0
   56.8390   29.6620   44.8840 C   0  0  0  0  0  0  0  0  0  0  0  0
   56.4260   30.8330   44.4940 N   0  0  0  0  0  0  0  0  0  0  0  0
   57.2940   31.9640   44.1620 C   0  0  0  0  0  0  0  0  0  0  0  0
   56.8598   32.5110   43.3121 H   0  0  0  0  0  0  0  0  0  0  0  0
   58.2899   31.5730   43.9065 H   0  0  0  0  0  0  0  0  0  0  0  0
   57.4420   32.9240   45.3510 C   0  0  0  0  0  0  0  0  0  0  0  0
   57.7744   32.3525   46.2301 H   0  0  0  0  0  0  0  0  0  0  0  0
   56.4651   33.3965   45.5309 H   0  0  0  0  0  0  0  0  0  0  0  0
   58.4620   34.0350   45.0670 C   0  0  0  0  0  0  0  0  0  0  0  0
   57.9699   34.8375   44.4979 H   0  0  0  0  0  0  0  0  0  0  0  0
   59.2942   33.6057   44.4898 H   0  0  0  0  0  0  0  0  0  0  0  0
   59.0200   34.6140   46.3640 C   0  0  0  0  0  0  0  0  0  0  0  0
   58.5424   34.1184   47.2221 H   0  0  0  0  0  0  0  0  0  0  0  0
   60.1066   34.4472   46.4024 H   0  0  0  0  0  0  0  0  0  0  0  0
   58.8132   35.6937   46.4024 H   0  0  0  0  0  0  0  0  0  0  0  0
  1  2  1  0
  2  3  1  0
  3  4  1  0
  4  5  1  0
  4  6  1  0
  4  7  1  0
  3  8  2  0
  8  9  1  0
  9 10  3  0
  8 11  1  0
 11 12  2  0
 11 13  1  0
 13 14  1  0
 14 15  2  0
 15 16  1  0
 16 17  1  0
 16 18  1  0
 16 19  1  0
 19 20  1  0
 19 21  1  0
 19 22  1  0
 22 23  1  0
 22 24  1  0
 22 25  1  0
 25 26  1  0
 25 27  1  0
 25 28  1  0
 14  2  1  0
M  CHG  1  13  -1
M  END
>  <UniqueID>  (47) 
45

>  <SMILES>  (47) 
CCCC/N=c1\[n-]c(=O)c(C#N)c(C)[nH]1

>  <Energy>  (47) 
20.375917668695994

>  <Genealogy>  (47) 
CCCCN=c1[n-]c(=O)c(C#N)c(C)[nH]1 (protonated)
CCCC/N=c1\[n-]c(=O)c(C#N)c(C)[nH]1 (cis-trans isomerization)
CCCC/N=c1\[n-]c(=O)c(C#N)c(C)[nH]1 (3D coordinates assigned)
CCCC/N=c1\[n-]c(=O)c(C#N)c(C)[nH]1 (optimized conformer: 20.375917668695994 kcal/mol)

>  <smiles>  (47) 
CCCCN=c1[nH]c(C)c(C#N)c(=O)[nH]1

>  <score_type>  (47) 
oracle

>  <origin>  (47) 
adg

>  <m_score__min__energy>  (47) 
-7.0499999999999998

>  <m_primary>  (47) 
energy

$$$$
47:0
     RDKit          3D

 63 68  0  0  0  0  0  0  0  0999 V2000
   55.1430   26.4940   45.9820 O   0  0  0  0  0  0  0  0  0  0  0  0
   56.1220   25.9570   46.5670 C   0  0  0  0  0  0  0  0  0  0  0  0
   57.5060   26.4730   46.3410 C   0  0  0  0  0  0  0  0  0  0  0  0
   57.5470   27.2920   45.1740 O   0  0  0  0  0  0  0  0  0  0  0  0
   57.7000   28.6840   45.1500 C   0  0  0  0  0  0  0  0  0  0  0  0
   58.9580   29.3050   45.2700 C   0  0  0  0  0  0  0  0  0  0  0  0
   59.0870   30.6830   45.0840 C   0  0  0  0  0  0  0  0  0  0  0  0
   57.9600   31.4760   44.8170 C   0  0  0  0  0  0  0  0  0  0  0  0
   58.1300   32.9130   44.4940 C   0  0  0  0  0  0  0  0  0  0  0  0
   58.3740   33.2440   43.3020 O   0  0  0  0  0  0  0  0  0  0  0  0
   57.9450   33.9530   45.4660 N   0  0  0  0  0  0  0  0  0  0  0  0
   58.5390   34.0470   46.6170 C   0  0  0  0  0  0  0  0  0  0  0  0
   59.3880   35.0550   46.9030 N   0  0  0  0  0  0  0  0  0  0  0  0
   59.9820   34.9190   48.0850 N   0  0  0  0  0  0  0  0  0  0  0  0
   59.6070   33.8050   48.7590 C   0  0  0  0  0  0  0  0  0  0  0  0
   60.1680   33.3960   50.1020 C   0  0  0  0  0  0  0  0  0  0  0  0
   59.3060   32.3000   50.7020 C   0  0  0  0  0  0  0  0  0  0  0  0
   58.0560   32.6100   51.2660 C   0  0  0  0  0  0  0  0  0  0  0  0
   57.2120   31.5910   51.7160 C   0  0  0  0  0  0  0  0  0  0  0  0
   57.6020   30.2560   51.5970 C   0  0  0  0  0  0  0  0  0  0  0  0
   58.8550   29.9370   51.0620 C   0  0  0  0  0  0  0  0  0  0  0  0
   59.7140   30.9530   50.6380 C   0  0  0  0  0  0  0  0  0  0  0  0
   60.9930   30.6220   50.1860 O   0  0  0  0  0  0  0  0  0  0  0  0
   61.9600   31.5980   49.9410 C   0  0  0  0  0  0  0  0  0  0  0  0
   63.2810   31.2080   49.7030 C   0  0  0  0  0  0  0  0  0  0  0  0
   64.2700   32.1730   49.4880 C   0  0  0  0  0  0  0  0  0  0  0  0
   63.9420   33.5280   49.5140 C   0  0  0  0  0  0  0  0  0  0  0  0
   62.6230   33.9270   49.7370 C   0  0  0  0  0  0  0  0  0  0  0  0
   61.6190   32.9680   49.9570 C   0  0  0  0  0  0  0  0  0  0  0  0
   58.4880   32.9100   47.8650 S   0  0  0  0  0  0  0  0  0  0  0  0
   56.6940   30.8690   44.7720 C   0  0  0  0  0  0  0  0  0  0  0  0
   56.5610   29.4850   44.9420 C   0  0  0  0  0  0  0  0  0  0  0  0
   55.2870   28.9160   44.8850 O   0  0  0  0  0  0  0  0  0  0  0  0
   55.9370   24.8310   47.4310 N   0  0  0  0  0  0  0  0  0  0  0  0
   55.4110   23.5400   46.9960 C   0  0  0  0  0  0  0  0  0  0  0  0
   55.8370   23.2290   45.5860 C   0  0  0  0  0  0  0  0  0  0  0  0
   57.0270   22.5250   45.3460 C   0  0  0  0  0  0  0  0  0  0  0  0
   57.4020   22.1990   44.0400 C   0  0  0  0  0  0  0  0  0  0  0  0
   56.5960   22.5820   42.9650 C   0  0  0  0  0  0  0  0  0  0  0  0
   55.4160   23.2930   43.1940 C   0  0  0  0  0  0  0  0  0  0  0  0
   55.0380   23.6190   44.4970 C   0  0  0  0  0  0  0  0  0  0  0  0
   57.8179   27.0677   47.2123 H   0  0  0  0  0  0  0  0  0  0  0  0
   58.1866   25.6200   46.2023 H   0  0  0  0  0  0  0  0  0  0  0  0
   59.8448   28.7008   45.5118 H   0  0  0  0  0  0  0  0  0  0  0  0
   60.0804   31.1511   45.1473 H   0  0  0  0  0  0  0  0  0  0  0  0
   60.1495   34.2537   50.7905 H   0  0  0  0  0  0  0  0  0  0  0  0
   57.7406   33.6602   51.3535 H   0  0  0  0  0  0  0  0  0  0  0  0
   56.2393   31.8413   52.1645 H   0  0  0  0  0  0  0  0  0  0  0  0
   56.9238   29.4541   51.9241 H   0  0  0  0  0  0  0  0  0  0  0  0
   59.1637   28.8848   50.9753 H   0  0  0  0  0  0  0  0  0  0  0  0
   63.5432   30.1399   49.6848 H   0  0  0  0  0  0  0  0  0  0  0  0
   65.3081   31.8627   49.2981 H   0  0  0  0  0  0  0  0  0  0  0  0
   64.7250   34.2848   49.3583 H   0  0  0  0  0  0  0  0  0  0  0  0
   62.3680   34.9970   49.7406 H   0  0  0  0  0  0  0  0  0  0  0  0
   55.7993   31.4859   44.6018 H   0  0  0  0  0  0  0  0  0  0  0  0
   55.1440   27.9110   44.9190 H   0  0  0  0  0  0  0  0  0  0  0  0
   55.7878   22.7539   47.6669 H   0  0  0  0  0  0  0  0  0  0  0  0
   54.3122   23.5814   47.0281 H   0  0  0  0  0  0  0  0  0  0  0  0
   57.6674   22.2285   46.1897 H   0  0  0  0  0  0  0  0  0  0  0  0
   58.3321   21.6406   43.8582 H   0  0  0  0  0  0  0  0  0  0  0  0
   56.8911   22.3233   41.9374 H   0  0  0  0  0  0  0  0  0  0  0  0
   54.7840   23.5963   42.3463 H   0  0  0  0  0  0  0  0  0  0  0  0
   54.1106   24.1837   44.6729 H   0  0  0  0  0  0  0  0  0  0  0  0
  1  2  2  0
  2  3  1  0
  3  4  1  0
  4  5  1  0
  5  6  2  0
  6  7  1  0
  7  8  2  0
  8  9  1  0
  9 10  2  0
  9 11  1  0
 11 12  2  3
 12 13  1  0
 13 14  1  0
 14 15  2  0
 15 16  1  0
 16 17  1  0
 17 18  2  0
 18 19  1  0
 19 20  2  0
 20 21  1  0
 21 22  2  0
 22 23  1  0
 23 24  1  0
 24 25  2  0
 25 26  1  0
 26 27  2  0
 27 28  1  0
 28 29  2  0
 15 30  1  0
  8 31  1  0
 31 32  2  0
 32 33  1  0
  2 34  1  0
 34 35  1  0
 35 36  1  0
 36 37  2  0
 37 38  1  0
 38 39  2  0
 39 40  1  0
 40 41  2  0
 32  5  1  0
 41 36  1  0
 30 12  1  0
 29 16  1  0
 22 17  1  0
 29 24  1  0
  3 42  1  0
  3 43  1  0
  6 44  1  0
  7 45  1  0
 16 46  1  0
 18 47  1  0
 19 48  1  0
 20 49  1  0
 21 50  1  0
 25 51  1  0
 26 52  1  0
 27 53  1  0
 28 54  1  0
 31 55  1  0
 33 56  1  0
 35 57  1  0
 35 58  1  0
 37 59  1  0
 38 60  1  0
 39 61  1  0
 40 62  1  0
 41 63  1  0
M  CHG  2  13  -1  34  -1
M  END
>  <UniqueID>  (48) 
46

>  <SMILES>  (48) 
O=C(COc1ccc(C(=O)N=c2[n-]nc(C3c4ccccc4Oc4ccccc43)s2)cc1O)[N-]Cc1ccccc1

>  <Energy>  (48) 
117.11554654453258

>  <Genealogy>  (48) 
O=C(COc1ccc(C(=O)N=c2[n-]nc(C3c4ccccc4Oc4ccccc43)s2)cc1O)[N-]Cc1ccccc1 (protonated)
O=C(COc1ccc(C(=O)N=c2[n-]nc(C3c4ccccc4Oc4ccccc43)s2)cc1O)[N-]Cc1ccccc1 (3D coordinates assigned)
O=C(COc1ccc(C(=O)N=c2[n-]nc(C3c4ccccc4Oc4ccccc43)s2)cc1O)[N-]Cc1ccccc1 (nonaromatic ring conformer: 117.11554654453258 kcal/mol)

>  <smiles>  (48) 
O=C(COc1ccc(C(=O)N=c2[nH]nc(C3c4ccccc4Oc4ccccc43)s2)cc1O)NCc1ccccc1

>  <score_type>  (48) 
oracle

>  <origin>  (48) 
adg

>  <m_score__min__energy>  (48) 
-14.34

>  <m_primary>  (48) 
energy

$$$$
48:0
     RDKit          3D

 64 67  0  0  0  0  0  0  0  0999 V2000
   64.5720   32.6620   46.7330 H   0  0  0  0  0  0  0  0  0  0  0  0
   63.7770   33.0970   47.1800 O   0  0  0  0  0  0  0  0  0  0  0  0
   63.4940   32.8890   48.5270 C   0  0  0  0  0  0  0  0  0  0  0  0
   63.4690   31.5940   49.0680 C   0  0  0  0  0  0  0  0  0  0  0  0
   63.6921   30.7287   48.4265 H   0  0  0  0  0  0  0  0  0  0  0  0
   63.1620   31.3980   50.4180 C   0  0  0  0  0  0  0  0  0  0  0  0
   63.1153   30.3788   50.8291 H   0  0  0  0  0  0  0  0  0  0  0  0
   62.9130   32.5040   51.2500 C   0  0  0  0  0  0  0  0  0  0  0  0
   62.5430   32.3030   52.6990 C   0  0  0  0  0  0  0  0  0  0  0  0
   63.4621   32.1986   53.2942 H   0  0  0  0  0  0  0  0  0  0  0  0
   61.9265   31.3958   52.7816 H   0  0  0  0  0  0  0  0  0  0  0  0
   61.7350   33.4940   53.2280 C   0  0  0  0  0  0  0  0  0  0  0  0
   61.7927   34.3195   52.5033 H   0  0  0  0  0  0  0  0  0  0  0  0
   62.1562   33.8042   54.1956 H   0  0  0  0  0  0  0  0  0  0  0  0
   60.3360   33.1250   53.4230 N   0  0  0  0  0  0  0  0  0  0  0  0
   59.5580   32.6630   52.4920 C   0  0  0  0  0  0  0  0  0  0  0  0
   58.4400   31.9480   52.8020 N   0  0  0  0  0  0  0  0  0  0  0  0
   57.6090   31.4750   51.8290 C   0  0  0  0  0  0  0  0  0  0  0  0
   56.3690   30.7190   52.2030 C   0  0  0  0  0  0  0  0  0  0  0  0
   55.3530   31.0340   51.3220 F   0  0  0  0  0  0  0  0  0  0  0  0
   55.9640   31.0440   53.4850 F   0  0  0  0  0  0  0  0  0  0  0  0
   56.6150   29.3610   52.1430 F   0  0  0  0  0  0  0  0  0  0  0  0
   57.9120   31.7220   50.4850 C   0  0  0  0  0  0  0  0  0  0  0  0
   57.2446   31.3687   49.6852 H   0  0  0  0  0  0  0  0  0  0  0  0
   59.0870   32.4310   50.1780 C   0  0  0  0  0  0  0  0  0  0  0  0
   59.4630   32.6990   48.8130 N   0  0  0  0  0  0  0  0  0  0  0  0
   60.0360   31.6500   47.9630 C   0  0  0  0  0  0  0  0  0  0  0  0
   59.9348   30.6755   48.4632 H   0  0  0  0  0  0  0  0  0  0  0  0
   61.1012   31.8597   47.7860 H   0  0  0  0  0  0  0  0  0  0  0  0
   59.2920   31.6190   46.6300 C   0  0  0  0  0  0  0  0  0  0  0  0
   58.3006   31.1683   46.7849 H   0  0  0  0  0  0  0  0  0  0  0  0
   59.8858   31.0268   45.9182 H   0  0  0  0  0  0  0  0  0  0  0  0
   59.1200   32.9750   46.0720 N   0  0  0  0  0  0  0  0  0  0  0  0
   58.4780   33.1440   44.7840 C   0  0  0  0  0  0  0  0  0  0  0  0
   58.5230   34.2540   44.1800 O   0  0  0  0  0  0  0  0  0  0  0  0
   57.7160   32.0430   44.1790 C   0  0  0  0  0  0  0  0  0  0  0  0
   57.5970   31.9430   42.7810 C   0  0  0  0  0  0  0  0  0  0  0  0
   58.0318   32.7188   42.1336 H   0  0  0  0  0  0  0  0  0  0  0  0
   56.9240   30.8540   42.2160 C   0  0  0  0  0  0  0  0  0  0  0  0
   56.8298   30.7730   41.1230 H   0  0  0  0  0  0  0  0  0  0  0  0
   56.3690   29.8650   43.0430 C   0  0  0  0  0  0  0  0  0  0  0  0
   55.8397   29.0122   42.5928 H   0  0  0  0  0  0  0  0  0  0  0  0
   56.4830   29.9540   44.4380 C   0  0  0  0  0  0  0  0  0  0  0  0
   55.8390   28.9620   45.2460 N   0  0  0  0  0  0  0  0  0  0  0  0
   56.3650   27.6760   45.6080 C   0  0  0  0  0  0  0  0  0  0  0  0
   55.5680   26.7800   45.9960 O   0  0  0  0  0  0  0  0  0  0  0  0
   57.8090   27.3660   45.4620 C   0  0  0  0  0  0  0  0  0  0  0  0
   58.1091   26.5501   44.7880 H   0  0  0  0  0  0  0  0  0  0  0  0
   58.7550   28.0370   46.1150 C   0  0  0  0  0  0  0  0  0  0  0  0
   59.8134   27.7717   45.9754 H   0  0  0  0  0  0  0  0  0  0  0  0
   58.4785   28.8568   46.7943 H   0  0  0  0  0  0  0  0  0  0  0  0
   57.1410   31.0620   45.0040 C   0  0  0  0  0  0  0  0  0  0  0  0
   57.2053   31.1603   46.0977 H   0  0  0  0  0  0  0  0  0  0  0  0
   59.6790   34.1340   46.7920 C   0  0  0  0  0  0  0  0  0  0  0  0
   59.2666   35.0595   46.3638 H   0  0  0  0  0  0  0  0  0  0  0  0
   60.7740   34.1232   46.6879 H   0  0  0  0  0  0  0  0  0  0  0  0
   59.3210   34.0640   48.2840 C   0  0  0  0  0  0  0  0  0  0  0  0
   58.2792   34.3913   48.4166 H   0  0  0  0  0  0  0  0  0  0  0  0
   60.0125   34.7191   48.8341 H   0  0  0  0  0  0  0  0  0  0  0  0
   59.8660   32.8990   51.1910 N   0  0  0  0  0  0  0  0  0  0  0  0
   62.9420   33.7980   50.7010 C   0  0  0  0  0  0  0  0  0  0  0  0
   62.7386   34.6687   51.3416 H   0  0  0  0  0  0  0  0  0  0  0  0
   63.2280   33.9840   49.3450 C   0  0  0  0  0  0  0  0  0  0  0  0
   63.2429   34.9996   48.9227 H   0  0  0  0  0  0  0  0  0  0  0  0
  1  2  1  0
  2  3  1  0
  3  4  2  0
  4  5  1  0
  4  6  1  0
  6  7  1  0
  6  8  2  0
  8  9  1  0
  9 10  1  0
  9 11  1  0
  9 12  1  0
 12 13  1  0
 12 14  1  0
 12 15  1  0
 15 16  2  0
 16 17  1  0
 17 18  2  0
 18 19  1  0
 19 20  1  0
 19 21  1  0
 19 22  1  0
 18 23  1  0
 23 24  1  0
 23 25  2  0
 25 26  1  0
 26 27  1  0
 27 28  1  0
 27 29  1  0
 27 30  1  0
 30 31  1  0
 30 32  1  0
 30 33  1  0
 33 34  1  0
 34 35  2  0
 34 36  1  0
 36 37  2  0
 37 38  1  0
 37 39  1  0
 39 40  1  0
 39 41  2  0
 41 42  1  0
 41 43  1  0
 43 44  1  0
 44 45  1  0
 45 46  2  0
 45 47  1  0
 47 48  1  0
 47 49  2  0
 49 50  1  0
 49 51  1  0
 43 52  2  0
 52 53  1  0
 33 54  1  0
 54 55  1  0
 54 56  1  0
 54 57  1  0
 57 58  1  0
 57 59  1  0
 25 60  1  0
  8 61  1  0
 61 62  1  0
 61 63  2  0
 63 64  1  0
 63  3  1  0
 60 16  1  0
 57 26  1  0
 52 36  1  0
M  CHG  2  44  -1  60  -1
M  END
>  <UniqueID>  (49) 
47

>  <SMILES>  (49) 
C=CC(=O)[N-]c1cccc(C(=O)N2CCN(c3cc(C(F)(F)F)n/c(=N\CCc4ccc(O)cc4)[n-]3)CC2)c1

>  <Energy>  (49) 
77.00998232240057

>  <Genealogy>  (49) 
C=CC(=O)[N-]c1cccc(C(=O)N2CCN(c3cc(C(F)(F)F)nc(=NCCc4ccc(O)cc4)[n-]3)CC2)c1 (protonated)
C=CC(=O)[N-]c1cccc(C(=O)N2CCN(c3cc(C(F)(F)F)n/c(=N\CCc4ccc(O)cc4)[n-]3)CC2)c1 (cis-trans isomerization)
C=CC(=O)[N-]c1cccc(C(=O)N2CCN(c3cc(C(F)(F)F)n/c(=N\CCc4ccc(O)cc4)[n-]3)CC2)c1 (3D coordinates assigned)
C=CC(=O)[N-]c1cccc(C(=O)N2CCN(c3cc(C(F)(F)F)n/c(=N\CCc4ccc(O)cc4)[n-]3)CC2)c1 (nonaromatic ring conformer: 77.00998232240057 kcal/mol)

>  <smiles>  (49) 
C=CC(=O)Nc1cccc(C(=O)N2CCN(c3cc(C(F)(F)F)nc(=NCCc4ccc(O)cc4)[nH]3)CC2)c1

>  <score_type>  (49) 
oracle

>  <origin>  (49) 
adg

>  <m_score__min__energy>  (49) 
-12.529999999999999

>  <m_primary>  (49) 
energy

$$$$
49:0
     RDKit          3D

 50 52  0  0  0  0  0  0  0  0999 V2000
   55.6650   30.0300   43.8310 C   0  0  0  0  0  0  0  0  0  0  0  0
   56.5520   30.4590   44.8560 O   0  0  0  0  0  0  0  0  0  0  0  0
   57.9120   30.6890   44.6260 C   0  0  0  0  0  0  0  0  0  0  0  0
   58.3410   30.8720   43.4540 O   0  0  0  0  0  0  0  0  0  0  0  0
   58.8530   30.7250   45.7760 C   0  0  0  0  0  0  0  0  0  0  0  0
   59.1350   29.5220   46.4660 C   0  0  0  0  0  0  0  0  0  0  0  0
   58.5160   28.2330   46.0650 C   0  0  0  0  0  0  0  0  0  0  0  0
   59.3060   27.1980   45.5470 C   0  0  0  0  0  0  0  0  0  0  0  0
   58.7230   25.9860   45.1700 C   0  0  0  0  0  0  0  0  0  0  0  0
   57.3360   25.7890   45.3090 C   0  0  0  0  0  0  0  0  0  0  0  0
   56.7160   24.5840   44.9390 O   0  0  0  0  0  0  0  0  0  0  0  0
   56.7080   24.0530   43.6180 C   0  0  0  0  0  0  0  0  0  0  0  0
   56.5440   26.8270   45.8360 C   0  0  0  0  0  0  0  0  0  0  0  0
   55.1670   26.6740   45.9920 O   0  0  0  0  0  0  0  0  0  0  0  0
   57.1350   28.0380   46.2110 C   0  0  0  0  0  0  0  0  0  0  0  0
   60.0560   29.5350   47.5190 C   0  0  0  0  0  0  0  0  0  0  0  0
   60.3010   28.4660   48.1490 O   0  0  0  0  0  0  0  0  0  0  0  0
   60.7330   30.7170   47.8470 C   0  0  0  0  0  0  0  0  0  0  0  0
   61.7030   30.7270   48.8690 C   0  0  0  0  0  0  0  0  0  0  0  0
   62.4200   31.8940   49.1720 C   0  0  0  0  0  0  0  0  0  0  0  0
   63.3910   31.9330   50.1860 O   0  0  0  0  0  0  0  0  0  0  0  0
   64.7960   31.9990   49.9600 C   0  0  0  0  0  0  0  0  0  0  0  0
   62.1790   33.0620   48.4430 C   0  0  0  0  0  0  0  0  0  0  0  0
   62.9300   34.2060   48.7590 O   0  0  0  0  0  0  0  0  0  0  0  0
   62.9580   34.8320   50.0380 C   0  0  0  0  0  0  0  0  0  0  0  0
   61.2050   33.0630   47.4280 C   0  0  0  0  0  0  0  0  0  0  0  0
   60.4470   31.9040   47.1300 C   0  0  0  0  0  0  0  0  0  0  0  0
   59.4550   31.9080   46.1630 N   0  0  0  0  0  0  0  0  0  0  0  0
   59.0200   33.1880   45.5600 C   0  0  0  0  0  0  0  0  0  0  0  0
   54.7632   29.5938   44.2854 H   0  0  0  0  0  0  0  0  0  0  0  0
   55.3817   30.8907   43.2073 H   0  0  0  0  0  0  0  0  0  0  0  0
   56.1638   29.2736   43.2073 H   0  0  0  0  0  0  0  0  0  0  0  0
   60.3911   27.3408   45.4367 H   0  0  0  0  0  0  0  0  0  0  0  0
   59.3514   25.1806   44.7620 H   0  0  0  0  0  0  0  0  0  0  0  0
   56.6914   22.9541   43.6646 H   0  0  0  0  0  0  0  0  0  0  0  0
   55.8151   24.4108   43.0844 H   0  0  0  0  0  0  0  0  0  0  0  0
   57.6112   24.3838   43.0844 H   0  0  0  0  0  0  0  0  0  0  0  0
   54.7580   25.8320   46.3810 H   0  0  0  0  0  0  0  0  0  0  0  0
   56.5111   28.8444   46.6240 H   0  0  0  0  0  0  0  0  0  0  0  0
   61.9009   29.8063   49.4375 H   0  0  0  0  0  0  0  0  0  0  0  0
   65.3220   32.0237   50.9258 H   0  0  0  0  0  0  0  0  0  0  0  0
   65.1176   31.1150   49.3899 H   0  0  0  0  0  0  0  0  0  0  0  0
   65.0333   32.9093   49.3899 H   0  0  0  0  0  0  0  0  0  0  0  0
   62.9236   34.0628   50.8236 H   0  0  0  0  0  0  0  0  0  0  0  0
   63.8833   35.4182   50.1391 H   0  0  0  0  0  0  0  0  0  0  0  0
   62.0888   35.4985   50.1391 H   0  0  0  0  0  0  0  0  0  0  0  0
   61.0281   33.9840   46.8531 H   0  0  0  0  0  0  0  0  0  0  0  0
   58.7763   33.9050   46.3578 H   0  0  0  0  0  0  0  0  0  0  0  0
   59.8306   33.5941   44.9371 H   0  0  0  0  0  0  0  0  0  0  0  0
   58.1298   33.0161   44.9371 H   0  0  0  0  0  0  0  0  0  0  0  0
  1  2  1  0
  2  3  1  0
  3  4  2  0
  3  5  1  0
  5  6  2  0
  6  7  1  0
  7  8  2  0
  8  9  1  0
  9 10  2  0
 10 11  1  0
 11 12  1  0
 10 13  1  0
 13 14  1  0
 13 15  2  0
  6 16  1  0
 16 17  2  0
 16 18  1  0
 18 19  2  0
 19 20  1  0
 20 21  1  0
 21 22  1  0
 20 23  2  0
 23 24  1  0
 24 25  1  0
 23 26  1  0
 26 27  2  0
 27 28  1  0
 28 29  1  0
 28  5  1  0
 15  7  1  0
 27 18  1  0
  1 30  1  0
  1 31  1  0
  1 32  1  0
  8 33  1  0
  9 34  1  0
 12 35  1  0
 12 36  1  0
 12 37  1  0
 14 38  1  0
 15 39  1  0
 19 40  1  0
 22 41  1  0
 22 42  1  0
 22 43  1  0
 25 44  1  0
 25 45  1  0
 25 46  1  0
 26 47  1  0
 29 48  1  0
 29 49  1  0
 29 50  1  0
M  END
>  <UniqueID>  (50) 
48

>  <SMILES>  (50) 
COC(=O)c1c(-c2ccc(OC)c(O)c2)c(=O)c2cc(OC)c(OC)cc2n1C

>  <Energy>  (50) 
77.14886256225566

>  <Genealogy>  (50) 
COC(=O)c1c(-c2ccc(OC)c(O)c2)c(=O)c2cc(OC)c(OC)cc2n1C (3D coordinates assigned)
COC(=O)c1c(-c2ccc(OC)c(O)c2)c(=O)c2cc(OC)c(OC)cc2n1C (optimized conformer: 77.14886256225566 kcal/mol)

>  <smiles>  (50) 
COC(=O)c1c(-c2ccc(OC)c(O)c2)c(=O)c2cc(OC)c(OC)cc2n1C

>  <score_type>  (50) 
oracle

>  <origin>  (50) 
adg

>  <m_score__min__energy>  (50) 
-7.46

>  <m_primary>  (50) 
energy

$$$$
50:0
     RDKit          3D

 35 36  0  0  0  0  0  0  0  0999 V2000
   54.7340   28.9640   45.4800 H   0  0  0  0  0  0  0  0  0  0  0  0
   55.6330   28.5820   45.2160 O   0  0  0  0  0  0  0  0  0  0  0  0
   56.0270   27.3250   45.6640 C   0  0  0  0  0  0  0  0  0  0  0  0
   55.1690   26.3670   46.0530 N   0  0  0  0  0  0  0  0  0  0  0  0
   55.9870   25.3290   46.3270 C   0  0  0  0  0  0  0  0  0  0  0  0
   55.5580   24.2150   46.7250 O   0  0  0  0  0  0  0  0  0  0  0  0
   57.3000   25.5750   46.1330 N   0  0  0  0  0  0  0  0  0  0  0  0
   57.3220   26.8580   45.7330 C   0  0  0  0  0  0  0  0  0  0  0  0
   58.5540   27.5560   45.3210 C   0  0  0  0  0  0  0  0  0  0  0  0
   59.3549   26.9602   44.8589 H   0  0  0  0  0  0  0  0  0  0  0  0
   58.7590   28.8800   45.4760 C   0  0  0  0  0  0  0  0  0  0  0  0
   59.4900   29.4820   46.4860 C   0  0  0  0  0  0  0  0  0  0  0  0
   59.9935   28.9738   47.3216 H   0  0  0  0  0  0  0  0  0  0  0  0
   59.4670   30.8420   46.2450 C   0  0  0  0  0  0  0  0  0  0  0  0
   60.1030   31.8280   47.1460 C   0  0  0  0  0  0  0  0  0  0  0  0
   61.0040   31.4790   47.9550 O   0  0  0  0  0  0  0  0  0  0  0  0
   59.7100   33.1690   47.0690 O   0  0  0  0  0  0  0  0  0  0  0  0
   60.5160   34.1930   46.4880 C   0  0  0  0  0  0  0  0  0  0  0  0
   61.2610   34.5281   47.2246 H   0  0  0  0  0  0  0  0  0  0  0  0
   61.0173   33.7867   45.5972 H   0  0  0  0  0  0  0  0  0  0  0  0
   59.6560   35.3810   46.0690 C   0  0  0  0  0  0  0  0  0  0  0  0
   59.2822   35.8974   46.9655 H   0  0  0  0  0  0  0  0  0  0  0  0
   60.2603   36.0779   45.4697 H   0  0  0  0  0  0  0  0  0  0  0  0
   58.8053   35.0245   45.4697 H   0  0  0  0  0  0  0  0  0  0  0  0
   58.7770   31.1080   45.1040 N   0  0  0  0  0  0  0  0  0  0  0  0
   58.5590   32.4320   44.4990 C   0  0  0  0  0  0  0  0  0  0  0  0
   59.3443   33.1212   44.8429 H   0  0  0  0  0  0  0  0  0  0  0  0
   58.5946   32.3338   43.4040 H   0  0  0  0  0  0  0  0  0  0  0  0
   57.2210   32.9730   44.8940 C   0  0  0  0  0  0  0  0  0  0  0  0
   56.2900   32.1900   45.2140 O   0  0  0  0  0  0  0  0  0  0  0  0
   57.0070   34.3450   44.9290 O   0  0  0  0  0  0  0  0  0  0  0  0
   58.3250   29.9110   44.6380 C   0  0  0  0  0  0  0  0  0  0  0  0
   57.5470   29.7640   43.5520 C   0  0  0  0  0  0  0  0  0  0  0  0
   57.2606   30.6440   42.9574 H   0  0  0  0  0  0  0  0  0  0  0  0
   57.1966   28.7637   43.2578 H   0  0  0  0  0  0  0  0  0  0  0  0
  1  2  1  0
  2  3  1  0
  3  4  1  0
  4  5  1  0
  5  6  2  0
  5  7  1  0
  7  8  1  0
  8  9  1  0
  9 10  1  0
  9 11  2  0
 11 12  1  0
 12 13  1  0
 12 14  2  0
 14 15  1  0
 15 16  2  0
 15 17  1  0
 17 18  1  0
 18 19  1  0
 18 20  1  0
 18 21  1  0
 21 22  1  0
 21 23  1  0
 21 24  1  0
 14 25  1  0
 25 26  1  0
 26 27  1  0
 26 28  1  0
 26 29  1  0
 29 30  2  0
 29 31  1  0
 25 32  1  0
 32 33  2  0
 33 34  1  0
 33 35  1  0
  8  3  2  0
 32 11  1  0
M  CHG  3   4  -1   7  -1  31  -1
M  END
>  <UniqueID>  (51) 
49

>  <SMILES>  (51) 
C=c1/c(=C/c2[n-]c(=O)[n-]c2O)cc(C(=O)OCC)n1CC(=O)[O-]

>  <Energy>  (51) 
96.91709117361947

>  <Genealogy>  (51) 
C=c1c(=Cc2[n-]c(=O)[n-]c2O)cc(C(=O)OCC)n1CC(=O)[O-] (protonated)
C=c1/c(=C/c2[n-]c(=O)[n-]c2O)cc(C(=O)OCC)n1CC(=O)[O-] (cis-trans isomerization)
C=c1/c(=C/c2[n-]c(=O)[n-]c2O)cc(C(=O)OCC)n1CC(=O)[O-] (3D coordinates assigned)
C=c1/c(=C/c2[n-]c(=O)[n-]c2O)cc(C(=O)OCC)n1CC(=O)[O-] (optimized conformer: 96.91709117361947 kcal/mol)

>  <smiles>  (51) 
C=c1c(=Cc2[nH]c(=O)[nH]c2O)cc(C(=O)OCC)n1CC(=O)O

>  <score_type>  (51) 
oracle

>  <origin>  (51) 
adg

>  <m_score__min__energy>  (51) 
-12.06

>  <m_primary>  (51) 
energy

$$$$
51:0
     RDKit          3D

 54 56  0  0  0  0  0  0  0  0999 V2000
   56.4710   34.0230   45.7470 O   0  0  0  0  0  0  0  0  0  0  0  0
   57.2570   33.0880   45.4430 C   0  0  0  0  0  0  0  0  0  0  0  0
   56.7660   32.0060   44.6400 N   0  0  0  0  0  0  0  0  0  0  0  0
   57.5500   31.2200   43.6910 C   0  0  0  0  0  0  0  0  0  0  0  0
   56.7480   30.0140   43.1930 C   0  0  0  0  0  0  0  0  0  0  0  0
   55.4400   29.8610   43.9740 C   0  0  0  0  0  0  0  0  0  0  0  0
   55.6250   28.9760   45.1210 N   0  0  0  0  0  0  0  0  0  0  0  0
   56.8860   28.5160   45.6280 C   0  0  0  0  0  0  0  0  0  0  0  0
   57.7930   29.3610   45.8520 O   0  0  0  0  0  0  0  0  0  0  0  0
   57.1570   27.0870   45.8830 C   0  0  0  0  0  0  0  0  0  0  0  0
   58.4800   26.6160   45.9080 C   0  0  0  0  0  0  0  0  0  0  0  0
   58.7420   25.2620   46.1390 C   0  0  0  0  0  0  0  0  0  0  0  0
   57.6850   24.3630   46.3320 C   0  0  0  0  0  0  0  0  0  0  0  0
   57.9350   23.0120   46.5630 O   0  0  0  0  0  0  0  0  0  0  0  0
   56.3660   24.8250   46.2920 C   0  0  0  0  0  0  0  0  0  0  0  0
   56.0970   26.1790   46.0630 C   0  0  0  0  0  0  0  0  0  0  0  0
   54.7770   26.6150   46.0310 O   0  0  0  0  0  0  0  0  0  0  0  0
   58.6580   33.1540   45.9040 C   0  0  0  0  0  0  0  0  0  0  0  0
   59.3280   34.3860   45.9290 C   0  0  0  0  0  0  0  0  0  0  0  0
   60.6560   34.4590   46.3610 C   0  0  0  0  0  0  0  0  0  0  0  0
   61.3220   33.3020   46.7900 C   0  0  0  0  0  0  0  0  0  0  0  0
   62.9980   33.3850   47.3260 S   0  0  0  0  0  0  0  0  0  0  0  0
   63.6210   32.0290   47.1420 O   0  0  0  0  0  0  0  0  0  0  0  0
   63.7440   34.3890   46.4940 O   0  0  0  0  0  0  0  0  0  0  0  0
   63.0450   33.8470   49.0150 N   0  0  0  0  0  0  0  0  0  0  0  0
   64.2870   33.3910   49.6780 C   0  0  0  0  0  0  0  0  0  0  0  0
   64.0830   32.1110   50.5070 C   0  0  0  0  0  0  0  0  0  0  0  0
   63.1080   31.2900   49.9070 O   0  0  0  0  0  0  0  0  0  0  0  0
   61.8290   31.8910   50.0120 C   0  0  0  0  0  0  0  0  0  0  0  0
   61.8330   33.4140   49.7330 C   0  0  0  0  0  0  0  0  0  0  0  0
   60.6490   32.0750   46.7830 C   0  0  0  0  0  0  0  0  0  0  0  0
   59.3220   32.0010   46.3520 C   0  0  0  0  0  0  0  0  0  0  0  0
   57.8192   31.8536   42.8331 H   0  0  0  0  0  0  0  0  0  0  0  0
   58.4566   30.8568   44.1971 H   0  0  0  0  0  0  0  0  0  0  0  0
   56.5156   30.1526   42.1268 H   0  0  0  0  0  0  0  0  0  0  0  0
   57.3522   29.1070   43.3424 H   0  0  0  0  0  0  0  0  0  0  0  0
   55.1137   30.8496   44.3294 H   0  0  0  0  0  0  0  0  0  0  0  0
   54.6798   29.4248   43.3093 H   0  0  0  0  0  0  0  0  0  0  0  0
   59.3135   27.3152   45.7452 H   0  0  0  0  0  0  0  0  0  0  0  0
   59.7809   24.9017   46.1693 H   0  0  0  0  0  0  0  0  0  0  0  0
   57.8280   22.6030   47.4840 H   0  0  0  0  0  0  0  0  0  0  0  0
   55.5349   24.1200   46.4414 H   0  0  0  0  0  0  0  0  0  0  0  0
   58.8062   35.2993   45.6072 H   0  0  0  0  0  0  0  0  0  0  0  0
   61.1795   35.4265   46.3643 H   0  0  0  0  0  0  0  0  0  0  0  0
   65.0455   33.1931   48.9063 H   0  0  0  0  0  0  0  0  0  0  0  0
   64.6060   34.1860   50.3681 H   0  0  0  0  0  0  0  0  0  0  0  0
   65.0340   31.5613   50.5658 H   0  0  0  0  0  0  0  0  0  0  0  0
   63.7451   32.3885   51.5164 H   0  0  0  0  0  0  0  0  0  0  0  0
   61.1572   31.4069   49.2879 H   0  0  0  0  0  0  0  0  0  0  0  0
   61.4939   31.7550   51.0508 H   0  0  0  0  0  0  0  0  0  0  0  0
   60.9522   33.6645   49.1236 H   0  0  0  0  0  0  0  0  0  0  0  0
   61.8116   33.9341   50.7020 H   0  0  0  0  0  0  0  0  0  0  0  0
   61.1672   31.1645   47.1184 H   0  0  0  0  0  0  0  0  0  0  0  0
   58.7953   31.0353   46.3637 H   0  0  0  0  0  0  0  0  0  0  0  0
  1  2  2  0
  2  3  1  0
  3  4  1  0
  4  5  1  0
  5  6  1  0
  6  7  1  0
  7  8  1  0
  8  9  2  0
  8 10  1  0
 10 11  2  0
 11 12  1  0
 12 13  2  0
 13 14  1  0
 13 15  1  0
 15 16  2  0
 16 17  1  0
  2 18  1  0
 18 19  2  0
 19 20  1  0
 20 21  2  0
 21 22  1  0
 22 23  2  0
 22 24  2  0
 22 25  1  0
 25 26  1  0
 26 27  1  0
 27 28  1  0
 28 29  1  0
 29 30  1  0
 21 31  1  0
 31 32  2  0
 16 10  1  0
 32 18  1  0
 30 25  1  0
  4 33  1  0
  4 34  1  0
  5 35  1  0
  5 36  1  0
  6 37  1  0
  6 38  1  0
 11 39  1  0
 12 40  1  0
 14 41  1  0
 15 42  1  0
 19 43  1  0
 20 44  1  0
 26 45  1  0
 26 46  1  0
 27 47  1  0
 27 48  1  0
 29 49  1  0
 29 50  1  0
 30 51  1  0
 30 52  1  0
 31 53  1  0
 32 54  1  0
M  CHG  3   3  -1   7  -1  17  -1
M  END
>  <UniqueID>  (52) 
50

>  <SMILES>  (52) 
O=C([N-]CCC[N-]C(=O)c1ccc(O)cc1[O-])c1ccc(S(=O)(=O)N2CCOCC2)cc1

>  <Energy>  (52) 
70.12928668354726

>  <Genealogy>  (52) 
O=C([N-]CCC[N-]C(=O)c1ccc(O)cc1[O-])c1ccc(S(=O)(=O)N2CCOCC2)cc1 (protonated)
O=C([N-]CCC[N-]C(=O)c1ccc(O)cc1[O-])c1ccc(S(=O)(=O)N2CCOCC2)cc1 (3D coordinates assigned)
O=C([N-]CCC[N-]C(=O)c1ccc(O)cc1[O-])c1ccc(S(=O)(=O)N2CCOCC2)cc1 (nonaromatic ring conformer: 70.12928668354726 kcal/mol)

>  <smiles>  (52) 
O=C(NCCCNC(=O)c1ccc(O)cc1O)c1ccc(S(=O)(=O)N2CCOCC2)cc1

>  <score_type>  (52) 
oracle

>  <origin>  (52) 
adg

>  <m_score__min__energy>  (52) 
-16.809999999999999

>  <m_primary>  (52) 
energy

$$$$
52:0
     RDKit          3D

 31 32  0  0  0  0  0  0  0  0999 V2000
   56.9530   24.1500   47.5490 O   0  0  0  0  0  0  0  0  0  0  0  0
   57.3330   24.7350   46.4980 C   0  0  0  0  0  0  0  0  0  0  0  0
   56.7140   24.3800   45.1850 C   0  0  0  0  0  0  0  0  0  0  0  0
   55.2610   24.0710   45.3710 C   0  0  0  0  0  0  0  0  0  0  0  0
   54.6510   22.8500   45.1770 C   0  0  0  0  0  0  0  0  0  0  0  0
   53.3070   23.0760   45.3930 C   0  0  0  0  0  0  0  0  0  0  0  0
   52.3220   22.1020   45.3060 O   0  0  0  0  0  0  0  0  0  0  0  0
   53.0460   24.3640   45.6970 N   0  0  0  0  0  0  0  0  0  0  0  0
   54.2520   24.9630   45.6720 C   0  0  0  0  0  0  0  0  0  0  0  0
   54.4320   26.3190   45.9160 O   0  0  0  0  0  0  0  0  0  0  0  0
   58.3850   25.7020   46.5460 N   0  0  0  0  0  0  0  0  0  0  0  0
   58.1440   27.1350   46.4460 C   0  0  0  0  0  0  0  0  0  0  0  0
   57.5900   27.4650   45.0610 C   0  0  0  0  0  0  0  0  0  0  0  0
   57.5800   28.9560   44.8350 C   0  0  0  0  0  0  0  0  0  0  0  0
   58.7950   29.6450   44.6690 C   0  0  0  0  0  0  0  0  0  0  0  0
   58.7990   31.0220   44.4290 C   0  0  0  0  0  0  0  0  0  0  0  0
   57.5930   31.7210   44.3430 C   0  0  0  0  0  0  0  0  0  0  0  0
   56.3800   31.0450   44.4930 C   0  0  0  0  0  0  0  0  0  0  0  0
   56.3670   29.6660   44.7330 C   0  0  0  0  0  0  0  0  0  0  0  0
   55.1470   29.0110   44.8650 O   0  0  0  0  0  0  0  0  0  0  0  0
   56.8204   25.2269   44.4912 H   0  0  0  0  0  0  0  0  0  0  0  0
   57.2217   23.4950   44.7739 H   0  0  0  0  0  0  0  0  0  0  0  0
   55.1329   21.8986   44.9075 H   0  0  0  0  0  0  0  0  0  0  0  0
   57.4166   27.4385   47.2133 H   0  0  0  0  0  0  0  0  0  0  0  0
   59.0890   27.6765   46.6005 H   0  0  0  0  0  0  0  0  0  0  0  0
   58.2204   26.9876   44.2963 H   0  0  0  0  0  0  0  0  0  0  0  0
   56.5585   27.0890   44.9927 H   0  0  0  0  0  0  0  0  0  0  0  0
   59.7471   29.0973   44.7284 H   0  0  0  0  0  0  0  0  0  0  0  0
   59.7532   31.5557   44.3077 H   0  0  0  0  0  0  0  0  0  0  0  0
   57.5984   32.8051   44.1569 H   0  0  0  0  0  0  0  0  0  0  0  0
   55.4318   31.5981   44.4223 H   0  0  0  0  0  0  0  0  0  0  0  0
  1  2  2  0
  2  3  1  0
  3  4  1  0
  4  5  1  0
  5  6  2  0
  6  7  1  0
  6  8  1  0
  8  9  1  0
  9 10  1  0
  2 11  1  0
 11 12  1  0
 12 13  1  0
 13 14  1  0
 14 15  2  0
 15 16  1  0
 16 17  2  0
 17 18  1  0
 18 19  2  0
 19 20  1  0
  9  4  2  0
 19 14  1  0
  3 21  1  0
  3 22  1  0
  5 23  1  0
 12 24  1  0
 12 25  1  0
 13 26  1  0
 13 27  1  0
 15 28  1  0
 16 29  1  0
 17 30  1  0
 18 31  1  0
M  CHG  5   7  -1   8  -1  10  -1  11  -1  20  -1
M  END
>  <UniqueID>  (53) 
51

>  <SMILES>  (53) 
O=C(Cc1cc([O-])[n-]c1[O-])[N-]CCc1ccccc1[O-]

>  <Energy>  (53) 
50.85520585826828

>  <Genealogy>  (53) 
O=C(Cc1cc([O-])[n-]c1[O-])[N-]CCc1ccccc1[O-] (protonated)
O=C(Cc1cc([O-])[n-]c1[O-])[N-]CCc1ccccc1[O-] (3D coordinates assigned)
O=C(Cc1cc([O-])[n-]c1[O-])[N-]CCc1ccccc1[O-] (optimized conformer: 50.85520585826828 kcal/mol)

>  <smiles>  (53) 
O=C(Cc1cc(O)[nH]c1O)NCCc1ccccc1O

>  <score_type>  (53) 
oracle

>  <origin>  (53) 
adg

>  <m_score__min__energy>  (53) 
-18.710000000000001

>  <m_primary>  (53) 
energy

$$$$
53:0
     RDKit          3D

 42 44  0  0  0  0  0  0  0  0999 V2000
   59.5780   33.9440   46.2960 C   0  0  0  0  0  0  0  0  0  0  0  0
   58.4880   32.9140   47.3250 S   0  0  0  0  0  0  0  0  0  0  0  0
   58.2370   31.6740   46.0530 C   0  0  0  0  0  0  0  0  0  0  0  0
   58.4270   32.0080   44.7070 C   0  0  0  0  0  0  0  0  0  0  0  0
   58.1780   31.0620   43.7080 C   0  0  0  0  0  0  0  0  0  0  0  0
   57.7400   29.7790   44.0490 C   0  0  0  0  0  0  0  0  0  0  0  0
   57.5720   29.4260   45.3970 C   0  0  0  0  0  0  0  0  0  0  0  0
   57.0850   28.0790   45.7460 C   0  0  0  0  0  0  0  0  0  0  0  0
   55.8350   27.6600   45.4750 N   0  0  0  0  0  0  0  0  0  0  0  0
   55.7910   26.4280   46.0180 C   0  0  0  0  0  0  0  0  0  0  0  0
   54.7640   25.7020   45.9740 O   0  0  0  0  0  0  0  0  0  0  0  0
   56.9340   26.0340   46.6130 N   0  0  0  0  0  0  0  0  0  0  0  0
   57.7590   27.0820   46.4350 C   0  0  0  0  0  0  0  0  0  0  0  0
   59.1750   27.0640   46.8380 C   0  0  0  0  0  0  0  0  0  0  0  0
   60.0330   26.5720   46.0550 O   0  0  0  0  0  0  0  0  0  0  0  0
   59.5810   27.6920   48.0600 N   0  0  0  0  0  0  0  0  0  0  0  0
   60.2290   28.9620   48.2000 C   0  0  0  0  0  0  0  0  0  0  0  0
   60.2310   29.6700   49.4140 C   0  0  0  0  0  0  0  0  0  0  0  0
   60.8260   30.9320   49.4940 C   0  0  0  0  0  0  0  0  0  0  0  0
   61.4170   31.5120   48.3570 C   0  0  0  0  0  0  0  0  0  0  0  0
   62.0340   32.8060   48.3890 N   0  0  0  0  0  0  0  0  0  0  0  0
   63.6580   33.1680   47.9020 S   0  0  0  0  0  0  0  0  0  0  0  0
   64.7790   32.9070   49.2600 C   0  0  0  0  0  0  0  0  0  0  0  0
   64.0410   32.2480   46.7780 O   0  0  0  0  0  0  0  0  0  0  0  0
   63.7460   34.5880   47.4150 O   0  0  0  0  0  0  0  0  0  0  0  0
   61.3920   30.8140   47.1450 C   0  0  0  0  0  0  0  0  0  0  0  0
   60.7980   29.5510   47.0650 C   0  0  0  0  0  0  0  0  0  0  0  0
   57.8090   30.3850   46.3970 C   0  0  0  0  0  0  0  0  0  0  0  0
   60.2242   34.5546   46.9437 H   0  0  0  0  0  0  0  0  0  0  0  0
   60.2014   33.2974   45.6610 H   0  0  0  0  0  0  0  0  0  0  0  0
   58.9676   34.6030   45.6610 H   0  0  0  0  0  0  0  0  0  0  0  0
   58.7727   33.0162   44.4348 H   0  0  0  0  0  0  0  0  0  0  0  0
   58.3271   31.3280   42.6511 H   0  0  0  0  0  0  0  0  0  0  0  0
   57.5265   29.0442   43.2588 H   0  0  0  0  0  0  0  0  0  0  0  0
   59.7619   29.2286   50.3057 H   0  0  0  0  0  0  0  0  0  0  0  0
   60.8322   31.4745   50.4509 H   0  0  0  0  0  0  0  0  0  0  0  0
   64.2394   33.0326   50.2103 H   0  0  0  0  0  0  0  0  0  0  0  0
   65.1915   31.8888   49.2044 H   0  0  0  0  0  0  0  0  0  0  0  0
   65.5988   33.6383   49.2044 H   0  0  0  0  0  0  0  0  0  0  0  0
   61.8433   31.2625   46.2477 H   0  0  0  0  0  0  0  0  0  0  0  0
   60.7777   29.0166   46.1037 H   0  0  0  0  0  0  0  0  0  0  0  0
   57.6578   30.1223   47.4544 H   0  0  0  0  0  0  0  0  0  0  0  0
  1  2  1  0
  2  3  1  0
  3  4  2  0
  4  5  1  0
  5  6  2  0
  6  7  1  0
  7  8  1  0
  8  9  1  0
  9 10  1  0
 10 11  2  0
 10 12  1  0
 12 13  1  0
 13 14  1  0
 14 15  2  0
 14 16  1  0
 16 17  1  0
 17 18  2  0
 18 19  1  0
 19 20  2  0
 20 21  1  0
 21 22  1  0
 22 23  1  0
 22 24  2  0
 22 25  2  0
 20 26  1  0
 26 27  2  0
  7 28  2  0
 28  3  1  0
 13  8  2  0
 27 17  1  0
  1 29  1  0
  1 30  1  0
  1 31  1  0
  4 32  1  0
  5 33  1  0
  6 34  1  0
 18 35  1  0
 19 36  1  0
 23 37  1  0
 23 38  1  0
 23 39  1  0
 26 40  1  0
 27 41  1  0
 28 42  1  0
M  CHG  4   9  -1  12  -1  16  -1  21  -1
M  END
>  <UniqueID>  (54) 
52

>  <SMILES>  (54) 
CSc1cccc(-c2[n-]c(=O)[n-]c2C(=O)[N-]c2ccc([N-]S(C)(=O)=O)cc2)c1

>  <Energy>  (54) 
74.2987077160891

>  <Genealogy>  (54) 
CSc1cccc(-c2[n-]c(=O)[n-]c2C(=O)[N-]c2ccc([N-]S(C)(=O)=O)cc2)c1 (protonated)
CSc1cccc(-c2[n-]c(=O)[n-]c2C(=O)[N-]c2ccc([N-]S(C)(=O)=O)cc2)c1 (3D coordinates assigned)
CSc1cccc(-c2[n-]c(=O)[n-]c2C(=O)[N-]c2ccc([N-]S(C)(=O)=O)cc2)c1 (optimized conformer: 74.2987077160891 kcal/mol)

>  <smiles>  (54) 
CSc1cccc(-c2[nH]c(=O)[nH]c2C(=O)Nc2ccc(NS(C)(=O)=O)cc2)c1

>  <score_type>  (54) 
oracle

>  <origin>  (54) 
adg

>  <m_score__min__energy>  (54) 
-14.25

>  <m_primary>  (54) 
energy

$$$$
54:0
     RDKit          3D

 61 64  0  0  0  0  0  0  0  0999 V2000
   60.4110   32.3060   51.2780 C   0  0  0  0  0  0  0  0  0  0  0  0
   60.0720   30.8880   51.0660 N   0  0  0  0  0  0  0  0  0  0  0  0
   61.2370   30.0880   50.6050 C   0  0  0  0  0  0  0  0  0  0  0  0
   61.1410   29.6190   49.1400 C   0  0  0  0  0  0  0  0  0  0  0  0
   60.5340   30.7160   48.2560 C   0  0  0  0  0  0  0  0  0  0  0  0
   60.5340   30.2870   46.7780 C   0  0  0  0  0  0  0  0  0  0  0  0
   60.2770   28.8280   46.6720 N   0  0  0  0  0  0  0  0  0  0  0  0
   58.9630   28.4310   47.2250 C   0  0  0  0  0  0  0  0  0  0  0  0
   57.7910   28.9890   46.3910 C   0  0  0  0  0  0  0  0  0  0  0  0
   58.2350   29.2970   45.0250 N   0  0  0  0  0  0  0  0  0  0  0  0
   57.8290   30.5170   44.3730 C   0  0  0  0  0  0  0  0  0  0  0  0
   58.4730   30.9500   43.3790 O   0  0  0  0  0  0  0  0  0  0  0  0
   56.7080   31.2570   44.8710 N   0  0  0  0  0  0  0  0  0  0  0  0
   56.6640   32.7130   44.9270 C   0  0  0  0  0  0  0  0  0  0  0  0
   57.7690   33.2210   45.8000 C   0  0  0  0  0  0  0  0  0  0  0  0
   57.6890   33.4750   47.1680 C   0  0  0  0  0  0  0  0  0  0  0  0
   58.8300   33.9730   47.7120 N   0  0  0  0  0  0  0  0  0  0  0  0
   59.8160   34.1160   46.7970 C   0  0  0  0  0  0  0  0  0  0  0  0
   61.1030   34.5890   47.0830 O   0  0  0  0  0  0  0  0  0  0  0  0
   62.0790   33.8440   47.7540 C   0  0  0  0  0  0  0  0  0  0  0  0
   62.4280   34.1180   49.0890 C   0  0  0  0  0  0  0  0  0  0  0  0
   63.4240   33.3710   49.7240 C   0  0  0  0  0  0  0  0  0  0  0  0
   64.0830   32.3520   49.0330 C   0  0  0  0  0  0  0  0  0  0  0  0
   63.7530   32.0860   47.7000 C   0  0  0  0  0  0  0  0  0  0  0  0
   62.7590   32.8350   47.0620 C   0  0  0  0  0  0  0  0  0  0  0  0
   59.3210   33.6150   45.2710 S   0  0  0  0  0  0  0  0  0  0  0  0
   59.2190   28.3970   44.4160 C   0  0  0  0  0  0  0  0  0  0  0  0
   60.4780   28.2910   45.3050 C   0  0  0  0  0  0  0  0  0  0  0  0
   59.1140   31.0920   48.7480 C   0  0  0  0  0  0  0  0  0  0  0  0
   58.8670   30.7290   50.2270 C   0  0  0  0  0  0  0  0  0  0  0  0
   60.4607   32.5138   52.3571 H   0  0  0  0  0  0  0  0  0  0  0  0
   61.3862   32.5226   50.8176 H   0  0  0  0  0  0  0  0  0  0  0  0
   59.6392   32.9403   50.8176 H   0  0  0  0  0  0  0  0  0  0  0  0
   62.1422   30.7038   50.7115 H   0  0  0  0  0  0  0  0  0  0  0  0
   61.2633   29.1807   51.2264 H   0  0  0  0  0  0  0  0  0  0  0  0
   62.1488   29.3759   48.7723 H   0  0  0  0  0  0  0  0  0  0  0  0
   60.4930   28.7313   49.0955 H   0  0  0  0  0  0  0  0  0  0  0  0
   61.1592   31.6175   48.3358 H   0  0  0  0  0  0  0  0  0  0  0  0
   59.7470   30.8355   46.2396 H   0  0  0  0  0  0  0  0  0  0  0  0
   61.5157   30.5135   46.3365 H   0  0  0  0  0  0  0  0  0  0  0  0
   58.8997   27.3329   47.2359 H   0  0  0  0  0  0  0  0  0  0  0  0
   58.8836   28.8449   48.2411 H   0  0  0  0  0  0  0  0  0  0  0  0
   56.9864   28.2401   46.3503 H   0  0  0  0  0  0  0  0  0  0  0  0
   57.4248   29.9123   46.8637 H   0  0  0  0  0  0  0  0  0  0  0  0
   56.7832   33.1212   43.9125 H   0  0  0  0  0  0  0  0  0  0  0  0
   55.6969   33.0312   45.3435 H   0  0  0  0  0  0  0  0  0  0  0  0
   56.7792   33.2881   47.7573 H   0  0  0  0  0  0  0  0  0  0  0  0
   58.9340   34.1890   48.7280 H   0  0  0  0  0  0  0  0  0  0  0  0
   61.9150   34.9233   49.6352 H   0  0  0  0  0  0  0  0  0  0  0  0
   63.6892   33.5860   50.7697 H   0  0  0  0  0  0  0  0  0  0  0  0
   64.8608   31.7591   49.5365 H   0  0  0  0  0  0  0  0  0  0  0  0
   64.2756   31.2873   47.1532 H   0  0  0  0  0  0  0  0  0  0  0  0
   62.5102   32.6300   46.0103 H   0  0  0  0  0  0  0  0  0  0  0  0
   58.7729   27.3983   44.2996 H   0  0  0  0  0  0  0  0  0  0  0  0
   59.5094   28.7992   43.4342 H   0  0  0  0  0  0  0  0  0  0  0  0
   60.7612   27.2311   45.3843 H   0  0  0  0  0  0  0  0  0  0  0  0
   61.2645   28.8956   44.8297 H   0  0  0  0  0  0  0  0  0  0  0  0
   58.9779   32.1768   48.6269 H   0  0  0  0  0  0  0  0  0  0  0  0
   58.3963   30.5156   48.1458 H   0  0  0  0  0  0  0  0  0  0  0  0
   58.0756   31.3831   50.6216 H   0  0  0  0  0  0  0  0  0  0  0  0
   58.5769   29.6686   50.2630 H   0  0  0  0  0  0  0  0  0  0  0  0
  1  2  1  0
  2  3  1  0
  3  4  1  0
  4  5  1  0
  5  6  1  0
  6  7  1  0
  7  8  1  0
  8  9  1  0
  9 10  1  0
 10 11  1  0
 11 12  2  0
 11 13  1  0
 13 14  1  0
 14 15  1  0
 15 16  2  0
 16 17  1  0
 17 18  2  0
 18 19  1  0
 19 20  1  0
 20 21  2  0
 21 22  1  0
 22 23  2  0
 23 24  1  0
 24 25  2  0
 18 26  1  0
 10 27  1  0
 27 28  1  0
  5 29  1  0
 29 30  1  0
 30  2  1  0
 28  7  1  0
 26 15  1  0
 25 20  1  0
  1 31  1  0
  1 32  1  0
  1 33  1  0
  3 34  1  0
  3 35  1  0
  4 36  1  0
  4 37  1  0
  5 38  1  0
  6 39  1  0
  6 40  1  0
  8 41  1  0
  8 42  1  0
  9 43  1  0
  9 44  1  0
 14 45  1  0
 14 46  1  0
 16 47  1  0
 17 48  1  0
 21 49  1  0
 22 50  1  0
 23 51  1  0
 24 52  1  0
 25 53  1  0
 27 54  1  0
 27 55  1  0
 28 56  1  0
 28 57  1  0
 29 58  1  0
 29 59  1  0
 30 60  1  0
 30 61  1  0
M  CHG  2  13  -1  17   1
M  END
>  <UniqueID>  (55) 
53

>  <SMILES>  (55) 
CN1CCC(CN2CCN(C(=O)[N-]Cc3c[nH+]c(Oc4ccccc4)s3)CC2)CC1

>  <Energy>  (55) 
111.3095841035379

>  <Genealogy>  (55) 
CN1CCC(CN2CCN(C(=O)[N-]Cc3c[nH+]c(Oc4ccccc4)s3)CC2)CC1 (protonated)
CN1CCC(CN2CCN(C(=O)[N-]Cc3c[nH+]c(Oc4ccccc4)s3)CC2)CC1 (3D coordinates assigned)
CN1CCC(CN2CCN(C(=O)[N-]Cc3c[nH+]c(Oc4ccccc4)s3)CC2)CC1 (nonaromatic ring conformer: 111.3095841035379 kcal/mol)

>  <smiles>  (55) 
CN1CCC(CN2CCN(C(=O)NCc3cnc(Oc4ccccc4)s3)CC2)CC1

>  <score_type>  (55) 
oracle

>  <origin>  (55) 
adg

>  <m_score__min__energy>  (55) 
-8.0800000000000001

>  <m_primary>  (55) 
energy

$$$$
55:0
     RDKit          3D

 53 55  0  0  0  0  0  0  0  0999 V2000
   64.3460   33.0260   50.6130 C   0  0  0  0  0  0  0  0  0  0  0  0
   63.5430   32.4560   49.4790 C   0  0  0  0  0  0  0  0  0  0  0  0
   63.7970   32.8640   48.1600 C   0  0  0  0  0  0  0  0  0  0  0  0
   63.0730   32.3090   47.1020 C   0  0  0  0  0  0  0  0  0  0  0  0
   62.1060   31.3320   47.3500 C   0  0  0  0  0  0  0  0  0  0  0  0
   61.8540   30.8950   48.6580 C   0  0  0  0  0  0  0  0  0  0  0  0
   60.8830   29.8980   48.8470 O   0  0  0  0  0  0  0  0  0  0  0  0
   59.4920   30.0340   48.5560 C   0  0  0  0  0  0  0  0  0  0  0  0
   58.7730   30.7150   49.6780 C   0  0  0  0  0  0  0  0  0  0  0  0
   58.0970   30.0340   50.4960 O   0  0  0  0  0  0  0  0  0  0  0  0
   58.7800   32.1440   49.7520 N   0  0  0  0  0  0  0  0  0  0  0  0
   59.0460   33.0340   48.6610 C   0  0  0  0  0  0  0  0  0  0  0  0
   60.2590   33.7390   48.5590 C   0  0  0  0  0  0  0  0  0  0  0  0
   60.4980   34.5680   47.4600 C   0  0  0  0  0  0  0  0  0  0  0  0
   59.5310   34.7070   46.4600 C   0  0  0  0  0  0  0  0  0  0  0  0
   58.3130   34.0200   46.5560 C   0  0  0  0  0  0  0  0  0  0  0  0
   57.3100   34.1610   45.4810 C   0  0  0  0  0  0  0  0  0  0  0  0
   57.1270   33.2800   44.4850 C   0  0  0  0  0  0  0  0  0  0  0  0
   57.8540   32.0010   44.3360 C   0  0  0  0  0  0  0  0  0  0  0  0
   58.7170   31.8580   43.4260 O   0  0  0  0  0  0  0  0  0  0  0  0
   57.5890   30.9270   45.2500 N   0  0  0  0  0  0  0  0  0  0  0  0
   58.3400   29.7020   45.2510 C   0  0  0  0  0  0  0  0  0  0  0  0
   59.7450   29.7570   45.2640 C   0  0  0  0  0  0  0  0  0  0  0  0
   60.5020   28.5880   45.3470 C   0  0  0  0  0  0  0  0  0  0  0  0
   59.8670   27.3500   45.4260 C   0  0  0  0  0  0  0  0  0  0  0  0
   58.4730   27.2760   45.4160 C   0  0  0  0  0  0  0  0  0  0  0  0
   57.6890   28.4420   45.3230 C   0  0  0  0  0  0  0  0  0  0  0  0
   56.2100   28.3120   45.2630 C   0  0  0  0  0  0  0  0  0  0  0  0
   55.5830   27.0880   45.6380 N   0  0  0  0  0  0  0  0  0  0  0  0
   55.4970   29.2640   44.8510 O   0  0  0  0  0  0  0  0  0  0  0  0
   58.0950   33.1550   47.6410 C   0  0  0  0  0  0  0  0  0  0  0  0
   62.5800   31.4640   49.7250 C   0  0  0  0  0  0  0  0  0  0  0  0
   63.9035   32.7119   51.5698 H   0  0  0  0  0  0  0  0  0  0  0  0
   65.3812   32.6594   50.5499 H   0  0  0  0  0  0  0  0  0  0  0  0
   64.3414   34.1242   50.5499 H   0  0  0  0  0  0  0  0  0  0  0  0
   64.5679   33.6225   47.9591 H   0  0  0  0  0  0  0  0  0  0  0  0
   63.2649   32.6421   46.0714 H   0  0  0  0  0  0  0  0  0  0  0  0
   61.5376   30.9020   46.5121 H   0  0  0  0  0  0  0  0  0  0  0  0
   59.3730   30.6293   47.6387 H   0  0  0  0  0  0  0  0  0  0  0  0
   59.0623   29.0302   48.4227 H   0  0  0  0  0  0  0  0  0  0  0  0
   61.0208   33.6374   49.3460 H   0  0  0  0  0  0  0  0  0  0  0  0
   61.4502   35.1131   47.3813 H   0  0  0  0  0  0  0  0  0  0  0  0
   59.7266   35.3577   45.5949 H   0  0  0  0  0  0  0  0  0  0  0  0
   56.6662   35.0528   45.4978 H   0  0  0  0  0  0  0  0  0  0  0  0
   56.3773   33.5290   43.7195 H   0  0  0  0  0  0  0  0  0  0  0  0
   56.7810   31.0200   45.9070 H   0  0  0  0  0  0  0  0  0  0  0  0
   60.2523   30.7314   45.2082 H   0  0  0  0  0  0  0  0  0  0  0  0
   61.6006   28.6435   45.3501 H   0  0  0  0  0  0  0  0  0  0  0  0
   60.4652   26.4296   45.4964 H   0  0  0  0  0  0  0  0  0  0  0  0
   57.9808   26.2945   45.4816 H   0  0  0  0  0  0  0  0  0  0  0  0
   54.8450   27.0670   46.3770 H   0  0  0  0  0  0  0  0  0  0  0  0
   57.1670   32.5664   47.6897 H   0  0  0  0  0  0  0  0  0  0  0  0
   62.3908   31.1289   50.7555 H   0  0  0  0  0  0  0  0  0  0  0  0
  1  2  1  0
  2  3  2  0
  3  4  1  0
  4  5  2  0
  5  6  1  0
  6  7  1  0
  7  8  1  0
  8  9  1  0
  9 10  2  0
  9 11  1  0
 11 12  1  0
 12 13  2  0
 13 14  1  0
 14 15  2  0
 15 16  1  0
 16 17  1  0
 17 18  2  3
 18 19  1  0
 19 20  2  0
 19 21  1  0
 21 22  1  0
 22 23  2  0
 23 24  1  0
 24 25  2  0
 25 26  1  0
 26 27  2  0
 27 28  1  0
 28 29  1  0
 28 30  2  0
 16 31  2  0
  6 32  2  0
 32  2  1  0
 31 12  1  0
 27 22  1  0
  1 33  1  0
  1 34  1  0
  1 35  1  0
  3 36  1  0
  4 37  1  0
  5 38  1  0
  8 39  1  0
  8 40  1  0
 13 41  1  0
 14 42  1  0
 15 43  1  0
 17 44  1  0
 18 45  1  0
 21 46  1  0
 23 47  1  0
 24 48  1  0
 25 49  1  0
 26 50  1  0
 29 51  1  0
 31 52  1  0
 32 53  1  0
M  CHG  2  11  -1  29  -1
M  END
>  <UniqueID>  (56) 
54

>  <SMILES>  (56) 
Cc1cccc(OCC(=O)[N-]c2cccc(C=CC(=O)Nc3ccccc3C([NH-])=O)c2)c1

>  <Energy>  (56) 
71.73749840362471

>  <Genealogy>  (56) 
Cc1cccc(OCC(=O)[N-]c2cccc(C=CC(=O)Nc3ccccc3C([NH-])=O)c2)c1 (protonated)
Cc1cccc(OCC(=O)[N-]c2cccc(C=CC(=O)Nc3ccccc3C([NH-])=O)c2)c1 (3D coordinates assigned)
Cc1cccc(OCC(=O)[N-]c2cccc(C=CC(=O)Nc3ccccc3C([NH-])=O)c2)c1 (optimized conformer: 71.73749840362471 kcal/mol)

>  <smiles>  (56) 
Cc1cccc(OCC(=O)Nc2cccc(C=CC(=O)Nc3ccccc3C(N)=O)c2)c1

>  <score_type>  (56) 
oracle

>  <origin>  (56) 
adg

>  <m_score__min__energy>  (56) 
-13.94

>  <m_primary>  (56) 
energy

$$$$
56:0
     RDKit          3D

 68 71  0  0  0  0  0  0  0  0999 V2000
   61.1550   34.2450   49.4340 C   0  0  0  0  0  0  0  0  0  0  0  0
   59.6370   34.2170   49.6150 C   0  0  0  0  0  0  0  0  0  0  0  0
   59.1760   32.8810   50.0660 N   0  0  0  0  0  0  0  0  0  0  0  0
   59.2900   31.7590   49.2710 C   0  0  0  0  0  0  0  0  0  0  0  0
   59.9260   31.7810   47.8940 C   0  0  0  0  0  0  0  0  0  0  0  0
   59.2710   32.7720   47.0390 N   0  0  0  0  0  0  0  0  0  0  0  0
   58.6800   32.4590   45.7650 C   0  0  0  0  0  0  0  0  0  0  0  0
   58.7580   33.3980   44.7250 C   0  0  0  0  0  0  0  0  0  0  0  0
   58.2120   33.1150   43.4700 C   0  0  0  0  0  0  0  0  0  0  0  0
   57.5860   31.8900   43.2390 C   0  0  0  0  0  0  0  0  0  0  0  0
   57.4980   30.9400   44.2640 C   0  0  0  0  0  0  0  0  0  0  0  0
   56.7420   29.3750   43.9610 S   0  0  0  0  0  0  0  0  0  0  0  0
   55.5550   29.2150   44.8700 O   0  0  0  0  0  0  0  0  0  0  0  0
   56.2410   29.3460   42.5430 O   0  0  0  0  0  0  0  0  0  0  0  0
   57.8500   28.0390   44.2010 N   0  0  0  0  0  0  0  0  0  0  0  0
   59.2410   28.4860   44.4320 C   0  0  0  0  0  0  0  0  0  0  0  0
   59.6450   28.4420   45.9160 C   0  0  0  0  0  0  0  0  0  0  0  0
   58.5190   28.6320   46.7400 O   0  0  0  0  0  0  0  0  0  0  0  0
   57.6750   27.5000   46.6590 C   0  0  0  0  0  0  0  0  0  0  0  0
   57.3690   27.0700   45.2040 C   0  0  0  0  0  0  0  0  0  0  0  0
   58.0290   31.2330   45.5290 C   0  0  0  0  0  0  0  0  0  0  0  0
   58.7730   30.5420   49.7190 C   0  0  0  0  0  0  0  0  0  0  0  0
   58.1680   30.4700   50.9640 C   0  0  0  0  0  0  0  0  0  0  0  0
   57.7040   29.3610   51.3490 O   0  0  0  0  0  0  0  0  0  0  0  0
   58.0800   31.5830   51.7550 N   0  0  0  0  0  0  0  0  0  0  0  0
   57.3880   31.5140   53.0610 C   0  0  0  0  0  0  0  0  0  0  0  0
   56.0760   30.7850   52.9200 C   0  0  0  0  0  0  0  0  0  0  0  0
   55.7770   29.6930   53.7500 C   0  0  0  0  0  0  0  0  0  0  0  0
   54.5440   29.0440   53.6420 C   0  0  0  0  0  0  0  0  0  0  0  0
   53.5950   29.4840   52.7160 C   0  0  0  0  0  0  0  0  0  0  0  0
   53.8730   30.5920   51.8940 C   0  0  0  0  0  0  0  0  0  0  0  0
   52.9340   31.0690   50.9180 N   0  0  0  0  0  0  0  0  0  0  0  0
   51.8170   31.9340   51.1580 C   0  0  0  0  0  0  0  0  0  0  0  0
   51.0850   31.8370   52.4530 C   0  0  0  0  0  0  0  0  0  0  0  0
   51.3970   32.7150   50.2620 O   0  0  0  0  0  0  0  0  0  0  0  0
   55.1190   31.2220   51.9900 C   0  0  0  0  0  0  0  0  0  0  0  0
   58.5840   32.7790   51.3070 C   0  0  0  0  0  0  0  0  0  0  0  0
   58.5010   33.8030   52.0460 O   0  0  0  0  0  0  0  0  0  0  0  0
   61.6418   34.2540   50.4204 H   0  0  0  0  0  0  0  0  0  0  0  0
   61.4742   33.3526   48.8757 H   0  0  0  0  0  0  0  0  0  0  0  0
   61.4411   35.1486   48.8757 H   0  0  0  0  0  0  0  0  0  0  0  0
   59.3512   34.9679   50.3663 H   0  0  0  0  0  0  0  0  0  0  0  0
   59.1661   34.4397   48.6461 H   0  0  0  0  0  0  0  0  0  0  0  0
   60.9915   32.0362   47.9921 H   0  0  0  0  0  0  0  0  0  0  0  0
   59.8129   30.7875   47.4356 H   0  0  0  0  0  0  0  0  0  0  0  0
   59.1910   33.7550   47.3890 H   0  0  0  0  0  0  0  0  0  0  0  0
   59.2530   34.3648   44.8990 H   0  0  0  0  0  0  0  0  0  0  0  0
   58.2760   33.8596   42.6629 H   0  0  0  0  0  0  0  0  0  0  0  0
   57.1603   31.6697   42.2489 H   0  0  0  0  0  0  0  0  0  0  0  0
   59.9189   27.8318   43.8641 H   0  0  0  0  0  0  0  0  0  0  0  0
   59.3106   29.5329   44.1017 H   0  0  0  0  0  0  0  0  0  0  0  0
   60.0961   27.4639   46.1394 H   0  0  0  0  0  0  0  0  0  0  0  0
   60.3686   29.2471   46.1115 H   0  0  0  0  0  0  0  0  0  0  0  0
   58.1645   26.6613   47.1757 H   0  0  0  0  0  0  0  0  0  0  0  0
   56.7177   27.7721   47.1275 H   0  0  0  0  0  0  0  0  0  0  0  0
   57.8546   26.1011   45.0158 H   0  0  0  0  0  0  0  0  0  0  0  0
   56.2753   27.0090   45.1031 H   0  0  0  0  0  0  0  0  0  0  0  0
   57.9360   30.4991   46.3431 H   0  0  0  0  0  0  0  0  0  0  0  0
   58.8454   29.6446   49.0870 H   0  0  0  0  0  0  0  0  0  0  0  0
   58.0247   30.9793   53.7812 H   0  0  0  0  0  0  0  0  0  0  0  0
   57.1929   32.5363   53.4170 H   0  0  0  0  0  0  0  0  0  0  0  0
   56.5157   29.3470   54.4879 H   0  0  0  0  0  0  0  0  0  0  0  0
   54.3198   28.1830   54.2889 H   0  0  0  0  0  0  0  0  0  0  0  0
   52.6296   28.9639   52.6293 H   0  0  0  0  0  0  0  0  0  0  0  0
   51.7981   31.9315   53.2852 H   0  0  0  0  0  0  0  0  0  0  0  0
   50.3404   32.6443   52.5147 H   0  0  0  0  0  0  0  0  0  0  0  0
   50.5764   30.8636   52.5147 H   0  0  0  0  0  0  0  0  0  0  0  0
   55.3515   32.0698   51.3289 H   0  0  0  0  0  0  0  0  0  0  0  0
  1  2  1  0
  2  3  1  0
  3  4  1  0
  4  5  1  0
  5  6  1  0
  6  7  1  0
  7  8  2  0
  8  9  1  0
  9 10  2  0
 10 11  1  0
 11 12  1  0
 12 13  2  0
 12 14  2  0
 12 15  1  0
 15 16  1  0
 16 17  1  0
 17 18  1  0
 18 19  1  0
 19 20  1  0
 11 21  2  0
  4 22  2  0
 22 23  1  0
 23 24  2  0
 23 25  1  0
 25 26  1  0
 26 27  1  0
 27 28  2  0
 28 29  1  0
 29 30  2  0
 30 31  1  0
 31 32  1  0
 32 33  1  0
 33 34  1  0
 33 35  2  0
 31 36  2  0
 25 37  1  0
 37 38  2  0
 37  3  1  0
 21  7  1  0
 36 27  1  0
 20 15  1  0
  1 39  1  0
  1 40  1  0
  1 41  1  0
  2 42  1  0
  2 43  1  0
  5 44  1  0
  5 45  1  0
  6 46  1  0
  8 47  1  0
  9 48  1  0
 10 49  1  0
 16 50  1  0
 16 51  1  0
 17 52  1  0
 17 53  1  0
 19 54  1  0
 19 55  1  0
 20 56  1  0
 20 57  1  0
 21 58  1  0
 22 59  1  0
 26 60  1  0
 26 61  1  0
 28 62  1  0
 29 63  1  0
 30 64  1  0
 34 65  1  0
 34 66  1  0
 34 67  1  0
 36 68  1  0
M  CHG  1  32  -1
M  END
>  <UniqueID>  (57) 
55

>  <SMILES>  (57) 
CCn1c(CNc2cccc(S(=O)(=O)N3CCOCC3)c2)cc(=O)n(Cc2cccc([N-]C(C)=O)c2)c1=O

>  <Energy>  (57) 
89.31574855941419

>  <Genealogy>  (57) 
CCn1c(CNc2cccc(S(=O)(=O)N3CCOCC3)c2)cc(=O)n(Cc2cccc([N-]C(C)=O)c2)c1=O (protonated)
CCn1c(CNc2cccc(S(=O)(=O)N3CCOCC3)c2)cc(=O)n(Cc2cccc([N-]C(C)=O)c2)c1=O (3D coordinates assigned)
CCn1c(CNc2cccc(S(=O)(=O)N3CCOCC3)c2)cc(=O)n(Cc2cccc([N-]C(C)=O)c2)c1=O (nonaromatic ring conformer: 89.31574855941419 kcal/mol)

>  <smiles>  (57) 
CCn1c(CNc2cccc(S(=O)(=O)N3CCOCC3)c2)cc(=O)n(Cc2cccc(NC(C)=O)c2)c1=O

>  <score_type>  (57) 
oracle

>  <origin>  (57) 
adg

>  <m_score__min__energy>  (57) 
-12.279999999999999

>  <m_primary>  (57) 
energy

$$$$
57:0
     RDKit          3D

 50 53  0  0  0  0  0  0  0  0999 V2000
   58.5780   28.8380   49.0990 O   0  0  0  0  0  0  0  0  0  0  0  0
   58.8370   30.0100   49.4880 C   0  0  0  0  0  0  0  0  0  0  0  0
   58.9820   30.2790   50.9650 C   0  0  0  0  0  0  0  0  0  0  0  0
   57.6710   30.6140   51.6080 C   0  0  0  0  0  0  0  0  0  0  0  0
   56.7190   29.7100   51.8960 N   0  0  0  0  0  0  0  0  0  0  0  0
   55.7250   30.4550   52.4340 C   0  0  0  0  0  0  0  0  0  0  0  0
   54.4230   29.8690   52.8810 C   0  0  0  0  0  0  0  0  0  0  0  0
   53.3080   30.3960   52.0360 C   0  0  0  0  0  0  0  0  0  0  0  0
   52.4930   31.4030   52.4170 N   0  0  0  0  0  0  0  0  0  0  0  0
   51.5980   31.7150   51.4450 C   0  0  0  0  0  0  0  0  0  0  0  0
   50.6530   32.7160   51.6160 O   0  0  0  0  0  0  0  0  0  0  0  0
   51.6960   30.9730   50.2760 C   0  0  0  0  0  0  0  0  0  0  0  0
   52.9580   29.8800   50.4750 S   0  0  0  0  0  0  0  0  0  0  0  0
   55.9880   31.7800   52.4810 N   0  0  0  0  0  0  0  0  0  0  0  0
   57.2190   31.8630   51.9540 C   0  0  0  0  0  0  0  0  0  0  0  0
   57.9140   33.0540   51.7870 O   0  0  0  0  0  0  0  0  0  0  0  0
   58.9220   31.0790   48.5220 N   0  0  0  0  0  0  0  0  0  0  0  0
   59.0240   30.7690   47.0910 C   0  0  0  0  0  0  0  0  0  0  0  0
   59.7880   31.8850   46.3740 C   0  0  0  0  0  0  0  0  0  0  0  0
   59.1440   33.2110   46.5350 N   0  0  0  0  0  0  0  0  0  0  0  0
   60.1290   34.2970   46.3450 C   0  0  0  0  0  0  0  0  0  0  0  0
   61.3960   33.9990   47.1040 C   0  0  0  0  0  0  0  0  0  0  0  0
   62.5360   33.5440   46.4180 C   0  0  0  0  0  0  0  0  0  0  0  0
   63.7220   33.2820   47.1130 C   0  0  0  0  0  0  0  0  0  0  0  0
   63.7790   33.4730   48.4970 C   0  0  0  0  0  0  0  0  0  0  0  0
   64.9320   33.2310   49.1660 F   0  0  0  0  0  0  0  0  0  0  0  0
   62.6500   33.9220   49.1880 C   0  0  0  0  0  0  0  0  0  0  0  0
   61.4590   34.1840   48.4960 C   0  0  0  0  0  0  0  0  0  0  0  0
   58.3700   33.3710   47.7930 C   0  0  0  0  0  0  0  0  0  0  0  0
   58.8800   32.4870   48.9380 C   0  0  0  0  0  0  0  0  0  0  0  0
   59.3961   29.3826   51.4498 H   0  0  0  0  0  0  0  0  0  0  0  0
   59.6504   31.1439   51.0878 H   0  0  0  0  0  0  0  0  0  0  0  0
   54.4651   28.7738   52.7869 H   0  0  0  0  0  0  0  0  0  0  0  0
   54.2433   30.1468   53.9301 H   0  0  0  0  0  0  0  0  0  0  0  0
   51.0635   31.0805   49.3825 H   0  0  0  0  0  0  0  0  0  0  0  0
   57.6990   33.8610   52.3600 H   0  0  0  0  0  0  0  0  0  0  0  0
   59.5595   29.8171   46.9604 H   0  0  0  0  0  0  0  0  0  0  0  0
   58.0139   30.6865   46.6635 H   0  0  0  0  0  0  0  0  0  0  0  0
   60.8067   31.9357   46.7860 H   0  0  0  0  0  0  0  0  0  0  0  0
   59.7963   31.6466   45.3002 H   0  0  0  0  0  0  0  0  0  0  0  0
   60.3621   34.3910   45.2741 H   0  0  0  0  0  0  0  0  0  0  0  0
   59.7001   35.2365   46.7236 H   0  0  0  0  0  0  0  0  0  0  0  0
   62.4953   33.3932   45.3291 H   0  0  0  0  0  0  0  0  0  0  0  0
   64.6099   32.9256   46.5702 H   0  0  0  0  0  0  0  0  0  0  0  0
   62.6960   34.0701   50.2770 H   0  0  0  0  0  0  0  0  0  0  0  0
   60.5720   34.5351   49.0436 H   0  0  0  0  0  0  0  0  0  0  0  0
   58.4327   34.4225   48.1097 H   0  0  0  0  0  0  0  0  0  0  0  0
   57.3360   33.0622   47.5798 H   0  0  0  0  0  0  0  0  0  0  0  0
   59.8922   32.8108   49.2219 H   0  0  0  0  0  0  0  0  0  0  0  0
   58.1962   32.5845   49.7941 H   0  0  0  0  0  0  0  0  0  0  0  0
  1  2  2  0
  2  3  1  0
  3  4  1  0
  4  5  1  0
  5  6  2  0
  6  7  1  0
  7  8  1  0
  8  9  2  0
  9 10  1  0
 10 11  1  0
 10 12  2  0
 12 13  1  0
  6 14  1  0
 14 15  1  0
 15 16  1  0
  2 17  1  0
 17 18  1  0
 18 19  1  0
 19 20  1  0
 20 21  1  0
 21 22  1  0
 22 23  2  0
 23 24  1  0
 24 25  2  0
 25 26  1  0
 25 27  1  0
 27 28  2  0
 20 29  1  0
 29 30  1  0
 15  4  2  0
 30 17  1  0
 13  8  1  0
 28 22  1  0
  3 31  1  0
  3 32  1  0
  7 33  1  0
  7 34  1  0
 12 35  1  0
 16 36  1  0
 18 37  1  0
 18 38  1  0
 19 39  1  0
 19 40  1  0
 21 41  1  0
 21 42  1  0
 23 43  1  0
 24 44  1  0
 27 45  1  0
 28 46  1  0
 29 47  1  0
 29 48  1  0
 30 49  1  0
 30 50  1  0
M  CHG  2  11  -1  14  -1
M  END
>  <UniqueID>  (58) 
56

>  <SMILES>  (58) 
O=C(Cc1nc(Cc2nc([O-])cs2)[n-]c1O)N1CCN(Cc2ccc(F)cc2)CC1

>  <Energy>  (58) 
115.02467228941195

>  <Genealogy>  (58) 
O=C(Cc1nc(Cc2nc([O-])cs2)[n-]c1O)N1CCN(Cc2ccc(F)cc2)CC1 (protonated)
O=C(Cc1nc(Cc2nc([O-])cs2)[n-]c1O)N1CCN(Cc2ccc(F)cc2)CC1 (3D coordinates assigned)
O=C(Cc1nc(Cc2nc([O-])cs2)[n-]c1O)N1CCN(Cc2ccc(F)cc2)CC1 (nonaromatic ring conformer: 115.02467228941195 kcal/mol)

>  <smiles>  (58) 
O=C(Cc1nc(Cc2nc(O)cs2)[nH]c1O)N1CCN(Cc2ccc(F)cc2)CC1

>  <score_type>  (58) 
oracle

>  <origin>  (58) 
adg

>  <m_score__min__energy>  (58) 
-13.66

>  <m_primary>  (58) 
energy

$$$$
58:0
     RDKit          3D

 33 34  0  0  0  0  0  0  0  0999 V2000
   56.2650   32.3690   44.9240 O   0  0  0  0  0  0  0  0  0  0  0  0
   57.3980   31.8570   44.7110 C   0  0  0  0  0  0  0  0  0  0  0  0
   58.6160   32.7250   44.8500 C   0  0  0  0  0  0  0  0  0  0  0  0
   58.8530   33.0630   46.2970 C   0  0  0  0  0  0  0  0  0  0  0  0
   59.4080   34.3010   46.6580 C   0  0  0  0  0  0  0  0  0  0  0  0
   59.6520   34.5990   48.0010 C   0  0  0  0  0  0  0  0  0  0  0  0
   59.3530   33.6630   48.9950 C   0  0  0  0  0  0  0  0  0  0  0  0
   59.6010   33.9680   50.3280 O   0  0  0  0  0  0  0  0  0  0  0  0
   58.8070   32.4210   48.6460 C   0  0  0  0  0  0  0  0  0  0  0  0
   58.5150   31.4900   49.6420 O   0  0  0  0  0  0  0  0  0  0  0  0
   58.5610   32.1220   47.2980 C   0  0  0  0  0  0  0  0  0  0  0  0
   57.5180   30.4180   44.3750 C   0  0  0  0  0  0  0  0  0  0  0  0
   58.6660   29.9080   44.2630 O   0  0  0  0  0  0  0  0  0  0  0  0
   56.3390   29.5530   44.1700 C   0  0  0  0  0  0  0  0  0  0  0  0
   55.7540   29.5210   43.0540 O   0  0  0  0  0  0  0  0  0  0  0  0
   55.8930   28.7100   45.2400 N   0  0  0  0  0  0  0  0  0  0  0  0
   56.5350   27.5010   45.6690 C   0  0  0  0  0  0  0  0  0  0  0  0
   57.9290   27.4980   45.8150 C   0  0  0  0  0  0  0  0  0  0  0  0
   58.5930   26.3440   46.2400 C   0  0  0  0  0  0  0  0  0  0  0  0
   57.8680   25.1890   46.5400 C   0  0  0  0  0  0  0  0  0  0  0  0
   56.4750   25.1910   46.4310 C   0  0  0  0  0  0  0  0  0  0  0  0
   55.8020   26.3450   46.0120 C   0  0  0  0  0  0  0  0  0  0  0  0
   54.4130   26.3400   45.9750 O   0  0  0  0  0  0  0  0  0  0  0  0
   59.4911   32.1886   44.4545 H   0  0  0  0  0  0  0  0  0  0  0  0
   58.4586   33.6561   44.2858 H   0  0  0  0  0  0  0  0  0  0  0  0
   59.6518   35.0396   45.8801 H   0  0  0  0  0  0  0  0  0  0  0  0
   60.0809   35.5736   48.2770 H   0  0  0  0  0  0  0  0  0  0  0  0
   58.6900   31.6890   50.6210 H   0  0  0  0  0  0  0  0  0  0  0  0
   58.1370   31.1449   47.0231 H   0  0  0  0  0  0  0  0  0  0  0  0
   58.5038   28.4094   45.5937 H   0  0  0  0  0  0  0  0  0  0  0  0
   59.6886   26.3456   46.3383 H   0  0  0  0  0  0  0  0  0  0  0  0
   58.3933   24.2778   46.8621 H   0  0  0  0  0  0  0  0  0  0  0  0
   55.9050   24.2825   46.6753 H   0  0  0  0  0  0  0  0  0  0  0  0
  1  2  2  0
  2  3  1  0
  3  4  1  0
  4  5  2  0
  5  6  1  0
  6  7  2  0
  7  8  1  0
  7  9  1  0
  9 10  1  0
  9 11  2  0
  2 12  1  0
 12 13  2  0
 12 14  1  0
 14 15  2  0
 14 16  1  0
 16 17  1  0
 17 18  2  0
 18 19  1  0
 19 20  2  0
 20 21  1  0
 21 22  2  0
 22 23  1  0
 11  4  1  0
 22 17  1  0
  3 24  1  0
  3 25  1  0
  5 26  1  0
  6 27  1  0
 10 28  1  0
 11 29  1  0
 18 30  1  0
 19 31  1  0
 20 32  1  0
 21 33  1  0
M  CHG  3   8  -1  16  -1  23  -1
M  END
>  <UniqueID>  (59) 
57

>  <SMILES>  (59) 
O=C(Cc1ccc([O-])c(O)c1)C(=O)C(=O)[N-]c1ccccc1[O-]

>  <Energy>  (59) 
37.48439081365683

>  <Genealogy>  (59) 
O=C(Cc1ccc([O-])c(O)c1)C(=O)C(=O)[N-]c1ccccc1[O-] (protonated)
O=C(Cc1ccc([O-])c(O)c1)C(=O)C(=O)[N-]c1ccccc1[O-] (3D coordinates assigned)
O=C(Cc1ccc([O-])c(O)c1)C(=O)C(=O)[N-]c1ccccc1[O-] (optimized conformer: 37.48439081365683 kcal/mol)

>  <smiles>  (59) 
O=C(Cc1ccc(O)c(O)c1)C(=O)C(=O)Nc1ccccc1O

>  <score_type>  (59) 
oracle

>  <origin>  (59) 
adg

>  <m_score__min__energy>  (59) 
-14.039999999999999

>  <m_primary>  (59) 
energy

$$$$
59:0
     RDKit          3D

 52 54  0  0  0  0  0  0  0  0999 V2000
   54.6330   24.4170   47.5820 H   0  0  0  0  0  0  0  0  0  0  0  0
   55.6290   24.2480   47.5080 O   0  0  0  0  0  0  0  0  0  0  0  0
   56.4780   25.1600   46.8830 C   0  0  0  0  0  0  0  0  0  0  0  0
   57.8670   25.0430   47.0150 C   0  0  0  0  0  0  0  0  0  0  0  0
   58.2938   24.2329   47.6247 H   0  0  0  0  0  0  0  0  0  0  0  0
   58.7130   25.9530   46.3740 C   0  0  0  0  0  0  0  0  0  0  0  0
   59.8029   25.8621   46.4916 H   0  0  0  0  0  0  0  0  0  0  0  0
   58.1810   26.9810   45.5820 C   0  0  0  0  0  0  0  0  0  0  0  0
   59.1040   27.9340   44.9260 C   0  0  0  0  0  0  0  0  0  0  0  0
   60.1766   27.6908   44.9453 H   0  0  0  0  0  0  0  0  0  0  0  0
   58.7420   29.0710   44.3090 C   0  0  0  0  0  0  0  0  0  0  0  0
   59.5164   29.8406   44.1752 H   0  0  0  0  0  0  0  0  0  0  0  0
   57.3900   29.3740   43.7950 C   0  0  0  0  0  0  0  0  0  0  0  0
   57.0180   28.8250   42.7240 O   0  0  0  0  0  0  0  0  0  0  0  0
   56.4440   30.2420   44.5190 C   0  0  0  0  0  0  0  0  0  0  0  0
   55.5020   29.7350   45.1860 O   0  0  0  0  0  0  0  0  0  0  0  0
   56.6260   31.6640   44.4790 N   0  0  0  0  0  0  0  0  0  0  0  0
   57.6010   32.4270   45.2040 C   0  0  0  0  0  0  0  0  0  0  0  0
   57.3560   33.7870   45.4270 C   0  0  0  0  0  0  0  0  0  0  0  0
   56.4389   34.2485   45.0320 H   0  0  0  0  0  0  0  0  0  0  0  0
   58.2670   34.5620   46.1470 C   0  0  0  0  0  0  0  0  0  0  0  0
   58.0699   35.6321   46.3083 H   0  0  0  0  0  0  0  0  0  0  0  0
   59.4280   33.9820   46.6630 C   0  0  0  0  0  0  0  0  0  0  0  0
   60.1437   34.5968   47.2285 H   0  0  0  0  0  0  0  0  0  0  0  0
   59.6840   32.6170   46.4620 C   0  0  0  0  0  0  0  0  0  0  0  0
   60.8990   31.9760   47.0760 C   0  0  0  0  0  0  0  0  0  0  0  0
   61.3795   32.6893   47.7619 H   0  0  0  0  0  0  0  0  0  0  0  0
   61.6009   31.6950   46.2770 H   0  0  0  0  0  0  0  0  0  0  0  0
   60.5010   30.7410   47.8400 C   0  0  0  0  0  0  0  0  0  0  0  0
   60.7100   29.4680   47.2880 C   0  0  0  0  0  0  0  0  0  0  0  0
   61.1982   29.3688   46.3073 H   0  0  0  0  0  0  0  0  0  0  0  0
   60.3000   28.3270   47.9800 C   0  0  0  0  0  0  0  0  0  0  0  0
   60.4702   27.3308   47.5457 H   0  0  0  0  0  0  0  0  0  0  0  0
   59.6740   28.4480   49.2230 C   0  0  0  0  0  0  0  0  0  0  0  0
   59.3555   27.5448   49.7641 H   0  0  0  0  0  0  0  0  0  0  0  0
   59.4490   29.7100   49.7850 C   0  0  0  0  0  0  0  0  0  0  0  0
   58.7950   29.7840   51.0600 N   0  0  0  0  0  0  0  0  0  0  0  0
   57.5820   30.9360   51.5140 S   0  0  0  0  0  0  0  0  0  0  0  0
   56.2660   30.2230   51.6450 O   0  0  0  0  0  0  0  0  0  0  0  0
   57.4540   31.9950   50.4550 O   0  0  0  0  0  0  0  0  0  0  0  0
   57.9900   31.6730   53.0830 C   0  0  0  0  0  0  0  0  0  0  0  0
   57.6315   31.0253   53.8966 H   0  0  0  0  0  0  0  0  0  0  0  0
   59.0811   31.7894   53.1608 H   0  0  0  0  0  0  0  0  0  0  0  0
   57.5095   32.6594   53.1608 H   0  0  0  0  0  0  0  0  0  0  0  0
   59.8610   30.8590   49.0850 C   0  0  0  0  0  0  0  0  0  0  0  0
   59.6809   31.8553   49.5151 H   0  0  0  0  0  0  0  0  0  0  0  0
   58.7600   31.8380   45.7450 C   0  0  0  0  0  0  0  0  0  0  0  0
   58.9431   30.7623   45.6056 H   0  0  0  0  0  0  0  0  0  0  0  0
   56.7850   27.1180   45.4850 C   0  0  0  0  0  0  0  0  0  0  0  0
   56.3562   27.9495   44.9064 H   0  0  0  0  0  0  0  0  0  0  0  0
   55.9380   26.2030   46.1200 C   0  0  0  0  0  0  0  0  0  0  0  0
   54.5610   26.3340   45.9950 O   0  0  0  0  0  0  0  0  0  0  0  0
  1  2  1  0
  2  3  1  0
  3  4  2  0
  4  5  1  0
  4  6  1  0
  6  7  1  0
  6  8  2  0
  8  9  1  0
  9 10  1  0
  9 11  2  0
 11 12  1  0
 11 13  1  0
 13 14  2  0
 13 15  1  0
 15 16  2  0
 15 17  1  0
 17 18  1  0
 18 19  2  0
 19 20  1  0
 19 21  1  0
 21 22  1  0
 21 23  2  0
 23 24  1  0
 23 25  1  0
 25 26  1  0
 26 27  1  0
 26 28  1  0
 26 29  1  0
 29 30  2  0
 30 31  1  0
 30 32  1  0
 32 33  1  0
 32 34  2  0
 34 35  1  0
 34 36  1  0
 36 37  1  0
 37 38  1  0
 38 39  2  0
 38 40  2  0
 38 41  1  0
 41 42  1  0
 41 43  1  0
 41 44  1  0
 36 45  2  0
 45 46  1  0
 25 47  2  0
 47 48  1  0
  8 49  1  0
 49 50  1  0
 49 51  2  0
 51 52  1  0
 51  3  1  0
 47 18  1  0
 45 29  1  0
M  CHG  3  17  -1  37  -1  52  -1
M  END
>  <UniqueID>  (60) 
58

>  <SMILES>  (60) 
CS(=O)(=O)[N-]c1cccc(Cc2cccc([N-]C(=O)C(=O)/C=C\c3ccc(O)c([O-])c3)c2)c1

>  <Energy>  (60) 
63.55355394905859

>  <Genealogy>  (60) 
CS(=O)(=O)[N-]c1cccc(Cc2cccc([N-]C(=O)C(=O)C=Cc3ccc(O)c([O-])c3)c2)c1 (protonated)
CS(=O)(=O)[N-]c1cccc(Cc2cccc([N-]C(=O)C(=O)/C=C\c3ccc(O)c([O-])c3)c2)c1 (cis-trans isomerization)
CS(=O)(=O)[N-]c1cccc(Cc2cccc([N-]C(=O)C(=O)/C=C\c3ccc(O)c([O-])c3)c2)c1 (3D coordinates assigned)
CS(=O)(=O)[N-]c1cccc(Cc2cccc([N-]C(=O)C(=O)/C=C\c3ccc(O)c([O-])c3)c2)c1 (optimized conformer: 63.55355394905859 kcal/mol)

>  <smiles>  (60) 
CS(=O)(=O)Nc1cccc(Cc2cccc(NC(=O)C(=O)C=Cc3ccc(O)c(O)c3)c2)c1

>  <score_type>  (60) 
oracle

>  <origin>  (60) 
adg

>  <m_score__min__energy>  (60) 
-16.440000000000001

>  <m_primary>  (60) 
energy

$$$$
60:0
     RDKit          3D

 39 41  0  0  0  0  0  0  0  0999 V2000
   55.7150   26.9860   45.9690 O   0  0  0  0  0  0  0  0  0  0  0  0
   56.3660   27.7940   45.2500 C   0  0  0  0  0  0  0  0  0  0  0  0
   57.7310   27.4150   44.7730 C   0  0  0  0  0  0  0  0  0  0  0  0
   58.0850   26.0800   45.2580 N   0  0  0  0  0  0  0  0  0  0  0  0
   59.1680   26.1780   46.6170 S   0  0  0  0  0  0  0  0  0  0  0  0
   58.5020   25.6420   47.8550 O   0  0  0  0  0  0  0  0  0  0  0  0
   60.3870   25.3420   46.3360 O   0  0  0  0  0  0  0  0  0  0  0  0
   59.6670   27.8490   46.8670 C   0  0  0  0  0  0  0  0  0  0  0  0
   60.3780   28.5410   45.8750 C   0  0  0  0  0  0  0  0  0  0  0  0
   60.7750   29.8650   46.0880 C   0  0  0  0  0  0  0  0  0  0  0  0
   60.4660   30.5060   47.2960 C   0  0  0  0  0  0  0  0  0  0  0  0
   60.8510   31.8270   47.5180 O   0  0  0  0  0  0  0  0  0  0  0  0
   59.7640   29.8140   48.2890 C   0  0  0  0  0  0  0  0  0  0  0  0
   59.3670   28.4910   48.0770 C   0  0  0  0  0  0  0  0  0  0  0  0
   55.8220   29.0740   44.8910 N   0  0  0  0  0  0  0  0  0  0  0  0
   56.5050   30.1140   44.5120 C   0  0  0  0  0  0  0  0  0  0  0  0
   57.0250   31.0310   45.3560 N   0  0  0  0  0  0  0  0  0  0  0  0
   57.7100   32.0050   44.6920 C   0  0  0  0  0  0  0  0  0  0  0  0
   58.3640   33.1230   45.4220 C   0  0  0  0  0  0  0  0  0  0  0  0
   59.0000   34.1520   44.6990 C   0  0  0  0  0  0  0  0  0  0  0  0
   59.6130   35.2160   45.3660 C   0  0  0  0  0  0  0  0  0  0  0  0
   59.5970   35.2710   46.7620 C   0  0  0  0  0  0  0  0  0  0  0  0
   58.9670   34.2610   47.4920 C   0  0  0  0  0  0  0  0  0  0  0  0
   58.3540   33.1930   46.8300 C   0  0  0  0  0  0  0  0  0  0  0  0
   57.7270   31.8500   43.2990 C   0  0  0  0  0  0  0  0  0  0  0  0
   56.8610   30.4570   42.9110 S   0  0  0  0  0  0  0  0  0  0  0  0
   57.7448   27.4172   43.6731 H   0  0  0  0  0  0  0  0  0  0  0  0
   58.4604   28.1418   45.1599 H   0  0  0  0  0  0  0  0  0  0  0  0
   60.6240   28.0406   44.9268 H   0  0  0  0  0  0  0  0  0  0  0  0
   61.3305   30.4042   45.3066 H   0  0  0  0  0  0  0  0  0  0  0  0
   61.0730   32.4490   46.7500 H   0  0  0  0  0  0  0  0  0  0  0  0
   59.5239   30.3129   49.2395 H   0  0  0  0  0  0  0  0  0  0  0  0
   58.8172   27.9513   48.8621 H   0  0  0  0  0  0  0  0  0  0  0  0
   59.0140   34.1173   43.5996 H   0  0  0  0  0  0  0  0  0  0  0  0
   60.1091   36.0117   44.7909 H   0  0  0  0  0  0  0  0  0  0  0  0
   60.0802   36.1091   47.2855 H   0  0  0  0  0  0  0  0  0  0  0  0
   58.9530   34.3058   48.5910 H   0  0  0  0  0  0  0  0  0  0  0  0
   57.8601   32.4012   47.4123 H   0  0  0  0  0  0  0  0  0  0  0  0
   58.2209   32.5222   42.5819 H   0  0  0  0  0  0  0  0  0  0  0  0
  1  2  2  0
  2  3  1  0
  3  4  1  0
  4  5  1  0
  5  6  2  0
  5  7  2  0
  5  8  1  0
  8  9  2  0
  9 10  1  0
 10 11  2  0
 11 12  1  0
 11 13  1  0
 13 14  2  0
  2 15  1  0
 15 16  2  3
 16 17  1  0
 17 18  1  0
 18 19  1  0
 19 20  2  0
 20 21  1  0
 21 22  2  0
 22 23  1  0
 23 24  2  0
 18 25  2  0
 25 26  1  0
 14  8  1  0
 26 16  1  0
 24 19  1  0
  3 27  1  0
  3 28  1  0
  9 29  1  0
 10 30  1  0
 12 31  1  0
 13 32  1  0
 14 33  1  0
 20 34  1  0
 21 35  1  0
 22 36  1  0
 23 37  1  0
 24 38  1  0
 25 39  1  0
M  CHG  2   4  -1  17  -1
M  END
>  <UniqueID>  (61) 
59

>  <SMILES>  (61) 
O=C(C[N-]S(=O)(=O)c1ccc(O)cc1)N=c1[n-]c(-c2ccccc2)cs1

>  <Energy>  (61) 
73.50066536154502

>  <Genealogy>  (61) 
O=C(C[N-]S(=O)(=O)c1ccc(O)cc1)N=c1[n-]c(-c2ccccc2)cs1 (protonated)
O=C(C[N-]S(=O)(=O)c1ccc(O)cc1)N=c1[n-]c(-c2ccccc2)cs1 (3D coordinates assigned)
O=C(C[N-]S(=O)(=O)c1ccc(O)cc1)N=c1[n-]c(-c2ccccc2)cs1 (optimized conformer: 73.50066536154502 kcal/mol)

>  <smiles>  (61) 
O=C(CNS(=O)(=O)c1ccc(O)cc1)N=c1[nH]c(-c2ccccc2)cs1

>  <score_type>  (61) 
oracle

>  <origin>  (61) 
adg

>  <m_score__min__energy>  (61) 
-12.92

>  <m_primary>  (61) 
energy

$$$$
61:0
     RDKit          3D

 47 50  0  0  0  0  0  0  0  0999 V2000
   64.4823   34.3669   46.5777 H   0  0  0  0  0  0  0  0  0  0  0  0
   63.7560   33.7890   47.1680 C   0  0  0  0  0  0  0  0  0  0  0  0
   64.1880   33.0590   48.2920 C   0  0  0  0  0  0  0  0  0  0  0  0
   65.2504   33.0696   48.5770 H   0  0  0  0  0  0  0  0  0  0  0  0
   63.2670   32.3170   49.0510 C   0  0  0  0  0  0  0  0  0  0  0  0
   63.5948   31.7428   49.9301 H   0  0  0  0  0  0  0  0  0  0  0  0
   61.9270   32.3260   48.6630 C   0  0  0  0  0  0  0  0  0  0  0  0
   61.5080   33.0340   47.5700 C   0  0  0  0  0  0  0  0  0  0  0  0
   62.4020   33.7820   46.7980 C   0  0  0  0  0  0  0  0  0  0  0  0
   62.0533   34.3504   45.9232 H   0  0  0  0  0  0  0  0  0  0  0  0
   60.1120   32.9050   47.3830 N   0  0  0  0  0  0  0  0  0  0  0  0
   59.1540   33.8120   46.2590 S   0  0  0  0  0  0  0  0  0  0  0  0
   60.0290   34.7820   45.5160 O   0  0  0  0  0  0  0  0  0  0  0  0
   58.1060   34.5750   47.0190 O   0  0  0  0  0  0  0  0  0  0  0  0
   58.4010   32.7160   45.1040 C   0  0  0  0  0  0  0  0  0  0  0  0
   58.3770   33.0340   43.7450 C   0  0  0  0  0  0  0  0  0  0  0  0
   58.8449   33.9646   43.3912 H   0  0  0  0  0  0  0  0  0  0  0  0
   57.7620   32.1760   42.8350 C   0  0  0  0  0  0  0  0  0  0  0  0
   57.7488   32.4366   41.7664 H   0  0  0  0  0  0  0  0  0  0  0  0
   57.1580   30.9810   43.2660 C   0  0  0  0  0  0  0  0  0  0  0  0
   56.4540   30.1280   42.2430 C   0  0  0  0  0  0  0  0  0  0  0  0
   55.8344   29.3773   42.7554 H   0  0  0  0  0  0  0  0  0  0  0  0
   55.8141   30.7637   41.6134 H   0  0  0  0  0  0  0  0  0  0  0  0
   57.1995   29.6203   41.6134 H   0  0  0  0  0  0  0  0  0  0  0  0
   57.2260   30.6270   44.6410 C   0  0  0  0  0  0  0  0  0  0  0  0
   56.6760   29.3530   45.1760 C   0  0  0  0  0  0  0  0  0  0  0  0
   55.5260   28.9780   44.8210 O   0  0  0  0  0  0  0  0  0  0  0  0
   57.4360   28.5030   46.0450 N   0  0  0  0  0  0  0  0  0  0  0  0
   57.5690   27.2020   46.0040 C   0  0  0  0  0  0  0  0  0  0  0  0
   56.4700   26.3030   46.0200 C   0  0  0  0  0  0  0  0  0  0  0  0
   55.1500   26.7390   45.9970 O   0  0  0  0  0  0  0  0  0  0  0  0
   56.7130   24.9290   46.0150 C   0  0  0  0  0  0  0  0  0  0  0  0
   55.8701   24.2232   46.0530 H   0  0  0  0  0  0  0  0  0  0  0  0
   58.0190   24.4480   45.9620 C   0  0  0  0  0  0  0  0  0  0  0  0
   58.2134   23.3653   45.9628 H   0  0  0  0  0  0  0  0  0  0  0  0
   59.0760   25.3530   45.9080 C   0  0  0  0  0  0  0  0  0  0  0  0
   60.1111   24.9848   45.8531 H   0  0  0  0  0  0  0  0  0  0  0  0
   58.8320   26.6910   45.9230 N   0  0  0  0  0  0  0  0  0  0  0  0
   59.6510   27.3420   45.8910 H   0  0  0  0  0  0  0  0  0  0  0  0
   57.8310   31.5180   45.5450 C   0  0  0  0  0  0  0  0  0  0  0  0
   57.8562   31.2685   46.6160 H   0  0  0  0  0  0  0  0  0  0  0  0
   59.5630   32.0770   48.4540 C   0  0  0  0  0  0  0  0  0  0  0  0
   58.8534   32.6579   49.0616 H   0  0  0  0  0  0  0  0  0  0  0  0
   59.0151   31.2106   48.0550 H   0  0  0  0  0  0  0  0  0  0  0  0
   60.7750   31.6380   49.3130 C   0  0  0  0  0  0  0  0  0  0  0  0
   60.6578   31.9669   50.3561 H   0  0  0  0  0  0  0  0  0  0  0  0
   60.8967   30.5456   49.3572 H   0  0  0  0  0  0  0  0  0  0  0  0
  1  2  1  0
  2  3  2  0
  3  4  1  0
  3  5  1  0
  5  6  1  0
  5  7  2  0
  7  8  1  0
  8  9  2  0
  9 10  1  0
  8 11  1  0
 11 12  1  0
 12 13  2  0
 12 14  2  0
 12 15  1  0
 15 16  2  0
 16 17  1  0
 16 18  1  0
 18 19  1  0
 18 20  2  0
 20 21  1  0
 21 22  1  0
 21 23  1  0
 21 24  1  0
 20 25  1  0
 25 26  1  0
 26 27  2  0
 26 28  1  0
 28 29  2  0
 29 30  1  0
 30 31  1  0
 30 32  2  0
 32 33  1  0
 32 34  1  0
 34 35  1  0
 34 36  2  0
 36 37  1  0
 36 38  1  0
 38 39  1  0
 25 40  2  0
 40 41  1  0
 11 42  1  0
 42 43  1  0
 42 44  1  0
 42 45  1  0
 45 46  1  0
 45 47  1  0
  9  2  1  0
 40 15  1  0
 45  7  1  0
 38 29  1  0
M  CHG  1  31  -1
M  END
>  <UniqueID>  (62) 
60

>  <SMILES>  (62) 
Cc1ccc(S(=O)(=O)N2CCc3ccccc32)cc1C(=O)/N=c1/[nH]cccc1[O-]

>  <Energy>  (62) 
83.69609680999991

>  <Genealogy>  (62) 
Cc1ccc(S(=O)(=O)N2CCc3ccccc32)cc1C(=O)N=c1[nH]cccc1[O-] (protonated)
Cc1ccc(S(=O)(=O)N2CCc3ccccc32)cc1C(=O)/N=c1/[nH]cccc1[O-] (cis-trans isomerization)
Cc1ccc(S(=O)(=O)N2CCc3ccccc32)cc1C(=O)/N=c1/[nH]cccc1[O-] (3D coordinates assigned)
Cc1ccc(S(=O)(=O)N2CCc3ccccc32)cc1C(=O)/N=c1/[nH]cccc1[O-] (nonaromatic ring conformer: 83.69609680999991 kcal/mol)

>  <smiles>  (62) 
Cc1ccc(S(=O)(=O)N2CCc3ccccc32)cc1C(=O)N=c1[nH]cccc1O

>  <score_type>  (62) 
oracle

>  <origin>  (62) 
adg

>  <m_score__min__energy>  (62) 
-13.880000000000001

>  <m_primary>  (62) 
energy

$$$$
62:0
     RDKit          3D

 53 56  0  0  0  0  0  0  0  0999 V2000
   58.4940   32.6300   55.2770 C   0  0  0  0  0  0  0  0  0  0  0  0
   58.6780   32.6160   53.7780 C   0  0  0  0  0  0  0  0  0  0  0  0
   59.6390   33.4550   53.1900 C   0  0  0  0  0  0  0  0  0  0  0  0
   59.8240   33.4680   51.8040 C   0  0  0  0  0  0  0  0  0  0  0  0
   59.0530   32.6380   50.9720 C   0  0  0  0  0  0  0  0  0  0  0  0
   59.2530   32.6310   49.4990 C   0  0  0  0  0  0  0  0  0  0  0  0
   60.3610   32.2580   49.0300 O   0  0  0  0  0  0  0  0  0  0  0  0
   58.1820   32.9880   48.6030 N   0  0  0  0  0  0  0  0  0  0  0  0
   58.3840   33.3120   47.2160 C   0  0  0  0  0  0  0  0  0  0  0  0
   59.0360   34.5060   46.8730 C   0  0  0  0  0  0  0  0  0  0  0  0
   59.2370   34.8460   45.5300 C   0  0  0  0  0  0  0  0  0  0  0  0
   58.8150   33.9800   44.5190 C   0  0  0  0  0  0  0  0  0  0  0  0
   58.1890   32.7630   44.8440 C   0  0  0  0  0  0  0  0  0  0  0  0
   57.7440   31.8280   43.7510 C   0  0  0  0  0  0  0  0  0  0  0  0
   57.3050   30.4970   44.3110 C   0  0  0  0  0  0  0  0  0  0  0  0
   55.9670   30.2790   44.4320 N   0  0  0  0  0  0  0  0  0  0  0  0
   55.4750   29.1300   44.8890 N   0  0  0  0  0  0  0  0  0  0  0  0
   56.2850   28.1070   45.2620 C   0  0  0  0  0  0  0  0  0  0  0  0
   55.7770   27.0390   45.6900 O   0  0  0  0  0  0  0  0  0  0  0  0
   57.6770   28.2550   45.1750 C   0  0  0  0  0  0  0  0  0  0  0  0
   58.2090   29.4690   44.6820 C   0  0  0  0  0  0  0  0  0  0  0  0
   59.7160   29.6310   44.5020 C   0  0  0  0  0  0  0  0  0  0  0  0
   60.6100   28.6050   45.2450 C   0  0  0  0  0  0  0  0  0  0  0  0
   59.8520   27.7320   46.2540 C   0  0  0  0  0  0  0  0  0  0  0  0
   58.6070   27.1390   45.6010 C   0  0  0  0  0  0  0  0  0  0  0  0
   57.9790   32.4340   46.1930 C   0  0  0  0  0  0  0  0  0  0  0  0
   58.1020   31.7830   51.5590 C   0  0  0  0  0  0  0  0  0  0  0  0
   57.9000   31.7680   52.9530 C   0  0  0  0  0  0  0  0  0  0  0  0
   56.8730   30.8330   53.5400 C   0  0  0  0  0  0  0  0  0  0  0  0
   59.4757   32.5553   55.7676 H   0  0  0  0  0  0  0  0  0  0  0  0
   58.0043   33.5680   55.5776 H   0  0  0  0  0  0  0  0  0  0  0  0
   57.8680   31.7769   55.5776 H   0  0  0  0  0  0  0  0  0  0  0  0
   60.2528   34.1090   53.8268 H   0  0  0  0  0  0  0  0  0  0  0  0
   60.5795   34.1336   51.3610 H   0  0  0  0  0  0  0  0  0  0  0  0
   57.2030   32.8240   48.9230 H   0  0  0  0  0  0  0  0  0  0  0  0
   59.3921   35.1804   47.6657 H   0  0  0  0  0  0  0  0  0  0  0  0
   59.7276   35.7958   45.2709 H   0  0  0  0  0  0  0  0  0  0  0  0
   58.9727   34.2506   43.4645 H   0  0  0  0  0  0  0  0  0  0  0  0
   56.9017   32.2843   43.2103 H   0  0  0  0  0  0  0  0  0  0  0  0
   58.5942   31.6560   43.0746 H   0  0  0  0  0  0  0  0  0  0  0  0
   59.9358   29.5509   43.4272 H   0  0  0  0  0  0  0  0  0  0  0  0
   59.9611   30.6082   44.9436 H   0  0  0  0  0  0  0  0  0  0  0  0
   61.0744   27.9454   44.4972 H   0  0  0  0  0  0  0  0  0  0  0  0
   61.3501   29.1835   45.8175 H   0  0  0  0  0  0  0  0  0  0  0  0
   60.5075   26.9171   46.5950 H   0  0  0  0  0  0  0  0  0  0  0  0
   59.5493   28.3515   47.1111 H   0  0  0  0  0  0  0  0  0  0  0  0
   58.9009   26.5507   44.7193 H   0  0  0  0  0  0  0  0  0  0  0  0
   58.0908   26.4883   46.3222 H   0  0  0  0  0  0  0  0  0  0  0  0
   57.4937   31.4816   46.4526 H   0  0  0  0  0  0  0  0  0  0  0  0
   57.5066   31.1154   50.9188 H   0  0  0  0  0  0  0  0  0  0  0  0
   56.9218   30.8774   54.6380 H   0  0  0  0  0  0  0  0  0  0  0  0
   55.8693   31.1339   53.2051 H   0  0  0  0  0  0  0  0  0  0  0  0
   57.0786   29.8056   53.2051 H   0  0  0  0  0  0  0  0  0  0  0  0
  1  2  1  0
  2  3  2  0
  3  4  1  0
  4  5  2  0
  5  6  1  0
  6  7  2  0
  6  8  1  0
  8  9  1  0
  9 10  2  0
 10 11  1  0
 11 12  2  0
 12 13  1  0
 13 14  1  0
 14 15  1  0
 15 16  2  0
 16 17  1  0
 17 18  1  0
 18 19  2  0
 18 20  1  0
 20 21  2  0
 21 22  1  0
 22 23  1  0
 23 24  1  0
 24 25  1  0
 13 26  2  0
  5 27  1  0
 27 28  2  0
 28 29  1  0
 28  2  1  0
 26  9  1  0
 21 15  1  0
 25 20  1  0
  1 30  1  0
  1 31  1  0
  1 32  1  0
  3 33  1  0
  4 34  1  0
  8 35  1  0
 10 36  1  0
 11 37  1  0
 12 38  1  0
 14 39  1  0
 14 40  1  0
 22 41  1  0
 22 42  1  0
 23 43  1  0
 23 44  1  0
 24 45  1  0
 24 46  1  0
 25 47  1  0
 25 48  1  0
 26 49  1  0
 27 50  1  0
 29 51  1  0
 29 52  1  0
 29 53  1  0
M  CHG  1  17  -1
M  END
>  <UniqueID>  (63) 
61

>  <SMILES>  (63) 
Cc1ccc(C(=O)Nc2cccc(Cc3n[n-]c(=O)c4c3CCCC4)c2)cc1C

>  <Energy>  (63) 
68.56391473266105

>  <Genealogy>  (63) 
Cc1ccc(C(=O)Nc2cccc(Cc3n[n-]c(=O)c4c3CCCC4)c2)cc1C (protonated)
Cc1ccc(C(=O)Nc2cccc(Cc3n[n-]c(=O)c4c3CCCC4)c2)cc1C (3D coordinates assigned)
Cc1ccc(C(=O)Nc2cccc(Cc3n[n-]c(=O)c4c3CCCC4)c2)cc1C (nonaromatic ring conformer: 68.56391473266105 kcal/mol)

>  <smiles>  (63) 
Cc1ccc(C(=O)Nc2cccc(Cc3n[nH]c(=O)c4c3CCCC4)c2)cc1C

>  <score_type>  (63) 
oracle

>  <origin>  (63) 
adg

>  <m_score__min__energy>  (63) 
-12.369999999999999

>  <m_primary>  (63) 
energy

$$$$
63:0
     RDKit          3D

 51 53  0  0  0  0  0  0  0  0999 V2000
   55.0650   19.0020   52.4070 C   0  0  0  0  0  0  0  0  0  0  0  0
   56.1830   19.8940   51.9550 C   0  0  0  0  0  0  0  0  0  0  0  0
   57.0380   20.2640   52.8010 O   0  0  0  0  0  0  0  0  0  0  0  0
   56.3150   20.3080   50.5870 N   0  0  0  0  0  0  0  0  0  0  0  0
   55.5870   19.6290   49.5060 C   0  0  0  0  0  0  0  0  0  0  0  0
   56.4240   19.5710   48.2090 C   0  0  0  0  0  0  0  0  0  0  0  0
   57.3160   20.7420   48.0040 N   0  0  0  0  0  0  0  0  0  0  0  0
   57.3730   21.1800   46.3150 S   0  0  0  0  0  0  0  0  0  0  0  0
   58.8040   21.2980   45.8660 O   0  0  0  0  0  0  0  0  0  0  0  0
   56.6920   20.1240   45.4870 O   0  0  0  0  0  0  0  0  0  0  0  0
   56.5360   22.7100   46.0800 C   0  0  0  0  0  0  0  0  0  0  0  0
   55.1380   22.7380   46.0900 C   0  0  0  0  0  0  0  0  0  0  0  0
   54.4610   23.9500   45.9530 C   0  0  0  0  0  0  0  0  0  0  0  0
   55.1710   25.1450   45.7990 C   0  0  0  0  0  0  0  0  0  0  0  0
   54.4640   26.3410   45.7190 O   0  0  0  0  0  0  0  0  0  0  0  0
   56.5800   25.1270   45.7630 C   0  0  0  0  0  0  0  0  0  0  0  0
   57.3600   26.3740   45.6120 C   0  0  0  0  0  0  0  0  0  0  0  0
   58.3390   26.3980   44.8200 O   0  0  0  0  0  0  0  0  0  0  0  0
   57.0000   27.5590   46.3350 N   0  0  0  0  0  0  0  0  0  0  0  0
   57.9270   28.6730   46.5160 C   0  0  0  0  0  0  0  0  0  0  0  0
   57.7650   29.6600   45.3920 C   0  0  0  0  0  0  0  0  0  0  0  0
   57.1690   29.2600   44.1840 C   0  0  0  0  0  0  0  0  0  0  0  0
   56.9720   30.1860   43.1540 C   0  0  0  0  0  0  0  0  0  0  0  0
   57.3620   31.5190   43.3250 C   0  0  0  0  0  0  0  0  0  0  0  0
   57.9490   31.9280   44.5290 C   0  0  0  0  0  0  0  0  0  0  0  0
   58.4210   33.6050   44.7510 Cl  0  0  0  0  0  0  0  0  0  0  0  0
   58.1480   31.0020   45.5610 C   0  0  0  0  0  0  0  0  0  0  0  0
   57.2530   23.9040   45.9230 C   0  0  0  0  0  0  0  0  0  0  0  0
   56.9430   21.9090   48.8130 C   0  0  0  0  0  0  0  0  0  0  0  0
   57.0500   21.5470   50.2930 C   0  0  0  0  0  0  0  0  0  0  0  0
   55.0360   18.9789   53.5064 H   0  0  0  0  0  0  0  0  0  0  0  0
   54.1094   19.3886   52.0231 H   0  0  0  0  0  0  0  0  0  0  0  0
   55.2297   17.9844   52.0231 H   0  0  0  0  0  0  0  0  0  0  0  0
   55.3496   18.6032   49.8243 H   0  0  0  0  0  0  0  0  0  0  0  0
   54.6683   20.1973   49.2987 H   0  0  0  0  0  0  0  0  0  0  0  0
   57.0469   18.6649   48.2411 H   0  0  0  0  0  0  0  0  0  0  0  0
   55.7094   19.5690   47.3727 H   0  0  0  0  0  0  0  0  0  0  0  0
   54.5710   21.8026   46.2061 H   0  0  0  0  0  0  0  0  0  0  0  0
   53.3612   23.9659   45.9662 H   0  0  0  0  0  0  0  0  0  0  0  0
   56.0460   27.6360   46.7520 H   0  0  0  0  0  0  0  0  0  0  0  0
   57.7155   29.1720   47.4732 H   0  0  0  0  0  0  0  0  0  0  0  0
   58.9583   28.2903   46.5169 H   0  0  0  0  0  0  0  0  0  0  0  0
   56.8560   28.2143   44.0476 H   0  0  0  0  0  0  0  0  0  0  0  0
   56.5099   29.8658   42.2085 H   0  0  0  0  0  0  0  0  0  0  0  0
   57.2075   32.2456   42.5137 H   0  0  0  0  0  0  0  0  0  0  0  0
   58.6057   31.3261   46.5073 H   0  0  0  0  0  0  0  0  0  0  0  0
   58.3528   23.8835   45.9251 H   0  0  0  0  0  0  0  0  0  0  0  0
   57.6218   22.7449   48.5884 H   0  0  0  0  0  0  0  0  0  0  0  0
   55.9105   22.2073   48.5785 H   0  0  0  0  0  0  0  0  0  0  0  0
   58.1095   21.4071   50.5534 H   0  0  0  0  0  0  0  0  0  0  0  0
   56.6119   22.3634   50.8860 H   0  0  0  0  0  0  0  0  0  0  0  0
  1  2  1  0
  2  3  2  0
  2  4  1  0
  4  5  1  0
  5  6  1  0
  6  7  1  0
  7  8  1  0
  8  9  2  0
  8 10  2  0
  8 11  1  0
 11 12  2  0
 12 13  1  0
 13 14  2  0
 14 15  1  0
 14 16  1  0
 16 17  1  0
 17 18  2  0
 17 19  1  0
 19 20  1  0
 20 21  1  0
 21 22  2  0
 22 23  1  0
 23 24  2  0
 24 25  1  0
 25 26  1  0
 25 27  2  0
 16 28  2  0
  7 29  1  0
 29 30  1  0
 30  4  1  0
 28 11  1  0
 27 21  1  0
  1 31  1  0
  1 32  1  0
  1 33  1  0
  5 34  1  0
  5 35  1  0
  6 36  1  0
  6 37  1  0
 12 38  1  0
 13 39  1  0
 19 40  1  0
 20 41  1  0
 20 42  1  0
 22 43  1  0
 23 44  1  0
 24 45  1  0
 27 46  1  0
 28 47  1  0
 29 48  1  0
 29 49  1  0
 30 50  1  0
 30 51  1  0
M  CHG  1  15  -1
M  END
>  <UniqueID>  (64) 
62

>  <SMILES>  (64) 
CC(=O)N1CCN(S(=O)(=O)c2ccc([O-])c(C(=O)NCc3cccc(Cl)c3)c2)CC1

>  <Energy>  (64) 
57.68727322724539

>  <Genealogy>  (64) 
CC(=O)N1CCN(S(=O)(=O)c2ccc([O-])c(C(=O)NCc3cccc(Cl)c3)c2)CC1 (protonated)
CC(=O)N1CCN(S(=O)(=O)c2ccc([O-])c(C(=O)NCc3cccc(Cl)c3)c2)CC1 (3D coordinates assigned)
CC(=O)N1CCN(S(=O)(=O)c2ccc([O-])c(C(=O)NCc3cccc(Cl)c3)c2)CC1 (nonaromatic ring conformer: 57.68727322724539 kcal/mol)

>  <smiles>  (64) 
CC(=O)N1CCN(S(=O)(=O)c2ccc(O)c(C(=O)NCc3cccc(Cl)c3)c2)CC1

>  <score_type>  (64) 
oracle

>  <origin>  (64) 
adg

>  <m_score__min__energy>  (64) 
-11.1

>  <m_primary>  (64) 
energy

$$$$
64:0
     RDKit          3D

124130  0  0  0  0  0  0  0  0999 V2000
   56.1560   20.7310   51.4860 C   0  0  0  0  0  0  0  0  0  0  0  0
   57.3630   21.0050   50.5710 C   0  0  0  0  0  0  0  0  0  0  0  0
   57.7200   22.5060   50.5810 C   0  0  0  0  0  0  0  0  0  0  0  0
   57.0020   20.5920   49.1340 C   0  0  0  0  0  0  0  0  0  0  0  0
   58.4940   20.2170   50.9700 O   0  0  0  0  0  0  0  0  0  0  0  0
   59.7910   20.6890   51.2070 C   0  0  0  0  0  0  0  0  0  0  0  0
   60.7380   20.4040   50.4280 O   0  0  0  0  0  0  0  0  0  0  0  0
   60.0120   21.5400   52.3360 N   0  0  0  0  0  0  0  0  0  0  0  0
   60.7580   22.7660   52.3390 C   0  0  0  0  0  0  0  0  0  0  0  0
   62.1650   22.7840   52.3370 C   0  0  0  0  0  0  0  0  0  0  0  0
   62.8520   24.0010   52.3480 C   0  0  0  0  0  0  0  0  0  0  0  0
   62.1470   25.2050   52.3730 C   0  0  0  0  0  0  0  0  0  0  0  0
   60.7450   25.2000   52.4130 C   0  0  0  0  0  0  0  0  0  0  0  0
   59.9820   26.4930   52.3770 C   0  0  0  0  0  0  0  0  0  0  0  0
   60.8980   27.6190   52.6260 N   0  0  0  0  0  0  0  0  0  0  0  0
   61.6450   28.1600   51.5190 C   0  0  0  0  0  0  0  0  0  0  0  0
   61.8750   27.3860   50.5460 O   0  0  0  0  0  0  0  0  0  0  0  0
   62.1470   29.5350   51.4780 N   0  0  0  0  0  0  0  0  0  0  0  0
   63.6170   29.6770   51.3080 C   0  0  0  0  0  0  0  0  0  0  0  0
   63.9910   31.1170   51.0540 C   0  0  0  0  0  0  0  0  0  0  0  0
   65.0790   31.7030   51.7240 C   0  0  0  0  0  0  0  0  0  0  0  0
   65.3780   33.0550   51.5350 C   0  0  0  0  0  0  0  0  0  0  0  0
   64.6140   33.8270   50.6570 C   0  0  0  0  0  0  0  0  0  0  0  0
   63.5610   33.2420   49.9420 C   0  0  0  0  0  0  0  0  0  0  0  0
   62.8190   34.0100   48.9890 N   0  0  0  0  0  0  0  0  0  0  0  0
   62.6110   33.5610   47.6480 C   0  0  0  0  0  0  0  0  0  0  0  0
   63.2940   32.6050   47.1830 O   0  0  0  0  0  0  0  0  0  0  0  0
   61.6580   34.2360   46.8180 N   0  0  0  0  0  0  0  0  0  0  0  0
   60.3510   33.6790   46.4800 C   0  0  0  0  0  0  0  0  0  0  0  0
   59.6810   33.1040   47.7510 C   0  0  0  0  0  0  0  0  0  0  0  0
   58.1370   33.1480   47.7050 C   0  0  0  0  0  0  0  0  0  0  0  0
   57.6060   33.0450   46.2690 C   0  0  0  0  0  0  0  0  0  0  0  0
   58.1130   34.2050   45.3890 C   0  0  0  0  0  0  0  0  0  0  0  0
   59.4760   34.7670   45.8440 C   0  0  0  0  0  0  0  0  0  0  0  0
   63.2600   31.8870   50.1320 C   0  0  0  0  0  0  0  0  0  0  0  0
   61.3490   30.7420   51.8930 C   0  0  1  0  0  0  0  0  0  0  0  0
   60.0620   30.9110   51.0040 C   0  0  0  0  0  0  0  0  0  0  0  0
   60.0960   30.2500   49.6460 C   0  0  0  0  0  0  0  0  0  0  0  0
   60.9690   30.7130   48.6550 C   0  0  0  0  0  0  0  0  0  0  0  0
   60.9340   30.1630   47.3750 C   0  0  0  0  0  0  0  0  0  0  0  0
   60.0120   29.1610   47.0460 C   0  0  0  0  0  0  0  0  0  0  0  0
   60.0060   28.6710   45.3560 Cl  0  0  0  0  0  0  0  0  0  0  0  0
   59.1170   28.6790   48.0440 C   0  0  0  0  0  0  0  0  0  0  0  0
   58.1110   27.7100   47.8520 O   0  0  0  0  0  0  0  0  0  0  0  0
   58.1430   26.5250   47.0530 C   0  0  0  0  0  0  0  0  0  0  0  0
   57.2060   26.7100   45.8530 C   0  0  0  0  0  0  0  0  0  0  0  0
   57.1150   25.4140   45.0140 C   0  0  0  0  0  0  0  0  0  0  0  0
   57.7360   24.3030   45.6420 O   0  0  0  0  0  0  0  0  0  0  0  0
   57.2290   24.1450   46.9540 C   0  0  0  0  0  0  0  0  0  0  0  0
   57.6840   25.3000   47.8710 C   0  0  0  0  0  0  0  0  0  0  0  0
   59.1860   29.2300   49.3330 C   0  0  0  0  0  0  0  0  0  0  0  0
   61.0330   30.7750   53.4290 C   0  0  1  0  0  0  0  0  0  0  0  0
   60.4970   32.0100   53.8230 O   0  0  0  0  0  0  0  0  0  0  0  0
   60.1050   29.6220   53.9000 C   0  0  1  0  0  0  0  0  0  0  0  0
   58.9600   29.5190   53.0900 O   0  0  0  0  0  0  0  0  0  0  0  0
   60.8660   28.2770   53.9430 C   0  0  1  0  0  0  0  0  0  0  0  0
   60.3510   27.2920   55.0150 C   0  0  0  0  0  0  0  0  0  0  0  0
   61.3760   26.2370   55.3520 C   0  0  0  0  0  0  0  0  0  0  0  0
   62.7480   26.5350   55.2870 C   0  0  0  0  0  0  0  0  0  0  0  0
   63.6970   25.5570   55.6050 C   0  0  0  0  0  0  0  0  0  0  0  0
   63.2840   24.2790   55.9870 C   0  0  0  0  0  0  0  0  0  0  0  0
   61.9220   23.9770   56.0610 C   0  0  0  0  0  0  0  0  0  0  0  0
   60.9710   24.9530   55.7490 C   0  0  0  0  0  0  0  0  0  0  0  0
   60.0590   23.9770   52.3960 C   0  0  0  0  0  0  0  0  0  0  0  0
   56.4697   20.8022   52.5379 H   0  0  0  0  0  0  0  0  0  0  0  0
   55.3690   21.4733   51.2870 H   0  0  0  0  0  0  0  0  0  0  0  0
   55.7667   19.7216   51.2870 H   0  0  0  0  0  0  0  0  0  0  0  0
   57.8033   22.8562   51.6204 H   0  0  0  0  0  0  0  0  0  0  0  0
   58.6794   22.6582   50.0648 H   0  0  0  0  0  0  0  0  0  0  0  0
   56.9318   23.0738   50.0648 H   0  0  0  0  0  0  0  0  0  0  0  0
   56.2783   19.7640   49.1613 H   0  0  0  0  0  0  0  0  0  0  0  0
   56.5585   21.4494   48.6065 H   0  0  0  0  0  0  0  0  0  0  0  0
   57.9110   20.2672   48.6065 H   0  0  0  0  0  0  0  0  0  0  0  0
   62.7257   21.8377   52.3268 H   0  0  0  0  0  0  0  0  0  0  0  0
   63.9519   24.0098   52.3369 H   0  0  0  0  0  0  0  0  0  0  0  0
   62.6921   26.1603   52.3613 H   0  0  0  0  0  0  0  0  0  0  0  0
   59.5146   26.6140   51.3886 H   0  0  0  0  0  0  0  0  0  0  0  0
   59.2044   26.4780   53.1549 H   0  0  0  0  0  0  0  0  0  0  0  0
   64.1209   29.3294   52.2219 H   0  0  0  0  0  0  0  0  0  0  0  0
   63.9317   29.0735   50.4439 H   0  0  0  0  0  0  0  0  0  0  0  0
   65.6978   31.0947   52.4001 H   0  0  0  0  0  0  0  0  0  0  0  0
   66.2174   33.5124   52.0793 H   0  0  0  0  0  0  0  0  0  0  0  0
   64.8394   34.8957   50.5268 H   0  0  0  0  0  0  0  0  0  0  0  0
   62.4490   34.9460   49.2750 H   0  0  0  0  0  0  0  0  0  0  0  0
   60.4741   32.8615   45.7544 H   0  0  0  0  0  0  0  0  0  0  0  0
   59.9965   32.0567   47.8680 H   0  0  0  0  0  0  0  0  0  0  0  0
   59.9984   33.7312   48.5971 H   0  0  0  0  0  0  0  0  0  0  0  0
   57.7393   32.3075   48.2927 H   0  0  0  0  0  0  0  0  0  0  0  0
   57.8101   34.1120   48.1219 H   0  0  0  0  0  0  0  0  0  0  0  0
   57.9419   32.0930   45.8321 H   0  0  0  0  0  0  0  0  0  0  0  0
   56.5078   33.0965   46.3050 H   0  0  0  0  0  0  0  0  0  0  0  0
   58.2129   33.8412   44.3557 H   0  0  0  0  0  0  0  0  0  0  0  0
   57.3803   35.0211   45.4727 H   0  0  0  0  0  0  0  0  0  0  0  0
   60.0006   35.1820   44.9708 H   0  0  0  0  0  0  0  0  0  0  0  0
   59.2926   35.5461   46.5986 H   0  0  0  0  0  0  0  0  0  0  0  0
   62.4462   31.4222   49.5560 H   0  0  0  0  0  0  0  0  0  0  0  0
   61.9869   31.6198   51.7124 H   0  0  0  0  0  0  0  0  0  0  0  0
   59.2121   30.4896   51.5609 H   0  0  0  0  0  0  0  0  0  0  0  0
   59.9831   31.9897   50.8036 H   0  0  0  0  0  0  0  0  0  0  0  0
   61.6858   31.5144   48.8874 H   0  0  0  0  0  0  0  0  0  0  0  0
   61.6407   30.5209   46.6118 H   0  0  0  0  0  0  0  0  0  0  0  0
   59.1748   26.3525   46.7131 H   0  0  0  0  0  0  0  0  0  0  0  0
   56.2022   26.9732   46.2180 H   0  0  0  0  0  0  0  0  0  0  0  0
   57.6077   27.5117   45.2159 H   0  0  0  0  0  0  0  0  0  0  0  0
   56.0536   25.1761   44.8502 H   0  0  0  0  0  0  0  0  0  0  0  0
   57.6453   25.5963   44.0677 H   0  0  0  0  0  0  0  0  0  0  0  0
   56.1298   24.1299   46.9145 H   0  0  0  0  0  0  0  0  0  0  0  0
   57.6153   23.2008   47.3654 H   0  0  0  0  0  0  0  0  0  0  0  0
   56.8439   25.5958   48.5166 H   0  0  0  0  0  0  0  0  0  0  0  0
   58.5353   24.9481   48.4722 H   0  0  0  0  0  0  0  0  0  0  0  0
   58.5109   28.8532   50.1155 H   0  0  0  0  0  0  0  0  0  0  0  0
   62.0051   30.6288   53.9227 H   0  0  0  0  0  0  0  0  0  0  0  0
   59.5100   31.9050   53.8730 H   0  0  0  0  0  0  0  0  0  0  0  0
   59.7745   29.8630   54.9211 H   0  0  0  0  0  0  0  0  0  0  0  0
   58.6440   30.4450   52.9170 H   0  0  0  0  0  0  0  0  0  0  0  0
   61.8910   28.5507   54.2336 H   0  0  0  0  0  0  0  0  0  0  0  0
   60.1081   27.8556   55.9279 H   0  0  0  0  0  0  0  0  0  0  0  0
   59.4617   26.7854   54.6119 H   0  0  0  0  0  0  0  0  0  0  0  0
   63.0769   27.5403   54.9852 H   0  0  0  0  0  0  0  0  0  0  0  0
   64.7697   25.7953   55.5540 H   0  0  0  0  0  0  0  0  0  0  0  0
   64.0316   23.5095   56.2298 H   0  0  0  0  0  0  0  0  0  0  0  0
   61.5977   22.9708   56.3649 H   0  0  0  0  0  0  0  0  0  0  0  0
   59.8994   24.7134   55.8150 H   0  0  0  0  0  0  0  0  0  0  0  0
   58.9595   23.9695   52.4278 H   0  0  0  0  0  0  0  0  0  0  0  0
  1  2  1  0
  2  3  1  0
  2  4  1  0
  2  5  1  0
  5  6  1  0
  6  7  2  0
  6  8  1  0
  8  9  1  0
  9 10  2  0
 10 11  1  0
 11 12  2  0
 12 13  1  0
 13 14  1  0
 14 15  1  0
 15 16  1  0
 16 17  2  0
 16 18  1  0
 18 19  1  0
 19 20  1  0
 20 21  2  0
 21 22  1  0
 22 23  2  0
 23 24  1  0
 24 25  1  0
 25 26  1  0
 26 27  2  0
 26 28  1  0
 28 29  1  0
 29 30  1  0
 30 31  1  0
 31 32  1  0
 32 33  1  0
 33 34  1  0
 24 35  2  0
 18 36  1  0
 36 37  1  0
 37 38  1  0
 38 39  2  0
 39 40  1  0
 40 41  2  0
 41 42  1  0
 41 43  1  0
 43 44  1  0
 44 45  1  0
 45 46  1  0
 46 47  1  0
 47 48  1  0
 48 49  1  0
 49 50  1  0
 43 51  2  0
 36 52  1  0
 52 53  1  0
 52 54  1  0
 54 55  1  0
 54 56  1  0
 56 57  1  0
 57 58  1  0
 58 59  2  0
 59 60  1  0
 60 61  2  0
 61 62  1  0
 62 63  2  0
 13 64  2  0
 64  9  1  0
 56 15  1  0
 63 58  1  0
 35 20  1  0
 51 38  1  0
 34 29  1  0
 50 45  1  0
  1 65  1  0
  1 66  1  0
  1 67  1  0
  3 68  1  0
  3 69  1  0
  3 70  1  0
  4 71  1  0
  4 72  1  0
  4 73  1  0
 10 74  1  0
 11 75  1  0
 12 76  1  0
 14 77  1  0
 14 78  1  0
 19 79  1  0
 19 80  1  0
 21 81  1  0
 22 82  1  0
 23 83  1  0
 25 84  1  0
 29 85  1  0
 30 86  1  0
 30 87  1  0
 31 88  1  0
 31 89  1  0
 32 90  1  0
 32 91  1  0
 33 92  1  0
 33 93  1  0
 34 94  1  0
 34 95  1  0
 35 96  1  0
 36 97  1  1
 37 98  1  0
 37 99  1  0
 39100  1  0
 40101  1  0
 45102  1  0
 46103  1  0
 46104  1  0
 47105  1  0
 47106  1  0
 49107  1  0
 49108  1  0
 50109  1  0
 50110  1  0
 51111  1  0
 52112  1  1
 53113  1  0
 54114  1  1
 55115  1  0
 56116  1  1
 57117  1  0
 57118  1  0
 59119  1  0
 60120  1  0
 61121  1  0
 62122  1  0
 63123  1  0
 64124  1  0
M  CHG  2   8  -1  28  -1
M  END
>  <UniqueID>  (65) 
63

>  <SMILES>  (65) 
CC(C)(C)OC(=O)[N-]c1cccc(CN2C(=O)N(Cc3cccc(NC(=O)[N-]C4CCCCC4)c3)[C@@H](Cc3ccc(Cl)c(OC4CCOCC4)c3)[C@@H](O)C(O)C2Cc2ccccc2)c1

>  <Energy>  (65) 
167.38255742174658

>  <Genealogy>  (65) 
CC(C)(C)OC(=O)[N-]c1cccc(CN2C(=O)N(Cc3cccc(NC(=O)[N-]C4CCCCC4)c3)C(Cc3ccc(Cl)c(OC4CCOCC4)c3)C(O)C(O)C2Cc2ccccc2)c1 (protonated)
CC(C)(C)OC(=O)[N-]c1cccc(CN2C(=O)N(Cc3cccc(NC(=O)[N-]C4CCCCC4)c3)[C@@H](Cc3ccc(Cl)c(OC4CCOCC4)c3)[C@@H](O)C(O)C2Cc2ccccc2)c1 (chirality)
CC(C)(C)OC(=O)[N-]c1cccc(CN2C(=O)N(Cc3cccc(NC(=O)[N-]C4CCCCC4)c3)[C@@H](Cc3ccc(Cl)c(OC4CCOCC4)c3)[C@@H](O)C(O)C2Cc2ccccc2)c1 (3D coordinates assigned)
CC(C)(C)OC(=O)[N-]c1cccc(CN2C(=O)N(Cc3cccc(NC(=O)[N-]C4CCCCC4)c3)[C@@H](Cc3ccc(Cl)c(OC4CCOCC4)c3)[C@@H](O)C(O)C2Cc2ccccc2)c1 (nonaromatic ring conformer: 167.38255742174658 kcal/mol)

>  <smiles>  (65) 
CC(C)(C)OC(=O)Nc1cccc(CN2C(=O)N(Cc3cccc(NC(=O)NC4CCCCC4)c3)C(Cc3ccc(Cl)c(OC4CCOCC4)c3)C(O)C(O)C2Cc2ccccc2)c1

>  <score_type>  (65) 
oracle

>  <origin>  (65) 
adg

>  <m_score__min__energy>  (65) 
-11.51

>  <m_primary>  (65) 
energy

$$$$
65:0
     RDKit          3D

 68 72  0  0  0  0  0  0  0  0999 V2000
   58.9570   33.9000   44.5330 C   0  0  0  0  0  0  0  0  0  0  0  0
   57.5910   33.3700   44.9540 C   0  0  0  0  0  0  0  0  0  0  0  0
   57.6080   31.8940   44.7910 C   0  0  0  0  0  0  0  0  0  0  0  0
   57.0320   31.3250   43.6750 C   0  0  0  0  0  0  0  0  0  0  0  0
   57.0490   29.9480   43.5030 C   0  0  0  0  0  0  0  0  0  0  0  0
   57.6320   29.1030   44.4230 C   0  0  0  0  0  0  0  0  0  0  0  0
   57.6490   27.6390   44.2520 C   0  0  0  0  0  0  0  0  0  0  0  0
   58.0050   27.2260   43.1260 O   0  0  0  0  0  0  0  0  0  0  0  0
   57.2970   26.7370   45.2690 N   0  0  0  0  0  0  0  0  0  0  0  0
   57.2880   25.3300   45.1920 C   0  0  0  0  0  0  0  0  0  0  0  0
   58.3830   24.5180   45.0790 C   0  0  0  0  0  0  0  0  0  0  0  0
   58.3030   23.1290   45.0170 C   0  0  0  0  0  0  0  0  0  0  0  0
   59.5590   22.3220   44.8890 C   0  0  0  0  0  0  0  0  0  0  0  0
   60.5400   22.9860   45.6110 O   0  0  0  0  0  0  0  0  0  0  0  0
   57.0610   22.5370   45.0700 C   0  0  0  0  0  0  0  0  0  0  0  0
   55.9370   23.3060   45.1820 C   0  0  0  0  0  0  0  0  0  0  0  0
   54.6180   22.7200   45.2610 N   0  0  0  0  0  0  0  0  0  0  0  0
   53.4700   23.3710   44.6410 C   0  0  0  0  0  0  0  0  0  0  0  0
   52.4000   23.5000   45.6850 C   0  0  0  0  0  0  0  0  0  0  0  0
   52.1150   22.2140   46.1520 O   0  0  0  0  0  0  0  0  0  0  0  0
   53.1650   21.6690   46.8490 C   0  0  0  0  0  0  0  0  0  0  0  0
   54.4100   21.4650   45.9750 C   0  0  0  0  0  0  0  0  0  0  0  0
   56.0520   24.6790   45.2420 C   0  0  0  0  0  0  0  0  0  0  0  0
   58.2010   29.7000   45.5310 C   0  0  0  0  0  0  0  0  0  0  0  0
   58.1980   31.0770   45.7260 C   0  0  0  0  0  0  0  0  0  0  0  0
   58.8090   31.5420   46.9180 N   0  0  0  0  0  0  0  0  0  0  0  0
   58.4530   32.7580   47.6060 C   0  0  0  0  0  0  0  0  0  0  0  0
   59.6090   33.6680   47.8460 C   0  0  0  0  0  0  0  0  0  0  0  0
   60.9070   32.9590   47.7860 C   0  0  0  0  0  0  0  0  0  0  0  0
   62.0180   33.7140   47.9060 N   0  0  0  0  0  0  0  0  0  0  0  0
   63.2260   33.1290   47.8620 C   0  0  0  0  0  0  0  0  0  0  0  0
   64.2940   33.8550   47.9780 N   0  0  0  0  0  0  0  0  0  0  0  0
   63.4100   31.8040   47.7020 N   0  0  0  0  0  0  0  0  0  0  0  0
   62.3080   31.0480   47.5820 C   0  0  0  0  0  0  0  0  0  0  0  0
   61.0470   31.6050   47.6210 C   0  0  0  0  0  0  0  0  0  0  0  0
   59.8610   30.7260   47.4840 C   0  0  0  0  0  0  0  0  0  0  0  0
   59.5525   34.1311   45.4285 H   0  0  0  0  0  0  0  0  0  0  0  0
   59.4769   33.1384   43.9334 H   0  0  0  0  0  0  0  0  0  0  0  0
   58.8272   34.8130   43.9334 H   0  0  0  0  0  0  0  0  0  0  0  0
   57.3970   33.6283   46.0055 H   0  0  0  0  0  0  0  0  0  0  0  0
   56.7980   33.8162   44.3358 H   0  0  0  0  0  0  0  0  0  0  0  0
   56.5568   31.9655   42.9174 H   0  0  0  0  0  0  0  0  0  0  0  0
   56.5827   29.5174   42.6046 H   0  0  0  0  0  0  0  0  0  0  0  0
   57.0100   27.1710   46.1900 H   0  0  0  0  0  0  0  0  0  0  0  0
   59.3775   24.9860   45.0348 H   0  0  0  0  0  0  0  0  0  0  0  0
   59.4042   21.3135   45.3000 H   0  0  0  0  0  0  0  0  0  0  0  0
   59.8517   22.2139   43.8342 H   0  0  0  0  0  0  0  0  0  0  0  0
   61.4450   22.8480   45.2650 H   0  0  0  0  0  0  0  0  0  0  0  0
   56.9733   21.4416   45.0220 H   0  0  0  0  0  0  0  0  0  0  0  0
   53.7574   24.3673   44.2739 H   0  0  0  0  0  0  0  0  0  0  0  0
   53.1063   22.7799   43.7875 H   0  0  0  0  0  0  0  0  0  0  0  0
   52.7565   24.1303   46.5130 H   0  0  0  0  0  0  0  0  0  0  0  0
   51.4990   23.9683   45.2621 H   0  0  0  0  0  0  0  0  0  0  0  0
   53.4239   22.3421   47.6796 H   0  0  0  0  0  0  0  0  0  0  0  0
   52.8470   20.6806   47.2123 H   0  0  0  0  0  0  0  0  0  0  0  0
   55.2831   21.2348   46.6033 H   0  0  0  0  0  0  0  0  0  0  0  0
   54.2760   20.6251   45.2774 H   0  0  0  0  0  0  0  0  0  0  0  0
   55.1377   25.2839   45.3325 H   0  0  0  0  0  0  0  0  0  0  0  0
   58.6757   29.0605   46.2898 H   0  0  0  0  0  0  0  0  0  0  0  0
   57.7077   33.2947   47.0006 H   0  0  0  0  0  0  0  0  0  0  0  0
   58.0606   32.4679   48.5918 H   0  0  0  0  0  0  0  0  0  0  0  0
   59.6020   34.4576   47.0802 H   0  0  0  0  0  0  0  0  0  0  0  0
   59.5019   34.0867   48.8575 H   0  0  0  0  0  0  0  0  0  0  0  0
   65.2640   33.4830   47.7890 H   0  0  0  0  0  0  0  0  0  0  0  0
   64.3790   31.3950   47.6740 H   0  0  0  0  0  0  0  0  0  0  0  0
   62.4126   29.9610   47.4497 H   0  0  0  0  0  0  0  0  0  0  0  0
   60.0884   29.8820   46.8162 H   0  0  0  0  0  0  0  0  0  0  0  0
   59.5610   30.3078   48.4562 H   0  0  0  0  0  0  0  0  0  0  0  0
  1  2  1  0
  2  3  1  0
  3  4  2  0
  4  5  1  0
  5  6  2  0
  6  7  1  0
  7  8  2  0
  7  9  1  0
  9 10  1  0
 10 11  2  0
 11 12  1  0
 12 13  1  0
 13 14  1  0
 12 15  2  0
 15 16  1  0
 16 17  1  0
 17 18  1  0
 18 19  1  0
 19 20  1  0
 20 21  1  0
 21 22  1  0
 16 23  2  0
  6 24  1  0
 24 25  2  0
 25 26  1  0
 26 27  1  0
 27 28  1  0
 28 29  1  0
 29 30  2  0
 30 31  1  0
 31 32  2  3
 31 33  1  0
 33 34  1  0
 34 35  2  0
 35 36  1  0
 25  3  1  0
 36 26  1  0
 23 10  1  0
 35 29  1  0
 22 17  1  0
  1 37  1  0
  1 38  1  0
  1 39  1  0
  2 40  1  0
  2 41  1  0
  4 42  1  0
  5 43  1  0
  9 44  1  0
 11 45  1  0
 13 46  1  0
 13 47  1  0
 14 48  1  0
 15 49  1  0
 18 50  1  0
 18 51  1  0
 19 52  1  0
 19 53  1  0
 21 54  1  0
 21 55  1  0
 22 56  1  0
 22 57  1  0
 23 58  1  0
 24 59  1  0
 27 60  1  0
 27 61  1  0
 28 62  1  0
 28 63  1  0
 32 64  1  0
 33 65  1  0
 34 66  1  0
 36 67  1  0
 36 68  1  0
M  END
>  <smiles>  (66) 
CCc1ccc(C(=O)Nc2cc(CO)cc(N3CCOCC3)c2)cc1N1CCc2nc(=N)[nH]cc2C1

>  <score_type>  (66) 
oracle

>  <origin>  (66) 
adg

>  <m_score__min__energy>  (66) 
-10.41

>  <m_primary>  (66) 
energy

$$$$
66:0
     RDKit          3D

 61 64  0  0  0  0  0  0  0  0999 V2000
   60.1350   27.0830   48.8200 C   0  0  0  0  0  0  0  0  0  0  0  0
   59.9310   26.5100   47.5320 O   0  0  0  0  0  0  0  0  0  0  0  0
   59.1920   27.1170   46.5080 C   0  0  0  0  0  0  0  0  0  0  0  0
   59.7970   27.8410   45.4620 C   0  0  0  0  0  0  0  0  0  0  0  0
   59.0130   28.4410   44.4710 C   0  0  0  0  0  0  0  0  0  0  0  0
   57.6150   28.3160   44.4970 C   0  0  0  0  0  0  0  0  0  0  0  0
   56.7850   29.0380   43.4650 C   0  0  0  0  0  0  0  0  0  0  0  0
   56.1900   30.2650   44.0770 C   0  0  0  0  0  0  0  0  0  0  0  0
   55.1560   30.1580   44.7920 O   0  0  0  0  0  0  0  0  0  0  0  0
   56.7080   31.5540   43.7200 N   0  0  0  0  0  0  0  0  0  0  0  0
   57.6010   32.3470   44.5140 C   0  0  0  0  0  0  0  0  0  0  0  0
   57.4260   33.7340   44.5350 C   0  0  0  0  0  0  0  0  0  0  0  0
   58.2230   34.5350   45.3580 C   0  0  0  0  0  0  0  0  0  0  0  0
   59.2230   33.9590   46.1560 C   0  0  0  0  0  0  0  0  0  0  0  0
   59.9490   34.7960   47.1830 C   0  0  0  0  0  0  0  0  0  0  0  0
   60.2710   33.9800   48.4170 C   0  0  0  0  0  0  0  0  0  0  0  0
   61.5860   33.8820   48.8890 C   0  0  0  0  0  0  0  0  0  0  0  0
   61.8720   33.2180   50.0880 C   0  0  0  0  0  0  0  0  0  0  0  0
   63.2540   33.2820   50.6350 C   0  0  0  0  0  0  0  0  0  0  0  0
   64.0340   34.2170   50.3030 O   0  0  0  0  0  0  0  0  0  0  0  0
   63.6910   32.2850   51.5710 N   0  0  0  0  0  0  0  0  0  0  0  0
   64.9260   31.5580   51.5570 C   0  0  0  0  0  0  0  0  0  0  0  0
   66.1230   32.2810   51.6570 C   0  0  0  0  0  0  0  0  0  0  0  0
   67.3480   31.6140   51.7020 C   0  0  0  0  0  0  0  0  0  0  0  0
   67.3890   30.2180   51.6560 C   0  0  0  0  0  0  0  0  0  0  0  0
   66.2000   29.4860   51.5720 C   0  0  0  0  0  0  0  0  0  0  0  0
   66.2560   27.7340   51.5370 Cl  0  0  0  0  0  0  0  0  0  0  0  0
   64.9690   30.1520   51.5310 C   0  0  0  0  0  0  0  0  0  0  0  0
   60.8120   32.5740   50.7650 C   0  0  0  0  0  0  0  0  0  0  0  0
   61.0320   31.9790   51.8570 O   0  0  0  0  0  0  0  0  0  0  0  0
   59.5380   32.6050   50.2510 N   0  0  0  0  0  0  0  0  0  0  0  0
   58.4370   31.9520   50.9720 C   0  0  0  0  0  0  0  0  0  0  0  0
   59.2580   33.3110   49.1130 C   0  0  0  0  0  0  0  0  0  0  0  0
   59.4480   32.5730   46.0790 C   0  0  0  0  0  0  0  0  0  0  0  0
   60.4210   31.9920   46.8250 F   0  0  0  0  0  0  0  0  0  0  0  0
   58.6420   31.7720   45.2630 C   0  0  0  0  0  0  0  0  0  0  0  0
   57.0090   27.5930   45.5450 C   0  0  0  0  0  0  0  0  0  0  0  0
   55.6260   27.4670   45.6130 O   0  0  0  0  0  0  0  0  0  0  0  0
   57.7970   26.9990   46.5380 C   0  0  0  0  0  0  0  0  0  0  0  0
   59.8730   26.3470   49.5944 H   0  0  0  0  0  0  0  0  0  0  0  0
   61.1909   27.3710   48.9301 H   0  0  0  0  0  0  0  0  0  0  0  0
   59.4987   27.9735   48.9301 H   0  0  0  0  0  0  0  0  0  0  0  0
   60.8923   27.9351   45.4243 H   0  0  0  0  0  0  0  0  0  0  0  0
   59.4952   29.0147   43.6658 H   0  0  0  0  0  0  0  0  0  0  0  0
   57.4227   29.3238   42.6155 H   0  0  0  0  0  0  0  0  0  0  0  0
   55.9805   28.3762   43.1118 H   0  0  0  0  0  0  0  0  0  0  0  0
   56.6566   34.1977   43.9001 H   0  0  0  0  0  0  0  0  0  0  0  0
   58.0652   35.6234   45.3801 H   0  0  0  0  0  0  0  0  0  0  0  0
   60.8858   35.1708   46.7448 H   0  0  0  0  0  0  0  0  0  0  0  0
   59.2990   35.6337   47.4760 H   0  0  0  0  0  0  0  0  0  0  0  0
   62.4053   34.3329   48.3098 H   0  0  0  0  0  0  0  0  0  0  0  0
   66.0965   33.3798   51.7002 H   0  0  0  0  0  0  0  0  0  0  0  0
   68.2833   32.1884   51.7738 H   0  0  0  0  0  0  0  0  0  0  0  0
   68.3561   29.6948   51.6858 H   0  0  0  0  0  0  0  0  0  0  0  0
   64.0340   29.5749   51.4784 H   0  0  0  0  0  0  0  0  0  0  0  0
   58.6000   32.0487   52.0556 H   0  0  0  0  0  0  0  0  0  0  0  0
   57.4852   32.4317   50.7001 H   0  0  0  0  0  0  0  0  0  0  0  0
   58.4015   30.8867   50.7001 H   0  0  0  0  0  0  0  0  0  0  0  0
   58.2238   33.3533   48.7406 H   0  0  0  0  0  0  0  0  0  0  0  0
   58.8236   30.6885   45.2074 H   0  0  0  0  0  0  0  0  0  0  0  0
   57.3156   26.4340   47.3498 H   0  0  0  0  0  0  0  0  0  0  0  0
  1  2  1  0
  2  3  1  0
  3  4  2  0
  4  5  1  0
  5  6  2  0
  6  7  1  0
  7  8  1  0
  8  9  2  0
  8 10  1  0
 10 11  1  0
 11 12  2  0
 12 13  1  0
 13 14  2  0
 14 15  1  0
 15 16  1  0
 16 17  1  0
 17 18  2  0
 18 19  1  0
 19 20  2  0
 19 21  1  0
 21 22  1  0
 22 23  2  0
 23 24  1  0
 24 25  2  0
 25 26  1  0
 26 27  1  0
 26 28  2  0
 18 29  1  0
 29 30  2  0
 29 31  1  0
 31 32  1  0
 31 33  1  0
 14 34  1  0
 34 35  1  0
 34 36  2  0
  6 37  1  0
 37 38  1  0
 37 39  2  0
 39  3  1  0
 36 11  1  0
 33 16  2  0
 28 22  1  0
  1 40  1  0
  1 41  1  0
  1 42  1  0
  4 43  1  0
  5 44  1  0
  7 45  1  0
  7 46  1  0
 12 47  1  0
 13 48  1  0
 15 49  1  0
 15 50  1  0
 17 51  1  0
 23 52  1  0
 24 53  1  0
 25 54  1  0
 28 55  1  0
 32 56  1  0
 32 57  1  0
 32 58  1  0
 33 59  1  0
 36 60  1  0
 39 61  1  0
M  CHG  3  10  -1  21  -1  38  -1
M  END
>  <UniqueID>  (67) 
64

>  <SMILES>  (67) 
COc1ccc(CC(=O)[N-]c2ccc(Cc3cc(C(=O)[N-]c4cccc(Cl)c4)c(=O)n(C)c3)c(F)c2)c([O-])c1

>  <Energy>  (67) 
74.96864812007126

>  <Genealogy>  (67) 
COc1ccc(CC(=O)[N-]c2ccc(Cc3cc(C(=O)[N-]c4cccc(Cl)c4)c(=O)n(C)c3)c(F)c2)c([O-])c1 (protonated)
COc1ccc(CC(=O)[N-]c2ccc(Cc3cc(C(=O)[N-]c4cccc(Cl)c4)c(=O)n(C)c3)c(F)c2)c([O-])c1 (3D coordinates assigned)
COc1ccc(CC(=O)[N-]c2ccc(Cc3cc(C(=O)[N-]c4cccc(Cl)c4)c(=O)n(C)c3)c(F)c2)c([O-])c1 (optimized conformer: 74.96864812007126 kcal/mol)

>  <smiles>  (67) 
COc1ccc(CC(=O)Nc2ccc(Cc3cc(C(=O)Nc4cccc(Cl)c4)c(=O)n(C)c3)c(F)c2)c(O)c1

>  <score_type>  (67) 
oracle

>  <origin>  (67) 
adg

>  <m_score__min__energy>  (67) 
-15.890000000000001

>  <m_primary>  (67) 
energy

$$$$
67:0
     RDKit          3D

 41 43  0  0  0  0  0  0  0  0999 V2000
   58.8430   29.0430   47.4850 C   0  0  0  0  0  0  0  0  0  0  0  0
   58.3000   28.7180   46.3000 C   0  0  0  0  0  0  0  0  0  0  0  0
   57.6830   27.5020   45.9570 C   0  0  0  0  0  0  0  0  0  0  0  0
   57.6110   26.3270   46.6130 C   0  0  0  0  0  0  0  0  0  0  0  0
   56.7170   25.2020   46.2700 C   0  0  0  0  0  0  0  0  0  0  0  0
   55.3640   25.4350   45.9900 C   0  0  0  0  0  0  0  0  0  0  0  0
   54.8310   26.7160   46.0830 O   0  0  0  0  0  0  0  0  0  0  0  0
   54.5580   24.4020   45.6330 N   0  0  0  0  0  0  0  0  0  0  0  0
   55.0430   23.1390   45.5260 C   0  0  0  0  0  0  0  0  0  0  0  0
   54.2750   22.1970   45.1990 O   0  0  0  0  0  0  0  0  0  0  0  0
   56.3560   22.8920   45.7640 N   0  0  0  0  0  0  0  0  0  0  0  0
   57.2040   23.8910   46.1230 C   0  0  0  0  0  0  0  0  0  0  0  0
   58.4220   23.6300   46.3140 O   0  0  0  0  0  0  0  0  0  0  0  0
   57.1060   27.6960   44.7150 C   0  0  0  0  0  0  0  0  0  0  0  0
   57.4200   28.9800   44.3220 C   0  0  0  0  0  0  0  0  0  0  0  0
   57.0080   29.5950   43.0180 C   0  0  0  0  0  0  0  0  0  0  0  0
   58.1650   29.5960   45.2690 N   0  0  0  0  0  0  0  0  0  0  0  0
   58.6330   30.9890   45.2000 C   0  0  0  0  0  0  0  0  0  0  0  0
   57.4770   31.9380   45.3660 C   0  0  0  0  0  0  0  0  0  0  0  0
   56.4040   31.7180   44.7450 O   0  0  0  0  0  0  0  0  0  0  0  0
   57.5800   33.1260   46.1640 N   0  0  0  0  0  0  0  0  0  0  0  0
   58.5070   33.3540   47.2340 C   0  0  0  0  0  0  0  0  0  0  0  0
   59.4940   34.3360   47.0780 C   0  0  0  0  0  0  0  0  0  0  0  0
   60.3960   34.6020   48.1140 C   0  0  0  0  0  0  0  0  0  0  0  0
   60.3020   33.9010   49.3210 C   0  0  0  0  0  0  0  0  0  0  0  0
   61.1750   34.1610   50.3250 F   0  0  0  0  0  0  0  0  0  0  0  0
   59.3020   32.9410   49.4940 C   0  0  0  0  0  0  0  0  0  0  0  0
   58.4000   32.6720   48.4590 C   0  0  0  0  0  0  0  0  0  0  0  0
   59.2986   30.0340   47.6280 H   0  0  0  0  0  0  0  0  0  0  0  0
   58.8320   28.3182   48.3123 H   0  0  0  0  0  0  0  0  0  0  0  0
   58.2758   26.1940   47.4793 H   0  0  0  0  0  0  0  0  0  0  0  0
   56.5101   26.9652   44.1486 H   0  0  0  0  0  0  0  0  0  0  0  0
   56.4053   30.4947   43.2111 H   0  0  0  0  0  0  0  0  0  0  0  0
   57.9044   29.8706   42.4431 H   0  0  0  0  0  0  0  0  0  0  0  0
   56.4121   28.8709   42.4431 H   0  0  0  0  0  0  0  0  0  0  0  0
   59.3654   31.1657   46.0015 H   0  0  0  0  0  0  0  0  0  0  0  0
   59.0989   31.1614   44.2186 H   0  0  0  0  0  0  0  0  0  0  0  0
   59.5601   34.9007   46.1363 H   0  0  0  0  0  0  0  0  0  0  0  0
   61.1793   35.3625   47.9794 H   0  0  0  0  0  0  0  0  0  0  0  0
   59.2236   32.3955   50.4460 H   0  0  0  0  0  0  0  0  0  0  0  0
   57.6053   31.9253   48.6038 H   0  0  0  0  0  0  0  0  0  0  0  0
  1  2  2  0
  2  3  1  0
  3  4  2  3
  4  5  1  0
  5  6  2  0
  6  7  1  0
  6  8  1  0
  8  9  1  0
  9 10  2  0
  9 11  1  0
 11 12  1  0
 12 13  2  0
  3 14  1  0
 14 15  2  0
 15 16  1  0
 15 17  1  0
 17 18  1  0
 18 19  1  0
 19 20  2  0
 19 21  1  0
 21 22  1  0
 22 23  2  0
 23 24  1  0
 24 25  2  0
 25 26  1  0
 25 27  1  0
 27 28  2  0
 17  2  1  0
 28 22  1  0
 12  5  1  0
  1 29  1  0
  1 30  1  0
  4 31  1  0
 14 32  1  0
 16 33  1  0
 16 34  1  0
 16 35  1  0
 18 36  1  0
 18 37  1  0
 23 38  1  0
 24 39  1  0
 27 40  1  0
 28 41  1  0
M  CHG  4   7  -1   8  -1  11  -1  21  -1
M  END
>  <UniqueID>  (68) 
65

>  <SMILES>  (68) 
C=c1c(=Cc2c([O-])[n-]c(=O)[n-]c2=O)cc(C)n1CC(=O)[N-]c1ccc(F)cc1

>  <Energy>  (68) 
90.38419001054494

>  <Genealogy>  (68) 
C=c1c(=Cc2c([O-])[n-]c(=O)[n-]c2=O)cc(C)n1CC(=O)[N-]c1ccc(F)cc1 (protonated)
C=c1c(=Cc2c([O-])[n-]c(=O)[n-]c2=O)cc(C)n1CC(=O)[N-]c1ccc(F)cc1 (3D coordinates assigned)
C=c1c(=Cc2c([O-])[n-]c(=O)[n-]c2=O)cc(C)n1CC(=O)[N-]c1ccc(F)cc1 (optimized conformer: 90.38419001054494 kcal/mol)

>  <smiles>  (68) 
C=c1c(=Cc2c(O)[nH]c(=O)[nH]c2=O)cc(C)n1CC(=O)Nc1ccc(F)cc1

>  <score_type>  (68) 
oracle

>  <origin>  (68) 
adg

>  <m_score__min__energy>  (68) 
-17.460000000000001

>  <m_primary>  (68) 
energy

$$$$
68:0
     RDKit          3D

 43 45  0  0  0  0  0  0  0  0999 V2000
   60.7620   27.6390   50.7410 C   0  0  0  0  0  0  0  0  0  0  0  0
   60.1300   27.8970   49.4920 O   0  0  0  0  0  0  0  0  0  0  0  0
   60.5220   28.8990   48.5870 C   0  0  0  0  0  0  0  0  0  0  0  0
   61.0980   30.1070   49.0260 C   0  0  0  0  0  0  0  0  0  0  0  0
   61.4520   31.1090   48.1060 C   0  0  0  0  0  0  0  0  0  0  0  0
   62.0200   32.3270   48.5060 O   0  0  0  0  0  0  0  0  0  0  0  0
   61.7280   33.5780   47.9500 C   0  0  0  0  0  0  0  0  0  0  0  0
   62.5060   34.1180   47.1160 O   0  0  0  0  0  0  0  0  0  0  0  0
   60.4200   34.2280   48.2650 C   0  0  0  0  0  0  0  0  0  0  0  0
   59.4660   34.0460   47.1170 C   0  0  0  0  0  0  0  0  0  0  0  0
   58.3480   33.2070   47.2520 C   0  0  0  0  0  0  0  0  0  0  0  0
   57.4430   33.0650   46.1950 C   0  0  0  0  0  0  0  0  0  0  0  0
   57.6430   33.7670   45.0030 C   0  0  0  0  0  0  0  0  0  0  0  0
   58.7450   34.6140   44.8670 C   0  0  0  0  0  0  0  0  0  0  0  0
   59.6530   34.7590   45.9210 C   0  0  0  0  0  0  0  0  0  0  0  0
   61.1890   30.9140   46.7480 C   0  0  0  0  0  0  0  0  0  0  0  0
   60.6240   29.7190   46.3000 C   0  0  0  0  0  0  0  0  0  0  0  0
   60.3100   28.6950   47.2060 C   0  0  0  0  0  0  0  0  0  0  0  0
   59.7210   27.4350   46.6930 C   0  0  0  0  0  0  0  0  0  0  0  0
   60.4610   26.4180   46.5950 O   0  0  0  0  0  0  0  0  0  0  0  0
   58.2900   27.3260   46.3140 C   0  0  0  0  0  0  0  0  0  0  0  0
   57.6410   28.3660   45.6250 C   0  0  0  0  0  0  0  0  0  0  0  0
   56.2920   28.2370   45.2900 C   0  0  0  0  0  0  0  0  0  0  0  0
   55.6070   27.1170   45.6350 N   0  0  0  0  0  0  0  0  0  0  0  0
   56.2000   26.0980   46.3110 C   0  0  0  0  0  0  0  0  0  0  0  0
   55.5320   25.0760   46.6160 O   0  0  0  0  0  0  0  0  0  0  0  0
   57.5500   26.1860   46.6660 C   0  0  0  0  0  0  0  0  0  0  0  0
   60.0823   27.9165   51.5601 H   0  0  0  0  0  0  0  0  0  0  0  0
   61.0066   26.5690   50.8141 H   0  0  0  0  0  0  0  0  0  0  0  0
   61.6855   28.2321   50.8141 H   0  0  0  0  0  0  0  0  0  0  0  0
   61.2726   30.2680   50.1001 H   0  0  0  0  0  0  0  0  0  0  0  0
   59.9936   33.7693   49.1693 H   0  0  0  0  0  0  0  0  0  0  0  0
   60.5820   35.3029   48.4331 H   0  0  0  0  0  0  0  0  0  0  0  0
   58.1835   32.6598   48.1919 H   0  0  0  0  0  0  0  0  0  0  0  0
   56.5731   32.4003   46.3019 H   0  0  0  0  0  0  0  0  0  0  0  0
   56.9320   33.6522   44.1716 H   0  0  0  0  0  0  0  0  0  0  0  0
   58.8992   35.1681   43.9293 H   0  0  0  0  0  0  0  0  0  0  0  0
   60.5156   35.4330   45.8132 H   0  0  0  0  0  0  0  0  0  0  0  0
   61.4291   31.7085   46.0261 H   0  0  0  0  0  0  0  0  0  0  0  0
   60.4232   29.5789   45.2276 H   0  0  0  0  0  0  0  0  0  0  0  0
   58.1937   29.2768   45.3513 H   0  0  0  0  0  0  0  0  0  0  0  0
   55.7826   29.0453   44.7449 H   0  0  0  0  0  0  0  0  0  0  0  0
   58.0301   25.3651   47.2189 H   0  0  0  0  0  0  0  0  0  0  0  0
  1  2  1  0
  2  3  1  0
  3  4  2  0
  4  5  1  0
  5  6  1  0
  6  7  1  0
  7  8  2  0
  7  9  1  0
  9 10  1  0
 10 11  2  0
 11 12  1  0
 12 13  2  0
 13 14  1  0
 14 15  2  0
  5 16  2  0
 16 17  1  0
 17 18  2  0
 18 19  1  0
 19 20  2  0
 19 21  1  0
 21 22  1  0
 22 23  2  0
 23 24  1  0
 24 25  1  0
 25 26  2  0
 25 27  1  0
 18  3  1  0
 27 21  2  0
 15 10  1  0
  1 28  1  0
  1 29  1  0
  1 30  1  0
  4 31  1  0
  9 32  1  0
  9 33  1  0
 11 34  1  0
 12 35  1  0
 13 36  1  0
 14 37  1  0
 15 38  1  0
 16 39  1  0
 17 40  1  0
 22 41  1  0
 23 42  1  0
 27 43  1  0
M  CHG  1  24  -1
M  END
>  <UniqueID>  (69) 
66

>  <SMILES>  (69) 
COc1cc(OC(=O)Cc2ccccc2)ccc1C(=O)c1cc[n-]c(=O)c1

>  <Energy>  (69) 
55.76642794773697

>  <Genealogy>  (69) 
COc1cc(OC(=O)Cc2ccccc2)ccc1C(=O)c1cc[n-]c(=O)c1 (protonated)
COc1cc(OC(=O)Cc2ccccc2)ccc1C(=O)c1cc[n-]c(=O)c1 (3D coordinates assigned)
COc1cc(OC(=O)Cc2ccccc2)ccc1C(=O)c1cc[n-]c(=O)c1 (optimized conformer: 55.76642794773697 kcal/mol)

>  <smiles>  (69) 
COc1cc(OC(=O)Cc2ccccc2)ccc1C(=O)c1cc[nH]c(=O)c1

>  <score_type>  (69) 
oracle

>  <origin>  (69) 
adg

>  <m_score__min__energy>  (69) 
-10.49

>  <m_primary>  (69) 
energy

$$$$
69:0
     RDKit          3D

 29 30  0  0  0  0  0  0  0  0999 V2000
   55.5430   29.4340   44.9040 O   0  0  0  0  0  0  0  0  0  0  0  0
   56.6450   29.4650   44.3770 C   0  0  0  0  0  0  0  0  0  0  0  0
   57.5710   28.2860   44.5290 C   0  0  0  0  0  0  0  0  0  0  0  0
   57.6490   27.8280   45.9590 C   0  0  0  0  0  0  0  0  0  0  0  0
   58.0860   28.6260   46.8300 O   0  0  0  0  0  0  0  0  0  0  0  0
   57.2040   26.4780   46.3630 C   0  0  0  0  0  0  0  0  0  0  0  0
   58.0150   25.4770   46.7500 N   0  0  0  0  0  0  0  0  0  0  0  0
   57.1900   24.4350   46.9710 C   0  0  0  0  0  0  0  0  0  0  0  0
   57.5980   23.3050   47.3490 O   0  0  0  0  0  0  0  0  0  0  0  0
   55.8870   24.7060   46.7490 N   0  0  0  0  0  0  0  0  0  0  0  0
   55.9120   25.9970   46.3660 C   0  0  0  0  0  0  0  0  0  0  0  0
   54.7750   26.7150   46.0140 O   0  0  0  0  0  0  0  0  0  0  0  0
   57.0490   30.6810   43.5850 C   0  0  0  0  0  0  0  0  0  0  0  0
   57.5450   31.7670   44.5030 C   0  0  0  0  0  0  0  0  0  0  0  0
   57.8740   31.4700   45.8370 C   0  0  0  0  0  0  0  0  0  0  0  0
   58.3880   32.4650   46.6750 C   0  0  0  0  0  0  0  0  0  0  0  0
   58.5730   33.7620   46.1900 C   0  0  0  0  0  0  0  0  0  0  0  0
   58.2410   34.0690   44.8680 C   0  0  0  0  0  0  0  0  0  0  0  0
   57.7270   33.0780   44.0270 C   0  0  0  0  0  0  0  0  0  0  0  0
   57.1998   27.4574   43.9079 H   0  0  0  0  0  0  0  0  0  0  0  0
   58.5775   28.5940   44.2096 H   0  0  0  0  0  0  0  0  0  0  0  0
   59.0530   25.4910   46.8580 H   0  0  0  0  0  0  0  0  0  0  0  0
   57.8502   30.4062   42.8832 H   0  0  0  0  0  0  0  0  0  0  0  0
   56.1733   31.0536   43.0334 H   0  0  0  0  0  0  0  0  0  0  0  0
   57.7266   30.4507   46.2235 H   0  0  0  0  0  0  0  0  0  0  0  0
   58.6468   32.2260   47.7171 H   0  0  0  0  0  0  0  0  0  0  0  0
   58.9805   34.5423   46.8496 H   0  0  0  0  0  0  0  0  0  0  0  0
   58.3843   35.0916   44.4887 H   0  0  0  0  0  0  0  0  0  0  0  0
   57.4635   33.3245   42.9879 H   0  0  0  0  0  0  0  0  0  0  0  0
  1  2  2  0
  2  3  1  0
  3  4  1  0
  4  5  2  0
  4  6  1  0
  6  7  1  0
  7  8  1  0
  8  9  2  0
  8 10  1  0
 10 11  1  0
 11 12  1  0
  2 13  1  0
 13 14  1  0
 14 15  2  0
 15 16  1  0
 16 17  2  0
 17 18  1  0
 18 19  2  0
 11  6  2  0
 19 14  1  0
  3 20  1  0
  3 21  1  0
  7 22  1  0
 13 23  1  0
 13 24  1  0
 15 25  1  0
 16 26  1  0
 17 27  1  0
 18 28  1  0
 19 29  1  0
M  CHG  2  10  -1  12  -1
M  END
>  <UniqueID>  (70) 
67

>  <SMILES>  (70) 
O=C(CC(=O)c1[nH]c(=O)[n-]c1[O-])Cc1ccccc1

>  <Energy>  (70) 
54.13815088043422

>  <Genealogy>  (70) 
O=C(CC(=O)c1[nH]c(=O)[n-]c1[O-])Cc1ccccc1 (protonated)
O=C(CC(=O)c1[nH]c(=O)[n-]c1[O-])Cc1ccccc1 (3D coordinates assigned)
O=C(CC(=O)c1[nH]c(=O)[n-]c1[O-])Cc1ccccc1 (optimized conformer: 54.13815088043422 kcal/mol)

>  <smiles>  (70) 
O=C(CC(=O)c1[nH]c(=O)[nH]c1O)Cc1ccccc1

>  <score_type>  (70) 
oracle

>  <origin>  (70) 
adg

>  <m_score__min__energy>  (70) 
-13.5

>  <m_primary>  (70) 
energy

$$$$
70:0
     RDKit          3D

 50 52  0  0  0  0  0  0  0  0999 V2000
   53.7880   23.7190   43.8520 C   0  0  0  0  0  0  0  0  0  0  0  0
   53.6420   23.2520   45.2630 C   0  0  0  0  0  0  0  0  0  0  0  0
   52.6930   22.3910   45.6840 N   0  0  0  0  0  0  0  0  0  0  0  0
   52.8490   22.2250   46.9920 N   0  0  0  0  0  0  0  0  0  0  0  0
   52.0120   21.3300   47.7890 C   0  0  0  0  0  0  0  0  0  0  0  0
   53.9040   22.9530   47.4290 C   0  0  0  0  0  0  0  0  0  0  0  0
   54.4090   22.9620   48.8410 C   0  0  0  0  0  0  0  0  0  0  0  0
   54.4110   23.6490   46.3380 C   0  0  0  0  0  0  0  0  0  0  0  0
   55.5170   24.5570   46.2670 N   0  0  0  0  0  0  0  0  0  0  0  0
   57.1650   24.1060   45.9730 S   0  0  0  0  0  0  0  0  0  0  0  0
   57.7240   23.3620   47.1530 O   0  0  0  0  0  0  0  0  0  0  0  0
   57.2450   23.2390   44.7450 O   0  0  0  0  0  0  0  0  0  0  0  0
   58.1030   25.5780   45.7520 C   0  0  0  0  0  0  0  0  0  0  0  0
   59.3310   25.7150   46.4110 C   0  0  0  0  0  0  0  0  0  0  0  0
   60.0760   26.8870   46.2700 C   0  0  0  0  0  0  0  0  0  0  0  0
   59.6020   27.9310   45.4720 C   0  0  0  0  0  0  0  0  0  0  0  0
   58.3720   27.8070   44.7940 C   0  0  0  0  0  0  0  0  0  0  0  0
   57.8550   28.8610   43.9620 N   0  0  0  0  0  0  0  0  0  0  0  0
   56.3000   29.5950   44.1870 S   0  0  0  0  0  0  0  0  0  0  0  0
   55.5260   28.8240   45.2210 O   0  0  0  0  0  0  0  0  0  0  0  0
   55.5370   29.5780   42.8910 O   0  0  0  0  0  0  0  0  0  0  0  0
   56.4970   31.2350   44.7090 N   0  0  0  0  0  0  0  0  0  0  0  0
   57.6160   32.0350   44.3140 C   0  0  0  0  0  0  0  0  0  0  0  0
   58.1000   31.9010   43.1570 O   0  0  0  0  0  0  0  0  0  0  0  0
   58.2090   33.0050   45.2600 C   0  0  0  0  0  0  0  0  0  0  0  0
   58.0720   32.8220   46.6500 C   0  0  0  0  0  0  0  0  0  0  0  0
   58.6100   33.7560   47.5410 C   0  0  0  0  0  0  0  0  0  0  0  0
   59.2870   34.8780   47.0600 C   0  0  0  0  0  0  0  0  0  0  0  0
   59.4370   35.0650   45.6840 C   0  0  0  0  0  0  0  0  0  0  0  0
   58.9040   34.1360   44.7870 C   0  0  0  0  0  0  0  0  0  0  0  0
   57.6260   26.6250   44.9480 C   0  0  0  0  0  0  0  0  0  0  0  0
   54.1162   24.7689   43.8454 H   0  0  0  0  0  0  0  0  0  0  0  0
   54.5349   23.0981   43.3357 H   0  0  0  0  0  0  0  0  0  0  0  0
   52.8204   23.6341   43.3357 H   0  0  0  0  0  0  0  0  0  0  0  0
   52.1883   21.5185   48.8583 H   0  0  0  0  0  0  0  0  0  0  0  0
   50.9530   21.5125   47.5542 H   0  0  0  0  0  0  0  0  0  0  0  0
   52.2649   20.2855   47.5542 H   0  0  0  0  0  0  0  0  0  0  0  0
   53.5561   22.9468   49.5355 H   0  0  0  0  0  0  0  0  0  0  0  0
   55.0367   22.0749   49.0116 H   0  0  0  0  0  0  0  0  0  0  0  0
   55.0046   23.8709   49.0116 H   0  0  0  0  0  0  0  0  0  0  0  0
   59.7095   24.8969   47.0414 H   0  0  0  0  0  0  0  0  0  0  0  0
   61.0403   26.9889   46.7894 H   0  0  0  0  0  0  0  0  0  0  0  0
   60.1913   28.8544   45.3721 H   0  0  0  0  0  0  0  0  0  0  0  0
   58.4620   29.2550   43.2080 H   0  0  0  0  0  0  0  0  0  0  0  0
   57.5394   31.9404   47.0363 H   0  0  0  0  0  0  0  0  0  0  0  0
   58.4993   33.6059   48.6251 H   0  0  0  0  0  0  0  0  0  0  0  0
   59.7020   35.6143   47.7641 H   0  0  0  0  0  0  0  0  0  0  0  0
   59.9762   35.9460   45.3056 H   0  0  0  0  0  0  0  0  0  0  0  0
   59.0276   34.2883   43.7046 H   0  0  0  0  0  0  0  0  0  0  0  0
   56.6594   26.5199   44.4335 H   0  0  0  0  0  0  0  0  0  0  0  0
  1  2  1  0
  2  3  2  0
  3  4  1  0
  4  5  1  0
  4  6  1  0
  6  7  1  0
  6  8  2  0
  8  9  1  0
  9 10  1  0
 10 11  2  0
 10 12  2  0
 10 13  1  0
 13 14  2  0
 14 15  1  0
 15 16  2  0
 16 17  1  0
 17 18  1  0
 18 19  1  0
 19 20  2  0
 19 21  2  0
 19 22  1  0
 22 23  1  0
 23 24  2  0
 23 25  1  0
 25 26  2  0
 26 27  1  0
 27 28  2  0
 28 29  1  0
 29 30  2  0
 17 31  2  0
  8  2  1  0
 31 13  1  0
 30 25  1  0
  1 32  1  0
  1 33  1  0
  1 34  1  0
  5 35  1  0
  5 36  1  0
  5 37  1  0
  7 38  1  0
  7 39  1  0
  7 40  1  0
 14 41  1  0
 15 42  1  0
 16 43  1  0
 18 44  1  0
 26 45  1  0
 27 46  1  0
 28 47  1  0
 29 48  1  0
 30 49  1  0
 31 50  1  0
M  CHG  2   9  -1  22  -1
M  END
>  <UniqueID>  (71) 
68

>  <SMILES>  (71) 
Cc1nn(C)c(C)c1[N-]S(=O)(=O)c1cccc(NS(=O)(=O)[N-]C(=O)c2ccccc2)c1

>  <Energy>  (71) 
91.96370035890641

>  <Genealogy>  (71) 
Cc1nn(C)c(C)c1[N-]S(=O)(=O)c1cccc(NS(=O)(=O)[N-]C(=O)c2ccccc2)c1 (protonated)
Cc1nn(C)c(C)c1[N-]S(=O)(=O)c1cccc(NS(=O)(=O)[N-]C(=O)c2ccccc2)c1 (3D coordinates assigned)
Cc1nn(C)c(C)c1[N-]S(=O)(=O)c1cccc(NS(=O)(=O)[N-]C(=O)c2ccccc2)c1 (optimized conformer: 91.96370035890641 kcal/mol)

>  <smiles>  (71) 
Cc1nn(C)c(C)c1NS(=O)(=O)c1cccc(NS(=O)(=O)NC(=O)c2ccccc2)c1

>  <score_type>  (71) 
oracle

>  <origin>  (71) 
adg

>  <m_score__min__energy>  (71) 
-13.789999999999999

>  <m_primary>  (71) 
energy

$$$$
71:0
     RDKit          3D

 58 60  0  0  0  0  0  0  0  0999 V2000
   69.0950   34.6050   50.1360 C   0  0  0  0  0  0  0  0  0  0  0  0
   68.2350   35.0240   51.3230 C   0  0  0  0  0  0  0  0  0  0  0  0
   67.5040   33.9110   51.8320 O   0  0  0  0  0  0  0  0  0  0  0  0
   66.7330   33.0660   51.0230 C   0  0  0  0  0  0  0  0  0  0  0  0
   67.2320   32.0250   50.5180 O   0  0  0  0  0  0  0  0  0  0  0  0
   65.3000   33.4220   50.7340 C   0  0  0  0  0  0  0  0  0  0  0  0
   64.9480   33.0580   49.2810 C   0  0  0  0  0  0  0  0  0  0  0  0
   63.4950   33.4440   48.9750 C   0  0  0  0  0  0  0  0  0  0  0  0
   62.5840   32.9970   50.0390 N   0  0  0  0  0  0  0  0  0  0  0  0
   61.2300   33.4830   50.0680 C   0  0  0  0  0  0  0  0  0  0  0  0
   60.7550   33.9290   51.1470 O   0  0  0  0  0  0  0  0  0  0  0  0
   60.3860   33.4720   48.8530 C   0  0  0  0  0  0  0  0  0  0  0  0
   60.3790   34.5760   47.9840 C   0  0  0  0  0  0  0  0  0  0  0  0
   59.5680   34.5730   46.8460 C   0  0  0  0  0  0  0  0  0  0  0  0
   58.7430   33.4760   46.5690 C   0  0  0  0  0  0  0  0  0  0  0  0
   57.6810   33.5210   45.1660 S   0  0  0  0  0  0  0  0  0  0  0  0
   56.8950   34.8020   45.1870 O   0  0  0  0  0  0  0  0  0  0  0  0
   58.4830   33.4650   43.8940 O   0  0  0  0  0  0  0  0  0  0  0  0
   56.5930   32.1700   45.2380 N   0  0  0  0  0  0  0  0  0  0  0  0
   57.3010   30.9350   44.8850 C   0  0  0  0  0  0  0  0  0  0  0  0
   56.3310   29.8850   44.4180 C   0  0  0  0  0  0  0  0  0  0  0  0
   55.1610   30.2250   44.1020 O   0  0  0  0  0  0  0  0  0  0  0  0
   56.6880   28.4960   44.3930 N   0  0  0  0  0  0  0  0  0  0  0  0
   57.2000   27.7780   45.3550 C   0  0  0  0  0  0  0  0  0  0  0  0
   58.5270   27.9330   45.6210 N   0  0  0  0  0  0  0  0  0  0  0  0
   59.1680   27.2210   46.5830 C   0  0  0  0  0  0  0  0  0  0  0  0
   58.4690   26.2880   47.3450 C   0  0  0  0  0  0  0  0  0  0  0  0
   57.1040   26.1160   47.1230 C   0  0  0  0  0  0  0  0  0  0  0  0
   56.4510   26.8660   46.1420 C   0  0  0  0  0  0  0  0  0  0  0  0
   55.0770   26.7190   46.0030 O   0  0  0  0  0  0  0  0  0  0  0  0
   58.7340   32.3800   47.4420 C   0  0  0  0  0  0  0  0  0  0  0  0
   59.5480   32.3790   48.5780 C   0  0  0  0  0  0  0  0  0  0  0  0
   63.0830   32.1500   51.1310 C   0  0  0  0  0  0  0  0  0  0  0  0
   64.3450   32.7590   51.7640 C   0  0  0  0  0  0  0  0  0  0  0  0
   70.0278   34.1506   50.5013 H   0  0  0  0  0  0  0  0  0  0  0  0
   68.5455   33.8736   49.5251 H   0  0  0  0  0  0  0  0  0  0  0  0
   69.3323   35.4885   49.5251 H   0  0  0  0  0  0  0  0  0  0  0  0
   68.8840   35.4233   52.1163 H   0  0  0  0  0  0  0  0  0  0  0  0
   67.5226   35.7933   50.9902 H   0  0  0  0  0  0  0  0  0  0  0  0
   65.1686   34.5088   50.8416 H   0  0  0  0  0  0  0  0  0  0  0  0
   65.6192   33.5993   48.5980 H   0  0  0  0  0  0  0  0  0  0  0  0
   65.0676   31.9732   49.1438 H   0  0  0  0  0  0  0  0  0  0  0  0
   63.4275   34.5380   48.8827 H   0  0  0  0  0  0  0  0  0  0  0  0
   63.1974   32.9532   48.0366 H   0  0  0  0  0  0  0  0  0  0  0  0
   61.0150   35.4470   48.2005 H   0  0  0  0  0  0  0  0  0  0  0  0
   59.5777   35.4365   46.1646 H   0  0  0  0  0  0  0  0  0  0  0  0
   55.8450   32.3340   44.5250 H   0  0  0  0  0  0  0  0  0  0  0  0
   58.0194   31.1475   44.0796 H   0  0  0  0  0  0  0  0  0  0  0  0
   57.8278   30.5609   45.7752 H   0  0  0  0  0  0  0  0  0  0  0  0
   60.2416   27.3813   46.7610 H   0  0  0  0  0  0  0  0  0  0  0  0
   58.9877   25.6945   48.1122 H   0  0  0  0  0  0  0  0  0  0  0  0
   56.5388   25.3871   47.7224 H   0  0  0  0  0  0  0  0  0  0  0  0
   58.0841   31.5176   47.2325 H   0  0  0  0  0  0  0  0  0  0  0  0
   59.5323   31.5168   49.2610 H   0  0  0  0  0  0  0  0  0  0  0  0
   62.3026   32.0576   51.9007 H   0  0  0  0  0  0  0  0  0  0  0  0
   63.3371   31.1613   50.7213 H   0  0  0  0  0  0  0  0  0  0  0  0
   64.0347   33.5228   52.4922 H   0  0  0  0  0  0  0  0  0  0  0  0
   64.9003   31.9338   52.2338 H   0  0  0  0  0  0  0  0  0  0  0  0
  1  2  1  0
  2  3  1  0
  3  4  1  0
  4  5  2  0
  4  6  1  0
  6  7  1  0
  7  8  1  0
  8  9  1  0
  9 10  1  0
 10 11  2  0
 10 12  1  0
 12 13  2  0
 13 14  1  0
 14 15  2  0
 15 16  1  0
 16 17  2  0
 16 18  2  0
 16 19  1  0
 19 20  1  0
 20 21  1  0
 21 22  2  0
 21 23  1  0
 23 24  2  3
 24 25  1  0
 25 26  1  0
 26 27  2  0
 27 28  1  0
 28 29  2  0
 29 30  1  0
 15 31  1  0
 31 32  2  0
  9 33  1  0
 33 34  1  0
 34  6  1  0
 32 12  1  0
 29 24  1  0
  1 35  1  0
  1 36  1  0
  1 37  1  0
  2 38  1  0
  2 39  1  0
  6 40  1  0
  7 41  1  0
  7 42  1  0
  8 43  1  0
  8 44  1  0
 13 45  1  0
 14 46  1  0
 19 47  1  0
 20 48  1  0
 20 49  1  0
 26 50  1  0
 27 51  1  0
 28 52  1  0
 31 53  1  0
 32 54  1  0
 33 55  1  0
 33 56  1  0
 34 57  1  0
 34 58  1  0
M  CHG  2  25  -1  30  -1
M  END
>  <UniqueID>  (72) 
69

>  <SMILES>  (72) 
CCOC(=O)C1CCN(C(=O)c2ccc(S(=O)(=O)NCC(=O)N=c3[n-]cccc3[O-])cc2)CC1

>  <Energy>  (72) 
71.44172423753785

>  <Genealogy>  (72) 
CCOC(=O)C1CCN(C(=O)c2ccc(S(=O)(=O)NCC(=O)N=c3[n-]cccc3[O-])cc2)CC1 (protonated)
CCOC(=O)C1CCN(C(=O)c2ccc(S(=O)(=O)NCC(=O)N=c3[n-]cccc3[O-])cc2)CC1 (3D coordinates assigned)
CCOC(=O)C1CCN(C(=O)c2ccc(S(=O)(=O)NCC(=O)N=c3[n-]cccc3[O-])cc2)CC1 (nonaromatic ring conformer: 71.44172423753785 kcal/mol)

>  <smiles>  (72) 
CCOC(=O)C1CCN(C(=O)c2ccc(S(=O)(=O)NCC(=O)N=c3[nH]cccc3O)cc2)CC1

>  <score_type>  (72) 
oracle

>  <origin>  (72) 
adg

>  <m_score__min__energy>  (72) 
-14.960000000000001

>  <m_primary>  (72) 
energy

$$$$
72:0
     RDKit          3D

 57 60  0  0  0  0  0  0  0  0999 V2000
   55.7740   25.9660   45.9670 C   0  0  0  0  0  0  0  0  0  0  0  0
   57.2610   26.2390   46.0030 C   0  0  0  0  0  0  0  0  0  0  0  0
   57.7370   27.5720   45.9950 C   0  0  0  0  0  0  0  0  0  0  0  0
   56.8140   28.6700   46.0020 N   0  0  0  0  0  0  0  0  0  0  0  0
   56.4000   29.4180   44.8520 C   0  0  0  0  0  0  0  0  0  0  0  0
   55.1970   29.3470   44.4820 O   0  0  0  0  0  0  0  0  0  0  0  0
   57.3850   30.1720   44.0010 C   0  0  0  0  0  0  0  0  0  0  0  0
   57.8250   31.4330   44.6800 C   0  0  0  0  0  0  0  0  0  0  0  0
   57.0210   32.5280   44.6750 N   0  0  0  0  0  0  0  0  0  0  0  0
   57.3910   33.6680   45.3110 C   0  0  0  0  0  0  0  0  0  0  0  0
   56.6300   34.6700   45.2910 O   0  0  0  0  0  0  0  0  0  0  0  0
   58.6100   33.7250   45.9890 C   0  0  0  0  0  0  0  0  0  0  0  0
   59.4400   32.5870   45.9940 C   0  0  0  0  0  0  0  0  0  0  0  0
   60.7130   32.5630   46.6870 N   0  0  0  0  0  0  0  0  0  0  0  0
   61.2510   31.2940   47.2100 C   0  0  0  0  0  0  0  0  0  0  0  0
   62.4640   31.5020   48.1220 C   0  0  0  0  0  0  0  0  0  0  0  0
   63.3490   32.4510   47.5740 O   0  0  0  0  0  0  0  0  0  0  0  0
   62.7320   33.7180   47.6090 C   0  0  0  0  0  0  0  0  0  0  0  0
   61.5490   33.7780   46.6400 C   0  0  0  0  0  0  0  0  0  0  0  0
   59.0120   31.4720   45.3380 N   0  0  0  0  0  0  0  0  0  0  0  0
   59.1160   27.8190   46.0520 C   0  0  0  0  0  0  0  0  0  0  0  0
   60.0260   26.7660   46.0790 C   0  0  0  0  0  0  0  0  0  0  0  0
   59.5700   25.4500   46.0740 C   0  0  0  0  0  0  0  0  0  0  0  0
   58.1930   25.1710   46.0530 C   0  0  0  0  0  0  0  0  0  0  0  0
   57.7630   23.7550   46.1090 C   0  0  0  0  0  0  0  0  0  0  0  0
   57.7610   23.1640   47.2230 O   0  0  0  0  0  0  0  0  0  0  0  0
   57.3700   23.0430   44.9190 N   0  0  0  0  0  0  0  0  0  0  0  0
   57.6500   21.6080   44.7910 C   0  0  0  0  0  0  0  0  0  0  0  0
   56.5570   20.9360   43.9530 C   0  0  0  0  0  0  0  0  0  0  0  0
   56.3690   21.6170   42.7270 O   0  0  0  0  0  0  0  0  0  0  0  0
   55.8750   22.9200   42.9750 C   0  0  0  0  0  0  0  0  0  0  0  0
   56.9140   23.7620   43.7230 C   0  0  0  0  0  0  0  0  0  0  0  0
   55.3892   25.8954   46.9951 H   0  0  0  0  0  0  0  0  0  0  0  0
   55.2634   26.7854   45.4399 H   0  0  0  0  0  0  0  0  0  0  0  0
   55.5878   25.0187   45.4399 H   0  0  0  0  0  0  0  0  0  0  0  0
   58.2638   29.5360   43.8185 H   0  0  0  0  0  0  0  0  0  0  0  0
   56.8975   30.4367   43.0511 H   0  0  0  0  0  0  0  0  0  0  0  0
   58.9172   34.6434   46.5107 H   0  0  0  0  0  0  0  0  0  0  0  0
   60.4616   30.7860   47.7834 H   0  0  0  0  0  0  0  0  0  0  0  0
   61.5789   30.6908   46.3506 H   0  0  0  0  0  0  0  0  0  0  0  0
   62.1191   31.8566   49.1045 H   0  0  0  0  0  0  0  0  0  0  0  0
   62.9952   30.5441   48.2236 H   0  0  0  0  0  0  0  0  0  0  0  0
   62.3716   33.9147   48.6295 H   0  0  0  0  0  0  0  0  0  0  0  0
   63.4703   34.4761   47.3086 H   0  0  0  0  0  0  0  0  0  0  0  0
   60.9245   34.6453   46.9002 H   0  0  0  0  0  0  0  0  0  0  0  0
   61.9570   33.8617   45.6219 H   0  0  0  0  0  0  0  0  0  0  0  0
   59.4826   28.8558   46.0756 H   0  0  0  0  0  0  0  0  0  0  0  0
   61.1060   26.9734   46.1043 H   0  0  0  0  0  0  0  0  0  0  0  0
   60.2940   24.6220   46.0866 H   0  0  0  0  0  0  0  0  0  0  0  0
   58.6240   21.4689   44.2991 H   0  0  0  0  0  0  0  0  0  0  0  0
   57.6705   21.1523   45.7920 H   0  0  0  0  0  0  0  0  0  0  0  0
   56.8503   19.8963   43.7459 H   0  0  0  0  0  0  0  0  0  0  0  0
   55.6139   20.9643   44.5185 H   0  0  0  0  0  0  0  0  0  0  0  0
   55.6400   23.4053   42.0162 H   0  0  0  0  0  0  0  0  0  0  0  0
   54.9705   22.8421   43.5962 H   0  0  0  0  0  0  0  0  0  0  0  0
   57.7726   23.9535   43.0626 H   0  0  0  0  0  0  0  0  0  0  0  0
   56.4582   24.7165   44.0251 H   0  0  0  0  0  0  0  0  0  0  0  0
  1  2  1  0
  2  3  2  0
  3  4  1  0
  4  5  1  0
  5  6  2  0
  5  7  1  0
  7  8  1  0
  8  9  2  0
  9 10  1  0
 10 11  2  0
 10 12  1  0
 12 13  2  0
 13 14  1  0
 14 15  1  0
 15 16  1  0
 16 17  1  0
 17 18  1  0
 18 19  1  0
 13 20  1  0
  3 21  1  0
 21 22  2  0
 22 23  1  0
 23 24  2  0
 24 25  1  0
 25 26  2  0
 25 27  1  0
 27 28  1  0
 28 29  1  0
 29 30  1  0
 30 31  1  0
 31 32  1  0
 24  2  1  0
 32 27  1  0
 20  8  1  0
 19 14  1  0
  1 33  1  0
  1 34  1  0
  1 35  1  0
  7 36  1  0
  7 37  1  0
 12 38  1  0
 15 39  1  0
 15 40  1  0
 16 41  1  0
 16 42  1  0
 18 43  1  0
 18 44  1  0
 19 45  1  0
 19 46  1  0
 21 47  1  0
 22 48  1  0
 23 49  1  0
 28 50  1  0
 28 51  1  0
 29 52  1  0
 29 53  1  0
 31 54  1  0
 31 55  1  0
 32 56  1  0
 32 57  1  0
M  CHG  2   4  -1  20  -1
M  END
>  <UniqueID>  (73) 
70

>  <SMILES>  (73) 
Cc1c([N-]C(=O)Cc2nc(=O)cc(N3CCOCC3)[n-]2)cccc1C(=O)N1CCOCC1

>  <Energy>  (73) 
76.89180806760399

>  <Genealogy>  (73) 
Cc1c([N-]C(=O)Cc2nc(=O)cc(N3CCOCC3)[n-]2)cccc1C(=O)N1CCOCC1 (protonated)
Cc1c([N-]C(=O)Cc2nc(=O)cc(N3CCOCC3)[n-]2)cccc1C(=O)N1CCOCC1 (3D coordinates assigned)
Cc1c([N-]C(=O)Cc2nc(=O)cc(N3CCOCC3)[n-]2)cccc1C(=O)N1CCOCC1 (nonaromatic ring conformer: 76.89180806760399 kcal/mol)

>  <smiles>  (73) 
Cc1c(NC(=O)Cc2nc(=O)cc(N3CCOCC3)[nH]2)cccc1C(=O)N1CCOCC1

>  <score_type>  (73) 
oracle

>  <origin>  (73) 
adg

>  <m_score__min__energy>  (73) 
-12.24

>  <m_primary>  (73) 
energy

$$$$
73:0
     RDKit          3D

 51 54  0  0  0  0  0  0  0  0999 V2000
   53.7500   30.3190   55.3290 C   0  0  0  0  0  0  0  0  0  0  0  0
   54.2950   30.4620   54.1090 C   0  0  0  0  0  0  0  0  0  0  0  0
   53.6100   30.7010   52.9080 C   0  0  0  0  0  0  0  0  0  0  0  0
   52.2970   30.6470   52.6110 C   0  0  0  0  0  0  0  0  0  0  0  0
   51.7020   30.9340   51.2960 C   0  0  0  0  0  0  0  0  0  0  0  0
   51.7470   30.1040   50.2360 N   0  0  0  0  0  0  0  0  0  0  0  0
   51.2090   30.8420   49.2410 C   0  0  0  0  0  0  0  0  0  0  0  0
   51.0610   30.3980   48.0720 O   0  0  0  0  0  0  0  0  0  0  0  0
   50.8520   32.0960   49.5930 N   0  0  0  0  0  0  0  0  0  0  0  0
   51.1850   32.1400   50.8930 C   0  0  0  0  0  0  0  0  0  0  0  0
   51.0260   33.2640   51.6940 O   0  0  0  0  0  0  0  0  0  0  0  0
   54.5750   31.0140   51.9680 C   0  0  0  0  0  0  0  0  0  0  0  0
   55.8030   30.8870   52.5890 C   0  0  0  0  0  0  0  0  0  0  0  0
   57.1210   31.1210   51.9400 C   0  0  0  0  0  0  0  0  0  0  0  0
   57.3030   32.2220   51.3550 O   0  0  0  0  0  0  0  0  0  0  0  0
   58.2030   30.1540   51.9360 N   0  0  0  0  0  0  0  0  0  0  0  0
   59.5060   30.7190   52.3020 C   0  0  0  0  0  0  0  0  0  0  0  0
   60.1240   30.3450   50.9620 C   0  0  0  0  0  0  0  0  0  0  0  0
   58.7530   29.7780   50.6250 C   0  0  0  0  0  0  0  0  0  0  0  0
   55.6350   30.5450   53.8900 N   0  0  0  0  0  0  0  0  0  0  0  0
   56.7110   30.3620   54.8760 C   0  0  0  0  0  0  0  0  0  0  0  0
   56.9100   28.8740   55.1890 C   0  0  0  0  0  0  0  0  0  0  0  0
   56.9130   28.0870   53.9340 N   0  0  0  0  0  0  0  0  0  0  0  0
   57.9760   27.0580   53.9070 C   0  0  0  0  0  0  0  0  0  0  0  0
   57.5940   25.8080   54.7230 C   0  0  0  0  0  0  0  0  0  0  0  0
   56.3490   25.2860   54.3060 O   0  0  0  0  0  0  0  0  0  0  0  0
   55.3380   26.2510   54.5090 C   0  0  0  0  0  0  0  0  0  0  0  0
   55.5970   27.4860   53.6350 C   0  0  0  0  0  0  0  0  0  0  0  0
   54.3944   30.1336   56.2010 H   0  0  0  0  0  0  0  0  0  0  0  0
   52.6595   30.3873   55.4557 H   0  0  0  0  0  0  0  0  0  0  0  0
   51.6100   30.3637   53.4220 H   0  0  0  0  0  0  0  0  0  0  0  0
   54.3983   31.3085   50.9230 H   0  0  0  0  0  0  0  0  0  0  0  0
   57.9770   29.3070   52.5110 H   0  0  0  0  0  0  0  0  0  0  0  0
   59.4781   31.8034   52.4847 H   0  0  0  0  0  0  0  0  0  0  0  0
   59.9936   30.3783   53.2273 H   0  0  0  0  0  0  0  0  0  0  0  0
   60.4425   31.1956   50.3415 H   0  0  0  0  0  0  0  0  0  0  0  0
   61.0497   29.7571   50.8759 H   0  0  0  0  0  0  0  0  0  0  0  0
   58.2631   30.2861   49.7813 H   0  0  0  0  0  0  0  0  0  0  0  0
   58.6746   28.7322   50.2931 H   0  0  0  0  0  0  0  0  0  0  0  0
   57.6467   30.7743   54.4705 H   0  0  0  0  0  0  0  0  0  0  0  0
   56.4346   30.8852   55.8033 H   0  0  0  0  0  0  0  0  0  0  0  0
   57.8704   28.7363   55.7074 H   0  0  0  0  0  0  0  0  0  0  0  0
   56.0862   28.5271   55.8301 H   0  0  0  0  0  0  0  0  0  0  0  0
   58.1541   26.7594   52.8634 H   0  0  0  0  0  0  0  0  0  0  0  0
   58.8801   27.4933   54.3577 H   0  0  0  0  0  0  0  0  0  0  0  0
   58.3691   25.0396   54.5862 H   0  0  0  0  0  0  0  0  0  0  0  0
   57.5143   26.0945   55.7820 H   0  0  0  0  0  0  0  0  0  0  0  0
   54.3630   25.8165   54.2433 H   0  0  0  0  0  0  0  0  0  0  0  0
   55.3400   26.5542   55.5664 H   0  0  0  0  0  0  0  0  0  0  0  0
   55.5710   27.1880   52.5764 H   0  0  0  0  0  0  0  0  0  0  0  0
   54.8174   28.2323   53.8477 H   0  0  0  0  0  0  0  0  0  0  0  0
  1  2  2  0
  2  3  1  0
  3  4  2  3
  4  5  1  0
  5  6  1  0
  6  7  1  0
  7  8  2  0
  7  9  1  0
  9 10  1  0
 10 11  1  0
  3 12  1  0
 12 13  2  0
 13 14  1  0
 14 15  2  0
 14 16  1  0
 16 17  1  0
 17 18  1  0
 18 19  1  0
 13 20  1  0
 20 21  1  0
 21 22  1  0
 22 23  1  0
 23 24  1  0
 24 25  1  0
 25 26  1  0
 26 27  1  0
 27 28  1  0
 20  2  1  0
 28 23  1  0
 10  5  2  0
 19 16  1  0
  1 29  1  0
  1 30  1  0
  4 31  1  0
 12 32  1  0
 16 33  1  0
 17 34  1  0
 17 35  1  0
 18 36  1  0
 18 37  1  0
 19 38  1  0
 19 39  1  0
 21 40  1  0
 21 41  1  0
 22 42  1  0
 22 43  1  0
 24 44  1  0
 24 45  1  0
 25 46  1  0
 25 47  1  0
 27 48  1  0
 27 49  1  0
 28 50  1  0
 28 51  1  0
M  CHG  4   6  -1   9  -1  11  -1  16   1
M  END
>  <UniqueID>  (74) 
71

>  <SMILES>  (74) 
C=c1c(=Cc2[n-]c(=O)[n-]c2[O-])cc(C(=O)[NH+]2CCC2)n1CCN1CCOCC1

>  <Energy>  (74) 
206.69174501912516

>  <Genealogy>  (74) 
C=c1c(=Cc2[n-]c(=O)[n-]c2[O-])cc(C(=O)[NH+]2CCC2)n1CCN1CCOCC1 (protonated)
C=c1c(=Cc2[n-]c(=O)[n-]c2[O-])cc(C(=O)[NH+]2CCC2)n1CCN1CCOCC1 (3D coordinates assigned)
C=c1c(=Cc2[n-]c(=O)[n-]c2[O-])cc(C(=O)[NH+]2CCC2)n1CCN1CCOCC1 (nonaromatic ring conformer: 206.69174501912516 kcal/mol)

>  <smiles>  (74) 
C=c1c(=Cc2[nH]c(=O)[nH]c2O)cc(C(=O)N2CCC2)n1CCN1CCOCC1

>  <score_type>  (74) 
oracle

>  <origin>  (74) 
adg

>  <m_score__min__energy>  (74) 
-13.92

>  <m_primary>  (74) 
energy

$$$$
74:0
     RDKit          3D

 47 49  0  0  0  0  0  0  0  0999 V2000
   59.7020   34.1940   49.0150 C   0  0  0  0  0  0  0  0  0  0  0  0
   59.3990   34.0880   47.5500 C   0  0  0  0  0  0  0  0  0  0  0  0
   59.6110   35.1870   46.7030 C   0  0  0  0  0  0  0  0  0  0  0  0
   59.2980   35.0990   45.3460 C   0  0  0  0  0  0  0  0  0  0  0  0
   58.7580   33.9200   44.8240 C   0  0  0  0  0  0  0  0  0  0  0  0
   58.5210   32.8170   45.6610 C   0  0  0  0  0  0  0  0  0  0  0  0
   57.9450   31.5760   45.1060 C   0  0  0  0  0  0  0  0  0  0  0  0
   58.6440   30.4300   44.9460 N   0  0  0  0  0  0  0  0  0  0  0  0
   57.7440   29.5830   44.4140 C   0  0  0  0  0  0  0  0  0  0  0  0
   58.0560   28.1560   44.0340 C   0  0  0  0  0  0  0  0  0  0  0  0
   58.5130   27.3280   45.1730 N   0  0  0  0  0  0  0  0  0  0  0  0
   59.7500   27.8580   45.7740 C   0  0  0  0  0  0  0  0  0  0  0  0
   57.4560   27.1260   46.1850 C   0  0  0  0  0  0  0  0  0  0  0  0
   56.5840   25.9750   45.7980 C   0  0  0  0  0  0  0  0  0  0  0  0
   57.0480   24.8610   45.1900 N   0  0  0  0  0  0  0  0  0  0  0  0
   55.9370   24.1160   45.0330 C   0  0  0  0  0  0  0  0  0  0  0  0
   55.9130   22.7810   44.3640 C   0  0  0  0  0  0  0  0  0  0  0  0
   54.8530   24.8070   45.5300 C   0  0  0  0  0  0  0  0  0  0  0  0
   53.4290   24.3590   45.5580 C   0  0  0  0  0  0  0  0  0  0  0  0
   55.2850   25.9490   46.0010 O   0  0  0  0  0  0  0  0  0  0  0  0
   56.5360   30.2400   44.2780 C   0  0  0  0  0  0  0  0  0  0  0  0
   55.2530   29.6950   43.7400 C   0  0  0  0  0  0  0  0  0  0  0  0
   56.6950   31.4650   44.7120 O   0  0  0  0  0  0  0  0  0  0  0  0
   58.8390   32.9110   47.0280 C   0  0  0  0  0  0  0  0  0  0  0  0
   58.8198   33.8854   49.5951 H   0  0  0  0  0  0  0  0  0  0  0  0
   60.5508   33.5394   49.2622 H   0  0  0  0  0  0  0  0  0  0  0  0
   59.9576   35.2349   49.2622 H   0  0  0  0  0  0  0  0  0  0  0  0
   60.0254   36.1210   47.1104 H   0  0  0  0  0  0  0  0  0  0  0  0
   59.4767   35.9599   44.6851 H   0  0  0  0  0  0  0  0  0  0  0  0
   58.5175   33.8556   43.7526 H   0  0  0  0  0  0  0  0  0  0  0  0
   57.1466   27.7004   43.6152 H   0  0  0  0  0  0  0  0  0  0  0  0
   58.8800   28.1878   43.3060 H   0  0  0  0  0  0  0  0  0  0  0  0
   59.6690   27.8233   46.8705 H   0  0  0  0  0  0  0  0  0  0  0  0
   60.6058   27.2476   45.4500 H   0  0  0  0  0  0  0  0  0  0  0  0
   59.8984   28.8987   45.4500 H   0  0  0  0  0  0  0  0  0  0  0  0
   57.9212   26.9177   47.1598 H   0  0  0  0  0  0  0  0  0  0  0  0
   56.8416   28.0362   46.2489 H   0  0  0  0  0  0  0  0  0  0  0  0
   55.8988   21.9887   45.1270 H   0  0  0  0  0  0  0  0  0  0  0  0
   55.0133   22.7016   43.7361 H   0  0  0  0  0  0  0  0  0  0  0  0
   56.8093   22.6693   43.7361 H   0  0  0  0  0  0  0  0  0  0  0  0
   53.0979   24.2548   46.6018 H   0  0  0  0  0  0  0  0  0  0  0  0
   52.8005   25.1028   45.0464 H   0  0  0  0  0  0  0  0  0  0  0  0
   53.3396   23.3893   45.0464 H   0  0  0  0  0  0  0  0  0  0  0  0
   54.5945   29.4153   44.5755 H   0  0  0  0  0  0  0  0  0  0  0  0
   54.7588   30.4609   43.1242 H   0  0  0  0  0  0  0  0  0  0  0  0
   55.4612   28.8076   43.1242 H   0  0  0  0  0  0  0  0  0  0  0  0
   58.6475   32.0560   47.6930 H   0  0  0  0  0  0  0  0  0  0  0  0
  1  2  1  0
  2  3  2  0
  3  4  1  0
  4  5  2  0
  5  6  1  0
  6  7  1  0
  7  8  2  0
  8  9  1  0
  9 10  1  0
 10 11  1  0
 11 12  1  0
 11 13  1  0
 13 14  1  0
 14 15  2  0
 15 16  1  0
 16 17  1  0
 16 18  2  0
 18 19  1  0
 18 20  1  0
  9 21  2  0
 21 22  1  0
 21 23  1  0
  6 24  2  0
 24  2  1  0
 23  7  1  0
 20 14  1  0
  1 25  1  0
  1 26  1  0
  1 27  1  0
  3 28  1  0
  4 29  1  0
  5 30  1  0
 10 31  1  0
 10 32  1  0
 12 33  1  0
 12 34  1  0
 12 35  1  0
 13 36  1  0
 13 37  1  0
 17 38  1  0
 17 39  1  0
 17 40  1  0
 19 41  1  0
 19 42  1  0
 19 43  1  0
 22 44  1  0
 22 45  1  0
 22 46  1  0
 24 47  1  0
M  END
>  <UniqueID>  (75) 
72

>  <SMILES>  (75) 
Cc1cccc(-c2nc(CN(C)Cc3nc(C)c(C)o3)c(C)o2)c1

>  <Energy>  (75) 
104.43913002559084

>  <Genealogy>  (75) 
Cc1cccc(-c2nc(CN(C)Cc3nc(C)c(C)o3)c(C)o2)c1 (3D coordinates assigned)
Cc1cccc(-c2nc(CN(C)Cc3nc(C)c(C)o3)c(C)o2)c1 (optimized conformer: 104.43913002559084 kcal/mol)

>  <smiles>  (75) 
Cc1cccc(-c2nc(CN(C)Cc3nc(C)c(C)o3)c(C)o2)c1

>  <score_type>  (75) 
oracle

>  <origin>  (75) 
adg

>  <m_score__min__energy>  (75) 
-8.3300000000000001

>  <m_primary>  (75) 
energy

$$$$
75:0
     RDKit          3D

 45 48  0  0  0  0  0  0  0  0999 V2000
   61.9740   33.4530   49.0590 O   0  0  0  0  0  0  0  0  0  0  0  0
   61.0940   32.5660   49.2100 C   0  0  0  0  0  0  0  0  0  0  0  0
   59.6520   32.9470   49.0150 C   0  0  0  0  0  0  0  0  0  0  0  0
   59.4070   33.6210   47.6920 C   0  0  0  0  0  0  0  0  0  0  0  0
   60.0120   34.7980   47.2570 C   0  0  0  0  0  0  0  0  0  0  0  0
   59.6820   35.0570   45.9730 N   0  0  0  0  0  0  0  0  0  0  0  0
   58.8950   34.0430   45.5790 C   0  0  0  0  0  0  0  0  0  0  0  0
   58.3410   33.8530   44.3150 C   0  0  0  0  0  0  0  0  0  0  0  0
   57.5670   32.7000   44.1020 C   0  0  0  0  0  0  0  0  0  0  0  0
   57.3790   31.7590   45.1390 C   0  0  0  0  0  0  0  0  0  0  0  0
   56.6150   30.6200   44.8990 O   0  0  0  0  0  0  0  0  0  0  0  0
   57.9630   31.9740   46.4040 C   0  0  0  0  0  0  0  0  0  0  0  0
   58.7090   33.1400   46.5950 C   0  0  0  0  0  0  0  0  0  0  0  0
   61.5230   31.2440   49.5640 N   0  0  0  0  0  0  0  0  0  0  0  0
   60.5740   29.7950   49.6870 S   0  0  0  0  0  0  0  0  0  0  0  0
   61.4230   28.7050   50.2790 O   0  0  0  0  0  0  0  0  0  0  0  0
   59.3710   29.9790   50.5660 O   0  0  0  0  0  0  0  0  0  0  0  0
   60.0420   29.3320   48.0740 C   0  0  0  0  0  0  0  0  0  0  0  0
   60.5660   29.9760   46.9470 C   0  0  0  0  0  0  0  0  0  0  0  0
   60.1170   29.6290   45.6710 C   0  0  0  0  0  0  0  0  0  0  0  0
   59.1460   28.6380   45.5130 C   0  0  0  0  0  0  0  0  0  0  0  0
   58.6150   27.9730   46.6330 C   0  0  0  0  0  0  0  0  0  0  0  0
   57.5970   26.9630   46.4830 N   0  0  0  0  0  0  0  0  0  0  0  0
   57.6980   25.5890   46.9610 C   0  0  0  0  0  0  0  0  0  0  0  0
   56.3050   24.9600   46.7360 C   0  0  0  0  0  0  0  0  0  0  0  0
   55.5220   25.9450   46.0000 N   0  0  0  0  0  0  0  0  0  0  0  0
   56.3190   27.1020   45.8870 C   0  0  0  0  0  0  0  0  0  0  0  0
   55.9450   28.1250   45.2540 O   0  0  0  0  0  0  0  0  0  0  0  0
   59.0630   28.3420   47.9160 C   0  0  0  0  0  0  0  0  0  0  0  0
   59.0367   32.0366   49.0662 H   0  0  0  0  0  0  0  0  0  0  0  0
   59.3852   33.6611   49.8080 H   0  0  0  0  0  0  0  0  0  0  0  0
   60.6681   35.4295   47.8741 H   0  0  0  0  0  0  0  0  0  0  0  0
   60.0010   35.8690   45.3980 H   0  0  0  0  0  0  0  0  0  0  0  0
   58.5045   34.5831   43.5087 H   0  0  0  0  0  0  0  0  0  0  0  0
   57.1034   32.5284   43.1194 H   0  0  0  0  0  0  0  0  0  0  0  0
   56.1760   30.1080   45.6550 H   0  0  0  0  0  0  0  0  0  0  0  0
   57.8351   31.2447   47.2175 H   0  0  0  0  0  0  0  0  0  0  0  0
   61.3322   30.7562   47.0666 H   0  0  0  0  0  0  0  0  0  0  0  0
   60.5296   30.1380   44.7874 H   0  0  0  0  0  0  0  0  0  0  0  0
   58.7935   28.3753   44.5047 H   0  0  0  0  0  0  0  0  0  0  0  0
   58.4623   25.0406   46.3908 H   0  0  0  0  0  0  0  0  0  0  0  0
   57.9929   25.5500   48.0200 H   0  0  0  0  0  0  0  0  0  0  0  0
   56.3963   24.0328   46.1512 H   0  0  0  0  0  0  0  0  0  0  0  0
   55.8249   24.7026   47.6916 H   0  0  0  0  0  0  0  0  0  0  0  0
   58.6401   27.8480   48.8032 H   0  0  0  0  0  0  0  0  0  0  0  0
  1  2  2  0
  2  3  1  0
  3  4  1  0
  4  5  2  0
  5  6  1  0
  6  7  1  0
  7  8  2  0
  8  9  1  0
  9 10  2  0
 10 11  1  0
 10 12  1  0
 12 13  2  0
  2 14  1  0
 14 15  1  0
 15 16  2  0
 15 17  2  0
 15 18  1  0
 18 19  2  0
 19 20  1  0
 20 21  2  0
 21 22  1  0
 22 23  1  0
 23 24  1  0
 24 25  1  0
 25 26  1  0
 26 27  1  0
 27 28  2  0
 22 29  2  0
 13  4  1  0
 29 18  1  0
 13  7  1  0
 27 23  1  0
  3 30  1  0
  3 31  1  0
  5 32  1  0
  6 33  1  0
  8 34  1  0
  9 35  1  0
 11 36  1  0
 12 37  1  0
 19 38  1  0
 20 39  1  0
 21 40  1  0
 24 41  1  0
 24 42  1  0
 25 43  1  0
 25 44  1  0
 29 45  1  0
M  CHG  2  14  -1  26  -1
M  END
>  <UniqueID>  (76) 
73

>  <SMILES>  (76) 
O=C(Cc1c[nH]c2ccc(O)cc12)[N-]S(=O)(=O)c1cccc(N2CC[N-]C2=O)c1

>  <Energy>  (76) 
99.37260657647157

>  <Genealogy>  (76) 
O=C(Cc1c[nH]c2ccc(O)cc12)[N-]S(=O)(=O)c1cccc(N2CC[N-]C2=O)c1 (protonated)
O=C(Cc1c[nH]c2ccc(O)cc12)[N-]S(=O)(=O)c1cccc(N2CC[N-]C2=O)c1 (3D coordinates assigned)
O=C(Cc1c[nH]c2ccc(O)cc12)[N-]S(=O)(=O)c1cccc(N2CC[N-]C2=O)c1 (nonaromatic ring conformer: 99.37260657647157 kcal/mol)

>  <smiles>  (76) 
O=C(Cc1c[nH]c2ccc(O)cc12)NS(=O)(=O)c1cccc(N2CCNC2=O)c1

>  <score_type>  (76) 
oracle

>  <origin>  (76) 
adg

>  <m_score__min__energy>  (76) 
-13.539999999999999

>  <m_primary>  (76) 
energy

$$$$
76:0
     RDKit          3D

 61 64  0  0  0  0  0  0  0  0999 V2000
   57.6940   24.7210   46.1430 O   0  0  0  0  0  0  0  0  0  0  0  0
   58.4080   25.7580   46.1170 C   0  0  0  0  0  0  0  0  0  0  0  0
   57.9180   26.9530   45.3430 C   0  0  0  0  0  0  0  0  0  0  0  0
   56.6710   27.5520   45.9960 C   0  0  0  0  0  0  0  0  0  0  0  0
   56.0980   28.5590   45.1130 N   0  0  0  0  0  0  0  0  0  0  0  0
   56.8310   29.2040   44.0690 C   0  0  0  0  0  0  0  0  0  0  0  0
   57.5550   28.4970   43.3190 O   0  0  0  0  0  0  0  0  0  0  0  0
   56.7620   30.6970   43.8140 C   0  0  2  0  0  0  0  0  0  0  0  0
   57.6270   31.2380   42.6840 C   0  0  0  0  0  0  0  0  0  0  0  0
   57.7670   32.7130   43.0040 C   0  0  0  0  0  0  0  0  0  0  0  0
   57.3070   32.8710   44.4530 C   0  0  0  0  0  0  0  0  0  0  0  0
   57.0260   31.5350   45.0000 N   0  0  0  0  0  0  0  0  0  0  0  0
   58.3700   30.9990   46.0080 S   0  0  0  0  0  0  0  0  0  0  0  0
   57.8710   29.9690   46.9840 O   0  0  0  0  0  0  0  0  0  0  0  0
   59.4200   30.3410   45.1580 O   0  0  0  0  0  0  0  0  0  0  0  0
   59.1090   32.3050   46.9220 C   0  0  0  0  0  0  0  0  0  0  0  0
   58.7260   32.7350   48.1830 C   0  0  0  0  0  0  0  0  0  0  0  0
   59.5020   33.7990   48.6570 C   0  0  0  0  0  0  0  0  0  0  0  0
   60.4770   34.2180   47.7610 C   0  0  0  0  0  0  0  0  0  0  0  0
   60.3750   33.2650   46.3790 S   0  0  0  0  0  0  0  0  0  0  0  0
   59.5930   25.7930   46.9240 N   0  0  0  0  0  0  0  0  0  0  0  0
   60.1220   26.8850   47.6900 C   0  0  0  0  0  0  0  0  0  0  0  0
   60.1990   28.1460   47.0860 C   0  0  0  0  0  0  0  0  0  0  0  0
   60.6320   29.2570   47.8130 C   0  0  0  0  0  0  0  0  0  0  0  0
   60.9930   29.1240   49.1600 C   0  0  0  0  0  0  0  0  0  0  0  0
   61.4860   30.5460   50.0890 S   0  0  0  0  0  0  0  0  0  0  0  0
   61.8430   30.1170   51.4850 O   0  0  0  0  0  0  0  0  0  0  0  0
   60.3240   31.4960   50.1790 O   0  0  0  0  0  0  0  0  0  0  0  0
   62.8490   31.3830   49.3860 N   0  0  0  0  0  0  0  0  0  0  0  0
   62.7400   31.4660   47.9320 C   0  0  0  0  0  0  0  0  0  0  0  0
   63.5350   32.6910   47.5060 C   0  0  0  0  0  0  0  0  0  0  0  0
   63.6800   33.5340   48.7630 C   0  0  0  0  0  0  0  0  0  0  0  0
   62.9470   32.7650   49.8510 C   0  0  0  0  0  0  0  0  0  0  0  0
   60.8990   27.8660   49.7760 C   0  0  0  0  0  0  0  0  0  0  0  0
   60.4560   26.7550   49.0500 C   0  0  0  0  0  0  0  0  0  0  0  0
   58.7114   27.7145   45.3157 H   0  0  0  0  0  0  0  0  0  0  0  0
   57.6604   26.6301   44.3235 H   0  0  0  0  0  0  0  0  0  0  0  0
   55.9321   26.7568   46.1739 H   0  0  0  0  0  0  0  0  0  0  0  0
   56.9458   28.0174   46.9541 H   0  0  0  0  0  0  0  0  0  0  0  0
   55.7083   30.7789   43.5089 H   0  0  0  0  0  0  0  0  0  0  0  0
   58.6103   30.7450   42.6737 H   0  0  0  0  0  0  0  0  0  0  0  0
   57.1875   31.0597   41.6915 H   0  0  0  0  0  0  0  0  0  0  0  0
   58.8150   33.0300   42.8982 H   0  0  0  0  0  0  0  0  0  0  0  0
   57.1698   33.3338   42.3200 H   0  0  0  0  0  0  0  0  0  0  0  0
   58.0990   33.3549   45.0434 H   0  0  0  0  0  0  0  0  0  0  0  0
   56.4019   33.4946   44.4960 H   0  0  0  0  0  0  0  0  0  0  0  0
   57.8982   32.2866   48.7520 H   0  0  0  0  0  0  0  0  0  0  0  0
   59.3538   34.2595   49.6449 H   0  0  0  0  0  0  0  0  0  0  0  0
   61.1946   35.0350   47.9272 H   0  0  0  0  0  0  0  0  0  0  0  0
   59.9159   28.2625   46.0295 H   0  0  0  0  0  0  0  0  0  0  0  0
   60.6899   30.2414   47.3255 H   0  0  0  0  0  0  0  0  0  0  0  0
   63.1591   30.5612   47.4677 H   0  0  0  0  0  0  0  0  0  0  0  0
   61.6891   31.5456   47.6168 H   0  0  0  0  0  0  0  0  0  0  0  0
   64.5234   32.3951   47.1247 H   0  0  0  0  0  0  0  0  0  0  0  0
   63.0338   33.2438   46.6978 H   0  0  0  0  0  0  0  0  0  0  0  0
   64.7414   33.6546   49.0253 H   0  0  0  0  0  0  0  0  0  0  0  0
   63.2678   34.5449   48.6277 H   0  0  0  0  0  0  0  0  0  0  0  0
   63.5112   32.8098   50.7942 H   0  0  0  0  0  0  0  0  0  0  0  0
   61.9516   33.1933   50.0400 H   0  0  0  0  0  0  0  0  0  0  0  0
   61.1750   27.7532   50.8348 H   0  0  0  0  0  0  0  0  0  0  0  0
   60.3686   25.7764   49.5447 H   0  0  0  0  0  0  0  0  0  0  0  0
  1  2  2  0
  2  3  1  0
  3  4  1  0
  4  5  1  0
  5  6  1  0
  6  7  2  0
  6  8  1  0
  8  9  1  0
  9 10  1  0
 10 11  1  0
 11 12  1  0
 12 13  1  0
 13 14  2  0
 13 15  2  0
 13 16  1  0
 16 17  2  0
 17 18  1  0
 18 19  2  0
 19 20  1  0
  2 21  1  0
 21 22  1  0
 22 23  2  0
 23 24  1  0
 24 25  2  0
 25 26  1  0
 26 27  2  0
 26 28  2  0
 26 29  1  0
 29 30  1  0
 30 31  1  0
 31 32  1  0
 32 33  1  0
 25 34  1  0
 34 35  2  0
 12  8  1  0
 20 16  1  0
 35 22  1  0
 33 29  1  0
  3 36  1  0
  3 37  1  0
  4 38  1  0
  4 39  1  0
  8 40  1  6
  9 41  1  0
  9 42  1  0
 10 43  1  0
 10 44  1  0
 11 45  1  0
 11 46  1  0
 17 47  1  0
 18 48  1  0
 19 49  1  0
 23 50  1  0
 24 51  1  0
 30 52  1  0
 30 53  1  0
 31 54  1  0
 31 55  1  0
 32 56  1  0
 32 57  1  0
 33 58  1  0
 33 59  1  0
 34 60  1  0
 35 61  1  0
M  CHG  2   5  -1  21  -1
M  END
>  <UniqueID>  (77) 
74

>  <SMILES>  (77) 
O=C(CC[N-]C(=O)[C@@H]1CCCN1S(=O)(=O)c1cccs1)[N-]c1ccc(S(=O)(=O)N2CCCC2)cc1

>  <Energy>  (77) 
101.75424862968326

>  <Genealogy>  (77) 
O=C(CC[N-]C(=O)C1CCCN1S(=O)(=O)c1cccs1)[N-]c1ccc(S(=O)(=O)N2CCCC2)cc1 (protonated)
O=C(CC[N-]C(=O)[C@@H]1CCCN1S(=O)(=O)c1cccs1)[N-]c1ccc(S(=O)(=O)N2CCCC2)cc1 (chirality)
O=C(CC[N-]C(=O)[C@@H]1CCCN1S(=O)(=O)c1cccs1)[N-]c1ccc(S(=O)(=O)N2CCCC2)cc1 (3D coordinates assigned)
O=C(CC[N-]C(=O)[C@@H]1CCCN1S(=O)(=O)c1cccs1)[N-]c1ccc(S(=O)(=O)N2CCCC2)cc1 (nonaromatic ring conformer: 101.75424862968326 kcal/mol)

>  <smiles>  (77) 
O=C(CCNC(=O)C1CCCN1S(=O)(=O)c1cccs1)Nc1ccc(S(=O)(=O)N2CCCC2)cc1

>  <score_type>  (77) 
oracle

>  <origin>  (77) 
adg

>  <m_score__min__energy>  (77) 
-12.44

>  <m_primary>  (77) 
energy

$$$$
77:0
     RDKit          3D

 40 43  0  0  0  0  0  0  0  0999 V2000
   62.7892   34.7169   47.9366 H   0  0  0  0  0  0  0  0  0  0  0  0
   62.1920   33.8010   48.0570 C   0  0  0  0  0  0  0  0  0  0  0  0
   61.0300   33.8400   48.7770 N   0  0  0  0  0  0  0  0  0  0  0  0
   60.3020   32.7030   48.9100 C   0  0  0  0  0  0  0  0  0  0  0  0
   60.6920   31.5180   48.3530 C   0  0  0  0  0  0  0  0  0  0  0  0
   61.8690   31.4240   47.6160 C   0  0  0  0  0  0  0  0  0  0  0  0
   62.1889   30.4714   47.1686 H   0  0  0  0  0  0  0  0  0  0  0  0
   62.6330   32.5950   47.4660 C   0  0  0  0  0  0  0  0  0  0  0  0
   63.7870   32.5670   46.7570 F   0  0  0  0  0  0  0  0  0  0  0  0
   59.7360   30.5840   48.7000 C   0  0  0  0  0  0  0  0  0  0  0  0
   59.7460   29.1140   48.4150 C   0  0  0  0  0  0  0  0  0  0  0  0
   59.3565   28.5708   49.2886 H   0  0  0  0  0  0  0  0  0  0  0  0
   60.7773   28.7936   48.2061 H   0  0  0  0  0  0  0  0  0  0  0  0
   58.8890   28.8180   47.2250 C   0  0  0  0  0  0  0  0  0  0  0  0
   58.1240   29.7800   46.6400 N   0  0  0  0  0  0  0  0  0  0  0  0
   57.3980   29.2860   45.6160 C   0  0  0  0  0  0  0  0  0  0  0  0
   56.5740   30.0240   44.9330 N   0  0  0  0  0  0  0  0  0  0  0  0
   56.9330   31.1660   44.1430 C   0  0  0  0  0  0  0  0  0  0  0  0
   56.5880   31.1940   42.9320 O   0  0  0  0  0  0  0  0  0  0  0  0
   57.6320   32.3370   44.7280 C   0  0  0  0  0  0  0  0  0  0  0  0
   57.4320   32.6780   46.0760 C   0  0  0  0  0  0  0  0  0  0  0  0
   56.7510   32.0768   46.6963 H   0  0  0  0  0  0  0  0  0  0  0  0
   58.0930   33.7770   46.6350 C   0  0  0  0  0  0  0  0  0  0  0  0
   57.9162   34.0453   47.6870 H   0  0  0  0  0  0  0  0  0  0  0  0
   58.9800   34.5380   45.8600 C   0  0  0  0  0  0  0  0  0  0  0  0
   59.6570   35.7400   46.4480 C   0  0  0  0  0  0  0  0  0  0  0  0
   59.6230   35.6796   47.5458 H   0  0  0  0  0  0  0  0  0  0  0  0
   60.7049   35.7703   46.1147 H   0  0  0  0  0  0  0  0  0  0  0  0
   59.1398   36.6518   46.1147 H   0  0  0  0  0  0  0  0  0  0  0  0
   59.1790   34.2030   44.5130 C   0  0  0  0  0  0  0  0  0  0  0  0
   59.8582   34.8070   43.8934 H   0  0  0  0  0  0  0  0  0  0  0  0
   58.5190   33.1060   43.9540 C   0  0  0  0  0  0  0  0  0  0  0  0
   58.6945   32.8419   42.9007 H   0  0  0  0  0  0  0  0  0  0  0  0
   57.6470   27.6280   45.4190 S   0  0  0  0  0  0  0  0  0  0  0  0
   58.7520   27.5410   46.6840 C   0  0  0  0  0  0  0  0  0  0  0  0
   59.2748   26.6351   47.0246 H   0  0  0  0  0  0  0  0  0  0  0  0
   58.8080   31.2720   49.4830 C   0  0  0  0  0  0  0  0  0  0  0  0
   57.9163   30.8192   49.9411 H   0  0  0  0  0  0  0  0  0  0  0  0
   59.1580   32.5730   49.6000 N   0  0  0  0  0  0  0  0  0  0  0  0
   58.6510   33.3160   50.1320 H   0  0  0  0  0  0  0  0  0  0  0  0
  1  2  1  0
  2  3  2  0
  3  4  1  0
  4  5  2  0
  5  6  1  0
  6  7  1  0
  6  8  2  0
  8  9  1  0
  5 10  1  0
 10 11  1  0
 11 12  1  0
 11 13  1  0
 11 14  1  0
 14 15  1  0
 15 16  1  0
 16 17  2  0
 17 18  1  0
 18 19  2  0
 18 20  1  0
 20 21  2  0
 21 22  1  0
 21 23  1  0
 23 24  1  0
 23 25  2  0
 25 26  1  0
 26 27  1  0
 26 28  1  0
 26 29  1  0
 25 30  1  0
 30 31  1  0
 30 32  2  0
 32 33  1  0
 16 34  1  0
 34 35  1  0
 35 36  1  0
 10 37  2  0
 37 38  1  0
 37 39  1  0
 39 40  1  0
  8  2  1  0
 35 14  2  0
 39  4  1  0
 32 20  1  0
M  CHG  1  15  -1
M  END
>  <UniqueID>  (78) 
75

>  <SMILES>  (78) 
Cc1ccc(C(=O)/N=c2/[n-]c(Cc3c[nH]c4ncc(F)cc34)cs2)cc1

>  <Energy>  (78) 
114.66676127414094

>  <Genealogy>  (78) 
Cc1ccc(C(=O)N=c2[n-]c(Cc3c[nH]c4ncc(F)cc34)cs2)cc1 (protonated)
Cc1ccc(C(=O)/N=c2/[n-]c(Cc3c[nH]c4ncc(F)cc34)cs2)cc1 (cis-trans isomerization)
Cc1ccc(C(=O)/N=c2/[n-]c(Cc3c[nH]c4ncc(F)cc34)cs2)cc1 (3D coordinates assigned)
Cc1ccc(C(=O)/N=c2/[n-]c(Cc3c[nH]c4ncc(F)cc34)cs2)cc1 (optimized conformer: 114.66676127414094 kcal/mol)

>  <smiles>  (78) 
Cc1ccc(C(=O)N=c2[nH]c(Cc3c[nH]c4ncc(F)cc34)cs2)cc1

>  <score_type>  (78) 
oracle

>  <origin>  (78) 
adg

>  <m_score__min__energy>  (78) 
-10.42

>  <m_primary>  (78) 
energy

$$$$
78:0
     RDKit          3D

 53 55  0  0  0  0  0  0  0  0999 V2000
   54.7670   28.9540   45.3790 H   0  0  0  0  0  0  0  0  0  0  0  0
   55.6480   28.5790   45.0490 O   0  0  0  0  0  0  0  0  0  0  0  0
   56.2220   27.4470   45.6200 C   0  0  0  0  0  0  0  0  0  0  0  0
   55.5040   26.4740   46.2040 N   0  0  0  0  0  0  0  0  0  0  0  0
   56.4540   25.6370   46.6710 C   0  0  0  0  0  0  0  0  0  0  0  0
   56.1800   24.5820   47.3000 O   0  0  0  0  0  0  0  0  0  0  0  0
   57.7230   26.0220   46.4170 N   0  0  0  0  0  0  0  0  0  0  0  0
   57.5700   27.1660   45.7270 C   0  0  0  0  0  0  0  0  0  0  0  0
   58.7040   27.9850   45.2620 C   0  0  0  0  0  0  0  0  0  0  0  0
   59.1718   27.7282   44.3001 H   0  0  0  0  0  0  0  0  0  0  0  0
   59.1980   29.0310   45.9520 C   0  0  0  0  0  0  0  0  0  0  0  0
   60.1720   28.9720   46.9370 C   0  0  0  0  0  0  0  0  0  0  0  0
   60.6996   28.0724   47.2870 H   0  0  0  0  0  0  0  0  0  0  0  0
   60.3500   30.2610   47.3920 C   0  0  0  0  0  0  0  0  0  0  0  0
   61.2670   30.6290   48.4830 C   0  0  0  0  0  0  0  0  0  0  0  0
   61.3450   29.8730   49.4880 O   0  0  0  0  0  0  0  0  0  0  0  0
   62.0940   31.8070   48.4030 N   0  0  0  0  0  0  0  0  0  0  0  0
   62.4360   32.5510   49.6210 C   0  0  0  0  0  0  0  0  0  0  0  0
   61.6891   33.3410   49.7881 H   0  0  0  0  0  0  0  0  0  0  0  0
   62.4440   31.8610   50.4777 H   0  0  0  0  0  0  0  0  0  0  0  0
   63.8210   33.1850   49.4700 C   0  0  0  0  0  0  0  0  0  0  0  0
   64.0099   33.8478   50.3273 H   0  0  0  0  0  0  0  0  0  0  0  0
   64.5739   32.3839   49.4330 H   0  0  0  0  0  0  0  0  0  0  0  0
   63.9000   33.9380   48.2750 O   0  0  0  0  0  0  0  0  0  0  0  0
   63.7890   33.0750   47.1590 C   0  0  0  0  0  0  0  0  0  0  0  0
   63.9496   33.6545   46.2379 H   0  0  0  0  0  0  0  0  0  0  0  0
   64.5462   32.2823   47.2502 H   0  0  0  0  0  0  0  0  0  0  0  0
   62.4020   32.4250   47.1080 C   0  0  0  0  0  0  0  0  0  0  0  0
   61.6473   33.1924   46.8810 H   0  0  0  0  0  0  0  0  0  0  0  0
   62.3920   31.6520   46.3255 H   0  0  0  0  0  0  0  0  0  0  0  0
   59.5250   31.1180   46.7430 N   0  0  0  0  0  0  0  0  0  0  0  0
   59.3230   32.5330   47.0900 C   0  0  0  0  0  0  0  0  0  0  0  0
   60.3007   33.0106   47.2512 H   0  0  0  0  0  0  0  0  0  0  0  0
   58.7921   33.0320   46.2659 H   0  0  0  0  0  0  0  0  0  0  0  0
   58.4860   32.6510   48.3670 C   0  0  0  0  0  0  0  0  0  0  0  0
   58.8718   33.4808   48.9774 H   0  0  0  0  0  0  0  0  0  0  0  0
   57.4383   32.8396   48.0898 H   0  0  0  0  0  0  0  0  0  0  0  0
   58.5530   31.4510   49.1160 O   0  0  0  0  0  0  0  0  0  0  0  0
   58.9540   31.7010   50.4520 C   0  0  0  0  0  0  0  0  0  0  0  0
   60.0485   31.8046   50.4879 H   0  0  0  0  0  0  0  0  0  0  0  0
   58.4735   32.6273   50.8000 H   0  0  0  0  0  0  0  0  0  0  0  0
   58.5270   30.5490   51.3650 C   0  0  0  0  0  0  0  0  0  0  0  0
   59.0876   29.6426   51.0926 H   0  0  0  0  0  0  0  0  0  0  0  0
   58.7383   30.8218   52.4095 H   0  0  0  0  0  0  0  0  0  0  0  0
   57.1400   30.3010   51.2240 O   0  0  0  0  0  0  0  0  0  0  0  0
   56.3960   31.2120   52.0040 C   0  0  0  0  0  0  0  0  0  0  0  0
   56.5653   31.0047   53.0710 H   0  0  0  0  0  0  0  0  0  0  0  0
   56.7171   32.2388   51.7745 H   0  0  0  0  0  0  0  0  0  0  0  0
   55.3258   31.1025   51.7745 H   0  0  0  0  0  0  0  0  0  0  0  0
   58.8000   30.3700   45.8690 C   0  0  0  0  0  0  0  0  0  0  0  0
   57.8370   30.8600   45.0730 C   0  0  0  0  0  0  0  0  0  0  0  0
   57.6049   31.9351   45.0883 H   0  0  0  0  0  0  0  0  0  0  0  0
   57.2798   30.1865   44.4053 H   0  0  0  0  0  0  0  0  0  0  0  0
  1  2  1  0
  2  3  1  0
  3  4  1  0
  4  5  1  0
  5  6  2  0
  5  7  1  0
  7  8  1  0
  8  9  1  0
  9 10  1  0
  9 11  2  0
 11 12  1  0
 12 13  1  0
 12 14  2  0
 14 15  1  0
 15 16  2  0
 15 17  1  0
 17 18  1  0
 18 19  1  0
 18 20  1  0
 18 21  1  0
 21 22  1  0
 21 23  1  0
 21 24  1  0
 24 25  1  0
 25 26  1  0
 25 27  1  0
 25 28  1  0
 28 29  1  0
 28 30  1  0
 14 31  1  0
 31 32  1  0
 32 33  1  0
 32 34  1  0
 32 35  1  0
 35 36  1  0
 35 37  1  0
 35 38  1  0
 38 39  1  0
 39 40  1  0
 39 41  1  0
 39 42  1  0
 42 43  1  0
 42 44  1  0
 42 45  1  0
 45 46  1  0
 46 47  1  0
 46 48  1  0
 46 49  1  0
 31 50  1  0
 50 51  2  0
 51 52  1  0
 51 53  1  0
  8  3  2  0
 50 11  1  0
 28 17  1  0
M  CHG  2   4  -1   7  -1
M  END
>  <UniqueID>  (79) 
76

>  <SMILES>  (79) 
C=c1/c(=C/c2[n-]c(=O)[n-]c2O)cc(C(=O)N2CCOCC2)n1CCOCCOC

>  <Energy>  (79) 
126.30023644293902

>  <Genealogy>  (79) 
C=c1c(=Cc2[n-]c(=O)[n-]c2O)cc(C(=O)N2CCOCC2)n1CCOCCOC (protonated)
C=c1/c(=C/c2[n-]c(=O)[n-]c2O)cc(C(=O)N2CCOCC2)n1CCOCCOC (cis-trans isomerization)
C=c1/c(=C/c2[n-]c(=O)[n-]c2O)cc(C(=O)N2CCOCC2)n1CCOCCOC (3D coordinates assigned)
C=c1/c(=C/c2[n-]c(=O)[n-]c2O)cc(C(=O)N2CCOCC2)n1CCOCCOC (nonaromatic ring conformer: 126.30023644293902 kcal/mol)

>  <smiles>  (79) 
C=c1c(=Cc2[nH]c(=O)[nH]c2O)cc(C(=O)N2CCOCC2)n1CCOCCOC

>  <score_type>  (79) 
oracle

>  <origin>  (79) 
adg

>  <m_score__min__energy>  (79) 
-11.609999999999999

>  <m_primary>  (79) 
energy

$$$$
79:0
     RDKit          3D

 43 45  0  0  0  0  0  0  0  0999 V2000
   59.5640   28.1090   46.6230 O   0  0  0  0  0  0  0  0  0  0  0  0
   58.3480   28.3830   46.4480 C   0  0  0  0  0  0  0  0  0  0  0  0
   57.3640   27.4060   46.8160 N   0  0  0  0  0  0  0  0  0  0  0  0
   57.1370   26.1420   46.1730 C   0  0  0  0  0  0  0  0  0  0  0  0
   58.1830   25.2230   45.9710 C   0  0  0  0  0  0  0  0  0  0  0  0
   57.9320   23.9980   45.3470 C   0  0  0  0  0  0  0  0  0  0  0  0
   56.6370   23.6730   44.9370 C   0  0  0  0  0  0  0  0  0  0  0  0
   55.5890   24.5690   45.1570 C   0  0  0  0  0  0  0  0  0  0  0  0
   55.8340   25.7990   45.7790 C   0  0  0  0  0  0  0  0  0  0  0  0
   54.7820   26.6810   45.9950 O   0  0  0  0  0  0  0  0  0  0  0  0
   57.9650   29.7350   45.9790 C   0  0  0  0  0  0  0  0  0  0  0  0
   58.7380   30.8370   46.3710 C   0  0  0  0  0  0  0  0  0  0  0  0
   58.4360   32.1240   45.9120 C   0  0  0  0  0  0  0  0  0  0  0  0
   59.4440   33.4900   46.4220 S   0  0  0  0  0  0  0  0  0  0  0  0
   60.1960   34.0370   45.2400 O   0  0  0  0  0  0  0  0  0  0  0  0
   58.5560   34.5840   46.9470 O   0  0  0  0  0  0  0  0  0  0  0  0
   60.5820   33.0230   47.6660 N   0  0  0  0  0  0  0  0  0  0  0  0
   61.7750   32.3490   47.0970 C   0  0  0  0  0  0  0  0  0  0  0  0
   63.0170   33.2510   47.0680 C   0  0  0  0  0  0  0  0  0  0  0  0
   63.3760   33.7460   48.4800 C   0  0  0  0  0  0  0  0  0  0  0  0
   62.1410   33.9180   49.3820 C   0  0  0  0  0  0  0  0  0  0  0  0
   60.8810   34.1710   48.5490 C   0  0  0  0  0  0  0  0  0  0  0  0
   57.3390   32.2890   45.0520 C   0  0  0  0  0  0  0  0  0  0  0  0
   57.0280   33.4270   44.6100 O   0  0  0  0  0  0  0  0  0  0  0  0
   56.5940   31.2130   44.6870 N   0  0  0  0  0  0  0  0  0  0  0  0
   56.8630   29.9550   45.1230 C   0  0  0  0  0  0  0  0  0  0  0  0
   56.0090   28.9240   44.7290 O   0  0  0  0  0  0  0  0  0  0  0  0
   59.2016   25.4695   46.3053 H   0  0  0  0  0  0  0  0  0  0  0  0
   58.7556   23.2886   45.1785 H   0  0  0  0  0  0  0  0  0  0  0  0
   56.4427   22.7108   44.4406 H   0  0  0  0  0  0  0  0  0  0  0  0
   54.5683   24.3078   44.8408 H   0  0  0  0  0  0  0  0  0  0  0  0
   59.5924   30.6881   47.0477 H   0  0  0  0  0  0  0  0  0  0  0  0
   62.0004   31.4617   47.7068 H   0  0  0  0  0  0  0  0  0  0  0  0
   61.5374   32.0828   46.0565 H   0  0  0  0  0  0  0  0  0  0  0  0
   63.8652   32.6812   46.6607 H   0  0  0  0  0  0  0  0  0  0  0  0
   62.7991   34.1250   46.4366 H   0  0  0  0  0  0  0  0  0  0  0  0
   64.0536   33.0161   48.9469 H   0  0  0  0  0  0  0  0  0  0  0  0
   63.8503   34.7329   48.3750 H   0  0  0  0  0  0  0  0  0  0  0  0
   62.0006   33.0036   49.9772 H   0  0  0  0  0  0  0  0  0  0  0  0
   62.3058   34.7851   50.0385 H   0  0  0  0  0  0  0  0  0  0  0  0
   60.0299   34.3332   49.2267 H   0  0  0  0  0  0  0  0  0  0  0  0
   61.0521   35.0575   47.9206 H   0  0  0  0  0  0  0  0  0  0  0  0
   56.1830   27.9500   44.9370 H   0  0  0  0  0  0  0  0  0  0  0  0
  1  2  2  0
  2  3  1  0
  3  4  1  0
  4  5  2  0
  5  6  1  0
  6  7  2  0
  7  8  1  0
  8  9  2  0
  9 10  1  0
  2 11  1  0
 11 12  1  0
 12 13  2  0
 13 14  1  0
 14 15  2  0
 14 16  2  0
 14 17  1  0
 17 18  1  0
 18 19  1  0
 19 20  1  0
 20 21  1  0
 21 22  1  0
 13 23  1  0
 23 24  2  0
 23 25  1  0
 25 26  1  0
 26 27  1  0
  9  4  1  0
 26 11  2  0
 22 17  1  0
  5 28  1  0
  6 29  1  0
  7 30  1  0
  8 31  1  0
 12 32  1  0
 18 33  1  0
 18 34  1  0
 19 35  1  0
 19 36  1  0
 20 37  1  0
 20 38  1  0
 21 39  1  0
 21 40  1  0
 22 41  1  0
 22 42  1  0
 27 43  1  0
M  CHG  3   3  -1  10  -1  25  -1
M  END
>  <UniqueID>  (80) 
77

>  <SMILES>  (80) 
O=C([N-]c1ccccc1[O-])c1cc(S(=O)(=O)N2CCCCC2)c(=O)[n-]c1O

>  <Energy>  (80) 
60.479965158680805

>  <Genealogy>  (80) 
O=C([N-]c1ccccc1[O-])c1cc(S(=O)(=O)N2CCCCC2)c(=O)[n-]c1O (protonated)
O=C([N-]c1ccccc1[O-])c1cc(S(=O)(=O)N2CCCCC2)c(=O)[n-]c1O (3D coordinates assigned)
O=C([N-]c1ccccc1[O-])c1cc(S(=O)(=O)N2CCCCC2)c(=O)[n-]c1O (nonaromatic ring conformer: 60.479965158680805 kcal/mol)

>  <smiles>  (80) 
O=C(Nc1ccccc1O)c1cc(S(=O)(=O)N2CCCCC2)c(=O)[nH]c1O

>  <score_type>  (80) 
oracle

>  <origin>  (80) 
adg

>  <m_score__min__energy>  (80) 
-15.550000000000001

>  <m_primary>  (80) 
energy

$$$$
80:0
     RDKit          3D

 45 46  0  0  0  0  0  0  0  0999 V2000
   59.8380   26.5570   46.7730 C   0  0  0  0  0  0  0  0  0  0  0  0
   58.6610   26.5300   47.4030 C   0  0  0  0  0  0  0  0  0  0  0  0
   57.8050   25.2970   47.4240 C   0  0  0  0  0  0  0  0  0  0  0  0
   56.4130   25.6260   47.1380 N   0  0  0  0  0  0  0  0  0  0  0  0
   55.8040   25.4740   45.8500 C   0  0  0  0  0  0  0  0  0  0  0  0
   54.6570   25.9530   45.6390 O   0  0  0  0  0  0  0  0  0  0  0  0
   56.5290   24.8450   44.7270 C   0  0  0  0  0  0  0  0  0  0  0  0
   57.4990   25.4130   43.9950 C   0  0  0  0  0  0  0  0  0  0  0  0
   57.7740   26.8580   43.9210 C   0  0  0  0  0  0  0  0  0  0  0  0
   58.5120   27.3130   43.0050 O   0  0  0  0  0  0  0  0  0  0  0  0
   57.1690   27.7410   44.8780 N   0  0  0  0  0  0  0  0  0  0  0  0
   57.4170   29.1550   44.9260 C   0  0  0  0  0  0  0  0  0  0  0  0
   58.5580   29.6340   45.5850 C   0  0  0  0  0  0  0  0  0  0  0  0
   58.8180   31.0060   45.6440 C   0  0  0  0  0  0  0  0  0  0  0  0
   57.9260   31.9200   45.0700 C   0  0  0  0  0  0  0  0  0  0  0  0
   58.2560   33.6550   45.1440 S   0  0  0  0  0  0  0  0  0  0  0  0
   56.9840   34.4060   44.8670 O   0  0  0  0  0  0  0  0  0  0  0  0
   59.2470   34.0110   44.0700 O   0  0  0  0  0  0  0  0  0  0  0  0
   58.8850   34.1610   46.6930 N   0  0  0  0  0  0  0  0  0  0  0  0
   60.3460   34.1940   46.7140 C   0  0  0  0  0  0  0  0  0  0  0  0
   60.7570   34.0160   48.1670 C   0  0  0  0  0  0  0  0  0  0  0  0
   59.5460   33.4060   48.8570 C   0  0  0  0  0  0  0  0  0  0  0  0
   58.5030   33.2430   47.7640 C   0  0  0  0  0  0  0  0  0  0  0  0
   56.7760   31.4470   44.4220 C   0  0  0  0  0  0  0  0  0  0  0  0
   56.5190   30.0730   44.3550 C   0  0  0  0  0  0  0  0  0  0  0  0
   60.4423   27.4761   46.7757 H   0  0  0  0  0  0  0  0  0  0  0  0
   60.2033   25.6601   46.2513 H   0  0  0  0  0  0  0  0  0  0  0  0
   58.3094   27.4350   47.9201 H   0  0  0  0  0  0  0  0  0  0  0  0
   58.1717   24.5908   46.6645 H   0  0  0  0  0  0  0  0  0  0  0  0
   57.8614   24.8465   48.4259 H   0  0  0  0  0  0  0  0  0  0  0  0
   56.2469   23.8141   44.4667 H   0  0  0  0  0  0  0  0  0  0  0  0
   58.1412   24.7453   43.4018 H   0  0  0  0  0  0  0  0  0  0  0  0
   56.6640   27.3080   45.6840 H   0  0  0  0  0  0  0  0  0  0  0  0
   59.2532   28.9253   46.0588 H   0  0  0  0  0  0  0  0  0  0  0  0
   59.7279   31.3696   46.1439 H   0  0  0  0  0  0  0  0  0  0  0  0
   60.7541   33.3775   46.1002 H   0  0  0  0  0  0  0  0  0  0  0  0
   60.7301   35.1394   46.3032 H   0  0  0  0  0  0  0  0  0  0  0  0
   61.6230   33.3420   48.2423 H   0  0  0  0  0  0  0  0  0  0  0  0
   61.0537   34.9696   48.6282 H   0  0  0  0  0  0  0  0  0  0  0  0
   59.8024   32.4296   49.2938 H   0  0  0  0  0  0  0  0  0  0  0  0
   59.1819   34.0371   49.6811 H   0  0  0  0  0  0  0  0  0  0  0  0
   58.4976   32.2071   47.3940 H   0  0  0  0  0  0  0  0  0  0  0  0
   57.4928   33.4640   48.1389 H   0  0  0  0  0  0  0  0  0  0  0  0
   56.0731   32.1588   43.9645 H   0  0  0  0  0  0  0  0  0  0  0  0
   55.6100   29.7099   43.8531 H   0  0  0  0  0  0  0  0  0  0  0  0
  1  2  2  0
  2  3  1  0
  3  4  1  0
  4  5  1  0
  5  6  2  0
  5  7  1  0
  7  8  2  3
  8  9  1  0
  9 10  2  0
  9 11  1  0
 11 12  1  0
 12 13  2  0
 13 14  1  0
 14 15  2  0
 15 16  1  0
 16 17  2  0
 16 18  2  0
 16 19  1  0
 19 20  1  0
 20 21  1  0
 21 22  1  0
 22 23  1  0
 15 24  1  0
 24 25  2  0
 25 12  1  0
 23 19  1  0
  1 26  1  0
  1 27  1  0
  2 28  1  0
  3 29  1  0
  3 30  1  0
  7 31  1  0
  8 32  1  0
 11 33  1  0
 13 34  1  0
 14 35  1  0
 20 36  1  0
 20 37  1  0
 21 38  1  0
 21 39  1  0
 22 40  1  0
 22 41  1  0
 23 42  1  0
 23 43  1  0
 24 44  1  0
 25 45  1  0
M  CHG  1   4  -1
M  END
>  <UniqueID>  (81) 
78

>  <SMILES>  (81) 
C=CC[N-]C(=O)C=CC(=O)Nc1ccc(S(=O)(=O)N2CCCC2)cc1

>  <Energy>  (81) 
49.475906586758356

>  <Genealogy>  (81) 
C=CC[N-]C(=O)C=CC(=O)Nc1ccc(S(=O)(=O)N2CCCC2)cc1 (protonated)
C=CC[N-]C(=O)C=CC(=O)Nc1ccc(S(=O)(=O)N2CCCC2)cc1 (3D coordinates assigned)
C=CC[N-]C(=O)C=CC(=O)Nc1ccc(S(=O)(=O)N2CCCC2)cc1 (nonaromatic ring conformer: 49.475906586758356 kcal/mol)

>  <smiles>  (81) 
C=CCNC(=O)C=CC(=O)Nc1ccc(S(=O)(=O)N2CCCC2)cc1

>  <score_type>  (81) 
oracle

>  <origin>  (81) 
adg

>  <m_score__min__energy>  (81) 
-9.9399999999999995

>  <m_primary>  (81) 
energy

$$$$
81:0
     RDKit          3D

 42 44  0  0  0  0  0  0  0  0999 V2000
   59.3530   33.0770   46.7520 C   0  0  0  0  0  0  0  0  0  0  0  0
   60.8320   32.8520   46.9200 C   0  0  0  0  0  0  0  0  0  0  0  0
   61.6960   33.9490   46.7530 C   0  0  0  0  0  0  0  0  0  0  0  0
   63.0790   33.7870   46.8600 C   0  0  0  0  0  0  0  0  0  0  0  0
   63.6170   32.5320   47.1360 C   0  0  0  0  0  0  0  0  0  0  0  0
   62.7750   31.4360   47.3260 C   0  0  0  0  0  0  0  0  0  0  0  0
   61.3790   31.5830   47.2490 C   0  0  0  0  0  0  0  0  0  0  0  0
   60.5340   30.3940   47.5040 C   0  0  0  0  0  0  0  0  0  0  0  0
   60.1930   30.1280   48.6870 O   0  0  0  0  0  0  0  0  0  0  0  0
   60.1100   29.5180   46.4510 N   0  0  0  0  0  0  0  0  0  0  0  0
   58.7770   29.3960   45.9340 C   0  0  0  0  0  0  0  0  0  0  0  0
   58.1470   30.4530   45.2560 C   0  0  0  0  0  0  0  0  0  0  0  0
   56.8410   30.3030   44.7840 C   0  0  0  0  0  0  0  0  0  0  0  0
   56.1530   29.1020   44.9810 C   0  0  0  0  0  0  0  0  0  0  0  0
   54.8550   28.9680   44.5030 O   0  0  0  0  0  0  0  0  0  0  0  0
   56.7730   28.0380   45.6520 C   0  0  0  0  0  0  0  0  0  0  0  0
   56.0460   26.8150   45.8500 N   0  0  0  0  0  0  0  0  0  0  0  0
   56.5930   25.5850   46.3440 C   0  0  0  0  0  0  0  0  0  0  0  0
   57.0790   25.5620   47.5060 O   0  0  0  0  0  0  0  0  0  0  0  0
   56.5760   24.3400   45.5420 C   0  0  0  0  0  0  0  0  0  0  0  0
   56.1980   24.3960   44.1900 C   0  0  0  0  0  0  0  0  0  0  0  0
   56.1440   23.2290   43.4210 C   0  0  0  0  0  0  0  0  0  0  0  0
   56.4800   21.9980   43.9880 C   0  0  0  0  0  0  0  0  0  0  0  0
   56.4120   20.8420   43.2120 O   0  0  0  0  0  0  0  0  0  0  0  0
   56.8840   21.9360   45.3270 C   0  0  0  0  0  0  0  0  0  0  0  0
   56.9380   23.0980   46.1040 C   0  0  0  0  0  0  0  0  0  0  0  0
   57.3710   23.0110   47.4220 O   0  0  0  0  0  0  0  0  0  0  0  0
   58.0760   28.2050   46.1550 C   0  0  0  0  0  0  0  0  0  0  0  0
   58.8784   33.1492   47.7417 H   0  0  0  0  0  0  0  0  0  0  0  0
   59.1851   34.0110   46.1958 H   0  0  0  0  0  0  0  0  0  0  0  0
   58.9149   32.2352   46.1958 H   0  0  0  0  0  0  0  0  0  0  0  0
   61.2788   34.9434   46.5362 H   0  0  0  0  0  0  0  0  0  0  0  0
   63.7449   34.6522   46.7261 H   0  0  0  0  0  0  0  0  0  0  0  0
   64.7075   32.4050   47.2042 H   0  0  0  0  0  0  0  0  0  0  0  0
   63.2076   30.4471   47.5381 H   0  0  0  0  0  0  0  0  0  0  0  0
   58.6831   31.4002   45.0966 H   0  0  0  0  0  0  0  0  0  0  0  0
   56.3515   31.1338   44.2547 H   0  0  0  0  0  0  0  0  0  0  0  0
   55.9429   25.3637   43.7334 H   0  0  0  0  0  0  0  0  0  0  0  0
   55.8359   23.2811   42.3663 H   0  0  0  0  0  0  0  0  0  0  0  0
   57.0220   20.0520   43.3860 H   0  0  0  0  0  0  0  0  0  0  0  0
   57.1605   20.9681   45.7706 H   0  0  0  0  0  0  0  0  0  0  0  0
   58.5480   27.3925   46.7269 H   0  0  0  0  0  0  0  0  0  0  0  0
  1  2  1  0
  2  3  2  0
  3  4  1  0
  4  5  2  0
  5  6  1  0
  6  7  2  0
  7  8  1  0
  8  9  2  0
  8 10  1  0
 10 11  1  0
 11 12  2  0
 12 13  1  0
 13 14  2  0
 14 15  1  0
 14 16  1  0
 16 17  1  0
 17 18  1  0
 18 19  2  0
 18 20  1  0
 20 21  2  0
 21 22  1  0
 22 23  2  0
 23 24  1  0
 23 25  1  0
 25 26  2  0
 26 27  1  0
 16 28  2  0
  7  2  1  0
 28 11  1  0
 26 20  1  0
  1 29  1  0
  1 30  1  0
  1 31  1  0
  3 32  1  0
  4 33  1  0
  5 34  1  0
  6 35  1  0
 12 36  1  0
 13 37  1  0
 21 38  1  0
 22 39  1  0
 24 40  1  0
 25 41  1  0
 28 42  1  0
M  CHG  4  10  -1  15  -1  17  -1  27  -1
M  END
>  <UniqueID>  (82) 
79

>  <SMILES>  (82) 
Cc1ccccc1C(=O)[N-]c1ccc([O-])c([N-]C(=O)c2ccc(O)cc2[O-])c1

>  <Energy>  (82) 
60.753358243329224

>  <Genealogy>  (82) 
Cc1ccccc1C(=O)[N-]c1ccc([O-])c([N-]C(=O)c2ccc(O)cc2[O-])c1 (protonated)
Cc1ccccc1C(=O)[N-]c1ccc([O-])c([N-]C(=O)c2ccc(O)cc2[O-])c1 (3D coordinates assigned)
Cc1ccccc1C(=O)[N-]c1ccc([O-])c([N-]C(=O)c2ccc(O)cc2[O-])c1 (optimized conformer: 60.753358243329224 kcal/mol)

>  <smiles>  (82) 
Cc1ccccc1C(=O)Nc1ccc(O)c(NC(=O)c2ccc(O)cc2O)c1

>  <score_type>  (82) 
oracle

>  <origin>  (82) 
adg

>  <m_score__min__energy>  (82) 
-17.059999999999999

>  <m_primary>  (82) 
energy

$$$$
82:0
     RDKit          3D

 48 50  0  0  0  0  0  0  0  0999 V2000
   57.7720   19.2830   46.7370 C   0  0  0  0  0  0  0  0  0  0  0  0
   58.1250   20.6620   46.8380 O   0  0  0  0  0  0  0  0  0  0  0  0
   57.2530   21.7290   46.5670 C   0  0  0  0  0  0  0  0  0  0  0  0
   56.1730   22.0390   47.4160 C   0  0  0  0  0  0  0  0  0  0  0  0
   55.3470   23.1300   47.1460 C   0  0  0  0  0  0  0  0  0  0  0  0
   55.5830   23.9380   46.0240 C   0  0  0  0  0  0  0  0  0  0  0  0
   54.7330   25.1250   45.7600 C   0  0  0  0  0  0  0  0  0  0  0  0
   53.5510   24.9660   45.3540 O   0  0  0  0  0  0  0  0  0  0  0  0
   55.2110   26.4540   45.9930 N   0  0  0  0  0  0  0  0  0  0  0  0
   56.5910   26.8310   46.1330 C   0  0  0  0  0  0  0  0  0  0  0  0
   57.4740   26.0820   46.9300 C   0  0  0  0  0  0  0  0  0  0  0  0
   58.8110   26.4610   47.0460 C   0  0  0  0  0  0  0  0  0  0  0  0
   59.2820   27.5890   46.3690 C   0  0  0  0  0  0  0  0  0  0  0  0
   58.4200   28.3420   45.5550 C   0  0  0  0  0  0  0  0  0  0  0  0
   58.9570   29.5620   44.8400 C   0  0  0  0  0  0  0  0  0  0  0  0
   58.8560   30.7600   45.7070 N   0  0  0  0  0  0  0  0  0  0  0  0
   59.8960   31.1310   46.5370 C   0  0  0  0  0  0  0  0  0  0  0  0
   61.0580   30.3060   46.7180 N   0  0  0  0  0  0  0  0  0  0  0  0
   59.8300   32.3360   47.2450 C   0  0  0  0  0  0  0  0  0  0  0  0
   58.6970   33.1290   47.1270 C   0  0  0  0  0  0  0  0  0  0  0  0
   58.6120   34.2060   47.7750 O   0  0  0  0  0  0  0  0  0  0  0  0
   57.6800   32.7370   46.3200 N   0  0  0  0  0  0  0  0  0  0  0  0
   57.7470   31.5740   45.6140 C   0  0  0  0  0  0  0  0  0  0  0  0
   56.7740   31.2610   44.8700 O   0  0  0  0  0  0  0  0  0  0  0  0
   57.0740   27.9410   45.4230 C   0  0  0  0  0  0  0  0  0  0  0  0
   56.2260   28.6250   44.6100 F   0  0  0  0  0  0  0  0  0  0  0  0
   56.6360   23.6130   45.1570 C   0  0  0  0  0  0  0  0  0  0  0  0
   57.4700   22.5130   45.4160 C   0  0  0  0  0  0  0  0  0  0  0  0
   58.6360   22.2350   44.5020 C   0  0  0  0  0  0  0  0  0  0  0  0
   59.7540   21.8570   45.2620 O   0  0  0  0  0  0  0  0  0  0  0  0
   57.6631   18.8576   47.7455 H   0  0  0  0  0  0  0  0  0  0  0  0
   56.8203   19.1870   46.1938 H   0  0  0  0  0  0  0  0  0  0  0  0
   58.5605   18.7415   46.1938 H   0  0  0  0  0  0  0  0  0  0  0  0
   55.9790   21.4147   48.3006 H   0  0  0  0  0  0  0  0  0  0  0  0
   54.5056   23.3581   47.8169 H   0  0  0  0  0  0  0  0  0  0  0  0
   57.1087   25.1928   47.4647 H   0  0  0  0  0  0  0  0  0  0  0  0
   59.4964   25.8706   47.6719 H   0  0  0  0  0  0  0  0  0  0  0  0
   60.3350   27.8893   46.4743 H   0  0  0  0  0  0  0  0  0  0  0  0
   60.0119   29.3928   44.5783 H   0  0  0  0  0  0  0  0  0  0  0  0
   58.3622   29.7309   43.9302 H   0  0  0  0  0  0  0  0  0  0  0  0
   61.6840   30.0880   45.9090 H   0  0  0  0  0  0  0  0  0  0  0  0
   61.4220   30.0600   47.6660 H   0  0  0  0  0  0  0  0  0  0  0  0
   60.6657   32.6510   47.8872 H   0  0  0  0  0  0  0  0  0  0  0  0
   56.8300   33.3450   46.2340 H   0  0  0  0  0  0  0  0  0  0  0  0
   56.8113   24.2279   44.2619 H   0  0  0  0  0  0  0  0  0  0  0  0
   58.3723   21.4215   43.8102 H   0  0  0  0  0  0  0  0  0  0  0  0
   58.8750   23.1438   43.9301 H   0  0  0  0  0  0  0  0  0  0  0  0
   59.6990   20.8710   45.3820 H   0  0  0  0  0  0  0  0  0  0  0  0
  1  2  1  0
  2  3  1  0
  3  4  2  0
  4  5  1  0
  5  6  2  0
  6  7  1  0
  7  8  2  0
  7  9  1  0
  9 10  1  0
 10 11  2  0
 11 12  1  0
 12 13  2  0
 13 14  1  0
 14 15  1  0
 15 16  1  0
 16 17  1  0
 17 18  1  0
 17 19  2  0
 19 20  1  0
 20 21  2  0
 20 22  1  0
 22 23  1  0
 23 24  2  0
 14 25  2  0
 25 26  1  0
  6 27  1  0
 27 28  2  0
 28 29  1  0
 29 30  1  0
 28  3  1  0
 25 10  1  0
 23 16  1  0
  1 31  1  0
  1 32  1  0
  1 33  1  0
  4 34  1  0
  5 35  1  0
 11 36  1  0
 12 37  1  0
 13 38  1  0
 15 39  1  0
 15 40  1  0
 18 41  1  0
 18 42  1  0
 19 43  1  0
 22 44  1  0
 27 45  1  0
 29 46  1  0
 29 47  1  0
 30 48  1  0
M  CHG  1   9  -1
M  END
>  <UniqueID>  (83) 
80

>  <SMILES>  (83) 
COc1ccc(C(=O)[N-]c2cccc(Cn3c(N)cc(=O)[nH]c3=O)c2F)cc1CO

>  <Energy>  (83) 
64.23498994353459

>  <Genealogy>  (83) 
COc1ccc(C(=O)[N-]c2cccc(Cn3c(N)cc(=O)[nH]c3=O)c2F)cc1CO (protonated)
COc1ccc(C(=O)[N-]c2cccc(Cn3c(N)cc(=O)[nH]c3=O)c2F)cc1CO (3D coordinates assigned)
COc1ccc(C(=O)[N-]c2cccc(Cn3c(N)cc(=O)[nH]c3=O)c2F)cc1CO (optimized conformer: 64.23498994353459 kcal/mol)

>  <smiles>  (83) 
COc1ccc(C(=O)Nc2cccc(Cn3c(N)cc(=O)[nH]c3=O)c2F)cc1CO

>  <score_type>  (83) 
oracle

>  <origin>  (83) 
adg

>  <m_score__min__energy>  (83) 
-9.6500000000000004

>  <m_primary>  (83) 
energy

$$$$
83:0
     RDKit          3D

 66 70  0  0  0  0  0  0  0  0999 V2000
   59.6660   35.6550   45.9960 C   0  0  0  0  0  0  0  0  0  0  0  0
   59.4870   34.2470   46.3330 N   0  0  0  0  0  0  0  0  0  0  0  0
   59.1080   33.2720   45.4840 C   0  0  0  0  0  0  0  0  0  0  0  0
   58.9890   32.0750   46.1730 C   0  0  0  0  0  0  0  0  0  0  0  0
   58.5910   30.7770   45.5860 C   0  0  0  0  0  0  0  0  0  0  0  0
   57.7510   30.6960   44.4680 C   0  0  0  0  0  0  0  0  0  0  0  0
   57.4250   29.4770   43.9430 N   0  0  0  0  0  0  0  0  0  0  0  0
   56.5490   29.4090   42.7650 C   0  0  0  0  0  0  0  0  0  0  0  0
   57.8990   28.3240   44.5120 C   0  0  0  0  0  0  0  0  0  0  0  0
   57.6320   27.2130   43.9780 O   0  0  0  0  0  0  0  0  0  0  0  0
   58.7140   28.4000   45.6720 C   0  0  0  0  0  0  0  0  0  0  0  0
   59.1930   27.3600   46.3000 N   0  0  0  0  0  0  0  0  0  0  0  0
   58.6370   26.0410   46.3950 C   0  0  0  0  0  0  0  0  0  0  0  0
   59.1500   24.9890   45.6230 C   0  0  0  0  0  0  0  0  0  0  0  0
   58.5810   23.7150   45.6960 C   0  0  0  0  0  0  0  0  0  0  0  0
   57.4660   23.4720   46.5280 C   0  0  0  0  0  0  0  0  0  0  0  0
   56.8450   22.1160   46.6550 C   0  0  0  0  0  0  0  0  0  0  0  0
   57.3650   21.2960   47.4630 O   0  0  0  0  0  0  0  0  0  0  0  0
   55.7020   21.7110   45.8480 N   0  0  2  0  0  0  0  0  0  0  0  0
   55.5110   22.5340   44.6240 C   0  0  0  0  0  0  0  0  0  0  0  0
   54.8650   23.9110   44.8900 C   0  0  0  0  0  0  0  0  0  0  0  0
   53.5580   23.7880   45.7000 C   0  0  1  0  0  0  0  0  0  0  0  0
   52.4880   23.1120   44.9140 N   0  0  0  0  0  0  0  0  0  0  0  0
   51.3480   22.7010   45.7450 C   0  0  0  0  0  0  0  0  0  0  0  0
   50.1440   22.6200   44.8300 C   0  0  0  0  0  0  0  0  0  0  0  0
   50.4360   23.6040   43.7160 C   0  0  0  0  0  0  0  0  0  0  0  0
   51.9040   23.9830   43.8800 C   0  0  0  0  0  0  0  0  0  0  0  0
   53.8930   23.0140   46.9920 C   0  0  0  0  0  0  0  0  0  0  0  0
   54.4660   21.6290   46.6620 C   0  0  0  0  0  0  0  0  0  0  0  0
   56.9330   24.5520   47.2620 C   0  0  0  0  0  0  0  0  0  0  0  0
   57.5060   25.8240   47.1860 C   0  0  0  0  0  0  0  0  0  0  0  0
   59.0430   29.6280   46.1470 N   0  0  0  0  0  0  0  0  0  0  0  0
   59.3010   32.3460   47.4990 C   0  0  0  0  0  0  0  0  0  0  0  0
   59.5950   33.6920   47.5550 C   0  0  0  0  0  0  0  0  0  0  0  0
   60.0250   34.5650   49.0170 Cl  0  0  0  0  0  0  0  0  0  0  0  0
   59.7412   36.2466   46.9203 H   0  0  0  0  0  0  0  0  0  0  0  0
   60.5869   35.7768   45.4068 H   0  0  0  0  0  0  0  0  0  0  0  0
   58.8049   36.0033   45.4068 H   0  0  0  0  0  0  0  0  0  0  0  0
   58.9214   33.4054   44.4082 H   0  0  0  0  0  0  0  0  0  0  0  0
   57.3533   31.6146   44.0120 H   0  0  0  0  0  0  0  0  0  0  0  0
   55.5016   29.3277   43.0911 H   0  0  0  0  0  0  0  0  0  0  0  0
   56.6753   30.3197   42.1611 H   0  0  0  0  0  0  0  0  0  0  0  0
   56.8144   28.5288   42.1611 H   0  0  0  0  0  0  0  0  0  0  0  0
   60.0059   25.1678   44.9556 H   0  0  0  0  0  0  0  0  0  0  0  0
   59.0054   22.8937   45.0999 H   0  0  0  0  0  0  0  0  0  0  0  0
   55.9030   20.7510   45.4880 H   0  0  0  0  0  0  0  0  0  0  0  0
   56.4946   22.6969   44.1593 H   0  0  0  0  0  0  0  0  0  0  0  0
   54.8217   21.9790   43.9706 H   0  0  0  0  0  0  0  0  0  0  0  0
   55.5752   24.5337   45.4538 H   0  0  0  0  0  0  0  0  0  0  0  0
   54.6217   24.3661   43.9186 H   0  0  0  0  0  0  0  0  0  0  0  0
   53.1637   24.7852   45.9452 H   0  0  0  0  0  0  0  0  0  0  0  0
   51.5452   21.7185   46.1987 H   0  0  0  0  0  0  0  0  0  0  0  0
   51.1756   23.4190   46.5603 H   0  0  0  0  0  0  0  0  0  0  0  0
   50.0308   21.6023   44.4280 H   0  0  0  0  0  0  0  0  0  0  0  0
   49.2069   22.8551   45.3559 H   0  0  0  0  0  0  0  0  0  0  0  0
   50.2674   23.1352   42.7353 H   0  0  0  0  0  0  0  0  0  0  0  0
   49.7793   24.4850   43.7678 H   0  0  0  0  0  0  0  0  0  0  0  0
   52.4350   23.8389   42.9275 H   0  0  0  0  0  0  0  0  0  0  0  0
   51.9946   25.0388   44.1751 H   0  0  0  0  0  0  0  0  0  0  0  0
   54.6349   23.5829   47.5716 H   0  0  0  0  0  0  0  0  0  0  0  0
   52.9699   22.8846   47.5760 H   0  0  0  0  0  0  0  0  0  0  0  0
   54.6961   21.1080   47.6031 H   0  0  0  0  0  0  0  0  0  0  0  0
   53.7120   21.0840   46.0751 H   0  0  0  0  0  0  0  0  0  0  0  0
   56.0539   24.3906   47.9032 H   0  0  0  0  0  0  0  0  0  0  0  0
   57.0648   26.6581   47.7513 H   0  0  0  0  0  0  0  0  0  0  0  0
   59.3114   31.6315   48.3353 H   0  0  0  0  0  0  0  0  0  0  0  0
  1  2  1  0
  2  3  1  0
  3  4  2  0
  4  5  1  0
  5  6  2  0
  6  7  1  0
  7  8  1  0
  7  9  1  0
  9 10  2  0
  9 11  1  0
 11 12  2  3
 12 13  1  0
 13 14  2  0
 14 15  1  0
 15 16  2  0
 16 17  1  0
 17 18  2  0
 17 19  1  0
 19 20  1  0
 20 21  1  0
 21 22  1  0
 22 23  1  0
 23 24  1  0
 24 25  1  0
 25 26  1  0
 26 27  1  0
 22 28  1  0
 28 29  1  0
 16 30  1  0
 30 31  2  0
 11 32  1  0
  4 33  1  0
 33 34  2  0
 34 35  1  0
 34  2  1  0
 32  5  1  0
 31 13  1  0
 29 19  1  0
 27 23  1  0
  1 36  1  0
  1 37  1  0
  1 38  1  0
  3 39  1  0
  6 40  1  0
  8 41  1  0
  8 42  1  0
  8 43  1  0
 14 44  1  0
 15 45  1  0
 19 46  1  6
 20 47  1  0
 20 48  1  0
 21 49  1  0
 21 50  1  0
 22 51  1  1
 24 52  1  0
 24 53  1  0
 25 54  1  0
 25 55  1  0
 26 56  1  0
 26 57  1  0
 27 58  1  0
 27 59  1  0
 28 60  1  0
 28 61  1  0
 29 62  1  0
 29 63  1  0
 30 64  1  0
 31 65  1  0
 33 66  1  0
M  CHG  2  19   1  32  -1
M  END
>  <UniqueID>  (84) 
81

>  <SMILES>  (84) 
Cn1cc(-c2cn(C)c(=O)c(=Nc3ccc(C(=O)[NH+]4CCC(N5CCCC5)CC4)cc3)[n-]2)cc1Cl

>  <Energy>  (84) 
124.95157010877546

>  <Genealogy>  (84) 
Cn1cc(-c2cn(C)c(=O)c(=Nc3ccc(C(=O)[NH+]4CCC(N5CCCC5)CC4)cc3)[n-]2)cc1Cl (protonated)
Cn1cc(-c2cn(C)c(=O)c(=Nc3ccc(C(=O)[NH+]4CCC(N5CCCC5)CC4)cc3)[n-]2)cc1Cl (3D coordinates assigned)
Cn1cc(-c2cn(C)c(=O)c(=Nc3ccc(C(=O)[NH+]4CCC(N5CCCC5)CC4)cc3)[n-]2)cc1Cl (nonaromatic ring conformer: 124.95157010877546 kcal/mol)

>  <smiles>  (84) 
Cn1cc(-c2cn(C)c(=O)c(=Nc3ccc(C(=O)N4CCC(N5CCCC5)CC4)cc3)[nH]2)cc1Cl

>  <score_type>  (84) 
oracle

>  <origin>  (84) 
adg

>  <m_score__min__energy>  (84) 
-8.4000000000000004

>  <m_primary>  (84) 
energy

$$$$
84:0
     RDKit          3D

 52 56  0  0  0  0  0  0  0  0999 V2000
   64.6860   32.0420   46.7390 H   0  0  0  0  0  0  0  0  0  0  0  0
   64.0360   32.8230   46.4950 N   0  0  0  0  0  0  0  0  0  0  0  0
   62.7930   32.8210   46.8580 C   0  0  0  0  0  0  0  0  0  0  0  0
   61.9630   33.8610   46.4460 O   0  0  0  0  0  0  0  0  0  0  0  0
   60.6230   33.9320   46.8350 C   0  0  0  0  0  0  0  0  0  0  0  0
   59.7720   34.6550   46.0980 C   0  0  0  0  0  0  0  0  0  0  0  0
   60.1514   35.2952   45.2879 H   0  0  0  0  0  0  0  0  0  0  0  0
   58.2950   34.5910   46.3790 C   0  0  0  0  0  0  0  0  0  0  0  0
   58.0673   35.2095   47.2597 H   0  0  0  0  0  0  0  0  0  0  0  0
   57.7500   34.9657   45.5000 H   0  0  0  0  0  0  0  0  0  0  0  0
   57.8580   33.1390   46.6530 C   0  0  0  0  0  0  0  0  0  0  0  0
   56.8573   33.1476   47.1097 H   0  0  0  0  0  0  0  0  0  0  0  0
   57.8487   32.5963   45.6962 H   0  0  0  0  0  0  0  0  0  0  0  0
   58.8190   32.4340   47.5880 C   0  0  0  0  0  0  0  0  0  0  0  0
   58.5310   31.3250   48.0140 O   0  0  0  0  0  0  0  0  0  0  0  0
   60.0930   33.1460   48.0240 C   0  0  1  0  0  0  0  0  0  0  0  0
   59.8402   33.8336   48.8446 H   0  0  0  0  0  0  0  0  0  0  0  0
   61.1690   32.2190   48.6820 C   0  0  2  0  0  0  0  0  0  0  0  0
   60.6341   31.3306   49.0488 H   0  0  0  0  0  0  0  0  0  0  0  0
   61.8320   32.9250   49.8530 C   0  0  0  0  0  0  0  0  0  0  0  0
   63.1410   33.3820   49.9280 C   0  0  0  0  0  0  0  0  0  0  0  0
   63.8869   33.3246   49.1216 H   0  0  0  0  0  0  0  0  0  0  0  0
   63.3470   33.9080   51.1530 N   0  0  0  0  0  0  0  0  0  0  0  0
   64.5750   34.4880   51.6360 C   0  0  0  0  0  0  0  0  0  0  0  0
   65.8130   33.8700   51.3710 C   0  0  0  0  0  0  0  0  0  0  0  0
   65.8444   32.9364   50.7901 H   0  0  0  0  0  0  0  0  0  0  0  0
   67.0010   34.4350   51.8410 C   0  0  0  0  0  0  0  0  0  0  0  0
   67.9629   33.9446   51.6306 H   0  0  0  0  0  0  0  0  0  0  0  0
   66.9700   35.6220   52.5780 C   0  0  0  0  0  0  0  0  0  0  0  0
   67.9065   36.0652   52.9475 H   0  0  0  0  0  0  0  0  0  0  0  0
   65.7490   36.2450   52.8450 C   0  0  0  0  0  0  0  0  0  0  0  0
   65.7248   37.1799   53.4241 H   0  0  0  0  0  0  0  0  0  0  0  0
   64.5580   35.6830   52.3780 C   0  0  0  0  0  0  0  0  0  0  0  0
   63.5997   36.1788   52.5922 H   0  0  0  0  0  0  0  0  0  0  0  0
   62.2280   33.8160   51.8560 N   0  0  0  0  0  0  0  0  0  0  0  0
   62.1060   34.1420   52.8410 H   0  0  0  0  0  0  0  0  0  0  0  0
   61.2800   33.2390   51.0920 C   0  0  0  0  0  0  0  0  0  0  0  0
   59.8910   33.0270   51.5450 C   0  0  0  0  0  0  0  0  0  0  0  0
   59.2340   34.0290   52.2770 C   0  0  0  0  0  0  0  0  0  0  0  0
   59.7611   34.9621   52.5248 H   0  0  0  0  0  0  0  0  0  0  0  0
   57.9110   33.8440   52.6920 C   0  0  0  0  0  0  0  0  0  0  0  0
   57.4042   34.6268   53.2754 H   0  0  0  0  0  0  0  0  0  0  0  0
   57.2320   32.6670   52.3670 C   0  0  0  0  0  0  0  0  0  0  0  0
   56.1938   32.5211   52.6998 H   0  0  0  0  0  0  0  0  0  0  0  0
   57.8720   31.6750   51.6190 C   0  0  0  0  0  0  0  0  0  0  0  0
   57.2080   30.5400   51.2890 F   0  0  0  0  0  0  0  0  0  0  0  0
   59.1940   31.8560   51.2010 C   0  0  0  0  0  0  0  0  0  0  0  0
   59.6903   31.0792   50.6008 H   0  0  0  0  0  0  0  0  0  0  0  0
   62.2280   31.6940   47.6800 C   0  0  1  0  0  0  0  0  0  0  0  0
   63.0347   31.2294   48.2660 H   0  0  0  0  0  0  0  0  0  0  0  0
   61.6400   30.6940   46.7760 C   0  0  0  0  0  0  0  0  0  0  0  0
   61.1760   29.9060   46.0660 N   0  0  0  0  0  0  0  0  0  0  0  0
  1  2  1  0
  2  3  2  0
  3  4  1  0
  4  5  1  0
  5  6  2  0
  6  7  1  0
  6  8  1  0
  8  9  1  0
  8 10  1  0
  8 11  1  0
 11 12  1  0
 11 13  1  0
 11 14  1  0
 14 15  2  0
 14 16  1  0
 16 17  1  1
 16 18  1  0
 18 19  1  1
 18 20  1  0
 20 21  2  0
 21 22  1  0
 21 23  1  0
 23 24  1  0
 24 25  2  0
 25 26  1  0
 25 27  1  0
 27 28  1  0
 27 29  2  0
 29 30  1  0
 29 31  1  0
 31 32  1  0
 31 33  2  0
 33 34  1  0
 23 35  1  0
 35 36  1  0
 35 37  2  0
 37 38  1  0
 38 39  2  0
 39 40  1  0
 39 41  1  0
 41 42  1  0
 41 43  2  0
 43 44  1  0
 43 45  1  0
 45 46  1  0
 45 47  2  0
 47 48  1  0
 18 49  1  0
 49 50  1  1
 49 51  1  0
 51 52  3  0
 49  3  1  0
 16  5  1  0
 37 20  1  0
 47 38  1  0
 33 24  1  0
M  CHG  1  35   1
M  END
>  <UniqueID>  (85) 
82

>  <SMILES>  (85) 
[H]/N=C1/OC2=CCCC(=O)[C@H]2C(c2cn(-c3ccccc3)[nH+]c2-c2cccc(F)c2)[C@H]1C#N

>  <Energy>  (85) 
101.20549246413103

>  <Genealogy>  (85) 
N#CC1C(=N)OC2=CCCC(=O)C2C1c1cn(-c2ccccc2)[nH+]c1-c1cccc(F)c1 (protonated)
N#C[C@H]1C(=N)OC2=CCCC(=O)[C@H]2C1c1cn(-c2ccccc2)[nH+]c1-c1cccc(F)c1 (chirality)
[H]/N=C1/OC2=CCCC(=O)[C@H]2C(c2cn(-c3ccccc3)[nH+]c2-c2cccc(F)c2)[C@H]1C#N (cis-trans isomerization)
[H]/N=C1/OC2=CCCC(=O)[C@H]2C(c2cn(-c3ccccc3)[nH+]c2-c2cccc(F)c2)[C@H]1C#N (3D coordinates assigned)
[H]/N=C1/OC2=CCCC(=O)[C@H]2C(c2cn(-c3ccccc3)[nH+]c2-c2cccc(F)c2)[C@H]1C#N (nonaromatic ring conformer: 101.20549246413103 kcal/mol)

>  <smiles>  (85) 
N#CC1C(=N)OC2=CCCC(=O)C2C1c1cn(-c2ccccc2)nc1-c1cccc(F)c1

>  <score_type>  (85) 
oracle

>  <origin>  (85) 
adg

>  <m_score__min__energy>  (85) 
-6.5800000000000001

>  <m_primary>  (85) 
energy

$$$$
85:0
     RDKit          3D

 39 41  0  0  0  0  0  0  0  0999 V2000
   57.0130   24.2410   43.0330 C   0  0  0  0  0  0  0  0  0  0  0  0
   56.9590   22.9560   43.7250 N   0  0  0  0  0  0  0  0  0  0  0  0
   56.2210   21.9440   43.2910 N   0  0  0  0  0  0  0  0  0  0  0  0
   56.3800   20.9150   44.1450 C   0  0  0  0  0  0  0  0  0  0  0  0
   57.2460   21.2880   45.1530 C   0  0  0  0  0  0  0  0  0  0  0  0
   57.7690   20.1900   46.6300 Br  0  0  0  0  0  0  0  0  0  0  0  0
   57.6000   22.5970   44.8640 C   0  0  0  0  0  0  0  0  0  0  0  0
   58.4880   23.4610   45.6810 C   0  0  0  0  0  0  0  0  0  0  0  0
   59.7400   23.3630   45.5700 O   0  0  0  0  0  0  0  0  0  0  0  0
   57.9490   24.4420   46.5680 N   0  0  0  0  0  0  0  0  0  0  0  0
   57.1980   25.4590   46.2480 C   0  0  0  0  0  0  0  0  0  0  0  0
   57.6890   26.7320   46.0690 C   0  0  0  0  0  0  0  0  0  0  0  0
   56.5810   27.4670   45.6910 C   0  0  0  0  0  0  0  0  0  0  0  0
   56.5620   28.9120   45.3940 C   0  0  0  0  0  0  0  0  0  0  0  0
   55.5700   29.4020   44.7920 O   0  0  0  0  0  0  0  0  0  0  0  0
   57.6720   29.7660   45.7090 N   0  0  0  0  0  0  0  0  0  0  0  0
   57.7740   31.0320   45.4190 C   0  0  0  0  0  0  0  0  0  0  0  0
   57.9500   31.9600   46.4040 N   0  0  0  0  0  0  0  0  0  0  0  0
   58.0480   33.2890   46.1400 C   0  0  0  0  0  0  0  0  0  0  0  0
   57.9580   33.7470   44.8260 C   0  0  0  0  0  0  0  0  0  0  0  0
   57.7630   32.8280   43.7950 C   0  0  0  0  0  0  0  0  0  0  0  0
   57.6650   31.4590   44.0800 C   0  0  0  0  0  0  0  0  0  0  0  0
   57.4640   30.5240   43.0110 N   0  0  0  0  0  0  0  0  0  0  0  0
   55.4920   26.6720   45.6540 N   0  0  0  0  0  0  0  0  0  0  0  0
   55.8670   25.4460   45.9850 N   0  0  0  0  0  0  0  0  0  0  0  0
   54.9310   24.3240   45.9810 C   0  0  0  0  0  0  0  0  0  0  0  0
   57.0472   25.0546   43.7726 H   0  0  0  0  0  0  0  0  0  0  0  0
   57.9136   24.2804   42.4026 H   0  0  0  0  0  0  0  0  0  0  0  0
   56.1189   24.3558   42.4026 H   0  0  0  0  0  0  0  0  0  0  0  0
   55.8957   19.9316   44.0536 H   0  0  0  0  0  0  0  0  0  0  0  0
   58.7235   27.0833   46.1970 H   0  0  0  0  0  0  0  0  0  0  0  0
   58.1983   34.0037   46.9626 H   0  0  0  0  0  0  0  0  0  0  0  0
   58.0399   34.8214   44.6049 H   0  0  0  0  0  0  0  0  0  0  0  0
   57.6859   33.1786   42.7552 H   0  0  0  0  0  0  0  0  0  0  0  0
   56.9780   29.6150   43.1850 H   0  0  0  0  0  0  0  0  0  0  0  0
   57.7960   30.7230   42.0410 H   0  0  0  0  0  0  0  0  0  0  0  0
   54.6943   24.0403   47.0171 H   0  0  0  0  0  0  0  0  0  0  0  0
   54.0074   24.6189   45.4615 H   0  0  0  0  0  0  0  0  0  0  0  0
   55.3867   23.4682   45.4615 H   0  0  0  0  0  0  0  0  0  0  0  0
  1  2  1  0
  2  3  1  0
  3  4  2  0
  4  5  1  0
  5  6  1  0
  5  7  2  0
  7  8  1  0
  8  9  2  0
  8 10  1  0
 10 11  2  3
 11 12  1  0
 12 13  2  0
 13 14  1  0
 14 15  2  0
 14 16  1  0
 16 17  2  3
 17 18  1  0
 18 19  1  0
 19 20  2  0
 20 21  1  0
 21 22  2  0
 22 23  1  0
 13 24  1  0
 24 25  1  0
 25 26  1  0
  7  2  1  0
 25 11  1  0
 22 17  1  0
  1 27  1  0
  1 28  1  0
  1 29  1  0
  4 30  1  0
 12 31  1  0
 19 32  1  0
 20 33  1  0
 21 34  1  0
 23 35  1  0
 23 36  1  0
 26 37  1  0
 26 38  1  0
 26 39  1  0
M  CHG  2  18  -1  24  -1
M  END
>  <UniqueID>  (86) 
83

>  <SMILES>  (86) 
Cn1ncc(Br)c1C(=O)N=c1cc(C(=O)N=c2[n-]cccc2N)[n-]n1C

>  <Energy>  (86) 
121.27475317327276

>  <Genealogy>  (86) 
Cn1ncc(Br)c1C(=O)N=c1cc(C(=O)N=c2[n-]cccc2N)[n-]n1C (protonated)
Cn1ncc(Br)c1C(=O)N=c1cc(C(=O)N=c2[n-]cccc2N)[n-]n1C (3D coordinates assigned)
Cn1ncc(Br)c1C(=O)N=c1cc(C(=O)N=c2[n-]cccc2N)[n-]n1C (optimized conformer: 121.27475317327276 kcal/mol)

>  <smiles>  (86) 
Cn1ncc(Br)c1C(=O)N=c1cc(C(=O)N=c2[nH]cccc2N)[nH]n1C

>  <score_type>  (86) 
oracle

>  <origin>  (86) 
adg

>  <m_score__min__energy>  (86) 
-10.85

>  <m_primary>  (86) 
energy

$$$$
86:0
     RDKit          3D

 61 64  0  0  0  0  0  0  0  0999 V2000
   56.2160   30.1360   44.3760 C   0  0  0  0  0  0  0  0  0  0  0  0
   55.7180   28.8390   44.8260 N   0  0  0  0  0  0  0  0  0  0  0  0
   56.4870   27.9450   45.6580 C   0  0  0  0  0  0  0  0  0  0  0  0
   57.7810   28.3070   46.0820 C   0  0  0  0  0  0  0  0  0  0  0  0
   58.5220   27.4790   46.9420 C   0  0  0  0  0  0  0  0  0  0  0  0
   59.8860   27.8740   47.3700 C   0  0  0  0  0  0  0  0  0  0  0  0
   60.8800   27.2460   46.9150 O   0  0  0  0  0  0  0  0  0  0  0  0
   60.1000   28.9520   48.2990 N   0  0  0  0  0  0  0  0  0  0  0  0
   61.1100   28.7950   49.3560 C   0  0  0  0  0  0  0  0  0  0  0  0
   61.4820   30.1440   49.9840 C   0  0  0  0  0  0  0  0  0  0  0  0
   60.2290   30.9180   50.4480 C   0  0  0  0  0  0  0  0  0  0  0  0
   60.6110   32.3430   50.7900 C   0  0  0  0  0  0  0  0  0  0  0  0
   61.3510   32.5590   51.7880 O   0  0  0  0  0  0  0  0  0  0  0  0
   60.0730   33.4660   50.0800 N   0  0  0  0  0  0  0  0  0  0  0  0
   60.0790   33.6700   48.6600 C   0  0  0  0  0  0  0  0  0  0  0  0
   58.8750   33.7550   47.9390 C   0  0  0  0  0  0  0  0  0  0  0  0
   58.8910   33.9460   46.5550 C   0  0  0  0  0  0  0  0  0  0  0  0
   60.1060   34.0390   45.8770 C   0  0  0  0  0  0  0  0  0  0  0  0
   61.3090   33.9280   46.5790 C   0  0  0  0  0  0  0  0  0  0  0  0
   61.3070   33.7250   47.9670 C   0  0  0  0  0  0  0  0  0  0  0  0
   62.5620   33.6000   48.6600 N   0  0  0  0  0  0  0  0  0  0  0  0
   63.5870   32.6840   48.1570 C   0  0  0  0  0  0  0  0  0  0  0  0
   64.3920   32.1240   49.3340 C   0  0  0  0  0  0  0  0  0  0  0  0
   64.8800   33.1700   50.1540 O   0  0  0  0  0  0  0  0  0  0  0  0
   63.7960   33.8510   50.7580 C   0  0  0  0  0  0  0  0  0  0  0  0
   62.9420   34.5580   49.7010 C   0  0  0  0  0  0  0  0  0  0  0  0
   59.0680   30.8840   49.4150 C   0  0  0  0  0  0  0  0  0  0  0  0
   59.4740   30.2620   48.0740 C   0  0  0  0  0  0  0  0  0  0  0  0
   57.9660   26.2640   47.3650 C   0  0  0  0  0  0  0  0  0  0  0  0
   56.6910   25.8890   46.9460 C   0  0  0  0  0  0  0  0  0  0  0  0
   55.9490   26.7080   46.0890 C   0  0  0  0  0  0  0  0  0  0  0  0
   54.7010   26.2440   45.6710 O   0  0  0  0  0  0  0  0  0  0  0  0
   56.4556   30.7600   45.2496 H   0  0  0  0  0  0  0  0  0  0  0  0
   57.1222   29.9905   43.7697 H   0  0  0  0  0  0  0  0  0  0  0  0
   55.4453   30.6344   43.7697 H   0  0  0  0  0  0  0  0  0  0  0  0
   54.7590   28.5730   44.5140 H   0  0  0  0  0  0  0  0  0  0  0  0
   58.2187   29.2542   45.7337 H   0  0  0  0  0  0  0  0  0  0  0  0
   60.7082   28.1351   50.1390 H   0  0  0  0  0  0  0  0  0  0  0  0
   62.0158   28.3628   48.9059 H   0  0  0  0  0  0  0  0  0  0  0  0
   62.1340   29.9664   50.8520 H   0  0  0  0  0  0  0  0  0  0  0  0
   61.9981   30.7479   49.2231 H   0  0  0  0  0  0  0  0  0  0  0  0
   59.8445   30.4109   51.3452 H   0  0  0  0  0  0  0  0  0  0  0  0
   57.9142   33.6706   48.4679 H   0  0  0  0  0  0  0  0  0  0  0  0
   57.9445   34.0231   45.9998 H   0  0  0  0  0  0  0  0  0  0  0  0
   60.1174   34.1998   44.7889 H   0  0  0  0  0  0  0  0  0  0  0  0
   62.2647   34.0003   46.0392 H   0  0  0  0  0  0  0  0  0  0  0  0
   63.1056   31.8566   47.6151 H   0  0  0  0  0  0  0  0  0  0  0  0
   64.2605   33.2250   47.4760 H   0  0  0  0  0  0  0  0  0  0  0  0
   63.7442   31.4680   49.9340 H   0  0  0  0  0  0  0  0  0  0  0  0
   65.2484   31.5588   48.9375 H   0  0  0  0  0  0  0  0  0  0  0  0
   63.1715   33.1258   51.3004 H   0  0  0  0  0  0  0  0  0  0  0  0
   64.1956   34.6057   51.4514 H   0  0  0  0  0  0  0  0  0  0  0  0
   62.0358   34.9646   50.1737 H   0  0  0  0  0  0  0  0  0  0  0  0
   63.5203   35.3784   49.2510 H   0  0  0  0  0  0  0  0  0  0  0  0
   58.2405   30.2953   49.8377 H   0  0  0  0  0  0  0  0  0  0  0  0
   58.7740   31.9255   49.2178 H   0  0  0  0  0  0  0  0  0  0  0  0
   58.5804   30.1359   47.4451 H   0  0  0  0  0  0  0  0  0  0  0  0
   60.1929   30.9250   47.5704 H   0  0  0  0  0  0  0  0  0  0  0  0
   58.5393   25.6028   48.0314 H   0  0  0  0  0  0  0  0  0  0  0  0
   56.2629   24.9372   47.2936 H   0  0  0  0  0  0  0  0  0  0  0  0
   53.8270   26.7040   45.8860 H   0  0  0  0  0  0  0  0  0  0  0  0
  1  2  1  0
  2  3  1  0
  3  4  2  0
  4  5  1  0
  5  6  1  0
  6  7  2  0
  6  8  1  0
  8  9  1  0
  9 10  1  0
 10 11  1  0
 11 12  1  0
 12 13  2  0
 12 14  1  0
 14 15  1  0
 15 16  2  0
 16 17  1  0
 17 18  2  0
 18 19  1  0
 19 20  2  0
 20 21  1  0
 21 22  1  0
 22 23  1  0
 23 24  1  0
 24 25  1  0
 25 26  1  0
 11 27  1  0
 27 28  1  0
  5 29  2  0
 29 30  1  0
 30 31  2  0
 31 32  1  0
 31  3  1  0
 28  8  1  0
 20 15  1  0
 26 21  1  0
  1 33  1  0
  1 34  1  0
  1 35  1  0
  2 36  1  0
  4 37  1  0
  9 38  1  0
  9 39  1  0
 10 40  1  0
 10 41  1  0
 11 42  1  0
 16 43  1  0
 17 44  1  0
 18 45  1  0
 19 46  1  0
 22 47  1  0
 22 48  1  0
 23 49  1  0
 23 50  1  0
 25 51  1  0
 25 52  1  0
 26 53  1  0
 26 54  1  0
 27 55  1  0
 27 56  1  0
 28 57  1  0
 28 58  1  0
 29 59  1  0
 30 60  1  0
 32 61  1  0
M  CHG  1  14  -1
M  END
>  <UniqueID>  (87) 
84

>  <SMILES>  (87) 
CNc1cc(C(=O)N2CCC(C(=O)[N-]c3ccccc3N3CCOCC3)CC2)ccc1O

>  <Energy>  (87) 
83.61610474953171

>  <Genealogy>  (87) 
CNc1cc(C(=O)N2CCC(C(=O)[N-]c3ccccc3N3CCOCC3)CC2)ccc1O (protonated)
CNc1cc(C(=O)N2CCC(C(=O)[N-]c3ccccc3N3CCOCC3)CC2)ccc1O (3D coordinates assigned)
CNc1cc(C(=O)N2CCC(C(=O)[N-]c3ccccc3N3CCOCC3)CC2)ccc1O (nonaromatic ring conformer: 83.61610474953171 kcal/mol)

>  <smiles>  (87) 
CNc1cc(C(=O)N2CCC(C(=O)Nc3ccccc3N3CCOCC3)CC2)ccc1O

>  <score_type>  (87) 
oracle

>  <origin>  (87) 
adg

>  <m_score__min__energy>  (87) 
-10.34

>  <m_primary>  (87) 
energy

$$$$
87:0
     RDKit          3D

 67 71  0  0  0  0  0  0  0  0999 V2000
   57.0720   20.0790   46.4650 C   0  0  0  0  0  0  0  0  0  0  0  0
   57.7710   21.2920   46.7260 O   0  0  0  0  0  0  0  0  0  0  0  0
   57.2310   22.5740   46.5390 C   0  0  0  0  0  0  0  0  0  0  0  0
   56.3880   23.1820   47.4860 C   0  0  0  0  0  0  0  0  0  0  0  0
   55.8850   24.4660   47.2590 C   0  0  0  0  0  0  0  0  0  0  0  0
   56.2100   25.1570   46.0850 C   0  0  0  0  0  0  0  0  0  0  0  0
   55.7150   26.4450   45.8760 O   0  0  0  0  0  0  0  0  0  0  0  0
   57.0390   24.5510   45.1210 C   0  0  0  0  0  0  0  0  0  0  0  0
   57.4370   25.2880   43.8700 C   0  0  0  0  0  0  0  0  0  0  0  0
   57.9810   26.6330   44.2260 C   0  0  0  0  0  0  0  0  0  0  0  0
   57.7670   27.7530   43.5110 N   0  0  0  0  0  0  0  0  0  0  0  0
   58.3760   28.7300   44.1640 N   0  0  0  0  0  0  0  0  0  0  0  0
   58.9350   28.1690   45.2550 C   0  0  0  0  0  0  0  0  0  0  0  0
   59.7090   28.9040   46.2730 C   0  0  0  0  0  0  0  0  0  0  0  0
   59.7480   28.4400   47.5970 C   0  0  0  0  0  0  0  0  0  0  0  0
   60.4690   29.1380   48.5690 C   0  0  0  0  0  0  0  0  0  0  0  0
   61.1540   30.3170   48.2360 C   0  0  0  0  0  0  0  0  0  0  0  0
   61.9030   31.0810   49.2940 C   0  0  0  0  0  0  0  0  0  0  0  0
   60.7500   31.8950   50.4590 S   0  0  0  0  0  0  0  0  0  0  0  0
   61.1440   33.6220   50.0010 C   0  0  0  0  0  0  0  0  0  0  0  0
   61.1520   33.8010   48.5080 C   0  0  0  0  0  0  0  0  0  0  0  0
   62.2260   34.1790   47.9620 O   0  0  0  0  0  0  0  0  0  0  0  0
   59.9760   33.5900   47.6930 N   0  0  0  0  0  0  0  0  0  0  0  0
   58.7710   32.9260   48.2180 C   0  0  0  0  0  0  0  0  0  0  0  0
   58.1330   32.0360   47.1440 C   0  0  0  0  0  0  0  0  0  0  0  0
   58.0430   32.7130   45.8400 N   0  0  0  0  0  0  0  0  0  0  0  0
   57.3700   32.0370   44.7540 C   0  0  0  0  0  0  0  0  0  0  0  0
   56.7180   30.9820   44.9810 O   0  0  0  0  0  0  0  0  0  0  0  0
   57.4020   32.5730   43.3480 C   0  0  0  0  0  0  0  0  0  0  0  0
   57.0320   31.5700   42.2620 C   0  0  0  0  0  0  0  0  0  0  0  0
   58.4830   31.9620   42.4670 C   0  0  0  0  0  0  0  0  0  0  0  0
   58.5660   34.0800   45.7030 C   0  0  0  0  0  0  0  0  0  0  0  0
   59.9530   34.1730   46.3410 C   0  0  0  0  0  0  0  0  0  0  0  0
   61.1230   30.7780   46.9110 C   0  0  0  0  0  0  0  0  0  0  0  0
   60.4070   30.0760   45.9350 C   0  0  0  0  0  0  0  0  0  0  0  0
   58.6940   26.8800   45.2970 O   0  0  0  0  0  0  0  0  0  0  0  0
   57.5540   23.2660   45.3650 C   0  0  0  0  0  0  0  0  0  0  0  0
   56.7971   19.6020   47.4173 H   0  0  0  0  0  0  0  0  0  0  0  0
   56.1613   20.2975   45.8880 H   0  0  0  0  0  0  0  0  0  0  0  0
   57.7177   19.4006   45.8880 H   0  0  0  0  0  0  0  0  0  0  0  0
   56.1235   22.6451   48.4089 H   0  0  0  0  0  0  0  0  0  0  0  0
   55.2299   24.9367   48.0069 H   0  0  0  0  0  0  0  0  0  0  0  0
   56.1400   27.0750   45.2050 H   0  0  0  0  0  0  0  0  0  0  0  0
   58.2075   24.7121   43.3364 H   0  0  0  0  0  0  0  0  0  0  0  0
   56.5543   25.4124   43.2256 H   0  0  0  0  0  0  0  0  0  0  0  0
   59.2079   27.5217   47.8709 H   0  0  0  0  0  0  0  0  0  0  0  0
   60.5001   28.7612   49.6020 H   0  0  0  0  0  0  0  0  0  0  0  0
   62.5461   30.3849   49.8524 H   0  0  0  0  0  0  0  0  0  0  0  0
   62.5085   31.8566   48.8023 H   0  0  0  0  0  0  0  0  0  0  0  0
   60.3878   34.2905   50.4384 H   0  0  0  0  0  0  0  0  0  0  0  0
   62.1455   33.8643   50.3860 H   0  0  0  0  0  0  0  0  0  0  0  0
   59.0480   32.3060   49.0834 H   0  0  0  0  0  0  0  0  0  0  0  0
   58.0445   33.6956   48.5179 H   0  0  0  0  0  0  0  0  0  0  0  0
   58.7422   31.1273   47.0297 H   0  0  0  0  0  0  0  0  0  0  0  0
   57.1104   31.7951   47.4699 H   0  0  0  0  0  0  0  0  0  0  0  0
   57.0807   33.5931   43.6053 H   0  0  0  0  0  0  0  0  0  0  0  0
   56.6907   30.5615   42.5383 H   0  0  0  0  0  0  0  0  0  0  0  0
   56.3402   31.5702   41.4068 H   0  0  0  0  0  0  0  0  0  0  0  0
   59.1933   31.2373   42.8915 H   0  0  0  0  0  0  0  0  0  0  0  0
   59.2778   32.3637   41.8212 H   0  0  0  0  0  0  0  0  0  0  0  0
   58.6372   34.3381   44.6361 H   0  0  0  0  0  0  0  0  0  0  0  0
   57.8863   34.7804   46.2103 H   0  0  0  0  0  0  0  0  0  0  0  0
   60.6724   33.6324   45.7084 H   0  0  0  0  0  0  0  0  0  0  0  0
   60.2192   35.2371   46.4241 H   0  0  0  0  0  0  0  0  0  0  0  0
   61.6643   31.6959   46.6382 H   0  0  0  0  0  0  0  0  0  0  0  0
   60.3904   30.4433   44.8983 H   0  0  0  0  0  0  0  0  0  0  0  0
   58.2192   22.7980   44.6244 H   0  0  0  0  0  0  0  0  0  0  0  0
  1  2  1  0
  2  3  1  0
  3  4  2  0
  4  5  1  0
  5  6  2  0
  6  7  1  0
  6  8  1  0
  8  9  1  0
  9 10  1  0
 10 11  2  0
 11 12  1  0
 12 13  2  0
 13 14  1  0
 14 15  2  0
 15 16  1  0
 16 17  2  0
 17 18  1  0
 18 19  1  0
 19 20  1  0
 20 21  1  0
 21 22  2  0
 21 23  1  0
 23 24  1  0
 24 25  1  0
 25 26  1  0
 26 27  1  0
 27 28  2  0
 27 29  1  0
 29 30  1  0
 30 31  1  0
 26 32  1  0
 32 33  1  0
 17 34  1  0
 34 35  2  0
 13 36  1  0
  8 37  2  0
 37  3  1  0
 36 10  1  0
 35 14  1  0
 33 23  1  0
 31 29  1  0
  1 38  1  0
  1 39  1  0
  1 40  1  0
  4 41  1  0
  5 42  1  0
  7 43  1  0
  9 44  1  0
  9 45  1  0
 15 46  1  0
 16 47  1  0
 18 48  1  0
 18 49  1  0
 20 50  1  0
 20 51  1  0
 24 52  1  0
 24 53  1  0
 25 54  1  0
 25 55  1  0
 29 56  1  0
 30 57  1  0
 30 58  1  0
 31 59  1  0
 31 60  1  0
 32 61  1  0
 32 62  1  0
 33 63  1  0
 33 64  1  0
 34 65  1  0
 35 66  1  0
 37 67  1  0
M  END
>  <UniqueID>  (88) 
85

>  <SMILES>  (88) 
COc1ccc(O)c(Cc2nnc(-c3ccc(CSCC(=O)N4CCN(C(=O)C5CC5)CC4)cc3)o2)c1

>  <Energy>  (88) 
363.7247503437108

>  <Genealogy>  (88) 
COc1ccc(O)c(Cc2nnc(-c3ccc(CSCC(=O)N4CCN(C(=O)C5CC5)CC4)cc3)o2)c1 (3D coordinates assigned)
COc1ccc(O)c(Cc2nnc(-c3ccc(CSCC(=O)N4CCN(C(=O)C5CC5)CC4)cc3)o2)c1 (nonaromatic ring conformer: 363.7247503437108 kcal/mol)

>  <smiles>  (88) 
COc1ccc(O)c(Cc2nnc(-c3ccc(CSCC(=O)N4CCN(C(=O)C5CC5)CC4)cc3)o2)c1

>  <score_type>  (88) 
oracle

>  <origin>  (88) 
adg

>  <m_score__min__energy>  (88) 
-10.970000000000001

>  <m_primary>  (88) 
energy

$$$$
88:0
     RDKit          3D

 37 40  0  0  0  0  0  0  0  0999 V2000
   57.6480   25.3530   46.5970 C   0  0  0  0  0  0  0  0  0  0  0  0
   57.2180   26.6570   46.0090 C   0  0  0  0  0  0  0  0  0  0  0  0
   58.0400   27.6780   45.5840 C   0  0  0  0  0  0  0  0  0  0  0  0
   57.1940   28.6710   45.1180 C   0  0  0  0  0  0  0  0  0  0  0  0
   57.6230   29.9580   44.5580 C   0  0  0  0  0  0  0  0  0  0  0  0
   58.6930   30.0330   43.8950 O   0  0  0  0  0  0  0  0  0  0  0  0
   56.8350   31.0950   44.7710 O   0  0  0  0  0  0  0  0  0  0  0  0
   57.3180   32.4260   44.6030 C   0  0  0  0  0  0  0  0  0  0  0  0
   58.3740   32.7310   45.6240 C   0  0  0  0  0  0  0  0  0  0  0  0
   58.3400   33.9370   46.3440 C   0  0  0  0  0  0  0  0  0  0  0  0
   59.3520   34.2060   47.2720 C   0  0  0  0  0  0  0  0  0  0  0  0
   59.3180   35.2870   47.9160 O   0  0  0  0  0  0  0  0  0  0  0  0
   60.3550   33.2880   47.4560 N   0  0  0  0  0  0  0  0  0  0  0  0
   60.3560   32.1340   46.7360 C   0  0  0  0  0  0  0  0  0  0  0  0
   59.3880   31.8510   45.8310 N   0  0  0  0  0  0  0  0  0  0  0  0
   61.6620   31.1280   47.0850 S   0  0  0  0  0  0  0  0  0  0  0  0
   62.2650   32.2170   48.2170 C   0  0  0  0  0  0  0  0  0  0  0  0
   63.4140   32.0780   48.9900 C   0  0  0  0  0  0  0  0  0  0  0  0
   63.7450   33.1070   49.8820 C   0  0  0  0  0  0  0  0  0  0  0  0
   62.9290   34.2470   49.9830 C   0  0  0  0  0  0  0  0  0  0  0  0
   61.7730   34.3730   49.1950 C   0  0  0  0  0  0  0  0  0  0  0  0
   61.4380   33.3390   48.2990 C   0  0  0  0  0  0  0  0  0  0  0  0
   55.8990   28.3120   45.2350 N   0  0  0  0  0  0  0  0  0  0  0  0
   55.9240   27.0820   45.7800 C   0  0  0  0  0  0  0  0  0  0  0  0
   54.7710   26.3560   46.0640 O   0  0  0  0  0  0  0  0  0  0  0  0
   57.6257   25.4206   47.6947 H   0  0  0  0  0  0  0  0  0  0  0  0
   56.9645   24.5578   46.2647 H   0  0  0  0  0  0  0  0  0  0  0  0
   58.6704   25.1203   46.2647 H   0  0  0  0  0  0  0  0  0  0  0  0
   59.1395   27.7000   45.6095 H   0  0  0  0  0  0  0  0  0  0  0  0
   57.7465   32.5318   43.5954 H   0  0  0  0  0  0  0  0  0  0  0  0
   56.4817   33.1286   44.7333 H   0  0  0  0  0  0  0  0  0  0  0  0
   57.5279   34.6607   46.1802 H   0  0  0  0  0  0  0  0  0  0  0  0
   64.0468   31.1825   48.9030 H   0  0  0  0  0  0  0  0  0  0  0  0
   64.6471   33.0222   50.5057 H   0  0  0  0  0  0  0  0  0  0  0  0
   63.1984   35.0487   50.6863 H   0  0  0  0  0  0  0  0  0  0  0  0
   61.1377   35.2673   49.2765 H   0  0  0  0  0  0  0  0  0  0  0  0
   54.1090   26.6700   46.7630 H   0  0  0  0  0  0  0  0  0  0  0  0
  1  2  1  0
  2  3  1  0
  3  4  2  0
  4  5  1  0
  5  6  2  0
  5  7  1  0
  7  8  1  0
  8  9  1  0
  9 10  2  0
 10 11  1  0
 11 12  2  0
 11 13  1  0
 13 14  1  0
 14 15  2  0
 14 16  1  0
 16 17  1  0
 17 18  2  0
 18 19  1  0
 19 20  2  0
 20 21  1  0
 21 22  2  0
  4 23  1  0
 23 24  1  0
 24 25  1  0
 24  2  2  0
 15  9  1  0
 22 17  1  0
 22 13  1  0
  1 26  1  0
  1 27  1  0
  1 28  1  0
  3 29  1  0
  8 30  1  0
  8 31  1  0
 10 32  1  0
 18 33  1  0
 19 34  1  0
 20 35  1  0
 21 36  1  0
 25 37  1  0
M  CHG  1  23  -1
M  END
>  <UniqueID>  (89) 
86

>  <SMILES>  (89) 
Cc1cc(C(=O)OCc2cc(=O)n3c(n2)sc2ccccc23)[n-]c1O

>  <Energy>  (89) 
106.17387480143279

>  <Genealogy>  (89) 
Cc1cc(C(=O)OCc2cc(=O)n3c(n2)sc2ccccc23)[n-]c1O (protonated)
Cc1cc(C(=O)OCc2cc(=O)n3c(n2)sc2ccccc23)[n-]c1O (3D coordinates assigned)
Cc1cc(C(=O)OCc2cc(=O)n3c(n2)sc2ccccc23)[n-]c1O (optimized conformer: 106.17387480143279 kcal/mol)

>  <smiles>  (89) 
Cc1cc(C(=O)OCc2cc(=O)n3c(n2)sc2ccccc23)[nH]c1O

>  <score_type>  (89) 
oracle

>  <origin>  (89) 
adg

>  <m_score__min__energy>  (89) 
-11.26

>  <m_primary>  (89) 
energy

$$$$
89:0
     RDKit          3D

 52 55  0  0  0  0  0  0  0  0999 V2000
   59.7220   29.0330   45.7230 C   0  0  0  0  0  0  0  0  0  0  0  0
   58.4600   29.1540   45.2830 C   0  0  0  0  0  0  0  0  0  0  0  0
   57.5930   28.1250   44.9060 C   0  0  0  0  0  0  0  0  0  0  0  0
   57.8750   26.8110   44.8420 C   0  0  0  0  0  0  0  0  0  0  0  0
   57.2740   25.7910   45.7250 C   0  0  0  0  0  0  0  0  0  0  0  0
   57.9840   24.7740   46.2480 N   0  0  0  0  0  0  0  0  0  0  0  0
   57.0880   24.1270   47.0220 C   0  0  0  0  0  0  0  0  0  0  0  0
   57.3830   23.0940   47.6810 O   0  0  0  0  0  0  0  0  0  0  0  0
   55.8560   24.6770   47.0450 N   0  0  0  0  0  0  0  0  0  0  0  0
   55.9880   25.7360   46.2290 C   0  0  0  0  0  0  0  0  0  0  0  0
   54.9710   26.6560   45.9930 O   0  0  0  0  0  0  0  0  0  0  0  0
   56.3950   28.6530   44.5680 N   0  0  0  0  0  0  0  0  0  0  0  0
   56.5530   29.9780   44.7560 C   0  0  0  0  0  0  0  0  0  0  0  0
   55.6340   30.8120   44.5320 O   0  0  0  0  0  0  0  0  0  0  0  0
   57.7870   30.3240   45.1820 N   0  0  0  0  0  0  0  0  0  0  0  0
   58.2520   31.6570   45.4570 C   0  0  0  0  0  0  0  0  0  0  0  0
   57.9580   32.7080   44.5790 C   0  0  0  0  0  0  0  0  0  0  0  0
   58.4010   34.0030   44.8540 C   0  0  0  0  0  0  0  0  0  0  0  0
   59.1450   34.2730   46.0140 C   0  0  0  0  0  0  0  0  0  0  0  0
   59.6390   35.6760   46.2560 C   0  0  0  0  0  0  0  0  0  0  0  0
   59.4080   33.2220   46.9270 C   0  0  0  0  0  0  0  0  0  0  0  0
   60.1470   33.4490   48.1870 C   0  0  0  0  0  0  0  0  0  0  0  0
   61.2700   34.0200   48.1440 O   0  0  0  0  0  0  0  0  0  0  0  0
   59.6150   33.0090   49.4480 N   0  0  0  0  0  0  0  0  0  0  0  0
   59.0010   31.6750   49.5310 C   0  0  0  0  0  0  0  0  0  0  0  0
   58.4760   31.3950   50.9380 C   0  0  0  0  0  0  0  0  0  0  0  0
   57.8540   32.6200   51.4620 N   0  0  0  0  0  0  0  0  0  0  0  0
   57.0710   32.3170   52.6700 C   0  0  0  0  0  0  0  0  0  0  0  0
   58.8830   33.6390   51.7610 C   0  0  0  0  0  0  0  0  0  0  0  0
   59.9770   33.7380   50.6710 C   0  0  0  0  0  0  0  0  0  0  0  0
   58.9720   31.9210   46.6300 C   0  0  0  0  0  0  0  0  0  0  0  0
   60.3003   29.9302   45.9886 H   0  0  0  0  0  0  0  0  0  0  0  0
   60.1782   28.0366   45.8180 H   0  0  0  0  0  0  0  0  0  0  0  0
   58.5986   26.4753   44.0845 H   0  0  0  0  0  0  0  0  0  0  0  0
   55.1430   27.4840   45.4310 H   0  0  0  0  0  0  0  0  0  0  0  0
   57.3746   32.5118   43.6673 H   0  0  0  0  0  0  0  0  0  0  0  0
   58.1651   34.8194   44.1556 H   0  0  0  0  0  0  0  0  0  0  0  0
   59.7039   35.8603   47.3385 H   0  0  0  0  0  0  0  0  0  0  0  0
   60.6340   35.7976   45.8031 H   0  0  0  0  0  0  0  0  0  0  0  0
   58.9397   36.3942   45.8031 H   0  0  0  0  0  0  0  0  0  0  0  0
   58.1648   31.6200   48.8185 H   0  0  0  0  0  0  0  0  0  0  0  0
   59.7669   30.9234   49.2890 H   0  0  0  0  0  0  0  0  0  0  0  0
   57.7297   30.5878   50.9007 H   0  0  0  0  0  0  0  0  0  0  0  0
   59.3045   31.0861   51.5924 H   0  0  0  0  0  0  0  0  0  0  0  0
   57.6701   32.5488   53.5630 H   0  0  0  0  0  0  0  0  0  0  0  0
   56.1546   32.9254   52.6751 H   0  0  0  0  0  0  0  0  0  0  0  0
   56.8029   31.2502   52.6751 H   0  0  0  0  0  0  0  0  0  0  0  0
   58.3897   34.6181   51.8513 H   0  0  0  0  0  0  0  0  0  0  0  0
   59.3789   33.3386   52.6958 H   0  0  0  0  0  0  0  0  0  0  0  0
   60.1297   34.7977   50.4187 H   0  0  0  0  0  0  0  0  0  0  0  0
   60.8944   33.2839   51.0736 H   0  0  0  0  0  0  0  0  0  0  0  0
   59.1981   31.0996   47.3258 H   0  0  0  0  0  0  0  0  0  0  0  0
  1  2  2  0
  2  3  1  0
  3  4  2  3
  4  5  1  0
  5  6  1  0
  6  7  1  0
  7  8  2  0
  7  9  1  0
  9 10  1  0
 10 11  1  0
  3 12  1  0
 12 13  1  0
 13 14  2  0
 13 15  1  0
 15 16  1  0
 16 17  2  0
 17 18  1  0
 18 19  2  0
 19 20  1  0
 19 21  1  0
 21 22  1  0
 22 23  2  0
 22 24  1  0
 24 25  1  0
 25 26  1  0
 26 27  1  0
 27 28  1  0
 27 29  1  0
 29 30  1  0
 21 31  2  0
 15  2  1  0
 31 16  1  0
 10  5  2  0
 30 24  1  0
  1 32  1  0
  1 33  1  0
  4 34  1  0
 11 35  1  0
 17 36  1  0
 18 37  1  0
 20 38  1  0
 20 39  1  0
 20 40  1  0
 25 41  1  0
 25 42  1  0
 26 43  1  0
 26 44  1  0
 28 45  1  0
 28 46  1  0
 28 47  1  0
 29 48  1  0
 29 49  1  0
 30 50  1  0
 30 51  1  0
 31 52  1  0
M  CHG  3   6  -1   9  -1  12  -1
M  END
>  <UniqueID>  (90) 
87

>  <SMILES>  (90) 
C=c1c(=Cc2[n-]c(=O)[n-]c2O)[n-]c(=O)n1-c1ccc(C)c(C(=O)N2CCN(C)CC2)c1

>  <Energy>  (90) 
139.68280981955382

>  <Genealogy>  (90) 
C=c1c(=Cc2[n-]c(=O)[n-]c2O)[n-]c(=O)n1-c1ccc(C)c(C(=O)N2CCN(C)CC2)c1 (protonated)
C=c1c(=Cc2[n-]c(=O)[n-]c2O)[n-]c(=O)n1-c1ccc(C)c(C(=O)N2CCN(C)CC2)c1 (3D coordinates assigned)
C=c1c(=Cc2[n-]c(=O)[n-]c2O)[n-]c(=O)n1-c1ccc(C)c(C(=O)N2CCN(C)CC2)c1 (nonaromatic ring conformer: 139.68280981955382 kcal/mol)

>  <smiles>  (90) 
C=c1c(=Cc2[nH]c(=O)[nH]c2O)[nH]c(=O)n1-c1ccc(C)c(C(=O)N2CCN(C)CC2)c1

>  <score_type>  (90) 
oracle

>  <origin>  (90) 
adg

>  <m_score__min__energy>  (90) 
-16.379999999999999

>  <m_primary>  (90) 
energy

$$$$
90:0
     RDKit          3D

 49 51  0  0  0  0  0  0  0  0999 V2000
   56.2700   29.4400   42.4780 C   0  0  0  0  0  0  0  0  0  0  0  0
   57.0170   29.0720   43.6890 N   0  0  0  0  0  0  0  0  0  0  0  0
   57.8140   27.9580   43.6740 C   0  0  0  0  0  0  0  0  0  0  0  0
   58.5220   27.5760   44.8140 C   0  0  0  0  0  0  0  0  0  0  0  0
   58.4140   28.3240   45.9880 C   0  0  0  0  0  0  0  0  0  0  0  0
   59.1360   27.8980   47.1160 O   0  0  0  0  0  0  0  0  0  0  0  0
   60.2410   28.5770   47.7120 C   0  0  0  0  0  0  0  0  0  0  0  0
   60.1680   30.0580   47.4610 C   0  0  0  0  0  0  0  0  0  0  0  0
   60.5600   30.5080   46.3520 O   0  0  0  0  0  0  0  0  0  0  0  0
   59.6820   30.9850   48.4430 N   0  0  0  0  0  0  0  0  0  0  0  0
   60.4390   31.5830   49.5390 C   0  0  0  0  0  0  0  0  0  0  0  0
   61.6960   32.2730   49.0450 C   0  0  0  0  0  0  0  0  0  0  0  0
   62.9320   31.6460   49.2840 C   0  0  0  0  0  0  0  0  0  0  0  0
   64.1230   32.2260   48.8480 C   0  0  0  0  0  0  0  0  0  0  0  0
   64.1020   33.4440   48.1720 C   0  0  0  0  0  0  0  0  0  0  0  0
   62.8880   34.0790   47.9140 C   0  0  0  0  0  0  0  0  0  0  0  0
   61.6720   33.5020   48.3250 C   0  0  0  0  0  0  0  0  0  0  0  0
   60.3810   34.1840   47.9130 C   0  0  0  0  0  0  0  0  0  0  0  0
   59.5380   33.2910   47.0850 N   0  0  0  0  0  0  0  0  0  0  0  0
   59.6780   33.5390   45.6290 C   0  0  0  0  0  0  0  0  0  0  0  0
   58.2950   33.5110   45.0870 C   0  0  0  0  0  0  0  0  0  0  0  0
   57.4130   33.4650   46.0650 C   0  0  0  0  0  0  0  0  0  0  0  0
   58.0980   33.4590   47.3820 C   0  0  0  0  0  0  0  0  0  0  0  0
   57.5980   29.4670   45.9920 C   0  0  0  0  0  0  0  0  0  0  0  0
   56.8940   29.8200   44.8350 C   0  0  0  0  0  0  0  0  0  0  0  0
   56.1500   30.8400   44.8610 O   0  0  0  0  0  0  0  0  0  0  0  0
   55.3171   29.9095   42.7635 H   0  0  0  0  0  0  0  0  0  0  0  0
   56.8638   30.1487   41.8821 H   0  0  0  0  0  0  0  0  0  0  0  0
   56.0700   28.5373   41.8821 H   0  0  0  0  0  0  0  0  0  0  0  0
   57.8966   27.3592   42.7550 H   0  0  0  0  0  0  0  0  0  0  0  0
   59.1660   26.6846   44.7878 H   0  0  0  0  0  0  0  0  0  0  0  0
   60.2307   28.3959   48.7969 H   0  0  0  0  0  0  0  0  0  0  0  0
   61.1691   28.1928   47.2637 H   0  0  0  0  0  0  0  0  0  0  0  0
   59.8038   32.3225   50.0485 H   0  0  0  0  0  0  0  0  0  0  0  0
   60.7385   30.7783   50.2265 H   0  0  0  0  0  0  0  0  0  0  0  0
   62.9597   30.6866   49.8213 H   0  0  0  0  0  0  0  0  0  0  0  0
   65.0813   31.7206   49.0383 H   0  0  0  0  0  0  0  0  0  0  0  0
   65.0444   33.9052   47.8415 H   0  0  0  0  0  0  0  0  0  0  0  0
   62.8805   35.0423   47.3830 H   0  0  0  0  0  0  0  0  0  0  0  0
   59.8218   34.4673   48.8169 H   0  0  0  0  0  0  0  0  0  0  0  0
   60.6343   35.0724   47.3159 H   0  0  0  0  0  0  0  0  0  0  0  0
   59.7930   32.2930   47.2770 H   0  0  0  0  0  0  0  0  0  0  0  0
   60.1417   34.5201   45.4489 H   0  0  0  0  0  0  0  0  0  0  0  0
   60.3206   32.7876   45.1469 H   0  0  0  0  0  0  0  0  0  0  0  0
   58.0421   33.5265   44.0166 H   0  0  0  0  0  0  0  0  0  0  0  0
   56.3223   33.4352   45.9251 H   0  0  0  0  0  0  0  0  0  0  0  0
   57.9236   34.4086   47.9091 H   0  0  0  0  0  0  0  0  0  0  0  0
   57.7214   32.6549   48.0313 H   0  0  0  0  0  0  0  0  0  0  0  0
   57.5126   30.0819   46.9001 H   0  0  0  0  0  0  0  0  0  0  0  0
  1  2  1  0
  2  3  1  0
  3  4  2  0
  4  5  1  0
  5  6  1  0
  6  7  1  0
  7  8  1  0
  8  9  2  0
  8 10  1  0
 10 11  1  0
 11 12  1  0
 12 13  2  0
 13 14  1  0
 14 15  2  0
 15 16  1  0
 16 17  2  0
 17 18  1  0
 18 19  1  0
 19 20  1  0
 20 21  1  0
 21 22  2  0
 22 23  1  0
  5 24  2  0
 24 25  1  0
 25 26  2  0
 25  2  1  0
 17 12  1  0
 23 19  1  0
  1 27  1  0
  1 28  1  0
  1 29  1  0
  3 30  1  0
  4 31  1  0
  7 32  1  0
  7 33  1  0
 11 34  1  0
 11 35  1  0
 13 36  1  0
 14 37  1  0
 15 38  1  0
 16 39  1  0
 18 40  1  0
 18 41  1  0
 19 42  1  0
 20 43  1  0
 20 44  1  0
 21 45  1  0
 22 46  1  0
 23 47  1  0
 23 48  1  0
 24 49  1  0
M  CHG  2  10  -1  19   1
M  END
>  <UniqueID>  (91) 
88

>  <SMILES>  (91) 
Cn1ccc(OCC(=O)[N-]Cc2ccccc2C[NH+]2CC=CC2)cc1=O

>  <Energy>  (91) 
59.806486797605935

>  <Genealogy>  (91) 
Cn1ccc(OCC(=O)[N-]Cc2ccccc2C[NH+]2CC=CC2)cc1=O (protonated)
Cn1ccc(OCC(=O)[N-]Cc2ccccc2C[NH+]2CC=CC2)cc1=O (3D coordinates assigned)
Cn1ccc(OCC(=O)[N-]Cc2ccccc2C[NH+]2CC=CC2)cc1=O (nonaromatic ring conformer: 59.806486797605935 kcal/mol)

>  <smiles>  (91) 
Cn1ccc(OCC(=O)NCc2ccccc2CN2CC=CC2)cc1=O

>  <score_type>  (91) 
oracle

>  <origin>  (91) 
adg

>  <m_score__min__energy>  (91) 
-6.8499999999999996

>  <m_primary>  (91) 
energy

$$$$
91:0
     RDKit          3D

 54 56  0  0  0  0  0  0  0  0999 V2000
   56.4240   29.7930   43.1740 C   0  0  0  0  0  0  0  0  0  0  0  0
   56.1880   30.4370   44.4220 O   0  0  0  0  0  0  0  0  0  0  0  0
   57.0970   31.2960   45.0660 C   0  0  0  0  0  0  0  0  0  0  0  0
   57.0220   32.6960   44.9200 C   0  0  0  0  0  0  0  0  0  0  0  0
   57.9160   33.5310   45.5900 C   0  0  0  0  0  0  0  0  0  0  0  0
   58.9000   32.9860   46.4150 C   0  0  0  0  0  0  0  0  0  0  0  0
   60.0370   34.0410   47.2590 S   0  0  0  0  0  0  0  0  0  0  0  0
   59.2840   34.8920   48.2420 O   0  0  0  0  0  0  0  0  0  0  0  0
   60.6990   34.9540   46.2630 O   0  0  0  0  0  0  0  0  0  0  0  0
   61.2610   33.1240   48.1090 N   0  0  0  0  0  0  0  0  0  0  0  0
   62.1780   32.4360   47.1730 C   0  0  0  0  0  0  0  0  0  0  0  0
   63.5560   33.1160   47.1070 C   0  0  0  0  0  0  0  0  0  0  0  0
   64.2080   33.2000   48.3680 O   0  0  0  0  0  0  0  0  0  0  0  0
   63.3180   33.3640   49.4630 C   0  0  0  0  0  0  0  0  0  0  0  0
   61.9630   33.9790   49.0850 C   0  0  0  0  0  0  0  0  0  0  0  0
   58.9860   31.5980   46.5650 C   0  0  0  0  0  0  0  0  0  0  0  0
   58.0940   30.7440   45.8980 C   0  0  0  0  0  0  0  0  0  0  0  0
   58.2040   29.2840   46.1060 C   0  0  0  0  0  0  0  0  0  0  0  0
   59.3140   28.7610   46.3940 O   0  0  0  0  0  0  0  0  0  0  0  0
   57.0360   28.4630   45.9830 N   0  0  0  0  0  0  0  0  0  0  0  0
   57.0500   27.1380   45.3860 C   0  0  0  0  0  0  0  0  0  0  0  0
   56.1430   26.2380   46.1670 C   0  0  0  0  0  0  0  0  0  0  0  0
   56.5900   25.6390   47.1780 O   0  0  0  0  0  0  0  0  0  0  0  0
   54.7630   26.0850   45.8260 N   0  0  0  0  0  0  0  0  0  0  0  0
   54.0980   24.8060   45.6230 C   0  0  0  0  0  0  0  0  0  0  0  0
   55.0970   23.8020   45.1240 C   0  0  0  0  0  0  0  0  0  0  0  0
   55.3900   23.7170   43.7500 C   0  0  0  0  0  0  0  0  0  0  0  0
   56.3490   22.8100   43.2870 C   0  0  0  0  0  0  0  0  0  0  0  0
   57.0270   21.9870   44.1920 C   0  0  0  0  0  0  0  0  0  0  0  0
   56.7450   22.0690   45.5630 C   0  0  0  0  0  0  0  0  0  0  0  0
   55.7890   22.9770   46.0290 C   0  0  0  0  0  0  0  0  0  0  0  0
   56.7975   28.7738   43.3522 H   0  0  0  0  0  0  0  0  0  0  0  0
   55.4851   29.7448   42.6029 H   0  0  0  0  0  0  0  0  0  0  0  0
   57.1717   30.3629   42.6029 H   0  0  0  0  0  0  0  0  0  0  0  0
   56.2501   33.1347   44.2706 H   0  0  0  0  0  0  0  0  0  0  0  0
   57.8450   34.6219   45.4676 H   0  0  0  0  0  0  0  0  0  0  0  0
   62.3113   31.3965   47.5071 H   0  0  0  0  0  0  0  0  0  0  0  0
   61.7311   32.4788   46.1688 H   0  0  0  0  0  0  0  0  0  0  0  0
   64.1958   32.5405   46.4219 H   0  0  0  0  0  0  0  0  0  0  0  0
   63.3921   34.1463   46.7582 H   0  0  0  0  0  0  0  0  0  0  0  0
   63.1357   32.3758   49.9105 H   0  0  0  0  0  0  0  0  0  0  0  0
   63.8001   34.0649   50.1604 H   0  0  0  0  0  0  0  0  0  0  0  0
   61.3453   34.0776   49.9898 H   0  0  0  0  0  0  0  0  0  0  0  0
   62.1348   34.9671   48.6331 H   0  0  0  0  0  0  0  0  0  0  0  0
   59.7635   31.1698   47.2147 H   0  0  0  0  0  0  0  0  0  0  0  0
   56.7003   27.1996   44.3449 H   0  0  0  0  0  0  0  0  0  0  0  0
   58.0737   26.7358   45.4015 H   0  0  0  0  0  0  0  0  0  0  0  0
   53.6715   24.4581   46.5754 H   0  0  0  0  0  0  0  0  0  0  0  0
   53.2916   24.9227   44.8840 H   0  0  0  0  0  0  0  0  0  0  0  0
   54.8622   24.3671   43.0367 H   0  0  0  0  0  0  0  0  0  0  0  0
   56.5698   22.7441   42.2114 H   0  0  0  0  0  0  0  0  0  0  0  0
   57.7821   21.2748   43.8279 H   0  0  0  0  0  0  0  0  0  0  0  0
   57.2765   21.4182   46.2730 H   0  0  0  0  0  0  0  0  0  0  0  0
   55.5776   23.0463   47.1063 H   0  0  0  0  0  0  0  0  0  0  0  0
  1  2  1  0
  2  3  1  0
  3  4  2  0
  4  5  1  0
  5  6  2  0
  6  7  1  0
  7  8  2  0
  7  9  2  0
  7 10  1  0
 10 11  1  0
 11 12  1  0
 12 13  1  0
 13 14  1  0
 14 15  1  0
  6 16  1  0
 16 17  2  0
 17 18  1  0
 18 19  2  0
 18 20  1  0
 20 21  1  0
 21 22  1  0
 22 23  2  0
 22 24  1  0
 24 25  1  0
 25 26  1  0
 26 27  2  0
 27 28  1  0
 28 29  2  0
 29 30  1  0
 30 31  2  0
 17  3  1  0
 31 26  1  0
 15 10  1  0
  1 32  1  0
  1 33  1  0
  1 34  1  0
  4 35  1  0
  5 36  1  0
 11 37  1  0
 11 38  1  0
 12 39  1  0
 12 40  1  0
 14 41  1  0
 14 42  1  0
 15 43  1  0
 15 44  1  0
 16 45  1  0
 21 46  1  0
 21 47  1  0
 25 48  1  0
 25 49  1  0
 27 50  1  0
 28 51  1  0
 29 52  1  0
 30 53  1  0
 31 54  1  0
M  CHG  2  20  -1  24  -1
M  END
>  <UniqueID>  (92) 
89

>  <SMILES>  (92) 
COc1ccc(S(=O)(=O)N2CCOCC2)cc1C(=O)[N-]CC(=O)[N-]Cc1ccccc1

>  <Energy>  (92) 
62.97649624064962

>  <Genealogy>  (92) 
COc1ccc(S(=O)(=O)N2CCOCC2)cc1C(=O)[N-]CC(=O)[N-]Cc1ccccc1 (protonated)
COc1ccc(S(=O)(=O)N2CCOCC2)cc1C(=O)[N-]CC(=O)[N-]Cc1ccccc1 (3D coordinates assigned)
COc1ccc(S(=O)(=O)N2CCOCC2)cc1C(=O)[N-]CC(=O)[N-]Cc1ccccc1 (nonaromatic ring conformer: 62.97649624064962 kcal/mol)

>  <smiles>  (92) 
COc1ccc(S(=O)(=O)N2CCOCC2)cc1C(=O)NCC(=O)NCc1ccccc1

>  <score_type>  (92) 
oracle

>  <origin>  (92) 
adg

>  <m_score__min__energy>  (92) 
-12.82

>  <m_primary>  (92) 
energy

$$$$
