0:0
     RDKit          3D

 54 57  0  0  0  0  0  0  0  0999 V2000
   57.4400   24.7880   43.9110 C   0  0  0  0  0  0  0  0  0  0  0  0
   57.4330   24.4990   45.3490 C   0  0  0  0  0  0  0  0  0  0  0  0
   57.3630   23.1850   45.7860 C   0  0  0  0  0  0  0  0  0  0  0  0
   57.3490   22.8910   47.1350 C   0  0  0  0  0  0  0  0  0  0  0  0
   57.2850   21.7050   47.5730 O   0  0  0  0  0  0  0  0  0  0  0  0
   57.4070   23.9330   47.9810 N   0  0  0  0  0  0  0  0  0  0  0  0
   57.4740   25.1950   47.5840 N   0  0  0  0  0  0  0  0  0  0  0  0
   57.4900   25.5110   46.2810 C   0  0  0  0  0  0  0  0  0  0  0  0
   57.5610   26.9230   45.9370 C   0  0  0  0  0  0  0  0  0  0  0  0
   58.7150   27.6660   45.9490 C   0  0  0  0  0  0  0  0  0  0  0  0
   58.6850   29.0100   45.6000 C   0  0  0  0  0  0  0  0  0  0  0  0
   57.5500   29.6770   45.2300 C   0  0  0  0  0  0  0  0  0  0  0  0
   57.4340   31.0540   44.8550 C   0  0  0  0  0  0  0  0  0  0  0  0
   56.9880   31.2630   43.6560 O   0  0  0  0  0  0  0  0  0  0  0  0
   57.7210   32.2220   45.5600 N   0  0  0  0  0  0  0  0  0  0  0  0
   57.4720   33.4860   44.8230 C   0  0  0  0  0  0  0  0  0  0  0  0
   58.7670   34.2630   44.8780 C   0  0  0  0  0  0  0  0  0  0  0  0
   59.0130   34.6370   46.2540 N   0  0  0  0  0  0  0  0  0  0  0  0
   60.3880   34.8490   46.5710 C   0  0  0  0  0  0  0  0  0  0  0  0
   60.8720   33.6810   47.3540 C   0  0  0  0  0  0  0  0  0  0  0  0
   61.3660   32.5390   46.7580 C   0  0  0  0  0  0  0  0  0  0  0  0
   61.7890   31.5150   47.5830 C   0  0  0  0  0  0  0  0  0  0  0  0
   61.7290   31.6080   48.9720 C   0  0  0  0  0  0  0  0  0  0  0  0
   61.2310   32.7600   49.5600 C   0  0  0  0  0  0  0  0  0  0  0  0
   60.8140   33.7700   48.7490 C   0  0  0  0  0  0  0  0  0  0  0  0
   60.3260   34.8970   49.3320 F   0  0  0  0  0  0  0  0  0  0  0  0
   58.2530   33.8870   47.1910 C   0  0  0  0  0  0  0  0  0  0  0  0
   58.2200   32.3800   46.8920 C   0  0  0  0  0  0  0  0  0  0  0  0
   56.3760   28.9110   45.2220 C   0  0  0  0  0  0  0  0  0  0  0  0
   55.1420   29.4260   44.8740 O   0  0  0  0  0  0  0  0  0  0  0  0
   56.3980   27.5600   45.5720 C   0  0  0  0  0  0  0  0  0  0  0  0
   57.4664   25.8767   43.7559 H   0  0  0  0  0  0  0  0  0  0  0  0
   58.3273   24.3303   43.4493 H   0  0  0  0  0  0  0  0  0  0  0  0
   56.5316   24.3738   43.4493 H   0  0  0  0  0  0  0  0  0  0  0  0
   57.3182   22.3684   45.0504 H   0  0  0  0  0  0  0  0  0  0  0  0
   57.4000   23.7740   49.0150 H   0  0  0  0  0  0  0  0  0  0  0  0
   59.6669   27.1954   46.2360 H   0  0  0  0  0  0  0  0  0  0  0  0
   59.6307   29.5714   45.6226 H   0  0  0  0  0  0  0  0  0  0  0  0
   57.1987   33.2722   43.7792 H   0  0  0  0  0  0  0  0  0  0  0  0
   56.6420   34.0546   45.2678 H   0  0  0  0  0  0  0  0  0  0  0  0
   59.5927   33.6367   44.5092 H   0  0  0  0  0  0  0  0  0  0  0  0
   58.6976   35.1614   44.2471 H   0  0  0  0  0  0  0  0  0  0  0  0
   60.9730   34.9438   45.6443 H   0  0  0  0  0  0  0  0  0  0  0  0
   60.5038   35.7726   47.1572 H   0  0  0  0  0  0  0  0  0  0  0  0
   61.4211   32.4471   45.6632 H   0  0  0  0  0  0  0  0  0  0  0  0
   62.1864   30.5956   47.1283 H   0  0  0  0  0  0  0  0  0  0  0  0
   62.0748   30.7722   49.5980 H   0  0  0  0  0  0  0  0  0  0  0  0
   61.1743   32.8554   50.6544 H   0  0  0  0  0  0  0  0  0  0  0  0
   58.6899   34.0337   48.1898 H   0  0  0  0  0  0  0  0  0  0  0  0
   57.2166   34.2504   47.1297 H   0  0  0  0  0  0  0  0  0  0  0  0
   59.2335   31.9590   46.9669 H   0  0  0  0  0  0  0  0  0  0  0  0
   57.5782   31.8534   47.6137 H   0  0  0  0  0  0  0  0  0  0  0  0
   55.1270   30.3050   44.3750 H   0  0  0  0  0  0  0  0  0  0  0  0
   55.4583   26.9884   45.5554 H   0  0  0  0  0  0  0  0  0  0  0  0
  1  2  1  0
  2  3  2  0
  3  4  1  0
  4  5  2  0
  4  6  1  0
  6  7  1  0
  7  8  2  0
  8  9  1  0
  9 10  2  0
 10 11  1  0
 11 12  2  0
 12 13  1  0
 13 14  2  0
 13 15  1  0
 15 16  1  0
 16 17  1  0
 17 18  1  0
 18 19  1  0
 19 20  1  0
 20 21  2  0
 21 22  1  0
 22 23  2  0
 23 24  1  0
 24 25  2  0
 25 26  1  0
 18 27  1  0
 27 28  1  0
 12 29  1  0
 29 30  1  0
 29 31  2  0
  8  2  1  0
 31  9  1  0
 28 15  1  0
 25 20  1  0
  1 32  1  0
  1 33  1  0
  1 34  1  0
  3 35  1  0
  6 36  1  0
 10 37  1  0
 11 38  1  0
 16 39  1  0
 16 40  1  0
 17 41  1  0
 17 42  1  0
 19 43  1  0
 19 44  1  0
 21 45  1  0
 22 46  1  0
 23 47  1  0
 24 48  1  0
 27 49  1  0
 27 50  1  0
 28 51  1  0
 28 52  1  0
 30 53  1  0
 31 54  1  0
M  END
>  <smiles>  (1) 
Cc1cc(=O)[nH]nc1-c1ccc(C(=O)N2CCN(Cc3ccccc3F)CC2)c(O)c1

>  <score_type>  (1) 
oracle

>  <origin>  (1) 
adg

>  <m_score__min__energy>  (1) 
-9.9900000000000002

>  <m_primary>  (1) 
energy

$$$$
1:0
     RDKit          3D

 49 52  0  0  0  0  0  0  0  0999 V2000
   59.5810   26.0220   46.7330 H   0  0  0  0  0  0  0  0  0  0  0  0
   58.7130   25.7670   47.1870 O   0  0  0  0  0  0  0  0  0  0  0  0
   57.4950   26.2090   46.6870 C   0  0  0  0  0  0  0  0  0  0  0  0
   56.3530   25.5100   46.7780 N   0  0  0  0  0  0  0  0  0  0  0  0
   55.4740   26.2940   46.1170 C   0  0  0  0  0  0  0  0  0  0  0  0
   54.2690   25.9730   45.9520 O   0  0  0  0  0  0  0  0  0  0  0  0
   55.9940   27.4380   45.6210 N   0  0  0  0  0  0  0  0  0  0  0  0
   57.2800   27.3900   46.0080 C   0  0  0  0  0  0  0  0  0  0  0  0
   58.2890   28.3910   45.6040 C   0  0  0  0  0  0  0  0  0  0  0  0
   59.2754   28.0164   45.2930 H   0  0  0  0  0  0  0  0  0  0  0  0
   58.0980   29.7400   45.5850 C   0  0  0  0  0  0  0  0  0  0  0  0
   58.5390   30.5280   46.6790 C   0  0  0  0  0  0  0  0  0  0  0  0
   59.0646   30.0389   47.5124 H   0  0  0  0  0  0  0  0  0  0  0  0
   58.3240   31.9120   46.7280 C   0  0  0  0  0  0  0  0  0  0  0  0
   58.7690   32.6920   47.9050 C   0  0  0  0  0  0  0  0  0  0  0  0
   58.0380   32.7220   48.9320 O   0  0  0  0  0  0  0  0  0  0  0  0
   60.0200   33.4080   47.9040 N   0  0  0  0  0  0  0  0  0  0  0  0
   60.7640   33.5470   49.1670 C   0  0  0  0  0  0  0  0  0  0  0  0
   60.1357   34.0821   49.8943 H   0  0  0  0  0  0  0  0  0  0  0  0
   61.0153   32.5397   49.5307 H   0  0  0  0  0  0  0  0  0  0  0  0
   62.0730   34.3270   48.9700 C   0  0  0  0  0  0  0  0  0  0  0  0
   61.8438   35.3983   48.8714 H   0  0  0  0  0  0  0  0  0  0  0  0
   62.7223   34.1545   49.8410 H   0  0  0  0  0  0  0  0  0  0  0  0
   62.8060   33.8480   47.7030 C   0  0  0  0  0  0  0  0  0  0  0  0
   63.6931   34.4866   47.5791 H   0  0  0  0  0  0  0  0  0  0  0  0
   63.1980   32.4800   47.8510 O   0  0  0  0  0  0  0  0  0  0  0  0
   63.7620   31.9570   49.0210 C   0  0  0  0  0  0  0  0  0  0  0  0
   63.0750   31.0700   49.7980 N   0  0  0  0  0  0  0  0  0  0  0  0
   63.6250   30.5600   50.9330 C   0  0  0  0  0  0  0  0  0  0  0  0
   63.0598   29.8418   51.5452 H   0  0  0  0  0  0  0  0  0  0  0  0
   64.9100   30.9510   51.3190 C   0  0  0  0  0  0  0  0  0  0  0  0
   65.3695   30.5486   52.2338 H   0  0  0  0  0  0  0  0  0  0  0  0
   65.5970   31.8640   50.5170 C   0  0  0  0  0  0  0  0  0  0  0  0
   66.6079   32.1933   50.7993 H   0  0  0  0  0  0  0  0  0  0  0  0
   65.0150   32.3460   49.3860 N   0  0  0  0  0  0  0  0  0  0  0  0
   61.9280   33.9900   46.4350 C   0  0  0  0  0  0  0  0  0  0  0  0
   62.2891   34.8543   45.8583 H   0  0  0  0  0  0  0  0  0  0  0  0
   62.0152   33.0455   45.8779 H   0  0  0  0  0  0  0  0  0  0  0  0
   60.4330   34.1970   46.7340 C   0  0  0  0  0  0  0  0  0  0  0  0
   60.2497   35.2628   46.9349 H   0  0  0  0  0  0  0  0  0  0  0  0
   59.8500   33.8658   45.8620 H   0  0  0  0  0  0  0  0  0  0  0  0
   57.6810   32.5430   45.6620 C   0  0  0  0  0  0  0  0  0  0  0  0
   57.5394   33.6337   45.6774 H   0  0  0  0  0  0  0  0  0  0  0  0
   57.2180   31.8010   44.5800 C   0  0  0  0  0  0  0  0  0  0  0  0
   56.6923   32.3134   43.7608 H   0  0  0  0  0  0  0  0  0  0  0  0
   57.4090   30.4050   44.5120 C   0  0  0  0  0  0  0  0  0  0  0  0
   56.9530   29.7770   43.4080 C   0  0  0  0  0  0  0  0  0  0  0  0
   57.0760   28.6889   43.3038 H   0  0  0  0  0  0  0  0  0  0  0  0
   56.4583   30.3532   42.6123 H   0  0  0  0  0  0  0  0  0  0  0  0
  1  2  1  0
  2  3  1  0
  3  4  1  0
  4  5  1  0
  5  6  2  0
  5  7  1  0
  7  8  1  0
  8  9  1  0
  9 10  1  0
  9 11  2  0
 11 12  1  0
 12 13  1  0
 12 14  2  0
 14 15  1  0
 15 16  2  0
 15 17  1  0
 17 18  1  0
 18 19  1  0
 18 20  1  0
 18 21  1  0
 21 22  1  0
 21 23  1  0
 21 24  1  0
 24 25  1  0
 24 26  1  0
 26 27  1  0
 27 28  2  0
 28 29  1  0
 29 30  1  0
 29 31  2  0
 31 32  1  0
 31 33  1  0
 33 34  1  0
 33 35  2  0
 24 36  1  0
 36 37  1  0
 36 38  1  0
 36 39  1  0
 39 40  1  0
 39 41  1  0
 14 42  1  0
 42 43  1  0
 42 44  2  0
 44 45  1  0
 44 46  1  0
 46 47  2  0
 47 48  1  0
 47 49  1  0
  8  3  2  0
 46 11  1  0
 39 17  1  0
 35 27  1  0
M  CHG  2   4  -1   7  -1
M  END
>  <UniqueID>  (2) 
1

>  <SMILES>  (2) 
C=c1ccc(C(=O)N2CCC(Oc3ncccn3)CC2)c/c1=C\c1[n-]c(=O)[n-]c1O

>  <Energy>  (2) 
104.85000070839216

>  <Genealogy>  (2) 
C=c1ccc(C(=O)N2CCC(Oc3ncccn3)CC2)cc1=Cc1[n-]c(=O)[n-]c1O (protonated)
C=c1ccc(C(=O)N2CCC(Oc3ncccn3)CC2)c/c1=C\c1[n-]c(=O)[n-]c1O (cis-trans isomerization)
C=c1ccc(C(=O)N2CCC(Oc3ncccn3)CC2)c/c1=C\c1[n-]c(=O)[n-]c1O (3D coordinates assigned)
C=c1ccc(C(=O)N2CCC(Oc3ncccn3)CC2)c/c1=C\c1[n-]c(=O)[n-]c1O (nonaromatic ring conformer: 104.85000070839216 kcal/mol)

>  <smiles>  (2) 
C=c1ccc(C(=O)N2CCC(Oc3ncccn3)CC2)cc1=Cc1[nH]c(=O)[nH]c1O

>  <score_type>  (2) 
oracle

>  <origin>  (2) 
adg

>  <m_score__min__energy>  (2) 
-13.35

>  <m_primary>  (2) 
energy

$$$$
2:0
     RDKit          3D

 36 38  0  0  0  0  0  0  0  0999 V2000
   57.0390   23.7040   44.8470 C   0  0  0  0  0  0  0  0  0  0  0  0
   56.7310   23.9640   46.5830 S   0  0  0  0  0  0  0  0  0  0  0  0
   57.2650   22.8160   47.3910 O   0  0  0  0  0  0  0  0  0  0  0  0
   55.2450   24.0500   46.7860 O   0  0  0  0  0  0  0  0  0  0  0  0
   57.4460   25.4550   47.1070 N   0  0  0  0  0  0  0  0  0  0  0  0
   57.4310   26.7030   46.3980 C   0  0  0  0  0  0  0  0  0  0  0  0
   58.6570   27.3450   46.1810 C   0  0  0  0  0  0  0  0  0  0  0  0
   58.7170   28.5740   45.5060 C   0  0  0  0  0  0  0  0  0  0  0  0
   60.0320   29.2900   45.3500 C   0  0  0  0  0  0  0  0  0  0  0  0
   60.2130   30.2490   46.4360 N   0  0  0  0  0  0  0  0  0  0  0  0
   60.4980   29.9310   47.8020 C   0  0  0  0  0  0  0  0  0  0  0  0
   60.9400   28.8180   48.1930 O   0  0  0  0  0  0  0  0  0  0  0  0
   60.1770   31.0660   48.6600 C   0  0  0  0  0  0  0  0  0  0  0  0
   60.2810   31.2210   50.0400 C   0  0  0  0  0  0  0  0  0  0  0  0
   59.8660   32.4430   50.6000 C   0  0  0  0  0  0  0  0  0  0  0  0
   59.3560   33.4700   49.7770 C   0  0  0  0  0  0  0  0  0  0  0  0
   59.2580   33.2860   48.3850 C   0  0  0  0  0  0  0  0  0  0  0  0
   59.6790   32.0690   47.8560 C   0  0  0  0  0  0  0  0  0  0  0  0
   59.6820   31.5770   46.4840 C   0  0  0  0  0  0  0  0  0  0  0  0
   59.2600   32.2070   45.4790 O   0  0  0  0  0  0  0  0  0  0  0  0
   57.5320   29.1630   45.0470 C   0  0  0  0  0  0  0  0  0  0  0  0
   56.3070   28.5180   45.2280 C   0  0  0  0  0  0  0  0  0  0  0  0
   55.1440   29.1030   44.7430 O   0  0  0  0  0  0  0  0  0  0  0  0
   56.2500   27.2840   45.8890 C   0  0  0  0  0  0  0  0  0  0  0  0
   55.0240   26.6420   46.0030 O   0  0  0  0  0  0  0  0  0  0  0  0
   57.8743   22.9989   44.7244 H   0  0  0  0  0  0  0  0  0  0  0  0
   56.1370   23.2900   44.3726 H   0  0  0  0  0  0  0  0  0  0  0  0
   57.2957   24.6626   44.3726 H   0  0  0  0  0  0  0  0  0  0  0  0
   59.5851   26.8796   46.5445 H   0  0  0  0  0  0  0  0  0  0  0  0
   60.8509   28.5559   45.3726 H   0  0  0  0  0  0  0  0  0  0  0  0
   60.0376   29.8275   44.3903 H   0  0  0  0  0  0  0  0  0  0  0  0
   60.6756   30.4125   50.6730 H   0  0  0  0  0  0  0  0  0  0  0  0
   59.9395   32.5991   51.6864 H   0  0  0  0  0  0  0  0  0  0  0  0
   59.0329   34.4206   50.2265 H   0  0  0  0  0  0  0  0  0  0  0  0
   58.8609   34.0796   47.7349 H   0  0  0  0  0  0  0  0  0  0  0  0
   57.5667   30.1392   44.5411 H   0  0  0  0  0  0  0  0  0  0  0  0
  1  2  1  0
  2  3  2  0
  2  4  2  0
  2  5  1  0
  5  6  1  0
  6  7  2  0
  7  8  1  0
  8  9  1  0
  9 10  1  0
 10 11  1  0
 11 12  2  0
 11 13  1  0
 13 14  2  0
 14 15  1  0
 15 16  2  0
 16 17  1  0
 17 18  2  0
 18 19  1  0
 19 20  2  0
  8 21  2  0
 21 22  1  0
 22 23  1  0
 22 24  2  0
 24 25  1  0
 24  6  1  0
 19 10  1  0
 18 13  1  0
  1 26  1  0
  1 27  1  0
  1 28  1  0
  7 29  1  0
  9 30  1  0
  9 31  1  0
 14 32  1  0
 15 33  1  0
 16 34  1  0
 17 35  1  0
 21 36  1  0
M  CHG  3   5  -1  23  -1  25  -1
M  END
>  <UniqueID>  (3) 
2

>  <SMILES>  (3) 
CS(=O)(=O)[N-]c1cc(CN2C(=O)c3ccccc3C2=O)cc([O-])c1[O-]

>  <Energy>  (3) 
71.96144276461996

>  <Genealogy>  (3) 
CS(=O)(=O)[N-]c1cc(CN2C(=O)c3ccccc3C2=O)cc([O-])c1[O-] (protonated)
CS(=O)(=O)[N-]c1cc(CN2C(=O)c3ccccc3C2=O)cc([O-])c1[O-] (3D coordinates assigned)
CS(=O)(=O)[N-]c1cc(CN2C(=O)c3ccccc3C2=O)cc([O-])c1[O-] (nonaromatic ring conformer: 71.96144276461996 kcal/mol)

>  <smiles>  (3) 
CS(=O)(=O)Nc1cc(CN2C(=O)c3ccccc3C2=O)cc(O)c1O

>  <score_type>  (3) 
oracle

>  <origin>  (3) 
adg

>  <m_score__min__energy>  (3) 
-16.539999999999999

>  <m_primary>  (3) 
energy

$$$$
3:0
     RDKit          3D

 51 54  0  0  0  0  0  0  0  0999 V2000
   60.5190   28.1280   55.5700 H   0  0  0  0  0  0  0  0  0  0  0  0
   60.0750   27.2450   55.3500 O   0  0  0  0  0  0  0  0  0  0  0  0
   60.2200   26.6080   54.1160 C   0  0  0  0  0  0  0  0  0  0  0  0
   60.5990   27.3020   52.9440 C   0  0  0  0  0  0  0  0  0  0  0  0
   60.9460   28.7380   52.9630 C   0  0  0  0  0  0  0  0  0  0  0  0
   61.8190   29.1340   53.7820 O   0  0  0  0  0  0  0  0  0  0  0  0
   60.3150   29.6800   52.0640 N   0  0  0  0  0  0  0  0  0  0  0  0
   59.1740   29.2650   51.2280 C   0  0  0  0  0  0  0  0  0  0  0  0
   58.5221   28.6043   51.8183 H   0  0  0  0  0  0  0  0  0  0  0  0
   59.5702   28.7436   50.3441 H   0  0  0  0  0  0  0  0  0  0  0  0
   58.3530   30.4690   50.7430 C   0  0  0  0  0  0  0  0  0  0  0  0
   57.3386   30.1354   50.4790 H   0  0  0  0  0  0  0  0  0  0  0  0
   58.8430   30.9081   49.8615 H   0  0  0  0  0  0  0  0  0  0  0  0
   58.2710   31.4830   51.8040 N   0  0  0  0  0  0  0  0  0  0  0  0
   57.0070   32.0500   52.1830 C   0  0  0  0  0  0  0  0  0  0  0  0
   56.9110   33.2940   52.3610 O   0  0  0  0  0  0  0  0  0  0  0  0
   55.8440   31.1760   52.4500 C   0  0  0  0  0  0  0  0  0  0  0  0
   54.5640   31.4640   52.0240 C   0  0  0  0  0  0  0  0  0  0  0  0
   54.2418   32.3641   51.4798 H   0  0  0  0  0  0  0  0  0  0  0  0
   53.7620   30.4040   52.4120 C   0  0  0  0  0  0  0  0  0  0  0  0
   52.4310   30.3090   52.2330 C   0  0  0  0  0  0  0  0  0  0  0  0
   51.8281   29.8721   53.0427 H   0  0  0  0  0  0  0  0  0  0  0  0
   51.7360   30.7580   51.0120 C   0  0  0  0  0  0  0  0  0  0  0  0
   51.7000   30.0400   49.8750 N   0  0  0  0  0  0  0  0  0  0  0  0
   51.0280   30.8410   49.0200 C   0  0  0  0  0  0  0  0  0  0  0  0
   50.7740   30.5050   47.8340 O   0  0  0  0  0  0  0  0  0  0  0  0
   50.6570   32.0330   49.5330 N   0  0  0  0  0  0  0  0  0  0  0  0
   51.1200   31.9700   50.7910 C   0  0  0  0  0  0  0  0  0  0  0  0
   51.0160   33.0150   51.7020 O   0  0  0  0  0  0  0  0  0  0  0  0
   54.6030   29.4970   53.0660 C   0  0  0  0  0  0  0  0  0  0  0  0
   54.2430   28.3040   53.5640 C   0  0  0  0  0  0  0  0  0  0  0  0
   54.9897   27.6677   54.0615 H   0  0  0  0  0  0  0  0  0  0  0  0
   53.2012   27.9624   53.4747 H   0  0  0  0  0  0  0  0  0  0  0  0
   55.8710   29.9870   53.0970 N   0  0  0  0  0  0  0  0  0  0  0  0
   57.0480   29.3490   53.6990 C   0  0  0  0  0  0  0  0  0  0  0  0
   56.9681   29.3923   54.7952 H   0  0  0  0  0  0  0  0  0  0  0  0
   57.1010   28.2987   53.3764 H   0  0  0  0  0  0  0  0  0  0  0  0
   57.9570   29.8779   53.3764 H   0  0  0  0  0  0  0  0  0  0  0  0
   59.4960   31.9590   52.4590 C   0  0  0  0  0  0  0  0  0  0  0  0
   59.3609   31.9127   53.5497 H   0  0  0  0  0  0  0  0  0  0  0  0
   59.6849   32.9931   52.1351 H   0  0  0  0  0  0  0  0  0  0  0  0
   60.7030   31.1000   52.0680 C   0  0  0  0  0  0  0  0  0  0  0  0
   61.5146   31.2562   52.7939 H   0  0  0  0  0  0  0  0  0  0  0  0
   61.0480   31.3883   51.0641 H   0  0  0  0  0  0  0  0  0  0  0  0
   60.6660   26.6270   51.7620 N   0  0  0  0  0  0  0  0  0  0  0  0
   60.3890   25.3000   51.6680 C   0  0  0  0  0  0  0  0  0  0  0  0
   60.4464   24.7942   50.6929 H   0  0  0  0  0  0  0  0  0  0  0  0
   60.0320   24.5790   52.8070 C   0  0  0  0  0  0  0  0  0  0  0  0
   59.8160   23.5026   52.7389 H   0  0  0  0  0  0  0  0  0  0  0  0
   59.9520   25.2380   54.0330 C   0  0  0  0  0  0  0  0  0  0  0  0
   59.6769   24.6779   54.9389 H   0  0  0  0  0  0  0  0  0  0  0  0
  1  2  1  0
  2  3  1  0
  3  4  2  0
  4  5  1  0
  5  6  2  0
  5  7  1  0
  7  8  1  0
  8  9  1  0
  8 10  1  0
  8 11  1  0
 11 12  1  0
 11 13  1  0
 11 14  1  0
 14 15  1  0
 15 16  2  0
 15 17  1  0
 17 18  2  0
 18 19  1  0
 18 20  1  0
 20 21  2  0
 21 22  1  0
 21 23  1  0
 23 24  1  0
 24 25  1  0
 25 26  2  0
 25 27  1  0
 27 28  1  0
 28 29  1  0
 20 30  1  0
 30 31  2  0
 31 32  1  0
 31 33  1  0
 30 34  1  0
 34 35  1  0
 35 36  1  0
 35 37  1  0
 35 38  1  0
 14 39  1  0
 39 40  1  0
 39 41  1  0
 39 42  1  0
 42 43  1  0
 42 44  1  0
  4 45  1  0
 45 46  2  0
 46 47  1  0
 46 48  1  0
 48 49  1  0
 48 50  2  0
 50 51  1  0
 50  3  1  0
 42  7  1  0
 34 17  1  0
 28 23  2  0
M  CHG  3  24  -1  27  -1  29  -1
M  END
>  <UniqueID>  (4) 
3

>  <SMILES>  (4) 
C=c1/c(=C/c2[n-]c(=O)[n-]c2[O-])cc(C(=O)N2CCN(C(=O)c3ncccc3O)CC2)n1C

>  <Energy>  (4) 
131.228481828116

>  <Genealogy>  (4) 
C=c1c(=Cc2[n-]c(=O)[n-]c2[O-])cc(C(=O)N2CCN(C(=O)c3ncccc3O)CC2)n1C (protonated)
C=c1/c(=C/c2[n-]c(=O)[n-]c2[O-])cc(C(=O)N2CCN(C(=O)c3ncccc3O)CC2)n1C (cis-trans isomerization)
C=c1/c(=C/c2[n-]c(=O)[n-]c2[O-])cc(C(=O)N2CCN(C(=O)c3ncccc3O)CC2)n1C (3D coordinates assigned)
C=c1/c(=C/c2[n-]c(=O)[n-]c2[O-])cc(C(=O)N2CCN(C(=O)c3ncccc3O)CC2)n1C (nonaromatic ring conformer: 131.228481828116 kcal/mol)

>  <smiles>  (4) 
C=c1c(=Cc2[nH]c(=O)[nH]c2O)cc(C(=O)N2CCN(C(=O)c3ncccc3O)CC2)n1C

>  <score_type>  (4) 
oracle

>  <origin>  (4) 
adg

>  <m_score__min__energy>  (4) 
-16.609999999999999

>  <m_primary>  (4) 
energy

$$$$
4:0
     RDKit          3D

 37 39  0  0  0  0  0  0  0  0999 V2000
   53.3930   28.9640   54.5140 C   0  0  0  0  0  0  0  0  0  0  0  0
   54.2730   29.3630   53.5780 C   0  0  0  0  0  0  0  0  0  0  0  0
   55.4940   28.6680   53.5040 C   0  0  0  0  0  0  0  0  0  0  0  0
   56.5540   29.1550   52.7450 C   0  0  0  0  0  0  0  0  0  0  0  0
   56.4380   30.3610   52.0430 C   0  0  0  0  0  0  0  0  0  0  0  0
   57.5980   30.8740   51.2620 C   0  0  0  0  0  0  0  0  0  0  0  0
   58.3030   30.0630   50.6000 O   0  0  0  0  0  0  0  0  0  0  0  0
   57.9490   32.3380   51.1910 C   0  0  0  0  0  0  0  0  0  0  0  0
   58.9450   32.6050   50.0920 C   0  0  0  0  0  0  0  0  0  0  0  0
   58.5080   32.7580   48.7640 C   0  0  0  0  0  0  0  0  0  0  0  0
   59.4280   33.0120   47.7430 C   0  0  0  0  0  0  0  0  0  0  0  0
   60.7910   33.1100   48.0360 C   0  0  0  0  0  0  0  0  0  0  0  0
   61.6820   33.3570   47.0440 F   0  0  0  0  0  0  0  0  0  0  0  0
   61.2360   32.9490   49.3500 C   0  0  0  0  0  0  0  0  0  0  0  0
   60.3190   32.6940   50.3750 C   0  0  0  0  0  0  0  0  0  0  0  0
   55.2090   31.0430   52.0730 C   0  0  0  0  0  0  0  0  0  0  0  0
   54.0860   30.5230   52.7570 C   0  0  0  0  0  0  0  0  0  0  0  0
   52.9040   31.1620   52.5610 C   0  0  0  0  0  0  0  0  0  0  0  0
   52.1890   31.3020   51.2780 C   0  0  0  0  0  0  0  0  0  0  0  0
   52.1720   30.3480   50.3320 N   0  0  0  0  0  0  0  0  0  0  0  0
   51.3310   30.8450   49.4000 C   0  0  0  0  0  0  0  0  0  0  0  0
   51.0630   30.2340   48.3330 O   0  0  0  0  0  0  0  0  0  0  0  0
   50.7900   32.0430   49.7060 N   0  0  0  0  0  0  0  0  0  0  0  0
   51.3320   32.3130   50.9040 C   0  0  0  0  0  0  0  0  0  0  0  0
   51.0230   33.4440   51.6510 O   0  0  0  0  0  0  0  0  0  0  0  0
   52.4242   29.4757   54.6117 H   0  0  0  0  0  0  0  0  0  0  0  0
   53.6423   28.1261   55.1816 H   0  0  0  0  0  0  0  0  0  0  0  0
   55.6129   27.7236   54.0554 H   0  0  0  0  0  0  0  0  0  0  0  0
   57.4940   28.5858   52.6960 H   0  0  0  0  0  0  0  0  0  0  0  0
   57.0347   32.9175   50.9956 H   0  0  0  0  0  0  0  0  0  0  0  0
   58.3986   32.6361   52.1496 H   0  0  0  0  0  0  0  0  0  0  0  0
   57.4367   32.6773   48.5277 H   0  0  0  0  0  0  0  0  0  0  0  0
   59.0788   33.1350   46.7072 H   0  0  0  0  0  0  0  0  0  0  0  0
   62.3093   33.0228   49.5792 H   0  0  0  0  0  0  0  0  0  0  0  0
   60.6748   32.5625   51.4075 H   0  0  0  0  0  0  0  0  0  0  0  0
   55.1186   32.0067   51.5505 H   0  0  0  0  0  0  0  0  0  0  0  0
   52.4341   31.6195   53.4441 H   0  0  0  0  0  0  0  0  0  0  0  0
  1  2  2  0
  2  3  1  0
  3  4  2  0
  4  5  1  0
  5  6  1  0
  6  7  2  0
  6  8  1  0
  8  9  1  0
  9 10  2  0
 10 11  1  0
 11 12  2  0
 12 13  1  0
 12 14  1  0
 14 15  2  0
  5 16  2  0
 16 17  1  0
 17 18  2  3
 18 19  1  0
 19 20  1  0
 20 21  1  0
 21 22  2  0
 21 23  1  0
 23 24  1  0
 24 25  1  0
 17  2  1  0
 24 19  2  0
 15  9  1  0
  1 26  1  0
  1 27  1  0
  3 28  1  0
  4 29  1  0
  8 30  1  0
  8 31  1  0
 10 32  1  0
 11 33  1  0
 14 34  1  0
 15 35  1  0
 16 36  1  0
 18 37  1  0
M  CHG  3  20  -1  23  -1  25  -1
M  END
>  <UniqueID>  (5) 
4

>  <SMILES>  (5) 
C=c1ccc(C(=O)Cc2ccc(F)cc2)cc1=Cc1[n-]c(=O)[n-]c1[O-]

>  <Energy>  (5) 
91.31492908725204

>  <Genealogy>  (5) 
C=c1ccc(C(=O)Cc2ccc(F)cc2)cc1=Cc1[n-]c(=O)[n-]c1[O-] (protonated)
C=c1ccc(C(=O)Cc2ccc(F)cc2)cc1=Cc1[n-]c(=O)[n-]c1[O-] (3D coordinates assigned)
C=c1ccc(C(=O)Cc2ccc(F)cc2)cc1=Cc1[n-]c(=O)[n-]c1[O-] (optimized conformer: 91.31492908725204 kcal/mol)

>  <smiles>  (5) 
C=c1ccc(C(=O)Cc2ccc(F)cc2)cc1=Cc1[nH]c(=O)[nH]c1O

>  <score_type>  (5) 
oracle

>  <origin>  (5) 
adg

>  <m_score__min__energy>  (5) 
-17.18

>  <m_primary>  (5) 
energy

$$$$
5:0
     RDKit          3D

 59 62  0  0  0  0  0  0  0  0999 V2000
   59.6930   35.7480   46.7170 O   0  0  0  0  0  0  0  0  0  0  0  0
   59.8410   34.5080   46.8660 C   0  0  0  0  0  0  0  0  0  0  0  0
   60.1770   33.9910   48.1550 N   0  0  0  0  0  0  0  0  0  0  0  0
   61.5200   33.9200   48.6480 C   0  0  0  0  0  0  0  0  0  0  0  0
   61.7610   34.1910   49.9980 C   0  0  0  0  0  0  0  0  0  0  0  0
   63.0270   33.9700   50.5480 C   0  0  0  0  0  0  0  0  0  0  0  0
   64.0650   33.4690   49.7510 C   0  0  0  0  0  0  0  0  0  0  0  0
   65.6180   33.0360   50.4740 S   0  0  0  0  0  0  0  0  0  0  0  0
   66.1310   34.2060   51.2680 O   0  0  0  0  0  0  0  0  0  0  0  0
   66.6070   32.7440   49.3810 O   0  0  0  0  0  0  0  0  0  0  0  0
   65.4920   31.6420   51.5230 N   0  0  0  0  0  0  0  0  0  0  0  0
   64.3210   30.8190   51.2190 C   0  0  0  0  0  0  0  0  0  0  0  0
   64.6380   29.4300   51.7400 C   0  0  0  0  0  0  0  0  0  0  0  0
   66.1490   29.3170   51.6300 C   0  0  0  0  0  0  0  0  0  0  0  0
   66.6550   30.7450   51.4210 C   0  0  0  0  0  0  0  0  0  0  0  0
   63.8480   33.2740   48.3810 C   0  0  0  0  0  0  0  0  0  0  0  0
   62.5840   33.4990   47.8290 C   0  0  0  0  0  0  0  0  0  0  0  0
   59.5740   33.5770   45.7080 C   0  0  0  0  0  0  0  0  0  0  0  0
   58.4110   34.1130   44.8440 C   0  0  0  0  0  0  0  0  0  0  0  0
   57.7140   32.9660   44.0980 C   0  0  0  0  0  0  0  0  0  0  0  0
   57.0840   32.0100   45.0350 N   0  0  0  0  0  0  0  0  0  0  0  0
   56.7620   30.4850   44.2380 S   0  0  0  0  0  0  0  0  0  0  0  0
   55.3400   30.0830   44.5130 O   0  0  0  0  0  0  0  0  0  0  0  0
   56.9170   30.6390   42.7490 O   0  0  0  0  0  0  0  0  0  0  0  0
   57.8450   29.2100   44.8030 C   0  0  0  0  0  0  0  0  0  0  0  0
   59.2190   29.2680   44.5150 C   0  0  0  0  0  0  0  0  0  0  0  0
   60.0670   28.2360   44.9230 C   0  0  0  0  0  0  0  0  0  0  0  0
   59.5530   27.1390   45.6210 C   0  0  0  0  0  0  0  0  0  0  0  0
   58.1890   27.0830   45.9240 C   0  0  0  0  0  0  0  0  0  0  0  0
   57.3370   28.1150   45.5160 C   0  0  0  0  0  0  0  0  0  0  0  0
   57.8250   31.8140   46.3070 C   0  0  0  0  0  0  0  0  0  0  0  0
   59.3270   32.1170   46.1700 C   0  0  0  0  0  0  0  0  0  0  0  0
   60.9500   34.5803   50.6310 H   0  0  0  0  0  0  0  0  0  0  0  0
   63.2091   34.1902   51.6103 H   0  0  0  0  0  0  0  0  0  0  0  0
   65.4160   31.9840   52.5120 H   0  0  0  0  0  0  0  0  0  0  0  0
   63.4299   31.2217   51.7227 H   0  0  0  0  0  0  0  0  0  0  0  0
   64.1080   30.8051   50.1399 H   0  0  0  0  0  0  0  0  0  0  0  0
   64.3155   29.3244   52.7864 H   0  0  0  0  0  0  0  0  0  0  0  0
   64.1178   28.6428   51.1745 H   0  0  0  0  0  0  0  0  0  0  0  0
   66.5703   28.8917   52.5529 H   0  0  0  0  0  0  0  0  0  0  0  0
   66.4482   28.6546   50.8043 H   0  0  0  0  0  0  0  0  0  0  0  0
   67.3950   30.9989   52.1943 H   0  0  0  0  0  0  0  0  0  0  0  0
   67.1393   30.8462   50.4386 H   0  0  0  0  0  0  0  0  0  0  0  0
   64.6758   32.9424   47.7370 H   0  0  0  0  0  0  0  0  0  0  0  0
   62.4205   33.3467   46.7519 H   0  0  0  0  0  0  0  0  0  0  0  0
   60.4801   33.5493   45.0849 H   0  0  0  0  0  0  0  0  0  0  0  0
   57.6808   34.6169   45.4943 H   0  0  0  0  0  0  0  0  0  0  0  0
   58.8166   34.8198   44.1052 H   0  0  0  0  0  0  0  0  0  0  0  0
   56.9379   33.3866   43.4417 H   0  0  0  0  0  0  0  0  0  0  0  0
   58.4724   32.4251   43.5130 H   0  0  0  0  0  0  0  0  0  0  0  0
   59.6282   30.1291   43.9663 H   0  0  0  0  0  0  0  0  0  0  0  0
   61.1419   28.2864   44.6946 H   0  0  0  0  0  0  0  0  0  0  0  0
   60.2204   26.3215   45.9312 H   0  0  0  0  0  0  0  0  0  0  0  0
   57.7854   26.2265   46.4839 H   0  0  0  0  0  0  0  0  0  0  0  0
   56.2645   28.0671   45.7556 H   0  0  0  0  0  0  0  0  0  0  0  0
   57.3989   32.4827   47.0695 H   0  0  0  0  0  0  0  0  0  0  0  0
   57.7233   30.7564   46.5920 H   0  0  0  0  0  0  0  0  0  0  0  0
   59.8126   31.9639   47.1450 H   0  0  0  0  0  0  0  0  0  0  0  0
   59.7473   31.4399   45.4118 H   0  0  0  0  0  0  0  0  0  0  0  0
  1  2  2  0
  2  3  1  0
  3  4  1  0
  4  5  2  0
  5  6  1  0
  6  7  2  0
  7  8  1  0
  8  9  2  0
  8 10  2  0
  8 11  1  0
 11 12  1  0
 12 13  1  0
 13 14  1  0
 14 15  1  0
  7 16  1  0
 16 17  2  0
  2 18  1  0
 18 19  1  0
 19 20  1  0
 20 21  1  0
 21 22  1  0
 22 23  2  0
 22 24  2  0
 22 25  1  0
 25 26  2  0
 26 27  1  0
 27 28  2  0
 28 29  1  0
 29 30  2  0
 21 31  1  0
 31 32  1  0
 17  4  1  0
 32 18  1  0
 15 11  1  0
 30 25  1  0
  5 33  1  0
  6 34  1  0
 11 35  1  0
 12 36  1  0
 12 37  1  0
 13 38  1  0
 13 39  1  0
 14 40  1  0
 14 41  1  0
 15 42  1  0
 15 43  1  0
 16 44  1  0
 17 45  1  0
 18 46  1  0
 19 47  1  0
 19 48  1  0
 20 49  1  0
 20 50  1  0
 26 51  1  0
 27 52  1  0
 28 53  1  0
 29 54  1  0
 30 55  1  0
 31 56  1  0
 31 57  1  0
 32 58  1  0
 32 59  1  0
M  CHG  2   3  -1  11   1
M  END
>  <UniqueID>  (6) 
5

>  <SMILES>  (6) 
O=C([N-]c1ccc(S(=O)(=O)[NH+]2CCCC2)cc1)C1CCN(S(=O)(=O)c2ccccc2)CC1

>  <Energy>  (6) 
76.64670873776939

>  <Genealogy>  (6) 
O=C([N-]c1ccc(S(=O)(=O)[NH+]2CCCC2)cc1)C1CCN(S(=O)(=O)c2ccccc2)CC1 (protonated)
O=C([N-]c1ccc(S(=O)(=O)[NH+]2CCCC2)cc1)C1CCN(S(=O)(=O)c2ccccc2)CC1 (3D coordinates assigned)
O=C([N-]c1ccc(S(=O)(=O)[NH+]2CCCC2)cc1)C1CCN(S(=O)(=O)c2ccccc2)CC1 (nonaromatic ring conformer: 76.64670873776939 kcal/mol)

>  <smiles>  (6) 
O=C(Nc1ccc(S(=O)(=O)N2CCCC2)cc1)C1CCN(S(=O)(=O)c2ccccc2)CC1

>  <score_type>  (6) 
oracle

>  <origin>  (6) 
adg

>  <m_score__min__energy>  (6) 
-10.15

>  <m_primary>  (6) 
energy

$$$$
6:0
     RDKit          3D

 36 38  0  0  0  0  0  0  0  0999 V2000
   54.6755   29.0652   55.8734 H   0  0  0  0  0  0  0  0  0  0  0  0
   54.0240   29.5730   55.1470 C   0  0  0  0  0  0  0  0  0  0  0  0
   52.9882   29.8243   55.4188 H   0  0  0  0  0  0  0  0  0  0  0  0
   54.4930   29.8860   53.9290 C   0  0  0  0  0  0  0  0  0  0  0  0
   53.7920   30.5300   52.8970 C   0  0  0  0  0  0  0  0  0  0  0  0
   52.4780   30.7870   52.7460 C   0  0  0  0  0  0  0  0  0  0  0  0
   51.8687   30.8448   53.6600 H   0  0  0  0  0  0  0  0  0  0  0  0
   51.7880   30.9970   51.4630 C   0  0  0  0  0  0  0  0  0  0  0  0
   51.9660   30.2400   50.3630 N   0  0  0  0  0  0  0  0  0  0  0  0
   51.2480   30.8890   49.4210 C   0  0  0  0  0  0  0  0  0  0  0  0
   51.1520   30.4730   48.2370 O   0  0  0  0  0  0  0  0  0  0  0  0
   50.6500   32.0220   49.8430 N   0  0  0  0  0  0  0  0  0  0  0  0
   51.0150   32.0830   51.1330 C   0  0  0  0  0  0  0  0  0  0  0  0
   50.6520   33.1130   51.9920 O   0  0  0  0  0  0  0  0  0  0  0  0
   54.7370   30.8860   51.9530 C   0  0  0  0  0  0  0  0  0  0  0  0
   54.5552   31.4500   51.0262 H   0  0  0  0  0  0  0  0  0  0  0  0
   55.9520   30.4000   52.3930 C   0  0  0  0  0  0  0  0  0  0  0  0
   57.2390   30.5300   51.6210 C   0  0  0  0  0  0  0  0  0  0  0  0
   57.8347   29.6153   51.7572 H   0  0  0  0  0  0  0  0  0  0  0  0
   56.9980   30.6766   50.5578 H   0  0  0  0  0  0  0  0  0  0  0  0
   58.0370   31.7150   52.1020 C   0  0  0  0  0  0  0  0  0  0  0  0
   59.4130   31.5820   52.3580 C   0  0  0  0  0  0  0  0  0  0  0  0
   59.9067   30.6105   52.2078 H   0  0  0  0  0  0  0  0  0  0  0  0
   60.1570   32.6800   52.8030 C   0  0  0  0  0  0  0  0  0  0  0  0
   61.2321   32.5686   53.0075 H   0  0  0  0  0  0  0  0  0  0  0  0
   59.5360   33.9180   52.9880 C   0  0  0  0  0  0  0  0  0  0  0  0
   60.1215   34.7794   53.3417 H   0  0  0  0  0  0  0  0  0  0  0  0
   58.1720   34.0620   52.7240 C   0  0  0  0  0  0  0  0  0  0  0  0
   57.6852   35.0381   52.8663 H   0  0  0  0  0  0  0  0  0  0  0  0
   57.4240   32.9670   52.2790 C   0  0  0  0  0  0  0  0  0  0  0  0
   56.3513   33.0865   52.0667 H   0  0  0  0  0  0  0  0  0  0  0  0
   55.8020   29.7640   53.5790 N   0  0  0  0  0  0  0  0  0  0  0  0
   56.8730   29.1880   54.3990 C   0  0  0  0  0  0  0  0  0  0  0  0
   56.6301   29.3186   55.4639 H   0  0  0  0  0  0  0  0  0  0  0  0
   56.9707   28.1157   54.1741 H   0  0  0  0  0  0  0  0  0  0  0  0
   57.8215   29.6977   54.1741 H   0  0  0  0  0  0  0  0  0  0  0  0
  1  2  1  0
  2  3  1  0
  2  4  2  0
  4  5  1  0
  5  6  2  0
  6  7  1  0
  6  8  1  0
  8  9  1  0
  9 10  1  0
 10 11  2  0
 10 12  1  0
 12 13  1  0
 13 14  1  0
  5 15  1  0
 15 16  1  0
 15 17  2  0
 17 18  1  0
 18 19  1  0
 18 20  1  0
 18 21  1  0
 21 22  2  0
 22 23  1  0
 22 24  1  0
 24 25  1  0
 24 26  2  0
 26 27  1  0
 26 28  1  0
 28 29  1  0
 28 30  2  0
 30 31  1  0
 17 32  1  0
 32 33  1  0
 33 34  1  0
 33 35  1  0
 33 36  1  0
 32  4  1  0
 13  8  2  0
 30 21  1  0
M  CHG  3   9  -1  12  -1  14  -1
M  END
>  <UniqueID>  (7) 
6

>  <SMILES>  (7) 
C=c1/c(=C\c2[n-]c(=O)[n-]c2[O-])cc(Cc2ccccc2)n1C

>  <Energy>  (7) 
106.28376981990226

>  <Genealogy>  (7) 
C=c1c(=Cc2[n-]c(=O)[n-]c2[O-])cc(Cc2ccccc2)n1C (protonated)
C=c1/c(=C\c2[n-]c(=O)[n-]c2[O-])cc(Cc2ccccc2)n1C (cis-trans isomerization)
C=c1/c(=C\c2[n-]c(=O)[n-]c2[O-])cc(Cc2ccccc2)n1C (3D coordinates assigned)
C=c1/c(=C\c2[n-]c(=O)[n-]c2[O-])cc(Cc2ccccc2)n1C (optimized conformer: 106.28376981990226 kcal/mol)

>  <smiles>  (7) 
C=c1c(=Cc2[nH]c(=O)[nH]c2O)cc(Cc2ccccc2)n1C

>  <score_type>  (7) 
oracle

>  <origin>  (7) 
adg

>  <m_score__min__energy>  (7) 
-16.010000000000002

>  <m_primary>  (7) 
energy

$$$$
7:0
     RDKit          3D

 47 50  0  0  0  0  0  0  0  0999 V2000
   57.9700   31.8180   52.5810 C   0  0  0  0  0  0  0  0  0  0  0  0
   58.2760   30.6800   51.6610 C   0  0  0  0  0  0  0  0  0  0  0  0
   57.4020   29.7940   51.4620 O   0  0  0  0  0  0  0  0  0  0  0  0
   59.5880   30.5550   51.0880 N   0  0  0  0  0  0  0  0  0  0  0  0
   59.9130   29.6760   49.9980 C   0  0  0  0  0  0  0  0  0  0  0  0
   60.4340   28.4060   50.2760 C   0  0  0  0  0  0  0  0  0  0  0  0
   60.7770   27.5430   49.2380 C   0  0  0  0  0  0  0  0  0  0  0  0
   60.6290   27.9460   47.9120 C   0  0  0  0  0  0  0  0  0  0  0  0
   60.1510   29.2360   47.5930 C   0  0  0  0  0  0  0  0  0  0  0  0
   59.9870   29.6270   46.1100 C   0  0  2  0  0  0  0  0  0  0  0  0
   60.9280   28.8390   45.1760 C   0  0  0  0  0  0  0  0  0  0  0  0
   60.3790   31.0080   46.0160 O   0  0  0  0  0  0  0  0  0  0  0  0
   59.5510   32.0900   46.3220 C   0  0  0  0  0  0  0  0  0  0  0  0
   59.6870   32.7950   47.5230 C   0  0  0  0  0  0  0  0  0  0  0  0
   58.8130   33.8510   47.8110 C   0  0  0  0  0  0  0  0  0  0  0  0
   57.8140   34.2060   46.8930 C   0  0  0  0  0  0  0  0  0  0  0  0
   57.6990   33.5150   45.6810 C   0  0  0  0  0  0  0  0  0  0  0  0
   58.5840   32.4690   45.3970 C   0  0  0  0  0  0  0  0  0  0  0  0
   58.5300   31.5640   43.8640 S   0  0  0  0  0  0  0  0  0  0  0  0
   57.8210   30.1380   44.6910 C   0  0  0  0  0  0  0  0  0  0  0  0
   56.5000   29.8200   44.3610 C   0  0  0  0  0  0  0  0  0  0  0  0
   55.8940   28.6720   44.8650 C   0  0  0  0  0  0  0  0  0  0  0  0
   56.6070   27.8040   45.6980 C   0  0  0  0  0  0  0  0  0  0  0  0
   55.9730   26.5620   46.1960 C   0  0  0  0  0  0  0  0  0  0  0  0
   56.6410   25.7220   46.8560 O   0  0  0  0  0  0  0  0  0  0  0  0
   54.6320   26.3040   45.9400 O   0  0  0  0  0  0  0  0  0  0  0  0
   57.9260   28.1290   46.0530 C   0  0  0  0  0  0  0  0  0  0  0  0
   58.5420   29.3290   45.6190 C   0  0  0  0  0  0  0  0  0  0  0  0
   59.7820   30.0890   48.6590 C   0  0  0  0  0  0  0  0  0  0  0  0
   58.0607   31.4808   53.6241 H   0  0  0  0  0  0  0  0  0  0  0  0
   58.6794   32.6385   52.3979 H   0  0  0  0  0  0  0  0  0  0  0  0
   56.9448   32.1720   52.3979 H   0  0  0  0  0  0  0  0  0  0  0  0
   60.3640   31.0970   51.5330 H   0  0  0  0  0  0  0  0  0  0  0  0
   60.5731   28.0884   51.3199 H   0  0  0  0  0  0  0  0  0  0  0  0
   61.1662   26.5396   49.4656 H   0  0  0  0  0  0  0  0  0  0  0  0
   60.8884   27.2487   47.1017 H   0  0  0  0  0  0  0  0  0  0  0  0
   61.6332   28.2485   45.7793 H   0  0  0  0  0  0  0  0  0  0  0  0
   60.3343   28.1647   44.5413 H   0  0  0  0  0  0  0  0  0  0  0  0
   61.4876   29.5419   44.5413 H   0  0  0  0  0  0  0  0  0  0  0  0
   60.4769   32.5211   48.2379 H   0  0  0  0  0  0  0  0  0  0  0  0
   58.9103   34.4023   48.7579 H   0  0  0  0  0  0  0  0  0  0  0  0
   57.1206   35.0277   47.1254 H   0  0  0  0  0  0  0  0  0  0  0  0
   56.9186   33.7923   44.9571 H   0  0  0  0  0  0  0  0  0  0  0  0
   55.9319   30.4855   43.6944 H   0  0  0  0  0  0  0  0  0  0  0  0
   54.8488   28.4467   44.6065 H   0  0  0  0  0  0  0  0  0  0  0  0
   58.4968   27.4330   46.6853 H   0  0  0  0  0  0  0  0  0  0  0  0
   59.3863   31.0913   48.4380 H   0  0  0  0  0  0  0  0  0  0  0  0
  1  2  1  0
  2  3  2  0
  2  4  1  0
  4  5  1  0
  5  6  2  0
  6  7  1  0
  7  8  2  0
  8  9  1  0
  9 10  1  0
 10 11  1  6
 10 12  1  0
 12 13  1  0
 13 14  2  0
 14 15  1  0
 15 16  2  0
 16 17  1  0
 17 18  2  0
 18 19  1  0
 19 20  1  0
 20 21  2  0
 21 22  1  0
 22 23  2  0
 23 24  1  0
 24 25  2  0
 24 26  1  0
 23 27  1  0
 27 28  2  0
  9 29  2  0
 29  5  1  0
 28 10  1  0
 18 13  1  0
 28 20  1  0
  1 30  1  0
  1 31  1  0
  1 32  1  0
  4 33  1  0
  6 34  1  0
  7 35  1  0
  8 36  1  0
 11 37  1  0
 11 38  1  0
 11 39  1  0
 14 40  1  0
 15 41  1  0
 16 42  1  0
 17 43  1  0
 21 44  1  0
 22 45  1  0
 27 46  1  0
 29 47  1  0
M  CHG  1  26  -1
M  END
>  <UniqueID>  (8) 
7

>  <SMILES>  (8) 
CC(=O)Nc1cccc([C@]2(C)Oc3ccccc3Sc3ccc(C(=O)[O-])cc32)c1

>  <Energy>  (8) 
74.76200997356145

>  <Genealogy>  (8) 
CC(=O)Nc1cccc(C2(C)Oc3ccccc3Sc3ccc(C(=O)[O-])cc32)c1 (protonated)
CC(=O)Nc1cccc([C@]2(C)Oc3ccccc3Sc3ccc(C(=O)[O-])cc32)c1 (chirality)
CC(=O)Nc1cccc([C@]2(C)Oc3ccccc3Sc3ccc(C(=O)[O-])cc32)c1 (3D coordinates assigned)
CC(=O)Nc1cccc([C@]2(C)Oc3ccccc3Sc3ccc(C(=O)[O-])cc32)c1 (nonaromatic ring conformer: 74.76200997356145 kcal/mol)

>  <smiles>  (8) 
CC(=O)Nc1cccc(C2(C)Oc3ccccc3Sc3ccc(C(=O)O)cc32)c1

>  <score_type>  (8) 
oracle

>  <origin>  (8) 
adg

>  <m_score__min__energy>  (8) 
-11.02

>  <m_primary>  (8) 
energy

$$$$
8:0
     RDKit          3D

 56 59  0  0  0  0  0  0  0  0999 V2000
   56.1930   21.9740   42.6230 N   0  0  0  0  0  0  0  0  0  0  0  0
   56.9830   22.0440   43.6490 C   0  0  0  0  0  0  0  0  0  0  0  0
   57.7580   20.8930   44.0010 N   0  0  0  0  0  0  0  0  0  0  0  0
   57.0920   23.2900   44.4500 C   0  0  0  0  0  0  0  0  0  0  0  0
   55.9520   24.0550   44.7530 C   0  0  0  0  0  0  0  0  0  0  0  0
   56.0610   25.2090   45.5340 C   0  0  0  0  0  0  0  0  0  0  0  0
   57.3100   25.6150   46.0310 C   0  0  0  0  0  0  0  0  0  0  0  0
   57.4140   26.8160   46.9330 C   0  0  0  0  0  0  0  0  0  0  0  0
   58.8110   27.2070   47.1350 N   0  0  0  0  0  0  0  0  0  0  0  0
   59.5580   28.0980   46.2950 C   0  0  0  0  0  0  0  0  0  0  0  0
   60.5230   27.6470   45.6250 O   0  0  0  0  0  0  0  0  0  0  0  0
   59.1850   29.5130   46.1510 C   0  0  0  0  0  0  0  0  0  0  0  0
   58.2800   29.9830   45.2030 C   0  0  0  0  0  0  0  0  0  0  0  0
   58.1570   31.3300   45.4640 C   0  0  0  0  0  0  0  0  0  0  0  0
   57.3780   32.2990   44.8360 C   0  0  0  0  0  0  0  0  0  0  0  0
   57.4610   33.6200   45.3150 C   0  0  0  0  0  0  0  0  0  0  0  0
   56.7250   34.5960   44.7300 F   0  0  0  0  0  0  0  0  0  0  0  0
   58.3120   33.9340   46.3990 C   0  0  0  0  0  0  0  0  0  0  0  0
   59.0830   32.9330   47.0170 C   0  0  0  0  0  0  0  0  0  0  0  0
   58.9770   31.6280   46.5250 C   0  0  0  0  0  0  0  0  0  0  0  0
   59.6120   30.5180   46.9600 N   0  0  0  0  0  0  0  0  0  0  0  0
   60.6450   30.4380   48.0010 C   0  0  0  0  0  0  0  0  0  0  0  0
   60.1070   29.8070   49.2620 C   0  0  0  0  0  0  0  0  0  0  0  0
   60.4060   28.6110   49.5290 O   0  0  0  0  0  0  0  0  0  0  0  0
   59.2900   30.5630   50.1830 N   0  0  0  0  0  0  0  0  0  0  0  0
   59.2580   32.0320   50.1110 C   0  0  0  0  0  0  0  0  0  0  0  0
   58.4480   32.6230   51.2730 C   0  0  0  0  0  0  0  0  0  0  0  0
   57.1480   31.9500   51.3860 N   0  0  0  0  0  0  0  0  0  0  0  0
   57.2540   30.4900   51.6010 C   0  0  0  0  0  0  0  0  0  0  0  0
   58.6510   29.8970   51.3240 C   0  0  0  0  0  0  0  0  0  0  0  0
   58.4530   24.8670   45.7080 C   0  0  0  0  0  0  0  0  0  0  0  0
   58.3440   23.7110   44.9330 C   0  0  0  0  0  0  0  0  0  0  0  0
   56.3010   22.5810   41.7810 H   0  0  0  0  0  0  0  0  0  0  0  0
   58.3370   20.8700   44.8720 H   0  0  0  0  0  0  0  0  0  0  0  0
   57.6970   20.0210   43.4230 H   0  0  0  0  0  0  0  0  0  0  0  0
   54.9679   23.7433   44.3730 H   0  0  0  0  0  0  0  0  0  0  0  0
   55.1631   25.8026   45.7607 H   0  0  0  0  0  0  0  0  0  0  0  0
   56.8687   27.6555   46.4771 H   0  0  0  0  0  0  0  0  0  0  0  0
   56.9800   26.5567   47.9099 H   0  0  0  0  0  0  0  0  0  0  0  0
   57.7733   29.4044   44.4165 H   0  0  0  0  0  0  0  0  0  0  0  0
   56.7197   32.0404   43.9935 H   0  0  0  0  0  0  0  0  0  0  0  0
   58.3718   34.9705   46.7625 H   0  0  0  0  0  0  0  0  0  0  0  0
   59.7483   33.1690   47.8606 H   0  0  0  0  0  0  0  0  0  0  0  0
   61.4838   29.8324   47.6273 H   0  0  0  0  0  0  0  0  0  0  0  0
   60.9771   31.4593   48.2389 H   0  0  0  0  0  0  0  0  0  0  0  0
   60.2874   32.4168   50.1580 H   0  0  0  0  0  0  0  0  0  0  0  0
   58.7791   32.3258   49.1653 H   0  0  0  0  0  0  0  0  0  0  0  0
   59.0081   32.4889   52.2102 H   0  0  0  0  0  0  0  0  0  0  0  0
   58.2800   33.6933   51.0825 H   0  0  0  0  0  0  0  0  0  0  0  0
   56.6070   32.1280   50.5050 H   0  0  0  0  0  0  0  0  0  0  0  0
   56.9935   30.2782   52.6485 H   0  0  0  0  0  0  0  0  0  0  0  0
   56.5686   30.0195   50.8807 H   0  0  0  0  0  0  0  0  0  0  0  0
   59.2809   30.0291   52.2161 H   0  0  0  0  0  0  0  0  0  0  0  0
   58.5368   28.8290   51.0865 H   0  0  0  0  0  0  0  0  0  0  0  0
   59.4400   25.1935   46.0675 H   0  0  0  0  0  0  0  0  0  0  0  0
   59.2446   23.1247   44.6982 H   0  0  0  0  0  0  0  0  0  0  0  0
  1  2  2  3
  2  3  1  0
  2  4  1  0
  4  5  2  0
  5  6  1  0
  6  7  2  0
  7  8  1  0
  8  9  1  0
  9 10  1  0
 10 11  2  0
 10 12  1  0
 12 13  2  0
 13 14  1  0
 14 15  2  0
 15 16  1  0
 16 17  1  0
 16 18  2  0
 18 19  1  0
 19 20  2  0
 20 21  1  0
 21 22  1  0
 22 23  1  0
 23 24  2  0
 23 25  1  0
 25 26  1  0
 26 27  1  0
 27 28  1  0
 28 29  1  0
 29 30  1  0
  7 31  1  0
 31 32  2  0
 32  4  1  0
 21 12  1  0
 30 25  1  0
 20 14  1  0
  1 33  1  0
  3 34  1  0
  3 35  1  0
  5 36  1  0
  6 37  1  0
  8 38  1  0
  8 39  1  0
 13 40  1  0
 15 41  1  0
 18 42  1  0
 19 43  1  0
 22 44  1  0
 22 45  1  0
 26 46  1  0
 26 47  1  0
 27 48  1  0
 27 49  1  0
 28 50  1  0
 29 51  1  0
 29 52  1  0
 30 53  1  0
 30 54  1  0
 31 55  1  0
 32 56  1  0
M  CHG  1   9  -1
M  END
>  <UniqueID>  (9) 
8

>  <SMILES>  (9) 
N=C(N)c1ccc(C[N-]C(=O)c2cc3cc(F)ccc3n2CC(=O)N2CCNCC2)cc1

>  <Energy>  (9) 
100.94171028155397

>  <Genealogy>  (9) 
N=C(N)c1ccc(C[N-]C(=O)c2cc3cc(F)ccc3n2CC(=O)N2CCNCC2)cc1 (protonated)
N=C(N)c1ccc(C[N-]C(=O)c2cc3cc(F)ccc3n2CC(=O)N2CCNCC2)cc1 (3D coordinates assigned)
N=C(N)c1ccc(C[N-]C(=O)c2cc3cc(F)ccc3n2CC(=O)N2CCNCC2)cc1 (nonaromatic ring conformer: 100.94171028155397 kcal/mol)

>  <smiles>  (9) 
N=C(N)c1ccc(CNC(=O)c2cc3cc(F)ccc3n2CC(=O)N2CCNCC2)cc1

>  <score_type>  (9) 
oracle

>  <origin>  (9) 
adg

>  <m_score__min__energy>  (9) 
-10.68

>  <m_primary>  (9) 
energy

$$$$
9:0
     RDKit          3D

 68 70  0  0  0  0  0  0  0  0999 V2000
   62.3060   34.2280   53.4960 O   0  0  0  0  0  0  0  0  0  0  0  0
   61.6190   33.3790   52.8600 C   0  0  0  0  0  0  0  0  0  0  0  0
   60.6320   32.5140   53.6090 C   0  0  0  0  0  0  0  0  0  0  0  0
   59.2060   33.0920   53.6620 C   0  0  0  0  0  0  0  0  0  0  0  0
   58.5360   33.2050   52.2850 C   0  0  0  0  0  0  0  0  0  0  0  0
   58.6620   32.0200   51.5810 F   0  0  0  0  0  0  0  0  0  0  0  0
   59.1500   34.2170   51.5650 F   0  0  0  0  0  0  0  0  0  0  0  0
   57.1940   33.5110   52.4250 F   0  0  0  0  0  0  0  0  0  0  0  0
   61.8410   33.2120   51.4410 N   0  0  0  0  0  0  0  0  0  0  0  0
   61.4380   31.9790   50.7430 C   0  0  0  0  0  0  0  0  0  0  0  0
   62.4960   31.5210   49.7210 C   0  0  0  0  0  0  0  0  0  0  0  0
   63.3380   32.6710   49.1050 C   0  0  0  0  0  0  0  0  0  0  0  0
   63.6810   32.3660   47.7000 N   0  0  0  0  0  0  0  0  0  0  0  0
   62.8440   31.2880   47.1350 C   0  0  0  0  0  0  0  0  0  0  0  0
   61.4070   31.7780   46.9370 C   0  0  0  0  0  0  0  0  0  0  0  0
   60.4130   30.6470   47.0310 C   0  0  0  0  0  0  0  0  0  0  0  0
   59.8220   30.3200   48.2570 C   0  0  0  0  0  0  0  0  0  0  0  0
   58.9070   29.2720   48.3380 C   0  0  0  0  0  0  0  0  0  0  0  0
   58.5610   28.5370   47.1990 C   0  0  0  0  0  0  0  0  0  0  0  0
   57.6480   27.4900   47.3450 O   0  0  0  0  0  0  0  0  0  0  0  0
   59.1370   28.8650   45.9500 C   0  0  0  0  0  0  0  0  0  0  0  0
   58.8020   28.0990   44.6920 C   0  0  0  0  0  0  0  0  0  0  0  0
   58.0260   28.9160   43.7570 N   0  0  0  0  0  0  0  0  0  0  0  0
   56.5830   29.5500   44.4970 S   0  0  0  0  0  0  0  0  0  0  0  0
   55.8420   28.4720   45.2450 O   0  0  0  0  0  0  0  0  0  0  0  0
   55.6880   30.1000   43.4240 O   0  0  0  0  0  0  0  0  0  0  0  0
   57.0260   30.8410   45.5790 N   0  0  0  0  0  0  0  0  0  0  0  0
   57.3430   32.0670   44.8390 C   0  0  0  0  0  0  0  0  0  0  0  0
   58.1440   33.0260   45.6830 C   0  0  0  0  0  0  0  0  0  0  0  0
   58.0170   33.0100   47.0820 C   0  0  0  0  0  0  0  0  0  0  0  0
   58.7910   33.8640   47.8730 C   0  0  0  0  0  0  0  0  0  0  0  0
   59.6890   34.7510   47.2730 C   0  0  0  0  0  0  0  0  0  0  0  0
   59.8190   34.7780   45.8810 C   0  0  0  0  0  0  0  0  0  0  0  0
   59.0560   33.9180   45.0860 C   0  0  0  0  0  0  0  0  0  0  0  0
   59.2080   33.9460   43.7370 F   0  0  0  0  0  0  0  0  0  0  0  0
   60.0540   29.9290   45.8800 C   0  0  0  0  0  0  0  0  0  0  0  0
   62.5780   34.0040   49.1960 C   0  0  0  0  0  0  0  0  0  0  0  0
   62.3390   34.3610   50.6690 C   0  0  0  0  0  0  0  0  0  0  0  0
   60.5889   31.5318   53.1155 H   0  0  0  0  0  0  0  0  0  0  0  0
   60.9885   32.4512   54.6477 H   0  0  0  0  0  0  0  0  0  0  0  0
   58.5892   32.4381   54.2960 H   0  0  0  0  0  0  0  0  0  0  0  0
   59.2866   34.1120   54.0658 H   0  0  0  0  0  0  0  0  0  0  0  0
   61.2939   31.1812   51.4865 H   0  0  0  0  0  0  0  0  0  0  0  0
   60.5063   32.1874   50.1966 H   0  0  0  0  0  0  0  0  0  0  0  0
   63.1824   30.8252   50.2258 H   0  0  0  0  0  0  0  0  0  0  0  0
   61.9462   31.0563   48.8893 H   0  0  0  0  0  0  0  0  0  0  0  0
   64.2718   32.7636   49.6790 H   0  0  0  0  0  0  0  0  0  0  0  0
   64.6780   32.0460   47.6570 H   0  0  0  0  0  0  0  0  0  0  0  0
   63.2585   30.9780   46.1644 H   0  0  0  0  0  0  0  0  0  0  0  0
   62.8386   30.4371   47.8321 H   0  0  0  0  0  0  0  0  0  0  0  0
   61.1743   32.5223   47.7128 H   0  0  0  0  0  0  0  0  0  0  0  0
   61.3307   32.2185   45.9319 H   0  0  0  0  0  0  0  0  0  0  0  0
   60.0808   30.8924   49.1600 H   0  0  0  0  0  0  0  0  0  0  0  0
   58.4522   29.0201   49.3074 H   0  0  0  0  0  0  0  0  0  0  0  0
   56.7000   27.5260   46.9920 H   0  0  0  0  0  0  0  0  0  0  0  0
   59.7370   27.7875   44.2035 H   0  0  0  0  0  0  0  0  0  0  0  0
   58.1960   27.2245   44.9714 H   0  0  0  0  0  0  0  0  0  0  0  0
   57.9262   31.8045   43.9440 H   0  0  0  0  0  0  0  0  0  0  0  0
   56.3988   32.5569   44.5590 H   0  0  0  0  0  0  0  0  0  0  0  0
   57.3038   32.3210   47.5581 H   0  0  0  0  0  0  0  0  0  0  0  0
   58.6932   33.8379   48.9683 H   0  0  0  0  0  0  0  0  0  0  0  0
   60.2932   35.4275   47.8954 H   0  0  0  0  0  0  0  0  0  0  0  0
   60.5242   35.4785   45.4099 H   0  0  0  0  0  0  0  0  0  0  0  0
   60.4956   30.2020   44.9102 H   0  0  0  0  0  0  0  0  0  0  0  0
   63.1720   34.7974   48.7188 H   0  0  0  0  0  0  0  0  0  0  0  0
   61.6103   33.9085   48.6817 H   0  0  0  0  0  0  0  0  0  0  0  0
   63.2875   34.7011   51.1103 H   0  0  0  0  0  0  0  0  0  0  0  0
   61.5759   35.1523   50.7072 H   0  0  0  0  0  0  0  0  0  0  0  0
  1  2  2  0
  2  3  1  0
  3  4  1  0
  4  5  1  0
  5  6  1  0
  5  7  1  0
  5  8  1  0
  2  9  1  0
  9 10  1  0
 10 11  1  0
 11 12  1  0
 12 13  1  0
 13 14  1  0
 14 15  1  0
 15 16  1  0
 16 17  2  0
 17 18  1  0
 18 19  2  0
 19 20  1  0
 19 21  1  0
 21 22  1  0
 22 23  1  0
 23 24  1  0
 24 25  2  0
 24 26  2  0
 24 27  1  0
 27 28  1  0
 28 29  1  0
 29 30  2  0
 30 31  1  0
 31 32  2  0
 32 33  1  0
 33 34  2  0
 34 35  1  0
 21 36  2  0
 12 37  1  0
 37 38  1  0
 38  9  1  0
 36 16  1  0
 34 29  1  0
  3 39  1  0
  3 40  1  0
  4 41  1  0
  4 42  1  0
 10 43  1  0
 10 44  1  0
 11 45  1  0
 11 46  1  0
 12 47  1  0
 13 48  1  0
 14 49  1  0
 14 50  1  0
 15 51  1  0
 15 52  1  0
 17 53  1  0
 18 54  1  0
 20 55  1  0
 22 56  1  0
 22 57  1  0
 28 58  1  0
 28 59  1  0
 30 60  1  0
 31 61  1  0
 32 62  1  0
 33 63  1  0
 36 64  1  0
 37 65  1  0
 37 66  1  0
 38 67  1  0
 38 68  1  0
M  CHG  2  23  -1  27  -1
M  END
>  <UniqueID>  (10) 
9

>  <SMILES>  (10) 
O=C(CCC(F)(F)F)N1CCC(NCCc2ccc(O)c(C[N-]S(=O)(=O)[N-]Cc3ccccc3F)c2)CC1

>  <Energy>  (10) 
66.06728018528435

>  <Genealogy>  (10) 
O=C(CCC(F)(F)F)N1CCC(NCCc2ccc(O)c(C[N-]S(=O)(=O)[N-]Cc3ccccc3F)c2)CC1 (protonated)
O=C(CCC(F)(F)F)N1CCC(NCCc2ccc(O)c(C[N-]S(=O)(=O)[N-]Cc3ccccc3F)c2)CC1 (3D coordinates assigned)
O=C(CCC(F)(F)F)N1CCC(NCCc2ccc(O)c(C[N-]S(=O)(=O)[N-]Cc3ccccc3F)c2)CC1 (nonaromatic ring conformer: 66.06728018528435 kcal/mol)

>  <smiles>  (10) 
O=C(CCC(F)(F)F)N1CCC(NCCc2ccc(O)c(CNS(=O)(=O)NCc3ccccc3F)c2)CC1

>  <score_type>  (10) 
oracle

>  <origin>  (10) 
adg

>  <m_score__min__energy>  (10) 
-12.4

>  <m_primary>  (10) 
energy

$$$$
10:0
     RDKit          3D

 39 42  0  0  0  0  0  0  0  0999 V2000
   56.8096   30.8435   43.2274 H   0  0  0  0  0  0  0  0  0  0  0  0
   57.2510   31.3070   44.1220 C   0  0  0  0  0  0  0  0  0  0  0  0
   57.4010   32.5870   44.2710 N   0  0  0  0  0  0  0  0  0  0  0  0
   57.9980   32.7850   45.5430 C   0  0  0  0  0  0  0  0  0  0  0  0
   58.3370   34.0120   46.1110 C   0  0  0  0  0  0  0  0  0  0  0  0
   58.1504   34.9536   45.5739 H   0  0  0  0  0  0  0  0  0  0  0  0
   58.9230   34.0140   47.3870 C   0  0  0  0  0  0  0  0  0  0  0  0
   59.1989   34.9672   47.8616 H   0  0  0  0  0  0  0  0  0  0  0  0
   59.1590   32.8000   48.0620 C   0  0  0  0  0  0  0  0  0  0  0  0
   59.6206   32.8110   49.0604 H   0  0  0  0  0  0  0  0  0  0  0  0
   58.8090   31.5760   47.4690 C   0  0  0  0  0  0  0  0  0  0  0  0
   58.9885   30.6249   47.9917 H   0  0  0  0  0  0  0  0  0  0  0  0
   58.2250   31.5960   46.1940 C   0  0  0  0  0  0  0  0  0  0  0  0
   57.7420   30.5360   45.2950 C   0  0  0  0  0  0  0  0  0  0  0  0
   57.7670   29.1930   45.5000 C   0  0  0  0  0  0  0  0  0  0  0  0
   56.5880   28.5410   45.6110 N   0  0  0  0  0  0  0  0  0  0  0  0
   56.4920   27.2170   45.8650 C   0  0  0  0  0  0  0  0  0  0  0  0
   55.3430   26.7010   45.9240 O   0  0  0  0  0  0  0  0  0  0  0  0
   57.6190   26.4540   46.0600 N   0  0  0  0  0  0  0  0  0  0  0  0
   57.4420   25.0520   46.5290 C   0  0  0  0  0  0  0  0  0  0  0  0
   58.3915   24.6972   46.9564 H   0  0  0  0  0  0  0  0  0  0  0  0
   56.6406   25.0427   47.2824 H   0  0  0  0  0  0  0  0  0  0  0  0
   57.0360   24.1250   45.3980 C   0  0  0  0  0  0  0  0  0  0  0  0
   55.7280   24.1930   44.8840 C   0  0  0  0  0  0  0  0  0  0  0  0
   55.0137   24.9163   45.3041 H   0  0  0  0  0  0  0  0  0  0  0  0
   55.3290   23.3490   43.8440 C   0  0  0  0  0  0  0  0  0  0  0  0
   54.3022   23.4062   43.4537 H   0  0  0  0  0  0  0  0  0  0  0  0
   56.2310   22.4340   43.3000 C   0  0  0  0  0  0  0  0  0  0  0  0
   55.9141   21.7685   42.4835 H   0  0  0  0  0  0  0  0  0  0  0  0
   57.5360   22.3630   43.7920 C   0  0  0  0  0  0  0  0  0  0  0  0
   58.2449   21.6419   43.3591 H   0  0  0  0  0  0  0  0  0  0  0  0
   57.9480   23.2050   44.8340 C   0  0  0  0  0  0  0  0  0  0  0  0
   59.6140   23.0870   45.3870 Cl  0  0  0  0  0  0  0  0  0  0  0  0
   58.8590   27.0250   45.8070 C   0  0  0  0  0  0  0  0  0  0  0  0
   59.9900   26.2880   45.7200 C   0  0  0  0  0  0  0  0  0  0  0  0
   59.9530   25.2018   45.8895 H   0  0  0  0  0  0  0  0  0  0  0  0
   60.9467   26.7749   45.4798 H   0  0  0  0  0  0  0  0  0  0  0  0
   58.9500   28.4250   45.5810 C   0  0  0  0  0  0  0  0  0  0  0  0
   60.0800   28.9640   45.4290 O   0  0  0  0  0  0  0  0  0  0  0  0
  1  2  1  0
  2  3  2  0
  3  4  1  0
  4  5  2  0
  5  6  1  0
  5  7  1  0
  7  8  1  0
  7  9  2  0
  9 10  1  0
  9 11  1  0
 11 12  1  0
 11 13  2  0
 13 14  1  0
 14 15  2  0
 15 16  1  0
 16 17  1  0
 17 18  2  0
 17 19  1  0
 19 20  1  0
 20 21  1  0
 20 22  1  0
 20 23  1  0
 23 24  2  0
 24 25  1  0
 24 26  1  0
 26 27  1  0
 26 28  2  0
 28 29  1  0
 28 30  1  0
 30 31  1  0
 30 32  2  0
 32 33  1  0
 19 34  1  0
 34 35  2  0
 35 36  1  0
 35 37  1  0
 34 38  1  0
 38 39  2  0
 14  2  1  0
 38 15  1  0
 13  4  1  0
 32 23  1  0
M  CHG  1  16  -1
M  END
>  <UniqueID>  (11) 
10

>  <SMILES>  (11) 
C=c1c(=O)/c(=C2\C=Nc3ccccc32)[n-]c(=O)n1Cc1ccccc1Cl

>  <Energy>  (11) 
99.56504072519081

>  <Genealogy>  (11) 
C=c1c(=O)c(=C2C=Nc3ccccc32)[n-]c(=O)n1Cc1ccccc1Cl (protonated)
C=c1c(=O)/c(=C2\C=Nc3ccccc32)[n-]c(=O)n1Cc1ccccc1Cl (cis-trans isomerization)
C=c1c(=O)/c(=C2\C=Nc3ccccc32)[n-]c(=O)n1Cc1ccccc1Cl (3D coordinates assigned)
C=c1c(=O)/c(=C2\C=Nc3ccccc32)[n-]c(=O)n1Cc1ccccc1Cl (nonaromatic ring conformer: 99.56504072519081 kcal/mol)

>  <smiles>  (11) 
C=c1c(=O)c(=C2C=Nc3ccccc32)[nH]c(=O)n1Cc1ccccc1Cl

>  <score_type>  (11) 
oracle

>  <origin>  (11) 
adg

>  <m_score__min__energy>  (11) 
-10.66

>  <m_primary>  (11) 
energy

$$$$
11:0
     RDKit          3D

 51 53  0  0  0  0  0  0  0  0999 V2000
   60.0390   27.3460   47.1620 C   0  0  0  0  0  0  0  0  0  0  0  0
   59.4260   28.1860   46.3020 C   0  0  0  0  0  0  0  0  0  0  0  0
   59.7650   29.5700   46.2990 C   0  0  0  0  0  0  0  0  0  0  0  0
   60.9560   30.1350   47.0390 C   0  0  0  0  0  0  0  0  0  0  0  0
   60.8010   31.5880   47.2560 N   0  0  0  0  0  0  0  0  0  0  0  0
   59.9650   31.8540   48.4360 C   0  0  0  0  0  0  0  0  0  0  0  0
   59.6070   33.3510   48.5030 C   0  0  0  0  0  0  0  0  0  0  0  0
   60.6330   34.2280   47.8910 N   0  0  0  0  0  0  0  0  0  0  0  0
   60.3080   34.5830   46.4980 C   0  0  0  0  0  0  0  0  0  0  0  0
   61.9930   33.6680   48.0150 C   0  0  0  0  0  0  0  0  0  0  0  0
   62.1140   32.2620   47.3860 C   0  0  0  0  0  0  0  0  0  0  0  0
   58.9490   30.4620   45.6800 N   0  0  0  0  0  0  0  0  0  0  0  0
   57.8150   30.1010   45.0330 C   0  0  0  0  0  0  0  0  0  0  0  0
   56.9770   31.1470   44.4220 C   0  0  0  0  0  0  0  0  0  0  0  0
   55.7190   31.0730   44.4810 O   0  0  0  0  0  0  0  0  0  0  0  0
   57.5940   32.2300   43.7840 O   0  0  0  0  0  0  0  0  0  0  0  0
   58.0790   33.3790   44.4760 C   0  0  0  0  0  0  0  0  0  0  0  0
   57.2100   33.6810   45.6920 C   0  0  0  0  0  0  0  0  0  0  0  0
   57.4840   28.7470   44.9340 C   0  0  0  0  0  0  0  0  0  0  0  0
   58.3280   27.7610   45.4810 C   0  0  0  0  0  0  0  0  0  0  0  0
   58.0440   26.4710   45.1590 C   0  0  0  0  0  0  0  0  0  0  0  0
   57.3690   25.4920   46.0350 C   0  0  0  0  0  0  0  0  0  0  0  0
   57.9140   24.3330   46.4480 N   0  0  0  0  0  0  0  0  0  0  0  0
   56.9070   23.7350   47.1200 C   0  0  0  0  0  0  0  0  0  0  0  0
   57.0350   22.6140   47.6770 O   0  0  0  0  0  0  0  0  0  0  0  0
   55.7500   24.4300   47.1440 N   0  0  0  0  0  0  0  0  0  0  0  0
   56.0540   25.5360   46.4440 C   0  0  0  0  0  0  0  0  0  0  0  0
   55.1410   26.5580   46.1940 O   0  0  0  0  0  0  0  0  0  0  0  0
   59.7791   26.2772   47.1663 H   0  0  0  0  0  0  0  0  0  0  0  0
   60.7986   27.7301   47.8587 H   0  0  0  0  0  0  0  0  0  0  0  0
   61.0458   29.6329   48.0136 H   0  0  0  0  0  0  0  0  0  0  0  0
   61.8588   29.9643   46.4342 H   0  0  0  0  0  0  0  0  0  0  0  0
   59.0408   31.2613   48.3685 H   0  0  0  0  0  0  0  0  0  0  0  0
   60.5220   31.5755   49.3427 H   0  0  0  0  0  0  0  0  0  0  0  0
   58.6550   33.5061   47.9743 H   0  0  0  0  0  0  0  0  0  0  0  0
   59.5398   33.6222   49.5669 H   0  0  0  0  0  0  0  0  0  0  0  0
   59.5652   35.3943   46.4901 H   0  0  0  0  0  0  0  0  0  0  0  0
   61.2206   34.9163   45.9821 H   0  0  0  0  0  0  0  0  0  0  0  0
   59.8956   33.7033   45.9821 H   0  0  0  0  0  0  0  0  0  0  0  0
   62.6996   34.3426   47.5094 H   0  0  0  0  0  0  0  0  0  0  0  0
   62.2194   33.5748   49.0874 H   0  0  0  0  0  0  0  0  0  0  0  0
   62.5619   32.3594   46.3861 H   0  0  0  0  0  0  0  0  0  0  0  0
   62.7417   31.6497   48.0501 H   0  0  0  0  0  0  0  0  0  0  0  0
   59.1113   33.1924   44.8070 H   0  0  0  0  0  0  0  0  0  0  0  0
   58.0473   34.2422   43.7949 H   0  0  0  0  0  0  0  0  0  0  0  0
   57.7823   33.4821   46.6101 H   0  0  0  0  0  0  0  0  0  0  0  0
   56.9052   34.7377   45.6716 H   0  0  0  0  0  0  0  0  0  0  0  0
   56.3156   33.0410   45.6716 H   0  0  0  0  0  0  0  0  0  0  0  0
   56.5560   28.4486   44.4243 H   0  0  0  0  0  0  0  0  0  0  0  0
   58.3432   26.1262   44.1582 H   0  0  0  0  0  0  0  0  0  0  0  0
   54.3410   26.7100   46.7960 H   0  0  0  0  0  0  0  0  0  0  0  0
  1  2  2  0
  2  3  1  0
  3  4  1  0
  4  5  1  0
  5  6  1  0
  6  7  1  0
  7  8  1  0
  8  9  1  0
  8 10  1  0
 10 11  1  0
  3 12  2  0
 12 13  1  0
 13 14  1  0
 14 15  2  0
 14 16  1  0
 16 17  1  0
 17 18  1  0
 13 19  2  0
 19 20  1  0
 20 21  2  3
 21 22  1  0
 22 23  1  0
 23 24  1  0
 24 25  2  0
 24 26  1  0
 26 27  1  0
 27 28  1  0
 20  2  1  0
 27 22  2  0
 11  5  1  0
  1 29  1  0
  1 30  1  0
  4 31  1  0
  4 32  1  0
  6 33  1  0
  6 34  1  0
  7 35  1  0
  7 36  1  0
  9 37  1  0
  9 38  1  0
  9 39  1  0
 10 40  1  0
 10 41  1  0
 11 42  1  0
 11 43  1  0
 17 44  1  0
 17 45  1  0
 18 46  1  0
 18 47  1  0
 18 48  1  0
 19 49  1  0
 21 50  1  0
 28 51  1  0
M  CHG  2  23  -1  26  -1
M  END
>  <UniqueID>  (12) 
11

>  <SMILES>  (12) 
C=c1c(CN2CCN(C)CC2)nc(C(=O)OCC)cc1=Cc1[n-]c(=O)[n-]c1O

>  <Energy>  (12) 
109.69964612925023

>  <Genealogy>  (12) 
C=c1c(CN2CCN(C)CC2)nc(C(=O)OCC)cc1=Cc1[n-]c(=O)[n-]c1O (protonated)
C=c1c(CN2CCN(C)CC2)nc(C(=O)OCC)cc1=Cc1[n-]c(=O)[n-]c1O (3D coordinates assigned)
C=c1c(CN2CCN(C)CC2)nc(C(=O)OCC)cc1=Cc1[n-]c(=O)[n-]c1O (nonaromatic ring conformer: 109.69964612925023 kcal/mol)

>  <smiles>  (12) 
C=c1c(CN2CCN(C)CC2)nc(C(=O)OCC)cc1=Cc1[nH]c(=O)[nH]c1O

>  <score_type>  (12) 
oracle

>  <origin>  (12) 
adg

>  <m_score__min__energy>  (12) 
-13.08

>  <m_primary>  (12) 
energy

$$$$
12:0
     RDKit          3D

 42 44  0  0  0  0  0  0  0  0999 V2000
   55.1480   29.3290   44.8650 O   0  0  0  0  0  0  0  0  0  0  0  0
   56.3120   29.7570   44.6480 C   0  0  0  0  0  0  0  0  0  0  0  0
   57.4750   28.8010   44.7730 C   0  0  0  0  0  0  0  0  0  0  0  0
   57.5440   28.1180   46.1520 C   0  0  0  0  0  0  0  0  0  0  0  0
   57.2620   26.6500   46.0560 C   0  0  0  0  0  0  0  0  0  0  0  0
   58.2130   25.7190   45.8180 N   0  0  0  0  0  0  0  0  0  0  0  0
   57.5090   24.5840   45.6120 C   0  0  0  0  0  0  0  0  0  0  0  0
   58.1040   23.3710   45.2800 O   0  0  0  0  0  0  0  0  0  0  0  0
   56.1760   24.7550   45.7130 N   0  0  0  0  0  0  0  0  0  0  0  0
   54.9440   23.6470   45.2140 S   0  0  0  0  0  0  0  0  0  0  0  0
   53.8460   24.3910   44.5060 O   0  0  0  0  0  0  0  0  0  0  0  0
   55.5190   22.6330   44.2650 O   0  0  0  0  0  0  0  0  0  0  0  0
   54.3170   22.8400   46.6470 C   0  0  0  0  0  0  0  0  0  0  0  0
   53.0810   22.1800   46.5920 C   0  0  0  0  0  0  0  0  0  0  0  0
   52.6050   21.4830   47.7060 C   0  0  0  0  0  0  0  0  0  0  0  0
   53.3620   21.4400   48.8810 C   0  0  0  0  0  0  0  0  0  0  0  0
   54.5980   22.0920   48.9400 C   0  0  0  0  0  0  0  0  0  0  0  0
   55.0780   22.7870   47.8240 C   0  0  0  0  0  0  0  0  0  0  0  0
   56.0210   26.0590   45.9780 C   0  0  0  0  0  0  0  0  0  0  0  0
   54.7920   26.7020   46.0890 O   0  0  0  0  0  0  0  0  0  0  0  0
   56.4940   31.1700   44.4770 N   0  0  0  0  0  0  0  0  0  0  0  0
   57.4230   32.0290   45.1550 C   0  0  0  0  0  0  0  0  0  0  0  0
   58.1450   31.5190   46.2410 C   0  0  0  0  0  0  0  0  0  0  0  0
   59.0140   32.3440   46.9640 C   0  0  0  0  0  0  0  0  0  0  0  0
   59.1530   33.6910   46.6140 C   0  0  0  0  0  0  0  0  0  0  0  0
   58.4160   34.2130   45.5490 C   0  0  0  0  0  0  0  0  0  0  0  0
   57.5460   33.3890   44.8300 C   0  0  0  0  0  0  0  0  0  0  0  0
   57.3750   28.0238   44.0010 H   0  0  0  0  0  0  0  0  0  0  0  0
   58.3981   29.3860   44.6478 H   0  0  0  0  0  0  0  0  0  0  0  0
   58.5509   28.2612   46.5711 H   0  0  0  0  0  0  0  0  0  0  0  0
   56.7800   28.5731   46.7995 H   0  0  0  0  0  0  0  0  0  0  0  0
   57.6110   22.6930   44.7120 H   0  0  0  0  0  0  0  0  0  0  0  0
   52.4839   22.2109   45.6687 H   0  0  0  0  0  0  0  0  0  0  0  0
   51.6342   20.9679   47.6585 H   0  0  0  0  0  0  0  0  0  0  0  0
   52.9856   20.8937   49.7584 H   0  0  0  0  0  0  0  0  0  0  0  0
   55.1934   22.0585   49.8643 H   0  0  0  0  0  0  0  0  0  0  0  0
   56.0538   23.2926   47.8701 H   0  0  0  0  0  0  0  0  0  0  0  0
   58.0284   30.4634   46.5276 H   0  0  0  0  0  0  0  0  0  0  0  0
   59.5878   31.9330   47.8077 H   0  0  0  0  0  0  0  0  0  0  0  0
   59.8418   34.3382   47.1768 H   0  0  0  0  0  0  0  0  0  0  0  0
   58.5203   35.2734   45.2759 H   0  0  0  0  0  0  0  0  0  0  0  0
   56.9536   33.8090   44.0038 H   0  0  0  0  0  0  0  0  0  0  0  0
  1  2  2  0
  2  3  1  0
  3  4  1  0
  4  5  1  0
  5  6  1  0
  6  7  2  0
  7  8  1  0
  7  9  1  0
  9 10  1  0
 10 11  2  0
 10 12  2  0
 10 13  1  0
 13 14  2  0
 14 15  1  0
 15 16  2  0
 16 17  1  0
 17 18  2  0
  9 19  1  0
 19 20  1  0
  2 21  1  0
 21 22  1  0
 22 23  2  0
 23 24  1  0
 24 25  2  0
 25 26  1  0
 26 27  2  0
 19  5  2  0
 27 22  1  0
 18 13  1  0
  3 28  1  0
  3 29  1  0
  4 30  1  0
  4 31  1  0
  8 32  1  0
 14 33  1  0
 15 34  1  0
 16 35  1  0
 17 36  1  0
 18 37  1  0
 23 38  1  0
 24 39  1  0
 25 40  1  0
 26 41  1  0
 27 42  1  0
M  CHG  2  20  -1  21  -1
M  END
>  <UniqueID>  (13) 
12

>  <SMILES>  (13) 
O=C(CCc1nc(O)n(S(=O)(=O)c2ccccc2)c1[O-])[N-]c1ccccc1

>  <Energy>  (13) 
75.83034020556956

>  <Genealogy>  (13) 
O=C(CCc1nc(O)n(S(=O)(=O)c2ccccc2)c1[O-])[N-]c1ccccc1 (protonated)
O=C(CCc1nc(O)n(S(=O)(=O)c2ccccc2)c1[O-])[N-]c1ccccc1 (3D coordinates assigned)
O=C(CCc1nc(O)n(S(=O)(=O)c2ccccc2)c1[O-])[N-]c1ccccc1 (optimized conformer: 75.83034020556956 kcal/mol)

>  <smiles>  (13) 
O=C(CCc1nc(O)n(S(=O)(=O)c2ccccc2)c1O)Nc1ccccc1

>  <score_type>  (13) 
oracle

>  <origin>  (13) 
adg

>  <m_score__min__energy>  (13) 
-13.199999999999999

>  <m_primary>  (13) 
energy

$$$$
13:0
     RDKit          3D

 52 55  0  0  0  0  0  0  0  0999 V2000
   55.6368   30.8441   50.9236 H   0  0  0  0  0  0  0  0  0  0  0  0
   54.6260   30.6920   51.3300 C   0  0  0  0  0  0  0  0  0  0  0  0
   53.7701   30.5800   50.6481 H   0  0  0  0  0  0  0  0  0  0  0  0
   54.4370   30.6430   52.6580 C   0  0  0  0  0  0  0  0  0  0  0  0
   53.2220   30.4570   53.3390 C   0  0  0  0  0  0  0  0  0  0  0  0
   51.9490   30.4660   52.8980 C   0  0  0  0  0  0  0  0  0  0  0  0
   51.1666   30.1863   53.6188 H   0  0  0  0  0  0  0  0  0  0  0  0
   51.5130   30.8170   51.5370 C   0  0  0  0  0  0  0  0  0  0  0  0
   51.7220   30.0580   50.4450 N   0  0  0  0  0  0  0  0  0  0  0  0
   51.2910   30.8410   49.4340 C   0  0  0  0  0  0  0  0  0  0  0  0
   51.3100   30.4690   48.2320 O   0  0  0  0  0  0  0  0  0  0  0  0
   50.8490   32.0610   49.8100 N   0  0  0  0  0  0  0  0  0  0  0  0
   51.0100   32.0320   51.1430 C   0  0  0  0  0  0  0  0  0  0  0  0
   50.7130   33.0990   51.9800 O   0  0  0  0  0  0  0  0  0  0  0  0
   53.5500   30.2670   54.6720 C   0  0  0  0  0  0  0  0  0  0  0  0
   52.8520   30.0515   55.4944 H   0  0  0  0  0  0  0  0  0  0  0  0
   54.9200   30.4000   54.7700 C   0  0  0  0  0  0  0  0  0  0  0  0
   55.7040   30.2950   56.0420 C   0  0  0  0  0  0  0  0  0  0  0  0
   55.0230   30.3862   56.9010 H   0  0  0  0  0  0  0  0  0  0  0  0
   56.2131   29.3206   56.0795 H   0  0  0  0  0  0  0  0  0  0  0  0
   56.4516   31.1010   56.0795 H   0  0  0  0  0  0  0  0  0  0  0  0
   55.4560   30.6430   53.5530 N   0  0  0  0  0  0  0  0  0  0  0  0
   56.8600   30.7700   53.2760 C   0  0  0  0  0  0  0  0  0  0  0  0
   57.4470   32.0390   53.1840 C   0  0  0  0  0  0  0  0  0  0  0  0
   56.8331   32.9386   53.3385 H   0  0  0  0  0  0  0  0  0  0  0  0
   58.8080   32.1670   52.8970 C   0  0  0  0  0  0  0  0  0  0  0  0
   59.2603   33.1672   52.8263 H   0  0  0  0  0  0  0  0  0  0  0  0
   59.6030   31.0250   52.6980 C   0  0  0  0  0  0  0  0  0  0  0  0
   61.0020   31.1560   52.3860 N   0  0  0  0  0  0  0  0  0  0  0  0
   61.6870   32.4300   52.6470 C   0  0  0  0  0  0  0  0  0  0  0  0
   61.1244   33.2420   52.1631 H   0  0  0  0  0  0  0  0  0  0  0  0
   61.7341   32.5750   53.7364 H   0  0  0  0  0  0  0  0  0  0  0  0
   63.1240   32.4290   52.1040 C   0  0  0  0  0  0  0  0  0  0  0  0
   63.4899   33.4650   52.0509 H   0  0  0  0  0  0  0  0  0  0  0  0
   63.7553   31.8335   52.7798 H   0  0  0  0  0  0  0  0  0  0  0  0
   63.1760   31.8290   50.7590 N   0  0  0  0  0  0  0  0  0  0  0  0
   64.0500   32.3510   49.7340 C   0  0  0  0  0  0  0  0  0  0  0  0
   63.9230   31.9540   48.5430 O   0  0  0  0  0  0  0  0  0  0  0  0
   65.1070   33.3680   50.0360 C   0  0  0  0  0  0  0  0  0  0  0  0
   65.2151   33.4720   51.1257 H   0  0  0  0  0  0  0  0  0  0  0  0
   66.0639   33.0423   49.6020 H   0  0  0  0  0  0  0  0  0  0  0  0
   64.8184   34.3367   49.6020 H   0  0  0  0  0  0  0  0  0  0  0  0
   62.4260   30.5930   50.4780 C   0  0  0  0  0  0  0  0  0  0  0  0
   61.6693   30.8020   49.7075 H   0  0  0  0  0  0  0  0  0  0  0  0
   63.1384   29.8295   50.1322 H   0  0  0  0  0  0  0  0  0  0  0  0
   61.7260   30.0620   51.7300 C   0  0  0  0  0  0  0  0  0  0  0  0
   61.0163   29.2711   51.4458 H   0  0  0  0  0  0  0  0  0  0  0  0
   62.4751   29.6507   52.4225 H   0  0  0  0  0  0  0  0  0  0  0  0
   59.0090   29.7540   52.7830 C   0  0  0  0  0  0  0  0  0  0  0  0
   59.6201   28.8537   52.6219 H   0  0  0  0  0  0  0  0  0  0  0  0
   57.6460   29.6260   53.0710 C   0  0  0  0  0  0  0  0  0  0  0  0
   57.0920   28.3920   53.1560 F   0  0  0  0  0  0  0  0  0  0  0  0
  1  2  1  0
  2  3  1  0
  2  4  2  0
  4  5  1  0
  5  6  2  0
  6  7  1  0
  6  8  1  0
  8  9  1  0
  9 10  1  0
 10 11  2  0
 10 12  1  0
 12 13  1  0
 13 14  1  0
  5 15  1  0
 15 16  1  0
 15 17  2  0
 17 18  1  0
 18 19  1  0
 18 20  1  0
 18 21  1  0
 17 22  1  0
 22 23  1  0
 23 24  2  0
 24 25  1  0
 24 26  1  0
 26 27  1  0
 26 28  2  0
 28 29  1  0
 29 30  1  0
 30 31  1  0
 30 32  1  0
 30 33  1  0
 33 34  1  0
 33 35  1  0
 33 36  1  0
 36 37  1  0
 37 38  2  0
 37 39  1  0
 39 40  1  0
 39 41  1  0
 39 42  1  0
 36 43  1  0
 43 44  1  0
 43 45  1  0
 43 46  1  0
 46 47  1  0
 46 48  1  0
 28 49  1  0
 49 50  1  0
 49 51  2  0
 51 52  1  0
 22  4  1  0
 51 23  1  0
 13  8  2  0
 46 29  1  0
M  CHG  3   9  -1  12  -1  14  -1
M  END
>  <UniqueID>  (14) 
13

>  <SMILES>  (14) 
C=c1/c(=C\c2[n-]c(=O)[n-]c2[O-])cc(C)n1-c1ccc(N2CCN(C(C)=O)CC2)cc1F

>  <Energy>  (14) 
134.38097770159152

>  <Genealogy>  (14) 
C=c1c(=Cc2[n-]c(=O)[n-]c2[O-])cc(C)n1-c1ccc(N2CCN(C(C)=O)CC2)cc1F (protonated)
C=c1/c(=C\c2[n-]c(=O)[n-]c2[O-])cc(C)n1-c1ccc(N2CCN(C(C)=O)CC2)cc1F (cis-trans isomerization)
C=c1/c(=C\c2[n-]c(=O)[n-]c2[O-])cc(C)n1-c1ccc(N2CCN(C(C)=O)CC2)cc1F (3D coordinates assigned)
C=c1/c(=C\c2[n-]c(=O)[n-]c2[O-])cc(C)n1-c1ccc(N2CCN(C(C)=O)CC2)cc1F (nonaromatic ring conformer: 134.38097770159152 kcal/mol)

>  <smiles>  (14) 
C=c1c(=Cc2[nH]c(=O)[nH]c2O)cc(C)n1-c1ccc(N2CCN(C(C)=O)CC2)cc1F

>  <score_type>  (14) 
oracle

>  <origin>  (14) 
adg

>  <m_score__min__energy>  (14) 
-15.81

>  <m_primary>  (14) 
energy

$$$$
14:0
     RDKit          3D

 66 69  0  0  0  0  0  0  0  0999 V2000
   56.6750   29.6090   43.0390 C   0  0  0  0  0  0  0  0  0  0  0  0
   56.3350   29.5690   44.4970 C   0  0  0  0  0  0  0  0  0  0  0  0
   55.1420   29.3570   44.8430 O   0  0  0  0  0  0  0  0  0  0  0  0
   57.3640   29.7850   45.5420 C   0  0  0  0  0  0  0  0  0  0  0  0
   57.9470   31.0150   45.6800 C   0  0  0  0  0  0  0  0  0  0  0  0
   57.3330   32.2560   45.0730 C   0  0  0  0  0  0  0  0  0  0  0  0
   59.2950   31.0940   46.2210 N   0  0  0  0  0  0  0  0  0  0  0  0
   59.7680   32.2700   46.9010 C   0  0  0  0  0  0  0  0  0  0  0  0
   58.8580   33.2600   47.3000 C   0  0  0  0  0  0  0  0  0  0  0  0
   59.3090   34.4140   47.9430 C   0  0  0  0  0  0  0  0  0  0  0  0
   60.6710   34.5900   48.1950 C   0  0  0  0  0  0  0  0  0  0  0  0
   61.5990   33.6070   47.8110 C   0  0  0  0  0  0  0  0  0  0  0  0
   63.0700   33.8410   48.0410 C   0  0  0  0  0  0  0  0  0  0  0  0
   63.7200   32.6290   48.2040 F   0  0  0  0  0  0  0  0  0  0  0  0
   63.2360   34.6000   49.1850 F   0  0  0  0  0  0  0  0  0  0  0  0
   63.6500   34.5060   46.9730 F   0  0  0  0  0  0  0  0  0  0  0  0
   61.1390   32.4570   47.1430 C   0  0  0  0  0  0  0  0  0  0  0  0
   60.1320   29.9260   46.0710 C   0  0  0  0  0  0  0  0  0  0  0  0
   61.3760   29.9720   46.2660 O   0  0  0  0  0  0  0  0  0  0  0  0
   59.4970   28.6970   45.7040 N   0  0  0  0  0  0  0  0  0  0  0  0
   59.8750   28.1070   44.4160 C   0  0  0  0  0  0  0  0  0  0  0  0
   58.1160   28.6200   46.2010 C   0  0  2  0  0  0  0  0  0  0  0  0
   57.5450   27.1860   46.2200 C   0  0  0  0  0  0  0  0  0  0  0  0
   56.2800   26.9010   45.6560 C   0  0  0  0  0  0  0  0  0  0  0  0
   55.7640   25.6060   45.6360 C   0  0  0  0  0  0  0  0  0  0  0  0
   56.4510   24.5690   46.2610 C   0  0  0  0  0  0  0  0  0  0  0  0
   55.9170   23.2320   46.2420 C   0  0  0  0  0  0  0  0  0  0  0  0
   55.4880   22.1570   46.2260 N   0  0  0  0  0  0  0  0  0  0  0  0
   57.6170   24.8480   46.9700 C   0  0  0  0  0  0  0  0  0  0  0  0
   58.1520   26.1500   47.0050 C   0  0  0  0  0  0  0  0  0  0  0  0
   59.3140   26.3800   47.9500 C   0  0  0  0  0  0  0  0  0  0  0  0
   59.3690   27.7750   48.3660 N   0  0  0  0  0  0  0  0  0  0  0  0
   60.0430   28.1730   49.5610 C   0  0  0  0  0  0  0  0  0  0  0  0
   60.8870   27.3910   50.0760 O   0  0  0  0  0  0  0  0  0  0  0  0
   59.7260   29.4820   50.1790 C   0  0  0  0  0  0  0  0  0  0  0  0
   58.4570   29.6680   50.6360 N   0  0  0  0  0  0  0  0  0  0  0  0
   58.0390   30.8350   51.1890 C   0  0  0  0  0  0  0  0  0  0  0  0
   58.9220   31.9040   51.3080 C   0  0  0  0  0  0  0  0  0  0  0  0
   58.3930   33.4180   52.0190 Cl  0  0  0  0  0  0  0  0  0  0  0  0
   60.2330   31.7580   50.8500 C   0  0  0  0  0  0  0  0  0  0  0  0
   60.6550   30.5520   50.2700 C   0  0  0  0  0  0  0  0  0  0  0  0
   62.0640   30.4510   49.7460 C   0  0  0  0  0  0  0  0  0  0  0  0
   57.7610   29.7368   42.9191 H   0  0  0  0  0  0  0  0  0  0  0  0
   56.3618   28.6678   42.5635 H   0  0  0  0  0  0  0  0  0  0  0  0
   56.1519   30.4518   42.5635 H   0  0  0  0  0  0  0  0  0  0  0  0
   56.9994   32.9302   45.8756 H   0  0  0  0  0  0  0  0  0  0  0  0
   58.0814   32.7687   44.4509 H   0  0  0  0  0  0  0  0  0  0  0  0
   56.4714   31.9721   44.4509 H   0  0  0  0  0  0  0  0  0  0  0  0
   57.7837   33.1264   47.1053 H   0  0  0  0  0  0  0  0  0  0  0  0
   58.5896   35.1867   48.2519 H   0  0  0  0  0  0  0  0  0  0  0  0
   61.0200   35.5042   48.6975 H   0  0  0  0  0  0  0  0  0  0  0  0
   61.8600   31.6972   46.8071 H   0  0  0  0  0  0  0  0  0  0  0  0
   60.4610   27.1924   44.5895 H   0  0  0  0  0  0  0  0  0  0  0  0
   58.9676   27.8585   43.8461 H   0  0  0  0  0  0  0  0  0  0  0  0
   60.4801   28.8275   43.8461 H   0  0  0  0  0  0  0  0  0  0  0  0
   58.0016   28.7886   47.2820 H   0  0  0  0  0  0  0  0  0  0  0  0
   55.6887   27.7210   45.2225 H   0  0  0  0  0  0  0  0  0  0  0  0
   54.8113   25.4031   45.1249 H   0  0  0  0  0  0  0  0  0  0  0  0
   58.1281   24.0382   47.5113 H   0  0  0  0  0  0  0  0  0  0  0  0
   59.1893   25.7428   48.8379 H   0  0  0  0  0  0  0  0  0  0  0  0
   60.2496   26.1284   47.4290 H   0  0  0  0  0  0  0  0  0  0  0  0
   57.0024   30.9357   51.5430 H   0  0  0  0  0  0  0  0  0  0  0  0
   60.9405   32.5950   50.9446 H   0  0  0  0  0  0  0  0  0  0  0  0
   62.7667   30.4006   50.5908 H   0  0  0  0  0  0  0  0  0  0  0  0
   62.1628   29.5435   49.1323 H   0  0  0  0  0  0  0  0  0  0  0  0
   62.2912   31.3352   49.1323 H   0  0  0  0  0  0  0  0  0  0  0  0
  1  2  1  0
  2  3  2  0
  2  4  1  0
  4  5  2  0
  5  6  1  0
  5  7  1  0
  7  8  1  0
  8  9  2  0
  9 10  1  0
 10 11  2  0
 11 12  1  0
 12 13  1  0
 13 14  1  0
 13 15  1  0
 13 16  1  0
 12 17  2  0
  7 18  1  0
 18 19  2  0
 18 20  1  0
 20 21  1  0
 20 22  1  0
 22 23  1  0
 23 24  2  0
 24 25  1  0
 25 26  2  0
 26 27  1  0
 27 28  3  0
 26 29  1  0
 29 30  2  0
 30 31  1  0
 31 32  1  0
 32 33  1  0
 33 34  2  0
 33 35  1  0
 35 36  2  0
 36 37  1  0
 37 38  2  0
 38 39  1  0
 38 40  1  0
 40 41  2  0
 41 42  1  0
 22  4  1  0
 30 23  1  0
 41 35  1  0
 17  8  1  0
  1 43  1  0
  1 44  1  0
  1 45  1  0
  6 46  1  0
  6 47  1  0
  6 48  1  0
  9 49  1  0
 10 50  1  0
 11 51  1  0
 17 52  1  0
 21 53  1  0
 21 54  1  0
 21 55  1  0
 22 56  1  1
 24 57  1  0
 25 58  1  0
 29 59  1  0
 31 60  1  0
 31 61  1  0
 37 62  1  0
 40 63  1  0
 42 64  1  0
 42 65  1  0
 42 66  1  0
M  CHG  1  32  -1
M  END
>  <UniqueID>  (15) 
14

>  <SMILES>  (15) 
CC(=O)C1=C(C)N(c2cccc(C(F)(F)F)c2)C(=O)N(C)[C@@H]1c1ccc(C#N)cc1C[N-]C(=O)c1ncc(Cl)cc1C

>  <Energy>  (15) 
122.80594483808738

>  <Genealogy>  (15) 
CC(=O)C1=C(C)N(c2cccc(C(F)(F)F)c2)C(=O)N(C)C1c1ccc(C#N)cc1C[N-]C(=O)c1ncc(Cl)cc1C (protonated)
CC(=O)C1=C(C)N(c2cccc(C(F)(F)F)c2)C(=O)N(C)[C@@H]1c1ccc(C#N)cc1C[N-]C(=O)c1ncc(Cl)cc1C (chirality)
CC(=O)C1=C(C)N(c2cccc(C(F)(F)F)c2)C(=O)N(C)[C@@H]1c1ccc(C#N)cc1C[N-]C(=O)c1ncc(Cl)cc1C (3D coordinates assigned)
CC(=O)C1=C(C)N(c2cccc(C(F)(F)F)c2)C(=O)N(C)[C@@H]1c1ccc(C#N)cc1C[N-]C(=O)c1ncc(Cl)cc1C (nonaromatic ring conformer: 122.80594483808738 kcal/mol)

>  <smiles>  (15) 
CC(=O)C1=C(C)N(c2cccc(C(F)(F)F)c2)C(=O)N(C)C1c1ccc(C#N)cc1CNC(=O)c1ncc(Cl)cc1C

>  <score_type>  (15) 
oracle

>  <origin>  (15) 
adg

>  <m_score__min__energy>  (15) 
-11.279999999999999

>  <m_primary>  (15) 
energy

$$$$
15:0
     RDKit          3D

 56 60  0  0  0  0  0  0  0  0999 V2000
   59.6290   29.6600   47.5280 C   0  0  0  0  0  0  0  0  0  0  0  0
   59.2100   30.1710   46.3600 C   0  0  0  0  0  0  0  0  0  0  0  0
   58.6210   29.4780   45.2900 C   0  0  0  0  0  0  0  0  0  0  0  0
   58.4970   28.1570   45.0530 C   0  0  0  0  0  0  0  0  0  0  0  0
   57.3530   27.3200   45.4460 C   0  0  0  0  0  0  0  0  0  0  0  0
   57.4780   26.0670   45.9180 N   0  0  0  0  0  0  0  0  0  0  0  0
   56.2130   25.7360   46.2610 C   0  0  0  0  0  0  0  0  0  0  0  0
   55.9130   24.6090   46.7340 O   0  0  0  0  0  0  0  0  0  0  0  0
   55.2980   26.7090   46.0650 N   0  0  0  0  0  0  0  0  0  0  0  0
   56.0390   27.7120   45.5650 C   0  0  0  0  0  0  0  0  0  0  0  0
   55.5310   28.9660   45.2430 O   0  0  0  0  0  0  0  0  0  0  0  0
   58.1490   30.4430   44.4150 C   0  0  0  0  0  0  0  0  0  0  0  0
   58.5240   31.6670   44.9300 C   0  0  0  0  0  0  0  0  0  0  0  0
   58.2310   32.9880   44.2850 C   0  0  0  0  0  0  0  0  0  0  0  0
   59.1620   31.5040   46.1100 N   0  0  0  0  0  0  0  0  0  0  0  0
   59.6820   32.5590   46.9380 C   0  0  0  0  0  0  0  0  0  0  0  0
   61.0460   32.5840   47.2600 C   0  0  0  0  0  0  0  0  0  0  0  0
   61.5710   33.6040   48.0720 C   0  0  0  0  0  0  0  0  0  0  0  0
   63.0170   33.6310   48.3940 C   0  0  0  0  0  0  0  0  0  0  0  0
   63.8410   33.9930   47.5090 O   0  0  0  0  0  0  0  0  0  0  0  0
   63.5000   33.2650   49.6990 N   0  0  0  0  0  0  0  0  0  0  0  0
   62.7310   32.3390   50.5440 C   0  0  0  0  0  0  0  0  0  0  0  0
   63.4180   30.9670   50.5720 C   0  0  0  0  0  0  0  0  0  0  0  0
   64.8560   31.1500   50.7630 N   0  0  0  0  0  0  0  0  0  0  0  0
   65.6910   30.4460   51.6590 C   0  0  0  0  0  0  0  0  0  0  0  0
   65.2820   29.5070   52.3920 O   0  0  0  0  0  0  0  0  0  0  0  0
   67.0890   30.9240   51.6290 C   0  0  0  0  0  0  0  0  0  0  0  0
   67.0300   32.1430   50.6890 C   0  0  0  0  0  0  0  0  0  0  0  0
   65.6350   32.1210   50.0170 C   0  0  2  0  0  0  0  0  0  0  0  0
   64.9130   33.4740   50.0460 C   0  0  0  0  0  0  0  0  0  0  0  0
   60.7110   34.6100   48.5460 C   0  0  0  0  0  0  0  0  0  0  0  0
   59.3500   34.5840   48.2290 C   0  0  0  0  0  0  0  0  0  0  0  0
   58.8330   33.5610   47.4300 C   0  0  0  0  0  0  0  0  0  0  0  0
   57.5060   33.5370   47.1490 F   0  0  0  0  0  0  0  0  0  0  0  0
   60.0764   30.3182   48.2874 H   0  0  0  0  0  0  0  0  0  0  0  0
   59.5250   28.5830   47.7260 H   0  0  0  0  0  0  0  0  0  0  0  0
   59.3222   27.6623   44.5199 H   0  0  0  0  0  0  0  0  0  0  0  0
   55.5470   29.7180   45.9210 H   0  0  0  0  0  0  0  0  0  0  0  0
   57.5838   30.2672   43.4878 H   0  0  0  0  0  0  0  0  0  0  0  0
   58.0627   33.7468   45.0634 H   0  0  0  0  0  0  0  0  0  0  0  0
   59.0845   33.2878   43.6591 H   0  0  0  0  0  0  0  0  0  0  0  0
   57.3308   32.8988   43.6591 H   0  0  0  0  0  0  0  0  0  0  0  0
   61.7116   31.7981   46.8736 H   0  0  0  0  0  0  0  0  0  0  0  0
   62.6743   32.7398   51.5668 H   0  0  0  0  0  0  0  0  0  0  0  0
   61.7171   32.2287   50.1319 H   0  0  0  0  0  0  0  0  0  0  0  0
   63.0105   30.3690   51.4004 H   0  0  0  0  0  0  0  0  0  0  0  0
   63.2363   30.4446   49.6212 H   0  0  0  0  0  0  0  0  0  0  0  0
   67.4260   31.2180   52.6340 H   0  0  0  0  0  0  0  0  0  0  0  0
   67.7985   30.1547   51.2902 H   0  0  0  0  0  0  0  0  0  0  0  0
   67.1589   33.0717   51.2643 H   0  0  0  0  0  0  0  0  0  0  0  0
   67.8317   32.1013   49.9370 H   0  0  0  0  0  0  0  0  0  0  0  0
   65.7524   31.8708   48.9523 H   0  0  0  0  0  0  0  0  0  0  0  0
   64.9856   33.9102   51.0532 H   0  0  0  0  0  0  0  0  0  0  0  0
   65.3775   34.1608   49.3232 H   0  0  0  0  0  0  0  0  0  0  0  0
   61.1116   35.4224   49.1701 H   0  0  0  0  0  0  0  0  0  0  0  0
   58.6835   35.3718   48.6099 H   0  0  0  0  0  0  0  0  0  0  0  0
  1  2  2  0
  2  3  1  0
  3  4  2  3
  4  5  1  0
  5  6  1  0
  6  7  1  0
  7  8  2  0
  7  9  1  0
  9 10  1  0
 10 11  1  0
  3 12  1  0
 12 13  2  0
 13 14  1  0
 13 15  1  0
 15 16  1  0
 16 17  2  0
 17 18  1  0
 18 19  1  0
 19 20  2  0
 19 21  1  0
 21 22  1  0
 22 23  1  0
 23 24  1  0
 24 25  1  0
 25 26  2  0
 25 27  1  0
 27 28  1  0
 28 29  1  0
 29 30  1  0
 18 31  2  0
 31 32  1  0
 32 33  2  0
 33 34  1  0
 15  2  1  0
 33 16  1  0
 10  5  2  0
 30 21  1  0
 29 24  1  0
  1 35  1  0
  1 36  1  0
  4 37  1  0
 11 38  1  0
 12 39  1  0
 14 40  1  0
 14 41  1  0
 14 42  1  0
 17 43  1  0
 22 44  1  0
 22 45  1  0
 23 46  1  0
 23 47  1  0
 27 48  1  0
 27 49  1  0
 28 50  1  0
 28 51  1  0
 29 52  1  6
 30 53  1  0
 30 54  1  0
 31 55  1  0
 32 56  1  0
M  CHG  2   6  -1   9  -1
M  END
>  <UniqueID>  (16) 
15

>  <SMILES>  (16) 
C=c1c(=Cc2[n-]c(=O)[n-]c2O)cc(C)n1-c1cc(C(=O)N2CCN3C(=O)CC[C@@H]3C2)ccc1F

>  <Energy>  (16) 
147.55199594809548

>  <Genealogy>  (16) 
C=c1c(=Cc2[n-]c(=O)[n-]c2O)cc(C)n1-c1cc(C(=O)N2CCN3C(=O)CCC3C2)ccc1F (protonated)
C=c1c(=Cc2[n-]c(=O)[n-]c2O)cc(C)n1-c1cc(C(=O)N2CCN3C(=O)CC[C@@H]3C2)ccc1F (chirality)
C=c1c(=Cc2[n-]c(=O)[n-]c2O)cc(C)n1-c1cc(C(=O)N2CCN3C(=O)CC[C@@H]3C2)ccc1F (3D coordinates assigned)
C=c1c(=Cc2[n-]c(=O)[n-]c2O)cc(C)n1-c1cc(C(=O)N2CCN3C(=O)CC[C@@H]3C2)ccc1F (nonaromatic ring conformer: 147.55199594809548 kcal/mol)

>  <smiles>  (16) 
C=c1c(=Cc2[nH]c(=O)[nH]c2O)cc(C)n1-c1cc(C(=O)N2CCN3C(=O)CCC3C2)ccc1F

>  <score_type>  (16) 
oracle

>  <origin>  (16) 
adg

>  <m_score__min__energy>  (16) 
-14.33

>  <m_primary>  (16) 
energy

$$$$
16:0
     RDKit          3D

 63 66  0  0  0  0  0  0  0  0999 V2000
   67.7950   34.2680   50.7510 H   0  0  0  0  0  0  0  0  0  0  0  0
   67.7620   33.4110   50.2140 O   0  0  0  0  0  0  0  0  0  0  0  0
   66.8500   32.3970   50.5000 C   0  0  0  0  0  0  0  0  0  0  0  0
   67.1880   31.2670   51.1400 N   0  0  0  0  0  0  0  0  0  0  0  0
   66.0060   30.6310   51.2730 C   0  0  0  0  0  0  0  0  0  0  0  0
   65.8970   29.5170   51.8470 O   0  0  0  0  0  0  0  0  0  0  0  0
   64.9480   31.2890   50.7540 N   0  0  0  0  0  0  0  0  0  0  0  0
   65.4940   32.4040   50.2400 C   0  0  0  0  0  0  0  0  0  0  0  0
   64.7000   33.4690   49.6000 C   0  0  0  0  0  0  0  0  0  0  0  0
   65.2193   34.3876   49.2893 H   0  0  0  0  0  0  0  0  0  0  0  0
   63.3740   33.3810   49.3740 C   0  0  0  0  0  0  0  0  0  0  0  0
   62.3670   33.8030   50.2320 C   0  0  0  0  0  0  0  0  0  0  0  0
   62.4978   34.2622   51.2230 H   0  0  0  0  0  0  0  0  0  0  0  0
   61.1690   33.5340   49.5990 C   0  0  0  0  0  0  0  0  0  0  0  0
   59.8200   33.8350   50.1780 C   0  0  0  0  0  0  0  0  0  0  0  0
   59.8810   33.8214   51.2762 H   0  0  0  0  0  0  0  0  0  0  0  0
   59.4900   34.8289   49.8414 H   0  0  0  0  0  0  0  0  0  0  0  0
   59.0988   33.0757   49.8414 H   0  0  0  0  0  0  0  0  0  0  0  0
   61.3910   32.9870   48.3820 N   0  0  0  0  0  0  0  0  0  0  0  0
   60.3750   32.5410   47.4630 C   0  0  0  0  0  0  0  0  0  0  0  0
   59.5120   33.4690   46.8660 C   0  0  0  0  0  0  0  0  0  0  0  0
   59.6105   34.5390   47.1014 H   0  0  0  0  0  0  0  0  0  0  0  0
   58.5270   33.0410   45.9730 C   0  0  0  0  0  0  0  0  0  0  0  0
   57.4540   34.2090   45.2240 Cl  0  0  0  0  0  0  0  0  0  0  0  0
   58.4050   31.6830   45.6630 C   0  0  0  0  0  0  0  0  0  0  0  0
   57.6170   31.3496   44.9716 H   0  0  0  0  0  0  0  0  0  0  0  0
   59.2830   30.7390   46.2290 C   0  0  0  0  0  0  0  0  0  0  0  0
   59.1690   29.3390   45.8920 N   0  0  0  0  0  0  0  0  0  0  0  0
   59.3480   28.3140   46.9330 C   0  0  0  0  0  0  0  0  0  0  0  0
   60.4219   28.2020   47.1432 H   0  0  0  0  0  0  0  0  0  0  0  0
   58.8041   28.6377   47.8327 H   0  0  0  0  0  0  0  0  0  0  0  0
   58.7810   26.9540   46.4900 C   0  0  0  0  0  0  0  0  0  0  0  0
   59.5321   26.4263   45.8839 H   0  0  0  0  0  0  0  0  0  0  0  0
   58.5348   26.3581   47.3812 H   0  0  0  0  0  0  0  0  0  0  0  0
   57.5050   27.1620   45.6530 C   0  0  0  0  0  0  0  0  0  0  0  0
   56.8161   27.8201   46.2028 H   0  0  0  0  0  0  0  0  0  0  0  0
   56.7350   25.8870   45.4970 N   0  0  0  0  0  0  0  0  0  0  0  0
   56.2970   25.1880   46.7340 C   0  0  0  0  0  0  0  0  0  0  0  0
   56.2360   25.9254   47.5480 H   0  0  0  0  0  0  0  0  0  0  0  0
   55.3228   24.7254   46.5174 H   0  0  0  0  0  0  0  0  0  0  0  0
   57.2420   24.0670   47.1660 C   0  0  0  0  0  0  0  0  0  0  0  0
   57.2798   24.0222   48.2644 H   0  0  0  0  0  0  0  0  0  0  0  0
   56.8765   23.1071   46.7722 H   0  0  0  0  0  0  0  0  0  0  0  0
   58.2499   24.2649   46.7722 H   0  0  0  0  0  0  0  0  0  0  0  0
   57.4300   24.9410   44.5920 C   0  0  0  0  0  0  0  0  0  0  0  0
   58.0510   25.5076   43.8825 H   0  0  0  0  0  0  0  0  0  0  0  0
   58.0609   24.2696   45.1929 H   0  0  0  0  0  0  0  0  0  0  0  0
   56.4140   24.1050   43.8160 C   0  0  0  0  0  0  0  0  0  0  0  0
   55.7633   23.5696   44.5230 H   0  0  0  0  0  0  0  0  0  0  0  0
   55.8029   24.7652   43.1831 H   0  0  0  0  0  0  0  0  0  0  0  0
   56.9442   23.3782   43.1831 H   0  0  0  0  0  0  0  0  0  0  0  0
   57.8020   27.9460   44.3420 C   0  0  0  0  0  0  0  0  0  0  0  0
   58.0320   27.2252   43.5435 H   0  0  0  0  0  0  0  0  0  0  0  0
   56.9116   28.5447   44.0996 H   0  0  0  0  0  0  0  0  0  0  0  0
   58.9920   28.9130   44.4940 C   0  0  0  0  0  0  0  0  0  0  0  0
   59.9085   28.4071   44.1562 H   0  0  0  0  0  0  0  0  0  0  0  0
   58.7893   29.8064   43.8851 H   0  0  0  0  0  0  0  0  0  0  0  0
   60.2580   31.1810   47.1410 C   0  0  0  0  0  0  0  0  0  0  0  0
   60.9367   30.4516   47.6072 H   0  0  0  0  0  0  0  0  0  0  0  0
   62.7380   32.8940   48.2290 C   0  0  0  0  0  0  0  0  0  0  0  0
   63.3390   32.4280   47.1230 C   0  0  0  0  0  0  0  0  0  0  0  0
   62.7335   32.0681   46.2781 H   0  0  0  0  0  0  0  0  0  0  0  0
   64.4371   32.4060   47.0615 H   0  0  0  0  0  0  0  0  0  0  0  0
  1  2  1  0
  2  3  1  0
  3  4  1  0
  4  5  1  0
  5  6  2  0
  5  7  1  0
  7  8  1  0
  8  9  1  0
  9 10  1  0
  9 11  2  0
 11 12  1  0
 12 13  1  0
 12 14  2  0
 14 15  1  0
 15 16  1  0
 15 17  1  0
 15 18  1  0
 14 19  1  0
 19 20  1  0
 20 21  2  0
 21 22  1  0
 21 23  1  0
 23 24  1  0
 23 25  2  0
 25 26  1  0
 25 27  1  0
 27 28  1  0
 28 29  1  0
 29 30  1  0
 29 31  1  0
 29 32  1  0
 32 33  1  0
 32 34  1  0
 32 35  1  0
 35 36  1  0
 35 37  1  0
 37 38  1  0
 38 39  1  0
 38 40  1  0
 38 41  1  0
 41 42  1  0
 41 43  1  0
 41 44  1  0
 37 45  1  0
 45 46  1  0
 45 47  1  0
 45 48  1  0
 48 49  1  0
 48 50  1  0
 48 51  1  0
 35 52  1  0
 52 53  1  0
 52 54  1  0
 52 55  1  0
 55 56  1  0
 55 57  1  0
 27 58  2  0
 58 59  1  0
 19 60  1  0
 60 61  2  0
 61 62  1  0
 61 63  1  0
  8  3  2  0
 60 11  1  0
 58 20  1  0
 55 28  1  0
M  CHG  2   4  -1   7  -1
M  END
>  <UniqueID>  (17) 
16

>  <SMILES>  (17) 
C=c1/c(=C/c2[n-]c(=O)[n-]c2O)cc(C)n1-c1cc(Cl)cc(N2CCC(N(CC)CC)CC2)c1

>  <Energy>  (17) 
151.59830252853524

>  <Genealogy>  (17) 
C=c1c(=Cc2[n-]c(=O)[n-]c2O)cc(C)n1-c1cc(Cl)cc(N2CCC(N(CC)CC)CC2)c1 (protonated)
C=c1/c(=C/c2[n-]c(=O)[n-]c2O)cc(C)n1-c1cc(Cl)cc(N2CCC(N(CC)CC)CC2)c1 (cis-trans isomerization)
C=c1/c(=C/c2[n-]c(=O)[n-]c2O)cc(C)n1-c1cc(Cl)cc(N2CCC(N(CC)CC)CC2)c1 (3D coordinates assigned)
C=c1/c(=C/c2[n-]c(=O)[n-]c2O)cc(C)n1-c1cc(Cl)cc(N2CCC(N(CC)CC)CC2)c1 (nonaromatic ring conformer: 151.59830252853524 kcal/mol)

>  <smiles>  (17) 
C=c1c(=Cc2[nH]c(=O)[nH]c2O)cc(C)n1-c1cc(Cl)cc(N2CCC(N(CC)CC)CC2)c1

>  <score_type>  (17) 
oracle

>  <origin>  (17) 
adg

>  <m_score__min__energy>  (17) 
-14.35

>  <m_primary>  (17) 
energy

$$$$
17:0
     RDKit          3D

 38 40  0  0  0  0  0  0  0  0999 V2000
   55.0550   23.6000   46.0560 C   0  0  0  0  0  0  0  0  0  0  0  0
   56.0890   24.6450   46.0970 N   0  0  0  0  0  0  0  0  0  0  0  0
   55.7250   25.9660   46.0760 C   0  0  0  0  0  0  0  0  0  0  0  0
   54.3860   26.3340   45.9940 O   0  0  0  0  0  0  0  0  0  0  0  0
   56.6700   26.9380   46.1390 N   0  0  0  0  0  0  0  0  0  0  0  0
   57.9930   26.6510   46.2380 C   0  0  0  0  0  0  0  0  0  0  0  0
   58.9530   27.7280   46.2820 N   0  0  0  0  0  0  0  0  0  0  0  0
   59.4090   28.3640   45.0330 C   0  0  0  0  0  0  0  0  0  0  0  0
   60.0410   29.7410   45.2860 C   0  0  0  0  0  0  0  0  0  0  0  0
   59.2670   30.4920   46.2860 N   0  0  0  0  0  0  0  0  0  0  0  0
   59.1720   31.9250   46.1820 C   0  0  0  0  0  0  0  0  0  0  0  0
   60.1820   32.7400   46.7250 C   0  0  0  0  0  0  0  0  0  0  0  0
   60.0910   34.1310   46.6350 C   0  0  0  0  0  0  0  0  0  0  0  0
   58.9960   34.7220   46.0020 C   0  0  0  0  0  0  0  0  0  0  0  0
   57.9900   33.9220   45.4540 C   0  0  0  0  0  0  0  0  0  0  0  0
   58.0750   32.5280   45.5400 C   0  0  0  0  0  0  0  0  0  0  0  0
   57.1060   31.7720   44.9660 F   0  0  0  0  0  0  0  0  0  0  0  0
   58.8190   29.8310   47.5230 C   0  0  0  0  0  0  0  0  0  0  0  0
   59.2710   28.3700   47.5630 C   0  0  0  0  0  0  0  0  0  0  0  0
   58.3900   25.3080   46.2980 C   0  0  0  0  0  0  0  0  0  0  0  0
   59.6920   24.9620   46.4620 F   0  0  0  0  0  0  0  0  0  0  0  0
   57.4120   24.3110   46.2340 C   0  0  0  0  0  0  0  0  0  0  0  0
   57.7650   23.1020   46.3130 O   0  0  0  0  0  0  0  0  0  0  0  0
   54.7769   23.3189   47.0825 H   0  0  0  0  0  0  0  0  0  0  0  0
   54.1689   23.9815   45.5274 H   0  0  0  0  0  0  0  0  0  0  0  0
   55.4458   22.7180   45.5274 H   0  0  0  0  0  0  0  0  0  0  0  0
   60.1557   27.7129   44.5550 H   0  0  0  0  0  0  0  0  0  0  0  0
   58.5321   28.5066   44.3844 H   0  0  0  0  0  0  0  0  0  0  0  0
   61.0690   29.6047   45.6529 H   0  0  0  0  0  0  0  0  0  0  0  0
   60.0445   30.3073   44.3430 H   0  0  0  0  0  0  0  0  0  0  0  0
   61.0479   32.2795   47.2231 H   0  0  0  0  0  0  0  0  0  0  0  0
   60.8836   34.7619   47.0637 H   0  0  0  0  0  0  0  0  0  0  0  0
   58.9252   35.8176   45.9346 H   0  0  0  0  0  0  0  0  0  0  0  0
   57.1290   34.3893   44.9537 H   0  0  0  0  0  0  0  0  0  0  0  0
   59.2435   30.3620   48.3878 H   0  0  0  0  0  0  0  0  0  0  0  0
   57.7197   29.8571   47.5540 H   0  0  0  0  0  0  0  0  0  0  0  0
   60.3563   28.3259   47.7366 H   0  0  0  0  0  0  0  0  0  0  0  0
   58.7496   27.8454   48.3772 H   0  0  0  0  0  0  0  0  0  0  0  0
  1  2  1  0
  2  3  1  0
  3  4  1  0
  3  5  2  0
  5  6  1  0
  6  7  1  0
  7  8  1  0
  8  9  1  0
  9 10  1  0
 10 11  1  0
 11 12  2  0
 12 13  1  0
 13 14  2  0
 14 15  1  0
 15 16  2  0
 16 17  1  0
 10 18  1  0
 18 19  1  0
  6 20  2  0
 20 21  1  0
 20 22  1  0
 22 23  2  0
 22  2  1  0
 19  7  1  0
 16 11  1  0
  1 24  1  0
  1 25  1  0
  1 26  1  0
  8 27  1  0
  8 28  1  0
  9 29  1  0
  9 30  1  0
 12 31  1  0
 13 32  1  0
 14 33  1  0
 15 34  1  0
 18 35  1  0
 18 36  1  0
 19 37  1  0
 19 38  1  0
M  CHG  1   4  -1
M  END
>  <UniqueID>  (18) 
17

>  <SMILES>  (18) 
Cn1c([O-])nc(N2CCN(c3ccccc3F)CC2)c(F)c1=O

>  <Energy>  (18) 
53.014443678712105

>  <Genealogy>  (18) 
Cn1c([O-])nc(N2CCN(c3ccccc3F)CC2)c(F)c1=O (protonated)
Cn1c([O-])nc(N2CCN(c3ccccc3F)CC2)c(F)c1=O (3D coordinates assigned)
Cn1c([O-])nc(N2CCN(c3ccccc3F)CC2)c(F)c1=O (nonaromatic ring conformer: 53.014443678712105 kcal/mol)

>  <smiles>  (18) 
Cn1c(O)nc(N2CCN(c3ccccc3F)CC2)c(F)c1=O

>  <score_type>  (18) 
oracle

>  <origin>  (18) 
adg

>  <m_score__min__energy>  (18) 
-10.529999999999999

>  <m_primary>  (18) 
energy

$$$$
18:0
     RDKit          3D

 48 50  0  0  0  0  0  0  0  0999 V2000
   57.3191   30.6235   43.1256 H   0  0  0  0  0  0  0  0  0  0  0  0
   57.4160   29.5860   43.4780 C   0  0  0  0  0  0  0  0  0  0  0  0
   57.1998   28.7509   42.7955 H   0  0  0  0  0  0  0  0  0  0  0  0
   57.7980   29.3390   44.7410 C   0  0  0  0  0  0  0  0  0  0  0  0
   57.9680   28.0780   45.3410 C   0  0  0  0  0  0  0  0  0  0  0  0
   57.6750   26.8370   44.9040 C   0  0  0  0  0  0  0  0  0  0  0  0
   57.9200   26.6033   43.8574 H   0  0  0  0  0  0  0  0  0  0  0  0
   57.0570   25.7680   45.7020 C   0  0  0  0  0  0  0  0  0  0  0  0
   57.7370   24.7170   46.1910 N   0  0  0  0  0  0  0  0  0  0  0  0
   56.8230   24.0810   46.9550 C   0  0  0  0  0  0  0  0  0  0  0  0
   57.0820   23.0190   47.5790 O   0  0  0  0  0  0  0  0  0  0  0  0
   55.6130   24.6790   47.0090 N   0  0  0  0  0  0  0  0  0  0  0  0
   55.7830   25.7540   46.2230 C   0  0  0  0  0  0  0  0  0  0  0  0
   54.8020   26.7150   46.0080 O   0  0  0  0  0  0  0  0  0  0  0  0
   58.5250   28.3130   46.5860 C   0  0  0  0  0  0  0  0  0  0  0  0
   58.8274   27.5543   47.3229 H   0  0  0  0  0  0  0  0  0  0  0  0
   58.6280   29.6800   46.7250 C   0  0  0  0  0  0  0  0  0  0  0  0
   59.1360   30.3500   47.9390 C   0  0  0  0  0  0  0  0  0  0  0  0
   58.5240   30.1390   49.0220 O   0  0  0  0  0  0  0  0  0  0  0  0
   60.3490   31.1530   47.9490 N   0  0  0  0  0  0  0  0  0  0  0  0
   60.9190   30.8270   47.1320 H   0  0  0  0  0  0  0  0  0  0  0  0
   60.0960   32.5990   47.7660 C   0  0  0  0  0  0  0  0  0  0  0  0
   59.4536   32.7470   46.8854 H   0  0  0  0  0  0  0  0  0  0  0  0
   59.5980   32.9931   48.6642 H   0  0  0  0  0  0  0  0  0  0  0  0
   61.4190   33.3450   47.5590 C   0  0  0  0  0  0  0  0  0  0  0  0
   61.7630   33.1840   46.5266 H   0  0  0  0  0  0  0  0  0  0  0  0
   61.2473   34.4145   47.7507 H   0  0  0  0  0  0  0  0  0  0  0  0
   62.4530   32.8690   48.4870 N   0  0  0  0  0  0  0  0  0  0  0  0
   63.8020   33.3690   48.3390 C   0  0  0  0  0  0  0  0  0  0  0  0
   64.0820   34.1370   47.3760 O   0  0  0  0  0  0  0  0  0  0  0  0
   64.9020   32.9910   49.2890 C   0  0  0  0  0  0  0  0  0  0  0  0
   64.5501   33.1119   50.3242 H   0  0  0  0  0  0  0  0  0  0  0  0
   65.1889   31.9427   49.1193 H   0  0  0  0  0  0  0  0  0  0  0  0
   65.7727   33.6415   49.1193 H   0  0  0  0  0  0  0  0  0  0  0  0
   62.0440   32.0410   49.6310 C   0  0  0  0  0  0  0  0  0  0  0  0
   62.9423   31.6243   50.1100 H   0  0  0  0  0  0  0  0  0  0  0  0
   61.4842   32.6756   50.3338 H   0  0  0  0  0  0  0  0  0  0  0  0
   61.1270   30.8810   49.1900 C   0  0  0  0  0  0  0  0  0  0  0  0
   61.7533   29.9935   49.0165 H   0  0  0  0  0  0  0  0  0  0  0  0
   60.3933   30.7351   49.9964 H   0  0  0  0  0  0  0  0  0  0  0  0
   58.1900   30.3080   45.6100 N   0  0  0  0  0  0  0  0  0  0  0  0
   58.1300   31.7660   45.4180 C   0  0  0  0  0  0  0  0  0  0  0  0
   58.2794   32.2660   46.3864 H   0  0  0  0  0  0  0  0  0  0  0  0
   58.9189   32.0668   44.7129 H   0  0  0  0  0  0  0  0  0  0  0  0
   56.7760   32.1690   44.8480 C   0  0  0  0  0  0  0  0  0  0  0  0
   56.0782   32.3767   45.6726 H   0  0  0  0  0  0  0  0  0  0  0  0
   56.8923   33.0715   44.2299 H   0  0  0  0  0  0  0  0  0  0  0  0
   56.3798   31.3498   44.2299 H   0  0  0  0  0  0  0  0  0  0  0  0
  1  2  1  0
  2  3  1  0
  2  4  2  0
  4  5  1  0
  5  6  2  0
  6  7  1  0
  6  8  1  0
  8  9  1  0
  9 10  1  0
 10 11  2  0
 10 12  1  0
 12 13  1  0
 13 14  1  0
  5 15  1  0
 15 16  1  0
 15 17  2  0
 17 18  1  0
 18 19  2  0
 18 20  1  0
 20 21  1  0
 20 22  1  0
 22 23  1  0
 22 24  1  0
 22 25  1  0
 25 26  1  0
 25 27  1  0
 25 28  1  0
 28 29  1  0
 29 30  2  0
 29 31  1  0
 31 32  1  0
 31 33  1  0
 31 34  1  0
 28 35  1  0
 35 36  1  0
 35 37  1  0
 35 38  1  0
 38 39  1  0
 38 40  1  0
 17 41  1  0
 41 42  1  0
 42 43  1  0
 42 44  1  0
 42 45  1  0
 45 46  1  0
 45 47  1  0
 45 48  1  0
 41  4  1  0
 13  8  2  0
 38 20  1  0
M  CHG  4   9  -1  12  -1  14  -1  20   1
M  END
>  <UniqueID>  (19) 
18

>  <SMILES>  (19) 
C=c1/c(=C\c2[n-]c(=O)[n-]c2[O-])cc(C(=O)[NH+]2CCN(C(C)=O)CC2)n1CC

>  <Energy>  (19) 
133.9108360510568

>  <Genealogy>  (19) 
C=c1c(=Cc2[n-]c(=O)[n-]c2[O-])cc(C(=O)[NH+]2CCN(C(C)=O)CC2)n1CC (protonated)
C=c1/c(=C\c2[n-]c(=O)[n-]c2[O-])cc(C(=O)[NH+]2CCN(C(C)=O)CC2)n1CC (cis-trans isomerization)
C=c1/c(=C\c2[n-]c(=O)[n-]c2[O-])cc(C(=O)[NH+]2CCN(C(C)=O)CC2)n1CC (3D coordinates assigned)
C=c1/c(=C\c2[n-]c(=O)[n-]c2[O-])cc(C(=O)[NH+]2CCN(C(C)=O)CC2)n1CC (nonaromatic ring conformer: 133.9108360510568 kcal/mol)

>  <smiles>  (19) 
C=c1c(=Cc2[nH]c(=O)[nH]c2O)cc(C(=O)N2CCN(C(C)=O)CC2)n1CC

>  <score_type>  (19) 
oracle

>  <origin>  (19) 
adg

>  <m_score__min__energy>  (19) 
-15.18

>  <m_primary>  (19) 
energy

$$$$
19:0
     RDKit          3D

 36 38  0  0  0  0  0  0  0  0999 V2000
   55.6209   27.7168   52.4997 H   0  0  0  0  0  0  0  0  0  0  0  0
   54.7810   28.4270   52.5090 C   0  0  0  0  0  0  0  0  0  0  0  0
   53.7565   28.0649   52.6799 H   0  0  0  0  0  0  0  0  0  0  0  0
   55.0060   29.7340   52.3120 C   0  0  0  0  0  0  0  0  0  0  0  0
   54.0720   30.7800   52.2890 C   0  0  0  0  0  0  0  0  0  0  0  0
   52.7280   30.7450   52.2500 C   0  0  0  0  0  0  0  0  0  0  0  0
   52.2044   30.5292   53.1930 H   0  0  0  0  0  0  0  0  0  0  0  0
   51.8960   30.9700   51.0570 C   0  0  0  0  0  0  0  0  0  0  0  0
   51.8680   30.1630   49.9790 N   0  0  0  0  0  0  0  0  0  0  0  0
   51.0920   30.8400   49.1040 C   0  0  0  0  0  0  0  0  0  0  0  0
   50.8110   30.3920   47.9620 O   0  0  0  0  0  0  0  0  0  0  0  0
   50.6510   32.0360   49.5450 N   0  0  0  0  0  0  0  0  0  0  0  0
   51.1820   32.1090   50.7770 C   0  0  0  0  0  0  0  0  0  0  0  0
   51.0220   33.1970   51.6240 O   0  0  0  0  0  0  0  0  0  0  0  0
   54.7340   31.9580   52.2790 N   0  0  0  0  0  0  0  0  0  0  0  0
   56.0350   31.6140   52.2440 C   0  0  0  0  0  0  0  0  0  0  0  0
   56.9630   32.4640   52.2090 O   0  0  0  0  0  0  0  0  0  0  0  0
   56.2430   30.2820   52.2510 N   0  0  0  0  0  0  0  0  0  0  0  0
   57.5430   29.6000   52.2200 C   0  0  0  0  0  0  0  0  0  0  0  0
   58.0908   29.8187   53.1485 H   0  0  0  0  0  0  0  0  0  0  0  0
   57.3789   28.5162   52.1287 H   0  0  0  0  0  0  0  0  0  0  0  0
   58.3460   30.0750   51.0470 C   0  0  0  0  0  0  0  0  0  0  0  0
   58.5420   29.2980   50.0740 O   0  0  0  0  0  0  0  0  0  0  0  0
   58.9220   31.3890   51.0580 N   0  0  0  0  0  0  0  0  0  0  0  0
   59.0420   31.8610   51.9830 H   0  0  0  0  0  0  0  0  0  0  0  0
   59.3740   32.0740   49.8780 C   0  0  0  0  0  0  0  0  0  0  0  0
   58.4590   32.6280   48.9620 C   0  0  0  0  0  0  0  0  0  0  0  0
   57.3781   32.5189   49.1348 H   0  0  0  0  0  0  0  0  0  0  0  0
   58.9170   33.3160   47.8340 C   0  0  0  0  0  0  0  0  0  0  0  0
   58.1963   33.7375   47.1178 H   0  0  0  0  0  0  0  0  0  0  0  0
   60.2880   33.4690   47.6150 C   0  0  0  0  0  0  0  0  0  0  0  0
   60.6465   34.0047   46.7237 H   0  0  0  0  0  0  0  0  0  0  0  0
   61.2040   32.9410   48.5290 C   0  0  0  0  0  0  0  0  0  0  0  0
   62.2835   33.0666   48.3588 H   0  0  0  0  0  0  0  0  0  0  0  0
   60.7510   32.2530   49.6600 C   0  0  0  0  0  0  0  0  0  0  0  0
   61.6560   31.7470   50.5360 F   0  0  0  0  0  0  0  0  0  0  0  0
  1  2  1  0
  2  3  1  0
  2  4  2  0
  4  5  1  0
  5  6  2  0
  6  7  1  0
  6  8  1  0
  8  9  1  0
  9 10  1  0
 10 11  2  0
 10 12  1  0
 12 13  1  0
 13 14  1  0
  5 15  1  0
 15 16  1  0
 16 17  2  0
 16 18  1  0
 18 19  1  0
 19 20  1  0
 19 21  1  0
 19 22  1  0
 22 23  2  0
 22 24  1  0
 24 25  1  0
 24 26  1  0
 26 27  2  0
 27 28  1  0
 27 29  1  0
 29 30  1  0
 29 31  2  0
 31 32  1  0
 31 33  1  0
 33 34  1  0
 33 35  2  0
 35 36  1  0
 18  4  1  0
 35 26  1  0
 13  8  2  0
M  CHG  4   9  -1  12  -1  14  -1  15  -1
M  END
>  <UniqueID>  (20) 
19

>  <SMILES>  (20) 
C=c1/c(=C\c2[n-]c(=O)[n-]c2[O-])[n-]c(=O)n1CC(=O)Nc1ccccc1F

>  <Energy>  (20) 
113.70604656960765

>  <Genealogy>  (20) 
C=c1c(=Cc2[n-]c(=O)[n-]c2[O-])[n-]c(=O)n1CC(=O)Nc1ccccc1F (protonated)
C=c1/c(=C\c2[n-]c(=O)[n-]c2[O-])[n-]c(=O)n1CC(=O)Nc1ccccc1F (cis-trans isomerization)
C=c1/c(=C\c2[n-]c(=O)[n-]c2[O-])[n-]c(=O)n1CC(=O)Nc1ccccc1F (3D coordinates assigned)
C=c1/c(=C\c2[n-]c(=O)[n-]c2[O-])[n-]c(=O)n1CC(=O)Nc1ccccc1F (optimized conformer: 113.70604656960765 kcal/mol)

>  <smiles>  (20) 
C=c1c(=Cc2[nH]c(=O)[nH]c2O)[nH]c(=O)n1CC(=O)Nc1ccccc1F

>  <score_type>  (20) 
oracle

>  <origin>  (20) 
adg

>  <m_score__min__energy>  (20) 
-16.780000000000001

>  <m_primary>  (20) 
energy

$$$$
20:0
     RDKit          3D

 65 68  0  0  0  0  0  0  0  0999 V2000
   55.6750   23.0420   44.0740 C   0  0  0  0  0  0  0  0  0  0  0  0
   54.6760   23.5560   45.0530 C   0  0  0  0  0  0  0  0  0  0  0  0
   53.4530   23.3010   44.8920 O   0  0  0  0  0  0  0  0  0  0  0  0
   55.1290   24.2760   46.2070 N   0  0  0  0  0  0  0  0  0  0  0  0
   56.3160   25.0770   46.2970 C   0  0  0  0  0  0  0  0  0  0  0  0
   56.7550   25.7660   45.1570 C   0  0  0  0  0  0  0  0  0  0  0  0
   57.8950   26.5720   45.2090 C   0  0  0  0  0  0  0  0  0  0  0  0
   58.6000   26.7150   46.4120 C   0  0  0  0  0  0  0  0  0  0  0  0
   60.0100   27.7620   46.5160 S   0  0  0  0  0  0  0  0  0  0  0  0
   60.9290   27.4970   45.3540 O   0  0  0  0  0  0  0  0  0  0  0  0
   60.7490   27.4340   47.7830 O   0  0  0  0  0  0  0  0  0  0  0  0
   59.4470   29.4290   46.5070 N   0  0  0  0  0  0  0  0  0  0  0  0
   59.9820   30.1780   47.6580 C   0  0  0  0  0  0  0  0  0  0  0  0
   60.7260   31.4020   47.1960 C   0  0  0  0  0  0  0  0  0  0  0  0
   60.4200   31.9090   46.0810 O   0  0  0  0  0  0  0  0  0  0  0  0
   61.8000   32.0310   48.0040 C   0  0  0  0  0  0  0  0  0  0  0  0
   62.9910   32.4170   47.3610 C   0  0  0  0  0  0  0  0  0  0  0  0
   64.0360   32.9970   48.0830 C   0  0  0  0  0  0  0  0  0  0  0  0
   63.9000   33.2200   49.4530 C   0  0  0  0  0  0  0  0  0  0  0  0
   62.7130   32.8780   50.1010 C   0  0  0  0  0  0  0  0  0  0  0  0
   61.6590   32.2900   49.3890 C   0  0  0  0  0  0  0  0  0  0  0  0
   60.4410   32.0010   50.0770 N   0  0  0  0  0  0  0  0  0  0  0  0
   59.0760   33.0560   49.9550 S   0  0  0  0  0  0  0  0  0  0  0  0
   59.2560   34.2400   50.8630 O   0  0  0  0  0  0  0  0  0  0  0  0
   57.8400   32.3150   50.3820 O   0  0  0  0  0  0  0  0  0  0  0  0
   58.9170   33.5910   48.2860 C   0  0  0  0  0  0  0  0  0  0  0  0
   59.7720   34.5760   47.7700 C   0  0  0  0  0  0  0  0  0  0  0  0
   59.5900   35.0530   46.4680 C   0  0  0  0  0  0  0  0  0  0  0  0
   58.5520   34.5500   45.6780 C   0  0  0  0  0  0  0  0  0  0  0  0
   57.6990   33.5680   46.1880 C   0  0  0  0  0  0  0  0  0  0  0  0
   57.8800   33.0890   47.4900 C   0  0  0  0  0  0  0  0  0  0  0  0
   57.9730   29.4990   46.4640 C   0  0  0  0  0  0  0  0  0  0  0  0
   57.5160   29.9860   45.1120 C   0  0  0  0  0  0  0  0  0  0  0  0
   58.3000   30.8970   44.3840 C   0  0  0  0  0  0  0  0  0  0  0  0
   57.8730   31.3590   43.1380 C   0  0  0  0  0  0  0  0  0  0  0  0
   56.6650   30.9090   42.6000 C   0  0  0  0  0  0  0  0  0  0  0  0
   55.8860   29.9890   43.3050 C   0  0  0  0  0  0  0  0  0  0  0  0
   56.3070   29.5220   44.5550 C   0  0  0  0  0  0  0  0  0  0  0  0
   55.5200   28.5980   45.2370 O   0  0  0  0  0  0  0  0  0  0  0  0
   58.1530   26.0470   47.5600 C   0  0  0  0  0  0  0  0  0  0  0  0
   57.0160   25.2370   47.5060 C   0  0  0  0  0  0  0  0  0  0  0  0
   56.5267   22.6038   44.6150 H   0  0  0  0  0  0  0  0  0  0  0  0
   55.2070   22.2727   43.4422 H   0  0  0  0  0  0  0  0  0  0  0  0
   56.0288   23.8700   43.4422 H   0  0  0  0  0  0  0  0  0  0  0  0
   56.1970   25.6710   44.2138 H   0  0  0  0  0  0  0  0  0  0  0  0
   58.2397   27.0950   44.3048 H   0  0  0  0  0  0  0  0  0  0  0  0
   59.1492   30.4853   48.3076 H   0  0  0  0  0  0  0  0  0  0  0  0
   60.6772   29.5288   48.2105 H   0  0  0  0  0  0  0  0  0  0  0  0
   63.0998   32.2600   46.2777 H   0  0  0  0  0  0  0  0  0  0  0  0
   64.9678   33.2784   47.5705 H   0  0  0  0  0  0  0  0  0  0  0  0
   64.7288   33.6656   50.0226 H   0  0  0  0  0  0  0  0  0  0  0  0
   62.6036   33.0712   51.1784 H   0  0  0  0  0  0  0  0  0  0  0  0
   60.5878   34.9743   48.3911 H   0  0  0  0  0  0  0  0  0  0  0  0
   60.2635   35.8239   46.0655 H   0  0  0  0  0  0  0  0  0  0  0  0
   58.4069   34.9273   44.6550 H   0  0  0  0  0  0  0  0  0  0  0  0
   56.8840   33.1709   45.5650 H   0  0  0  0  0  0  0  0  0  0  0  0
   57.2063   32.3165   47.8892 H   0  0  0  0  0  0  0  0  0  0  0  0
   57.5558   28.4984   46.6503 H   0  0  0  0  0  0  0  0  0  0  0  0
   57.6234   30.2003   47.2360 H   0  0  0  0  0  0  0  0  0  0  0  0
   59.2564   31.2483   44.7987 H   0  0  0  0  0  0  0  0  0  0  0  0
   58.4888   32.0787   42.5788 H   0  0  0  0  0  0  0  0  0  0  0  0
   56.3273   31.2794   41.6208 H   0  0  0  0  0  0  0  0  0  0  0  0
   54.9386   29.6304   42.8763 H   0  0  0  0  0  0  0  0  0  0  0  0
   58.6997   26.1609   48.5077 H   0  0  0  0  0  0  0  0  0  0  0  0
   56.6668   24.7222   48.4132 H   0  0  0  0  0  0  0  0  0  0  0  0
  1  2  1  0
  2  3  2  0
  2  4  1  0
  4  5  1  0
  5  6  2  0
  6  7  1  0
  7  8  2  0
  8  9  1  0
  9 10  2  0
  9 11  2  0
  9 12  1  0
 12 13  1  0
 13 14  1  0
 14 15  2  0
 14 16  1  0
 16 17  2  0
 17 18  1  0
 18 19  2  0
 19 20  1  0
 20 21  2  0
 21 22  1  0
 22 23  1  0
 23 24  2  0
 23 25  2  0
 23 26  1  0
 26 27  2  0
 27 28  1  0
 28 29  2  0
 29 30  1  0
 30 31  2  0
 12 32  1  0
 32 33  1  0
 33 34  2  0
 34 35  1  0
 35 36  2  0
 36 37  1  0
 37 38  2  0
 38 39  1  0
  8 40  1  0
 40 41  2  0
 41  5  1  0
 21 16  1  0
 31 26  1  0
 38 33  1  0
  1 42  1  0
  1 43  1  0
  1 44  1  0
  6 45  1  0
  7 46  1  0
 13 47  1  0
 13 48  1  0
 17 49  1  0
 18 50  1  0
 19 51  1  0
 20 52  1  0
 27 53  1  0
 28 54  1  0
 29 55  1  0
 30 56  1  0
 31 57  1  0
 32 58  1  0
 32 59  1  0
 34 60  1  0
 35 61  1  0
 36 62  1  0
 37 63  1  0
 40 64  1  0
 41 65  1  0
M  CHG  3   4  -1  22  -1  39  -1
M  END
>  <UniqueID>  (21) 
20

>  <SMILES>  (21) 
CC(=O)[N-]c1ccc(S(=O)(=O)N(CC(=O)c2ccccc2[N-]S(=O)(=O)c2ccccc2)Cc2ccccc2[O-])cc1

>  <Energy>  (21) 
82.98907175371474

>  <Genealogy>  (21) 
CC(=O)[N-]c1ccc(S(=O)(=O)N(CC(=O)c2ccccc2[N-]S(=O)(=O)c2ccccc2)Cc2ccccc2[O-])cc1 (protonated)
CC(=O)[N-]c1ccc(S(=O)(=O)N(CC(=O)c2ccccc2[N-]S(=O)(=O)c2ccccc2)Cc2ccccc2[O-])cc1 (3D coordinates assigned)
CC(=O)[N-]c1ccc(S(=O)(=O)N(CC(=O)c2ccccc2[N-]S(=O)(=O)c2ccccc2)Cc2ccccc2[O-])cc1 (optimized conformer: 82.98907175371474 kcal/mol)

>  <smiles>  (21) 
CC(=O)Nc1ccc(S(=O)(=O)N(CC(=O)c2ccccc2NS(=O)(=O)c2ccccc2)Cc2ccccc2O)cc1

>  <score_type>  (21) 
oracle

>  <origin>  (21) 
adg

>  <m_score__min__energy>  (21) 
-17

>  <m_primary>  (21) 
energy

$$$$
21:0
     RDKit          3D

 39 41  0  0  0  0  0  0  0  0999 V2000
   56.0977   25.1638   46.7766 H   0  0  0  0  0  0  0  0  0  0  0  0
   56.6330   26.0000   46.3030 C   0  0  0  0  0  0  0  0  0  0  0  0
   55.9520   27.0940   45.8710 N   0  0  0  0  0  0  0  0  0  0  0  0
   56.5900   28.1410   45.2770 C   0  0  0  0  0  0  0  0  0  0  0  0
   55.9420   29.1950   44.8730 N   0  0  0  0  0  0  0  0  0  0  0  0
   56.2900   30.0550   43.7770 C   0  0  0  0  0  0  0  0  0  0  0  0
   55.9740   29.7590   42.5930 O   0  0  0  0  0  0  0  0  0  0  0  0
   57.0330   31.2960   44.0520 C   0  0  0  0  0  0  0  0  0  0  0  0
   57.2490   31.7680   45.2970 N   0  0  0  0  0  0  0  0  0  0  0  0
   57.9460   32.9040   45.0850 C   0  0  0  0  0  0  0  0  0  0  0  0
   58.4240   33.7960   46.1880 C   0  0  0  0  0  0  0  0  0  0  0  0
   57.7329   33.7219   47.0406 H   0  0  0  0  0  0  0  0  0  0  0  0
   58.4587   34.8326   45.8217 H   0  0  0  0  0  0  0  0  0  0  0  0
   59.8010   33.3850   46.6280 C   0  0  0  0  0  0  0  0  0  0  0  0
   59.9900   32.2010   47.3580 C   0  0  0  0  0  0  0  0  0  0  0  0
   59.1281   31.5584   47.5907 H   0  0  0  0  0  0  0  0  0  0  0  0
   61.2680   31.8340   47.7910 C   0  0  0  0  0  0  0  0  0  0  0  0
   61.4069   30.9053   48.3639 H   0  0  0  0  0  0  0  0  0  0  0  0
   62.3750   32.6470   47.4970 C   0  0  0  0  0  0  0  0  0  0  0  0
   63.7430   32.2740   47.9870 C   0  0  0  0  0  0  0  0  0  0  0  0
   63.7505   32.2719   49.0870 H   0  0  0  0  0  0  0  0  0  0  0  0
   64.0045   31.2718   47.6167 H   0  0  0  0  0  0  0  0  0  0  0  0
   64.4770   33.0048   47.6167 H   0  0  0  0  0  0  0  0  0  0  0  0
   62.1830   33.8440   46.7920 C   0  0  0  0  0  0  0  0  0  0  0  0
   63.0424   34.4959   46.5763 H   0  0  0  0  0  0  0  0  0  0  0  0
   60.9050   34.2130   46.3620 C   0  0  0  0  0  0  0  0  0  0  0  0
   60.7629   35.1556   45.8130 H   0  0  0  0  0  0  0  0  0  0  0  0
   58.1640   33.1430   43.8100 O   0  0  0  0  0  0  0  0  0  0  0  0
   57.6120   32.1630   43.1400 C   0  0  0  0  0  0  0  0  0  0  0  0
   57.6320   32.0490   41.6500 C   0  0  0  0  0  0  0  0  0  0  0  0
   57.8156   31.0026   41.3648 H   0  0  0  0  0  0  0  0  0  0  0  0
   56.6629   32.3750   41.2443 H   0  0  0  0  0  0  0  0  0  0  0  0
   58.4322   32.6854   41.2443 H   0  0  0  0  0  0  0  0  0  0  0  0
   57.9780   28.0780   45.1070 C   0  0  0  0  0  0  0  0  0  0  0  0
   58.5140   28.9088   44.6249 H   0  0  0  0  0  0  0  0  0  0  0  0
   58.6610   26.9840   45.5410 N   0  0  0  0  0  0  0  0  0  0  0  0
   59.6990   26.9450   45.4200 H   0  0  0  0  0  0  0  0  0  0  0  0
   58.0170   25.9480   46.1400 C   0  0  0  0  0  0  0  0  0  0  0  0
   58.5837   25.0742   46.4939 H   0  0  0  0  0  0  0  0  0  0  0  0
  1  2  1  0
  2  3  1  0
  3  4  1  0
  4  5  2  0
  5  6  1  0
  6  7  2  0
  6  8  1  0
  8  9  1  0
  9 10  2  0
 10 11  1  0
 11 12  1  0
 11 13  1  0
 11 14  1  0
 14 15  2  0
 15 16  1  0
 15 17  1  0
 17 18  1  0
 17 19  2  0
 19 20  1  0
 20 21  1  0
 20 22  1  0
 20 23  1  0
 19 24  1  0
 24 25  1  0
 24 26  2  0
 26 27  1  0
 10 28  1  0
 28 29  1  0
 29 30  1  0
 30 31  1  0
 30 32  1  0
 30 33  1  0
  4 34  1  0
 34 35  1  0
 34 36  2  0
 36 37  1  0
 36 38  1  0
 38 39  1  0
 38  2  2  0
 29  8  2  0
 26 14  1  0
M  CHG  2   3  -1  36   1
M  END
>  <UniqueID>  (22) 
21

>  <SMILES>  (22) 
Cc1ccc(Cc2nc(C(=O)/N=c3/c[nH+]cc[n-]3)c(C)o2)cc1

>  <Energy>  (22) 
70.65799390907696

>  <Genealogy>  (22) 
Cc1ccc(Cc2nc(C(=O)N=c3c[nH+]cc[n-]3)c(C)o2)cc1 (protonated)
Cc1ccc(Cc2nc(C(=O)/N=c3/c[nH+]cc[n-]3)c(C)o2)cc1 (cis-trans isomerization)
Cc1ccc(Cc2nc(C(=O)/N=c3/c[nH+]cc[n-]3)c(C)o2)cc1 (3D coordinates assigned)
Cc1ccc(Cc2nc(C(=O)/N=c3/c[nH+]cc[n-]3)c(C)o2)cc1 (optimized conformer: 70.65799390907696 kcal/mol)

>  <smiles>  (22) 
Cc1ccc(Cc2nc(C(=O)N=c3cncc[nH]3)c(C)o2)cc1

>  <score_type>  (22) 
oracle

>  <origin>  (22) 
adg

>  <m_score__min__energy>  (22) 
-8.3599999999999994

>  <m_primary>  (22) 
energy

$$$$
22:0
     RDKit          3D

 73 78  0  0  1  0  0  0  0  0999 V2000
   68.4580   32.4660   52.0150 C   0  0  0  0  0  0  0  0  0  0  0  0
   67.7010   31.1970   51.7420 C   0  0  0  0  0  0  0  0  0  0  0  0
   66.6720   31.3660   50.7130 N   0  0  0  0  0  0  0  0  0  0  0  0
   66.7640   32.6690   50.1240 C   0  0  0  0  0  0  0  0  0  0  0  0
   65.4610   33.4490   50.1530 C   0  0  0  0  0  0  0  0  0  0  0  0
   64.3270   32.6230   49.8160 N   0  0  0  0  0  0  0  0  0  0  0  0
   63.3200   32.9680   48.8880 C   0  0  0  0  0  0  0  0  0  0  0  0
   63.5580   33.3360   47.5830 C   0  0  0  0  0  0  0  0  0  0  0  0
   62.5450   33.6600   46.7230 C   0  0  0  0  0  0  0  0  0  0  0  0
   61.2280   33.6300   47.1320 C   0  0  0  0  0  0  0  0  0  0  0  0
   60.2360   33.9810   46.1770 N   0  0  0  0  0  0  0  0  0  0  0  0
   59.4760   33.0910   45.6350 C   0  0  0  0  0  0  0  0  0  0  0  0
   59.0020   33.3230   44.4200 N   0  0  0  0  0  0  0  0  0  0  0  0
   58.2070   32.4120   43.8300 C   0  0  0  0  0  0  0  0  0  0  0  0
   57.8550   31.2260   44.4430 C   0  0  0  0  0  0  0  0  0  0  0  0
   58.3600   31.0070   45.7060 C   0  0  0  0  0  0  0  0  0  0  0  0
   58.0750   29.9110   46.3560 N   0  0  0  0  0  0  0  0  0  0  0  0
   58.9180   29.5980   47.4730 C   0  0  0  0  0  0  0  0  0  0  0  0
   58.7420   30.2080   48.7130 C   0  0  0  0  0  0  0  0  0  0  0  0
   59.5770   29.8730   49.7620 C   0  0  0  0  0  0  0  0  0  0  0  0
   60.5990   28.9450   49.6380 C   0  0  0  0  0  0  0  0  0  0  0  0
   60.7430   28.3600   48.3940 C   0  0  0  0  0  0  0  0  0  0  0  0
   59.9310   28.6660   47.3190 C   0  0  0  0  0  0  0  0  0  0  0  0
   60.1990   27.8720   45.7850 S   0  0  0  0  0  0  0  0  0  0  0  0
   61.1180   28.8710   44.6980 N   0  0  0  0  0  0  0  0  0  0  0  0
   58.8750   27.5260   45.1210 O   0  0  0  0  0  0  0  0  0  0  0  0
   60.9450   26.6070   45.9850 O   0  0  0  0  0  0  0  0  0  0  0  0
   59.1650   31.9410   46.2890 N   0  0  0  0  0  0  0  0  0  0  0  0
   56.9900   30.4640   43.5440 C   0  0  0  0  0  0  0  0  0  0  0  0
   55.8020   29.7030   43.9930 C   0  0  0  0  0  0  0  0  0  0  0  0
   57.0400   28.9840   43.4700 C   0  0  0  0  0  0  0  0  0  0  0  0
   56.9960   31.1770   42.2180 C   0  0  0  0  0  0  0  0  0  0  0  0
   57.5940   32.4540   42.5490 N   0  0  0  0  0  0  0  0  0  0  0  0
   60.9520   33.2670   48.4290 C   0  0  0  0  0  0  0  0  0  0  0  0
   59.6310   33.2350   48.8470 O   0  0  0  0  0  0  0  0  0  0  0  0
   59.3690   33.3000   50.2580 C   0  0  0  0  0  0  0  0  0  0  0  0
   61.9850   32.9450   49.2800 C   0  0  0  0  0  0  0  0  0  0  0  0
   64.2310   31.3350   50.5040 C   0  0  0  0  0  0  0  0  0  0  0  0
   65.4010   31.2180   51.4240 C   0  0  0  0  0  0  0  0  0  0  0  0
   68.5462   32.6138   53.1014 H   0  0  0  0  0  0  0  0  0  0  0  0
   69.4623   32.3964   51.5717 H   0  0  0  0  0  0  0  0  0  0  0  0
   67.9197   33.3167   51.5717 H   0  0  0  0  0  0  0  0  0  0  0  0
   68.4120   30.4277   51.4064 H   0  0  0  0  0  0  0  0  0  0  0  0
   67.1957   30.9030   52.6738 H   0  0  0  0  0  0  0  0  0  0  0  0
   67.5247   33.2443   50.6721 H   0  0  0  0  0  0  0  0  0  0  0  0
   67.0268   32.5240   49.0657 H   0  0  0  0  0  0  0  0  0  0  0  0
   65.3145   33.8576   51.1637 H   0  0  0  0  0  0  0  0  0  0  0  0
   65.5299   34.2520   49.4044 H   0  0  0  0  0  0  0  0  0  0  0  0
   64.5959   33.3706   47.2203 H   0  0  0  0  0  0  0  0  0  0  0  0
   62.7843   33.9490   45.6890 H   0  0  0  0  0  0  0  0  0  0  0  0
   59.2510   34.2200   43.9210 H   0  0  0  0  0  0  0  0  0  0  0  0
   57.9438   30.9513   48.8562 H   0  0  0  0  0  0  0  0  0  0  0  0
   59.4243   30.3628   50.7350 H   0  0  0  0  0  0  0  0  0  0  0  0
   61.2576   28.6888   50.4810 H   0  0  0  0  0  0  0  0  0  0  0  0
   61.5412   27.6163   48.2534 H   0  0  0  0  0  0  0  0  0  0  0  0
   61.6840   29.5520   45.2800 H   0  0  0  0  0  0  0  0  0  0  0  0
   61.7560   28.2240   44.1450 H   0  0  0  0  0  0  0  0  0  0  0  0
   59.5480   31.7780   47.2450 H   0  0  0  0  0  0  0  0  0  0  0  0
   55.5469   29.6572   45.0620 H   0  0  0  0  0  0  0  0  0  0  0  0
   54.7313   29.7025   43.7410 H   0  0  0  0  0  0  0  0  0  0  0  0
   57.6829   28.4174   44.1597 H   0  0  0  0  0  0  0  0  0  0  0  0
   57.2424   28.2451   42.6807 H   0  0  0  0  0  0  0  0  0  0  0  0
   57.6026   30.6343   41.4780 H   0  0  0  0  0  0  0  0  0  0  0  0
   55.9979   31.2656   41.7642 H   0  0  0  0  0  0  0  0  0  0  0  0
   57.5500   33.2740   41.8860 H   0  0  0  0  0  0  0  0  0  0  0  0
   60.2908   33.0713   50.8130 H   0  0  0  0  0  0  0  0  0  0  0  0
   59.0241   34.3109   50.5207 H   0  0  0  0  0  0  0  0  0  0  0  0
   58.5915   32.5675   50.5207 H   0  0  0  0  0  0  0  0  0  0  0  0
   61.7449   32.6572   50.3142 H   0  0  0  0  0  0  0  0  0  0  0  0
   63.2957   31.2883   51.0810 H   0  0  0  0  0  0  0  0  0  0  0  0
   64.2321   30.5105   49.7758 H   0  0  0  0  0  0  0  0  0  0  0  0
   65.3296   32.0026   52.1916 H   0  0  0  0  0  0  0  0  0  0  0  0
   65.3790   30.2161   51.8775 H   0  0  0  0  0  0  0  0  0  0  0  0
  1  2  1  0
  2  3  1  0
  3  4  1  0
  4  5  1  0
  5  6  1  0
  6  7  1  0
  7  8  2  0
  8  9  1  0
  9 10  2  0
 10 11  1  0
 11 12  2  0
 12 13  1  0
 13 14  1  0
 14 15  2  0
 15 16  1  0
 16 17  2  0
 17 18  1  0
 18 19  2  0
 19 20  1  0
 20 21  2  0
 21 22  1  0
 22 23  2  0
 23 24  1  0
 24 25  1  0
 24 26  2  0
 24 27  2  0
 16 28  1  0
 15 29  1  0
 29 30  1  0
 30 31  1  0
 29 32  1  0
 32 33  1  0
 10 34  1  0
 34 35  1  0
 35 36  1  0
 34 37  2  0
  6 38  1  0
 38 39  1  0
 39  3  1  0
 37  7  1  0
 28 12  1  0
 31 29  1  0
 33 14  1  0
 23 18  1  0
  1 40  1  0
  1 41  1  0
  1 42  1  0
  2 43  1  0
  2 44  1  0
  4 45  1  0
  4 46  1  0
  5 47  1  0
  5 48  1  0
  8 49  1  0
  9 50  1  0
 13 51  1  0
 19 52  1  0
 20 53  1  0
 21 54  1  0
 22 55  1  0
 25 56  1  0
 25 57  1  0
 28 58  1  0
 30 59  1  0
 30 60  1  0
 31 61  1  0
 31 62  1  0
 32 63  1  0
 32 64  1  0
 33 65  1  0
 36 66  1  0
 36 67  1  0
 36 68  1  0
 37 69  1  0
 38 70  1  0
 38 71  1  0
 39 72  1  0
 39 73  1  0
M  END
>  <smiles>  (23) 
CCN1CCN(c2ccc(N=c3[nH]c4c(c(=Nc5ccccc5S(N)(=O)=O)[nH]3)C3(CC3)CN4)c(OC)c2)CC1

>  <score_type>  (23) 
oracle

>  <origin>  (23) 
adg

>  <m_score__min__energy>  (23) 
-10.44

>  <m_primary>  (23) 
energy

$$$$
23:0
     RDKit          3D

 50 53  0  0  0  0  0  0  0  0999 V2000
   56.5280   33.1540   48.1190 H   0  0  0  0  0  0  0  0  0  0  0  0
   57.0820   33.2830   47.2830 O   0  0  0  0  0  0  0  0  0  0  0  0
   58.4720   33.3980   47.3130 C   0  0  0  0  0  0  0  0  0  0  0  0
   59.0990   34.2370   46.3850 C   0  0  0  0  0  0  0  0  0  0  0  0
   58.4936   34.7912   45.6527 H   0  0  0  0  0  0  0  0  0  0  0  0
   60.4890   34.3750   46.3830 C   0  0  0  0  0  0  0  0  0  0  0  0
   60.9744   35.0366   45.6504 H   0  0  0  0  0  0  0  0  0  0  0  0
   61.2630   33.6740   47.3100 C   0  0  0  0  0  0  0  0  0  0  0  0
   62.3575   33.7837   47.3068 H   0  0  0  0  0  0  0  0  0  0  0  0
   60.6490   32.8340   48.2410 C   0  0  0  0  0  0  0  0  0  0  0  0
   61.2617   32.2838   48.9703 H   0  0  0  0  0  0  0  0  0  0  0  0
   59.2540   32.6890   48.2500 C   0  0  0  0  0  0  0  0  0  0  0  0
   58.6500   31.8220   49.2180 N   0  0  0  0  0  0  0  0  0  0  0  0
   57.7220   32.3720   50.2090 C   0  0  0  0  0  0  0  0  0  0  0  0
   56.6879   32.2057   49.8729 H   0  0  0  0  0  0  0  0  0  0  0  0
   57.9064   33.4507   50.3201 H   0  0  0  0  0  0  0  0  0  0  0  0
   57.9350   31.6820   51.5560 C   0  0  0  0  0  0  0  0  0  0  0  0
   57.1083   31.9424   52.2333 H   0  0  0  0  0  0  0  0  0  0  0  0
   58.8901   32.0176   51.9864 H   0  0  0  0  0  0  0  0  0  0  0  0
   57.9740   30.2250   51.3740 N   0  0  0  0  0  0  0  0  0  0  0  0
   57.3760   29.3550   52.3510 C   0  0  0  0  0  0  0  0  0  0  0  0
   58.0090   28.3410   52.7530 O   0  0  0  0  0  0  0  0  0  0  0  0
   55.9970   29.5950   52.8310 C   0  0  0  0  0  0  0  0  0  0  0  0
   55.1800   30.5940   52.3390 C   0  0  0  0  0  0  0  0  0  0  0  0
   55.4560   31.3607   51.6000 H   0  0  0  0  0  0  0  0  0  0  0  0
   53.9470   30.4470   52.9530 C   0  0  0  0  0  0  0  0  0  0  0  0
   52.8500   31.1950   52.7230 C   0  0  0  0  0  0  0  0  0  0  0  0
   52.4303   31.7700   53.5616 H   0  0  0  0  0  0  0  0  0  0  0  0
   52.1790   31.2880   51.4130 C   0  0  0  0  0  0  0  0  0  0  0  0
   52.1900   30.2960   50.5060 N   0  0  0  0  0  0  0  0  0  0  0  0
   51.4040   30.7690   49.5140 C   0  0  0  0  0  0  0  0  0  0  0  0
   51.1760   30.1180   48.4610 O   0  0  0  0  0  0  0  0  0  0  0  0
   50.8720   31.9890   49.7440 N   0  0  0  0  0  0  0  0  0  0  0  0
   51.3620   32.2990   50.9550 C   0  0  0  0  0  0  0  0  0  0  0  0
   51.0280   33.4590   51.6430 O   0  0  0  0  0  0  0  0  0  0  0  0
   54.0600   29.3350   53.7940 C   0  0  0  0  0  0  0  0  0  0  0  0
   53.0780   28.8110   54.5470 C   0  0  0  0  0  0  0  0  0  0  0  0
   53.2771   27.9303   55.1753 H   0  0  0  0  0  0  0  0  0  0  0  0
   52.0751   29.2628   54.5351 H   0  0  0  0  0  0  0  0  0  0  0  0
   55.3250   28.8400   53.7340 N   0  0  0  0  0  0  0  0  0  0  0  0
   55.8600   27.6950   54.4810 C   0  0  0  0  0  0  0  0  0  0  0  0
   55.7702   27.8871   55.5604 H   0  0  0  0  0  0  0  0  0  0  0  0
   55.2916   26.7898   54.2212 H   0  0  0  0  0  0  0  0  0  0  0  0
   56.9190   27.5502   54.2212 H   0  0  0  0  0  0  0  0  0  0  0  0
   58.9240   29.6860   50.3940 C   0  0  0  0  0  0  0  0  0  0  0  0
   58.7583   28.6042   50.2831 H   0  0  0  0  0  0  0  0  0  0  0  0
   59.9496   29.8725   50.7453 H   0  0  0  0  0  0  0  0  0  0  0  0
   58.7250   30.3700   49.0410 C   0  0  0  0  0  0  0  0  0  0  0  0
   57.7908   30.0102   48.5852 H   0  0  0  0  0  0  0  0  0  0  0  0
   59.5766   30.1302   48.3873 H   0  0  0  0  0  0  0  0  0  0  0  0
  1  2  1  0
  2  3  1  0
  3  4  2  0
  4  5  1  0
  4  6  1  0
  6  7  1  0
  6  8  2  0
  8  9  1  0
  8 10  1  0
 10 11  1  0
 10 12  2  0
 12 13  1  0
 13 14  1  0
 14 15  1  0
 14 16  1  0
 14 17  1  0
 17 18  1  0
 17 19  1  0
 17 20  1  0
 20 21  1  0
 21 22  2  0
 21 23  1  0
 23 24  2  0
 24 25  1  0
 24 26  1  0
 26 27  2  0
 27 28  1  0
 27 29  1  0
 29 30  1  0
 30 31  1  0
 31 32  2  0
 31 33  1  0
 33 34  1  0
 34 35  1  0
 26 36  1  0
 36 37  2  0
 37 38  1  0
 37 39  1  0
 36 40  1  0
 40 41  1  0
 41 42  1  0
 41 43  1  0
 41 44  1  0
 20 45  1  0
 45 46  1  0
 45 47  1  0
 45 48  1  0
 48 49  1  0
 48 50  1  0
 12  3  1  0
 48 13  1  0
 40 23  1  0
 34 29  2  0
M  CHG  3  30  -1  33  -1  35  -1
M  END
>  <UniqueID>  (24) 
22

>  <SMILES>  (24) 
C=c1/c(=C/c2[n-]c(=O)[n-]c2[O-])cc(C(=O)N2CCN(c3ccccc3O)CC2)n1C

>  <Energy>  (24) 
127.92619171614838

>  <Genealogy>  (24) 
C=c1c(=Cc2[n-]c(=O)[n-]c2[O-])cc(C(=O)N2CCN(c3ccccc3O)CC2)n1C (protonated)
C=c1/c(=C/c2[n-]c(=O)[n-]c2[O-])cc(C(=O)N2CCN(c3ccccc3O)CC2)n1C (cis-trans isomerization)
C=c1/c(=C/c2[n-]c(=O)[n-]c2[O-])cc(C(=O)N2CCN(c3ccccc3O)CC2)n1C (3D coordinates assigned)
C=c1/c(=C/c2[n-]c(=O)[n-]c2[O-])cc(C(=O)N2CCN(c3ccccc3O)CC2)n1C (nonaromatic ring conformer: 127.92619171614838 kcal/mol)

>  <smiles>  (24) 
C=c1c(=Cc2[nH]c(=O)[nH]c2O)cc(C(=O)N2CCN(c3ccccc3O)CC2)n1C

>  <score_type>  (24) 
oracle

>  <origin>  (24) 
adg

>  <m_score__min__energy>  (24) 
-17.629999999999999

>  <m_primary>  (24) 
energy

$$$$
24:0
     RDKit          3D

 47 50  0  0  0  0  0  0  0  0999 V2000
   54.0550   29.1990   54.8470 C   0  0  0  0  0  0  0  0  0  0  0  0
   54.7590   29.9710   54.0130 C   0  0  0  0  0  0  0  0  0  0  0  0
   55.9410   30.5130   54.3730 N   0  0  0  0  0  0  0  0  0  0  0  0
   56.4780   31.0680   53.2690 C   0  0  0  0  0  0  0  0  0  0  0  0
   57.8030   31.7140   53.2250 C   0  0  0  0  0  0  0  0  0  0  0  0
   58.3170   32.1360   54.2960 O   0  0  0  0  0  0  0  0  0  0  0  0
   58.5070   31.8900   51.9830 N   0  0  0  0  0  0  0  0  0  0  0  0
   59.2110   33.1600   51.7410 C   0  0  0  0  0  0  0  0  0  0  0  0
   60.0030   33.1200   50.4310 C   0  0  0  0  0  0  0  0  0  0  0  0
   59.1830   32.5100   49.3750 N   0  0  0  0  0  0  0  0  0  0  0  0
   58.9440   33.2040   48.1350 C   0  0  0  0  0  0  0  0  0  0  0  0
   59.7570   34.2850   47.7550 C   0  0  0  0  0  0  0  0  0  0  0  0
   59.5310   34.9490   46.5460 C   0  0  0  0  0  0  0  0  0  0  0  0
   58.4940   34.5370   45.7030 C   0  0  0  0  0  0  0  0  0  0  0  0
   58.2780   35.1810   44.5300 F   0  0  0  0  0  0  0  0  0  0  0  0
   57.6850   33.4580   46.0690 C   0  0  0  0  0  0  0  0  0  0  0  0
   57.9080   32.7920   47.2780 C   0  0  0  0  0  0  0  0  0  0  0  0
   58.5410   31.2080   49.6130 C   0  0  0  0  0  0  0  0  0  0  0  0
   58.7050   30.7540   51.0710 C   0  0  0  0  0  0  0  0  0  0  0  0
   55.6420   30.8840   52.1850 C   0  0  0  0  0  0  0  0  0  0  0  0
   54.5190   30.2240   52.6530 C   0  0  0  0  0  0  0  0  0  0  0  0
   53.4570   29.9390   51.8750 C   0  0  0  0  0  0  0  0  0  0  0  0
   52.4420   30.9060   51.4270 C   0  0  0  0  0  0  0  0  0  0  0  0
   52.0330   31.0450   50.1530 N   0  0  0  0  0  0  0  0  0  0  0  0
   51.0160   31.9270   50.2450 C   0  0  0  0  0  0  0  0  0  0  0  0
   50.3720   32.3290   49.2400 O   0  0  0  0  0  0  0  0  0  0  0  0
   50.7330   32.3380   51.5000 N   0  0  0  0  0  0  0  0  0  0  0  0
   51.6360   31.6730   52.2390 C   0  0  0  0  0  0  0  0  0  0  0  0
   51.7130   31.7700   53.6260 O   0  0  0  0  0  0  0  0  0  0  0  0
   53.0945   28.7722   54.5227 H   0  0  0  0  0  0  0  0  0  0  0  0
   54.4363   28.9906   55.8576 H   0  0  0  0  0  0  0  0  0  0  0  0
   56.3940   30.4410   55.3110 H   0  0  0  0  0  0  0  0  0  0  0  0
   58.4728   33.9738   51.6880 H   0  0  0  0  0  0  0  0  0  0  0  0
   59.9176   33.3266   52.5674 H   0  0  0  0  0  0  0  0  0  0  0  0
   60.2751   34.1444   50.1368 H   0  0  0  0  0  0  0  0  0  0  0  0
   60.9152   32.5224   50.5749 H   0  0  0  0  0  0  0  0  0  0  0  0
   60.5762   34.6107   48.4128 H   0  0  0  0  0  0  0  0  0  0  0  0
   60.1697   35.7968   46.2572 H   0  0  0  0  0  0  0  0  0  0  0  0
   56.8711   33.1320   45.4047 H   0  0  0  0  0  0  0  0  0  0  0  0
   57.2699   31.9416   47.5602 H   0  0  0  0  0  0  0  0  0  0  0  0
   57.4684   31.2918   49.3839 H   0  0  0  0  0  0  0  0  0  0  0  0
   59.0246   30.4627   48.9644 H   0  0  0  0  0  0  0  0  0  0  0  0
   57.9613   29.9749   51.2946 H   0  0  0  0  0  0  0  0  0  0  0  0
   59.7208   30.3554   51.2102 H   0  0  0  0  0  0  0  0  0  0  0  0
   55.8321   31.2010   51.1490 H   0  0  0  0  0  0  0  0  0  0  0  0
   53.3384   28.8958   51.5469 H   0  0  0  0  0  0  0  0  0  0  0  0
   51.9470   30.9680   54.1980 H   0  0  0  0  0  0  0  0  0  0  0  0
  1  2  2  0
  2  3  1  0
  3  4  1  0
  4  5  1  0
  5  6  2  0
  5  7  1  0
  7  8  1  0
  8  9  1  0
  9 10  1  0
 10 11  1  0
 11 12  2  0
 12 13  1  0
 13 14  2  0
 14 15  1  0
 14 16  1  0
 16 17  2  0
 10 18  1  0
 18 19  1  0
  4 20  2  0
 20 21  1  0
 21 22  2  3
 22 23  1  0
 23 24  1  0
 24 25  1  0
 25 26  2  0
 25 27  1  0
 27 28  1  0
 28 29  1  0
 21  2  1  0
 28 23  2  0
 19  7  1  0
 17 11  1  0
  1 30  1  0
  1 31  1  0
  3 32  1  0
  8 33  1  0
  8 34  1  0
  9 35  1  0
  9 36  1  0
 12 37  1  0
 13 38  1  0
 16 39  1  0
 17 40  1  0
 18 41  1  0
 18 42  1  0
 19 43  1  0
 19 44  1  0
 20 45  1  0
 22 46  1  0
 29 47  1  0
M  CHG  2  24  -1  27  -1
M  END
>  <UniqueID>  (25) 
23

>  <SMILES>  (25) 
C=c1[nH]c(C(=O)N2CCN(c3ccc(F)cc3)CC2)cc1=Cc1[n-]c(=O)[n-]c1O

>  <Energy>  (25) 
124.37545354371446

>  <Genealogy>  (25) 
C=c1[nH]c(C(=O)N2CCN(c3ccc(F)cc3)CC2)cc1=Cc1[n-]c(=O)[n-]c1O (protonated)
C=c1[nH]c(C(=O)N2CCN(c3ccc(F)cc3)CC2)cc1=Cc1[n-]c(=O)[n-]c1O (3D coordinates assigned)
C=c1[nH]c(C(=O)N2CCN(c3ccc(F)cc3)CC2)cc1=Cc1[n-]c(=O)[n-]c1O (nonaromatic ring conformer: 124.37545354371446 kcal/mol)

>  <smiles>  (25) 
C=c1[nH]c(C(=O)N2CCN(c3ccc(F)cc3)CC2)cc1=Cc1[nH]c(=O)[nH]c1O

>  <score_type>  (25) 
oracle

>  <origin>  (25) 
adg

>  <m_score__min__energy>  (25) 
-13.609999999999999

>  <m_primary>  (25) 
energy

$$$$
25:0
     RDKit          3D

 57 58  0  0  0  0  0  0  0  0999 V2000
   57.6730   33.9880   44.7550 C   0  0  0  0  0  0  0  0  0  0  0  0
   58.8630   33.4990   45.0630 C   0  0  0  0  0  0  0  0  0  0  0  0
   59.3280   33.4490   46.4590 C   0  0  0  0  0  0  0  0  0  0  0  0
   59.2300   34.6070   47.2520 C   0  0  0  0  0  0  0  0  0  0  0  0
   59.6530   34.5960   48.5790 C   0  0  0  0  0  0  0  0  0  0  0  0
   60.1760   33.4220   49.1360 C   0  0  0  0  0  0  0  0  0  0  0  0
   60.6050   33.4090   50.4580 O   0  0  0  0  0  0  0  0  0  0  0  0
   60.2660   32.2560   48.3660 C   0  0  0  0  0  0  0  0  0  0  0  0
   59.8560   32.2560   47.0200 C   0  0  0  0  0  0  0  0  0  0  0  0
   60.0060   30.9860   46.2060 C   0  0  0  0  0  0  0  0  0  0  0  0
   58.6710   30.4270   45.7640 C   0  0  0  0  0  0  0  0  0  0  0  0
   58.4860   29.5590   44.7330 C   0  0  0  0  0  0  0  0  0  0  0  0
   59.4560   28.4050   44.5610 C   0  0  0  0  0  0  0  0  0  0  0  0
   59.6090   27.5500   45.8270 C   0  0  0  0  0  0  0  0  0  0  0  0
   58.4790   26.5620   45.9950 C   0  0  0  0  0  0  0  0  0  0  0  0
   57.1480   27.0060   45.9120 C   0  0  0  0  0  0  0  0  0  0  0  0
   56.0850   26.1200   46.1000 C   0  0  0  0  0  0  0  0  0  0  0  0
   54.7820   26.5980   46.0130 O   0  0  0  0  0  0  0  0  0  0  0  0
   56.3380   24.7620   46.3720 C   0  0  0  0  0  0  0  0  0  0  0  0
   55.1950   23.8110   46.6400 C   0  0  0  0  0  0  0  0  0  0  0  0
   54.8170   23.0710   45.3820 C   0  0  0  0  0  0  0  0  0  0  0  0
   55.7100   22.7310   44.4280 C   0  0  0  0  0  0  0  0  0  0  0  0
   56.3810   21.3850   44.5160 C   0  0  0  0  0  0  0  0  0  0  0  0
   56.0650   23.6760   43.3050 C   0  0  0  0  0  0  0  0  0  0  0  0
   57.6730   24.3150   46.4670 C   0  0  0  0  0  0  0  0  0  0  0  0
   57.9480   22.9830   46.7570 O   0  0  0  0  0  0  0  0  0  0  0  0
   58.7350   25.2070   46.2760 C   0  0  0  0  0  0  0  0  0  0  0  0
   60.0430   24.7430   46.3720 O   0  0  0  0  0  0  0  0  0  0  0  0
   57.2890   29.6180   43.7920 C   0  0  0  0  0  0  0  0  0  0  0  0
   56.0540   30.1110   44.5040 C   0  0  0  0  0  0  0  0  0  0  0  0
   55.1440   29.3050   44.8520 O   0  0  0  0  0  0  0  0  0  0  0  0
   55.9400   31.4610   44.8290 O   0  0  0  0  0  0  0  0  0  0  0  0
   57.3448   34.0162   43.7055 H   0  0  0  0  0  0  0  0  0  0  0  0
   57.0117   34.3664   45.5484 H   0  0  0  0  0  0  0  0  0  0  0  0
   59.5165   33.1231   44.2620 H   0  0  0  0  0  0  0  0  0  0  0  0
   58.8154   35.5297   46.8199 H   0  0  0  0  0  0  0  0  0  0  0  0
   59.5764   35.5082   49.1889 H   0  0  0  0  0  0  0  0  0  0  0  0
   60.6601   31.3332   48.8167 H   0  0  0  0  0  0  0  0  0  0  0  0
   60.6101   31.2069   45.3137 H   0  0  0  0  0  0  0  0  0  0  0  0
   60.4922   30.2328   46.8434 H   0  0  0  0  0  0  0  0  0  0  0  0
   57.7786   30.7483   46.3211 H   0  0  0  0  0  0  0  0  0  0  0  0
   59.0928   27.7614   43.7462 H   0  0  0  0  0  0  0  0  0  0  0  0
   60.4424   28.8375   44.3373 H   0  0  0  0  0  0  0  0  0  0  0  0
   60.5570   26.9954   45.7662 H   0  0  0  0  0  0  0  0  0  0  0  0
   59.5932   28.2278   46.6932 H   0  0  0  0  0  0  0  0  0  0  0  0
   56.9410   28.0646   45.6963 H   0  0  0  0  0  0  0  0  0  0  0  0
   55.5003   23.0857   47.4086 H   0  0  0  0  0  0  0  0  0  0  0  0
   54.3258   24.3888   46.9874 H   0  0  0  0  0  0  0  0  0  0  0  0
   53.7626   22.7947   45.2342 H   0  0  0  0  0  0  0  0  0  0  0  0
   56.5173   21.1116   45.5727 H   0  0  0  0  0  0  0  0  0  0  0  0
   55.7540   20.6296   44.0198 H   0  0  0  0  0  0  0  0  0  0  0  0
   57.3616   21.4310   44.0198 H   0  0  0  0  0  0  0  0  0  0  0  0
   56.4224   24.6275   43.7256 H   0  0  0  0  0  0  0  0  0  0  0  0
   56.8564   23.2286   42.6857 H   0  0  0  0  0  0  0  0  0  0  0  0
   55.1748   23.8603   42.6857 H   0  0  0  0  0  0  0  0  0  0  0  0
   57.5200   30.3010   42.9612 H   0  0  0  0  0  0  0  0  0  0  0  0
   57.0915   28.6024   43.4184 H   0  0  0  0  0  0  0  0  0  0  0  0
  1  2  2  0
  2  3  1  0
  3  4  2  0
  4  5  1  0
  5  6  2  0
  6  7  1  0
  6  8  1  0
  8  9  2  0
  9 10  1  0
 10 11  1  0
 11 12  2  3
 12 13  1  0
 13 14  1  0
 14 15  1  0
 15 16  2  0
 16 17  1  0
 17 18  1  0
 17 19  2  0
 19 20  1  0
 20 21  1  0
 21 22  2  3
 22 23  1  0
 22 24  1  0
 19 25  1  0
 25 26  1  0
 25 27  2  0
 27 28  1  0
 12 29  1  0
 29 30  1  0
 30 31  2  0
 30 32  1  0
  9  3  1  0
 27 15  1  0
  1 33  1  0
  1 34  1  0
  2 35  1  0
  4 36  1  0
  5 37  1  0
  8 38  1  0
 10 39  1  0
 10 40  1  0
 11 41  1  0
 13 42  1  0
 13 43  1  0
 14 44  1  0
 14 45  1  0
 16 46  1  0
 20 47  1  0
 20 48  1  0
 21 49  1  0
 23 50  1  0
 23 51  1  0
 23 52  1  0
 24 53  1  0
 24 54  1  0
 24 55  1  0
 29 56  1  0
 29 57  1  0
M  CHG  5   7  -1  18  -1  26  -1  28  -1  32  -1
M  END
>  <UniqueID>  (26) 
24

>  <SMILES>  (26) 
C=Cc1ccc([O-])cc1CC=C(CCc1cc([O-])c(CC=C(C)C)c([O-])c1[O-])CC(=O)[O-]

>  <Energy>  (26) 
52.94896109175893

>  <Genealogy>  (26) 
C=Cc1ccc([O-])cc1CC=C(CCc1cc([O-])c(CC=C(C)C)c([O-])c1[O-])CC(=O)[O-] (protonated)
C=Cc1ccc([O-])cc1CC=C(CCc1cc([O-])c(CC=C(C)C)c([O-])c1[O-])CC(=O)[O-] (3D coordinates assigned)
C=Cc1ccc([O-])cc1CC=C(CCc1cc([O-])c(CC=C(C)C)c([O-])c1[O-])CC(=O)[O-] (optimized conformer: 52.94896109175893 kcal/mol)

>  <smiles>  (26) 
C=Cc1ccc(O)cc1CC=C(CCc1cc(O)c(CC=C(C)C)c(O)c1O)CC(=O)O

>  <score_type>  (26) 
oracle

>  <origin>  (26) 
adg

>  <m_score__min__energy>  (26) 
-19.530000000000001

>  <m_primary>  (26) 
energy

$$$$
26:0
     RDKit          3D

 63 65  0  0  0  0  0  0  0  0999 V2000
   58.1140   25.9520   47.1330 C   0  0  0  0  0  0  0  0  0  0  0  0
   57.4150   26.1820   45.7960 C   0  0  0  0  0  0  0  0  0  0  0  0
   57.0150   27.6520   45.6260 C   0  0  0  0  0  0  0  0  0  0  0  0
   57.6170   28.2400   44.3470 C   0  0  0  0  0  0  0  0  0  0  0  0
   58.2240   29.5500   44.6270 N   0  0  0  0  0  0  0  0  0  0  0  0
   59.6710   29.6370   44.8640 C   0  0  0  0  0  0  0  0  0  0  0  0
   60.0830   28.6600   45.9310 C   0  0  0  0  0  0  0  0  0  0  0  0
   60.6540   27.5850   45.5980 O   0  0  0  0  0  0  0  0  0  0  0  0
   59.7960   28.9390   47.3120 N   0  0  0  0  0  0  0  0  0  0  0  0
   60.4030   28.2240   48.4070 C   0  0  0  0  0  0  0  0  0  0  0  0
   61.1390   27.2240   48.1720 O   0  0  0  0  0  0  0  0  0  0  0  0
   60.1890   28.6500   49.8140 C   0  0  0  0  0  0  0  0  0  0  0  0
   60.7770   27.9260   50.8720 C   0  0  0  0  0  0  0  0  0  0  0  0
   60.5860   28.3220   52.1990 C   0  0  0  0  0  0  0  0  0  0  0  0
   59.7930   29.4320   52.4910 C   0  0  0  0  0  0  0  0  0  0  0  0
   59.1740   30.1410   51.4580 C   0  0  0  0  0  0  0  0  0  0  0  0
   59.3700   29.7630   50.1220 C   0  0  0  0  0  0  0  0  0  0  0  0
   58.7610   30.5010   49.1040 O   0  0  0  0  0  0  0  0  0  0  0  0
   57.3940   30.7070   44.8520 C   0  0  0  0  0  0  0  0  0  0  0  0
   56.1520   30.6430   44.6480 O   0  0  0  0  0  0  0  0  0  0  0  0
   57.9850   31.9900   45.2570 C   0  0  0  0  0  0  0  0  0  0  0  0
   57.8060   33.1400   44.4750 C   0  0  0  0  0  0  0  0  0  0  0  0
   58.3390   34.3620   44.8960 C   0  0  0  0  0  0  0  0  0  0  0  0
   59.0600   34.4390   46.0930 C   0  0  0  0  0  0  0  0  0  0  0  0
   59.2570   33.2880   46.8720 C   0  0  0  0  0  0  0  0  0  0  0  0
   60.1980   33.3460   48.3600 S   0  0  0  0  0  0  0  0  0  0  0  0
   61.0550   34.5840   48.3870 O   0  0  0  0  0  0  0  0  0  0  0  0
   59.2460   33.3890   49.5220 O   0  0  0  0  0  0  0  0  0  0  0  0
   61.2020   31.9140   48.4610 N   0  0  0  0  0  0  0  0  0  0  0  0
   61.8540   31.6550   47.1710 C   0  0  0  0  0  0  0  0  0  0  0  0
   63.2170   32.3280   47.1860 C   0  0  0  0  0  0  0  0  0  0  0  0
   63.5130   32.6140   48.6490 C   0  0  0  0  0  0  0  0  0  0  0  0
   62.2960   32.1180   49.4170 C   0  0  0  0  0  0  0  0  0  0  0  0
   58.7190   32.0660   46.4490 C   0  0  0  0  0  0  0  0  0  0  0  0
   57.4189   26.1807   47.9543 H   0  0  0  0  0  0  0  0  0  0  0  0
   58.4327   24.9016   47.2042 H   0  0  0  0  0  0  0  0  0  0  0  0
   58.9942   26.6079   47.2042 H   0  0  0  0  0  0  0  0  0  0  0  0
   58.0974   25.8991   44.9809 H   0  0  0  0  0  0  0  0  0  0  0  0
   56.5032   25.5673   45.7690 H   0  0  0  0  0  0  0  0  0  0  0  0
   55.9185   27.7226   45.5730 H   0  0  0  0  0  0  0  0  0  0  0  0
   57.3966   28.2208   46.4867 H   0  0  0  0  0  0  0  0  0  0  0  0
   58.3883   27.5572   43.9612 H   0  0  0  0  0  0  0  0  0  0  0  0
   56.8195   28.3662   43.6000 H   0  0  0  0  0  0  0  0  0  0  0  0
   60.2064   29.4039   43.9318 H   0  0  0  0  0  0  0  0  0  0  0  0
   59.9195   30.6560   45.1955 H   0  0  0  0  0  0  0  0  0  0  0  0
   59.1310   29.7150   47.5180 H   0  0  0  0  0  0  0  0  0  0  0  0
   61.3919   27.0411   50.6508 H   0  0  0  0  0  0  0  0  0  0  0  0
   61.0618   27.7574   53.0144 H   0  0  0  0  0  0  0  0  0  0  0  0
   59.6549   29.7494   53.5351 H   0  0  0  0  0  0  0  0  0  0  0  0
   58.5294   31.0004   51.6943 H   0  0  0  0  0  0  0  0  0  0  0  0
   59.1250   31.3970   48.8080 H   0  0  0  0  0  0  0  0  0  0  0  0
   57.2461   33.0807   43.5300 H   0  0  0  0  0  0  0  0  0  0  0  0
   58.1914   35.2648   44.2851 H   0  0  0  0  0  0  0  0  0  0  0  0
   59.4731   35.4033   46.4240 H   0  0  0  0  0  0  0  0  0  0  0  0
   61.9750   30.5714   47.0255 H   0  0  0  0  0  0  0  0  0  0  0  0
   61.2419   32.0532   46.3484 H   0  0  0  0  0  0  0  0  0  0  0  0
   63.9807   31.6588   46.7630 H   0  0  0  0  0  0  0  0  0  0  0  0
   63.2250   33.2467   46.5810 H   0  0  0  0  0  0  0  0  0  0  0  0
   64.4161   32.0747   48.9707 H   0  0  0  0  0  0  0  0  0  0  0  0
   63.6976   33.6839   48.8255 H   0  0  0  0  0  0  0  0  0  0  0  0
   62.5340   31.1684   49.9187 H   0  0  0  0  0  0  0  0  0  0  0  0
   62.0019   32.8545   50.1793 H   0  0  0  0  0  0  0  0  0  0  0  0
   58.8732   31.1612   47.0552 H   0  0  0  0  0  0  0  0  0  0  0  0
  1  2  1  0
  2  3  1  0
  3  4  1  0
  4  5  1  0
  5  6  1  0
  6  7  1  0
  7  8  2  0
  7  9  1  0
  9 10  1  0
 10 11  2  0
 10 12  1  0
 12 13  2  0
 13 14  1  0
 14 15  2  0
 15 16  1  0
 16 17  2  0
 17 18  1  0
  5 19  1  0
 19 20  2  0
 19 21  1  0
 21 22  2  0
 22 23  1  0
 23 24  2  0
 24 25  1  0
 25 26  1  0
 26 27  2  0
 26 28  2  0
 26 29  1  0
 29 30  1  0
 30 31  1  0
 31 32  1  0
 32 33  1  0
 25 34  2  0
 17 12  1  0
 34 21  1  0
 33 29  1  0
  1 35  1  0
  1 36  1  0
  1 37  1  0
  2 38  1  0
  2 39  1  0
  3 40  1  0
  3 41  1  0
  4 42  1  0
  4 43  1  0
  6 44  1  0
  6 45  1  0
  9 46  1  0
 13 47  1  0
 14 48  1  0
 15 49  1  0
 16 50  1  0
 18 51  1  0
 22 52  1  0
 23 53  1  0
 24 54  1  0
 30 55  1  0
 30 56  1  0
 31 57  1  0
 31 58  1  0
 32 59  1  0
 32 60  1  0
 33 61  1  0
 33 62  1  0
 34 63  1  0
M  END
>  <UniqueID>  (27) 
25

>  <SMILES>  (27) 
CCCCN(CC(=O)NC(=O)c1ccccc1O)C(=O)c1cccc(S(=O)(=O)N2CCCC2)c1

>  <Energy>  (27) 
69.03643715108048

>  <Genealogy>  (27) 
CCCCN(CC(=O)NC(=O)c1ccccc1O)C(=O)c1cccc(S(=O)(=O)N2CCCC2)c1 (3D coordinates assigned)
CCCCN(CC(=O)NC(=O)c1ccccc1O)C(=O)c1cccc(S(=O)(=O)N2CCCC2)c1 (nonaromatic ring conformer: 69.03643715108048 kcal/mol)

>  <smiles>  (27) 
CCCCN(CC(=O)NC(=O)c1ccccc1O)C(=O)c1cccc(S(=O)(=O)N2CCCC2)c1

>  <score_type>  (27) 
oracle

>  <origin>  (27) 
adg

>  <m_score__min__energy>  (27) 
-10.84

>  <m_primary>  (27) 
energy

$$$$
27:0
     RDKit          3D

 39 41  0  0  0  0  0  0  0  0999 V2000
   55.0310   26.7200   46.9210 H   0  0  0  0  0  0  0  0  0  0  0  0
   55.5390   26.6930   46.0090 N   0  0  0  0  0  0  0  0  0  0  0  0
   56.3250   27.6550   45.6430 C   0  0  0  0  0  0  0  0  0  0  0  0
   57.6720   27.4810   45.6730 N   0  0  0  0  0  0  0  0  0  0  0  0
   58.5210   28.4720   45.2900 C   0  0  0  0  0  0  0  0  0  0  0  0
   59.9970   28.2650   45.4050 C   0  0  0  0  0  0  0  0  0  0  0  0
   60.1997   27.2825   45.8562 H   0  0  0  0  0  0  0  0  0  0  0  0
   60.4610   28.3010   44.4083 H   0  0  0  0  0  0  0  0  0  0  0  0
   60.5350   29.2920   46.2300 O   0  0  0  0  0  0  0  0  0  0  0  0
   60.0010   29.7010   47.4600 C   0  0  0  0  0  0  0  0  0  0  0  0
   59.4560   28.7800   48.3760 C   0  0  0  0  0  0  0  0  0  0  0  0
   59.4557   27.7063   48.1370 H   0  0  0  0  0  0  0  0  0  0  0  0
   58.9160   29.2220   49.5860 C   0  0  0  0  0  0  0  0  0  0  0  0
   58.4940   28.4962   50.2968 H   0  0  0  0  0  0  0  0  0  0  0  0
   58.9110   30.5850   49.8950 C   0  0  0  0  0  0  0  0  0  0  0  0
   58.2270   31.1360   51.4130 Cl  0  0  0  0  0  0  0  0  0  0  0  0
   59.4510   31.5080   48.9950 C   0  0  0  0  0  0  0  0  0  0  0  0
   59.4430   32.5801   49.2410 H   0  0  0  0  0  0  0  0  0  0  0  0
   60.0040   31.0750   47.7780 C   0  0  0  0  0  0  0  0  0  0  0  0
   60.5770   32.0860   46.8120 C   0  0  0  0  0  0  0  0  0  0  0  0
   61.2904   32.7306   47.3465 H   0  0  0  0  0  0  0  0  0  0  0  0
   61.0821   31.5463   45.9974 H   0  0  0  0  0  0  0  0  0  0  0  0
   59.4870   32.9420   46.2190 C   0  0  0  0  0  0  0  0  0  0  0  0
   58.1330   32.6090   46.4070 C   0  0  0  0  0  0  0  0  0  0  0  0
   57.8649   31.7020   46.9687 H   0  0  0  0  0  0  0  0  0  0  0  0
   57.1270   33.4260   45.8830 C   0  0  0  0  0  0  0  0  0  0  0  0
   56.0699   33.1639   46.0377 H   0  0  0  0  0  0  0  0  0  0  0  0
   57.4630   34.5750   45.1630 C   0  0  0  0  0  0  0  0  0  0  0  0
   56.6703   35.2167   44.7507 H   0  0  0  0  0  0  0  0  0  0  0  0
   58.8060   34.9100   44.9660 C   0  0  0  0  0  0  0  0  0  0  0  0
   59.0689   35.8130   44.3955 H   0  0  0  0  0  0  0  0  0  0  0  0
   59.8150   34.0990   45.4930 C   0  0  0  0  0  0  0  0  0  0  0  0
   60.8704   34.3679   45.3386 H   0  0  0  0  0  0  0  0  0  0  0  0
   58.0010   29.7070   44.8890 C   0  0  0  0  0  0  0  0  0  0  0  0
   58.6696   30.5317   44.6012 H   0  0  0  0  0  0  0  0  0  0  0  0
   56.6150   29.8700   44.8620 C   0  0  0  0  0  0  0  0  0  0  0  0
   56.1190   30.9700   44.4980 O   0  0  0  0  0  0  0  0  0  0  0  0
   55.8010   28.8450   45.2360 N   0  0  0  0  0  0  0  0  0  0  0  0
   54.7640   28.9770   45.2130 H   0  0  0  0  0  0  0  0  0  0  0  0
  1  2  1  0
  2  3  2  0
  3  4  1  0
  4  5  1  0
  5  6  1  0
  6  7  1  0
  6  8  1  0
  6  9  1  0
  9 10  1  0
 10 11  2  0
 11 12  1  0
 11 13  1  0
 13 14  1  0
 13 15  2  0
 15 16  1  0
 15 17  1  0
 17 18  1  0
 17 19  2  0
 19 20  1  0
 20 21  1  0
 20 22  1  0
 20 23  1  0
 23 24  2  0
 24 25  1  0
 24 26  1  0
 26 27  1  0
 26 28  2  0
 28 29  1  0
 28 30  1  0
 30 31  1  0
 30 32  2  0
 32 33  1  0
  5 34  2  0
 34 35  1  0
 34 36  1  0
 36 37  2  0
 36 38  1  0
 38 39  1  0
 38  3  1  0
 19 10  1  0
 32 23  1  0
M  CHG  1   4  -1
M  END
>  <UniqueID>  (28) 
26

>  <SMILES>  (28) 
[H]/N=c1\[n-]c(COc2ccc(Cl)cc2Cc2ccccc2)cc(=O)[nH]1

>  <Energy>  (28) 
38.414466023147085

>  <Genealogy>  (28) 
N=c1[n-]c(COc2ccc(Cl)cc2Cc2ccccc2)cc(=O)[nH]1 (protonated)
[H]/N=c1\[n-]c(COc2ccc(Cl)cc2Cc2ccccc2)cc(=O)[nH]1 (cis-trans isomerization)
[H]/N=c1\[n-]c(COc2ccc(Cl)cc2Cc2ccccc2)cc(=O)[nH]1 (3D coordinates assigned)
[H]/N=c1\[n-]c(COc2ccc(Cl)cc2Cc2ccccc2)cc(=O)[nH]1 (optimized conformer: 38.414466023147085 kcal/mol)

>  <smiles>  (28) 
N=c1[nH]c(COc2ccc(Cl)cc2Cc2ccccc2)cc(=O)[nH]1

>  <score_type>  (28) 
oracle

>  <origin>  (28) 
adg

>  <m_score__min__energy>  (28) 
-10.18

>  <m_primary>  (28) 
energy

$$$$
28:0
     RDKit          3D

 53 56  0  0  0  0  0  0  0  0999 V2000
   56.1820   30.7480   44.6130 O   0  0  0  0  0  0  0  0  0  0  0  0
   57.2060   30.3250   44.0110 C   0  0  0  0  0  0  0  0  0  0  0  0
   58.0810   31.2580   43.3560 N   0  0  0  0  0  0  0  0  0  0  0  0
   57.7750   32.6840   43.2690 C   0  0  0  0  0  0  0  0  0  0  0  0
   58.1840   33.3790   44.5300 C   0  0  0  0  0  0  0  0  0  0  0  0
   59.2820   34.2160   44.6740 C   0  0  0  0  0  0  0  0  0  0  0  0
   59.4380   34.6980   45.9800 C   0  0  0  0  0  0  0  0  0  0  0  0
   58.4680   34.2390   46.8630 C   0  0  0  0  0  0  0  0  0  0  0  0
   57.4180   33.2320   46.0180 S   0  0  0  0  0  0  0  0  0  0  0  0
   57.4950   28.8710   44.0070 C   0  0  0  0  0  0  0  0  0  0  0  0
   57.4870   28.1580   42.7940 C   0  0  0  0  0  0  0  0  0  0  0  0
   57.7680   26.7900   42.7750 C   0  0  0  0  0  0  0  0  0  0  0  0
   58.0630   26.1170   43.9620 C   0  0  0  0  0  0  0  0  0  0  0  0
   58.0810   26.8120   45.1780 C   0  0  0  0  0  0  0  0  0  0  0  0
   58.5080   25.9830   46.6740 S   0  0  0  0  0  0  0  0  0  0  0  0
   59.1420   24.6560   46.3600 O   0  0  0  0  0  0  0  0  0  0  0  0
   57.2530   25.7410   47.4670 O   0  0  0  0  0  0  0  0  0  0  0  0
   59.6120   26.9640   47.6080 N   0  0  0  0  0  0  0  0  0  0  0  0
   58.8640   28.0350   48.3020 C   0  0  0  0  0  0  0  0  0  0  0  0
   59.7910   29.1520   48.7870 C   0  0  0  0  0  0  0  0  0  0  0  0
   60.5390   29.7160   47.6580 N   0  0  0  0  0  0  0  0  0  0  0  0
   61.1220   31.0320   47.7610 C   0  0  0  0  0  0  0  0  0  0  0  0
   62.3770   31.2950   47.1780 C   0  0  0  0  0  0  0  0  0  0  0  0
   62.9520   32.5650   47.2740 C   0  0  0  0  0  0  0  0  0  0  0  0
   62.2860   33.5850   47.9560 C   0  0  0  0  0  0  0  0  0  0  0  0
   61.0460   33.3360   48.5470 C   0  0  0  0  0  0  0  0  0  0  0  0
   60.4630   32.0680   48.4540 C   0  0  0  0  0  0  0  0  0  0  0  0
   59.2750   31.8480   49.0700 F   0  0  0  0  0  0  0  0  0  0  0  0
   60.6710   28.9280   46.4270 C   0  0  0  0  0  0  0  0  0  0  0  0
   60.7430   27.4340   46.7680 C   0  0  0  0  0  0  0  0  0  0  0  0
   57.8070   28.1860   45.1970 C   0  0  0  0  0  0  0  0  0  0  0  0
   59.0000   30.9360   42.9790 H   0  0  0  0  0  0  0  0  0  0  0  0
   58.3205   33.1214   42.4198 H   0  0  0  0  0  0  0  0  0  0  0  0
   56.6918   32.8102   43.1251 H   0  0  0  0  0  0  0  0  0  0  0  0
   59.9601   34.4743   43.8473 H   0  0  0  0  0  0  0  0  0  0  0  0
   60.2514   35.3757   46.2784 H   0  0  0  0  0  0  0  0  0  0  0  0
   58.3986   34.4909   47.9315 H   0  0  0  0  0  0  0  0  0  0  0  0
   57.2578   28.6816   41.8542 H   0  0  0  0  0  0  0  0  0  0  0  0
   57.7568   26.2412   41.8218 H   0  0  0  0  0  0  0  0  0  0  0  0
   58.2817   25.0391   43.9423 H   0  0  0  0  0  0  0  0  0  0  0  0
   58.1255   28.4615   47.6072 H   0  0  0  0  0  0  0  0  0  0  0  0
   58.3707   27.5939   49.1807 H   0  0  0  0  0  0  0  0  0  0  0  0
   59.1900   29.9445   49.2568 H   0  0  0  0  0  0  0  0  0  0  0  0
   60.5017   28.7369   49.5168 H   0  0  0  0  0  0  0  0  0  0  0  0
   62.9086   30.4943   46.6429 H   0  0  0  0  0  0  0  0  0  0  0  0
   63.9306   32.7613   46.8116 H   0  0  0  0  0  0  0  0  0  0  0  0
   62.7384   34.5851   48.0277 H   0  0  0  0  0  0  0  0  0  0  0  0
   60.5255   34.1401   49.0879 H   0  0  0  0  0  0  0  0  0  0  0  0
   59.8004   29.1129   45.7806 H   0  0  0  0  0  0  0  0  0  0  0  0
   61.5923   29.2248   45.9043 H   0  0  0  0  0  0  0  0  0  0  0  0
   60.7406   26.8617   45.8286 H   0  0  0  0  0  0  0  0  0  0  0  0
   61.6643   27.2781   47.3484 H   0  0  0  0  0  0  0  0  0  0  0  0
   57.8359   28.7344   46.1501 H   0  0  0  0  0  0  0  0  0  0  0  0
  1  2  2  0
  2  3  1  0
  3  4  1  0
  4  5  1  0
  5  6  2  0
  6  7  1  0
  7  8  2  0
  8  9  1  0
  2 10  1  0
 10 11  2  0
 11 12  1  0
 12 13  2  0
 13 14  1  0
 14 15  1  0
 15 16  2  0
 15 17  2  0
 15 18  1  0
 18 19  1  0
 19 20  1  0
 20 21  1  0
 21 22  1  0
 22 23  2  0
 23 24  1  0
 24 25  2  0
 25 26  1  0
 26 27  2  0
 27 28  1  0
 21 29  1  0
 29 30  1  0
 14 31  2  0
  9  5  1  0
 31 10  1  0
 30 18  1  0
 27 22  1  0
  3 32  1  0
  4 33  1  0
  4 34  1  0
  6 35  1  0
  7 36  1  0
  8 37  1  0
 11 38  1  0
 12 39  1  0
 13 40  1  0
 19 41  1  0
 19 42  1  0
 20 43  1  0
 20 44  1  0
 23 45  1  0
 24 46  1  0
 25 47  1  0
 26 48  1  0
 29 49  1  0
 29 50  1  0
 30 51  1  0
 30 52  1  0
 31 53  1  0
M  END
>  <UniqueID>  (29) 
27

>  <SMILES>  (29) 
O=C(NCc1cccs1)c1cccc(S(=O)(=O)N2CCN(c3ccccc3F)CC2)c1

>  <Energy>  (29) 
91.24281542495315

>  <Genealogy>  (29) 
O=C(NCc1cccs1)c1cccc(S(=O)(=O)N2CCN(c3ccccc3F)CC2)c1 (3D coordinates assigned)
O=C(NCc1cccs1)c1cccc(S(=O)(=O)N2CCN(c3ccccc3F)CC2)c1 (nonaromatic ring conformer: 91.24281542495315 kcal/mol)

>  <smiles>  (29) 
O=C(NCc1cccs1)c1cccc(S(=O)(=O)N2CCN(c3ccccc3F)CC2)c1

>  <score_type>  (29) 
oracle

>  <origin>  (29) 
adg

>  <m_score__min__energy>  (29) 
-9.6400000000000006

>  <m_primary>  (29) 
energy

$$$$
29:0
     RDKit          3D

 44 46  0  0  0  0  0  0  0  0999 V2000
   57.8420   32.9640   44.5420 N   0  0  0  0  0  0  0  0  0  0  0  0
   59.0570   33.5630   45.0840 C   0  0  0  0  0  0  0  0  0  0  0  0
   59.1120   33.4250   46.5840 C   0  0  0  0  0  0  0  0  0  0  0  0
   58.0520   32.8230   47.2780 C   0  0  0  0  0  0  0  0  0  0  0  0
   58.1100   32.6790   48.6670 C   0  0  0  0  0  0  0  0  0  0  0  0
   59.2290   33.1390   49.3830 C   0  0  0  0  0  0  0  0  0  0  0  0
   59.2770   32.9890   50.8800 C   0  0  0  0  0  0  0  0  0  0  0  0
   58.9320   31.6240   51.2480 N   0  0  0  0  0  0  0  0  0  0  0  0
   59.2030   30.4970   50.4100 C   0  0  0  0  0  0  0  0  0  0  0  0
   58.2780   29.7040   50.0840 O   0  0  0  0  0  0  0  0  0  0  0  0
   60.5920   30.2770   49.9020 C   0  0  0  0  0  0  0  0  0  0  0  0
   60.5950   30.3030   48.4390 N   0  0  0  0  0  0  0  0  0  0  0  0
   59.8190   29.4090   47.6140 C   0  0  0  0  0  0  0  0  0  0  0  0
   59.8510   28.0130   47.7980 C   0  0  0  0  0  0  0  0  0  0  0  0
   59.1080   27.1760   46.9680 C   0  0  0  0  0  0  0  0  0  0  0  0
   58.3290   27.7140   45.9400 C   0  0  0  0  0  0  0  0  0  0  0  0
   58.2710   29.1050   45.7400 C   0  0  0  0  0  0  0  0  0  0  0  0
   57.4530   29.7190   44.6590 C   0  0  0  0  0  0  0  0  0  0  0  0
   57.9600   30.4620   43.7020 O   0  0  0  0  0  0  0  0  0  0  0  0
   56.9630   30.8290   42.9300 C   0  0  0  0  0  0  0  0  0  0  0  0
   57.1140   31.5560   41.9130 O   0  0  0  0  0  0  0  0  0  0  0  0
   55.7660   30.3560   43.3260 N   0  0  0  0  0  0  0  0  0  0  0  0
   56.0870   29.6500   44.4260 C   0  0  0  0  0  0  0  0  0  0  0  0
   55.1440   28.9700   45.1850 O   0  0  0  0  0  0  0  0  0  0  0  0
   59.0210   29.9430   46.5880 C   0  0  0  0  0  0  0  0  0  0  0  0
   60.2660   33.7890   48.6940 C   0  0  0  0  0  0  0  0  0  0  0  0
   60.2080   33.9290   47.3030 C   0  0  0  0  0  0  0  0  0  0  0  0
   58.0250   32.6770   43.5530 H   0  0  0  0  0  0  0  0  0  0  0  0
   57.6220   32.1010   45.0910 H   0  0  0  0  0  0  0  0  0  0  0  0
   59.9313   33.0599   44.6453 H   0  0  0  0  0  0  0  0  0  0  0  0
   59.0586   34.6340   44.8330 H   0  0  0  0  0  0  0  0  0  0  0  0
   57.1711   32.4626   46.7265 H   0  0  0  0  0  0  0  0  0  0  0  0
   57.2755   32.2031   49.2029 H   0  0  0  0  0  0  0  0  0  0  0  0
   60.2914   33.2189   51.2381 H   0  0  0  0  0  0  0  0  0  0  0  0
   58.5570   33.6827   51.3387 H   0  0  0  0  0  0  0  0  0  0  0  0
   61.2502   31.0719   50.2826 H   0  0  0  0  0  0  0  0  0  0  0  0
   60.9544   29.2979   50.2484 H   0  0  0  0  0  0  0  0  0  0  0  0
   61.1580   31.0490   47.9760 H   0  0  0  0  0  0  0  0  0  0  0  0
   60.4659   27.5811   48.6013 H   0  0  0  0  0  0  0  0  0  0  0  0
   59.1347   26.0872   47.1225 H   0  0  0  0  0  0  0  0  0  0  0  0
   57.7564   27.0440   45.2818 H   0  0  0  0  0  0  0  0  0  0  0  0
   58.9814   31.0329   46.4448 H   0  0  0  0  0  0  0  0  0  0  0  0
   61.1267   34.1894   49.2498 H   0  0  0  0  0  0  0  0  0  0  0  0
   61.0253   34.4366   46.7698 H   0  0  0  0  0  0  0  0  0  0  0  0
  1  2  1  0
  2  3  1  0
  3  4  2  0
  4  5  1  0
  5  6  2  0
  6  7  1  0
  7  8  1  0
  8  9  1  0
  9 10  2  0
  9 11  1  0
 11 12  1  0
 12 13  1  0
 13 14  2  0
 14 15  1  0
 15 16  2  0
 16 17  1  0
 17 18  1  0
 18 19  1  0
 19 20  1  0
 20 21  2  0
 20 22  1  0
 22 23  1  0
 23 24  1  0
 17 25  2  0
  6 26  1  0
 26 27  2  0
 27  3  1  0
 25 13  1  0
 23 18  2  0
  1 28  1  0
  1 29  1  0
  2 30  1  0
  2 31  1  0
  4 32  1  0
  5 33  1  0
  7 34  1  0
  7 35  1  0
 11 36  1  0
 11 37  1  0
 12 38  1  0
 14 39  1  0
 15 40  1  0
 16 41  1  0
 25 42  1  0
 26 43  1  0
 27 44  1  0
M  CHG  3   8  -1  22  -1  24  -1
M  END
>  <UniqueID>  (30) 
28

>  <SMILES>  (30) 
NCc1ccc(C[N-]C(=O)CNc2cccc(-c3oc(=O)[n-]c3[O-])c2)cc1

>  <Energy>  (30) 
71.53881217321225

>  <Genealogy>  (30) 
NCc1ccc(C[N-]C(=O)CNc2cccc(-c3oc(=O)[n-]c3[O-])c2)cc1 (protonated)
NCc1ccc(C[N-]C(=O)CNc2cccc(-c3oc(=O)[n-]c3[O-])c2)cc1 (3D coordinates assigned)
NCc1ccc(C[N-]C(=O)CNc2cccc(-c3oc(=O)[n-]c3[O-])c2)cc1 (optimized conformer: 71.53881217321225 kcal/mol)

>  <smiles>  (30) 
NCc1ccc(CNC(=O)CNc2cccc(-c3oc(=O)[nH]c3O)c2)cc1

>  <score_type>  (30) 
oracle

>  <origin>  (30) 
adg

>  <m_score__min__energy>  (30) 
-15.92

>  <m_primary>  (30) 
energy

$$$$
30:0
     RDKit          3D

 46 48  0  0  0  0  0  0  0  0999 V2000
   56.4180   24.8400   45.1480 C   0  0  0  0  0  0  0  0  0  0  0  0
   56.4260   26.1330   45.9720 C   0  0  2  0  0  0  0  0  0  0  0  0
   55.1340   26.6810   45.9980 O   0  0  0  0  0  0  0  0  0  0  0  0
   57.3930   27.1620   45.3780 C   0  0  0  0  0  0  0  0  0  0  0  0
   56.9940   28.5100   45.7640 N   0  0  0  0  0  0  0  0  0  0  0  0
   56.2820   29.3900   44.8890 C   0  0  0  0  0  0  0  0  0  0  0  0
   55.1330   29.0750   44.4750 O   0  0  0  0  0  0  0  0  0  0  0  0
   56.9010   30.6550   44.4600 C   0  0  0  0  0  0  0  0  0  0  0  0
   57.1940   30.9460   43.1270 C   0  0  0  0  0  0  0  0  0  0  0  0
   57.9000   32.4730   43.0690 S   0  0  0  0  0  0  0  0  0  0  0  0
   57.8140   32.6990   44.7290 C   0  0  0  0  0  0  0  0  0  0  0  0
   58.2410   33.8670   45.3740 O   0  0  0  0  0  0  0  0  0  0  0  0
   59.1840   33.9290   46.4100 C   0  0  0  0  0  0  0  0  0  0  0  0
   58.7830   34.4460   47.6470 C   0  0  0  0  0  0  0  0  0  0  0  0
   59.6920   34.5390   48.7040 C   0  0  0  0  0  0  0  0  0  0  0  0
   61.0120   34.1200   48.5320 C   0  0  0  0  0  0  0  0  0  0  0  0
   61.4380   33.6120   47.2950 C   0  0  0  0  0  0  0  0  0  0  0  0
   62.8530   33.1260   47.1240 C   0  0  0  0  0  0  0  0  0  0  0  0
   63.4030   32.6270   48.4340 C   0  0  0  0  0  0  0  0  0  0  0  0
   64.5870   33.1730   48.9590 C   0  0  0  0  0  0  0  0  0  0  0  0
   65.1050   32.6990   50.1690 C   0  0  0  0  0  0  0  0  0  0  0  0
   64.4470   31.6800   50.8620 C   0  0  0  0  0  0  0  0  0  0  0  0
   63.2720   31.1280   50.3440 C   0  0  0  0  0  0  0  0  0  0  0  0
   62.7520   31.5960   49.1340 C   0  0  0  0  0  0  0  0  0  0  0  0
   60.5230   33.5330   46.2310 C   0  0  0  0  0  0  0  0  0  0  0  0
   57.2370   31.6400   45.3410 N   0  0  0  0  0  0  0  0  0  0  0  0
   56.4126   23.9735   45.8255 H   0  0  0  0  0  0  0  0  0  0  0  0
   55.5197   24.8150   44.5136 H   0  0  0  0  0  0  0  0  0  0  0  0
   57.3159   24.8039   44.5136 H   0  0  0  0  0  0  0  0  0  0  0  0
   56.7571   25.8869   46.9917 H   0  0  0  0  0  0  0  0  0  0  0  0
   55.1480   27.4770   45.4050 H   0  0  0  0  0  0  0  0  0  0  0  0
   58.4088   26.9632   45.7504 H   0  0  0  0  0  0  0  0  0  0  0  0
   57.3725   27.0821   44.2811 H   0  0  0  0  0  0  0  0  0  0  0  0
   56.9979   30.2918   42.2647 H   0  0  0  0  0  0  0  0  0  0  0  0
   57.7450   34.7815   47.7882 H   0  0  0  0  0  0  0  0  0  0  0  0
   59.3665   34.9434   49.6738 H   0  0  0  0  0  0  0  0  0  0  0  0
   61.7217   34.1882   49.3697 H   0  0  0  0  0  0  0  0  0  0  0  0
   62.8679   32.3069   46.3900 H   0  0  0  0  0  0  0  0  0  0  0  0
   63.4756   33.9622   46.7730 H   0  0  0  0  0  0  0  0  0  0  0  0
   65.1080   33.9757   48.4166 H   0  0  0  0  0  0  0  0  0  0  0  0
   66.0321   33.1294   50.5755 H   0  0  0  0  0  0  0  0  0  0  0  0
   64.8537   31.3120   51.8155 H   0  0  0  0  0  0  0  0  0  0  0  0
   62.7558   30.3242   50.8894 H   0  0  0  0  0  0  0  0  0  0  0  0
   61.8295   31.1558   48.7276 H   0  0  0  0  0  0  0  0  0  0  0  0
   60.8556   33.1591   45.2514 H   0  0  0  0  0  0  0  0  0  0  0  0
   57.0330   31.5940   46.3640 H   0  0  0  0  0  0  0  0  0  0  0  0
  1  2  1  0
  2  3  1  0
  2  4  1  0
  4  5  1  0
  5  6  1  0
  6  7  2  0
  6  8  1  0
  8  9  2  0
  9 10  1  0
 10 11  1  0
 11 12  1  0
 12 13  1  0
 13 14  2  0
 14 15  1  0
 15 16  2  0
 16 17  1  0
 17 18  1  0
 18 19  1  0
 19 20  2  0
 20 21  1  0
 21 22  2  0
 22 23  1  0
 23 24  2  0
 17 25  2  0
 11 26  2  0
 26  8  1  0
 25 13  1  0
 24 19  1  0
  1 27  1  0
  1 28  1  0
  1 29  1  0
  2 30  1  1
  3 31  1  0
  4 32  1  0
  4 33  1  0
  9 34  1  0
 14 35  1  0
 15 36  1  0
 16 37  1  0
 18 38  1  0
 18 39  1  0
 20 40  1  0
 21 41  1  0
 22 42  1  0
 23 43  1  0
 24 44  1  0
 25 45  1  0
 26 46  1  0
M  CHG  2   5  -1  26   1
M  END
>  <UniqueID>  (31) 
29

>  <SMILES>  (31) 
C[C@H](O)C[N-]C(=O)c1csc(Oc2cccc(Cc3ccccc3)c2)[nH+]1

>  <Energy>  (31) 
72.27002451879805

>  <Genealogy>  (31) 
CC(O)C[N-]C(=O)c1csc(Oc2cccc(Cc3ccccc3)c2)[nH+]1 (protonated)
C[C@H](O)C[N-]C(=O)c1csc(Oc2cccc(Cc3ccccc3)c2)[nH+]1 (chirality)
C[C@H](O)C[N-]C(=O)c1csc(Oc2cccc(Cc3ccccc3)c2)[nH+]1 (3D coordinates assigned)
C[C@H](O)C[N-]C(=O)c1csc(Oc2cccc(Cc3ccccc3)c2)[nH+]1 (optimized conformer: 72.27002451879805 kcal/mol)

>  <smiles>  (31) 
CC(O)CNC(=O)c1csc(Oc2cccc(Cc3ccccc3)c2)n1

>  <score_type>  (31) 
oracle

>  <origin>  (31) 
adg

>  <m_score__min__energy>  (31) 
-9.9100000000000001

>  <m_primary>  (31) 
energy

$$$$
31:0
     RDKit          3D

 65 68  0  0  0  0  0  0  0  0999 V2000
   55.1500   29.3500   44.8840 O   0  0  0  0  0  0  0  0  0  0  0  0
   56.3320   29.4400   44.4610 C   0  0  0  0  0  0  0  0  0  0  0  0
   56.5780   29.6380   43.0250 C   0  0  0  0  0  0  0  0  0  0  0  0
   56.7290   30.8500   42.4710 C   0  0  0  0  0  0  0  0  0  0  0  0
   57.5640   31.8950   43.0800 C   0  0  0  0  0  0  0  0  0  0  0  0
   58.1520   32.7140   42.3250 O   0  0  0  0  0  0  0  0  0  0  0  0
   57.6510   32.0130   44.5090 N   0  0  0  0  0  0  0  0  0  0  0  0
   58.3430   33.0810   45.1830 C   0  0  0  0  0  0  0  0  0  0  0  0
   58.5880   34.3140   44.5490 C   0  0  0  0  0  0  0  0  0  0  0  0
   59.2620   35.3330   45.2260 C   0  0  0  0  0  0  0  0  0  0  0  0
   59.7160   35.1240   46.5290 C   0  0  0  0  0  0  0  0  0  0  0  0
   59.5060   33.8900   47.1610 C   0  0  0  0  0  0  0  0  0  0  0  0
   60.1460   33.6290   48.7810 S   0  0  0  0  0  0  0  0  0  0  0  0
   59.6720   34.7120   49.7110 O   0  0  0  0  0  0  0  0  0  0  0  0
   59.6510   32.3010   49.2820 O   0  0  0  0  0  0  0  0  0  0  0  0
   61.8920   33.6260   48.7110 N   0  0  0  0  0  0  0  0  0  0  0  0
   62.4250   32.5110   49.5020 C   0  0  0  0  0  0  0  0  0  0  0  0
   63.9660   32.5580   49.4900 C   0  0  0  0  0  0  0  0  0  0  0  0
   64.4850   33.3870   48.4610 O   0  0  0  0  0  0  0  0  0  0  0  0
   63.8310   33.1180   47.2380 C   0  0  0  0  0  0  0  0  0  0  0  0
   62.3470   33.5300   47.3130 C   0  0  0  0  0  0  0  0  0  0  0  0
   58.8290   32.8700   46.4820 C   0  0  0  0  0  0  0  0  0  0  0  0
   57.4360   29.2810   45.3570 N   0  0  0  0  0  0  0  0  0  0  0  0
   57.9450   28.0290   45.8280 C   0  0  0  0  0  0  0  0  0  0  0  0
   58.6640   27.9940   47.0290 C   0  0  0  0  0  0  0  0  0  0  0  0
   59.1320   26.7790   47.5350 C   0  0  0  0  0  0  0  0  0  0  0  0
   58.8570   25.5880   46.8590 C   0  0  0  0  0  0  0  0  0  0  0  0
   58.1060   25.6040   45.6760 C   0  0  0  0  0  0  0  0  0  0  0  0
   57.6390   24.0830   44.9260 S   0  0  0  0  0  0  0  0  0  0  0  0
   57.5170   24.2670   43.4380 O   0  0  0  0  0  0  0  0  0  0  0  0
   58.7090   23.0630   45.2000 O   0  0  0  0  0  0  0  0  0  0  0  0
   56.1150   23.5680   45.6160 N   0  0  0  0  0  0  0  0  0  0  0  0
   55.9570   22.0970   45.5830 C   0  0  0  0  0  0  0  0  0  0  0  0
   56.2890   21.4340   46.9330 C   0  0  0  0  0  0  0  0  0  0  0  0
   57.2930   22.1600   47.6030 O   0  0  0  0  0  0  0  0  0  0  0  0
   56.7940   23.4180   48.0220 C   0  0  0  0  0  0  0  0  0  0  0  0
   55.9110   24.1190   46.9650 C   0  0  0  0  0  0  0  0  0  0  0  0
   57.6560   26.8260   45.1560 C   0  0  0  0  0  0  0  0  0  0  0  0
   56.6410   28.7522   42.3759 H   0  0  0  0  0  0  0  0  0  0  0  0
   56.2092   31.0699   41.5268 H   0  0  0  0  0  0  0  0  0  0  0  0
   57.0600   31.3750   45.0860 H   0  0  0  0  0  0  0  0  0  0  0  0
   58.2470   34.4756   43.5157 H   0  0  0  0  0  0  0  0  0  0  0  0
   59.4350   36.3005   44.7320 H   0  0  0  0  0  0  0  0  0  0  0  0
   60.2406   35.9304   47.0623 H   0  0  0  0  0  0  0  0  0  0  0  0
   62.0644   32.5920   50.5381 H   0  0  0  0  0  0  0  0  0  0  0  0
   62.0853   31.5595   49.0670 H   0  0  0  0  0  0  0  0  0  0  0  0
   64.3130   32.9435   50.4600 H   0  0  0  0  0  0  0  0  0  0  0  0
   64.3262   31.5355   49.3036 H   0  0  0  0  0  0  0  0  0  0  0  0
   64.3229   33.6839   46.4331 H   0  0  0  0  0  0  0  0  0  0  0  0
   63.8891   32.0384   47.0352 H   0  0  0  0  0  0  0  0  0  0  0  0
   62.2210   34.5084   46.8264 H   0  0  0  0  0  0  0  0  0  0  0  0
   61.7458   32.7633   46.8023 H   0  0  0  0  0  0  0  0  0  0  0  0
   58.6770   31.8962   46.9705 H   0  0  0  0  0  0  0  0  0  0  0  0
   58.8612   28.9275   47.5765 H   0  0  0  0  0  0  0  0  0  0  0  0
   59.7173   26.7601   48.4662 H   0  0  0  0  0  0  0  0  0  0  0  0
   59.2316   24.6334   47.2570 H   0  0  0  0  0  0  0  0  0  0  0  0
   54.9150   21.8606   45.3215 H   0  0  0  0  0  0  0  0  0  0  0  0
   56.6626   21.7033   44.8366 H   0  0  0  0  0  0  0  0  0  0  0  0
   55.3832   21.4081   47.5565 H   0  0  0  0  0  0  0  0  0  0  0  0
   56.6506   20.4116   46.7490 H   0  0  0  0  0  0  0  0  0  0  0  0
   56.1940   23.2682   48.9317 H   0  0  0  0  0  0  0  0  0  0  0  0
   57.6645   24.0676   48.1958 H   0  0  0  0  0  0  0  0  0  0  0  0
   54.8548   23.9903   47.2441 H   0  0  0  0  0  0  0  0  0  0  0  0
   56.1924   25.1821   46.9415 H   0  0  0  0  0  0  0  0  0  0  0  0
   57.0762   26.8448   44.2214 H   0  0  0  0  0  0  0  0  0  0  0  0
  1  2  2  0
  2  3  1  0
  3  4  2  3
  4  5  1  0
  5  6  2  0
  5  7  1  0
  7  8  1  0
  8  9  2  0
  9 10  1  0
 10 11  2  0
 11 12  1  0
 12 13  1  0
 13 14  2  0
 13 15  2  0
 13 16  1  0
 16 17  1  0
 17 18  1  0
 18 19  1  0
 19 20  1  0
 20 21  1  0
 12 22  2  0
  2 23  1  0
 23 24  1  0
 24 25  2  0
 25 26  1  0
 26 27  2  0
 27 28  1  0
 28 29  1  0
 29 30  2  0
 29 31  2  0
 29 32  1  0
 32 33  1  0
 33 34  1  0
 34 35  1  0
 35 36  1  0
 36 37  1  0
 28 38  2  0
 22  8  1  0
 38 24  1  0
 21 16  1  0
 37 32  1  0
  3 39  1  0
  4 40  1  0
  7 41  1  0
  9 42  1  0
 10 43  1  0
 11 44  1  0
 17 45  1  0
 17 46  1  0
 18 47  1  0
 18 48  1  0
 20 49  1  0
 20 50  1  0
 21 51  1  0
 21 52  1  0
 22 53  1  0
 25 54  1  0
 26 55  1  0
 27 56  1  0
 33 57  1  0
 33 58  1  0
 34 59  1  0
 34 60  1  0
 36 61  1  0
 36 62  1  0
 37 63  1  0
 37 64  1  0
 38 65  1  0
M  CHG  1  23  -1
M  END
>  <UniqueID>  (32) 
30

>  <SMILES>  (32) 
O=C(C=CC(=O)Nc1cccc(S(=O)(=O)N2CCOCC2)c1)[N-]c1cccc(S(=O)(=O)N2CCOCC2)c1

>  <Energy>  (32) 
94.32256834059673

>  <Genealogy>  (32) 
O=C(C=CC(=O)Nc1cccc(S(=O)(=O)N2CCOCC2)c1)[N-]c1cccc(S(=O)(=O)N2CCOCC2)c1 (protonated)
O=C(C=CC(=O)Nc1cccc(S(=O)(=O)N2CCOCC2)c1)[N-]c1cccc(S(=O)(=O)N2CCOCC2)c1 (3D coordinates assigned)
O=C(C=CC(=O)Nc1cccc(S(=O)(=O)N2CCOCC2)c1)[N-]c1cccc(S(=O)(=O)N2CCOCC2)c1 (nonaromatic ring conformer: 94.32256834059673 kcal/mol)

>  <smiles>  (32) 
O=C(C=CC(=O)Nc1cccc(S(=O)(=O)N2CCOCC2)c1)Nc1cccc(S(=O)(=O)N2CCOCC2)c1

>  <score_type>  (32) 
oracle

>  <origin>  (32) 
adg

>  <m_score__min__energy>  (32) 
-12.289999999999999

>  <m_primary>  (32) 
energy

$$$$
32:0
     RDKit          3D

 45 46  0  0  0  0  0  0  0  0999 V2000
   60.4140   29.1320   45.4110 C   0  0  0  0  0  0  0  0  0  0  0  0
   59.7810   28.9180   46.5680 C   0  0  0  0  0  0  0  0  0  0  0  0
   60.0930   29.7270   47.7940 C   0  0  0  0  0  0  0  0  0  0  0  0
   58.8990   30.4100   48.2750 N   0  0  0  0  0  0  0  0  0  0  0  0
   58.8630   31.7960   48.6280 C   0  0  0  0  0  0  0  0  0  0  0  0
   59.6250   32.2470   49.5240 O   0  0  0  0  0  0  0  0  0  0  0  0
   57.9170   32.7160   47.9180 C   0  0  0  0  0  0  0  0  0  0  0  0
   58.5000   33.1580   46.6480 N   0  0  0  0  0  0  0  0  0  0  0  0
   58.1470   32.4990   45.4210 C   0  0  0  0  0  0  0  0  0  0  0  0
   58.2910   33.1620   44.1950 C   0  0  0  0  0  0  0  0  0  0  0  0
   57.9330   32.5260   43.0050 C   0  0  0  0  0  0  0  0  0  0  0  0
   57.4260   31.2250   43.0300 C   0  0  0  0  0  0  0  0  0  0  0  0
   57.2670   30.5440   44.2510 C   0  0  0  0  0  0  0  0  0  0  0  0
   56.7380   29.2060   44.2840 N   0  0  0  0  0  0  0  0  0  0  0  0
   57.3740   28.2570   43.7790 O   0  0  0  0  0  0  0  0  0  0  0  0
   55.5210   28.9490   44.8740 O   0  0  0  0  0  0  0  0  0  0  0  0
   57.6320   31.1930   45.4440 C   0  0  0  0  0  0  0  0  0  0  0  0
   59.6910   34.4260   46.6510 S   0  0  0  0  0  0  0  0  0  0  0  0
   59.1470   35.6220   47.3810 O   0  0  0  0  0  0  0  0  0  0  0  0
   60.0090   34.8410   45.2410 O   0  0  0  0  0  0  0  0  0  0  0  0
   61.1570   33.8530   47.4410 C   0  0  0  0  0  0  0  0  0  0  0  0
   61.9760   32.9050   46.8130 C   0  0  0  0  0  0  0  0  0  0  0  0
   63.0990   32.3980   47.4720 C   0  0  0  0  0  0  0  0  0  0  0  0
   63.4110   32.8270   48.7720 C   0  0  0  0  0  0  0  0  0  0  0  0
   64.6270   32.2990   49.4710 C   0  0  0  0  0  0  0  0  0  0  0  0
   62.6060   33.7980   49.3870 C   0  0  0  0  0  0  0  0  0  0  0  0
   61.4800   34.3010   48.7290 C   0  0  0  0  0  0  0  0  0  0  0  0
   60.1661   28.5248   44.5279 H   0  0  0  0  0  0  0  0  0  0  0  0
   61.1831   29.9154   45.3415 H   0  0  0  0  0  0  0  0  0  0  0  0
   59.0140   28.1315   46.6237 H   0  0  0  0  0  0  0  0  0  0  0  0
   60.4694   29.0584   48.5822 H   0  0  0  0  0  0  0  0  0  0  0  0
   60.8535   30.4796   47.5384 H   0  0  0  0  0  0  0  0  0  0  0  0
   56.9739   32.1856   47.7200 H   0  0  0  0  0  0  0  0  0  0  0  0
   57.7271   33.5950   48.5515 H   0  0  0  0  0  0  0  0  0  0  0  0
   58.6877   34.1877   44.1701 H   0  0  0  0  0  0  0  0  0  0  0  0
   58.0505   33.0508   42.0454 H   0  0  0  0  0  0  0  0  0  0  0  0
   57.1489   30.7289   42.0881 H   0  0  0  0  0  0  0  0  0  0  0  0
   57.5128   30.6719   46.4054 H   0  0  0  0  0  0  0  0  0  0  0  0
   61.7339   32.5587   45.7974 H   0  0  0  0  0  0  0  0  0  0  0  0
   63.7415   31.6595   46.9701 H   0  0  0  0  0  0  0  0  0  0  0  0
   64.4808   32.3625   50.5594 H   0  0  0  0  0  0  0  0  0  0  0  0
   64.7886   31.2497   49.1833 H   0  0  0  0  0  0  0  0  0  0  0  0
   65.5041   32.8973   49.1833 H   0  0  0  0  0  0  0  0  0  0  0  0
   62.8623   34.1651   50.3918 H   0  0  0  0  0  0  0  0  0  0  0  0
   60.8453   35.0509   49.2238 H   0  0  0  0  0  0  0  0  0  0  0  0
  1  2  2  0
  2  3  1  0
  3  4  1  0
  4  5  1  0
  5  6  2  0
  5  7  1  0
  7  8  1  0
  8  9  1  0
  9 10  2  0
 10 11  1  0
 11 12  2  0
 12 13  1  0
 13 14  1  0
 14 15  2  0
 14 16  1  0
 13 17  2  0
  8 18  1  0
 18 19  2  0
 18 20  2  0
 18 21  1  0
 21 22  2  0
 22 23  1  0
 23 24  2  0
 24 25  1  0
 24 26  1  0
 26 27  2  0
 17  9  1  0
 27 21  1  0
  1 28  1  0
  1 29  1  0
  2 30  1  0
  3 31  1  0
  3 32  1  0
  7 33  1  0
  7 34  1  0
 10 35  1  0
 11 36  1  0
 12 37  1  0
 17 38  1  0
 22 39  1  0
 23 40  1  0
 25 41  1  0
 25 42  1  0
 25 43  1  0
 26 44  1  0
 27 45  1  0
M  CHG  3   4  -1  14   1  16  -1
M  END
>  <UniqueID>  (33) 
31

>  <SMILES>  (33) 
C=CC[N-]C(=O)CN(c1cccc([N+](=O)[O-])c1)S(=O)(=O)c1ccc(C)cc1

>  <Energy>  (33) 
41.42707623269558

>  <Genealogy>  (33) 
C=CC[N-]C(=O)CN(c1cccc([N+](=O)[O-])c1)S(=O)(=O)c1ccc(C)cc1 (protonated)
C=CC[N-]C(=O)CN(c1cccc([N+](=O)[O-])c1)S(=O)(=O)c1ccc(C)cc1 (3D coordinates assigned)
C=CC[N-]C(=O)CN(c1cccc([N+](=O)[O-])c1)S(=O)(=O)c1ccc(C)cc1 (optimized conformer: 41.42707623269558 kcal/mol)

>  <smiles>  (33) 
C=CCNC(=O)CN(c1cccc([N+](=O)[O-])c1)S(=O)(=O)c1ccc(C)cc1

>  <score_type>  (33) 
oracle

>  <origin>  (33) 
adg

>  <m_score__min__energy>  (33) 
-10.390000000000001

>  <m_primary>  (33) 
energy

$$$$
33:0
     RDKit          3D

 43 46  0  0  0  0  0  0  0  0999 V2000
   58.1940   30.6110   47.2380 C   0  0  0  0  0  0  0  0  0  0  0  0
   57.9600   30.4530   45.9250 C   0  0  0  0  0  0  0  0  0  0  0  0
   58.1220   29.2780   45.1700 C   0  0  0  0  0  0  0  0  0  0  0  0
   58.3840   28.0100   45.5450 C   0  0  0  0  0  0  0  0  0  0  0  0
   57.3760   26.9720   45.8350 C   0  0  0  0  0  0  0  0  0  0  0  0
   56.0030   27.2240   45.6710 C   0  0  0  0  0  0  0  0  0  0  0  0
   55.5530   28.4740   45.2660 O   0  0  0  0  0  0  0  0  0  0  0  0
   55.1010   26.2360   45.9050 N   0  0  0  0  0  0  0  0  0  0  0  0
   55.5040   24.9940   46.2800 C   0  0  0  0  0  0  0  0  0  0  0  0
   54.6500   24.0940   46.4950 O   0  0  0  0  0  0  0  0  0  0  0  0
   56.8260   24.7190   46.4160 N   0  0  0  0  0  0  0  0  0  0  0  0
   57.7670   25.6730   46.1950 C   0  0  0  0  0  0  0  0  0  0  0  0
   58.9870   25.3820   46.3240 O   0  0  0  0  0  0  0  0  0  0  0  0
   57.9420   29.6410   43.8480 C   0  0  0  0  0  0  0  0  0  0  0  0
   57.6390   30.9860   43.8360 C   0  0  0  0  0  0  0  0  0  0  0  0
   57.3550   31.7810   42.5980 C   0  0  0  0  0  0  0  0  0  0  0  0
   57.6280   31.4800   45.0970 N   0  0  0  0  0  0  0  0  0  0  0  0
   57.4110   32.8860   45.4640 C   0  0  0  0  0  0  0  0  0  0  0  0
   58.7010   33.5150   45.8800 C   0  0  0  0  0  0  0  0  0  0  0  0
   59.5720   32.9510   46.7370 N   0  0  0  0  0  0  0  0  0  0  0  0
   60.5390   33.8920   46.7950 C   0  0  0  0  0  0  0  0  0  0  0  0
   61.7580   33.7690   47.6210 C   0  0  0  0  0  0  0  0  0  0  0  0
   62.9560   33.2920   47.0560 C   0  0  0  0  0  0  0  0  0  0  0  0
   64.1080   33.1760   47.8400 C   0  0  0  0  0  0  0  0  0  0  0  0
   64.0780   33.5320   49.1900 C   0  0  0  0  0  0  0  0  0  0  0  0
   62.8940   34.0070   49.7600 C   0  0  0  0  0  0  0  0  0  0  0  0
   61.7380   34.1250   48.9810 C   0  0  0  0  0  0  0  0  0  0  0  0
   60.2620   34.9590   46.0170 N   0  0  0  0  0  0  0  0  0  0  0  0
   59.1180   34.6870   45.4680 O   0  0  0  0  0  0  0  0  0  0  0  0
   58.0267   31.5891   47.7127 H   0  0  0  0  0  0  0  0  0  0  0  0
   58.5530   29.7623   47.8387 H   0  0  0  0  0  0  0  0  0  0  0  0
   59.4416   27.7240   45.6434 H   0  0  0  0  0  0  0  0  0  0  0  0
   58.0249   28.9814   42.9716 H   0  0  0  0  0  0  0  0  0  0  0  0
   56.9973   32.7824   42.8794 H   0  0  0  0  0  0  0  0  0  0  0  0
   58.2754   31.8742   42.0029 H   0  0  0  0  0  0  0  0  0  0  0  0
   56.5838   31.2699   42.0029 H   0  0  0  0  0  0  0  0  0  0  0  0
   57.0044   33.4291   44.5981 H   0  0  0  0  0  0  0  0  0  0  0  0
   56.7014   32.9328   46.3032 H   0  0  0  0  0  0  0  0  0  0  0  0
   62.9859   33.0094   45.9933 H   0  0  0  0  0  0  0  0  0  0  0  0
   65.0409   32.8031   47.3919 H   0  0  0  0  0  0  0  0  0  0  0  0
   64.9858   33.4386   49.8042 H   0  0  0  0  0  0  0  0  0  0  0  0
   62.8708   34.2886   50.8231 H   0  0  0  0  0  0  0  0  0  0  0  0
   60.8082   34.4984   49.4350 H   0  0  0  0  0  0  0  0  0  0  0  0
  1  2  2  0
  2  3  1  0
  3  4  2  3
  4  5  1  0
  5  6  2  0
  6  7  1  0
  6  8  1  0
  8  9  1  0
  9 10  2  0
  9 11  1  0
 11 12  1  0
 12 13  2  0
  3 14  1  0
 14 15  2  0
 15 16  1  0
 15 17  1  0
 17 18  1  0
 18 19  1  0
 19 20  2  0
 20 21  1  0
 21 22  1  0
 22 23  2  0
 23 24  1  0
 24 25  2  0
 25 26  1  0
 26 27  2  0
 21 28  2  0
 28 29  1  0
 17  2  1  0
 29 19  1  0
 12  5  1  0
 27 22  1  0
  1 30  1  0
  1 31  1  0
  4 32  1  0
 14 33  1  0
 16 34  1  0
 16 35  1  0
 16 36  1  0
 18 37  1  0
 18 38  1  0
 23 39  1  0
 24 40  1  0
 25 41  1  0
 26 42  1  0
 27 43  1  0
M  CHG  3   7  -1   8  -1  11  -1
M  END
>  <UniqueID>  (34) 
32

>  <SMILES>  (34) 
C=c1c(=Cc2c([O-])[n-]c(=O)[n-]c2=O)cc(C)n1Cc1nc(-c2ccccc2)no1

>  <Energy>  (34) 
122.16865211456397

>  <Genealogy>  (34) 
C=c1c(=Cc2c([O-])[n-]c(=O)[n-]c2=O)cc(C)n1Cc1nc(-c2ccccc2)no1 (protonated)
C=c1c(=Cc2c([O-])[n-]c(=O)[n-]c2=O)cc(C)n1Cc1nc(-c2ccccc2)no1 (3D coordinates assigned)
C=c1c(=Cc2c([O-])[n-]c(=O)[n-]c2=O)cc(C)n1Cc1nc(-c2ccccc2)no1 (optimized conformer: 122.16865211456397 kcal/mol)

>  <smiles>  (34) 
C=c1c(=Cc2c(O)[nH]c(=O)[nH]c2=O)cc(C)n1Cc1nc(-c2ccccc2)no1

>  <score_type>  (34) 
oracle

>  <origin>  (34) 
adg

>  <m_score__min__energy>  (34) 
-16.649999999999999

>  <m_primary>  (34) 
energy

$$$$
34:0
     RDKit          3D

 45 47  0  0  0  0  0  0  0  0999 V2000
   56.2640   32.7120   52.3710 O   0  0  0  0  0  0  0  0  0  0  0  0
   56.3900   31.5460   51.9070 C   0  0  0  0  0  0  0  0  0  0  0  0
   57.7370   30.9010   51.8550 C   0  0  0  0  0  0  0  0  0  0  0  0
   58.5700   31.5530   50.7840 C   0  0  0  0  0  0  0  0  0  0  0  0
   58.8620   32.9250   50.8510 C   0  0  0  0  0  0  0  0  0  0  0  0
   59.5820   33.5420   49.8240 C   0  0  0  0  0  0  0  0  0  0  0  0
   59.9930   32.8020   48.7100 C   0  0  0  0  0  0  0  0  0  0  0  0
   60.9210   33.5930   47.3930 S   0  0  0  0  0  0  0  0  0  0  0  0
   59.5530   33.5800   46.1730 C   0  0  0  0  0  0  0  0  0  0  0  0
   59.2440   32.1480   45.7130 C   0  0  0  0  0  0  0  0  0  0  0  0
   57.9930   32.1100   44.8040 C   0  0  0  0  0  0  0  0  0  0  0  0
   57.3020   33.3470   44.7540 O   0  0  0  0  0  0  0  0  0  0  0  0
   57.0150   33.7930   46.0660 C   0  0  0  0  0  0  0  0  0  0  0  0
   58.3010   34.2190   46.7990 C   0  0  0  0  0  0  0  0  0  0  0  0
   59.7030   31.4340   48.6370 C   0  0  0  0  0  0  0  0  0  0  0  0
   58.9910   30.8130   49.6670 C   0  0  0  0  0  0  0  0  0  0  0  0
   55.2570   30.8480   51.3880 N   0  0  0  0  0  0  0  0  0  0  0  0
   54.2440   30.2320   52.2330 C   0  0  0  0  0  0  0  0  0  0  0  0
   53.0640   31.1860   52.4190 C   0  0  0  0  0  0  0  0  0  0  0  0
   52.2470   31.2870   51.1650 C   0  0  0  0  0  0  0  0  0  0  0  0
   52.2510   30.3660   50.1850 N   0  0  0  0  0  0  0  0  0  0  0  0
   51.3340   30.8370   49.3110 C   0  0  0  0  0  0  0  0  0  0  0  0
   51.0560   30.2460   48.2370 O   0  0  0  0  0  0  0  0  0  0  0  0
   50.7400   31.9930   49.6800 N   0  0  0  0  0  0  0  0  0  0  0  0
   51.3250   32.2600   50.8580 C   0  0  0  0  0  0  0  0  0  0  0  0
   51.0240   33.3720   51.6360 O   0  0  0  0  0  0  0  0  0  0  0  0
   58.2362   31.0175   52.8283 H   0  0  0  0  0  0  0  0  0  0  0  0
   57.6205   29.8315   51.6257 H   0  0  0  0  0  0  0  0  0  0  0  0
   58.5230   33.5161   51.7145 H   0  0  0  0  0  0  0  0  0  0  0  0
   59.8262   34.6124   49.8918 H   0  0  0  0  0  0  0  0  0  0  0  0
   59.8594   34.1621   45.2914 H   0  0  0  0  0  0  0  0  0  0  0  0
   60.1064   31.7571   45.1531 H   0  0  0  0  0  0  0  0  0  0  0  0
   59.0471   31.5314   46.6024 H   0  0  0  0  0  0  0  0  0  0  0  0
   58.3094   31.8447   43.7845 H   0  0  0  0  0  0  0  0  0  0  0  0
   57.3025   31.3664   45.2286 H   0  0  0  0  0  0  0  0  0  0  0  0
   56.3305   34.6524   46.0119 H   0  0  0  0  0  0  0  0  0  0  0  0
   56.5521   32.9655   46.6236 H   0  0  0  0  0  0  0  0  0  0  0  0
   58.3953   35.3137   46.7458 H   0  0  0  0  0  0  0  0  0  0  0  0
   58.2287   33.8790   47.8426 H   0  0  0  0  0  0  0  0  0  0  0  0
   60.0359   30.8474   47.7680 H   0  0  0  0  0  0  0  0  0  0  0  0
   58.7593   29.7396   49.6025 H   0  0  0  0  0  0  0  0  0  0  0  0
   53.8905   29.3041   51.7597 H   0  0  0  0  0  0  0  0  0  0  0  0
   54.6834   30.0069   53.2160 H   0  0  0  0  0  0  0  0  0  0  0  0
   52.4261   30.8135   53.2341 H   0  0  0  0  0  0  0  0  0  0  0  0
   53.4573   32.1845   52.6606 H   0  0  0  0  0  0  0  0  0  0  0  0
  1  2  2  0
  2  3  1  0
  3  4  1  0
  4  5  2  0
  5  6  1  0
  6  7  2  0
  7  8  1  0
  8  9  1  0
  9 10  1  0
 10 11  1  0
 11 12  1  0
 12 13  1  0
 13 14  1  0
  7 15  1  0
 15 16  2  0
  2 17  1  0
 17 18  1  0
 18 19  1  0
 19 20  1  0
 20 21  1  0
 21 22  1  0
 22 23  2  0
 22 24  1  0
 24 25  1  0
 25 26  1  0
 16  4  1  0
 25 20  2  0
 14  9  1  0
  3 27  1  0
  3 28  1  0
  5 29  1  0
  6 30  1  0
  9 31  1  0
 10 32  1  0
 10 33  1  0
 11 34  1  0
 11 35  1  0
 13 36  1  0
 13 37  1  0
 14 38  1  0
 14 39  1  0
 15 40  1  0
 16 41  1  0
 18 42  1  0
 18 43  1  0
 19 44  1  0
 19 45  1  0
M  CHG  4  17  -1  21  -1  24  -1  26  -1
M  END
>  <UniqueID>  (35) 
33

>  <SMILES>  (35) 
O=C(Cc1ccc(SC2CCOCC2)cc1)[N-]CCc1[n-]c(=O)[n-]c1[O-]

>  <Energy>  (35) 
67.26601941738602

>  <Genealogy>  (35) 
O=C(Cc1ccc(SC2CCOCC2)cc1)[N-]CCc1[n-]c(=O)[n-]c1[O-] (protonated)
O=C(Cc1ccc(SC2CCOCC2)cc1)[N-]CCc1[n-]c(=O)[n-]c1[O-] (3D coordinates assigned)
O=C(Cc1ccc(SC2CCOCC2)cc1)[N-]CCc1[n-]c(=O)[n-]c1[O-] (nonaromatic ring conformer: 67.26601941738602 kcal/mol)

>  <smiles>  (35) 
O=C(Cc1ccc(SC2CCOCC2)cc1)NCCc1[nH]c(=O)[nH]c1O

>  <score_type>  (35) 
oracle

>  <origin>  (35) 
adg

>  <m_score__min__energy>  (35) 
-18.620000000000001

>  <m_primary>  (35) 
energy

$$$$
35:0
     RDKit          3D

 36 38  0  0  0  0  0  0  0  0999 V2000
   59.5100   28.0390   47.4990 C   0  0  0  0  0  0  0  0  0  0  0  0
   58.9420   28.7260   46.4950 C   0  0  0  0  0  0  0  0  0  0  0  0
   58.1670   28.2100   45.4420 C   0  0  0  0  0  0  0  0  0  0  0  0
   57.9400   26.9410   45.0500 C   0  0  0  0  0  0  0  0  0  0  0  0
   57.3180   25.8880   45.8660 C   0  0  0  0  0  0  0  0  0  0  0  0
   58.0140   24.8960   46.4480 N   0  0  0  0  0  0  0  0  0  0  0  0
   57.0780   24.2360   47.1640 C   0  0  0  0  0  0  0  0  0  0  0  0
   57.3450   23.2150   47.8490 O   0  0  0  0  0  0  0  0  0  0  0  0
   55.8370   24.7610   47.0960 N   0  0  0  0  0  0  0  0  0  0  0  0
   56.0040   25.8170   46.2820 C   0  0  0  0  0  0  0  0  0  0  0  0
   54.9790   26.7030   45.9590 O   0  0  0  0  0  0  0  0  0  0  0  0
   57.6240   29.3040   44.7880 C   0  0  0  0  0  0  0  0  0  0  0  0
   58.1270   30.4300   45.4060 C   0  0  0  0  0  0  0  0  0  0  0  0
   57.8060   31.8360   44.9990 C   0  0  0  0  0  0  0  0  0  0  0  0
   58.9240   30.0830   46.4410 N   0  0  0  0  0  0  0  0  0  0  0  0
   59.6010   30.9980   47.3220 C   0  0  0  0  0  0  0  0  0  0  0  0
   60.9090   31.4110   47.0330 C   0  0  0  0  0  0  0  0  0  0  0  0
   61.5660   32.3050   47.8820 C   0  0  0  0  0  0  0  0  0  0  0  0
   63.2040   32.8170   47.5130 Cl  0  0  0  0  0  0  0  0  0  0  0  0
   60.9210   32.7930   49.0220 C   0  0  0  0  0  0  0  0  0  0  0  0
   59.6090   32.3900   49.3260 C   0  0  0  0  0  0  0  0  0  0  0  0
   58.9300   32.9070   50.5340 C   0  0  0  0  0  0  0  0  0  0  0  0
   59.3490   33.9450   51.1120 O   0  0  0  0  0  0  0  0  0  0  0  0
   57.8150   32.2540   51.0490 O   0  0  0  0  0  0  0  0  0  0  0  0
   58.9550   31.4880   48.4670 C   0  0  0  0  0  0  0  0  0  0  0  0
   60.0960   28.5680   48.2650 H   0  0  0  0  0  0  0  0  0  0  0  0
   59.3893   26.9471   47.5556 H   0  0  0  0  0  0  0  0  0  0  0  0
   58.2472   26.6689   44.0294 H   0  0  0  0  0  0  0  0  0  0  0  0
   55.1440   27.5160   45.3780 H   0  0  0  0  0  0  0  0  0  0  0  0
   56.9255   29.2794   43.9386 H   0  0  0  0  0  0  0  0  0  0  0  0
   57.6648   32.4546   45.8975 H   0  0  0  0  0  0  0  0  0  0  0  0
   58.6344   32.2426   44.4004 H   0  0  0  0  0  0  0  0  0  0  0  0
   56.8832   31.8428   44.4004 H   0  0  0  0  0  0  0  0  0  0  0  0
   61.4192   31.0304   46.1359 H   0  0  0  0  0  0  0  0  0  0  0  0
   61.4437   33.4973   49.6859 H   0  0  0  0  0  0  0  0  0  0  0  0
   57.9287   31.1642   48.6949 H   0  0  0  0  0  0  0  0  0  0  0  0
  1  2  2  0
  2  3  1  0
  3  4  2  3
  4  5  1  0
  5  6  1  0
  6  7  1  0
  7  8  2  0
  7  9  1  0
  9 10  1  0
 10 11  1  0
  3 12  1  0
 12 13  2  0
 13 14  1  0
 13 15  1  0
 15 16  1  0
 16 17  2  0
 17 18  1  0
 18 19  1  0
 18 20  2  0
 20 21  1  0
 21 22  1  0
 22 23  2  0
 22 24  1  0
 21 25  2  0
 15  2  1  0
 25 16  1  0
 10  5  2  0
  1 26  1  0
  1 27  1  0
  4 28  1  0
 11 29  1  0
 12 30  1  0
 14 31  1  0
 14 32  1  0
 14 33  1  0
 17 34  1  0
 20 35  1  0
 25 36  1  0
M  CHG  3   6  -1   9  -1  24  -1
M  END
>  <UniqueID>  (36) 
34

>  <SMILES>  (36) 
C=c1c(=Cc2[n-]c(=O)[n-]c2O)cc(C)n1-c1cc(Cl)cc(C(=O)[O-])c1

>  <Energy>  (36) 
113.76330763294433

>  <Genealogy>  (36) 
C=c1c(=Cc2[n-]c(=O)[n-]c2O)cc(C)n1-c1cc(Cl)cc(C(=O)[O-])c1 (protonated)
C=c1c(=Cc2[n-]c(=O)[n-]c2O)cc(C)n1-c1cc(Cl)cc(C(=O)[O-])c1 (3D coordinates assigned)
C=c1c(=Cc2[n-]c(=O)[n-]c2O)cc(C)n1-c1cc(Cl)cc(C(=O)[O-])c1 (optimized conformer: 113.76330763294433 kcal/mol)

>  <smiles>  (36) 
C=c1c(=Cc2[nH]c(=O)[nH]c2O)cc(C)n1-c1cc(Cl)cc(C(=O)O)c1

>  <score_type>  (36) 
oracle

>  <origin>  (36) 
adg

>  <m_score__min__energy>  (36) 
-13.609999999999999

>  <m_primary>  (36) 
energy

$$$$
36:0
     RDKit          3D

 58 61  0  0  0  0  0  0  0  0999 V2000
   57.5381   26.1712   46.7087 H   0  0  0  0  0  0  0  0  0  0  0  0
   56.7500   26.7340   46.1870 C   0  0  0  0  0  0  0  0  0  0  0  0
   55.7449   26.3004   46.0779 H   0  0  0  0  0  0  0  0  0  0  0  0
   57.0150   27.9510   45.6830 C   0  0  0  0  0  0  0  0  0  0  0  0
   55.9880   28.5750   45.0560 N   0  0  0  0  0  0  0  0  0  0  0  0
   56.1120   29.7800   44.4610 C   0  0  0  0  0  0  0  0  0  0  0  0
   55.1040   30.2810   43.8920 O   0  0  0  0  0  0  0  0  0  0  0  0
   57.3110   30.4370   44.4780 N   0  0  0  0  0  0  0  0  0  0  0  0
   57.4350   31.7730   43.8540 C   0  0  0  0  0  0  0  0  0  0  0  0
   58.1567   31.7192   43.0256 H   0  0  0  0  0  0  0  0  0  0  0  0
   56.4478   32.0821   43.4800 H   0  0  0  0  0  0  0  0  0  0  0  0
   57.9120   32.7880   44.8610 C   0  0  0  0  0  0  0  0  0  0  0  0
   57.4860   32.7130   46.1980 C   0  0  0  0  0  0  0  0  0  0  0  0
   56.7860   31.9222   46.5056 H   0  0  0  0  0  0  0  0  0  0  0  0
   57.9470   33.6380   47.1390 C   0  0  0  0  0  0  0  0  0  0  0  0
   57.6080   33.5747   48.1836 H   0  0  0  0  0  0  0  0  0  0  0  0
   58.8380   34.6430   46.7540 C   0  0  0  0  0  0  0  0  0  0  0  0
   59.2018   35.3691   47.4959 H   0  0  0  0  0  0  0  0  0  0  0  0
   59.2670   34.7260   45.4270 C   0  0  0  0  0  0  0  0  0  0  0  0
   59.9661   35.5195   45.1245 H   0  0  0  0  0  0  0  0  0  0  0  0
   58.8090   33.8020   44.4830 C   0  0  0  0  0  0  0  0  0  0  0  0
   59.1521   33.8688   43.4400 H   0  0  0  0  0  0  0  0  0  0  0  0
   58.3870   29.8790   45.1220 C   0  0  0  0  0  0  0  0  0  0  0  0
   59.4570   30.5450   45.2030 O   0  0  0  0  0  0  0  0  0  0  0  0
   58.2930   28.5910   45.7340 C   0  0  0  0  0  0  0  0  0  0  0  0
   59.3540   28.0180   46.3760 C   0  0  0  0  0  0  0  0  0  0  0  0
   59.9412   27.2816   45.8077 H   0  0  0  0  0  0  0  0  0  0  0  0
   59.7880   28.2940   47.7630 C   0  0  0  0  0  0  0  0  0  0  0  0
   59.7220   29.6010   48.2760 C   0  0  0  0  0  0  0  0  0  0  0  0
   59.3165   30.4114   47.6525 H   0  0  0  0  0  0  0  0  0  0  0  0
   60.1700   29.8820   49.5800 C   0  0  0  0  0  0  0  0  0  0  0  0
   60.0780   31.2500   50.1460 C   0  0  0  0  0  0  0  0  0  0  0  0
   59.2110   32.0460   49.6920 O   0  0  0  0  0  0  0  0  0  0  0  0
   60.9480   31.6770   51.2070 N   0  0  0  0  0  0  0  0  0  0  0  0
   61.5930   30.9940   51.6630 H   0  0  0  0  0  0  0  0  0  0  0  0
   60.9560   33.0500   51.7070 C   0  0  0  0  0  0  0  0  0  0  0  0
   60.0483   33.5665   51.3615 H   0  0  0  0  0  0  0  0  0  0  0  0
   60.9844   33.0283   52.8064 H   0  0  0  0  0  0  0  0  0  0  0  0
   62.1890   33.8000   51.1940 C   0  0  0  0  0  0  0  0  0  0  0  0
   62.0085   34.8828   51.2641 H   0  0  0  0  0  0  0  0  0  0  0  0
   63.0566   33.5181   51.8087 H   0  0  0  0  0  0  0  0  0  0  0  0
   62.4720   33.4370   49.7590 C   0  0  0  0  0  0  0  0  0  0  0  0
   63.5180   32.5500   49.4520 C   0  0  0  0  0  0  0  0  0  0  0  0
   64.1441   32.1413   50.2588 H   0  0  0  0  0  0  0  0  0  0  0  0
   63.7660   32.1850   48.1260 C   0  0  0  0  0  0  0  0  0  0  0  0
   64.5909   31.4964   47.8909 H   0  0  0  0  0  0  0  0  0  0  0  0
   62.9670   32.6940   47.0980 C   0  0  0  0  0  0  0  0  0  0  0  0
   63.1661   32.4092   46.0543 H   0  0  0  0  0  0  0  0  0  0  0  0
   61.9160   33.5640   47.3960 C   0  0  0  0  0  0  0  0  0  0  0  0
   61.2857   33.9596   46.5859 H   0  0  0  0  0  0  0  0  0  0  0  0
   61.6620   33.9340   48.7200 C   0  0  0  0  0  0  0  0  0  0  0  0
   60.6270   34.7700   48.9900 F   0  0  0  0  0  0  0  0  0  0  0  0
   60.6910   28.8350   50.3610 C   0  0  0  0  0  0  0  0  0  0  0  0
   61.0247   29.0354   51.3898 H   0  0  0  0  0  0  0  0  0  0  0  0
   60.7880   27.5420   49.8400 C   0  0  0  0  0  0  0  0  0  0  0  0
   61.2128   26.7344   50.4543 H   0  0  0  0  0  0  0  0  0  0  0  0
   60.3480   27.2710   48.5430 C   0  0  0  0  0  0  0  0  0  0  0  0
   60.4590   25.9780   48.0400 O   0  0  0  0  0  0  0  0  0  0  0  0
  1  2  1  0
  2  3  1  0
  2  4  2  0
  4  5  1  0
  5  6  1  0
  6  7  2  0
  6  8  1  0
  8  9  1  0
  9 10  1  0
  9 11  1  0
  9 12  1  0
 12 13  2  0
 13 14  1  0
 13 15  1  0
 15 16  1  0
 15 17  2  0
 17 18  1  0
 17 19  1  0
 19 20  1  0
 19 21  2  0
 21 22  1  0
  8 23  1  0
 23 24  2  0
 23 25  1  0
 25 26  2  0
 26 27  1  0
 26 28  1  0
 28 29  2  0
 29 30  1  0
 29 31  1  0
 31 32  1  0
 32 33  2  0
 32 34  1  0
 34 35  1  0
 34 36  1  0
 36 37  1  0
 36 38  1  0
 36 39  1  0
 39 40  1  0
 39 41  1  0
 39 42  1  0
 42 43  2  0
 43 44  1  0
 43 45  1  0
 45 46  1  0
 45 47  2  0
 47 48  1  0
 47 49  1  0
 49 50  1  0
 49 51  2  0
 51 52  1  0
 31 53  2  0
 53 54  1  0
 53 55  1  0
 55 56  1  0
 55 57  2  0
 57 58  1  0
 25  4  1  0
 57 28  1  0
 21 12  1  0
 51 42  1  0
M  CHG  2   5  -1  58  -1
M  END
>  <UniqueID>  (37) 
35

>  <SMILES>  (37) 
C=c1[n-]c(=O)n(Cc2ccccc2)c(=O)/c1=C\c1cc(C(=O)NCCc2ccccc2F)ccc1[O-]

>  <Energy>  (37) 
86.27655994836641

>  <Genealogy>  (37) 
C=c1[n-]c(=O)n(Cc2ccccc2)c(=O)c1=Cc1cc(C(=O)NCCc2ccccc2F)ccc1[O-] (protonated)
C=c1[n-]c(=O)n(Cc2ccccc2)c(=O)/c1=C\c1cc(C(=O)NCCc2ccccc2F)ccc1[O-] (cis-trans isomerization)
C=c1[n-]c(=O)n(Cc2ccccc2)c(=O)/c1=C\c1cc(C(=O)NCCc2ccccc2F)ccc1[O-] (3D coordinates assigned)
C=c1[n-]c(=O)n(Cc2ccccc2)c(=O)/c1=C\c1cc(C(=O)NCCc2ccccc2F)ccc1[O-] (optimized conformer: 86.27655994836641 kcal/mol)

>  <smiles>  (37) 
C=c1[nH]c(=O)n(Cc2ccccc2)c(=O)c1=Cc1cc(C(=O)NCCc2ccccc2F)ccc1O

>  <score_type>  (37) 
oracle

>  <origin>  (37) 
adg

>  <m_score__min__energy>  (37) 
-14.300000000000001

>  <m_primary>  (37) 
energy

$$$$
37:0
     RDKit          3D

 55 58  0  0  0  0  0  0  0  0999 V2000
   59.0050   27.8480   46.8060 C   0  0  0  0  0  0  0  0  0  0  0  0
   58.3830   28.4420   45.7750 C   0  0  0  0  0  0  0  0  0  0  0  0
   57.7590   27.8110   44.6860 C   0  0  0  0  0  0  0  0  0  0  0  0
   57.4190   26.5230   44.4870 C   0  0  0  0  0  0  0  0  0  0  0  0
   56.9800   25.5820   45.5290 C   0  0  0  0  0  0  0  0  0  0  0  0
   57.7430   24.6030   46.0510 N   0  0  0  0  0  0  0  0  0  0  0  0
   56.9730   24.1030   47.0420 C   0  0  0  0  0  0  0  0  0  0  0  0
   57.3410   23.1410   47.7660 O   0  0  0  0  0  0  0  0  0  0  0  0
   55.7820   24.7190   47.2010 N   0  0  0  0  0  0  0  0  0  0  0  0
   55.8100   25.6620   46.2440 C   0  0  0  0  0  0  0  0  0  0  0  0
   54.7890   26.5820   46.0280 O   0  0  0  0  0  0  0  0  0  0  0  0
   57.5050   28.8060   43.7550 C   0  0  0  0  0  0  0  0  0  0  0  0
   57.9020   29.9970   44.3240 C   0  0  0  0  0  0  0  0  0  0  0  0
   57.7870   31.3370   43.6600 C   0  0  0  0  0  0  0  0  0  0  0  0
   58.4320   29.7800   45.5480 N   0  0  0  0  0  0  0  0  0  0  0  0
   58.9860   30.7870   46.4150 C   0  0  0  0  0  0  0  0  0  0  0  0
   60.3670   30.8610   46.6360 C   0  0  0  0  0  0  0  0  0  0  0  0
   60.8890   31.8460   47.4750 C   0  0  0  0  0  0  0  0  0  0  0  0
   60.0200   32.7650   48.0850 C   0  0  0  0  0  0  0  0  0  0  0  0
   60.5340   33.8130   48.9940 C   0  0  0  0  0  0  0  0  0  0  0  0
   60.0220   34.9640   48.9750 O   0  0  0  0  0  0  0  0  0  0  0  0
   61.6400   33.5480   49.8720 N   0  0  0  0  0  0  0  0  0  0  0  0
   61.6110   32.4160   50.8000 C   0  0  0  0  0  0  0  0  0  0  0  0
   63.0220   31.8460   50.9190 C   0  0  0  0  0  0  0  0  0  0  0  0
   63.9800   32.8480   51.4340 N   0  0  0  0  0  0  0  0  0  0  0  0
   65.6140   32.4480   50.9600 S   0  0  0  0  0  0  0  0  0  0  0  0
   66.6530   32.1310   52.3740 C   0  0  0  0  0  0  0  0  0  0  0  0
   66.2020   33.5840   50.1700 O   0  0  0  0  0  0  0  0  0  0  0  0
   65.5900   31.2210   50.0920 O   0  0  0  0  0  0  0  0  0  0  0  0
   63.6510   34.2650   51.1410 C   0  0  0  0  0  0  0  0  0  0  0  0
   62.7900   34.4580   49.8800 C   0  0  0  0  0  0  0  0  0  0  0  0
   58.6790   32.6680   47.8600 N   0  0  0  0  0  0  0  0  0  0  0  0
   58.1510   31.7150   47.0490 C   0  0  0  0  0  0  0  0  0  0  0  0
   59.4569   28.4587   47.6015 H   0  0  0  0  0  0  0  0  0  0  0  0
   59.0627   26.7506   46.8552 H   0  0  0  0  0  0  0  0  0  0  0  0
   57.4744   26.1420   43.4566 H   0  0  0  0  0  0  0  0  0  0  0  0
   54.3820   26.6950   45.1080 H   0  0  0  0  0  0  0  0  0  0  0  0
   57.0699   28.6710   42.7538 H   0  0  0  0  0  0  0  0  0  0  0  0
   57.7196   32.1220   44.4276 H   0  0  0  0  0  0  0  0  0  0  0  0
   58.6734   31.5127   43.0327 H   0  0  0  0  0  0  0  0  0  0  0  0
   56.8837   31.3591   43.0327 H   0  0  0  0  0  0  0  0  0  0  0  0
   61.0409   30.1417   46.1476 H   0  0  0  0  0  0  0  0  0  0  0  0
   61.9724   31.9022   47.6571 H   0  0  0  0  0  0  0  0  0  0  0  0
   61.2641   32.7552   51.7872 H   0  0  0  0  0  0  0  0  0  0  0  0
   60.9239   31.6423   50.4268 H   0  0  0  0  0  0  0  0  0  0  0  0
   63.0018   30.9873   51.6061 H   0  0  0  0  0  0  0  0  0  0  0  0
   63.3529   31.5427   49.9148 H   0  0  0  0  0  0  0  0  0  0  0  0
   66.0800   32.3058   53.2966 H   0  0  0  0  0  0  0  0  0  0  0  0
   66.9979   31.0868   52.3489 H   0  0  0  0  0  0  0  0  0  0  0  0
   67.5221   32.8049   52.3489 H   0  0  0  0  0  0  0  0  0  0  0  0
   63.1033   34.6782   52.0008 H   0  0  0  0  0  0  0  0  0  0  0  0
   64.6043   34.7828   50.9588 H   0  0  0  0  0  0  0  0  0  0  0  0
   62.4255   35.4954   49.8510 H   0  0  0  0  0  0  0  0  0  0  0  0
   63.4116   34.2376   48.9997 H   0  0  0  0  0  0  0  0  0  0  0  0
   57.0634   31.6721   46.8897 H   0  0  0  0  0  0  0  0  0  0  0  0
  1  2  2  0
  2  3  1  0
  3  4  2  3
  4  5  1  0
  5  6  1  0
  6  7  1  0
  7  8  2  0
  7  9  1  0
  9 10  1  0
 10 11  1  0
  3 12  1  0
 12 13  2  0
 13 14  1  0
 13 15  1  0
 15 16  1  0
 16 17  2  0
 17 18  1  0
 18 19  2  0
 19 20  1  0
 20 21  2  0
 20 22  1  0
 22 23  1  0
 23 24  1  0
 24 25  1  0
 25 26  1  0
 26 27  1  0
 26 28  2  0
 26 29  2  0
 25 30  1  0
 30 31  1  0
 19 32  1  0
 32 33  2  0
 15  2  1  0
 33 16  1  0
 10  5  2  0
 31 22  1  0
  1 34  1  0
  1 35  1  0
  4 36  1  0
 11 37  1  0
 12 38  1  0
 14 39  1  0
 14 40  1  0
 14 41  1  0
 17 42  1  0
 18 43  1  0
 23 44  1  0
 23 45  1  0
 24 46  1  0
 24 47  1  0
 27 48  1  0
 27 49  1  0
 27 50  1  0
 30 51  1  0
 30 52  1  0
 31 53  1  0
 31 54  1  0
 33 55  1  0
M  CHG  2   6  -1   9  -1
M  END
>  <UniqueID>  (38) 
36

>  <SMILES>  (38) 
C=c1c(=Cc2[n-]c(=O)[n-]c2O)cc(C)n1-c1ccc(C(=O)N2CCN(S(C)(=O)=O)CC2)nc1

>  <Energy>  (38) 
138.15185101280693

>  <Genealogy>  (38) 
C=c1c(=Cc2[n-]c(=O)[n-]c2O)cc(C)n1-c1ccc(C(=O)N2CCN(S(C)(=O)=O)CC2)nc1 (protonated)
C=c1c(=Cc2[n-]c(=O)[n-]c2O)cc(C)n1-c1ccc(C(=O)N2CCN(S(C)(=O)=O)CC2)nc1 (3D coordinates assigned)
C=c1c(=Cc2[n-]c(=O)[n-]c2O)cc(C)n1-c1ccc(C(=O)N2CCN(S(C)(=O)=O)CC2)nc1 (nonaromatic ring conformer: 138.15185101280693 kcal/mol)

>  <smiles>  (38) 
C=c1c(=Cc2[nH]c(=O)[nH]c2O)cc(C)n1-c1ccc(C(=O)N2CCN(S(C)(=O)=O)CC2)nc1

>  <score_type>  (38) 
oracle

>  <origin>  (38) 
adg

>  <m_score__min__energy>  (38) 
-13.34

>  <m_primary>  (38) 
energy

$$$$
38:0
     RDKit          3D

 65 69  0  0  0  0  0  0  0  0999 V2000
   57.8070   24.6240   47.0930 C   0  0  0  0  0  0  0  0  0  0  0  0
   57.9610   25.5760   46.1540 C   0  0  0  0  0  0  0  0  0  0  0  0
   57.4740   25.5440   44.8380 C   0  0  0  0  0  0  0  0  0  0  0  0
   56.5870   24.7220   44.2410 C   0  0  0  0  0  0  0  0  0  0  0  0
   55.2590   24.3660   44.7650 C   0  0  0  0  0  0  0  0  0  0  0  0
   54.7000   23.1470   44.6650 N   0  0  0  0  0  0  0  0  0  0  0  0
   53.5760   23.2590   45.4090 C   0  0  0  0  0  0  0  0  0  0  0  0
   52.7630   22.3100   45.5540 O   0  0  0  0  0  0  0  0  0  0  0  0
   53.4020   24.4630   45.9980 N   0  0  0  0  0  0  0  0  0  0  0  0
   54.4860   25.1440   45.5960 C   0  0  0  0  0  0  0  0  0  0  0  0
   54.7720   26.4450   45.9930 O   0  0  0  0  0  0  0  0  0  0  0  0
   58.0920   26.5870   44.1720 C   0  0  0  0  0  0  0  0  0  0  0  0
   58.8640   27.2540   45.0970 C   0  0  0  0  0  0  0  0  0  0  0  0
   59.6690   28.4840   44.8010 C   0  0  0  0  0  0  0  0  0  0  0  0
   58.7860   26.6460   46.3030 N   0  0  0  0  0  0  0  0  0  0  0  0
   59.4750   27.0570   47.5000 C   0  0  0  0  0  0  0  0  0  0  0  0
   60.4370   26.3700   47.9380 O   0  0  0  0  0  0  0  0  0  0  0  0
   59.0290   28.2150   48.2200 N   0  0  0  0  0  0  0  0  0  0  0  0
   59.7990   28.9830   49.1580 C   0  0  0  0  0  0  0  0  0  0  0  0
   60.3980   28.3970   50.2860 C   0  0  0  0  0  0  0  0  0  0  0  0
   61.1750   29.1720   51.1510 C   0  0  0  0  0  0  0  0  0  0  0  0
   61.3760   30.5290   50.8910 C   0  0  0  0  0  0  0  0  0  0  0  0
   60.8000   31.1290   49.7560 C   0  0  0  0  0  0  0  0  0  0  0  0
   61.0550   32.5570   49.4520 C   0  0  0  0  0  0  0  0  0  0  0  0
   61.7460   33.2520   50.2440 O   0  0  0  0  0  0  0  0  0  0  0  0
   60.4890   33.1750   48.2860 N   0  0  0  0  0  0  0  0  0  0  0  0
   60.9060   32.7300   46.9520 C   0  0  0  0  0  0  0  0  0  0  0  0
   59.7560   32.9140   45.9580 C   0  0  0  0  0  0  0  0  0  0  0  0
   59.2330   34.2970   46.0110 N   0  0  0  0  0  0  0  0  0  0  0  0
   58.1600   34.4600   45.0050 C   0  0  0  0  0  0  0  0  0  0  0  0
   57.7670   33.1280   44.4200 C   0  0  0  0  0  0  0  0  0  0  0  0
   58.1550   32.7820   43.1140 C   0  0  0  0  0  0  0  0  0  0  0  0
   57.7960   31.5400   42.5790 C   0  0  0  0  0  0  0  0  0  0  0  0
   57.0540   30.6350   43.3450 C   0  0  0  0  0  0  0  0  0  0  0  0
   56.6720   30.9690   44.6470 C   0  0  0  0  0  0  0  0  0  0  0  0
   57.0290   32.2100   45.1870 C   0  0  0  0  0  0  0  0  0  0  0  0
   58.7240   34.5980   47.3720 C   0  0  0  0  0  0  0  0  0  0  0  0
   59.8540   34.4880   48.3990 C   0  0  0  0  0  0  0  0  0  0  0  0
   60.0160   30.3410   48.8910 C   0  0  0  0  0  0  0  0  0  0  0  0
   58.2379   24.7652   48.0952 H   0  0  0  0  0  0  0  0  0  0  0  0
   57.2502   23.7048   46.8582 H   0  0  0  0  0  0  0  0  0  0  0  0
   56.8821   24.2791   43.2783 H   0  0  0  0  0  0  0  0  0  0  0  0
   57.9868   26.8363   43.1058 H   0  0  0  0  0  0  0  0  0  0  0  0
   59.9779   28.9561   45.7453 H   0  0  0  0  0  0  0  0  0  0  0  0
   60.5613   28.2073   44.2203 H   0  0  0  0  0  0  0  0  0  0  0  0
   59.0583   29.1910   44.2203 H   0  0  0  0  0  0  0  0  0  0  0  0
   60.2549   27.3253   50.4886 H   0  0  0  0  0  0  0  0  0  0  0  0
   61.6300   28.7112   52.0402 H   0  0  0  0  0  0  0  0  0  0  0  0
   61.9881   31.1325   51.5774 H   0  0  0  0  0  0  0  0  0  0  0  0
   61.7710   33.3246   46.6231 H   0  0  0  0  0  0  0  0  0  0  0  0
   61.1808   31.6657   46.9948 H   0  0  0  0  0  0  0  0  0  0  0  0
   60.1208   32.7049   44.9415 H   0  0  0  0  0  0  0  0  0  0  0  0
   58.9453   32.2197   46.2238 H   0  0  0  0  0  0  0  0  0  0  0  0
   57.2817   34.9160   45.4854 H   0  0  0  0  0  0  0  0  0  0  0  0
   58.5317   35.1046   44.1949 H   0  0  0  0  0  0  0  0  0  0  0  0
   58.7426   33.4898   42.5108 H   0  0  0  0  0  0  0  0  0  0  0  0
   58.0976   31.2750   41.5549 H   0  0  0  0  0  0  0  0  0  0  0  0
   56.7710   29.6597   42.9222 H   0  0  0  0  0  0  0  0  0  0  0  0
   56.0898   30.2554   45.2485 H   0  0  0  0  0  0  0  0  0  0  0  0
   56.7313   32.4675   46.2142 H   0  0  0  0  0  0  0  0  0  0  0  0
   58.3164   35.6196   47.3891 H   0  0  0  0  0  0  0  0  0  0  0  0
   57.9368   33.8735   47.6276 H   0  0  0  0  0  0  0  0  0  0  0  0
   60.6000   35.2737   48.2090 H   0  0  0  0  0  0  0  0  0  0  0  0
   59.4425   34.6105   49.4117 H   0  0  0  0  0  0  0  0  0  0  0  0
   59.5689   30.7972   47.9954 H   0  0  0  0  0  0  0  0  0  0  0  0
  1  2  2  0
  2  3  1  0
  3  4  2  3
  4  5  1  0
  5  6  1  0
  6  7  1  0
  7  8  2  0
  7  9  1  0
  9 10  1  0
 10 11  1  0
  3 12  1  0
 12 13  2  0
 13 14  1  0
 13 15  1  0
 15 16  1  0
 16 17  2  0
 16 18  1  0
 18 19  1  0
 19 20  2  0
 20 21  1  0
 21 22  2  0
 22 23  1  0
 23 24  1  0
 24 25  2  0
 24 26  1  0
 26 27  1  0
 27 28  1  0
 28 29  1  0
 29 30  1  0
 30 31  1  0
 31 32  2  0
 32 33  1  0
 33 34  2  0
 34 35  1  0
 35 36  2  0
 29 37  1  0
 37 38  1  0
 23 39  2  0
 15  2  1  0
 39 19  1  0
 10  5  2  0
 38 26  1  0
 36 31  1  0
  1 40  1  0
  1 41  1  0
  4 42  1  0
 12 43  1  0
 14 44  1  0
 14 45  1  0
 14 46  1  0
 20 47  1  0
 21 48  1  0
 22 49  1  0
 27 50  1  0
 27 51  1  0
 28 52  1  0
 28 53  1  0
 30 54  1  0
 30 55  1  0
 32 56  1  0
 33 57  1  0
 34 58  1  0
 35 59  1  0
 36 60  1  0
 37 61  1  0
 37 62  1  0
 38 63  1  0
 38 64  1  0
 39 65  1  0
M  CHG  4   6  -1   9  -1  11  -1  18  -1
M  END
>  <UniqueID>  (39) 
37

>  <SMILES>  (39) 
C=c1c(=Cc2[n-]c(=O)[n-]c2[O-])cc(C)n1C(=O)[N-]c1cccc(C(=O)N2CCN(Cc3ccccc3)CC2)c1

>  <Energy>  (39) 
151.40394480330602

>  <Genealogy>  (39) 
C=c1c(=Cc2[n-]c(=O)[n-]c2[O-])cc(C)n1C(=O)[N-]c1cccc(C(=O)N2CCN(Cc3ccccc3)CC2)c1 (protonated)
C=c1c(=Cc2[n-]c(=O)[n-]c2[O-])cc(C)n1C(=O)[N-]c1cccc(C(=O)N2CCN(Cc3ccccc3)CC2)c1 (3D coordinates assigned)
C=c1c(=Cc2[n-]c(=O)[n-]c2[O-])cc(C)n1C(=O)[N-]c1cccc(C(=O)N2CCN(Cc3ccccc3)CC2)c1 (nonaromatic ring conformer: 151.40394480330602 kcal/mol)

>  <smiles>  (39) 
C=c1c(=Cc2[nH]c(=O)[nH]c2O)cc(C)n1C(=O)Nc1cccc(C(=O)N2CCN(Cc3ccccc3)CC2)c1

>  <score_type>  (39) 
oracle

>  <origin>  (39) 
adg

>  <m_score__min__energy>  (39) 
-19.48

>  <m_primary>  (39) 
energy

$$$$
39:0
     RDKit          3D

 51 54  0  0  0  0  0  0  0  0999 V2000
   53.6620   28.0300   53.4160 C   0  0  0  0  0  0  0  0  0  0  0  0
   54.4270   29.0220   52.9470 C   0  0  0  0  0  0  0  0  0  0  0  0
   55.7260   29.1400   53.2910 N   0  0  0  0  0  0  0  0  0  0  0  0
   56.1800   30.2870   52.7500 C   0  0  0  0  0  0  0  0  0  0  0  0
   57.5620   30.7720   52.8970 C   0  0  0  0  0  0  0  0  0  0  0  0
   58.0020   31.0460   54.0450 O   0  0  0  0  0  0  0  0  0  0  0  0
   58.4140   30.9320   51.7540 N   0  0  0  0  0  0  0  0  0  0  0  0
   57.9700   31.8150   50.6620 C   0  0  0  0  0  0  0  0  0  0  0  0
   59.1560   32.2600   49.8080 C   0  0  0  0  0  0  0  0  0  0  0  0
   59.8770   31.0820   49.3180 N   0  0  0  0  0  0  0  0  0  0  0  0
   60.2430   30.9590   47.9020 C   0  0  0  0  0  0  0  0  0  0  0  0
   59.0140   31.0840   46.9960 C   0  0  0  0  0  0  0  0  0  0  0  0
   58.9540   32.4340   46.3290 C   0  0  0  0  0  0  0  0  0  0  0  0
   59.9220   33.4120   46.6080 C   0  0  0  0  0  0  0  0  0  0  0  0
   59.8330   34.6640   45.9960 C   0  0  0  0  0  0  0  0  0  0  0  0
   58.8060   34.9350   45.1470 N   0  0  0  0  0  0  0  0  0  0  0  0
   57.8490   34.0090   44.8650 C   0  0  0  0  0  0  0  0  0  0  0  0
   57.9050   32.7430   45.4510 C   0  0  0  0  0  0  0  0  0  0  0  0
   60.1520   30.0250   50.2540 C   0  0  0  0  0  0  0  0  0  0  0  0
   60.8460   29.0310   49.9120 O   0  0  0  0  0  0  0  0  0  0  0  0
   59.6300   30.1070   51.6610 C   0  0  0  0  0  0  0  0  0  0  0  0
   55.1690   30.9270   52.0580 C   0  0  0  0  0  0  0  0  0  0  0  0
   54.0490   30.1150   52.1480 C   0  0  0  0  0  0  0  0  0  0  0  0
   52.8820   30.4080   51.5430 C   0  0  0  0  0  0  0  0  0  0  0  0
   51.8470   31.2990   52.0820 C   0  0  0  0  0  0  0  0  0  0  0  0
   51.4490   31.2870   53.3670 N   0  0  0  0  0  0  0  0  0  0  0  0
   50.5640   32.3060   53.4270 C   0  0  0  0  0  0  0  0  0  0  0  0
   49.9440   32.6040   54.4830 O   0  0  0  0  0  0  0  0  0  0  0  0
   50.3920   32.9770   52.2680 N   0  0  0  0  0  0  0  0  0  0  0  0
   51.2210   32.3390   51.4290 C   0  0  0  0  0  0  0  0  0  0  0  0
   51.4050   32.7160   50.1000 O   0  0  0  0  0  0  0  0  0  0  0  0
   52.6058   27.9613   53.1165 H   0  0  0  0  0  0  0  0  0  0  0  0
   54.0891   27.2830   54.1012 H   0  0  0  0  0  0  0  0  0  0  0  0
   56.2760   28.4760   53.8830 H   0  0  0  0  0  0  0  0  0  0  0  0
   57.2528   31.2725   50.0285 H   0  0  0  0  0  0  0  0  0  0  0  0
   57.4965   32.7062   51.0996 H   0  0  0  0  0  0  0  0  0  0  0  0
   58.7914   32.8482   48.9530 H   0  0  0  0  0  0  0  0  0  0  0  0
   59.8338   32.8768   50.4164 H   0  0  0  0  0  0  0  0  0  0  0  0
   60.9587   31.7543   47.6466 H   0  0  0  0  0  0  0  0  0  0  0  0
   60.6908   29.9667   47.7443 H   0  0  0  0  0  0  0  0  0  0  0  0
   59.0603   30.3044   46.2213 H   0  0  0  0  0  0  0  0  0  0  0  0
   58.1140   30.9660   47.6173 H   0  0  0  0  0  0  0  0  0  0  0  0
   60.7451   33.1934   47.3042 H   0  0  0  0  0  0  0  0  0  0  0  0
   60.5940   35.4314   46.2008 H   0  0  0  0  0  0  0  0  0  0  0  0
   57.0301   34.2586   44.1742 H   0  0  0  0  0  0  0  0  0  0  0  0
   57.1320   31.9935   45.2257 H   0  0  0  0  0  0  0  0  0  0  0  0
   59.3970   29.0911   52.0125 H   0  0  0  0  0  0  0  0  0  0  0  0
   60.4061   30.5767   52.2831 H   0  0  0  0  0  0  0  0  0  0  0  0
   55.2395   31.8932   51.5370 H   0  0  0  0  0  0  0  0  0  0  0  0
   52.6885   29.9419   50.5656 H   0  0  0  0  0  0  0  0  0  0  0  0
   52.3240   32.7360   49.6800 H   0  0  0  0  0  0  0  0  0  0  0  0
  1  2  2  0
  2  3  1  0
  3  4  1  0
  4  5  1  0
  5  6  2  0
  5  7  1  0
  7  8  1  0
  8  9  1  0
  9 10  1  0
 10 11  1  0
 11 12  1  0
 12 13  1  0
 13 14  2  0
 14 15  1  0
 15 16  2  0
 16 17  1  0
 17 18  2  0
 10 19  1  0
 19 20  2  0
 19 21  1  0
  4 22  2  0
 22 23  1  0
 23 24  2  3
 24 25  1  0
 25 26  1  0
 26 27  1  0
 27 28  2  0
 27 29  1  0
 29 30  1  0
 30 31  1  0
 23  2  1  0
 30 25  2  0
 21  7  1  0
 18 13  1  0
  1 32  1  0
  1 33  1  0
  3 34  1  0
  8 35  1  0
  8 36  1  0
  9 37  1  0
  9 38  1  0
 11 39  1  0
 11 40  1  0
 12 41  1  0
 12 42  1  0
 14 43  1  0
 15 44  1  0
 17 45  1  0
 18 46  1  0
 21 47  1  0
 21 48  1  0
 22 49  1  0
 24 50  1  0
 31 51  1  0
M  CHG  2  26  -1  29  -1
M  END
>  <UniqueID>  (40) 
38

>  <SMILES>  (40) 
C=c1[nH]c(C(=O)N2CCN(CCc3ccncc3)C(=O)C2)cc1=Cc1[n-]c(=O)[n-]c1O

>  <Energy>  (40) 
122.20182677011191

>  <Genealogy>  (40) 
C=c1[nH]c(C(=O)N2CCN(CCc3ccncc3)C(=O)C2)cc1=Cc1[n-]c(=O)[n-]c1O (protonated)
C=c1[nH]c(C(=O)N2CCN(CCc3ccncc3)C(=O)C2)cc1=Cc1[n-]c(=O)[n-]c1O (3D coordinates assigned)
C=c1[nH]c(C(=O)N2CCN(CCc3ccncc3)C(=O)C2)cc1=Cc1[n-]c(=O)[n-]c1O (nonaromatic ring conformer: 122.20182677011191 kcal/mol)

>  <smiles>  (40) 
C=c1[nH]c(C(=O)N2CCN(CCc3ccncc3)C(=O)C2)cc1=Cc1[nH]c(=O)[nH]c1O

>  <score_type>  (40) 
oracle

>  <origin>  (40) 
adg

>  <m_score__min__energy>  (40) 
-14.210000000000001

>  <m_primary>  (40) 
energy

$$$$
40:0
     RDKit          3D

 58 61  0  0  0  0  0  0  0  0999 V2000
   59.0440   29.2180   52.3440 H   0  0  0  0  0  0  0  0  0  0  0  0
   59.3290   30.2160   52.2310 N   0  0  0  0  0  0  0  0  0  0  0  0
   59.1820   30.8450   51.1070 C   0  0  0  0  0  0  0  0  0  0  0  0
   58.7480   30.1570   50.0210 N   0  0  0  0  0  0  0  0  0  0  0  0
   58.5920   30.7490   48.8160 C   0  0  0  0  0  0  0  0  0  0  0  0
   58.2313   30.1612   47.9590 H   0  0  0  0  0  0  0  0  0  0  0  0
   58.8880   32.1080   48.6550 C   0  0  0  0  0  0  0  0  0  0  0  0
   58.7490   32.7700   47.3260 C   0  0  0  0  0  0  0  0  0  0  0  0
   58.4120   32.0270   46.2330 N   0  0  0  0  0  0  0  0  0  0  0  0
   58.2350   32.5770   44.9980 C   0  0  0  0  0  0  0  0  0  0  0  0
   57.9210   31.8390   43.9750 N   0  0  0  0  0  0  0  0  0  0  0  0
   56.9200   30.7720   43.9800 C   0  0  0  0  0  0  0  0  0  0  0  0
   56.0426   31.1074   44.5524 H   0  0  0  0  0  0  0  0  0  0  0  0
   56.6458   30.5504   42.9380 H   0  0  0  0  0  0  0  0  0  0  0  0
   57.4610   29.5110   44.6060 C   0  0  0  0  0  0  0  0  0  0  0  0
   58.8430   29.2790   44.6430 C   0  0  0  0  0  0  0  0  0  0  0  0
   59.5352   30.0249   44.2252 H   0  0  0  0  0  0  0  0  0  0  0  0
   59.3440   28.1050   45.2080 C   0  0  0  0  0  0  0  0  0  0  0  0
   60.4302   27.9359   45.2471 H   0  0  0  0  0  0  0  0  0  0  0  0
   58.4710   27.1440   45.7240 C   0  0  0  0  0  0  0  0  0  0  0  0
   58.8747   26.2251   46.1742 H   0  0  0  0  0  0  0  0  0  0  0  0
   57.0800   27.3430   45.6720 C   0  0  0  0  0  0  0  0  0  0  0  0
   56.1510   26.3270   46.2220 C   0  0  0  0  0  0  0  0  0  0  0  0
   56.5550   25.4890   47.0740 O   0  0  0  0  0  0  0  0  0  0  0  0
   54.7910   26.2770   45.7910 N   0  0  0  0  0  0  0  0  0  0  0  0
   54.0310   26.7180   46.3560 H   0  0  0  0  0  0  0  0  0  0  0  0
   56.5840   28.5300   45.1020 C   0  0  0  0  0  0  0  0  0  0  0  0
   55.4976   28.6925   45.0437 H   0  0  0  0  0  0  0  0  0  0  0  0
   58.3980   33.9540   44.8270 C   0  0  0  0  0  0  0  0  0  0  0  0
   58.2517   34.4117   43.8375 H   0  0  0  0  0  0  0  0  0  0  0  0
   58.7480   34.7430   45.9230 C   0  0  0  0  0  0  0  0  0  0  0  0
   58.8827   35.8277   45.7991 H   0  0  0  0  0  0  0  0  0  0  0  0
   58.9270   34.1570   47.1750 C   0  0  0  0  0  0  0  0  0  0  0  0
   59.2060   34.7761   48.0404 H   0  0  0  0  0  0  0  0  0  0  0  0
   59.3220   32.8180   49.7920 C   0  0  0  0  0  0  0  0  0  0  0  0
   59.6070   34.0440   49.6880 O   0  0  0  0  0  0  0  0  0  0  0  0
   59.4620   32.1870   51.0060 N   0  0  0  0  0  0  0  0  0  0  0  0
   59.9430   32.9650   52.1710 C   0  0  0  0  0  0  0  0  0  0  0  0
   59.6674   34.0219   52.0407 H   0  0  0  0  0  0  0  0  0  0  0  0
   59.4794   32.5654   53.0850 H   0  0  0  0  0  0  0  0  0  0  0  0
   61.4350   32.8530   52.2900 C   0  0  0  0  0  0  0  0  0  0  0  0
   62.1180   33.8800   52.5490 O   0  0  0  0  0  0  0  0  0  0  0  0
   62.0820   31.5910   52.0820 N   0  0  0  0  0  0  0  0  0  0  0  0
   61.4950   30.7270   52.0620 H   0  0  0  0  0  0  0  0  0  0  0  0
   63.4380   31.5110   51.5460 C   0  0  0  0  0  0  0  0  0  0  0  0
   64.0880   32.2146   52.0868 H   0  0  0  0  0  0  0  0  0  0  0  0
   63.8213   30.4875   51.6704 H   0  0  0  0  0  0  0  0  0  0  0  0
   63.4220   31.8660   50.0830 C   0  0  0  0  0  0  0  0  0  0  0  0
   64.2130   32.9220   49.5960 C   0  0  0  0  0  0  0  0  0  0  0  0
   64.8850   33.4638   50.2777 H   0  0  0  0  0  0  0  0  0  0  0  0
   64.1470   33.2850   48.2460 C   0  0  0  0  0  0  0  0  0  0  0  0
   64.7727   34.1068   47.8677 H   0  0  0  0  0  0  0  0  0  0  0  0
   63.2880   32.6060   47.3770 C   0  0  0  0  0  0  0  0  0  0  0  0
   63.2379   32.8941   46.3166 H   0  0  0  0  0  0  0  0  0  0  0  0
   62.4920   31.5600   47.8560 C   0  0  0  0  0  0  0  0  0  0  0  0
   61.3990   30.7210   46.7730 Cl  0  0  0  0  0  0  0  0  0  0  0  0
   62.5540   31.1940   49.2050 C   0  0  0  0  0  0  0  0  0  0  0  0
   61.9206   30.3767   49.5802 H   0  0  0  0  0  0  0  0  0  0  0  0
  1  2  1  0
  2  3  2  0
  3  4  1  0
  4  5  1  0
  5  6  1  0
  5  7  2  0
  7  8  1  0
  8  9  1  0
  9 10  1  0
 10 11  2  3
 11 12  1  0
 12 13  1  0
 12 14  1  0
 12 15  1  0
 15 16  2  0
 16 17  1  0
 16 18  1  0
 18 19  1  0
 18 20  2  0
 20 21  1  0
 20 22  1  0
 22 23  1  0
 23 24  2  0
 23 25  1  0
 25 26  1  0
 22 27  2  0
 27 28  1  0
 10 29  1  0
 29 30  1  0
 29 31  2  0
 31 32  1  0
 31 33  1  0
 33 34  1  0
  7 35  1  0
 35 36  2  0
 35 37  1  0
 37 38  1  0
 38 39  1  0
 38 40  1  0
 38 41  1  0
 41 42  2  0
 41 43  1  0
 43 44  1  0
 43 45  1  0
 45 46  1  0
 45 47  1  0
 45 48  1  0
 48 49  2  0
 49 50  1  0
 49 51  1  0
 51 52  1  0
 51 53  2  0
 53 54  1  0
 53 55  1  0
 55 56  1  0
 55 57  2  0
 57 58  1  0
 37  3  1  0
 57 48  1  0
 33  8  2  0
 27 15  1  0
M  CHG  3   4  -1   9  -1  25  -1
M  END
>  <UniqueID>  (41) 
39

>  <SMILES>  (41) 
[H]/N=c1\[n-]cc(-c2cccc(=NCc3cccc(C([NH-])=O)c3)[n-]2)c(=O)n1CC(=O)NCc1cccc(Cl)c1

>  <Energy>  (41) 
60.31853890878038

>  <Genealogy>  (41) 
N=c1[n-]cc(-c2cccc(=NCc3cccc(C([NH-])=O)c3)[n-]2)c(=O)n1CC(=O)NCc1cccc(Cl)c1 (protonated)
[H]/N=c1\[n-]cc(-c2cccc(=NCc3cccc(C([NH-])=O)c3)[n-]2)c(=O)n1CC(=O)NCc1cccc(Cl)c1 (cis-trans isomerization)
[H]/N=c1\[n-]cc(-c2cccc(=NCc3cccc(C([NH-])=O)c3)[n-]2)c(=O)n1CC(=O)NCc1cccc(Cl)c1 (3D coordinates assigned)
[H]/N=c1\[n-]cc(-c2cccc(=NCc3cccc(C([NH-])=O)c3)[n-]2)c(=O)n1CC(=O)NCc1cccc(Cl)c1 (optimized conformer: 60.31853890878038 kcal/mol)

>  <smiles>  (41) 
N=c1[nH]cc(-c2cccc(=NCc3cccc(C(N)=O)c3)[nH]2)c(=O)n1CC(=O)NCc1cccc(Cl)c1

>  <score_type>  (41) 
oracle

>  <origin>  (41) 
adg

>  <m_score__min__energy>  (41) 
-15.25

>  <m_primary>  (41) 
energy

$$$$
41:0
     RDKit          3D

 59 62  0  0  0  0  0  0  0  0999 V2000
   55.1600   25.7530   45.7240 O   0  0  0  0  0  0  0  0  0  0  0  0
   56.0350   24.5990   46.1320 S   0  0  0  0  0  0  0  0  0  0  0  0
   55.5370   24.0800   47.4530 O   0  0  0  0  0  0  0  0  0  0  0  0
   57.6960   25.1690   46.3190 C   0  0  0  0  0  0  0  0  0  0  0  0
   58.7660   24.3870   45.8620 C   0  0  0  0  0  0  0  0  0  0  0  0
   60.0830   24.8090   46.0640 C   0  0  0  0  0  0  0  0  0  0  0  0
   60.3460   26.0190   46.7240 C   0  0  0  0  0  0  0  0  0  0  0  0
   61.6650   26.4410   46.9000 O   0  0  0  0  0  0  0  0  0  0  0  0
   59.2730   26.8140   47.1820 C   0  0  0  0  0  0  0  0  0  0  0  0
   59.5020   28.1060   47.8620 C   0  0  0  0  0  0  0  0  0  0  0  0
   59.9980   28.1250   49.4360 S   0  0  0  0  0  0  0  0  0  0  0  0
   59.3780   29.3410   47.1230 N   0  0  0  0  0  0  0  0  0  0  0  0
   58.7950   30.5140   47.7990 C   0  0  0  0  0  0  0  0  0  0  0  0
   59.3960   31.7910   47.2720 C   0  0  0  0  0  0  0  0  0  0  0  0
   58.5580   32.8230   46.8160 C   0  0  0  0  0  0  0  0  0  0  0  0
   59.1080   34.0270   46.3630 C   0  0  0  0  0  0  0  0  0  0  0  0
   60.4930   34.2070   46.3580 C   0  0  0  0  0  0  0  0  0  0  0  0
   61.3340   33.1800   46.7980 C   0  0  0  0  0  0  0  0  0  0  0  0
   60.7900   31.9740   47.2520 C   0  0  0  0  0  0  0  0  0  0  0  0
   59.6140   29.3410   45.6660 C   0  0  0  0  0  0  0  0  0  0  0  0
   58.4100   29.8210   44.8970 C   0  0  0  0  0  0  0  0  0  0  0  0
   58.5000   30.9540   44.0720 C   0  0  0  0  0  0  0  0  0  0  0  0
   57.3710   31.4150   43.3860 C   0  0  0  0  0  0  0  0  0  0  0  0
   56.1460   30.7540   43.5260 C   0  0  0  0  0  0  0  0  0  0  0  0
   56.0480   29.6300   44.3520 C   0  0  0  0  0  0  0  0  0  0  0  0
   54.8280   28.9800   44.5010 O   0  0  0  0  0  0  0  0  0  0  0  0
   57.1760   29.1630   45.0340 C   0  0  0  0  0  0  0  0  0  0  0  0
   57.9530   26.3880   46.9610 C   0  0  0  0  0  0  0  0  0  0  0  0
   55.9230   23.3340   44.9310 N   0  0  0  0  0  0  0  0  0  0  0  0
   56.5990   23.7460   43.6920 C   0  0  0  0  0  0  0  0  0  0  0  0
   56.5900   22.5940   42.6640 C   0  0  0  0  0  0  0  0  0  0  0  0
   55.9080   21.4560   43.1560 O   0  0  0  0  0  0  0  0  0  0  0  0
   56.5290   21.0050   44.3460 C   0  0  0  0  0  0  0  0  0  0  0  0
   56.5190   22.0910   45.4430 C   0  0  0  0  0  0  0  0  0  0  0  0
   58.5683   23.4378   45.3425 H   0  0  0  0  0  0  0  0  0  0  0  0
   60.9175   24.1895   45.7038 H   0  0  0  0  0  0  0  0  0  0  0  0
   62.3720   26.2910   46.1890 H   0  0  0  0  0  0  0  0  0  0  0  0
   57.7091   30.5278   47.6241 H   0  0  0  0  0  0  0  0  0  0  0  0
   59.0095   30.4423   48.8755 H   0  0  0  0  0  0  0  0  0  0  0  0
   57.4669   32.6837   46.8153 H   0  0  0  0  0  0  0  0  0  0  0  0
   58.4484   34.8334   46.0101 H   0  0  0  0  0  0  0  0  0  0  0  0
   60.9225   35.1572   46.0078 H   0  0  0  0  0  0  0  0  0  0  0  0
   62.4249   33.3208   46.7871 H   0  0  0  0  0  0  0  0  0  0  0  0
   61.4543   31.1668   47.5942 H   0  0  0  0  0  0  0  0  0  0  0  0
   60.4638   30.0034   45.4443 H   0  0  0  0  0  0  0  0  0  0  0  0
   59.8233   28.3064   45.3566 H   0  0  0  0  0  0  0  0  0  0  0  0
   59.4601   31.4801   43.9649 H   0  0  0  0  0  0  0  0  0  0  0  0
   57.4468   32.2988   42.7354 H   0  0  0  0  0  0  0  0  0  0  0  0
   55.2596   31.1186   42.9861 H   0  0  0  0  0  0  0  0  0  0  0  0
   57.0969   28.2766   45.6806 H   0  0  0  0  0  0  0  0  0  0  0  0
   57.1140   27.0163   47.2946 H   0  0  0  0  0  0  0  0  0  0  0  0
   56.0767   24.6155   43.2663 H   0  0  0  0  0  0  0  0  0  0  0  0
   57.6417   24.0076   43.9250 H   0  0  0  0  0  0  0  0  0  0  0  0
   56.0908   22.9393   41.7466 H   0  0  0  0  0  0  0  0  0  0  0  0
   57.6327   22.3072   42.4627 H   0  0  0  0  0  0  0  0  0  0  0  0
   55.9904   20.1200   44.7157 H   0  0  0  0  0  0  0  0  0  0  0  0
   57.5764   20.7613   44.1147 H   0  0  0  0  0  0  0  0  0  0  0  0
   55.9304   21.7337   46.3008 H   0  0  0  0  0  0  0  0  0  0  0  0
   57.5549   22.2940   45.7524 H   0  0  0  0  0  0  0  0  0  0  0  0
  1  2  2  0
  2  3  2  0
  2  4  1  0
  4  5  2  0
  5  6  1  0
  6  7  2  0
  7  8  1  0
  7  9  1  0
  9 10  1  0
 10 11  2  0
 10 12  1  0
 12 13  1  0
 13 14  1  0
 14 15  2  0
 15 16  1  0
 16 17  2  0
 17 18  1  0
 18 19  2  0
 12 20  1  0
 20 21  1  0
 21 22  2  0
 22 23  1  0
 23 24  2  0
 24 25  1  0
 25 26  1  0
 25 27  2  0
  9 28  2  0
  2 29  1  0
 29 30  1  0
 30 31  1  0
 31 32  1  0
 32 33  1  0
 33 34  1  0
 28  4  1  0
 34 29  1  0
 19 14  1  0
 27 21  1  0
  5 35  1  0
  6 36  1  0
  8 37  1  0
 13 38  1  0
 13 39  1  0
 15 40  1  0
 16 41  1  0
 17 42  1  0
 18 43  1  0
 19 44  1  0
 20 45  1  0
 20 46  1  0
 22 47  1  0
 23 48  1  0
 24 49  1  0
 27 50  1  0
 28 51  1  0
 30 52  1  0
 30 53  1  0
 31 54  1  0
 31 55  1  0
 33 56  1  0
 33 57  1  0
 34 58  1  0
 34 59  1  0
M  CHG  1  26  -1
M  END
>  <UniqueID>  (42) 
40

>  <SMILES>  (42) 
O=S(=O)(c1ccc(O)c(C(=S)N(Cc2ccccc2)Cc2cccc([O-])c2)c1)N1CCOCC1

>  <Energy>  (42) 
74.55629047592757

>  <Genealogy>  (42) 
O=S(=O)(c1ccc(O)c(C(=S)N(Cc2ccccc2)Cc2cccc([O-])c2)c1)N1CCOCC1 (protonated)
O=S(=O)(c1ccc(O)c(C(=S)N(Cc2ccccc2)Cc2cccc([O-])c2)c1)N1CCOCC1 (3D coordinates assigned)
O=S(=O)(c1ccc(O)c(C(=S)N(Cc2ccccc2)Cc2cccc([O-])c2)c1)N1CCOCC1 (nonaromatic ring conformer: 74.55629047592757 kcal/mol)

>  <smiles>  (42) 
O=S(=O)(c1ccc(O)c(C(=S)N(Cc2ccccc2)Cc2cccc(O)c2)c1)N1CCOCC1

>  <score_type>  (42) 
oracle

>  <origin>  (42) 
adg

>  <m_score__min__energy>  (42) 
-13.93

>  <m_primary>  (42) 
energy

$$$$
42:0
     RDKit          3D

 64 68  0  0  0  0  0  0  0  0999 V2000
   59.3170   34.3630   44.4600 C   0  0  0  0  0  0  0  0  0  0  0  0
   58.7810   33.4910   45.5040 N   0  0  0  0  0  0  0  0  0  0  0  0
   58.0530   32.3640   45.3540 C   0  0  0  0  0  0  0  0  0  0  0  0
   57.4980   31.6960   43.7810 S   0  0  0  0  0  0  0  0  0  0  0  0
   58.0570   30.0010   44.1490 C   0  0  0  0  0  0  0  0  0  0  0  0
   56.9890   29.2970   44.9110 C   0  0  0  0  0  0  0  0  0  0  0  0
   55.8050   29.7280   44.8630 O   0  0  0  0  0  0  0  0  0  0  0  0
   57.3140   28.1500   45.7050 N   0  0  0  0  0  0  0  0  0  0  0  0
   58.2580   28.1500   46.7850 C   0  0  0  0  0  0  0  0  0  0  0  0
   59.0000   26.9960   47.0440 C   0  0  0  0  0  0  0  0  0  0  0  0
   59.8960   26.9550   48.1200 C   0  0  0  0  0  0  0  0  0  0  0  0
   60.0810   28.0780   48.9490 C   0  0  0  0  0  0  0  0  0  0  0  0
   60.9470   28.0140   50.1150 N   0  0  0  0  0  0  0  0  0  0  0  0
   61.2000   26.7090   50.7530 C   0  0  0  0  0  0  0  0  0  0  0  0
   62.0610   26.8450   52.0000 C   0  0  0  0  0  0  0  0  0  0  0  0
   63.1530   27.6870   51.7150 O   0  0  0  0  0  0  0  0  0  0  0  0
   62.6970   29.0170   51.6530 C   0  0  0  0  0  0  0  0  0  0  0  0
   61.6610   29.2410   50.5270 C   0  0  0  0  0  0  0  0  0  0  0  0
   59.3760   29.2570   48.6350 C   0  0  0  0  0  0  0  0  0  0  0  0
   58.4750   29.2910   47.5700 C   0  0  0  0  0  0  0  0  0  0  0  0
   57.7930   31.7740   46.5370 N   0  0  0  0  0  0  0  0  0  0  0  0
   58.3720   32.5280   47.4570 N   0  0  0  0  0  0  0  0  0  0  0  0
   58.9770   33.5580   46.8380 C   0  0  0  0  0  0  0  0  0  0  0  0
   59.8180   34.5830   47.5490 C   0  0  0  0  0  0  0  0  0  0  0  0
   60.7470   33.9330   48.5020 N   0  0  0  0  0  0  0  0  0  0  0  0
   62.0650   33.7870   48.1580 C   0  0  0  0  0  0  0  0  0  0  0  0
   62.4700   34.1790   47.0280 O   0  0  0  0  0  0  0  0  0  0  0  0
   62.9710   33.2090   49.0560 C   0  0  0  0  0  0  0  0  0  0  0  0
   64.3360   33.0770   48.7290 C   0  0  0  0  0  0  0  0  0  0  0  0
   65.2280   32.5120   49.6390 C   0  0  0  0  0  0  0  0  0  0  0  0
   64.7730   32.0740   50.8800 C   0  0  0  0  0  0  0  0  0  0  0  0
   63.4250   32.1950   51.2170 C   0  0  0  0  0  0  0  0  0  0  0  0
   62.4950   32.7630   50.3100 C   0  0  0  0  0  0  0  0  0  0  0  0
   61.1580   32.8880   50.6170 N   0  0  0  0  0  0  0  0  0  0  0  0
   60.6420   32.3980   51.9130 C   0  0  0  0  0  0  0  0  0  0  0  0
   60.2960   33.4690   49.7140 C   0  0  0  0  0  0  0  0  0  0  0  0
   59.0690   33.5760   50.0030 O   0  0  0  0  0  0  0  0  0  0  0  0
   59.8392   35.2126   44.9242 H   0  0  0  0  0  0  0  0  0  0  0  0
   60.0227   33.7959   43.8352 H   0  0  0  0  0  0  0  0  0  0  0  0
   58.4924   34.7366   43.8352 H   0  0  0  0  0  0  0  0  0  0  0  0
   58.2548   29.4649   43.2090 H   0  0  0  0  0  0  0  0  0  0  0  0
   58.9809   30.0339   44.7451 H   0  0  0  0  0  0  0  0  0  0  0  0
   58.8802   26.1132   46.3988 H   0  0  0  0  0  0  0  0  0  0  0  0
   60.4624   26.0335   48.3199 H   0  0  0  0  0  0  0  0  0  0  0  0
   60.2369   26.2574   51.0332 H   0  0  0  0  0  0  0  0  0  0  0  0
   61.7399   26.0763   50.0331 H   0  0  0  0  0  0  0  0  0  0  0  0
   61.4634   27.2795   52.8149 H   0  0  0  0  0  0  0  0  0  0  0  0
   62.4267   25.8544   52.3083 H   0  0  0  0  0  0  0  0  0  0  0  0
   62.2315   29.2746   52.6158 H   0  0  0  0  0  0  0  0  0  0  0  0
   63.5657   29.6563   51.4371 H   0  0  0  0  0  0  0  0  0  0  0  0
   60.9183   29.9714   50.8804 H   0  0  0  0  0  0  0  0  0  0  0  0
   62.2182   29.5958   49.6475 H   0  0  0  0  0  0  0  0  0  0  0  0
   59.5381   30.1629   49.2376 H   0  0  0  0  0  0  0  0  0  0  0  0
   57.9309   30.2201   47.3447 H   0  0  0  0  0  0  0  0  0  0  0  0
   58.3640   32.3260   48.4810 H   0  0  0  0  0  0  0  0  0  0  0  0
   60.4004   35.1489   46.8070 H   0  0  0  0  0  0  0  0  0  0  0  0
   59.1531   35.2568   48.1093 H   0  0  0  0  0  0  0  0  0  0  0  0
   64.6993   33.4220   47.7497 H   0  0  0  0  0  0  0  0  0  0  0  0
   66.2916   32.4121   49.3767 H   0  0  0  0  0  0  0  0  0  0  0  0
   65.4794   31.6309   51.5973 H   0  0  0  0  0  0  0  0  0  0  0  0
   63.0785   31.8448   52.2005 H   0  0  0  0  0  0  0  0  0  0  0  0
   61.1732   32.9025   52.7335 H   0  0  0  0  0  0  0  0  0  0  0  0
   59.5660   32.6148   51.9848 H   0  0  0  0  0  0  0  0  0  0  0  0
   60.8029   31.3122   51.9848 H   0  0  0  0  0  0  0  0  0  0  0  0
  1  2  1  0
  2  3  1  0
  3  4  1  0
  4  5  1  0
  5  6  1  0
  6  7  2  0
  6  8  1  0
  8  9  1  0
  9 10  2  0
 10 11  1  0
 11 12  2  0
 12 13  1  0
 13 14  1  0
 14 15  1  0
 15 16  1  0
 16 17  1  0
 17 18  1  0
 12 19  1  0
 19 20  2  0
  3 21  2  0
 21 22  1  0
 22 23  2  0
 23 24  1  0
 24 25  1  0
 25 26  1  0
 26 27  2  0
 26 28  1  0
 28 29  2  0
 29 30  1  0
 30 31  2  0
 31 32  1  0
 32 33  2  0
 33 34  1  0
 34 35  1  0
 34 36  1  0
 36 37  2  0
 23  2  1  0
 36 25  1  0
 20  9  1  0
 33 28  1  0
 18 13  1  0
  1 38  1  0
  1 39  1  0
  1 40  1  0
  5 41  1  0
  5 42  1  0
 10 43  1  0
 11 44  1  0
 14 45  1  0
 14 46  1  0
 15 47  1  0
 15 48  1  0
 17 49  1  0
 17 50  1  0
 18 51  1  0
 18 52  1  0
 19 53  1  0
 20 54  1  0
 22 55  1  0
 24 56  1  0
 24 57  1  0
 29 58  1  0
 30 59  1  0
 31 60  1  0
 32 61  1  0
 35 62  1  0
 35 63  1  0
 35 64  1  0
M  CHG  2   8  -1  22   1
M  END
>  <UniqueID>  (43) 
41

>  <SMILES>  (43) 
Cn1c(SCC(=O)[N-]c2ccc(N3CCOCC3)cc2)n[nH+]c1Cn1c(=O)c2ccccc2n(C)c1=O

>  <Energy>  (43) 
126.93992927646852

>  <Genealogy>  (43) 
Cn1c(SCC(=O)[N-]c2ccc(N3CCOCC3)cc2)n[nH+]c1Cn1c(=O)c2ccccc2n(C)c1=O (protonated)
Cn1c(SCC(=O)[N-]c2ccc(N3CCOCC3)cc2)n[nH+]c1Cn1c(=O)c2ccccc2n(C)c1=O (3D coordinates assigned)
Cn1c(SCC(=O)[N-]c2ccc(N3CCOCC3)cc2)n[nH+]c1Cn1c(=O)c2ccccc2n(C)c1=O (nonaromatic ring conformer: 126.93992927646852 kcal/mol)

>  <smiles>  (43) 
Cn1c(Cn2c(=O)c3ccccc3n(C)c2=O)nnc1SCC(=O)Nc1ccc(N2CCOCC2)cc1

>  <score_type>  (43) 
oracle

>  <origin>  (43) 
adg

>  <m_score__min__energy>  (43) 
-9.6600000000000001

>  <m_primary>  (43) 
energy

$$$$
43:0
     RDKit          3D

 56 59  0  0  0  0  0  0  0  0999 V2000
   60.7410   26.9240   47.3070 O   0  0  0  0  0  0  0  0  0  0  0  0
   59.7250   27.6090   46.9910 C   0  0  0  0  0  0  0  0  0  0  0  0
   58.4540   26.9150   46.6780 C   0  0  0  0  0  0  0  0  0  0  0  0
   57.4760   27.5560   45.8980 C   0  0  0  0  0  0  0  0  0  0  0  0
   56.2630   26.9200   45.6210 C   0  0  0  0  0  0  0  0  0  0  0  0
   56.0050   25.6320   46.1260 C   0  0  0  0  0  0  0  0  0  0  0  0
   54.7640   24.9510   45.8820 N   0  0  0  0  0  0  0  0  0  0  0  0
   54.5850   23.4820   44.9760 S   0  0  0  0  0  0  0  0  0  0  0  0
   53.1420   23.0640   45.0170 O   0  0  0  0  0  0  0  0  0  0  0  0
   54.9810   23.7500   43.5520 O   0  0  0  0  0  0  0  0  0  0  0  0
   55.6210   22.2010   45.6260 C   0  0  0  0  0  0  0  0  0  0  0  0
   55.8180   22.1180   47.0150 C   0  0  0  0  0  0  0  0  0  0  0  0
   56.6030   21.1010   47.5630 C   0  0  0  0  0  0  0  0  0  0  0  0
   56.8530   21.0020   49.4570 Br  0  0  0  0  0  0  0  0  0  0  0  0
   57.2090   20.1600   46.7270 C   0  0  0  0  0  0  0  0  0  0  0  0
   57.0430   20.2460   45.3450 C   0  0  0  0  0  0  0  0  0  0  0  0
   56.2610   21.2620   44.7820 C   0  0  0  0  0  0  0  0  0  0  0  0
   56.1580   21.3120   43.3910 O   0  0  0  0  0  0  0  0  0  0  0  0
   56.9760   24.9960   46.9050 C   0  0  0  0  0  0  0  0  0  0  0  0
   58.1880   25.6330   47.1860 C   0  0  0  0  0  0  0  0  0  0  0  0
   59.8390   29.0420   46.9210 N   0  0  0  0  0  0  0  0  0  0  0  0
   58.8800   29.9050   47.6140 C   0  0  0  0  0  0  0  0  0  0  0  0
   58.6910   31.2040   46.8170 C   0  0  0  0  0  0  0  0  0  0  0  0
   59.9680   31.9030   46.4890 N   0  0  0  0  0  0  0  0  0  0  0  0
   60.0390   33.2210   47.1600 C   0  0  0  0  0  0  0  0  0  0  0  0
   61.3460   33.4000   47.8880 C   0  0  0  0  0  0  0  0  0  0  0  0
   62.5200   33.6890   47.1720 C   0  0  0  0  0  0  0  0  0  0  0  0
   63.7380   33.8250   47.8440 C   0  0  0  0  0  0  0  0  0  0  0  0
   63.7960   33.6610   49.2310 C   0  0  0  0  0  0  0  0  0  0  0  0
   62.6340   33.3640   49.9480 C   0  0  0  0  0  0  0  0  0  0  0  0
   61.4120   33.2350   49.2820 C   0  0  0  0  0  0  0  0  0  0  0  0
   61.1890   31.1050   46.7650 C   0  0  0  0  0  0  0  0  0  0  0  0
   61.0330   29.6460   46.3200 C   0  0  0  0  0  0  0  0  0  0  0  0
   57.6668   28.5648   45.5031 H   0  0  0  0  0  0  0  0  0  0  0  0
   55.5063   27.4284   45.0054 H   0  0  0  0  0  0  0  0  0  0  0  0
   55.3495   22.8611   47.6770 H   0  0  0  0  0  0  0  0  0  0  0  0
   57.8170   19.3513   47.1587 H   0  0  0  0  0  0  0  0  0  0  0  0
   57.5311   19.5085   44.6909 H   0  0  0  0  0  0  0  0  0  0  0  0
   55.4450   21.8410   42.9080 H   0  0  0  0  0  0  0  0  0  0  0  0
   56.7849   23.9872   47.2996 H   0  0  0  0  0  0  0  0  0  0  0  0
   58.9392   25.1264   47.8098 H   0  0  0  0  0  0  0  0  0  0  0  0
   57.9148   29.3846   47.7012 H   0  0  0  0  0  0  0  0  0  0  0  0
   59.2603   30.1432   48.6183 H   0  0  0  0  0  0  0  0  0  0  0  0
   58.1773   30.9609   45.8752 H   0  0  0  0  0  0  0  0  0  0  0  0
   58.1073   31.8865   47.4522 H   0  0  0  0  0  0  0  0  0  0  0  0
   59.9399   34.0132   46.4033 H   0  0  0  0  0  0  0  0  0  0  0  0
   59.2233   33.2782   47.8958 H   0  0  0  0  0  0  0  0  0  0  0  0
   62.4804   33.8086   46.0792 H   0  0  0  0  0  0  0  0  0  0  0  0
   64.6526   34.0615   47.2804 H   0  0  0  0  0  0  0  0  0  0  0  0
   64.7560   33.7657   49.7578 H   0  0  0  0  0  0  0  0  0  0  0  0
   62.6811   33.2314   51.0390 H   0  0  0  0  0  0  0  0  0  0  0  0
   60.4993   33.0036   49.8507 H   0  0  0  0  0  0  0  0  0  0  0  0
   62.0359   31.5528   46.2244 H   0  0  0  0  0  0  0  0  0  0  0  0
   61.3622   31.1128   47.8512 H   0  0  0  0  0  0  0  0  0  0  0  0
   60.9420   29.6111   45.2243 H   0  0  0  0  0  0  0  0  0  0  0  0
   61.9174   29.0809   46.6494 H   0  0  0  0  0  0  0  0  0  0  0  0
  1  2  2  0
  2  3  1  0
  3  4  2  0
  4  5  1  0
  5  6  2  0
  6  7  1  0
  7  8  1  0
  8  9  2  0
  8 10  2  0
  8 11  1  0
 11 12  2  0
 12 13  1  0
 13 14  1  0
 13 15  2  0
 15 16  1  0
 16 17  2  0
 17 18  1  0
  6 19  1  0
 19 20  2  0
  2 21  1  0
 21 22  1  0
 22 23  1  0
 23 24  1  0
 24 25  1  0
 25 26  1  0
 26 27  2  0
 27 28  1  0
 28 29  2  0
 29 30  1  0
 30 31  2  0
 24 32  1  0
 32 33  1  0
 20  3  1  0
 33 21  1  0
 17 11  1  0
 31 26  1  0
  4 34  1  0
  5 35  1  0
 12 36  1  0
 15 37  1  0
 16 38  1  0
 18 39  1  0
 19 40  1  0
 20 41  1  0
 22 42  1  0
 22 43  1  0
 23 44  1  0
 23 45  1  0
 25 46  1  0
 25 47  1  0
 27 48  1  0
 28 49  1  0
 29 50  1  0
 30 51  1  0
 31 52  1  0
 32 53  1  0
 32 54  1  0
 33 55  1  0
 33 56  1  0
M  CHG  1   7  -1
M  END
>  <UniqueID>  (44) 
42

>  <SMILES>  (44) 
O=C(c1ccc([N-]S(=O)(=O)c2cc(Br)ccc2O)cc1)N1CCN(Cc2ccccc2)CC1

>  <Energy>  (44) 
77.52403281861365

>  <Genealogy>  (44) 
O=C(c1ccc([N-]S(=O)(=O)c2cc(Br)ccc2O)cc1)N1CCN(Cc2ccccc2)CC1 (protonated)
O=C(c1ccc([N-]S(=O)(=O)c2cc(Br)ccc2O)cc1)N1CCN(Cc2ccccc2)CC1 (3D coordinates assigned)
O=C(c1ccc([N-]S(=O)(=O)c2cc(Br)ccc2O)cc1)N1CCN(Cc2ccccc2)CC1 (nonaromatic ring conformer: 77.52403281861365 kcal/mol)

>  <smiles>  (44) 
O=C(c1ccc(NS(=O)(=O)c2cc(Br)ccc2O)cc1)N1CCN(Cc2ccccc2)CC1

>  <score_type>  (44) 
oracle

>  <origin>  (44) 
adg

>  <m_score__min__energy>  (44) 
-11.1

>  <m_primary>  (44) 
energy

$$$$
44:0
     RDKit          3D

 41 43  0  0  0  0  0  0  0  0999 V2000
   59.4120   30.9690   48.8500 C   0  0  0  0  0  0  0  0  0  0  0  0
   58.9170   30.1890   47.8790 C   0  0  0  0  0  0  0  0  0  0  0  0
   58.8000   28.8940   48.1310 O   0  0  0  0  0  0  0  0  0  0  0  0
   58.3110   28.0250   47.2610 C   0  0  0  0  0  0  0  0  0  0  0  0
   58.2940   26.8090   47.5880 O   0  0  0  0  0  0  0  0  0  0  0  0
   57.8600   28.4620   45.9930 C   0  0  0  0  0  0  0  0  0  0  0  0
   57.3250   27.6340   45.0560 C   0  0  0  0  0  0  0  0  0  0  0  0
   57.0380   26.1960   45.2330 C   0  0  0  0  0  0  0  0  0  0  0  0
   58.0420   25.2400   45.0040 C   0  0  0  0  0  0  0  0  0  0  0  0
   57.7940   23.8730   45.2170 C   0  0  0  0  0  0  0  0  0  0  0  0
   58.8510   22.8720   44.9550 C   0  0  0  0  0  0  0  0  0  0  0  0
   59.9340   22.9080   45.6040 O   0  0  0  0  0  0  0  0  0  0  0  0
   58.6490   21.8820   43.9860 O   0  0  0  0  0  0  0  0  0  0  0  0
   57.3880   21.6540   43.3710 C   0  0  0  0  0  0  0  0  0  0  0  0
   56.5300   23.4740   45.6870 C   0  0  0  0  0  0  0  0  0  0  0  0
   55.5380   24.4260   45.9440 C   0  0  0  0  0  0  0  0  0  0  0  0
   55.7900   25.7830   45.7270 C   0  0  0  0  0  0  0  0  0  0  0  0
   54.7930   26.7140   45.9970 O   0  0  0  0  0  0  0  0  0  0  0  0
   58.0170   29.8380   45.7120 C   0  0  0  0  0  0  0  0  0  0  0  0
   57.6670   30.2980   44.5860 O   0  0  0  0  0  0  0  0  0  0  0  0
   58.5380   30.6850   46.6540 N   0  0  0  0  0  0  0  0  0  0  0  0
   58.6770   32.0840   46.3300 C   0  0  0  0  0  0  0  0  0  0  0  0
   57.5430   32.8440   46.0060 C   0  0  0  0  0  0  0  0  0  0  0  0
   57.6730   34.2000   45.6920 C   0  0  0  0  0  0  0  0  0  0  0  0
   58.9340   34.8030   45.7020 C   0  0  0  0  0  0  0  0  0  0  0  0
   60.0670   34.0510   46.0270 C   0  0  0  0  0  0  0  0  0  0  0  0
   59.9410   32.6940   46.3410 C   0  0  0  0  0  0  0  0  0  0  0  0
   61.0460   31.9700   46.6530 F   0  0  0  0  0  0  0  0  0  0  0  0
   59.5259   32.0502   48.6826 H   0  0  0  0  0  0  0  0  0  0  0  0
   59.7043   30.5280   49.8144 H   0  0  0  0  0  0  0  0  0  0  0  0
   57.0842   28.0753   44.0776 H   0  0  0  0  0  0  0  0  0  0  0  0
   59.0330   25.5650   44.6542 H   0  0  0  0  0  0  0  0  0  0  0  0
   56.6211   21.5153   44.1473 H   0  0  0  0  0  0  0  0  0  0  0  0
   57.1237   22.5189   42.7449 H   0  0  0  0  0  0  0  0  0  0  0  0
   57.4433   20.7513   42.7449 H   0  0  0  0  0  0  0  0  0  0  0  0
   56.3203   22.4071   45.8535 H   0  0  0  0  0  0  0  0  0  0  0  0
   54.5549   24.1048   46.3187 H   0  0  0  0  0  0  0  0  0  0  0  0
   56.5495   32.3718   45.9990 H   0  0  0  0  0  0  0  0  0  0  0  0
   56.7823   34.7929   45.4369 H   0  0  0  0  0  0  0  0  0  0  0  0
   59.0350   35.8699   45.4540 H   0  0  0  0  0  0  0  0  0  0  0  0
   61.0585   34.5272   46.0357 H   0  0  0  0  0  0  0  0  0  0  0  0
  1  2  2  0
  2  3  1  0
  3  4  1  0
  4  5  2  0
  4  6  1  0
  6  7  2  3
  7  8  1  0
  8  9  2  0
  9 10  1  0
 10 11  1  0
 11 12  2  0
 11 13  1  0
 13 14  1  0
 10 15  2  0
 15 16  1  0
 16 17  2  0
 17 18  1  0
  6 19  1  0
 19 20  2  0
 19 21  1  0
 21 22  1  0
 22 23  2  0
 23 24  1  0
 24 25  2  0
 25 26  1  0
 26 27  2  0
 27 28  1  0
 21  2  1  0
 27 22  1  0
 17  8  1  0
  1 29  1  0
  1 30  1  0
  7 31  1  0
  9 32  1  0
 14 33  1  0
 14 34  1  0
 14 35  1  0
 15 36  1  0
 16 37  1  0
 23 38  1  0
 24 39  1  0
 25 40  1  0
 26 41  1  0
M  CHG  1  18  -1
M  END
>  <UniqueID>  (45) 
43

>  <SMILES>  (45) 
C=c1oc(=O)c(=Cc2cc(C(=O)OC)ccc2[O-])c(=O)n1-c1ccccc1F

>  <Energy>  (45) 
71.2153074725279

>  <Genealogy>  (45) 
C=c1oc(=O)c(=Cc2cc(C(=O)OC)ccc2[O-])c(=O)n1-c1ccccc1F (protonated)
C=c1oc(=O)c(=Cc2cc(C(=O)OC)ccc2[O-])c(=O)n1-c1ccccc1F (3D coordinates assigned)
C=c1oc(=O)c(=Cc2cc(C(=O)OC)ccc2[O-])c(=O)n1-c1ccccc1F (optimized conformer: 71.2153074725279 kcal/mol)

>  <smiles>  (45) 
C=c1oc(=O)c(=Cc2cc(C(=O)OC)ccc2O)c(=O)n1-c1ccccc1F

>  <score_type>  (45) 
oracle

>  <origin>  (45) 
adg

>  <m_score__min__energy>  (45) 
-11.359999999999999

>  <m_primary>  (45) 
energy

$$$$
45:0
     RDKit          3D

 63 67  0  0  0  0  0  0  0  0999 V2000
   59.6200   20.8160   45.1870 H   0  0  0  0  0  0  0  0  0  0  0  0
   59.5510   21.7430   45.5880 O   0  0  0  0  0  0  0  0  0  0  0  0
   58.3810   22.4910   45.4930 C   0  0  0  0  0  0  0  0  0  0  0  0
   57.4950   22.5300   46.5750 C   0  0  0  0  0  0  0  0  0  0  0  0
   57.7246   21.9674   47.4919 H   0  0  0  0  0  0  0  0  0  0  0  0
   56.3180   23.2820   46.4950 C   0  0  0  0  0  0  0  0  0  0  0  0
   55.6287   23.3135   47.3517 H   0  0  0  0  0  0  0  0  0  0  0  0
   56.0130   23.9970   45.3250 C   0  0  0  0  0  0  0  0  0  0  0  0
   54.7640   24.8350   45.2610 C   0  0  0  0  0  0  0  0  0  0  0  0
   53.9280   24.2739   45.7042 H   0  0  0  0  0  0  0  0  0  0  0  0
   54.5458   25.0703   44.2088 H   0  0  0  0  0  0  0  0  0  0  0  0
   54.9500   26.0850   45.9980 N   0  0  0  0  0  0  0  0  0  0  0  0
   55.9950   26.8510   45.9070 C   0  0  0  0  0  0  0  0  0  0  0  0
   57.2000   26.3890   46.3270 N   0  0  0  0  0  0  0  0  0  0  0  0
   58.3060   27.1700   46.2350 C   0  0  0  0  0  0  0  0  0  0  0  0
   59.4500   26.7060   46.6370 N   0  0  0  0  0  0  0  0  0  0  0  0
   59.7330   26.3190   48.0160 C   0  0  0  0  0  0  0  0  0  0  0  0
   60.5962   25.6375   48.0366 H   0  0  0  0  0  0  0  0  0  0  0  0
   58.8564   25.8100   48.4432 H   0  0  0  0  0  0  0  0  0  0  0  0
   60.0440   27.5470   48.8220 C   0  0  0  0  0  0  0  0  0  0  0  0
   60.9980   27.4930   49.8490 C   0  0  0  0  0  0  0  0  0  0  0  0
   61.5369   26.5546   50.0466 H   0  0  0  0  0  0  0  0  0  0  0  0
   61.2670   28.6250   50.6220 C   0  0  0  0  0  0  0  0  0  0  0  0
   62.0266   28.5802   51.4164 H   0  0  0  0  0  0  0  0  0  0  0  0
   60.5720   29.8140   50.3870 C   0  0  0  0  0  0  0  0  0  0  0  0
   60.7945   30.7071   50.9894 H   0  0  0  0  0  0  0  0  0  0  0  0
   59.5890   29.8730   49.3830 C   0  0  0  0  0  0  0  0  0  0  0  0
   58.8700   31.0840   49.1070 N   0  0  0  0  0  0  0  0  0  0  0  0
   58.6570   32.1660   50.0240 C   0  0  0  0  0  0  0  0  0  0  0  0
   59.1260   33.3000   49.7410 O   0  0  0  0  0  0  0  0  0  0  0  0
   57.8740   32.0140   51.2660 C   0  0  0  0  0  0  0  0  0  0  0  0
   57.6817   32.9072   51.8786 H   0  0  0  0  0  0  0  0  0  0  0  0
   57.3900   30.8440   51.6780 C   0  0  0  0  0  0  0  0  0  0  0  0
   56.8123   30.7861   52.6123 H   0  0  0  0  0  0  0  0  0  0  0  0
   57.5679   29.9354   51.0841 H   0  0  0  0  0  0  0  0  0  0  0  0
   59.3390   28.7410   48.5980 C   0  0  0  0  0  0  0  0  0  0  0  0
   58.5842   28.7871   47.7992 H   0  0  0  0  0  0  0  0  0  0  0  0
   58.2020   28.4240   45.7190 N   0  0  0  0  0  0  0  0  0  0  0  0
   56.9980   28.8970   45.3000 C   0  0  0  0  0  0  0  0  0  0  0  0
   56.8830   30.0970   44.8140 N   0  0  0  0  0  0  0  0  0  0  0  0
   58.0090   30.9610   44.4510 C   0  0  0  0  0  0  0  0  0  0  0  0
   58.3990   30.5975   43.4888 H   0  0  0  0  0  0  0  0  0  0  0  0
   57.5380   32.4300   44.3450 C   0  0  0  0  0  0  0  0  0  0  0  0
   57.6356   32.7979   43.3129 H   0  0  0  0  0  0  0  0  0  0  0  0
   56.4788   32.5542   44.6144 H   0  0  0  0  0  0  0  0  0  0  0  0
   58.4460   33.1670   45.2540 C   0  0  0  0  0  0  0  0  0  0  0  0
   58.4480   34.5430   45.4950 C   0  0  0  0  0  0  0  0  0  0  0  0
   57.7425   35.2047   44.9711 H   0  0  0  0  0  0  0  0  0  0  0  0
   59.3670   35.0650   46.4180 C   0  0  0  0  0  0  0  0  0  0  0  0
   59.3873   36.1459   46.6210 H   0  0  0  0  0  0  0  0  0  0  0  0
   60.2620   34.2090   47.0840 C   0  0  0  0  0  0  0  0  0  0  0  0
   60.9827   34.6222   47.8050 H   0  0  0  0  0  0  0  0  0  0  0  0
   60.2380   32.8290   46.8310 C   0  0  0  0  0  0  0  0  0  0  0  0
   60.9312   32.1516   47.3512 H   0  0  0  0  0  0  0  0  0  0  0  0
   59.3170   32.3320   45.9060 C   0  0  0  0  0  0  0  0  0  0  0  0
   59.1230   30.9140   45.5260 C   0  0  0  0  0  0  0  0  0  0  0  0
   60.0493   30.4907   45.1104 H   0  0  0  0  0  0  0  0  0  0  0  0
   58.8559   30.2794   46.3839 H   0  0  0  0  0  0  0  0  0  0  0  0
   55.9000   28.1080   45.3960 N   0  0  0  0  0  0  0  0  0  0  0  0
   56.9050   23.9560   44.2410 C   0  0  0  0  0  0  0  0  0  0  0  0
   56.6759   24.5158   43.3222 H   0  0  0  0  0  0  0  0  0  0  0  0
   58.0830   23.2070   44.3240 C   0  0  0  0  0  0  0  0  0  0  0  0
   58.7772   23.1792   43.4712 H   0  0  0  0  0  0  0  0  0  0  0  0
  1  2  1  0
  2  3  1  0
  3  4  2  0
  4  5  1  0
  4  6  1  0
  6  7  1  0
  6  8  2  0
  8  9  1  0
  9 10  1  0
  9 11  1  0
  9 12  1  0
 12 13  2  0
 13 14  1  0
 14 15  1  0
 15 16  2  3
 16 17  1  0
 17 18  1  0
 17 19  1  0
 17 20  1  0
 20 21  2  0
 21 22  1  0
 21 23  1  0
 23 24  1  0
 23 25  2  0
 25 26  1  0
 25 27  1  0
 27 28  1  0
 28 29  1  0
 29 30  2  0
 29 31  1  0
 31 32  1  0
 31 33  2  0
 33 34  1  0
 33 35  1  0
 27 36  2  0
 36 37  1  0
 15 38  1  0
 38 39  1  0
 39 40  2  3
 40 41  1  0
 41 42  1  0
 41 43  1  0
 43 44  1  0
 43 45  1  0
 43 46  1  0
 46 47  2  0
 47 48  1  0
 47 49  1  0
 49 50  1  0
 49 51  2  0
 51 52  1  0
 51 53  1  0
 53 54  1  0
 53 55  2  0
 55 56  1  0
 56 57  1  0
 56 58  1  0
 39 59  1  0
  8 60  1  0
 60 61  1  0
 60 62  2  0
 62 63  1  0
 62  3  1  0
 59 13  1  0
 36 20  1  0
 56 41  1  0
 55 46  1  0
M  CHG  4  14  -1  28  -1  38  -1  59  -1
M  END
>  <UniqueID>  (46) 
44

>  <SMILES>  (46) 
C=CC(=O)[N-]c1cccc(CN=c2[n-]c(=NC3Cc4ccccc4C3)[n-]/c(=N\Cc3ccc(O)cc3)[n-]2)c1

>  <Energy>  (46) 
78.91805607778159

>  <Genealogy>  (46) 
C=CC(=O)[N-]c1cccc(CN=c2[n-]c(=NCc3ccc(O)cc3)[n-]c(=NC3Cc4ccccc4C3)[n-]2)c1 (protonated)
C=CC(=O)[N-]c1cccc(CN=c2[n-]c(=NC3Cc4ccccc4C3)[n-]/c(=N\Cc3ccc(O)cc3)[n-]2)c1 (cis-trans isomerization)
C=CC(=O)[N-]c1cccc(CN=c2[n-]c(=NC3Cc4ccccc4C3)[n-]/c(=N\Cc3ccc(O)cc3)[n-]2)c1 (3D coordinates assigned)
C=CC(=O)[N-]c1cccc(CN=c2[n-]c(=NC3Cc4ccccc4C3)[n-]/c(=N\Cc3ccc(O)cc3)[n-]2)c1 (nonaromatic ring conformer: 78.91805607778159 kcal/mol)

>  <smiles>  (46) 
C=CC(=O)Nc1cccc(CN=c2[nH]c(=NCc3ccc(O)cc3)[nH]c(=NC3Cc4ccccc4C3)[nH]2)c1

>  <score_type>  (46) 
oracle

>  <origin>  (46) 
adg

>  <m_score__min__energy>  (46) 
-16.030000000000001

>  <m_primary>  (46) 
energy

$$$$
46:0
     RDKit          3D

 56 59  0  0  0  0  0  0  0  0999 V2000
   50.6960   23.4830   46.1820 N   0  0  0  0  0  0  0  0  0  0  0  0
   51.9260   22.8380   45.8610 C   0  0  0  0  0  0  0  0  0  0  0  0
   52.4980   23.0810   44.7650 O   0  0  0  0  0  0  0  0  0  0  0  0
   52.5480   21.8890   46.8350 C   0  0  0  0  0  0  0  0  0  0  0  0
   53.9210   22.3570   47.1990 C   0  0  0  0  0  0  0  0  0  0  0  0
   54.4400   23.5210   46.7540 N   0  0  0  0  0  0  0  0  0  0  0  0
   55.6750   23.5480   47.2830 C   0  0  0  0  0  0  0  0  0  0  0  0
   56.6170   24.6620   47.0720 C   0  0  0  0  0  0  0  0  0  0  0  0
   57.8290   24.4970   47.3670 O   0  0  0  0  0  0  0  0  0  0  0  0
   56.2000   25.9310   46.5530 N   0  0  0  0  0  0  0  0  0  0  0  0
   56.8070   26.6470   45.4670 C   0  0  0  0  0  0  0  0  0  0  0  0
   57.5690   25.9920   44.4830 C   0  0  0  0  0  0  0  0  0  0  0  0
   58.1580   26.7250   43.4520 C   0  0  0  0  0  0  0  0  0  0  0  0
   58.0110   28.1130   43.4010 C   0  0  0  0  0  0  0  0  0  0  0  0
   57.2750   28.7890   44.3920 C   0  0  0  0  0  0  0  0  0  0  0  0
   57.1350   30.2640   44.3500 C   0  0  0  0  0  0  0  0  0  0  0  0
   56.9150   30.8430   43.2500 O   0  0  0  0  0  0  0  0  0  0  0  0
   57.1970   31.0280   45.5600 N   0  0  0  0  0  0  0  0  0  0  0  0
   57.8940   32.2690   45.7360 C   0  0  0  0  0  0  0  0  0  0  0  0
   57.7640   33.2630   44.7580 C   0  0  0  0  0  0  0  0  0  0  0  0
   58.4340   34.4810   44.8960 C   0  0  0  0  0  0  0  0  0  0  0  0
   59.2310   34.7220   46.0180 C   0  0  0  0  0  0  0  0  0  0  0  0
   59.3440   33.7480   47.0170 C   0  0  0  0  0  0  0  0  0  0  0  0
   60.1720   34.0000   48.2040 C   0  0  0  0  0  0  0  0  0  0  0  0
   59.6600   34.6340   49.1690 O   0  0  0  0  0  0  0  0  0  0  0  0
   61.5360   33.5280   48.2850 N   0  0  0  0  0  0  0  0  0  0  0  0
   61.9950   32.4530   47.3940 C   0  0  0  0  0  0  0  0  0  0  0  0
   63.5240   32.4360   47.3120 C   0  0  0  0  0  0  0  0  0  0  0  0
   64.0960   32.4290   48.6030 O   0  0  0  0  0  0  0  0  0  0  0  0
   63.8040   33.6500   49.2510 C   0  0  0  0  0  0  0  0  0  0  0  0
   62.3020   33.7790   49.5140 C   0  0  0  0  0  0  0  0  0  0  0  0
   58.6660   32.5280   46.8820 C   0  0  0  0  0  0  0  0  0  0  0  0
   56.6820   28.0410   45.4250 C   0  0  0  0  0  0  0  0  0  0  0  0
   55.8720   22.3890   48.0080 C   0  0  0  0  0  0  0  0  0  0  0  0
   57.0370   21.9910   48.6600 O   0  0  0  0  0  0  0  0  0  0  0  0
   54.7650   21.6300   47.9650 N   0  0  0  0  0  0  0  0  0  0  0  0
   50.1610   24.0040   45.4540 H   0  0  0  0  0  0  0  0  0  0  0  0
   51.9277   21.8392   47.7420 H   0  0  0  0  0  0  0  0  0  0  0  0
   52.6163   20.8922   46.3748 H   0  0  0  0  0  0  0  0  0  0  0  0
   57.7008   24.9008   44.5262 H   0  0  0  0  0  0  0  0  0  0  0  0
   58.7408   26.2073   42.6759 H   0  0  0  0  0  0  0  0  0  0  0  0
   58.4736   28.6816   42.5808 H   0  0  0  0  0  0  0  0  0  0  0  0
   57.1309   33.0837   43.8765 H   0  0  0  0  0  0  0  0  0  0  0  0
   58.3338   35.2529   44.1188 H   0  0  0  0  0  0  0  0  0  0  0  0
   59.7692   35.6763   46.1162 H   0  0  0  0  0  0  0  0  0  0  0  0
   61.6432   31.4862   47.7832 H   0  0  0  0  0  0  0  0  0  0  0  0
   61.5881   32.6292   46.3873 H   0  0  0  0  0  0  0  0  0  0  0  0
   63.8460   31.5345   46.7702 H   0  0  0  0  0  0  0  0  0  0  0  0
   63.8585   33.3408   46.7834 H   0  0  0  0  0  0  0  0  0  0  0  0
   64.3426   33.6877   50.2094 H   0  0  0  0  0  0  0  0  0  0  0  0
   64.1210   34.4790   48.6012 H   0  0  0  0  0  0  0  0  0  0  0  0
   62.0054   33.0475   50.2801 H   0  0  0  0  0  0  0  0  0  0  0  0
   62.0901   34.8014   49.8602 H   0  0  0  0  0  0  0  0  0  0  0  0
   58.7385   31.7704   47.6762 H   0  0  0  0  0  0  0  0  0  0  0  0
   56.1121   28.5583   46.2109 H   0  0  0  0  0  0  0  0  0  0  0  0
   57.8940   22.5220   48.5920 H   0  0  0  0  0  0  0  0  0  0  0  0
  1  2  1  0
  2  3  2  0
  2  4  1  0
  4  5  1  0
  5  6  2  0
  6  7  1  0
  7  8  1  0
  8  9  2  0
  8 10  1  0
 10 11  1  0
 11 12  2  0
 12 13  1  0
 13 14  2  0
 14 15  1  0
 15 16  1  0
 16 17  2  0
 16 18  1  0
 18 19  1  0
 19 20  2  0
 20 21  1  0
 21 22  2  0
 22 23  1  0
 23 24  1  0
 24 25  2  0
 24 26  1  0
 26 27  1  0
 27 28  1  0
 28 29  1  0
 29 30  1  0
 30 31  1  0
 23 32  2  0
 15 33  2  0
  7 34  2  0
 34 35  1  0
 34 36  1  0
 36  5  1  0
 33 11  1  0
 32 19  1  0
 31 26  1  0
  1 37  1  0
  4 38  1  0
  4 39  1  0
 12 40  1  0
 13 41  1  0
 14 42  1  0
 20 43  1  0
 21 44  1  0
 22 45  1  0
 27 46  1  0
 27 47  1  0
 28 48  1  0
 28 49  1  0
 30 50  1  0
 30 51  1  0
 31 52  1  0
 31 53  1  0
 32 54  1  0
 33 55  1  0
 35 56  1  0
M  CHG  4   1  -1  10  -1  18  -1  36  -1
M  END
>  <UniqueID>  (47) 
45

>  <SMILES>  (47) 
[NH-]C(=O)Cc1nc(C(=O)[N-]c2cccc(C(=O)[N-]c3cccc(C(=O)N4CCOCC4)c3)c2)c(O)[n-]1

>  <Energy>  (47) 
104.91333701404734

>  <Genealogy>  (47) 
[NH-]C(=O)Cc1nc(C(=O)[N-]c2cccc(C(=O)[N-]c3cccc(C(=O)N4CCOCC4)c3)c2)c(O)[n-]1 (protonated)
[NH-]C(=O)Cc1nc(C(=O)[N-]c2cccc(C(=O)[N-]c3cccc(C(=O)N4CCOCC4)c3)c2)c(O)[n-]1 (3D coordinates assigned)
[NH-]C(=O)Cc1nc(C(=O)[N-]c2cccc(C(=O)[N-]c3cccc(C(=O)N4CCOCC4)c3)c2)c(O)[n-]1 (nonaromatic ring conformer: 104.91333701404734 kcal/mol)

>  <smiles>  (47) 
NC(=O)Cc1nc(C(=O)Nc2cccc(C(=O)Nc3cccc(C(=O)N4CCOCC4)c3)c2)c(O)[nH]1

>  <score_type>  (47) 
oracle

>  <origin>  (47) 
adg

>  <m_score__min__energy>  (47) 
-16.100000000000001

>  <m_primary>  (47) 
energy

$$$$
47:0
     RDKit          3D

 47 49  0  0  0  0  0  0  0  0999 V2000
   58.4850   22.8940   44.8330 C   0  0  0  0  0  0  0  0  0  0  0  0
   58.1700   24.2800   45.2850 C   0  0  0  0  0  0  0  0  0  0  0  0
   59.0280   25.1310   45.9740 C   0  0  0  0  0  0  0  0  0  0  0  0
   58.5250   26.3740   46.2000 N   0  0  0  0  0  0  0  0  0  0  0  0
   57.2800   26.5290   45.6970 C   0  0  0  0  0  0  0  0  0  0  0  0
   56.6420   27.6630   45.7650 N   0  0  0  0  0  0  0  0  0  0  0  0
   57.0420   28.9250   45.2120 C   0  0  0  0  0  0  0  0  0  0  0  0
   56.1460   29.7480   44.8810 O   0  0  0  0  0  0  0  0  0  0  0  0
   58.4730   29.1970   44.8180 C   0  0  0  0  0  0  0  0  0  0  0  0
   59.3800   29.0960   45.9600 N   0  0  0  0  0  0  0  0  0  0  0  0
   59.0840   29.4250   47.3260 C   0  0  0  0  0  0  0  0  0  0  0  0
   58.5150   28.5580   48.0400 O   0  0  0  0  0  0  0  0  0  0  0  0
   59.4840   30.7390   47.9540 C   0  0  0  0  0  0  0  0  0  0  0  0
   60.1950   31.7420   47.0100 C   0  0  0  0  0  0  0  0  0  0  0  0
   61.3650   32.4640   47.6710 C   0  0  0  0  0  0  0  0  0  0  0  0
   61.0910   33.4280   48.6610 C   0  0  0  0  0  0  0  0  0  0  0  0
   62.1270   34.1400   49.2710 C   0  0  0  0  0  0  0  0  0  0  0  0
   63.4510   33.9070   48.8970 C   0  0  0  0  0  0  0  0  0  0  0  0
   63.7400   32.9660   47.9090 C   0  0  0  0  0  0  0  0  0  0  0  0
   62.7080   32.2500   47.2940 C   0  0  0  0  0  0  0  0  0  0  0  0
   59.2370   32.6480   46.2380 C   0  0  0  0  0  0  0  0  0  0  0  0
   57.8790   32.2850   46.1290 C   0  0  0  0  0  0  0  0  0  0  0  0
   56.9730   33.1110   45.4560 C   0  0  0  0  0  0  0  0  0  0  0  0
   57.4070   34.3040   44.8790 C   0  0  0  0  0  0  0  0  0  0  0  0
   58.7520   34.6680   44.9610 C   0  0  0  0  0  0  0  0  0  0  0  0
   59.6630   33.8460   45.6300 C   0  0  0  0  0  0  0  0  0  0  0  0
   56.7610   25.1230   44.9190 S   0  0  0  0  0  0  0  0  0  0  0  0
   58.6321   22.2468   45.7102 H   0  0  0  0  0  0  0  0  0  0  0  0
   57.6518   22.5075   44.2277 H   0  0  0  0  0  0  0  0  0  0  0  0
   59.4034   22.9056   44.2277 H   0  0  0  0  0  0  0  0  0  0  0  0
   60.0300   24.8240   46.3082 H   0  0  0  0  0  0  0  0  0  0  0  0
   59.0520   27.1250   46.6980 H   0  0  0  0  0  0  0  0  0  0  0  0
   58.7776   28.4647   44.0558 H   0  0  0  0  0  0  0  0  0  0  0  0
   58.5302   30.2233   44.4262 H   0  0  0  0  0  0  0  0  0  0  0  0
   58.5733   31.2222   48.3376 H   0  0  0  0  0  0  0  0  0  0  0  0
   60.2168   30.4890   48.7354 H   0  0  0  0  0  0  0  0  0  0  0  0
   60.6611   31.1290   46.2246 H   0  0  0  0  0  0  0  0  0  0  0  0
   60.0496   33.6224   48.9572 H   0  0  0  0  0  0  0  0  0  0  0  0
   61.8986   34.8853   50.0472 H   0  0  0  0  0  0  0  0  0  0  0  0
   64.2661   34.4650   49.3810 H   0  0  0  0  0  0  0  0  0  0  0  0
   64.7839   32.7863   47.6123 H   0  0  0  0  0  0  0  0  0  0  0  0
   62.9448   31.5148   46.5108 H   0  0  0  0  0  0  0  0  0  0  0  0
   57.5289   31.3435   46.5774 H   0  0  0  0  0  0  0  0  0  0  0  0
   55.9151   32.8188   45.3816 H   0  0  0  0  0  0  0  0  0  0  0  0
   56.6903   34.9574   44.3599 H   0  0  0  0  0  0  0  0  0  0  0  0
   59.0959   35.6045   44.4977 H   0  0  0  0  0  0  0  0  0  0  0  0
   60.7226   34.1368   45.6825 H   0  0  0  0  0  0  0  0  0  0  0  0
  1  2  1  0
  2  3  2  0
  3  4  1  0
  4  5  1  0
  5  6  2  3
  6  7  1  0
  7  8  2  0
  7  9  1  0
  9 10  1  0
 10 11  1  0
 11 12  2  0
 11 13  1  0
 13 14  1  0
 14 15  1  0
 15 16  2  0
 16 17  1  0
 17 18  2  0
 18 19  1  0
 19 20  2  0
 14 21  1  0
 21 22  2  0
 22 23  1  0
 23 24  2  0
 24 25  1  0
 25 26  2  0
  5 27  1  0
 27  2  1  0
 20 15  1  0
 26 21  1  0
  1 28  1  0
  1 29  1  0
  1 30  1  0
  3 31  1  0
  4 32  1  0
  9 33  1  0
  9 34  1  0
 13 35  1  0
 13 36  1  0
 14 37  1  0
 16 38  1  0
 17 39  1  0
 18 40  1  0
 19 41  1  0
 20 42  1  0
 22 43  1  0
 23 44  1  0
 24 45  1  0
 25 46  1  0
 26 47  1  0
M  CHG  1  10  -1
M  END
>  <UniqueID>  (48) 
46

>  <SMILES>  (48) 
Cc1c[nH]c(=NC(=O)C[N-]C(=O)CC(c2ccccc2)c2ccccc2)s1

>  <Energy>  (48) 
87.8529563239598

>  <Genealogy>  (48) 
Cc1c[nH]c(=NC(=O)C[N-]C(=O)CC(c2ccccc2)c2ccccc2)s1 (protonated)
Cc1c[nH]c(=NC(=O)C[N-]C(=O)CC(c2ccccc2)c2ccccc2)s1 (3D coordinates assigned)
Cc1c[nH]c(=NC(=O)C[N-]C(=O)CC(c2ccccc2)c2ccccc2)s1 (optimized conformer: 87.8529563239598 kcal/mol)

>  <smiles>  (48) 
Cc1c[nH]c(=NC(=O)CNC(=O)CC(c2ccccc2)c2ccccc2)s1

>  <score_type>  (48) 
oracle

>  <origin>  (48) 
adg

>  <m_score__min__energy>  (48) 
-11.41

>  <m_primary>  (48) 
energy

$$$$
48:0
     RDKit          3D

 49 52  0  0  0  0  0  0  0  0999 V2000
   59.5490   28.1970   45.5040 O   0  0  0  0  0  0  0  0  0  0  0  0
   58.6510   28.2180   46.3890 C   0  0  0  0  0  0  0  0  0  0  0  0
   58.6660   29.2110   47.4230 N   0  0  0  0  0  0  0  0  0  0  0  0
   59.2470   29.0750   48.7280 C   0  0  0  0  0  0  0  0  0  0  0  0
   60.4200   28.3330   48.9470 C   0  0  0  0  0  0  0  0  0  0  0  0
   60.9390   28.2060   50.2370 C   0  0  0  0  0  0  0  0  0  0  0  0
   60.2930   28.8110   51.3180 C   0  0  0  0  0  0  0  0  0  0  0  0
   59.1150   29.5490   51.1180 C   0  0  0  0  0  0  0  0  0  0  0  0
   58.4400   30.1640   52.2330 N   0  0  0  0  0  0  0  0  0  0  0  0
   58.5700   29.6240   53.5890 C   0  0  0  0  0  0  0  0  0  0  0  0
   57.1810   29.3730   54.2060 C   0  0  0  0  0  0  0  0  0  0  0  0
   56.1150   30.2680   53.6820 N   0  0  0  0  0  0  0  0  0  0  0  0
   55.2700   29.6040   52.6650 C   0  0  0  0  0  0  0  0  0  0  0  0
   54.0390   30.4260   52.3880 C   0  0  0  0  0  0  0  0  0  0  0  0
   53.7870   30.9230   51.0970 C   0  0  0  0  0  0  0  0  0  0  0  0
   52.6420   31.6860   50.8490 C   0  0  0  0  0  0  0  0  0  0  0  0
   51.7400   31.9560   51.8840 C   0  0  0  0  0  0  0  0  0  0  0  0
   50.5990   32.7090   51.6350 O   0  0  0  0  0  0  0  0  0  0  0  0
   51.9880   31.4670   53.1710 C   0  0  0  0  0  0  0  0  0  0  0  0
   53.1340   30.7100   53.4250 C   0  0  0  0  0  0  0  0  0  0  0  0
   56.6460   31.5610   53.1990 C   0  0  0  0  0  0  0  0  0  0  0  0
   57.6300   31.3680   52.0330 C   0  0  0  0  0  0  0  0  0  0  0  0
   58.5890   29.6580   49.8190 C   0  0  0  0  0  0  0  0  0  0  0  0
   57.5450   27.2550   46.3300 C   0  0  0  0  0  0  0  0  0  0  0  0
   57.6270   25.9150   46.6700 C   0  0  0  0  0  0  0  0  0  0  0  0
   56.3740   25.3880   46.4560 C   0  0  0  0  0  0  0  0  0  0  0  0
   55.6030   26.4340   46.0000 C   0  0  0  0  0  0  0  0  0  0  0  0
   54.2610   26.3360   45.6580 O   0  0  0  0  0  0  0  0  0  0  0  0
   56.3010   27.5810   45.9190 N   0  0  0  0  0  0  0  0  0  0  0  0
   60.9306   27.8511   48.1002 H   0  0  0  0  0  0  0  0  0  0  0  0
   61.8598   27.6275   50.4028 H   0  0  0  0  0  0  0  0  0  0  0  0
   60.7092   28.7088   52.3311 H   0  0  0  0  0  0  0  0  0  0  0  0
   59.1250   28.6751   53.5490 H   0  0  0  0  0  0  0  0  0  0  0  0
   59.1091   30.3531   54.2118 H   0  0  0  0  0  0  0  0  0  0  0  0
   56.8926   28.3323   53.9967 H   0  0  0  0  0  0  0  0  0  0  0  0
   57.2692   29.5800   55.2827 H   0  0  0  0  0  0  0  0  0  0  0  0
   55.8456   29.4884   51.7348 H   0  0  0  0  0  0  0  0  0  0  0  0
   54.9631   28.6181   53.0443 H   0  0  0  0  0  0  0  0  0  0  0  0
   54.4925   30.7109   50.2801 H   0  0  0  0  0  0  0  0  0  0  0  0
   52.4499   32.0748   49.8381 H   0  0  0  0  0  0  0  0  0  0  0  0
   51.2789   31.6791   53.9848 H   0  0  0  0  0  0  0  0  0  0  0  0
   53.3289   30.3347   54.4405 H   0  0  0  0  0  0  0  0  0  0  0  0
   55.8076   32.1867   52.8589 H   0  0  0  0  0  0  0  0  0  0  0  0
   57.1847   32.0433   54.0280 H   0  0  0  0  0  0  0  0  0  0  0  0
   57.0637   31.2705   51.0950 H   0  0  0  0  0  0  0  0  0  0  0  0
   58.2985   32.2403   51.9863 H   0  0  0  0  0  0  0  0  0  0  0  0
   57.6499   30.2074   49.6571 H   0  0  0  0  0  0  0  0  0  0  0  0
   58.5150   25.3797   47.0372 H   0  0  0  0  0  0  0  0  0  0  0  0
   56.0546   24.3476   46.6159 H   0  0  0  0  0  0  0  0  0  0  0  0
  1  2  2  0
  2  3  1  0
  3  4  1  0
  4  5  2  0
  5  6  1  0
  6  7  2  0
  7  8  1  0
  8  9  1  0
  9 10  1  0
 10 11  1  0
 11 12  1  0
 12 13  1  0
 13 14  1  0
 14 15  2  0
 15 16  1  0
 16 17  2  0
 17 18  1  0
 17 19  1  0
 19 20  2  0
 12 21  1  0
 21 22  1  0
  8 23  2  0
  2 24  1  0
 24 25  2  0
 25 26  1  0
 26 27  2  0
 27 28  1  0
 27 29  1  0
 23  4  1  0
 29 24  1  0
 22  9  1  0
 20 14  1  0
  5 30  1  0
  6 31  1  0
  7 32  1  0
 10 33  1  0
 10 34  1  0
 11 35  1  0
 11 36  1  0
 13 37  1  0
 13 38  1  0
 15 39  1  0
 16 40  1  0
 19 41  1  0
 20 42  1  0
 21 43  1  0
 21 44  1  0
 22 45  1  0
 22 46  1  0
 23 47  1  0
 25 48  1  0
 26 49  1  0
M  CHG  4   3  -1  18  -1  28  -1  29  -1
M  END
>  <UniqueID>  (49) 
47

>  <SMILES>  (49) 
O=C([N-]c1cccc(N2CCN(Cc3ccc([O-])cc3)CC2)c1)c1ccc([O-])[n-]1

>  <Energy>  (49) 
92.01682866828757

>  <Genealogy>  (49) 
O=C([N-]c1cccc(N2CCN(Cc3ccc([O-])cc3)CC2)c1)c1ccc([O-])[n-]1 (protonated)
O=C([N-]c1cccc(N2CCN(Cc3ccc([O-])cc3)CC2)c1)c1ccc([O-])[n-]1 (3D coordinates assigned)
O=C([N-]c1cccc(N2CCN(Cc3ccc([O-])cc3)CC2)c1)c1ccc([O-])[n-]1 (nonaromatic ring conformer: 92.01682866828757 kcal/mol)

>  <smiles>  (49) 
O=C(Nc1cccc(N2CCN(Cc3ccc(O)cc3)CC2)c1)c1ccc(O)[nH]1

>  <score_type>  (49) 
oracle

>  <origin>  (49) 
adg

>  <m_score__min__energy>  (49) 
-18.640000000000001

>  <m_primary>  (49) 
energy

$$$$
49:0
     RDKit          3D

 80 81  0  0  0  0  0  0  0  0999 V2000
   57.3750   29.3100   51.8760 H   0  0  0  0  0  0  0  0  0  0  0  0
   57.3790   30.0890   51.2280 O   0  0  0  0  0  0  0  0  0  0  0  0
   58.3900   31.0470   51.2460 C   0  0  0  0  0  0  0  0  0  0  0  0
   58.3380   32.1410   50.3720 C   0  0  0  0  0  0  0  0  0  0  0  0
   57.4952   32.2403   49.6721 H   0  0  0  0  0  0  0  0  0  0  0  0
   59.3530   33.1120   50.3820 C   0  0  0  0  0  0  0  0  0  0  0  0
   59.3220   34.2350   49.4880 N   0  0  0  0  0  0  0  0  0  0  0  0
   60.3240   34.5240   48.5060 C   0  0  0  0  0  0  0  0  0  0  0  0
   61.5240   34.6360   48.8710 O   0  0  0  0  0  0  0  0  0  0  0  0
   59.9680   34.6250   47.1530 O   0  0  0  0  0  0  0  0  0  0  0  0
   58.8610   34.0160   46.5520 C   0  0  0  0  0  0  0  0  0  0  0  0
   58.2360   33.0790   47.1180 O   0  0  0  0  0  0  0  0  0  0  0  0
   58.4480   34.4640   45.1810 C   0  0  0  0  0  0  0  0  0  0  0  0
   59.3461   34.5431   44.5508 H   0  0  0  0  0  0  0  0  0  0  0  0
   57.9396   35.4337   45.2867 H   0  0  0  0  0  0  0  0  0  0  0  0
   57.4620   33.4920   44.5130 C   0  0  0  0  0  0  0  0  0  0  0  0
   56.7062   34.0754   43.9667 H   0  0  0  0  0  0  0  0  0  0  0  0
   57.0045   32.8812   45.3052 H   0  0  0  0  0  0  0  0  0  0  0  0
   58.1450   32.5540   43.5440 C   0  0  0  0  0  0  0  0  0  0  0  0
   59.2424   32.4913   43.5863 H   0  0  0  0  0  0  0  0  0  0  0  0
   57.5150   31.7910   42.6350 C   0  0  0  0  0  0  0  0  0  0  0  0
   57.4939   32.1428   41.5930 H   0  0  0  0  0  0  0  0  0  0  0  0
   56.8490   30.5100   42.9460 C   0  0  0  0  0  0  0  0  0  0  0  0
   56.8226   29.7136   42.1877 H   0  0  0  0  0  0  0  0  0  0  0  0
   57.9650   30.2900   45.9760 C   0  0  0  0  0  0  0  0  0  0  0  0
   57.6165   30.8255   46.8714 H   0  0  0  0  0  0  0  0  0  0  0  0
   59.4140   30.3080   45.6860 C   0  0  0  0  0  0  0  0  0  0  0  0
   59.9458   31.2679   45.6103 H   0  0  0  0  0  0  0  0  0  0  0  0
   60.0820   29.1600   45.5150 C   0  0  0  0  0  0  0  0  0  0  0  0
   60.4504   28.8918   44.5138 H   0  0  0  0  0  0  0  0  0  0  0  0
   57.0460   29.6680   45.2260 C   0  0  0  0  0  0  0  0  0  0  0  0
   56.8490   28.6063   45.4358 H   0  0  0  0  0  0  0  0  0  0  0  0
   56.2780   30.3060   44.1370 C   0  0  0  0  0  0  0  0  0  0  0  0
   55.2355   30.6133   44.3066 H   0  0  0  0  0  0  0  0  0  0  0  0
   60.3360   28.2330   46.6690 C   0  0  0  0  0  0  0  0  0  0  0  0
   60.3481   28.8173   47.6009 H   0  0  0  0  0  0  0  0  0  0  0  0
   61.3036   27.7359   46.5061 H   0  0  0  0  0  0  0  0  0  0  0  0
   59.2680   27.1700   46.7700 C   0  0  0  0  0  0  0  0  0  0  0  0
   58.6478   27.1383   47.6780 H   0  0  0  0  0  0  0  0  0  0  0  0
   59.0360   26.2600   45.8070 C   0  0  0  0  0  0  0  0  0  0  0  0
   59.6731   25.3636   45.7834 H   0  0  0  0  0  0  0  0  0  0  0  0
   57.9600   26.3870   44.7570 C   0  0  0  0  0  0  0  0  0  0  0  0
   57.0467   26.7879   45.2208 H   0  0  0  0  0  0  0  0  0  0  0  0
   57.7617   25.3938   44.3277 H   0  0  0  0  0  0  0  0  0  0  0  0
   58.4140   27.3310   43.6370 C   0  0  0  0  0  0  0  0  0  0  0  0
   59.4921   27.5220   43.7435 H   0  0  0  0  0  0  0  0  0  0  0  0
   57.8445   28.2685   43.7189 H   0  0  0  0  0  0  0  0  0  0  0  0
   58.1490   26.7220   42.2610 C   0  0  0  0  0  0  0  0  0  0  0  0
   57.7127   25.7194   42.3816 H   0  0  0  0  0  0  0  0  0  0  0  0
   57.4482   27.3624   41.7054 H   0  0  0  0  0  0  0  0  0  0  0  0
   59.0953   26.6457   41.7054 H   0  0  0  0  0  0  0  0  0  0  0  0
   60.3950   33.0010   51.3090 C   0  0  0  0  0  0  0  0  0  0  0  0
   61.1709   33.7794   51.3553 H   0  0  0  0  0  0  0  0  0  0  0  0
   60.4560   31.9050   52.1780 C   0  0  0  0  0  0  0  0  0  0  0  0
   61.2869   31.8195   52.8938 H   0  0  0  0  0  0  0  0  0  0  0  0
   59.4590   30.9120   52.1400 C   0  0  0  0  0  0  0  0  0  0  0  0
   59.4950   29.7810   52.9710 O   0  0  0  0  0  0  0  0  0  0  0  0
   60.3840   28.6750   52.8030 C   0  0  0  0  0  0  0  0  0  0  0  0
   61.3955   28.9640   53.1245 H   0  0  0  0  0  0  0  0  0  0  0  0
   60.0375   27.8268   53.4116 H   0  0  0  0  0  0  0  0  0  0  0  0
   60.4120   28.2710   51.3270 C   0  0  0  0  0  0  0  0  0  0  0  0
   60.6148   27.1923   51.2549 H   0  0  0  0  0  0  0  0  0  0  0  0
   59.4358   28.5150   50.8825 H   0  0  0  0  0  0  0  0  0  0  0  0
   61.5010   29.0380   50.5560 C   0  0  0  0  0  0  0  0  0  0  0  0
   62.0089   29.7229   51.2510 H   0  0  0  0  0  0  0  0  0  0  0  0
   62.1972   28.2970   50.1362 H   0  0  0  0  0  0  0  0  0  0  0  0
   60.9300   29.8570   49.3860 C   0  0  0  0  0  0  0  0  0  0  0  0
   60.6969   29.1748   48.5552 H   0  0  0  0  0  0  0  0  0  0  0  0
   60.0263   30.3737   49.7416 H   0  0  0  0  0  0  0  0  0  0  0  0
   61.9060   30.9040   48.8990 C   0  0  0  0  0  0  0  0  0  0  0  0
   61.8080   31.4170   47.5910 C   0  0  0  0  0  0  0  0  0  0  0  0
   61.0067   31.0661   46.9241 H   0  0  0  0  0  0  0  0  0  0  0  0
   62.7260   32.3720   47.1350 C   0  0  0  0  0  0  0  0  0  0  0  0
   62.6442   32.7688   46.1123 H   0  0  0  0  0  0  0  0  0  0  0  0
   63.7460   32.8210   47.9790 C   0  0  0  0  0  0  0  0  0  0  0  0
   64.4659   33.5717   47.6209 H   0  0  0  0  0  0  0  0  0  0  0  0
   63.8510   32.3150   49.2800 C   0  0  0  0  0  0  0  0  0  0  0  0
   64.6552   32.6677   49.9424 H   0  0  0  0  0  0  0  0  0  0  0  0
   62.9360   31.3620   49.7400 C   0  0  0  0  0  0  0  0  0  0  0  0
   63.0225   30.9692   50.7638 H   0  0  0  0  0  0  0  0  0  0  0  0
  1  2  1  0
  2  3  1  0
  3  4  2  0
  4  5  1  0
  4  6  1  0
  6  7  1  0
  7  8  1  0
  8  9  2  0
  8 10  1  0
 10 11  1  0
 11 12  2  0
 11 13  1  0
 13 14  1  0
 13 15  1  0
 13 16  1  0
 16 17  1  0
 16 18  1  0
 16 19  1  0
 19 20  1  0
 19 21  2  0
 21 22  1  0
 21 23  1  0
 23 24  1  0
 23 25  2  0
 25 26  1  0
 25 27  1  0
 27 28  1  0
 27 29  2  0
 29 30  1  0
 29 31  1  0
 31 32  1  0
 31 33  2  0
 33 34  1  0
 33 35  1  0
 35 36  1  0
 35 37  1  0
 35 38  1  0
 38 39  1  0
 38 40  2  3
 40 41  1  0
 40 42  1  0
 42 43  1  0
 42 44  1  0
 42 45  1  0
 45 46  1  0
 45 47  1  0
 45 48  1  0
 48 49  1  0
 48 50  1  0
 48 51  1  0
  6 52  2  0
 52 53  1  0
 52 54  1  0
 54 55  1  0
 54 56  2  0
 56 57  1  0
 57 58  1  0
 58 59  1  0
 58 60  1  0
 58 61  1  0
 61 62  1  0
 61 63  1  0
 61 64  1  0
 64 65  1  0
 64 66  1  0
 64 67  1  0
 67 68  1  0
 67 69  1  0
 67 70  1  0
 70 71  2  0
 71 72  1  0
 71 73  1  0
 73 74  1  0
 73 75  2  0
 75 76  1  0
 75 77  1  0
 77 78  1  0
 77 79  2  0
 79 80  1  0
 56  3  1  0
 79 70  1  0
M  CHG  1   7  -1
M  END
>  <UniqueID>  (50) 
48

>  <SMILES>  (50) 
CCCC=CC/C=C/C=C\C=C\C=CCCC(=O)OC(=O)[N-]c1ccc(OCCCCc2ccccc2)c(O)c1

>  <Energy>  (50) 
61.81266293716432

>  <Genealogy>  (50) 
CCCC=CCC=CC=CC=CC=CCCC(=O)OC(=O)[N-]c1ccc(OCCCCc2ccccc2)c(O)c1 (protonated)
CCCC=CC/C=C/C=C\C=C\C=CCCC(=O)OC(=O)[N-]c1ccc(OCCCCc2ccccc2)c(O)c1 (cis-trans isomerization)
CCCC=CC/C=C/C=C\C=C\C=CCCC(=O)OC(=O)[N-]c1ccc(OCCCCc2ccccc2)c(O)c1 (3D coordinates assigned)
CCCC=CC/C=C/C=C\C=C\C=CCCC(=O)OC(=O)[N-]c1ccc(OCCCCc2ccccc2)c(O)c1 (optimized conformer: 61.81266293716432 kcal/mol)

>  <smiles>  (50) 
CCCC=CCC=CC=CC=CC=CCCC(=O)OC(=O)Nc1ccc(OCCCCc2ccccc2)c(O)c1

>  <score_type>  (50) 
oracle

>  <origin>  (50) 
adg

>  <m_score__min__energy>  (50) 
-9.4399999999999995

>  <m_primary>  (50) 
energy

$$$$
50:0
     RDKit          3D

 67 71  0  0  0  0  0  0  0  0999 V2000
   56.5026   32.7658   53.6922 H   0  0  0  0  0  0  0  0  0  0  0  0
   57.4490   32.6090   53.1540 C   0  0  0  0  0  0  0  0  0  0  0  0
   57.9868   33.4676   52.7255 H   0  0  0  0  0  0  0  0  0  0  0  0
   57.9480   31.3690   53.0200 C   0  0  0  0  0  0  0  0  0  0  0  0
   59.1390   31.0300   52.3610 C   0  0  0  0  0  0  0  0  0  0  0  0
   60.0230   31.8760   51.7920 C   0  0  0  0  0  0  0  0  0  0  0  0
   60.8995   32.1702   52.3880 H   0  0  0  0  0  0  0  0  0  0  0  0
   59.9050   32.4380   50.4300 C   0  0  0  0  0  0  0  0  0  0  0  0
   59.0260   32.0260   49.4950 N   0  0  0  0  0  0  0  0  0  0  0  0
   59.2300   32.8210   48.4220 C   0  0  0  0  0  0  0  0  0  0  0  0
   58.4560   32.7050   47.1770 C   0  0  0  0  0  0  0  0  0  0  0  0
   58.6970   31.8050   46.1560 C   0  0  0  0  0  0  0  0  0  0  0  0
   59.4814   31.0345   46.1236 H   0  0  0  0  0  0  0  0  0  0  0  0
   57.7510   32.0710   45.1840 C   0  0  0  0  0  0  0  0  0  0  0  0
   57.5810   31.3520   43.8700 C   0  0  0  0  0  0  0  0  0  0  0  0
   56.6006   31.6221   43.4507 H   0  0  0  0  0  0  0  0  0  0  0  0
   58.4144   31.6633   43.2231 H   0  0  0  0  0  0  0  0  0  0  0  0
   57.6500   29.8780   43.9850 N   0  0  0  0  0  0  0  0  0  0  0  0
   59.0230   29.3390   44.1420 C   0  0  0  0  0  0  0  0  0  0  0  0
   59.1812   28.5460   43.3962 H   0  0  0  0  0  0  0  0  0  0  0  0
   59.7329   30.1667   43.9973 H   0  0  0  0  0  0  0  0  0  0  0  0
   59.2520   28.7550   45.5440 C   0  0  0  0  0  0  0  0  0  0  0  0
   60.2808   28.3710   45.6089 H   0  0  0  0  0  0  0  0  0  0  0  0
   59.0875   29.5521   46.2839 H   0  0  0  0  0  0  0  0  0  0  0  0
   58.3050   27.6500   45.8270 N   0  0  0  0  0  0  0  0  0  0  0  0
   58.2220   27.4100   47.2760 C   0  0  0  0  0  0  0  0  0  0  0  0
   58.5352   28.3156   47.8162 H   0  0  0  0  0  0  0  0  0  0  0  0
   57.1856   27.1610   47.5477 H   0  0  0  0  0  0  0  0  0  0  0  0
   58.8832   26.5739   47.5477 H   0  0  0  0  0  0  0  0  0  0  0  0
   56.9570   27.8490   45.2320 C   0  0  0  0  0  0  0  0  0  0  0  0
   56.8989   27.2804   44.2922 H   0  0  0  0  0  0  0  0  0  0  0  0
   56.2139   27.4987   45.9635 H   0  0  0  0  0  0  0  0  0  0  0  0
   56.6580   29.3230   44.9340 C   0  0  0  0  0  0  0  0  0  0  0  0
   55.6529   29.4057   44.4948 H   0  0  0  0  0  0  0  0  0  0  0  0
   56.7123   29.8914   45.8742 H   0  0  0  0  0  0  0  0  0  0  0  0
   56.9660   33.1060   45.6590 C   0  0  0  0  0  0  0  0  0  0  0  0
   56.1149   33.5519   45.1235 H   0  0  0  0  0  0  0  0  0  0  0  0
   57.4000   33.4850   46.8740 N   0  0  0  0  0  0  0  0  0  0  0  0
   56.9970   34.2510   47.4600 H   0  0  0  0  0  0  0  0  0  0  0  0
   60.2220   33.7550   48.6670 C   0  0  0  0  0  0  0  0  0  0  0  0
   60.5980   34.5287   47.9814 H   0  0  0  0  0  0  0  0  0  0  0  0
   60.6340   33.5050   49.9520 C   0  0  0  0  0  0  0  0  0  0  0  0
   61.6160   34.2060   50.6400 O   0  0  0  0  0  0  0  0  0  0  0  0
   59.2520   29.6490   52.4540 C   0  0  0  0  0  0  0  0  0  0  0  0
   60.0633   29.0285   52.0457 H   0  0  0  0  0  0  0  0  0  0  0  0
   58.1510   29.2050   53.1570 C   0  0  0  0  0  0  0  0  0  0  0  0
   57.8850   27.7670   53.4890 C   0  0  0  0  0  0  0  0  0  0  0  0
   57.8617   27.6412   54.5815 H   0  0  0  0  0  0  0  0  0  0  0  0
   56.9159   27.4659   53.0645 H   0  0  0  0  0  0  0  0  0  0  0  0
   58.6822   27.1391   53.0645 H   0  0  0  0  0  0  0  0  0  0  0  0
   57.3580   30.2430   53.5100 N   0  0  0  0  0  0  0  0  0  0  0  0
   56.0950   30.1270   54.2590 C   0  0  0  0  0  0  0  0  0  0  0  0
   55.9952   29.1001   54.6404 H   0  0  0  0  0  0  0  0  0  0  0  0
   56.1124   30.8455   55.0917 H   0  0  0  0  0  0  0  0  0  0  0  0
   54.9160   30.4420   53.3750 C   0  0  0  0  0  0  0  0  0  0  0  0
   55.0950   30.6390   51.9970 C   0  0  0  0  0  0  0  0  0  0  0  0
   56.1021   30.5647   51.5608 H   0  0  0  0  0  0  0  0  0  0  0  0
   54.0020   30.9290   51.1750 C   0  0  0  0  0  0  0  0  0  0  0  0
   54.1548   31.0800   50.0962 H   0  0  0  0  0  0  0  0  0  0  0  0
   52.7080   31.0290   51.7180 C   0  0  0  0  0  0  0  0  0  0  0  0
   51.5470   31.3360   50.8530 C   0  0  0  0  0  0  0  0  0  0  0  0
   51.3500   30.6890   49.7910 O   0  0  0  0  0  0  0  0  0  0  0  0
   50.6540   32.3400   51.2050 O   0  0  0  0  0  0  0  0  0  0  0  0
   52.5320   30.8320   53.0980 C   0  0  0  0  0  0  0  0  0  0  0  0
   51.5264   30.9113   53.5367 H   0  0  0  0  0  0  0  0  0  0  0  0
   53.6250   30.5360   53.9180 C   0  0  0  0  0  0  0  0  0  0  0  0
   53.4723   30.3758   54.9955 H   0  0  0  0  0  0  0  0  0  0  0  0
  1  2  1  0
  2  3  1  0
  2  4  2  0
  4  5  1  0
  5  6  2  0
  6  7  1  0
  6  8  1  0
  8  9  1  0
  9 10  1  0
 10 11  1  0
 11 12  2  0
 12 13  1  0
 12 14  1  0
 14 15  1  0
 15 16  1  0
 15 17  1  0
 15 18  1  0
 18 19  1  0
 19 20  1  0
 19 21  1  0
 19 22  1  0
 22 23  1  0
 22 24  1  0
 22 25  1  0
 25 26  1  0
 26 27  1  0
 26 28  1  0
 26 29  1  0
 25 30  1  0
 30 31  1  0
 30 32  1  0
 30 33  1  0
 33 34  1  0
 33 35  1  0
 14 36  2  0
 36 37  1  0
 36 38  1  0
 38 39  1  0
 10 40  2  0
 40 41  1  0
 40 42  1  0
 42 43  1  0
  5 44  1  0
 44 45  1  0
 44 46  2  0
 46 47  1  0
 47 48  1  0
 47 49  1  0
 47 50  1  0
 46 51  1  0
 51 52  1  0
 52 53  1  0
 52 54  1  0
 52 55  1  0
 55 56  2  0
 56 57  1  0
 56 58  1  0
 58 59  1  0
 58 60  2  0
 60 61  1  0
 61 62  2  0
 61 63  1  0
 60 64  1  0
 64 65  1  0
 64 66  2  0
 66 67  1  0
 51  4  1  0
 66 55  1  0
 42  8  2  0
 38 11  1  0
 33 18  1  0
M  CHG  3   9  -1  43  -1  63  -1
M  END
>  <UniqueID>  (51) 
49

>  <SMILES>  (51) 
C=c1/c(=C/c2[n-]c(-c3cc(CN4CCN(C)CC4)c[nH]3)cc2[O-])cc(C)n1Cc1ccc(C(=O)[O-])cc1

>  <Energy>  (51) 
169.38076164455427

>  <Genealogy>  (51) 
C=c1c(=Cc2[n-]c(-c3cc(CN4CCN(C)CC4)c[nH]3)cc2[O-])cc(C)n1Cc1ccc(C(=O)[O-])cc1 (protonated)
C=c1/c(=C/c2[n-]c(-c3cc(CN4CCN(C)CC4)c[nH]3)cc2[O-])cc(C)n1Cc1ccc(C(=O)[O-])cc1 (cis-trans isomerization)
C=c1/c(=C/c2[n-]c(-c3cc(CN4CCN(C)CC4)c[nH]3)cc2[O-])cc(C)n1Cc1ccc(C(=O)[O-])cc1 (3D coordinates assigned)
C=c1/c(=C/c2[n-]c(-c3cc(CN4CCN(C)CC4)c[nH]3)cc2[O-])cc(C)n1Cc1ccc(C(=O)[O-])cc1 (nonaromatic ring conformer: 169.38076164455427 kcal/mol)

>  <smiles>  (51) 
C=c1c(=Cc2[nH]c(-c3cc(CN4CCN(C)CC4)c[nH]3)cc2O)cc(C)n1Cc1ccc(C(=O)O)cc1

>  <score_type>  (51) 
oracle

>  <origin>  (51) 
adg

>  <m_score__min__energy>  (51) 
-13.09

>  <m_primary>  (51) 
energy

$$$$
51:0
     RDKit          3D

 42 44  0  0  0  0  0  0  0  0999 V2000
   52.9026   28.9996   53.9180 H   0  0  0  0  0  0  0  0  0  0  0  0
   53.9310   28.6620   53.7220 C   0  0  0  0  0  0  0  0  0  0  0  0
   54.2932   27.7196   54.1586 H   0  0  0  0  0  0  0  0  0  0  0  0
   54.7450   29.4010   52.9490 C   0  0  0  0  0  0  0  0  0  0  0  0
   56.0500   28.9160   52.7350 C   0  0  0  0  0  0  0  0  0  0  0  0
   56.2927   27.8793   53.0112 H   0  0  0  0  0  0  0  0  0  0  0  0
   57.0390   29.7250   52.1800 C   0  0  0  0  0  0  0  0  0  0  0  0
   58.0516   29.3248   52.0236 H   0  0  0  0  0  0  0  0  0  0  0  0
   56.7470   31.0460   51.8210 C   0  0  0  0  0  0  0  0  0  0  0  0
   57.7560   31.9340   51.3170 N   0  0  0  0  0  0  0  0  0  0  0  0
   58.4820   31.7820   50.0900 C   0  0  0  0  0  0  0  0  0  0  0  0
   58.2770   32.5730   49.1300 O   0  0  0  0  0  0  0  0  0  0  0  0
   59.5360   30.7460   49.9900 C   0  0  0  0  0  0  0  0  0  0  0  0
   60.8480   31.0150   50.1570 C   0  0  0  0  0  0  0  0  0  0  0  0
   61.3726   30.4936   50.9712 H   0  0  0  0  0  0  0  0  0  0  0  0
   61.6360   31.9560   49.3310 C   0  0  0  0  0  0  0  0  0  0  0  0
   62.3540   31.5160   48.2030 C   0  0  0  0  0  0  0  0  0  0  0  0
   62.3141   30.4576   47.9059 H   0  0  0  0  0  0  0  0  0  0  0  0
   63.1180   32.4210   47.4590 C   0  0  0  0  0  0  0  0  0  0  0  0
   63.6651   32.0766   46.5690 H   0  0  0  0  0  0  0  0  0  0  0  0
   63.1870   33.7620   47.8450 C   0  0  0  0  0  0  0  0  0  0  0  0
   63.7824   34.4737   47.2542 H   0  0  0  0  0  0  0  0  0  0  0  0
   62.5010   34.2000   48.9800 C   0  0  0  0  0  0  0  0  0  0  0  0
   62.5621   35.2548   49.2862 H   0  0  0  0  0  0  0  0  0  0  0  0
   61.7360   33.2980   49.7280 C   0  0  0  0  0  0  0  0  0  0  0  0
   61.2108   33.6426   50.6310 H   0  0  0  0  0  0  0  0  0  0  0  0
   59.1190   29.3400   49.6520 C   0  0  0  0  0  0  0  0  0  0  0  0
   58.9512   28.7741   50.5802 H   0  0  0  0  0  0  0  0  0  0  0  0
   58.1894   29.3645   49.0644 H   0  0  0  0  0  0  0  0  0  0  0  0
   59.9116   28.8537   49.0644 H   0  0  0  0  0  0  0  0  0  0  0  0
   55.4510   31.5350   51.9950 C   0  0  0  0  0  0  0  0  0  0  0  0
   55.2384   32.5883   51.7598 H   0  0  0  0  0  0  0  0  0  0  0  0
   54.4060   30.7090   52.4660 C   0  0  0  0  0  0  0  0  0  0  0  0
   53.1500   31.2200   52.4050 C   0  0  0  0  0  0  0  0  0  0  0  0
   52.7644   31.7060   53.3133 H   0  0  0  0  0  0  0  0  0  0  0  0
   52.2530   31.1840   51.2320 C   0  0  0  0  0  0  0  0  0  0  0  0
   52.3060   30.2670   50.2490 N   0  0  0  0  0  0  0  0  0  0  0  0
   51.3880   30.7090   49.3610 C   0  0  0  0  0  0  0  0  0  0  0  0
   51.1300   30.0970   48.2920 O   0  0  0  0  0  0  0  0  0  0  0  0
   50.7730   31.8600   49.7060 N   0  0  0  0  0  0  0  0  0  0  0  0
   51.3420   32.1530   50.8870 C   0  0  0  0  0  0  0  0  0  0  0  0
   51.0370   33.2850   51.6320 O   0  0  0  0  0  0  0  0  0  0  0  0
  1  2  1  0
  2  3  1  0
  2  4  2  0
  4  5  1  0
  5  6  1  0
  5  7  2  0
  7  8  1  0
  7  9  1  0
  9 10  1  0
 10 11  1  0
 11 12  2  0
 11 13  1  0
 13 14  2  0
 14 15  1  0
 14 16  1  0
 16 17  2  0
 17 18  1  0
 17 19  1  0
 19 20  1  0
 19 21  2  0
 21 22  1  0
 21 23  1  0
 23 24  1  0
 23 25  2  0
 25 26  1  0
 13 27  1  0
 27 28  1  0
 27 29  1  0
 27 30  1  0
  9 31  2  0
 31 32  1  0
 31 33  1  0
 33 34  2  3
 34 35  1  0
 34 36  1  0
 36 37  1  0
 37 38  1  0
 38 39  2  0
 38 40  1  0
 40 41  1  0
 41 42  1  0
 33  4  1  0
 41 36  2  0
 25 16  1  0
M  CHG  4  10  -1  37  -1  40  -1  42  -1
M  END
>  <UniqueID>  (52) 
50

>  <SMILES>  (52) 
C=c1ccc([N-]C(=O)/C(C)=C\c2ccccc2)cc1=Cc1[n-]c(=O)[n-]c1[O-]

>  <Energy>  (52) 
105.26807260545364

>  <Genealogy>  (52) 
C=c1ccc([N-]C(=O)C(C)=Cc2ccccc2)cc1=Cc1[n-]c(=O)[n-]c1[O-] (protonated)
C=c1ccc([N-]C(=O)/C(C)=C\c2ccccc2)cc1=Cc1[n-]c(=O)[n-]c1[O-] (cis-trans isomerization)
C=c1ccc([N-]C(=O)/C(C)=C\c2ccccc2)cc1=Cc1[n-]c(=O)[n-]c1[O-] (3D coordinates assigned)
C=c1ccc([N-]C(=O)/C(C)=C\c2ccccc2)cc1=Cc1[n-]c(=O)[n-]c1[O-] (optimized conformer: 105.26807260545364 kcal/mol)

>  <smiles>  (52) 
C=c1ccc(NC(=O)C(C)=Cc2ccccc2)cc1=Cc1[nH]c(=O)[nH]c1O

>  <score_type>  (52) 
oracle

>  <origin>  (52) 
adg

>  <m_score__min__energy>  (52) 
-18.789999999999999

>  <m_primary>  (52) 
energy

$$$$
52:0
     RDKit          3D

 61 64  0  0  0  0  0  0  0  0999 V2000
   53.5400   26.4120   54.7240 C   0  0  0  0  0  0  0  0  0  0  0  0
   54.3840   27.6110   54.3840 C   0  0  0  0  0  0  0  0  0  0  0  0
   55.6810   27.4110   53.8860 C   0  0  0  0  0  0  0  0  0  0  0  0
   56.5040   28.5000   53.5920 C   0  0  0  0  0  0  0  0  0  0  0  0
   56.0510   29.8070   53.7880 C   0  0  0  0  0  0  0  0  0  0  0  0
   56.9160   30.8650   53.4740 O   0  0  0  0  0  0  0  0  0  0  0  0
   56.6300   31.8840   52.5170 C   0  0  0  0  0  0  0  0  0  0  0  0
   57.4110   31.6180   51.2710 C   0  0  0  0  0  0  0  0  0  0  0  0
   57.4520   30.4470   50.8050 O   0  0  0  0  0  0  0  0  0  0  0  0
   58.1690   32.6740   50.6610 N   0  0  0  0  0  0  0  0  0  0  0  0
   58.8400   32.5490   49.3970 C   0  0  0  0  0  0  0  0  0  0  0  0
   60.2280   32.3430   49.3680 C   0  0  0  0  0  0  0  0  0  0  0  0
   60.9000   32.2220   48.1490 C   0  0  0  0  0  0  0  0  0  0  0  0
   60.1940   32.3210   46.9480 C   0  0  0  0  0  0  0  0  0  0  0  0
   58.8120   32.5540   46.9580 C   0  0  0  0  0  0  0  0  0  0  0  0
   57.9200   32.6990   45.4400 S   0  0  0  0  0  0  0  0  0  0  0  0
   58.8890   32.9490   44.3180 O   0  0  0  0  0  0  0  0  0  0  0  0
   56.9940   33.8800   45.5260 O   0  0  0  0  0  0  0  0  0  0  0  0
   56.9920   31.2610   45.0910 N   0  0  0  0  0  0  0  0  0  0  0  0
   56.7170   31.1620   43.6460 C   0  0  0  0  0  0  0  0  0  0  0  0
   56.1370   29.7740   43.2950 C   0  0  0  0  0  0  0  0  0  0  0  0
   55.7210   29.0890   44.4610 O   0  0  0  0  0  0  0  0  0  0  0  0
   56.8430   28.8070   45.2810 C   0  0  0  0  0  0  0  0  0  0  0  0
   57.6970   30.0620   45.5600 C   0  0  0  0  0  0  0  0  0  0  0  0
   58.1410   32.6790   48.1830 C   0  0  0  0  0  0  0  0  0  0  0  0
   54.7480   30.0170   54.2800 C   0  0  0  0  0  0  0  0  0  0  0  0
   53.9030   28.9320   54.5450 C   0  0  0  0  0  0  0  0  0  0  0  0
   52.5720   29.2000   55.0030 N   0  0  0  0  0  0  0  0  0  0  0  0
   51.6000   29.9180   54.2350 C   0  0  0  0  0  0  0  0  0  0  0  0
   50.4460   29.4380   54.0560 O   0  0  0  0  0  0  0  0  0  0  0  0
   51.9620   31.2310   53.6200 C   0  0  0  0  0  0  0  0  0  0  0  0
   51.6380   31.2260   52.1580 C   0  0  0  0  0  0  0  0  0  0  0  0
   52.0090   29.9810   51.0840 S   0  0  0  0  0  0  0  0  0  0  0  0
   51.3970   30.8280   49.7640 C   0  0  0  0  0  0  0  0  0  0  0  0
   51.3810   30.3880   48.5850 O   0  0  0  0  0  0  0  0  0  0  0  0
   50.9210   32.0470   50.1010 N   0  0  0  0  0  0  0  0  0  0  0  0
   51.0620   32.2710   51.4350 C   0  0  0  0  0  0  0  0  0  0  0  0
   50.6580   33.4660   52.0220 O   0  0  0  0  0  0  0  0  0  0  0  0
   53.4692   26.3115   55.8171 H   0  0  0  0  0  0  0  0  0  0  0  0
   52.5325   26.5411   54.3017 H   0  0  0  0  0  0  0  0  0  0  0  0
   54.0014   25.5072   54.3017 H   0  0  0  0  0  0  0  0  0  0  0  0
   56.0521   26.3879   53.7260 H   0  0  0  0  0  0  0  0  0  0  0  0
   57.5182   28.3273   53.2026 H   0  0  0  0  0  0  0  0  0  0  0  0
   55.5547   31.8805   52.2855 H   0  0  0  0  0  0  0  0  0  0  0  0
   56.9092   32.8659   52.9267 H   0  0  0  0  0  0  0  0  0  0  0  0
   58.3410   33.5370   51.2270 H   0  0  0  0  0  0  0  0  0  0  0  0
   60.7904   32.2764   50.3110 H   0  0  0  0  0  0  0  0  0  0  0  0
   61.9862   32.0486   48.1352 H   0  0  0  0  0  0  0  0  0  0  0  0
   60.7248   32.2157   45.9903 H   0  0  0  0  0  0  0  0  0  0  0  0
   55.9917   31.9388   43.3623 H   0  0  0  0  0  0  0  0  0  0  0  0
   57.6594   31.3011   43.0961 H   0  0  0  0  0  0  0  0  0  0  0  0
   55.2732   29.9036   42.6264 H   0  0  0  0  0  0  0  0  0  0  0  0
   56.9209   29.1812   42.8010 H   0  0  0  0  0  0  0  0  0  0  0  0
   56.4872   28.4014   46.2396 H   0  0  0  0  0  0  0  0  0  0  0  0
   57.4754   28.0824   44.7471 H   0  0  0  0  0  0  0  0  0  0  0  0
   57.8794   30.1459   46.6415 H   0  0  0  0  0  0  0  0  0  0  0  0
   58.6551   29.9737   45.0268 H   0  0  0  0  0  0  0  0  0  0  0  0
   57.0596   32.8803   48.1948 H   0  0  0  0  0  0  0  0  0  0  0  0
   54.3910   31.0422   54.4577 H   0  0  0  0  0  0  0  0  0  0  0  0
   51.3942   32.0326   54.1150 H   0  0  0  0  0  0  0  0  0  0  0  0
   53.0414   31.4007   53.7471 H   0  0  0  0  0  0  0  0  0  0  0  0
  1  2  1  0
  2  3  2  0
  3  4  1  0
  4  5  2  0
  5  6  1  0
  6  7  1  0
  7  8  1  0
  8  9  2  0
  8 10  1  0
 10 11  1  0
 11 12  2  0
 12 13  1  0
 13 14  2  0
 14 15  1  0
 15 16  1  0
 16 17  2  0
 16 18  2  0
 16 19  1  0
 19 20  1  0
 20 21  1  0
 21 22  1  0
 22 23  1  0
 23 24  1  0
 15 25  2  0
  5 26  1  0
 26 27  2  0
 27 28  1  0
 28 29  1  0
 29 30  2  0
 29 31  1  0
 31 32  1  0
 32 33  1  0
 33 34  1  0
 34 35  2  0
 34 36  1  0
 36 37  1  0
 37 38  1  0
 27  2  1  0
 37 32  2  0
 25 11  1  0
 24 19  1  0
  1 39  1  0
  1 40  1  0
  1 41  1  0
  3 42  1  0
  4 43  1  0
  7 44  1  0
  7 45  1  0
 10 46  1  0
 12 47  1  0
 13 48  1  0
 14 49  1  0
 20 50  1  0
 20 51  1  0
 21 52  1  0
 21 53  1  0
 23 54  1  0
 23 55  1  0
 24 56  1  0
 24 57  1  0
 25 58  1  0
 26 59  1  0
 31 60  1  0
 31 61  1  0
M  CHG  3  28  -1  36  -1  38  -1
M  END
>  <UniqueID>  (53) 
51

>  <SMILES>  (53) 
Cc1ccc(OCC(=O)Nc2cccc(S(=O)(=O)N3CCOCC3)c2)cc1[N-]C(=O)Cc1sc(=O)[n-]c1[O-]

>  <Energy>  (53) 
107.31953155558638

>  <Genealogy>  (53) 
Cc1ccc(OCC(=O)Nc2cccc(S(=O)(=O)N3CCOCC3)c2)cc1[N-]C(=O)Cc1sc(=O)[n-]c1[O-] (protonated)
Cc1ccc(OCC(=O)Nc2cccc(S(=O)(=O)N3CCOCC3)c2)cc1[N-]C(=O)Cc1sc(=O)[n-]c1[O-] (3D coordinates assigned)
Cc1ccc(OCC(=O)Nc2cccc(S(=O)(=O)N3CCOCC3)c2)cc1[N-]C(=O)Cc1sc(=O)[n-]c1[O-] (nonaromatic ring conformer: 107.31953155558638 kcal/mol)

>  <smiles>  (53) 
Cc1ccc(OCC(=O)Nc2cccc(S(=O)(=O)N3CCOCC3)c2)cc1NC(=O)Cc1sc(=O)[nH]c1O

>  <score_type>  (53) 
oracle

>  <origin>  (53) 
adg

>  <m_score__min__energy>  (53) 
-18.77

>  <m_primary>  (53) 
energy

$$$$
53:0
     RDKit          3D

 60 63  0  0  0  0  0  0  0  0999 V2000
   63.6240   33.3290   48.6850 C   0  0  0  0  0  0  0  0  0  0  0  0
   62.6580   32.6010   49.5950 C   0  0  0  0  0  0  0  0  0  0  0  0
   62.0170   31.3960   49.2030 C   0  0  0  0  0  0  0  0  0  0  0  0
   62.2580   30.8470   47.8050 C   0  0  0  0  0  0  0  0  0  0  0  0
   61.2160   30.7180   50.1090 N   0  0  0  0  0  0  0  0  0  0  0  0
   60.6420   29.3900   49.7750 C   0  0  0  0  0  0  0  0  0  0  0  0
   59.6970   29.4500   48.5940 C   0  0  0  0  0  0  0  0  0  0  0  0
   59.2500   28.2870   47.9430 C   0  0  0  0  0  0  0  0  0  0  0  0
   58.3600   28.3720   46.8680 C   0  0  0  0  0  0  0  0  0  0  0  0
   57.8880   29.6210   46.4310 C   0  0  0  0  0  0  0  0  0  0  0  0
   56.9440   29.7150   45.2960 C   0  0  0  0  0  0  0  0  0  0  0  0
   57.1130   30.5790   44.3940 O   0  0  0  0  0  0  0  0  0  0  0  0
   55.8590   28.8500   45.2070 O   0  0  0  0  0  0  0  0  0  0  0  0
   58.3200   30.7820   47.0930 C   0  0  0  0  0  0  0  0  0  0  0  0
   59.2110   30.6960   48.1660 C   0  0  0  0  0  0  0  0  0  0  0  0
   60.9450   31.2890   51.3360 C   0  0  0  0  0  0  0  0  0  0  0  0
   60.0560   30.6370   52.3740 C   0  0  0  0  0  0  0  0  0  0  0  0
   58.7220   31.2760   52.4240 N   0  0  0  0  0  0  0  0  0  0  0  0
   58.1080   31.3550   51.0760 C   0  0  0  0  0  0  0  0  0  0  0  0
   56.5980   31.6100   51.1390 C   0  0  0  0  0  0  0  0  0  0  0  0
   55.9360   30.5690   51.9350 N   0  0  0  0  0  0  0  0  0  0  0  0
   54.5390   30.2590   51.7420 C   0  0  0  0  0  0  0  0  0  0  0  0
   54.0950   29.1360   52.1090 O   0  0  0  0  0  0  0  0  0  0  0  0
   53.6120   31.2250   51.0490 C   0  0  0  0  0  0  0  0  0  0  0  0
   52.3920   31.5060   51.8750 C   0  0  0  0  0  0  0  0  0  0  0  0
   52.2240   31.0850   53.1400 N   0  0  0  0  0  0  0  0  0  0  0  0
   50.9820   31.5180   53.4490 C   0  0  0  0  0  0  0  0  0  0  0  0
   50.4560   31.3180   54.5740 O   0  0  0  0  0  0  0  0  0  0  0  0
   50.3470   32.1790   52.4560 N   0  0  0  0  0  0  0  0  0  0  0  0
   51.2530   32.1560   51.4650 C   0  0  0  0  0  0  0  0  0  0  0  0
   51.0380   32.7130   50.2090 O   0  0  0  0  0  0  0  0  0  0  0  0
   56.7380   29.7800   52.8750 C   0  0  0  0  0  0  0  0  0  0  0  0
   57.8580   30.6500   53.4600 C   0  0  0  0  0  0  0  0  0  0  0  0
   61.5090   32.4740   51.6750 N   0  0  0  0  0  0  0  0  0  0  0  0
   62.3490   33.1340   50.8520 C   0  0  0  0  0  0  0  0  0  0  0  0
   62.8430   34.2280   51.2350 O   0  0  0  0  0  0  0  0  0  0  0  0
   64.3559   33.8806   49.2933 H   0  0  0  0  0  0  0  0  0  0  0  0
   64.1496   32.6005   48.0502 H   0  0  0  0  0  0  0  0  0  0  0  0
   63.0685   34.0350   48.0502 H   0  0  0  0  0  0  0  0  0  0  0  0
   62.6992   29.8419   47.8768 H   0  0  0  0  0  0  0  0  0  0  0  0
   61.3021   30.7900   47.2636 H   0  0  0  0  0  0  0  0  0  0  0  0
   62.9469   31.5121   47.2636 H   0  0  0  0  0  0  0  0  0  0  0  0
   61.4644   28.7001   49.5346 H   0  0  0  0  0  0  0  0  0  0  0  0
   60.0674   29.0442   50.6469 H   0  0  0  0  0  0  0  0  0  0  0  0
   59.6033   27.3020   48.2821 H   0  0  0  0  0  0  0  0  0  0  0  0
   58.0270   27.4544   46.3608 H   0  0  0  0  0  0  0  0  0  0  0  0
   57.9543   31.7660   46.7644 H   0  0  0  0  0  0  0  0  0  0  0  0
   59.5347   31.6129   48.6802 H   0  0  0  0  0  0  0  0  0  0  0  0
   59.9336   29.5732   52.1224 H   0  0  0  0  0  0  0  0  0  0  0  0
   60.5320   30.7542   53.3587 H   0  0  0  0  0  0  0  0  0  0  0  0
   58.5825   32.1761   50.5187 H   0  0  0  0  0  0  0  0  0  0  0  0
   58.2655   30.3874   50.5771 H   0  0  0  0  0  0  0  0  0  0  0  0
   56.4151   32.5912   51.6015 H   0  0  0  0  0  0  0  0  0  0  0  0
   56.1901   31.5917   50.1176 H   0  0  0  0  0  0  0  0  0  0  0  0
   54.1479   32.1689   50.8707 H   0  0  0  0  0  0  0  0  0  0  0  0
   53.2890   30.7722   50.1000 H   0  0  0  0  0  0  0  0  0  0  0  0
   56.0940   29.4174   53.6897 H   0  0  0  0  0  0  0  0  0  0  0  0
   57.1819   28.9246   52.3447 H   0  0  0  0  0  0  0  0  0  0  0  0
   57.4005   31.4491   54.0618 H   0  0  0  0  0  0  0  0  0  0  0  0
   58.4998   29.9908   54.0630 H   0  0  0  0  0  0  0  0  0  0  0  0
  1  2  1  0
  2  3  2  0
  3  4  1  0
  3  5  1  0
  5  6  1  0
  6  7  1  0
  7  8  2  0
  8  9  1  0
  9 10  2  0
 10 11  1  0
 11 12  2  0
 11 13  1  0
 10 14  1  0
 14 15  2  0
  5 16  1  0
 16 17  1  0
 17 18  1  0
 18 19  1  0
 19 20  1  0
 20 21  1  0
 21 22  1  0
 22 23  2  0
 22 24  1  0
 24 25  1  0
 25 26  1  0
 26 27  1  0
 27 28  2  0
 27 29  1  0
 29 30  1  0
 30 31  1  0
 21 32  1  0
 32 33  1  0
 16 34  2  0
 34 35  1  0
 35 36  2  0
 35  2  1  0
 15  7  1  0
 33 18  1  0
 30 25  2  0
  1 37  1  0
  1 38  1  0
  1 39  1  0
  4 40  1  0
  4 41  1  0
  4 42  1  0
  6 43  1  0
  6 44  1  0
  8 45  1  0
  9 46  1  0
 14 47  1  0
 15 48  1  0
 17 49  1  0
 17 50  1  0
 19 51  1  0
 19 52  1  0
 20 53  1  0
 20 54  1  0
 24 55  1  0
 24 56  1  0
 32 57  1  0
 32 58  1  0
 33 59  1  0
 33 60  1  0
M  CHG  4  13  -1  26  -1  29  -1  31  -1
M  END
>  <UniqueID>  (54) 
52

>  <SMILES>  (54) 
Cc1c(C)n(Cc2ccc(C(=O)[O-])cc2)c(CN2CCN(C(=O)Cc3[n-]c(=O)[n-]c3[O-])CC2)nc1=O

>  <Energy>  (54) 
110.74403491517431

>  <Genealogy>  (54) 
Cc1c(C)n(Cc2ccc(C(=O)[O-])cc2)c(CN2CCN(C(=O)Cc3[n-]c(=O)[n-]c3[O-])CC2)nc1=O (protonated)
Cc1c(C)n(Cc2ccc(C(=O)[O-])cc2)c(CN2CCN(C(=O)Cc3[n-]c(=O)[n-]c3[O-])CC2)nc1=O (3D coordinates assigned)
Cc1c(C)n(Cc2ccc(C(=O)[O-])cc2)c(CN2CCN(C(=O)Cc3[n-]c(=O)[n-]c3[O-])CC2)nc1=O (nonaromatic ring conformer: 110.74403491517431 kcal/mol)

>  <smiles>  (54) 
Cc1c(C)n(Cc2ccc(C(=O)O)cc2)c(CN2CCN(C(=O)Cc3[nH]c(=O)[nH]c3O)CC2)nc1=O

>  <score_type>  (54) 
oracle

>  <origin>  (54) 
adg

>  <m_score__min__energy>  (54) 
-20.57

>  <m_primary>  (54) 
energy

$$$$
54:0
     RDKit          3D

 56 59  0  0  0  0  0  0  0  0999 V2000
   57.5930   25.1430   44.5620 O   0  0  0  0  0  0  0  0  0  0  0  0
   57.5910   26.3970   44.6790 C   0  0  0  0  0  0  0  0  0  0  0  0
   58.2860   27.2170   43.6280 C   0  0  0  0  0  0  0  0  0  0  0  0
   57.8750   28.6600   43.7430 C   0  0  0  0  0  0  0  0  0  0  0  0
   56.6620   29.0920   43.1830 C   0  0  0  0  0  0  0  0  0  0  0  0
   56.2950   30.4400   43.2550 C   0  0  0  0  0  0  0  0  0  0  0  0
   57.1410   31.3660   43.8760 C   0  0  0  0  0  0  0  0  0  0  0  0
   58.3570   30.9460   44.4250 C   0  0  0  0  0  0  0  0  0  0  0  0
   58.7250   29.5990   44.3570 C   0  0  0  0  0  0  0  0  0  0  0  0
   56.9540   27.0450   45.8530 C   0  0  0  0  0  0  0  0  0  0  0  0
   55.7070   26.9510   46.0000 O   0  0  0  0  0  0  0  0  0  0  0  0
   57.6930   27.7760   46.8420 N   0  0  0  0  0  0  0  0  0  0  0  0
   59.1290   28.0350   46.8320 C   0  0  0  0  0  0  0  0  0  0  0  0
   59.4610   29.0230   47.9170 C   0  0  0  0  0  0  0  0  0  0  0  0
   58.8140   30.2630   47.9610 C   0  0  0  0  0  0  0  0  0  0  0  0
   59.1370   31.1920   48.9100 N   0  0  0  0  0  0  0  0  0  0  0  0
   58.4510   32.4970   48.8890 C   0  0  0  0  0  0  0  0  0  0  0  0
   58.6010   33.1590   47.5330 C   0  0  0  0  0  0  0  0  0  0  0  0
   57.4340   33.4580   46.8040 C   0  0  0  0  0  0  0  0  0  0  0  0
   57.5100   33.9710   45.5080 C   0  0  0  0  0  0  0  0  0  0  0  0
   58.7520   34.1930   44.9150 C   0  0  0  0  0  0  0  0  0  0  0  0
   59.9220   33.9140   45.6210 C   0  0  0  0  0  0  0  0  0  0  0  0
   59.8660   33.4050   46.9310 C   0  0  0  0  0  0  0  0  0  0  0  0
   61.1440   33.1690   47.6330 C   0  0  0  0  0  0  0  0  0  0  0  0
   62.0180   32.1630   47.1880 C   0  0  0  0  0  0  0  0  0  0  0  0
   63.2460   31.9630   47.8280 C   0  0  0  0  0  0  0  0  0  0  0  0
   63.6150   32.7740   48.9040 C   0  0  0  0  0  0  0  0  0  0  0  0
   62.7590   33.7930   49.3400 C   0  0  0  0  0  0  0  0  0  0  0  0
   61.5320   33.9960   48.7030 C   0  0  0  0  0  0  0  0  0  0  0  0
   60.1000   30.9000   49.8440 C   0  0  0  0  0  0  0  0  0  0  0  0
   60.3850   31.7250   50.7540 O   0  0  0  0  0  0  0  0  0  0  0  0
   60.7540   29.7070   49.8050 N   0  0  0  0  0  0  0  0  0  0  0  0
   60.4650   28.7730   48.8610 C   0  0  0  0  0  0  0  0  0  0  0  0
   61.1030   27.6860   48.8450 O   0  0  0  0  0  0  0  0  0  0  0  0
   59.3745   27.1367   43.7646 H   0  0  0  0  0  0  0  0  0  0  0  0
   58.0050   26.8406   42.6333 H   0  0  0  0  0  0  0  0  0  0  0  0
   55.9986   28.3686   42.6864 H   0  0  0  0  0  0  0  0  0  0  0  0
   55.3398   30.7728   42.8228 H   0  0  0  0  0  0  0  0  0  0  0  0
   56.8493   32.4251   43.9324 H   0  0  0  0  0  0  0  0  0  0  0  0
   59.0231   31.6749   44.9098 H   0  0  0  0  0  0  0  0  0  0  0  0
   59.6837   29.2713   44.7855 H   0  0  0  0  0  0  0  0  0  0  0  0
   59.6735   27.0960   47.0103 H   0  0  0  0  0  0  0  0  0  0  0  0
   59.4236   28.4460   45.8551 H   0  0  0  0  0  0  0  0  0  0  0  0
   58.0337   30.4935   47.2207 H   0  0  0  0  0  0  0  0  0  0  0  0
   57.3822   32.3467   49.1013 H   0  0  0  0  0  0  0  0  0  0  0  0
   58.9037   33.1471   49.6522 H   0  0  0  0  0  0  0  0  0  0  0  0
   56.4490   33.2850   47.2620 H   0  0  0  0  0  0  0  0  0  0  0  0
   56.5881   34.2005   44.9535 H   0  0  0  0  0  0  0  0  0  0  0  0
   58.8092   34.5883   43.8901 H   0  0  0  0  0  0  0  0  0  0  0  0
   60.8988   34.0939   45.1483 H   0  0  0  0  0  0  0  0  0  0  0  0
   61.7359   31.5304   46.3335 H   0  0  0  0  0  0  0  0  0  0  0  0
   63.9217   31.1663   47.4835 H   0  0  0  0  0  0  0  0  0  0  0  0
   64.5786   32.6121   49.4091 H   0  0  0  0  0  0  0  0  0  0  0  0
   63.0527   34.4339   50.1844 H   0  0  0  0  0  0  0  0  0  0  0  0
   60.8671   34.8052   49.0393 H   0  0  0  0  0  0  0  0  0  0  0  0
   61.4970   29.5060   50.5140 H   0  0  0  0  0  0  0  0  0  0  0  0
  1  2  2  0
  2  3  1  0
  3  4  1  0
  4  5  2  0
  5  6  1  0
  6  7  2  0
  7  8  1  0
  8  9  2  0
  2 10  1  0
 10 11  2  0
 10 12  1  0
 12 13  1  0
 13 14  1  0
 14 15  2  0
 15 16  1  0
 16 17  1  0
 17 18  1  0
 18 19  2  0
 19 20  1  0
 20 21  2  0
 21 22  1  0
 22 23  2  0
 23 24  1  0
 24 25  2  0
 25 26  1  0
 26 27  2  0
 27 28  1  0
 28 29  2  0
 16 30  1  0
 30 31  2  0
 30 32  1  0
 32 33  1  0
 33 34  2  0
  9  4  1  0
 33 14  1  0
 23 18  1  0
 29 24  1  0
  3 35  1  0
  3 36  1  0
  5 37  1  0
  6 38  1  0
  7 39  1  0
  8 40  1  0
  9 41  1  0
 13 42  1  0
 13 43  1  0
 15 44  1  0
 17 45  1  0
 17 46  1  0
 19 47  1  0
 20 48  1  0
 21 49  1  0
 22 50  1  0
 25 51  1  0
 26 52  1  0
 27 53  1  0
 28 54  1  0
 29 55  1  0
 32 56  1  0
M  CHG  1  12  -1
M  END
>  <UniqueID>  (55) 
53

>  <SMILES>  (55) 
O=C(Cc1ccccc1)C(=O)[N-]Cc1cn(Cc2ccccc2-c2ccccc2)c(=O)[nH]c1=O

>  <Energy>  (55) 
69.54887737001

>  <Genealogy>  (55) 
O=C(Cc1ccccc1)C(=O)[N-]Cc1cn(Cc2ccccc2-c2ccccc2)c(=O)[nH]c1=O (protonated)
O=C(Cc1ccccc1)C(=O)[N-]Cc1cn(Cc2ccccc2-c2ccccc2)c(=O)[nH]c1=O (3D coordinates assigned)
O=C(Cc1ccccc1)C(=O)[N-]Cc1cn(Cc2ccccc2-c2ccccc2)c(=O)[nH]c1=O (optimized conformer: 69.54887737001 kcal/mol)

>  <smiles>  (55) 
O=C(Cc1ccccc1)C(=O)NCc1cn(Cc2ccccc2-c2ccccc2)c(=O)[nH]c1=O

>  <score_type>  (55) 
oracle

>  <origin>  (55) 
adg

>  <m_score__min__energy>  (55) 
-11.6

>  <m_primary>  (55) 
energy

$$$$
55:0
     RDKit          3D

 49 51  0  0  0  0  0  0  0  0999 V2000
   58.4453   33.3660   49.7906 H   0  0  0  0  0  0  0  0  0  0  0  0
   59.4010   33.3750   49.2460 C   0  0  0  0  0  0  0  0  0  0  0  0
   60.5800   33.0230   49.7560 C   0  0  0  0  0  0  0  0  0  0  0  0
   60.7586   32.6814   50.7862 H   0  0  0  0  0  0  0  0  0  0  0  0
   61.5940   33.1670   48.7180 C   0  0  0  0  0  0  0  0  0  0  0  0
   62.9640   32.9090   48.7790 C   0  0  0  0  0  0  0  0  0  0  0  0
   63.4303   32.5495   49.7081 H   0  0  0  0  0  0  0  0  0  0  0  0
   63.7320   33.1210   47.6210 C   0  0  0  0  0  0  0  0  0  0  0  0
   64.8147   32.9279   47.6398 H   0  0  0  0  0  0  0  0  0  0  0  0
   63.1220   33.5800   46.4350 C   0  0  0  0  0  0  0  0  0  0  0  0
   63.7316   33.7418   45.5338 H   0  0  0  0  0  0  0  0  0  0  0  0
   61.7390   33.8320   46.3980 C   0  0  0  0  0  0  0  0  0  0  0  0
   61.2542   34.1915   45.4784 H   0  0  0  0  0  0  0  0  0  0  0  0
   60.9980   33.6130   47.5620 C   0  0  0  0  0  0  0  0  0  0  0  0
   59.5750   33.7790   47.8370 C   0  0  0  0  0  0  0  0  0  0  0  0
   58.6320   34.1470   46.9580 C   0  0  0  0  0  0  0  0  0  0  0  0
   58.0627   35.0655   47.1634 H   0  0  0  0  0  0  0  0  0  0  0  0
   58.3130   33.3910   45.7300 C   0  0  0  0  0  0  0  0  0  0  0  0
   58.8130   33.7830   44.4780 C   0  0  0  0  0  0  0  0  0  0  0  0
   59.4390   34.6837   44.3950 H   0  0  0  0  0  0  0  0  0  0  0  0
   58.5180   33.0330   43.3380 C   0  0  0  0  0  0  0  0  0  0  0  0
   58.9047   33.3501   42.3582 H   0  0  0  0  0  0  0  0  0  0  0  0
   57.7340   31.8820   43.4370 C   0  0  0  0  0  0  0  0  0  0  0  0
   57.5024   31.2974   42.5344 H   0  0  0  0  0  0  0  0  0  0  0  0
   57.2390   31.4670   44.6870 C   0  0  0  0  0  0  0  0  0  0  0  0
   56.4340   30.3270   44.8520 O   0  0  0  0  0  0  0  0  0  0  0  0
   56.8750   28.9680   44.8050 C   0  0  0  0  0  0  0  0  0  0  0  0
   56.5166   28.5068   43.8729 H   0  0  0  0  0  0  0  0  0  0  0  0
   56.4692   28.4403   45.6807 H   0  0  0  0  0  0  0  0  0  0  0  0
   58.4070   28.8780   44.8510 C   0  0  0  0  0  0  0  0  0  0  0  0
   58.8214   29.3667   43.9569 H   0  0  0  0  0  0  0  0  0  0  0  0
   58.6911   27.8158   44.8816 H   0  0  0  0  0  0  0  0  0  0  0  0
   58.9530   29.5450   46.0650 N   0  0  0  0  0  0  0  0  0  0  0  0
   60.4300   29.6640   45.9850 C   0  0  0  0  0  0  0  0  0  0  0  0
   60.8660   29.3529   46.9458 H   0  0  0  0  0  0  0  0  0  0  0  0
   60.6797   30.7118   45.7619 H   0  0  0  0  0  0  0  0  0  0  0  0
   61.0040   28.7880   44.8730 C   0  0  0  0  0  0  0  0  0  0  0  0
   61.5556   27.9463   45.3171 H   0  0  0  0  0  0  0  0  0  0  0  0
   60.1837   28.4012   44.2506 H   0  0  0  0  0  0  0  0  0  0  0  0
   61.6861   29.3857   44.2506 H   0  0  0  0  0  0  0  0  0  0  0  0
   58.5950   28.8050   47.3010 C   0  0  0  0  0  0  0  0  0  0  0  0
   57.5051   28.8581   47.4402 H   0  0  0  0  0  0  0  0  0  0  0  0
   58.9385   27.7671   47.1791 H   0  0  0  0  0  0  0  0  0  0  0  0
   59.2760   29.3750   48.5460 C   0  0  0  0  0  0  0  0  0  0  0  0
   58.7918   28.9698   49.4468 H   0  0  0  0  0  0  0  0  0  0  0  0
   60.3395   29.0939   48.5434 H   0  0  0  0  0  0  0  0  0  0  0  0
   59.1865   30.4714   48.5434 H   0  0  0  0  0  0  0  0  0  0  0  0
   57.5550   32.2150   45.8280 C   0  0  0  0  0  0  0  0  0  0  0  0
   57.2042   31.8758   46.8138 H   0  0  0  0  0  0  0  0  0  0  0  0
  1  2  1  0
  2  3  2  0
  3  4  1  0
  3  5  1  0
  5  6  2  0
  6  7  1  0
  6  8  1  0
  8  9  1  0
  8 10  2  0
 10 11  1  0
 10 12  1  0
 12 13  1  0
 12 14  2  0
 14 15  1  0
 15 16  2  0
 16 17  1  0
 16 18  1  0
 18 19  2  0
 19 20  1  0
 19 21  1  0
 21 22  1  0
 21 23  2  0
 23 24  1  0
 23 25  1  0
 25 26  1  0
 26 27  1  0
 27 28  1  0
 27 29  1  0
 27 30  1  0
 30 31  1  0
 30 32  1  0
 30 33  1  0
 33 34  1  0
 34 35  1  0
 34 36  1  0
 34 37  1  0
 37 38  1  0
 37 39  1  0
 37 40  1  0
 33 41  1  0
 41 42  1  0
 41 43  1  0
 41 44  1  0
 44 45  1  0
 44 46  1  0
 44 47  1  0
 25 48  2  0
 48 49  1  0
 15  2  1  0
 48 18  1  0
 14  5  1  0
M  END
>  <UniqueID>  (56) 
54

>  <SMILES>  (56) 
CCN(CC)CCOc1cccc(/C=C2\C=Cc3ccccc32)c1

>  <Energy>  (56) 
81.50367276609337

>  <Genealogy>  (56) 
CCN(CC)CCOc1cccc(/C=C2\C=Cc3ccccc32)c1 (cis-trans isomerization)
CCN(CC)CCOc1cccc(/C=C2\C=Cc3ccccc32)c1 (3D coordinates assigned)
CCN(CC)CCOc1cccc(/C=C2\C=Cc3ccccc32)c1 (nonaromatic ring conformer: 81.50367276609337 kcal/mol)

>  <smiles>  (56) 
CCN(CC)CCOc1cccc(C=C2C=Cc3ccccc32)c1

>  <score_type>  (56) 
oracle

>  <origin>  (56) 
adg

>  <m_score__min__energy>  (56) 
-8.0600000000000005

>  <m_primary>  (56) 
energy

$$$$
56:0
     RDKit          3D

 28 29  0  0  0  0  0  0  0  0999 V2000
   57.9650   31.8930   43.0270 C   0  0  0  0  0  0  0  0  0  0  0  0
   57.2780   31.6360   44.6490 S   0  0  0  0  0  0  0  0  0  0  0  0
   56.9780   32.9690   45.2710 O   0  0  0  0  0  0  0  0  0  0  0  0
   56.0020   30.8490   44.5290 O   0  0  0  0  0  0  0  0  0  0  0  0
   58.4350   30.7550   45.6840 C   0  0  0  0  0  0  0  0  0  0  0  0
   58.2660   29.2690   45.5270 C   0  0  0  0  0  0  0  0  0  0  0  0
   59.3330   28.4780   45.0740 C   0  0  0  0  0  0  0  0  0  0  0  0
   59.1630   27.1040   44.8920 C   0  0  0  0  0  0  0  0  0  0  0  0
   57.9260   26.5070   45.1610 C   0  0  0  0  0  0  0  0  0  0  0  0
   56.8490   27.2900   45.6110 C   0  0  0  0  0  0  0  0  0  0  0  0
   57.0220   28.6690   45.7820 C   0  0  0  0  0  0  0  0  0  0  0  0
   55.5570   26.7180   45.8660 N   0  0  0  0  0  0  0  0  0  0  0  0
   55.2580   25.3160   45.8990 C   0  0  0  0  0  0  0  0  0  0  0  0
   54.0570   24.9490   45.9890 O   0  0  0  0  0  0  0  0  0  0  0  0
   56.3400   24.2800   45.9240 C   0  0  0  0  0  0  0  0  0  0  0  0
   57.7020   24.7890   44.9020 S   0  0  0  0  0  0  0  0  0  0  0  0
   57.3900   24.5240   43.4570 O   0  0  0  0  0  0  0  0  0  0  0  0
   58.9360   24.0320   45.3070 O   0  0  0  0  0  0  0  0  0  0  0  0
   58.9916   32.2770   43.1202 H   0  0  0  0  0  0  0  0  0  0  0  0
   57.9787   30.9392   42.4792 H   0  0  0  0  0  0  0  0  0  0  0  0
   57.3493   32.6216   42.4792 H   0  0  0  0  0  0  0  0  0  0  0  0
   59.4599   31.0338   45.3979 H   0  0  0  0  0  0  0  0  0  0  0  0
   58.2447   31.0230   46.7337 H   0  0  0  0  0  0  0  0  0  0  0  0
   60.3073   28.9423   44.8614 H   0  0  0  0  0  0  0  0  0  0  0  0
   60.0032   26.4894   44.5364 H   0  0  0  0  0  0  0  0  0  0  0  0
   56.1768   29.2873   46.1187 H   0  0  0  0  0  0  0  0  0  0  0  0
   56.6915   24.1468   46.9578 H   0  0  0  0  0  0  0  0  0  0  0  0
   55.9374   23.3316   45.5387 H   0  0  0  0  0  0  0  0  0  0  0  0
  1  2  1  0
  2  3  2  0
  2  4  2  0
  2  5  1  0
  5  6  1  0
  6  7  2  0
  7  8  1  0
  8  9  2  0
  9 10  1  0
 10 11  2  0
 10 12  1  0
 12 13  1  0
 13 14  2  0
 13 15  1  0
 15 16  1  0
 16 17  2  0
 16 18  2  0
 11  6  1  0
 16  9  1  0
  1 19  1  0
  1 20  1  0
  1 21  1  0
  5 22  1  0
  5 23  1  0
  7 24  1  0
  8 25  1  0
 11 26  1  0
 15 27  1  0
 15 28  1  0
M  CHG  1  12  -1
M  END
>  <UniqueID>  (57) 
55

>  <SMILES>  (57) 
CS(=O)(=O)Cc1ccc2c(c1)[N-]C(=O)CS2(=O)=O

>  <Energy>  (57) 
19.553974471781082

>  <Genealogy>  (57) 
CS(=O)(=O)Cc1ccc2c(c1)[N-]C(=O)CS2(=O)=O (protonated)
CS(=O)(=O)Cc1ccc2c(c1)[N-]C(=O)CS2(=O)=O (3D coordinates assigned)
CS(=O)(=O)Cc1ccc2c(c1)[N-]C(=O)CS2(=O)=O (nonaromatic ring conformer: 19.553974471781082 kcal/mol)

>  <smiles>  (57) 
CS(=O)(=O)Cc1ccc2c(c1)NC(=O)CS2(=O)=O

>  <score_type>  (57) 
oracle

>  <origin>  (57) 
adg

>  <m_score__min__energy>  (57) 
-9.4700000000000006

>  <m_primary>  (57) 
energy

$$$$
57:0
     RDKit          3D

 45 47  0  0  0  0  0  0  0  0999 V2000
   58.7990   29.5590   45.8090 C   0  0  0  0  0  0  0  0  0  0  0  0
   58.9730   30.8760   45.6790 C   0  0  0  0  0  0  0  0  0  0  0  0
   58.1440   31.8630   46.4500 C   0  0  0  0  0  0  0  0  0  0  0  0
   58.9760   32.9740   46.9270 N   0  0  0  0  0  0  0  0  0  0  0  0
   59.2060   34.1400   46.2810 C   0  0  0  0  0  0  0  0  0  0  0  0
   58.6970   34.4770   44.9130 C   0  0  0  0  0  0  0  0  0  0  0  0
   60.0080   34.9630   47.0500 C   0  0  0  0  0  0  0  0  0  0  0  0
   60.2670   34.2770   48.2190 C   0  0  0  0  0  0  0  0  0  0  0  0
   59.5980   33.0680   48.1230 C   0  0  0  0  0  0  0  0  0  0  0  0
   59.6840   31.9770   49.1130 C   0  0  0  0  0  0  0  0  0  0  0  0
   58.7380   31.6540   50.0290 C   0  0  0  0  0  0  0  0  0  0  0  0
   58.2320   32.6510   50.8170 N   0  0  0  0  0  0  0  0  0  0  0  0
   57.2680   32.4240   51.7520 C   0  0  0  0  0  0  0  0  0  0  0  0
   56.7980   33.4050   52.3900 O   0  0  0  0  0  0  0  0  0  0  0  0
   56.7930   31.1080   51.9570 C   0  0  0  0  0  0  0  0  0  0  0  0
   55.8510   30.7610   52.8590 C   0  0  0  0  0  0  0  0  0  0  0  0
   54.4280   30.4900   52.5700 C   0  0  0  0  0  0  0  0  0  0  0  0
   53.9060   29.1950   52.6930 C   0  0  0  0  0  0  0  0  0  0  0  0
   52.5730   28.9410   52.3650 C   0  0  0  0  0  0  0  0  0  0  0  0
   51.7580   29.9720   51.8910 C   0  0  0  0  0  0  0  0  0  0  0  0
   52.2740   31.2710   51.7310 C   0  0  0  0  0  0  0  0  0  0  0  0
   51.4190   32.3630   51.2170 C   0  0  0  0  0  0  0  0  0  0  0  0
   50.7130   33.0490   52.0040 O   0  0  0  0  0  0  0  0  0  0  0  0
   51.3810   32.6480   49.8570 O   0  0  0  0  0  0  0  0  0  0  0  0
   53.6180   31.5180   52.0650 C   0  0  0  0  0  0  0  0  0  0  0  0
   57.3060   30.1190   51.1790 N   0  0  0  0  0  0  0  0  0  0  0  0
   58.2580   30.3390   50.2380 C   0  0  0  0  0  0  0  0  0  0  0  0
   58.7120   29.3500   49.6030 O   0  0  0  0  0  0  0  0  0  0  0  0
   59.4226   28.8620   45.2299 H   0  0  0  0  0  0  0  0  0  0  0  0
   58.0320   29.1706   46.4952 H   0  0  0  0  0  0  0  0  0  0  0  0
   59.7442   31.2485   44.9887 H   0  0  0  0  0  0  0  0  0  0  0  0
   57.3522   32.2586   45.7968 H   0  0  0  0  0  0  0  0  0  0  0  0
   57.7011   31.3530   47.3182 H   0  0  0  0  0  0  0  0  0  0  0  0
   57.7827   35.0823   45.0008 H   0  0  0  0  0  0  0  0  0  0  0  0
   59.4631   35.0470   44.3668 H   0  0  0  0  0  0  0  0  0  0  0  0
   58.4714   33.5492   44.3668 H   0  0  0  0  0  0  0  0  0  0  0  0
   60.3687   35.9672   46.7825 H   0  0  0  0  0  0  0  0  0  0  0  0
   60.8838   34.6225   49.0617 H   0  0  0  0  0  0  0  0  0  0  0  0
   60.6009   31.3693   49.1072 H   0  0  0  0  0  0  0  0  0  0  0  0
   58.5650   33.6360   50.6920 H   0  0  0  0  0  0  0  0  0  0  0  0
   56.1729   30.6717   53.9070 H   0  0  0  0  0  0  0  0  0  0  0  0
   54.5486   28.3763   53.0491 H   0  0  0  0  0  0  0  0  0  0  0  0
   52.1634   27.9266   52.4800 H   0  0  0  0  0  0  0  0  0  0  0  0
   50.7065   29.7669   51.6414 H   0  0  0  0  0  0  0  0  0  0  0  0
   54.0374   32.5258   51.9290 H   0  0  0  0  0  0  0  0  0  0  0  0
  1  2  2  0
  2  3  1  0
  3  4  1  0
  4  5  1  0
  5  6  1  0
  5  7  2  0
  7  8  1  0
  8  9  2  0
  9 10  1  0
 10 11  2  3
 11 12  1  0
 12 13  1  0
 13 14  2  0
 13 15  1  0
 15 16  2  3
 16 17  1  0
 17 18  2  0
 18 19  1  0
 19 20  2  0
 20 21  1  0
 21 22  1  0
 22 23  2  0
 22 24  1  0
 21 25  2  0
 15 26  1  0
 26 27  1  0
 27 28  2  0
  9  4  1  0
 27 11  1  0
 25 17  1  0
  1 29  1  0
  1 30  1  0
  2 31  1  0
  3 32  1  0
  3 33  1  0
  6 34  1  0
  6 35  1  0
  6 36  1  0
  7 37  1  0
  8 38  1  0
 10 39  1  0
 12 40  1  0
 16 41  1  0
 18 42  1  0
 19 43  1  0
 20 44  1  0
 25 45  1  0
M  CHG  2  24  -1  26  -1
M  END
>  <UniqueID>  (58) 
56

>  <SMILES>  (58) 
C=CCn1c(C)ccc1C=c1[nH]c(=O)c(=Cc2cccc(C(=O)[O-])c2)[n-]c1=O

>  <Energy>  (58) 
95.76577065222824

>  <Genealogy>  (58) 
C=CCn1c(C)ccc1C=c1[nH]c(=O)c(=Cc2cccc(C(=O)[O-])c2)[n-]c1=O (protonated)
C=CCn1c(C)ccc1C=c1[nH]c(=O)c(=Cc2cccc(C(=O)[O-])c2)[n-]c1=O (3D coordinates assigned)
C=CCn1c(C)ccc1C=c1[nH]c(=O)c(=Cc2cccc(C(=O)[O-])c2)[n-]c1=O (optimized conformer: 95.76577065222824 kcal/mol)

>  <smiles>  (58) 
C=CCn1c(C)ccc1C=c1[nH]c(=O)c(=Cc2cccc(C(=O)O)c2)[nH]c1=O

>  <score_type>  (58) 
oracle

>  <origin>  (58) 
adg

>  <m_score__min__energy>  (58) 
-13.380000000000001

>  <m_primary>  (58) 
energy

$$$$
58:0
     RDKit          3D

 34 35  0  0  0  0  0  0  0  0999 V2000
   55.1180   27.4160   46.2690 H   0  0  0  0  0  0  0  0  0  0  0  0
   55.4730   26.4340   46.2730 N   0  0  0  0  0  0  0  0  0  0  0  0
   57.1980   26.5210   46.2060 S   0  0  0  0  0  0  0  0  0  0  0  0
   57.6930   25.5840   45.1410 O   0  0  0  0  0  0  0  0  0  0  0  0
   57.7760   26.1040   47.5290 O   0  0  0  0  0  0  0  0  0  0  0  0
   57.6910   28.1780   45.8490 C   0  0  0  0  0  0  0  0  0  0  0  0
   58.9780   28.6210   46.1910 C   0  0  0  0  0  0  0  0  0  0  0  0
   59.6742   27.9342   46.6945 H   0  0  0  0  0  0  0  0  0  0  0  0
   59.3860   29.9320   45.8970 C   0  0  0  0  0  0  0  0  0  0  0  0
   60.7030   30.3620   46.2810 N   0  0  0  0  0  0  0  0  0  0  0  0
   61.4510   30.3530   45.5500 H   0  0  0  0  0  0  0  0  0  0  0  0
   61.0310   30.8910   47.5760 C   0  0  0  0  0  0  0  0  0  0  0  0
   62.6040   31.2530   47.8880 S   0  0  0  0  0  0  0  0  0  0  0  0
   59.9860   31.4250   48.4070 N   0  0  0  0  0  0  0  0  0  0  0  0
   59.4710   32.6220   48.3790 C   0  0  0  0  0  0  0  0  0  0  0  0
   59.3906   33.1685   49.3303 H   0  0  0  0  0  0  0  0  0  0  0  0
   58.9880   33.2940   47.1550 C   0  0  0  0  0  0  0  0  0  0  0  0
   57.6070   33.3310   46.9060 C   0  0  0  0  0  0  0  0  0  0  0  0
   56.9111   32.8538   47.6117 H   0  0  0  0  0  0  0  0  0  0  0  0
   57.1110   33.9710   45.7660 C   0  0  0  0  0  0  0  0  0  0  0  0
   56.0287   33.9839   45.5699 H   0  0  0  0  0  0  0  0  0  0  0  0
   57.9890   34.5940   44.8760 C   0  0  0  0  0  0  0  0  0  0  0  0
   57.5982   35.0891   43.9748 H   0  0  0  0  0  0  0  0  0  0  0  0
   59.3630   34.5890   45.1290 C   0  0  0  0  0  0  0  0  0  0  0  0
   60.0507   35.0859   44.4289 H   0  0  0  0  0  0  0  0  0  0  0  0
   59.8690   33.9530   46.2720 C   0  0  0  0  0  0  0  0  0  0  0  0
   61.2370   33.9910   46.5400 O   0  0  0  0  0  0  0  0  0  0  0  0
   61.6580   33.3910   47.2410 H   0  0  0  0  0  0  0  0  0  0  0  0
   58.4750   30.8120   45.2860 C   0  0  0  0  0  0  0  0  0  0  0  0
   58.7729   31.8500   45.0766 H   0  0  0  0  0  0  0  0  0  0  0  0
   57.1940   30.3740   44.9440 C   0  0  0  0  0  0  0  0  0  0  0  0
   56.4916   31.0650   44.4550 H   0  0  0  0  0  0  0  0  0  0  0  0
   56.8000   29.0620   45.2200 C   0  0  0  0  0  0  0  0  0  0  0  0
   55.5200   28.6470   44.8690 O   0  0  0  0  0  0  0  0  0  0  0  0
  1  2  1  0
  2  3  1  0
  3  4  2  0
  3  5  2  0
  3  6  1  0
  6  7  2  0
  7  8  1  0
  7  9  1  0
  9 10  1  0
 10 11  1  0
 10 12  1  0
 12 13  2  0
 12 14  1  0
 14 15  2  0
 15 16  1  0
 15 17  1  0
 17 18  2  0
 18 19  1  0
 18 20  1  0
 20 21  1  0
 20 22  2  0
 22 23  1  0
 22 24  1  0
 24 25  1  0
 24 26  2  0
 26 27  1  0
 27 28  1  0
  9 29  2  0
 29 30  1  0
 29 31  1  0
 31 32  1  0
 31 33  2  0
 33 34  1  0
 33  6  1  0
 26 17  1  0
M  CHG  2   2  -1  34  -1
M  END
>  <UniqueID>  (59) 
57

>  <SMILES>  (59) 
[NH-]S(=O)(=O)c1cc(NC(=S)/N=C\c2ccccc2O)ccc1[O-]

>  <Energy>  (59) 
49.96009189605517

>  <Genealogy>  (59) 
[NH-]S(=O)(=O)c1cc(NC(=S)N=Cc2ccccc2O)ccc1[O-] (protonated)
[NH-]S(=O)(=O)c1cc(NC(=S)/N=C\c2ccccc2O)ccc1[O-] (cis-trans isomerization)
[NH-]S(=O)(=O)c1cc(NC(=S)/N=C\c2ccccc2O)ccc1[O-] (3D coordinates assigned)
[NH-]S(=O)(=O)c1cc(NC(=S)/N=C\c2ccccc2O)ccc1[O-] (optimized conformer: 49.96009189605517 kcal/mol)

>  <smiles>  (59) 
NS(=O)(=O)c1cc(NC(=S)N=Cc2ccccc2O)ccc1O

>  <score_type>  (59) 
oracle

>  <origin>  (59) 
adg

>  <m_score__min__energy>  (59) 
-13.369999999999999

>  <m_primary>  (59) 
energy

$$$$
59:0
     RDKit          3D

 62 64  0  0  0  0  0  0  0  0999 V2000
   59.7490   35.0610   46.1240 C   0  0  0  0  0  0  0  0  0  0  0  0
   59.3270   33.6480   46.4270 C   0  0  0  0  0  0  0  0  0  0  0  0
   58.5530   32.9670   45.4730 C   0  0  0  0  0  0  0  0  0  0  0  0
   58.1710   31.6390   45.6740 C   0  0  0  0  0  0  0  0  0  0  0  0
   58.5600   30.9640   46.8370 C   0  0  0  0  0  0  0  0  0  0  0  0
   58.2200   29.5890   47.0710 N   0  0  0  0  0  0  0  0  0  0  0  0
   58.4820   28.4790   46.2020 C   0  0  0  0  0  0  0  0  0  0  0  0
   59.4780   28.4930   45.4280 O   0  0  0  0  0  0  0  0  0  0  0  0
   57.5510   27.3220   46.1910 C   0  0  0  0  0  0  0  0  0  0  0  0
   57.9050   26.0470   46.7080 C   0  0  0  0  0  0  0  0  0  0  0  0
   59.3190   25.8220   47.2190 C   0  0  0  0  0  0  0  0  0  0  0  0
   56.9520   25.0430   46.7720 N   0  0  0  0  0  0  0  0  0  0  0  0
   57.2450   23.7350   47.4020 C   0  0  0  0  0  0  0  0  0  0  0  0
   57.3010   22.6470   46.3720 C   0  0  0  0  0  0  0  0  0  0  0  0
   57.8530   21.5480   46.6560 O   0  0  0  0  0  0  0  0  0  0  0  0
   56.7400   22.8620   45.0680 N   0  0  0  0  0  0  0  0  0  0  0  0
   56.8610   21.8780   43.9900 C   0  0  0  0  0  0  0  0  0  0  0  0
   58.3340   21.5290   43.7690 C   0  0  0  0  0  0  0  0  0  0  0  0
   56.2410   22.4300   42.7010 C   0  0  0  0  0  0  0  0  0  0  0  0
   55.6900   25.2780   46.2750 C   0  0  0  0  0  0  0  0  0  0  0  0
   54.7950   24.3890   46.3240 O   0  0  0  0  0  0  0  0  0  0  0  0
   55.3740   26.4740   45.7300 N   0  0  0  0  0  0  0  0  0  0  0  0
   56.2590   27.4910   45.6770 C   0  0  0  0  0  0  0  0  0  0  0  0
   55.8940   28.5920   45.1830 O   0  0  0  0  0  0  0  0  0  0  0  0
   59.3580   31.6220   47.7750 C   0  0  0  0  0  0  0  0  0  0  0  0
   59.7380   32.9640   47.5990 C   0  0  0  0  0  0  0  0  0  0  0  0
   60.7240   33.7110   48.8800 S   0  0  0  0  0  0  0  0  0  0  0  0
   60.0280   34.9690   49.3220 O   0  0  0  0  0  0  0  0  0  0  0  0
   60.8000   32.8110   50.0800 O   0  0  0  0  0  0  0  0  0  0  0  0
   62.3390   34.1520   48.3480 N   0  0  0  0  0  0  0  0  0  0  0  0
   62.7000   33.5440   47.0550 C   0  0  0  0  0  0  0  0  0  0  0  0
   63.2860   32.1200   47.2000 C   0  0  0  0  0  0  0  0  0  0  0  0
   63.3500   31.6950   48.5450 O   0  0  0  0  0  0  0  0  0  0  0  0
   64.0970   32.6220   49.2980 C   0  0  0  0  0  0  0  0  0  0  0  0
   63.3800   33.9840   49.3800 C   0  0  0  0  0  0  0  0  0  0  0  0
   59.9115   35.6051   47.0661 H   0  0  0  0  0  0  0  0  0  0  0  0
   60.6825   35.0481   45.5423 H   0  0  0  0  0  0  0  0  0  0  0  0
   58.9613   35.5622   45.5423 H   0  0  0  0  0  0  0  0  0  0  0  0
   58.2434   33.4872   44.5545 H   0  0  0  0  0  0  0  0  0  0  0  0
   57.5631   31.1222   44.9168 H   0  0  0  0  0  0  0  0  0  0  0  0
   59.3158   25.8225   48.3190 H   0  0  0  0  0  0  0  0  0  0  0  0
   59.6910   24.8534   46.8539 H   0  0  0  0  0  0  0  0  0  0  0  0
   59.9733   26.6273   46.8539 H   0  0  0  0  0  0  0  0  0  0  0  0
   58.2146   23.7928   47.9182 H   0  0  0  0  0  0  0  0  0  0  0  0
   56.4428   23.5014   48.1175 H   0  0  0  0  0  0  0  0  0  0  0  0
   56.2860   23.7830   44.8690 H   0  0  0  0  0  0  0  0  0  0  0  0
   56.3196   20.9634   44.2735 H   0  0  0  0  0  0  0  0  0  0  0  0
   58.8328   21.4108   44.7422 H   0  0  0  0  0  0  0  0  0  0  0  0
   58.4071   20.5887   43.2029 H   0  0  0  0  0  0  0  0  0  0  0  0
   58.8212   22.3366   43.2029 H   0  0  0  0  0  0  0  0  0  0  0  0
   55.4415   23.1418   42.9543 H   0  0  0  0  0  0  0  0  0  0  0  0
   57.0156   22.9429   42.1120 H   0  0  0  0  0  0  0  0  0  0  0  0
   55.8211   21.6013   42.1120 H   0  0  0  0  0  0  0  0  0  0  0  0
   59.6963   31.0792   48.6700 H   0  0  0  0  0  0  0  0  0  0  0  0
   61.7972   33.4896   46.4289 H   0  0  0  0  0  0  0  0  0  0  0  0
   63.4775   34.1752   46.6000 H   0  0  0  0  0  0  0  0  0  0  0  0
   62.6513   31.4187   46.6385 H   0  0  0  0  0  0  0  0  0  0  0  0
   64.3132   32.1402   46.8071 H   0  0  0  0  0  0  0  0  0  0  0  0
   64.2356   32.2282   50.3157 H   0  0  0  0  0  0  0  0  0  0  0  0
   65.0678   32.7699   48.8024 H   0  0  0  0  0  0  0  0  0  0  0  0
   62.9092   34.0730   50.3702 H   0  0  0  0  0  0  0  0  0  0  0  0
   64.1371   34.7643   49.2129 H   0  0  0  0  0  0  0  0  0  0  0  0
  1  2  1  0
  2  3  2  0
  3  4  1  0
  4  5  2  0
  5  6  1  0
  6  7  1  0
  7  8  2  0
  7  9  1  0
  9 10  2  0
 10 11  1  0
 10 12  1  0
 12 13  1  0
 13 14  1  0
 14 15  2  0
 14 16  1  0
 16 17  1  0
 17 18  1  0
 17 19  1  0
 12 20  1  0
 20 21  2  0
 20 22  1  0
 22 23  1  0
 23 24  2  0
  5 25  1  0
 25 26  2  0
 26 27  1  0
 27 28  2  0
 27 29  2  0
 27 30  1  0
 30 31  1  0
 31 32  1  0
 32 33  1  0
 33 34  1  0
 34 35  1  0
 26  2  1  0
 35 30  1  0
 23  9  1  0
  1 36  1  0
  1 37  1  0
  1 38  1  0
  3 39  1  0
  4 40  1  0
 11 41  1  0
 11 42  1  0
 11 43  1  0
 13 44  1  0
 13 45  1  0
 16 46  1  0
 17 47  1  0
 18 48  1  0
 18 49  1  0
 18 50  1  0
 19 51  1  0
 19 52  1  0
 19 53  1  0
 25 54  1  0
 31 55  1  0
 31 56  1  0
 32 57  1  0
 32 58  1  0
 34 59  1  0
 34 60  1  0
 35 61  1  0
 35 62  1  0
M  CHG  2   6  -1  22  -1
M  END
>  <UniqueID>  (60) 
58

>  <SMILES>  (60) 
Cc1ccc([N-]C(=O)c2c(C)n(CC(=O)NC(C)C)c(=O)[n-]c2=O)cc1S(=O)(=O)N1CCOCC1

>  <Energy>  (60) 
87.97297481737918

>  <Genealogy>  (60) 
Cc1ccc([N-]C(=O)c2c(C)n(CC(=O)NC(C)C)c(=O)[n-]c2=O)cc1S(=O)(=O)N1CCOCC1 (protonated)
Cc1ccc([N-]C(=O)c2c(C)n(CC(=O)NC(C)C)c(=O)[n-]c2=O)cc1S(=O)(=O)N1CCOCC1 (3D coordinates assigned)
Cc1ccc([N-]C(=O)c2c(C)n(CC(=O)NC(C)C)c(=O)[n-]c2=O)cc1S(=O)(=O)N1CCOCC1 (nonaromatic ring conformer: 87.97297481737918 kcal/mol)

>  <smiles>  (60) 
Cc1ccc(NC(=O)c2c(C)n(CC(=O)NC(C)C)c(=O)[nH]c2=O)cc1S(=O)(=O)N1CCOCC1

>  <score_type>  (60) 
oracle

>  <origin>  (60) 
adg

>  <m_score__min__energy>  (60) 
-11.85

>  <m_primary>  (60) 
energy

$$$$
60:0
     RDKit          3D

 52 56  0  0  0  0  0  0  0  0999 V2000
   58.2492   32.5729   43.3569 H   0  0  0  0  0  0  0  0  0  0  0  0
   57.7530   31.6720   43.7470 C   0  0  0  0  0  0  0  0  0  0  0  0
   57.9160   31.3010   45.0900 C   0  0  0  0  0  0  0  0  0  0  0  0
   58.7020   32.1100   45.9900 N   0  0  0  0  0  0  0  0  0  0  0  0
   60.0010   31.5660   46.4630 C   0  0  0  0  0  0  0  0  0  0  0  0
   60.1390   30.3120   46.4450 O   0  0  0  0  0  0  0  0  0  0  0  0
   61.1460   32.3790   46.9510 N   0  0  0  0  0  0  0  0  0  0  0  0
   62.1670   31.7280   47.7910 C   0  0  0  0  0  0  0  0  0  0  0  0
   61.8349   30.7099   48.0424 H   0  0  0  0  0  0  0  0  0  0  0  0
   63.1155   31.6884   47.2353 H   0  0  0  0  0  0  0  0  0  0  0  0
   62.3760   32.5130   49.0650 C   0  0  0  0  0  0  0  0  0  0  0  0
   61.3290   32.6450   49.9990 C   0  0  0  0  0  0  0  0  0  0  0  0
   60.1370   32.0310   49.7980 F   0  0  0  0  0  0  0  0  0  0  0  0
   61.5110   33.4080   51.1580 C   0  0  0  0  0  0  0  0  0  0  0  0
   60.6902   33.5059   51.8837 H   0  0  0  0  0  0  0  0  0  0  0  0
   62.7290   34.0450   51.3970 C   0  0  0  0  0  0  0  0  0  0  0  0
   62.8652   34.6479   52.3069 H   0  0  0  0  0  0  0  0  0  0  0  0
   63.7750   33.9170   50.4810 C   0  0  0  0  0  0  0  0  0  0  0  0
   64.7363   34.4157   50.6738 H   0  0  0  0  0  0  0  0  0  0  0  0
   63.6050   33.1570   49.3190 C   0  0  0  0  0  0  0  0  0  0  0  0
   64.6420   33.0470   48.4490 F   0  0  0  0  0  0  0  0  0  0  0  0
   61.3860   33.8310   46.6490 C   0  0  0  0  0  0  0  0  0  0  0  0
   61.8209   34.3202   47.5330 H   0  0  0  0  0  0  0  0  0  0  0  0
   62.0792   33.9140   45.7989 H   0  0  0  0  0  0  0  0  0  0  0  0
   60.0730   34.5100   46.2920 C   0  0  1  0  0  0  0  0  0  0  0  0
   60.9104   34.9565   45.7357 H   0  0  0  0  0  0  0  0  0  0  0  0
   59.2340   35.2780   45.2720 C   0  0  0  0  0  0  0  0  0  0  0  0
   59.0402   36.3091   45.6026 H   0  0  0  0  0  0  0  0  0  0  0  0
   59.7105   35.3928   44.2872 H   0  0  0  0  0  0  0  0  0  0  0  0
   57.9240   34.4230   45.2590 C   0  0  0  0  0  0  0  0  0  0  0  0
   57.0455   35.0652   45.4198 H   0  0  0  0  0  0  0  0  0  0  0  0
   57.7808   33.9151   44.2939 H   0  0  0  0  0  0  0  0  0  0  0  0
   58.0740   33.3960   46.4370 C   0  0  2  0  0  0  0  0  0  0  0  0
   57.1109   33.1130   46.8869 H   0  0  0  0  0  0  0  0  0  0  0  0
   59.0220   34.1200   47.3330 C   0  0  0  0  0  0  0  0  0  0  0  0
   58.5577   35.0001   47.8018 H   0  0  0  0  0  0  0  0  0  0  0  0
   59.3952   33.5461   48.1940 H   0  0  0  0  0  0  0  0  0  0  0  0
   57.2780   30.1920   45.5570 N   0  0  0  0  0  0  0  0  0  0  0  0
   56.4950   29.4070   44.7680 C   0  0  0  0  0  0  0  0  0  0  0  0
   55.9330   28.3570   45.2940 N   0  0  0  0  0  0  0  0  0  0  0  0
   56.6290   27.1430   45.7160 C   0  0  0  0  0  0  0  0  0  0  0  0
   55.8045   26.4340   45.5503 H   0  0  0  0  0  0  0  0  0  0  0  0
   58.1140   27.1470   45.4010 C   0  0  0  0  0  0  0  0  0  0  0  0
   58.6261   26.2061   45.1508 H   0  0  0  0  0  0  0  0  0  0  0  0
   58.7576   27.6858   44.6900 H   0  0  0  0  0  0  0  0  0  0  0  0
   57.6340   27.3980   46.8240 C   0  0  0  0  0  0  0  0  0  0  0  0
   57.7993   26.6386   47.6025 H   0  0  0  0  0  0  0  0  0  0  0  0
   57.7870   28.1936   47.5681 H   0  0  0  0  0  0  0  0  0  0  0  0
   56.3240   29.7520   43.4120 C   0  0  0  0  0  0  0  0  0  0  0  0
   55.6975   29.1301   42.7557 H   0  0  0  0  0  0  0  0  0  0  0  0
   56.9570   30.8900   42.9100 C   0  0  0  0  0  0  0  0  0  0  0  0
   56.8282   31.1703   41.8541 H   0  0  0  0  0  0  0  0  0  0  0  0
  1  2  1  0
  2  3  2  0
  3  4  1  0
  4  5  1  0
  5  6  2  0
  5  7  1  0
  7  8  1  0
  8  9  1  0
  8 10  1  0
  8 11  1  0
 11 12  2  0
 12 13  1  0
 12 14  1  0
 14 15  1  0
 14 16  2  0
 16 17  1  0
 16 18  1  0
 18 19  1  0
 18 20  2  0
 20 21  1  0
  7 22  1  0
 22 23  1  0
 22 24  1  0
 22 25  1  0
 25 26  1  6
 25 27  1  0
 27 28  1  0
 27 29  1  0
 27 30  1  0
 30 31  1  0
 30 32  1  0
 30 33  1  0
 33 34  1  1
 33 35  1  0
 35 36  1  0
 35 37  1  0
  3 38  1  0
 38 39  1  0
 39 40  2  0
 40 41  1  0
 41 42  1  0
 41 43  1  0
 43 44  1  0
 43 45  1  0
 43 46  1  0
 46 47  1  0
 46 48  1  0
 39 49  1  0
 49 50  1  0
 49 51  2  0
 51 52  1  0
 51  2  1  0
 33  4  1  0
 46 41  1  0
 20 11  1  0
 35 25  1  0
M  CHG  1  38  -1
M  END
>  <UniqueID>  (61) 
59

>  <SMILES>  (61) 
O=C1N(Cc2c(F)cccc2F)C[C@@H]2CC[C@H](C2)N1c1ccc/c(=N\C2CC2)[n-]1

>  <Energy>  (61) 
443.24710128349426

>  <Genealogy>  (61) 
O=C1N(Cc2c(F)cccc2F)CC2CCC(C2)N1c1cccc(=NC2CC2)[n-]1 (protonated)
O=C1N(Cc2c(F)cccc2F)C[C@@H]2CC[C@H](C2)N1c1cccc(=NC2CC2)[n-]1 (chirality)
O=C1N(Cc2c(F)cccc2F)C[C@@H]2CC[C@H](C2)N1c1ccc/c(=N\C2CC2)[n-]1 (cis-trans isomerization)
O=C1N(Cc2c(F)cccc2F)C[C@@H]2CC[C@H](C2)N1c1ccc/c(=N\C2CC2)[n-]1 (3D coordinates assigned)
O=C1N(Cc2c(F)cccc2F)C[C@@H]2CC[C@H](C2)N1c1ccc/c(=N\C2CC2)[n-]1 (nonaromatic ring conformer: 443.24710128349426 kcal/mol)

>  <smiles>  (61) 
O=C1N(Cc2c(F)cccc2F)CC2CCC(C2)N1c1cccc(=NC2CC2)[nH]1

>  <score_type>  (61) 
oracle

>  <origin>  (61) 
adg

>  <m_score__min__energy>  (61) 
-9.2599999999999998

>  <m_primary>  (61) 
energy

$$$$
61:0
     RDKit          3D

 67 72  0  0  0  0  0  0  0  0999 V2000
   57.0280   31.2060   42.4840 C   0  0  0  0  0  0  0  0  0  0  0  0
   57.1990   30.3450   43.6960 C   0  0  0  0  0  0  0  0  0  0  0  0
   56.8570   29.0430   43.7330 N   0  0  0  0  0  0  0  0  0  0  0  0
   57.1840   28.5730   44.9560 C   0  0  0  0  0  0  0  0  0  0  0  0
   56.9400   27.1660   45.3630 C   0  0  0  0  0  0  0  0  0  0  0  0
   55.8620   26.9160   45.9700 O   0  0  0  0  0  0  0  0  0  0  0  0
   57.8480   26.0660   45.0740 N   0  0  0  0  0  0  0  0  0  0  0  0
   57.3920   25.2270   43.9380 C   0  0  0  0  0  0  0  0  0  0  0  0
   57.6540   23.7400   44.1680 C   0  0  0  0  0  0  0  0  0  0  0  0
   56.9870   23.3150   45.4090 N   0  0  0  0  0  0  0  0  0  0  0  0
   56.9830   21.8360   45.5510 C   0  0  0  0  0  0  0  0  0  0  0  0
   55.9060   21.2890   46.5080 C   0  0  0  0  0  0  0  0  0  0  0  0
   55.1590   20.2000   45.7420 C   0  0  0  0  0  0  0  0  0  0  0  0
   56.0260   19.8480   44.5450 C   0  0  0  0  0  0  0  0  0  0  0  0
   56.8000   21.1110   44.2120 C   0  0  0  0  0  0  0  0  0  0  0  0
   57.4360   24.0670   46.6120 C   0  0  0  0  0  0  0  0  0  0  0  0
   58.2660   25.3310   46.2980 C   0  0  0  0  0  0  0  0  0  0  0  0
   57.7110   29.6010   45.7220 C   0  0  0  0  0  0  0  0  0  0  0  0
   57.7230   30.7280   44.9220 C   0  0  0  0  0  0  0  0  0  0  0  0
   58.2470   32.0490   45.3210 C   0  0  0  0  0  0  0  0  0  0  0  0
   57.6390   33.2300   44.8700 C   0  0  0  0  0  0  0  0  0  0  0  0
   58.1220   34.4730   45.2850 C   0  0  0  0  0  0  0  0  0  0  0  0
   59.2160   34.5490   46.1500 C   0  0  0  0  0  0  0  0  0  0  0  0
   59.8420   33.3780   46.6110 C   0  0  0  0  0  0  0  0  0  0  0  0
   61.0100   33.4550   47.5180 C   0  0  0  0  0  0  0  0  0  0  0  0
   62.3000   33.0110   47.2160 C   0  0  0  0  0  0  0  0  0  0  0  0
   63.0430   33.2730   48.3460 C   0  0  0  0  0  0  0  0  0  0  0  0
   64.3890   33.0420   48.6190 C   0  0  0  0  0  0  0  0  0  0  0  0
   64.8730   33.4130   49.8880 C   0  0  0  0  0  0  0  0  0  0  0  0
   64.0090   33.9970   50.8400 C   0  0  0  0  0  0  0  0  0  0  0  0
   62.6540   34.2150   50.5340 C   0  0  0  0  0  0  0  0  0  0  0  0
   62.2050   33.8440   49.2660 C   0  0  0  0  0  0  0  0  0  0  0  0
   60.9610   33.9640   48.7740 N   0  0  0  0  0  0  0  0  0  0  0  0
   59.3430   32.1300   46.1980 C   0  0  0  0  0  0  0  0  0  0  0  0
   56.8225   32.2408   42.7954 H   0  0  0  0  0  0  0  0  0  0  0  0
   57.9489   31.1800   41.8829 H   0  0  0  0  0  0  0  0  0  0  0  0
   56.1870   30.8301   41.8829 H   0  0  0  0  0  0  0  0  0  0  0  0
   56.4370   28.4950   42.9480 H   0  0  0  0  0  0  0  0  0  0  0  0
   58.7340   26.5180   44.7380 H   0  0  0  0  0  0  0  0  0  0  0  0
   56.3112   25.3776   43.7996 H   0  0  0  0  0  0  0  0  0  0  0  0
   57.9600   25.5329   43.0470 H   0  0  0  0  0  0  0  0  0  0  0  0
   57.2570   23.1616   43.3208 H   0  0  0  0  0  0  0  0  0  0  0  0
   58.7367   23.5654   44.2531 H   0  0  0  0  0  0  0  0  0  0  0  0
   57.9772   21.6315   45.9749 H   0  0  0  0  0  0  0  0  0  0  0  0
   56.3765   20.8661   47.4079 H   0  0  0  0  0  0  0  0  0  0  0  0
   55.2221   22.0861   46.8349 H   0  0  0  0  0  0  0  0  0  0  0  0
   55.0147   19.3161   46.3806 H   0  0  0  0  0  0  0  0  0  0  0  0
   54.1634   20.5451   45.4263 H   0  0  0  0  0  0  0  0  0  0  0  0
   56.7169   19.0307   44.7991 H   0  0  0  0  0  0  0  0  0  0  0  0
   55.4210   19.5062   43.6923 H   0  0  0  0  0  0  0  0  0  0  0  0
   57.7767   20.8602   43.7726 H   0  0  0  0  0  0  0  0  0  0  0  0
   56.2716   21.7347   43.4759 H   0  0  0  0  0  0  0  0  0  0  0  0
   56.5448   24.3723   47.1799 H   0  0  0  0  0  0  0  0  0  0  0  0
   58.0933   23.3912   47.1788 H   0  0  0  0  0  0  0  0  0  0  0  0
   58.1816   26.0167   47.1540 H   0  0  0  0  0  0  0  0  0  0  0  0
   59.2949   24.9873   46.1156 H   0  0  0  0  0  0  0  0  0  0  0  0
   58.0535   29.5330   46.7651 H   0  0  0  0  0  0  0  0  0  0  0  0
   56.7785   33.1769   44.1868 H   0  0  0  0  0  0  0  0  0  0  0  0
   57.6392   35.3952   44.9294 H   0  0  0  0  0  0  0  0  0  0  0  0
   59.5902   35.5318   46.4726 H   0  0  0  0  0  0  0  0  0  0  0  0
   62.6471   32.5516   46.2787 H   0  0  0  0  0  0  0  0  0  0  0  0
   65.0513   32.5853   47.8688 H   0  0  0  0  0  0  0  0  0  0  0  0
   65.9309   33.2469   50.1394 H   0  0  0  0  0  0  0  0  0  0  0  0
   64.3987   34.2834   51.8280 H   0  0  0  0  0  0  0  0  0  0  0  0
   61.9704   34.6633   51.2700 H   0  0  0  0  0  0  0  0  0  0  0  0
   60.1280   34.3490   49.2760 H   0  0  0  0  0  0  0  0  0  0  0  0
   59.8153   31.2069   46.5651 H   0  0  0  0  0  0  0  0  0  0  0  0
  1  2  1  0
  2  3  1  0
  3  4  1  0
  4  5  1  0
  5  6  2  0
  5  7  1  0
  7  8  1  0
  8  9  1  0
  9 10  1  0
 10 11  1  0
 11 12  1  0
 12 13  1  0
 13 14  1  0
 14 15  1  0
 10 16  1  0
 16 17  1  0
  4 18  2  0
 18 19  1  0
 19 20  1  0
 20 21  2  0
 21 22  1  0
 22 23  2  0
 23 24  1  0
 24 25  1  0
 25 26  2  0
 26 27  1  0
 27 28  2  0
 28 29  1  0
 29 30  2  0
 30 31  1  0
 31 32  2  0
 32 33  1  0
 24 34  2  0
 19  2  2  0
 34 20  1  0
 17  7  1  0
 33 25  1  0
 15 11  1  0
 32 27  1  0
  1 35  1  0
  1 36  1  0
  1 37  1  0
  3 38  1  0
  7 39  1  0
  8 40  1  0
  8 41  1  0
  9 42  1  0
  9 43  1  0
 11 44  1  0
 12 45  1  0
 12 46  1  0
 13 47  1  0
 13 48  1  0
 14 49  1  0
 14 50  1  0
 15 51  1  0
 15 52  1  0
 16 53  1  0
 16 54  1  0
 17 55  1  0
 17 56  1  0
 18 57  1  0
 21 58  1  0
 22 59  1  0
 23 60  1  0
 26 61  1  0
 28 62  1  0
 29 63  1  0
 30 64  1  0
 31 65  1  0
 33 66  1  0
 34 67  1  0
M  CHG  1   7   1
M  END
>  <UniqueID>  (62) 
60

>  <SMILES>  (62) 
Cc1[nH]c(C(=O)[NH+]2CCN(C3CCCC3)CC2)cc1-c1cccc(-c2cc3ccccc3[nH]2)c1

>  <Energy>  (62) 
158.77745228166657

>  <Genealogy>  (62) 
Cc1[nH]c(C(=O)[NH+]2CCN(C3CCCC3)CC2)cc1-c1cccc(-c2cc3ccccc3[nH]2)c1 (protonated)
Cc1[nH]c(C(=O)[NH+]2CCN(C3CCCC3)CC2)cc1-c1cccc(-c2cc3ccccc3[nH]2)c1 (3D coordinates assigned)
Cc1[nH]c(C(=O)[NH+]2CCN(C3CCCC3)CC2)cc1-c1cccc(-c2cc3ccccc3[nH]2)c1 (nonaromatic ring conformer: 158.77745228166657 kcal/mol)

>  <smiles>  (62) 
Cc1[nH]c(C(=O)N2CCN(C3CCCC3)CC2)cc1-c1cccc(-c2cc3ccccc3[nH]2)c1

>  <score_type>  (62) 
oracle

>  <origin>  (62) 
adg

>  <m_score__min__energy>  (62) 
-9.4399999999999995

>  <m_primary>  (62) 
energy

$$$$
62:0
     RDKit          3D

 52 55  0  0  0  0  0  0  0  0999 V2000
   50.0410   22.5140   45.1600 C   0  0  0  0  0  0  0  0  0  0  0  0
   51.0470   22.6910   44.1870 O   0  0  0  0  0  0  0  0  0  0  0  0
   51.7230   23.9160   44.3960 C   0  0  0  0  0  0  0  0  0  0  0  0
   52.9130   23.7310   45.3020 C   0  0  0  0  0  0  0  0  0  0  0  0
   53.3120   22.5600   45.5340 O   0  0  0  0  0  0  0  0  0  0  0  0
   53.6590   24.8300   45.8540 N   0  0  0  0  0  0  0  0  0  0  0  0
   54.8880   25.1820   45.6170 C   0  0  0  0  0  0  0  0  0  0  0  0
   55.3800   26.3670   46.0340 N   0  0  0  0  0  0  0  0  0  0  0  0
   56.6720   26.5620   45.6460 C   0  0  0  0  0  0  0  0  0  0  0  0
   57.4150   27.7930   46.0160 C   0  0  0  0  0  0  0  0  0  0  0  0
   58.4720   27.7230   46.9370 C   0  0  0  0  0  0  0  0  0  0  0  0
   59.1750   28.8720   47.3020 C   0  0  0  0  0  0  0  0  0  0  0  0
   58.8520   30.1180   46.7400 C   0  0  0  0  0  0  0  0  0  0  0  0
   59.5680   31.3040   47.1290 N   0  0  0  0  0  0  0  0  0  0  0  0
   61.0010   31.3750   47.1990 C   0  0  0  0  0  0  0  0  0  0  0  0
   61.7020   30.5330   46.5710 O   0  0  0  0  0  0  0  0  0  0  0  0
   61.6720   32.4650   47.9460 C   0  0  0  0  0  0  0  0  0  0  0  0
   60.9470   33.2070   48.8970 C   0  0  0  0  0  0  0  0  0  0  0  0
   61.5630   34.2370   49.6140 C   0  0  0  0  0  0  0  0  0  0  0  0
   62.9050   34.5450   49.3840 C   0  0  0  0  0  0  0  0  0  0  0  0
   63.6320   33.8280   48.4320 C   0  0  0  0  0  0  0  0  0  0  0  0
   63.0240   32.7940   47.7100 C   0  0  0  0  0  0  0  0  0  0  0  0
   63.7450   32.1530   46.7560 F   0  0  0  0  0  0  0  0  0  0  0  0
   57.7940   30.2020   45.8130 C   0  0  0  0  0  0  0  0  0  0  0  0
   57.4450   31.4770   45.2540 N   0  0  0  0  0  0  0  0  0  0  0  0
   57.6050   32.7550   45.8850 C   0  0  0  0  0  0  0  0  0  0  0  0
   57.3040   32.8750   47.1020 O   0  0  0  0  0  0  0  0  0  0  0  0
   58.1440   33.9480   45.1460 C   0  0  0  0  0  0  0  0  0  0  0  0
   59.6610   34.0090   45.0280 C   0  0  0  0  0  0  0  0  0  0  0  0
   58.9410   34.9110   46.0140 C   0  0  0  0  0  0  0  0  0  0  0  0
   57.0700   29.0460   45.4770 C   0  0  0  0  0  0  0  0  0  0  0  0
   57.2150   25.5100   44.9010 C   0  0  0  0  0  0  0  0  0  0  0  0
   56.0350   24.3260   44.7290 S   0  0  0  0  0  0  0  0  0  0  0  0
   50.4840   22.5919   46.1638 H   0  0  0  0  0  0  0  0  0  0  0  0
   49.2716   23.2906   45.0374 H   0  0  0  0  0  0  0  0  0  0  0  0
   49.5829   21.5215   45.0374 H   0  0  0  0  0  0  0  0  0  0  0  0
   52.0666   24.3067   43.4268 H   0  0  0  0  0  0  0  0  0  0  0  0
   51.0273   24.6222   44.8727 H   0  0  0  0  0  0  0  0  0  0  0  0
   58.7489   26.7529   47.3754 H   0  0  0  0  0  0  0  0  0  0  0  0
   59.9902   28.8011   48.0372 H   0  0  0  0  0  0  0  0  0  0  0  0
   59.0300   32.1890   47.2660 H   0  0  0  0  0  0  0  0  0  0  0  0
   59.8871   32.9747   49.0776 H   0  0  0  0  0  0  0  0  0  0  0  0
   60.9893   34.8057   50.3606 H   0  0  0  0  0  0  0  0  0  0  0  0
   63.3895   35.3524   49.9527 H   0  0  0  0  0  0  0  0  0  0  0  0
   64.6877   34.0767   48.2483 H   0  0  0  0  0  0  0  0  0  0  0  0
   57.3075   34.0350   44.4369 H   0  0  0  0  0  0  0  0  0  0  0  0
   60.2750   33.1732   45.3945 H   0  0  0  0  0  0  0  0  0  0  0  0
   60.3708   34.1690   44.2030 H   0  0  0  0  0  0  0  0  0  0  0  0
   59.0338   34.7286   47.0948 H   0  0  0  0  0  0  0  0  0  0  0  0
   58.9138   35.9950   46.1988 H   0  0  0  0  0  0  0  0  0  0  0  0
   56.2206   29.1216   44.7821 H   0  0  0  0  0  0  0  0  0  0  0  0
   58.2374   25.4655   44.4976 H   0  0  0  0  0  0  0  0  0  0  0  0
  1  2  1  0
  2  3  1  0
  3  4  1  0
  4  5  2  0
  4  6  1  0
  6  7  2  3
  7  8  1  0
  8  9  1  0
  9 10  1  0
 10 11  2  0
 11 12  1  0
 12 13  2  0
 13 14  1  0
 14 15  1  0
 15 16  2  0
 15 17  1  0
 17 18  2  0
 18 19  1  0
 19 20  2  0
 20 21  1  0
 21 22  2  0
 22 23  1  0
 13 24  1  0
 24 25  1  0
 25 26  1  0
 26 27  2  0
 26 28  1  0
 28 29  1  0
 29 30  1  0
 24 31  2  0
  9 32  2  0
 32 33  1  0
 33  7  1  0
 31 10  1  0
 22 17  1  0
 30 28  1  0
  1 34  1  0
  1 35  1  0
  1 36  1  0
  3 37  1  0
  3 38  1  0
 11 39  1  0
 12 40  1  0
 14 41  1  0
 18 42  1  0
 19 43  1  0
 20 44  1  0
 21 45  1  0
 28 46  1  0
 29 47  1  0
 29 48  1  0
 30 49  1  0
 30 50  1  0
 31 51  1  0
 32 52  1  0
M  CHG  2   8  -1  25  -1
M  END
>  <UniqueID>  (63) 
61

>  <SMILES>  (63) 
COCC(=O)N=c1[n-]c(-c2ccc(NC(=O)c3ccccc3F)c([N-]C(=O)C3CC3)c2)cs1

>  <Energy>  (63) 
369.53988926562386

>  <Genealogy>  (63) 
COCC(=O)N=c1[n-]c(-c2ccc(NC(=O)c3ccccc3F)c([N-]C(=O)C3CC3)c2)cs1 (protonated)
COCC(=O)N=c1[n-]c(-c2ccc(NC(=O)c3ccccc3F)c([N-]C(=O)C3CC3)c2)cs1 (3D coordinates assigned)
COCC(=O)N=c1[n-]c(-c2ccc(NC(=O)c3ccccc3F)c([N-]C(=O)C3CC3)c2)cs1 (nonaromatic ring conformer: 369.53988926562386 kcal/mol)

>  <smiles>  (63) 
COCC(=O)N=c1[nH]c(-c2ccc(NC(=O)c3ccccc3F)c(NC(=O)C3CC3)c2)cs1

>  <score_type>  (63) 
oracle

>  <origin>  (63) 
adg

>  <m_score__min__energy>  (63) 
-12.31

>  <m_primary>  (63) 
energy

$$$$
63:0
     RDKit          3D

 58 61  0  0  0  0  0  0  0  0999 V2000
   54.7500   26.2130   45.8910 N   0  0  0  0  0  0  0  0  0  0  0  0
   56.1130   26.4620   46.2280 C   0  0  0  0  0  0  0  0  0  0  0  0
   56.7160   25.6570   46.9880 O   0  0  0  0  0  0  0  0  0  0  0  0
   56.8140   27.6530   45.6960 C   0  0  0  0  0  0  0  0  0  0  0  0
   58.1810   27.8510   45.9540 C   0  0  0  0  0  0  0  0  0  0  0  0
   58.8360   28.9870   45.4750 C   0  0  0  0  0  0  0  0  0  0  0  0
   58.1410   29.9530   44.7420 C   0  0  0  0  0  0  0  0  0  0  0  0
   58.8330   31.1100   44.3470 O   0  0  0  0  0  0  0  0  0  0  0  0
   58.8740   32.3290   45.0900 C   0  0  0  0  0  0  0  0  0  0  0  0
   58.6000   33.5100   44.1490 C   0  0  0  0  0  0  0  0  0  0  0  0
   58.1110   34.7820   44.8770 C   0  0  0  0  0  0  0  0  0  0  0  0
   58.3800   34.7870   46.3310 N   0  0  0  0  0  0  0  0  0  0  0  0
   59.6250   35.4570   46.7740 C   0  0  0  0  0  0  0  0  0  0  0  0
   60.5600   34.5420   47.5260 C   0  0  0  0  0  0  0  0  0  0  0  0
   60.4950   34.4540   48.9260 C   0  0  0  0  0  0  0  0  0  0  0  0
   61.4720   33.7520   49.6360 C   0  0  0  0  0  0  0  0  0  0  0  0
   62.5080   33.0980   48.9510 C   0  0  0  0  0  0  0  0  0  0  0  0
   63.6140   32.4710   49.6990 C   0  0  0  0  0  0  0  0  0  0  0  0
   64.8770   33.0880   49.6550 C   0  0  0  0  0  0  0  0  0  0  0  0
   65.9780   32.4910   50.2680 C   0  0  0  0  0  0  0  0  0  0  0  0
   65.8300   31.2800   50.9420 C   0  0  0  0  0  0  0  0  0  0  0  0
   64.5760   30.6670   51.0160 C   0  0  0  0  0  0  0  0  0  0  0  0
   63.4560   31.2550   50.4060 C   0  0  0  0  0  0  0  0  0  0  0  0
   61.8820   30.4660   50.5770 S   0  0  0  0  0  0  0  0  0  0  0  0
   62.0720   28.9500   51.3800 N   0  0  0  0  0  0  0  0  0  0  0  0
   61.2650   30.2500   49.2240 O   0  0  0  0  0  0  0  0  0  0  0  0
   60.9610   31.3360   51.3840 O   0  0  0  0  0  0  0  0  0  0  0  0
   62.5350   33.1240   47.5510 C   0  0  0  0  0  0  0  0  0  0  0  0
   61.5610   33.8300   46.8420 C   0  0  0  0  0  0  0  0  0  0  0  0
   57.9690   33.5790   47.0880 C   0  0  0  0  0  0  0  0  0  0  0  0
   57.8450   32.3140   46.2190 C   0  0  0  0  0  0  0  0  0  0  0  0
   56.7800   29.7410   44.4460 C   0  0  0  0  0  0  0  0  0  0  0  0
   56.1230   28.6060   44.9250 C   0  0  0  0  0  0  0  0  0  0  0  0
   53.9770   26.7190   46.3780 H   0  0  0  0  0  0  0  0  0  0  0  0
   58.7396   27.1048   46.5381 H   0  0  0  0  0  0  0  0  0  0  0  0
   59.9088   29.1231   45.6763 H   0  0  0  0  0  0  0  0  0  0  0  0
   59.8733   32.4354   45.5374 H   0  0  0  0  0  0  0  0  0  0  0  0
   59.5305   33.7516   43.6144 H   0  0  0  0  0  0  0  0  0  0  0  0
   57.7942   33.1989   43.4679 H   0  0  0  0  0  0  0  0  0  0  0  0
   58.6150   35.6513   44.4295 H   0  0  0  0  0  0  0  0  0  0  0  0
   57.0181   34.8158   44.7567 H   0  0  0  0  0  0  0  0  0  0  0  0
   60.1501   35.8401   45.8866 H   0  0  0  0  0  0  0  0  0  0  0  0
   59.3336   36.2632   47.4633 H   0  0  0  0  0  0  0  0  0  0  0  0
   59.6699   34.9407   49.4667 H   0  0  0  0  0  0  0  0  0  0  0  0
   61.4293   33.7116   50.7344 H   0  0  0  0  0  0  0  0  0  0  0  0
   64.9973   34.0488   49.1331 H   0  0  0  0  0  0  0  0  0  0  0  0
   66.9641   32.9761   50.2196 H   0  0  0  0  0  0  0  0  0  0  0  0
   66.7017   30.8058   51.4166 H   0  0  0  0  0  0  0  0  0  0  0  0
   64.4654   29.7156   51.5568 H   0  0  0  0  0  0  0  0  0  0  0  0
   61.4690   28.9780   52.2320 H   0  0  0  0  0  0  0  0  0  0  0  0
   63.3263   32.5864   47.0080 H   0  0  0  0  0  0  0  0  0  0  0  0
   61.5770   33.8291   45.7421 H   0  0  0  0  0  0  0  0  0  0  0  0
   58.7172   33.3895   47.8717 H   0  0  0  0  0  0  0  0  0  0  0  0
   56.9701   33.7837   47.5006 H   0  0  0  0  0  0  0  0  0  0  0  0
   58.0120   31.4268   46.8475 H   0  0  0  0  0  0  0  0  0  0  0  0
   56.8377   32.2864   45.7779 H   0  0  0  0  0  0  0  0  0  0  0  0
   56.2323   30.4732   43.8345 H   0  0  0  0  0  0  0  0  0  0  0  0
   55.0572   28.4556   44.6980 H   0  0  0  0  0  0  0  0  0  0  0  0
  1  2  1  0
  2  3  2  0
  2  4  1  0
  4  5  2  0
  5  6  1  0
  6  7  2  0
  7  8  1  0
  8  9  1  0
  9 10  1  0
 10 11  1  0
 11 12  1  0
 12 13  1  0
 13 14  1  0
 14 15  2  0
 15 16  1  0
 16 17  2  0
 17 18  1  0
 18 19  2  0
 19 20  1  0
 20 21  2  0
 21 22  1  0
 22 23  2  0
 23 24  1  0
 24 25  1  0
 24 26  2  0
 24 27  2  0
 17 28  1  0
 28 29  2  0
 12 30  1  0
 30 31  1  0
  7 32  1  0
 32 33  2  0
 33  4  1  0
 31  9  1  0
 29 14  1  0
 23 18  1  0
  1 34  1  0
  5 35  1  0
  6 36  1  0
  9 37  1  0
 10 38  1  0
 10 39  1  0
 11 40  1  0
 11 41  1  0
 13 42  1  0
 13 43  1  0
 15 44  1  0
 16 45  1  0
 19 46  1  0
 20 47  1  0
 21 48  1  0
 22 49  1  0
 25 50  1  0
 28 51  1  0
 29 52  1  0
 30 53  1  0
 30 54  1  0
 31 55  1  0
 31 56  1  0
 32 57  1  0
 33 58  1  0
M  CHG  2   1  -1  25  -1
M  END
>  <UniqueID>  (64) 
62

>  <SMILES>  (64) 
[NH-]C(=O)c1ccc(OC2CCN(Cc3ccc(-c4ccccc4S([NH-])(=O)=O)cc3)CC2)cc1

>  <Energy>  (64) 
80.61313787385755

>  <Genealogy>  (64) 
[NH-]C(=O)c1ccc(OC2CCN(Cc3ccc(-c4ccccc4S([NH-])(=O)=O)cc3)CC2)cc1 (protonated)
[NH-]C(=O)c1ccc(OC2CCN(Cc3ccc(-c4ccccc4S([NH-])(=O)=O)cc3)CC2)cc1 (3D coordinates assigned)
[NH-]C(=O)c1ccc(OC2CCN(Cc3ccc(-c4ccccc4S([NH-])(=O)=O)cc3)CC2)cc1 (nonaromatic ring conformer: 80.61313787385755 kcal/mol)

>  <smiles>  (64) 
NC(=O)c1ccc(OC2CCN(Cc3ccc(-c4ccccc4S(N)(=O)=O)cc3)CC2)cc1

>  <score_type>  (64) 
oracle

>  <origin>  (64) 
adg

>  <m_score__min__energy>  (64) 
-15.67

>  <m_primary>  (64) 
energy

$$$$
64:0
     RDKit          3D

 56 58  0  0  0  0  0  0  0  0999 V2000
   59.1590   33.1370   49.4640 N   0  0  0  0  0  0  0  0  0  0  0  0
   58.8070   33.0290   48.0880 C   0  0  0  0  0  0  0  0  0  0  0  0
   57.7640   32.4060   47.7530 O   0  0  0  0  0  0  0  0  0  0  0  0
   59.6370   33.7130   47.0480 C   0  0  0  0  0  0  0  0  0  0  0  0
   61.0940   33.4320   47.2840 C   0  0  0  0  0  0  0  0  0  0  0  0
   62.0540   33.8700   46.3590 C   0  0  0  0  0  0  0  0  0  0  0  0
   63.4000   33.5750   46.5730 C   0  0  0  0  0  0  0  0  0  0  0  0
   63.7790   32.8430   47.6960 C   0  0  0  0  0  0  0  0  0  0  0  0
   62.7990   32.4020   48.5970 C   0  0  0  0  0  0  0  0  0  0  0  0
   63.1870   31.6160   49.8210 C   0  0  0  0  0  0  0  0  0  0  0  0
   63.3180   32.5120   50.9940 N   0  0  0  0  0  0  0  0  0  0  0  0
   62.3960   33.6720   50.9350 C   0  0  0  0  0  0  0  0  0  0  0  0
   61.0540   33.4240   51.6550 C   0  0  0  0  0  0  0  0  0  0  0  0
   60.7700   31.9800   51.7140 N   0  0  0  0  0  0  0  0  0  0  0  0
   59.3950   31.7110   52.1870 C   0  0  0  0  0  0  0  0  0  0  0  0
   58.7450   30.6000   51.3390 C   0  0  1  0  0  0  0  0  0  0  0  0
   57.8060   31.1420   50.4440 O   0  0  0  0  0  0  0  0  0  0  0  0
   59.8080   29.7770   50.5900 C   0  0  0  0  0  0  0  0  0  0  0  0
   60.0830   30.3470   49.3090 O   0  0  0  0  0  0  0  0  0  0  0  0
   59.7620   29.7790   48.0650 C   0  0  0  0  0  0  0  0  0  0  0  0
   58.7890   28.7700   48.0330 C   0  0  0  0  0  0  0  0  0  0  0  0
   58.4200   28.1760   46.8230 C   0  0  0  0  0  0  0  0  0  0  0  0
   59.0300   28.5800   45.6310 C   0  0  0  0  0  0  0  0  0  0  0  0
   58.5640   27.8410   44.1110 Cl  0  0  0  0  0  0  0  0  0  0  0  0
   60.0110   29.5750   45.6520 C   0  0  0  0  0  0  0  0  0  0  0  0
   60.3820   30.1700   46.8610 C   0  0  0  0  0  0  0  0  0  0  0  0
   61.7670   31.2990   52.5640 C   0  0  0  0  0  0  0  0  0  0  0  0
   63.2050   31.7940   52.2820 C   0  0  0  0  0  0  0  0  0  0  0  0
   61.4870   32.7050   48.3710 N   0  0  0  0  0  0  0  0  0  0  0  0
   59.5650   32.3230   49.9750 H   0  0  0  0  0  0  0  0  0  0  0  0
   59.3514   33.3421   46.0526 H   0  0  0  0  0  0  0  0  0  0  0  0
   59.4653   34.7980   47.1063 H   0  0  0  0  0  0  0  0  0  0  0  0
   61.7469   34.4422   45.4711 H   0  0  0  0  0  0  0  0  0  0  0  0
   64.1606   33.9194   45.8569 H   0  0  0  0  0  0  0  0  0  0  0  0
   64.8396   32.6125   47.8748 H   0  0  0  0  0  0  0  0  0  0  0  0
   62.4136   30.8614   50.0267 H   0  0  0  0  0  0  0  0  0  0  0  0
   64.1551   31.1270   49.6373 H   0  0  0  0  0  0  0  0  0  0  0  0
   62.8902   34.5347   51.4056 H   0  0  0  0  0  0  0  0  0  0  0  0
   62.1675   33.8521   49.8742 H   0  0  0  0  0  0  0  0  0  0  0  0
   61.1101   33.8257   52.6775 H   0  0  0  0  0  0  0  0  0  0  0  0
   60.2490   33.9266   51.0988 H   0  0  0  0  0  0  0  0  0  0  0  0
   59.4292   31.3914   53.2390 H   0  0  0  0  0  0  0  0  0  0  0  0
   58.7977   32.6297   52.0914 H   0  0  0  0  0  0  0  0  0  0  0  0
   58.2155   29.9192   52.0218 H   0  0  0  0  0  0  0  0  0  0  0  0
   58.3090   31.5490   49.6920 H   0  0  0  0  0  0  0  0  0  0  0  0
   60.7342   29.7597   51.1831 H   0  0  0  0  0  0  0  0  0  0  0  0
   59.4255   28.7557   50.4461 H   0  0  0  0  0  0  0  0  0  0  0  0
   58.3118   28.4430   48.9686 H   0  0  0  0  0  0  0  0  0  0  0  0
   57.6498   27.3908   46.8081 H   0  0  0  0  0  0  0  0  0  0  0  0
   60.4924   29.8907   44.7147 H   0  0  0  0  0  0  0  0  0  0  0  0
   61.1610   30.9466   46.8730 H   0  0  0  0  0  0  0  0  0  0  0  0
   61.5254   31.4930   53.6195 H   0  0  0  0  0  0  0  0  0  0  0  0
   61.7279   30.2233   52.3376 H   0  0  0  0  0  0  0  0  0  0  0  0
   63.5086   32.4737   53.0918 H   0  0  0  0  0  0  0  0  0  0  0  0
   63.8568   30.9095   52.2282 H   0  0  0  0  0  0  0  0  0  0  0  0
   60.7650   32.3700   49.0490 H   0  0  0  0  0  0  0  0  0  0  0  0
  1  2  1  0
  2  3  2  0
  2  4  1  0
  4  5  1  0
  5  6  2  0
  6  7  1  0
  7  8  2  0
  8  9  1  0
  9 10  1  0
 10 11  1  0
 11 12  1  0
 12 13  1  0
 13 14  1  0
 14 15  1  0
 15 16  1  0
 16 17  1  0
 16 18  1  0
 18 19  1  0
 19 20  1  0
 20 21  2  0
 21 22  1  0
 22 23  2  0
 23 24  1  0
 23 25  1  0
 25 26  2  0
 14 27  1  0
 27 28  1  0
  9 29  2  0
 29  5  1  0
 28 11  1  0
 26 20  1  0
  1 30  1  0
  4 31  1  0
  4 32  1  0
  6 33  1  0
  7 34  1  0
  8 35  1  0
 10 36  1  0
 10 37  1  0
 12 38  1  0
 12 39  1  0
 13 40  1  0
 13 41  1  0
 15 42  1  0
 15 43  1  0
 16 44  1  1
 17 45  1  0
 18 46  1  0
 18 47  1  0
 21 48  1  0
 22 49  1  0
 25 50  1  0
 26 51  1  0
 27 52  1  0
 27 53  1  0
 28 54  1  0
 28 55  1  0
 29 56  1  0
M  CHG  2   1  -1  29   1
M  END
>  <UniqueID>  (65) 
63

>  <SMILES>  (65) 
[NH-]C(=O)Cc1cccc(CN2CCN(C[C@@H](O)COc3ccc(Cl)cc3)CC2)[nH+]1

>  <Energy>  (65) 
65.81507297559138

>  <Genealogy>  (65) 
[NH-]C(=O)Cc1cccc(CN2CCN(CC(O)COc3ccc(Cl)cc3)CC2)[nH+]1 (protonated)
[NH-]C(=O)Cc1cccc(CN2CCN(C[C@@H](O)COc3ccc(Cl)cc3)CC2)[nH+]1 (chirality)
[NH-]C(=O)Cc1cccc(CN2CCN(C[C@@H](O)COc3ccc(Cl)cc3)CC2)[nH+]1 (3D coordinates assigned)
[NH-]C(=O)Cc1cccc(CN2CCN(C[C@@H](O)COc3ccc(Cl)cc3)CC2)[nH+]1 (nonaromatic ring conformer: 65.81507297559138 kcal/mol)

>  <smiles>  (65) 
NC(=O)Cc1cccc(CN2CCN(CC(O)COc3ccc(Cl)cc3)CC2)n1

>  <score_type>  (65) 
oracle

>  <origin>  (65) 
adg

>  <m_score__min__energy>  (65) 
-9.3100000000000005

>  <m_primary>  (65) 
energy

$$$$
65:0
     RDKit          3D

 37 39  0  0  0  0  0  0  0  0999 V2000
   53.9870   26.7170   45.8740 H   0  0  0  0  0  0  0  0  0  0  0  0
   54.5670   25.8900   45.9500 O   0  0  0  0  0  0  0  0  0  0  0  0
   55.9600   25.9730   45.9740 C   0  0  0  0  0  0  0  0  0  0  0  0
   56.7190   24.8460   46.3230 C   0  0  0  0  0  0  0  0  0  0  0  0
   56.2137   23.9161   46.6228 H   0  0  0  0  0  0  0  0  0  0  0  0
   58.1150   24.9010   46.2910 C   0  0  0  0  0  0  0  0  0  0  0  0
   58.7064   24.0172   46.5725 H   0  0  0  0  0  0  0  0  0  0  0  0
   58.7600   26.0770   45.9020 C   0  0  0  0  0  0  0  0  0  0  0  0
   59.8587   26.1146   45.8648 H   0  0  0  0  0  0  0  0  0  0  0  0
   58.0110   27.2060   45.5600 C   0  0  0  0  0  0  0  0  0  0  0  0
   58.5231   28.1255   45.2402 H   0  0  0  0  0  0  0  0  0  0  0  0
   56.6110   27.1740   45.6220 C   0  0  0  0  0  0  0  0  0  0  0  0
   55.8790   28.3540   45.2520 N   0  0  0  0  0  0  0  0  0  0  0  0
   56.4110   29.4630   44.8350 C   0  0  0  0  0  0  0  0  0  0  0  0
   57.0960   30.3190   45.6230 N   0  0  0  0  0  0  0  0  0  0  0  0
   57.5760   31.3800   44.9190 C   0  0  0  0  0  0  0  0  0  0  0  0
   58.3150   32.4620   45.6010 C   0  0  0  0  0  0  0  0  0  0  0  0
   59.7120   32.1910   46.5080 S   0  0  0  0  0  0  0  0  0  0  0  0
   59.9020   33.8120   46.8860 C   0  0  0  0  0  0  0  0  0  0  0  0
   60.8660   34.2730   47.6220 N   0  0  0  0  0  0  0  0  0  0  0  0
   61.0810   33.8720   49.0080 C   0  0  0  0  0  0  0  0  0  0  0  0
   61.7707   34.5804   49.4902 H   0  0  0  0  0  0  0  0  0  0  0  0
   61.5127   32.8605   49.0304 H   0  0  0  0  0  0  0  0  0  0  0  0
   59.7750   33.8690   49.7450 C   0  0  0  0  0  0  0  0  0  0  0  0
   59.3509   34.8232   50.0909 H   0  0  0  0  0  0  0  0  0  0  0  0
   59.1150   32.7340   49.9910 C   0  0  0  0  0  0  0  0  0  0  0  0
   58.1587   32.7605   50.5339 H   0  0  0  0  0  0  0  0  0  0  0  0
   59.5278   31.7729   49.6507 H   0  0  0  0  0  0  0  0  0  0  0  0
   58.9410   34.5820   46.3330 N   0  0  0  0  0  0  0  0  0  0  0  0
   58.0570   33.8440   45.6060 C   0  0  0  0  0  0  0  0  0  0  0  0
   56.9360   34.5130   44.8740 C   0  0  0  0  0  0  0  0  0  0  0  0
   56.2258   34.9368   45.5993 H   0  0  0  0  0  0  0  0  0  0  0  0
   57.3394   35.3182   44.2424 H   0  0  0  0  0  0  0  0  0  0  0  0
   56.4189   33.7757   44.2424 H   0  0  0  0  0  0  0  0  0  0  0  0
   57.2580   31.3670   43.5590 C   0  0  0  0  0  0  0  0  0  0  0  0
   57.5390   32.1353   42.8237 H   0  0  0  0  0  0  0  0  0  0  0  0
   56.3700   29.9720   43.2390 S   0  0  0  0  0  0  0  0  0  0  0  0
  1  2  1  0
  2  3  1  0
  3  4  2  0
  4  5  1  0
  4  6  1  0
  6  7  1  0
  6  8  2  0
  8  9  1  0
  8 10  1  0
 10 11  1  0
 10 12  2  0
 12 13  1  0
 13 14  2  3
 14 15  1  0
 15 16  1  0
 16 17  1  0
 17 18  1  0
 18 19  1  0
 19 20  2  0
 20 21  1  0
 21 22  1  0
 21 23  1  0
 21 24  1  0
 24 25  1  0
 24 26  2  0
 26 27  1  0
 26 28  1  0
 19 29  1  0
 29 30  1  0
 30 31  1  0
 31 32  1  0
 31 33  1  0
 31 34  1  0
 16 35  2  0
 35 36  1  0
 35 37  1  0
 12  3  1  0
 37 14  1  0
 30 17  2  0
M  CHG  2  15  -1  29  -1
M  END
>  <UniqueID>  (66) 
64

>  <SMILES>  (66) 
C=CC/N=c1\[n-]c(C)c(-c2csc(=Nc3ccccc3O)[n-]2)s1

>  <Energy>  (66) 
103.77298217258185

>  <Genealogy>  (66) 
C=CCN=c1[n-]c(C)c(-c2csc(=Nc3ccccc3O)[n-]2)s1 (protonated)
C=CC/N=c1\[n-]c(C)c(-c2csc(=Nc3ccccc3O)[n-]2)s1 (cis-trans isomerization)
C=CC/N=c1\[n-]c(C)c(-c2csc(=Nc3ccccc3O)[n-]2)s1 (3D coordinates assigned)
C=CC/N=c1\[n-]c(C)c(-c2csc(=Nc3ccccc3O)[n-]2)s1 (optimized conformer: 103.77298217258185 kcal/mol)

>  <smiles>  (66) 
C=CCN=c1[nH]c(C)c(-c2csc(=Nc3ccccc3O)[nH]2)s1

>  <score_type>  (66) 
oracle

>  <origin>  (66) 
adg

>  <m_score__min__energy>  (66) 
-12.15

>  <m_primary>  (66) 
energy

$$$$
66:0
     RDKit          3D

 76 80  0  0  0  0  0  0  0  0999 V2000
   54.1390   24.0910   45.8670 C   0  0  0  0  0  0  0  0  0  0  0  0
   55.5140   23.8000   46.5120 C   0  0  0  0  0  0  0  0  0  0  0  0
   55.2560   23.3280   47.9620 C   0  0  0  0  0  0  0  0  0  0  0  0
   56.1750   22.6600   45.7100 C   0  0  0  0  0  0  0  0  0  0  0  0
   56.4550   25.0240   46.5270 C   0  0  0  0  0  0  0  0  0  0  0  0
   57.7200   24.9180   47.1370 C   0  0  0  0  0  0  0  0  0  0  0  0
   58.6020   25.9960   47.1760 C   0  0  0  0  0  0  0  0  0  0  0  0
   58.2620   27.2390   46.6030 C   0  0  0  0  0  0  0  0  0  0  0  0
   57.0000   27.3580   45.9630 C   0  0  0  0  0  0  0  0  0  0  0  0
   56.1150   26.2610   45.9340 C   0  0  0  0  0  0  0  0  0  0  0  0
   56.6470   28.5820   45.3650 C   0  0  0  0  0  0  0  0  0  0  0  0
   55.5460   28.7070   44.7550 O   0  0  0  0  0  0  0  0  0  0  0  0
   57.5110   29.6780   45.4690 C   0  0  0  0  0  0  0  0  0  0  0  0
   57.1600   30.9900   44.8900 C   0  0  0  0  0  0  0  0  0  0  0  0
   55.9490   31.3210   44.7830 O   0  0  0  0  0  0  0  0  0  0  0  0
   58.1730   31.8620   44.3760 N   0  0  0  0  0  0  0  0  0  0  0  0
   58.7400   32.9630   45.1020 C   0  0  0  0  0  0  0  0  0  0  0  0
   58.7270   34.2420   44.5310 C   0  0  0  0  0  0  0  0  0  0  0  0
   59.2590   35.3300   45.2300 C   0  0  0  0  0  0  0  0  0  0  0  0
   59.8080   35.1460   46.5020 C   0  0  0  0  0  0  0  0  0  0  0  0
   59.8160   33.8710   47.0880 C   0  0  0  0  0  0  0  0  0  0  0  0
   60.5360   33.6040   48.6740 S   0  0  0  0  0  0  0  0  0  0  0  0
   59.8150   34.4740   49.6680 O   0  0  0  0  0  0  0  0  0  0  0  0
   60.3590   32.1640   49.0820 O   0  0  0  0  0  0  0  0  0  0  0  0
   62.2350   34.0240   48.6380 N   0  0  0  0  0  0  0  0  0  0  0  0
   62.7890   33.8010   47.3000 C   0  0  0  0  0  0  0  0  0  0  0  0
   63.3870   32.4000   47.2590 C   0  0  0  0  0  0  0  0  0  0  0  0
   63.4990   31.9640   48.7070 C   0  0  0  0  0  0  0  0  0  0  0  0
   62.9960   33.1420   49.5280 C   0  0  0  0  0  0  0  0  0  0  0  0
   59.2620   32.7890   46.3950 C   0  0  0  0  0  0  0  0  0  0  0  0
   58.7260   29.5320   46.1390 C   0  0  0  0  0  0  0  0  0  0  0  0
   59.1160   28.3260   46.6590 N   0  0  0  0  0  0  0  0  0  0  0  0
   60.4760   28.2390   47.2320 C   0  0  0  0  0  0  0  0  0  0  0  0
   60.4510   28.0190   48.7180 C   0  0  0  0  0  0  0  0  0  0  0  0
   60.7170   26.8720   49.1740 O   0  0  0  0  0  0  0  0  0  0  0  0
   60.2820   29.1110   49.6290 N   0  0  0  0  0  0  0  0  0  0  0  0
   61.4620   29.6660   50.2900 C   0  0  0  0  0  0  0  0  0  0  0  0
   61.0410   30.5750   51.4420 C   0  0  0  0  0  0  0  0  0  0  0  0
   59.9530   29.9850   52.1220 O   0  0  0  0  0  0  0  0  0  0  0  0
   58.7730   30.1030   51.3460 C   0  0  0  0  0  0  0  0  0  0  0  0
   58.9490   29.6740   49.8690 C   0  0  0  0  0  0  0  0  0  0  0  0
   53.3898   24.2496   46.6566 H   0  0  0  0  0  0  0  0  0  0  0  0
   54.2105   24.9939   45.2428 H   0  0  0  0  0  0  0  0  0  0  0  0
   53.8386   23.2365   45.2428 H   0  0  0  0  0  0  0  0  0  0  0  0
   55.6612   24.0693   48.6665 H   0  0  0  0  0  0  0  0  0  0  0  0
   54.1736   23.2203   48.1254 H   0  0  0  0  0  0  0  0  0  0  0  0
   55.7497   22.3587   48.1254 H   0  0  0  0  0  0  0  0  0  0  0  0
   56.6026   21.9226   46.4053 H   0  0  0  0  0  0  0  0  0  0  0  0
   55.4199   22.1717   45.0764 H   0  0  0  0  0  0  0  0  0  0  0  0
   56.9739   23.0728   45.0764 H   0  0  0  0  0  0  0  0  0  0  0  0
   58.0185   23.9625   47.5930 H   0  0  0  0  0  0  0  0  0  0  0  0
   59.5812   25.8753   47.6625 H   0  0  0  0  0  0  0  0  0  0  0  0
   55.1387   26.3702   45.4391 H   0  0  0  0  0  0  0  0  0  0  0  0
   58.2969   34.3910   43.5296 H   0  0  0  0  0  0  0  0  0  0  0  0
   59.2454   36.3327   44.7778 H   0  0  0  0  0  0  0  0  0  0  0  0
   60.2347   36.0023   47.0448 H   0  0  0  0  0  0  0  0  0  0  0  0
   61.9912   33.8874   46.5476 H   0  0  0  0  0  0  0  0  0  0  0  0
   63.5631   34.5508   47.0797 H   0  0  0  0  0  0  0  0  0  0  0  0
   62.7286   31.7173   46.7019 H   0  0  0  0  0  0  0  0  0  0  0  0
   64.3636   32.3881   46.7528 H   0  0  0  0  0  0  0  0  0  0  0  0
   62.8774   31.0751   48.8897 H   0  0  0  0  0  0  0  0  0  0  0  0
   64.5317   31.6938   48.9724 H   0  0  0  0  0  0  0  0  0  0  0  0
   62.3472   32.7811   50.3397 H   0  0  0  0  0  0  0  0  0  0  0  0
   63.8422   33.6864   49.9725 H   0  0  0  0  0  0  0  0  0  0  0  0
   59.2349   31.7952   46.8657 H   0  0  0  0  0  0  0  0  0  0  0  0
   59.3857   30.4049   46.2523 H   0  0  0  0  0  0  0  0  0  0  0  0
   61.0073   27.4004   46.7583 H   0  0  0  0  0  0  0  0  0  0  0  0
   60.9859   29.1946   47.0399 H   0  0  0  0  0  0  0  0  0  0  0  0
   62.0792   28.8443   50.6822 H   0  0  0  0  0  0  0  0  0  0  0  0
   62.0392   30.2537   49.5610 H   0  0  0  0  0  0  0  0  0  0  0  0
   61.8839   30.7033   52.1370 H   0  0  0  0  0  0  0  0  0  0  0  0
   60.7431   31.5581   51.0486 H   0  0  0  0  0  0  0  0  0  0  0  0
   57.9952   29.4714   51.7999 H   0  0  0  0  0  0  0  0  0  0  0  0
   58.5003   31.1686   51.3390 H   0  0  0  0  0  0  0  0  0  0  0  0
   58.1910   28.9154   49.6242 H   0  0  0  0  0  0  0  0  0  0  0  0
   58.8305   30.5644   49.2340 H   0  0  0  0  0  0  0  0  0  0  0  0
  1  2  1  0
  2  3  1  0
  2  4  1  0
  2  5  1  0
  5  6  2  0
  6  7  1  0
  7  8  2  0
  8  9  1  0
  9 10  2  0
  9 11  1  0
 11 12  2  0
 11 13  1  0
 13 14  1  0
 14 15  2  0
 14 16  1  0
 16 17  1  0
 17 18  2  0
 18 19  1  0
 19 20  2  0
 20 21  1  0
 21 22  1  0
 22 23  2  0
 22 24  2  0
 22 25  1  0
 25 26  1  0
 26 27  1  0
 27 28  1  0
 28 29  1  0
 21 30  2  0
 13 31  2  0
 31 32  1  0
 32 33  1  0
 33 34  1  0
 34 35  2  0
 34 36  1  0
 36 37  1  0
 37 38  1  0
 38 39  1  0
 39 40  1  0
 40 41  1  0
 10  5  1  0
 30 17  1  0
 41 36  1  0
 32  8  1  0
 29 25  1  0
  1 42  1  0
  1 43  1  0
  1 44  1  0
  3 45  1  0
  3 46  1  0
  3 47  1  0
  4 48  1  0
  4 49  1  0
  4 50  1  0
  6 51  1  0
  7 52  1  0
 10 53  1  0
 18 54  1  0
 19 55  1  0
 20 56  1  0
 26 57  1  0
 26 58  1  0
 27 59  1  0
 27 60  1  0
 28 61  1  0
 28 62  1  0
 29 63  1  0
 29 64  1  0
 30 65  1  0
 31 66  1  0
 33 67  1  0
 33 68  1  0
 37 69  1  0
 37 70  1  0
 38 71  1  0
 38 72  1  0
 40 73  1  0
 40 74  1  0
 41 75  1  0
 41 76  1  0
M  CHG  1  16  -1
M  END
>  <UniqueID>  (67) 
65

>  <SMILES>  (67) 
CC(C)(C)c1ccc2c(c1)c(=O)c(C(=O)[N-]c1cccc(S(=O)(=O)N3CCCC3)c1)cn2CC(=O)N1CCOCC1

>  <Energy>  (67) 
105.98851545350875

>  <Genealogy>  (67) 
CC(C)(C)c1ccc2c(c1)c(=O)c(C(=O)[N-]c1cccc(S(=O)(=O)N3CCCC3)c1)cn2CC(=O)N1CCOCC1 (protonated)
CC(C)(C)c1ccc2c(c1)c(=O)c(C(=O)[N-]c1cccc(S(=O)(=O)N3CCCC3)c1)cn2CC(=O)N1CCOCC1 (3D coordinates assigned)
CC(C)(C)c1ccc2c(c1)c(=O)c(C(=O)[N-]c1cccc(S(=O)(=O)N3CCCC3)c1)cn2CC(=O)N1CCOCC1 (nonaromatic ring conformer: 105.98851545350875 kcal/mol)

>  <smiles>  (67) 
CC(C)(C)c1ccc2c(c1)c(=O)c(C(=O)Nc1cccc(S(=O)(=O)N3CCCC3)c1)cn2CC(=O)N1CCOCC1

>  <score_type>  (67) 
oracle

>  <origin>  (67) 
adg

>  <m_score__min__energy>  (67) 
-11.67

>  <m_primary>  (67) 
energy

$$$$
67:0
     RDKit          3D

 57 60  0  0  0  0  0  0  0  0999 V2000
   56.6840   23.8150   45.1850 O   0  0  0  0  0  0  0  0  0  0  0  0
   57.6650   24.1960   45.8800 C   0  0  0  0  0  0  0  0  0  0  0  0
   57.4720   25.2770   46.8970 C   0  0  0  0  0  0  0  0  0  0  0  0
   57.2200   26.5820   46.2120 C   0  0  0  0  0  0  0  0  0  0  0  0
   58.1750   27.5560   45.9840 C   0  0  0  0  0  0  0  0  0  0  0  0
   57.5090   28.6090   45.3910 C   0  0  0  0  0  0  0  0  0  0  0  0
   58.0760   29.9130   44.9910 C   0  0  0  0  0  0  0  0  0  0  0  0
   58.1500   30.1950   43.7640 O   0  0  0  0  0  0  0  0  0  0  0  0
   58.5250   30.8750   45.9660 N   0  0  0  0  0  0  0  0  0  0  0  0
   58.3360   32.3070   45.6860 C   0  0  0  0  0  0  0  0  0  0  0  0
   58.8230   33.1720   46.8510 C   0  0  0  0  0  0  0  0  0  0  0  0
   60.1650   32.7400   47.2590 N   0  0  0  0  0  0  0  0  0  0  0  0
   61.2570   33.6780   47.2610 C   0  0  0  0  0  0  0  0  0  0  0  0
   61.3140   34.5670   46.3660 O   0  0  0  0  0  0  0  0  0  0  0  0
   62.3240   33.6180   48.2820 C   0  0  0  0  0  0  0  0  0  0  0  0
   63.5200   32.9240   48.0270 C   0  0  0  0  0  0  0  0  0  0  0  0
   64.5210   32.8630   49.0020 C   0  0  0  0  0  0  0  0  0  0  0  0
   64.3330   33.4830   50.2400 C   0  0  0  0  0  0  0  0  0  0  0  0
   63.1400   34.1580   50.5090 C   0  0  0  0  0  0  0  0  0  0  0  0
   62.1350   34.2210   49.5380 C   0  0  0  0  0  0  0  0  0  0  0  0
   60.4400   31.3070   47.4620 C   0  0  0  0  0  0  0  0  0  0  0  0
   59.1970   30.4450   47.2010 C   0  0  0  0  0  0  0  0  0  0  0  0
   56.1840   28.2230   45.3200 C   0  0  0  0  0  0  0  0  0  0  0  0
   55.1530   28.9960   44.8000 O   0  0  0  0  0  0  0  0  0  0  0  0
   55.9950   26.9880   45.8170 N   0  0  0  0  0  0  0  0  0  0  0  0
   58.9680   23.6350   45.6650 N   0  0  0  0  0  0  0  0  0  0  0  0
   59.2130   22.5660   44.7000 C   0  0  0  0  0  0  0  0  0  0  0  0
   58.0590   21.6010   44.6870 C   0  0  0  0  0  0  0  0  0  0  0  0
   57.3470   21.3740   43.4980 C   0  0  0  0  0  0  0  0  0  0  0  0
   56.2880   20.4610   43.4740 C   0  0  0  0  0  0  0  0  0  0  0  0
   55.9360   19.7670   44.6350 C   0  0  0  0  0  0  0  0  0  0  0  0
   54.9100   18.8810   44.6110 F   0  0  0  0  0  0  0  0  0  0  0  0
   56.6440   19.9830   45.8210 C   0  0  0  0  0  0  0  0  0  0  0  0
   57.7040   20.8950   45.8480 C   0  0  0  0  0  0  0  0  0  0  0  0
   56.6112   25.0279   47.5350 H   0  0  0  0  0  0  0  0  0  0  0  0
   58.3797   25.3608   47.5127 H   0  0  0  0  0  0  0  0  0  0  0  0
   59.2467   27.5022   46.2260 H   0  0  0  0  0  0  0  0  0  0  0  0
   58.9026   32.5728   44.7814 H   0  0  0  0  0  0  0  0  0  0  0  0
   57.2615   32.4930   45.5418 H   0  0  0  0  0  0  0  0  0  0  0  0
   58.8579   34.2251   46.5352 H   0  0  0  0  0  0  0  0  0  0  0  0
   58.1313   33.0642   47.6995 H   0  0  0  0  0  0  0  0  0  0  0  0
   63.6690   32.4271   47.0570 H   0  0  0  0  0  0  0  0  0  0  0  0
   65.4581   32.3259   48.7938 H   0  0  0  0  0  0  0  0  0  0  0  0
   65.1244   33.4395   51.0027 H   0  0  0  0  0  0  0  0  0  0  0  0
   62.9906   34.6408   51.4860 H   0  0  0  0  0  0  0  0  0  0  0  0
   61.1929   34.7445   49.7580 H   0  0  0  0  0  0  0  0  0  0  0  0
   61.2394   30.9968   46.7730 H   0  0  0  0  0  0  0  0  0  0  0  0
   60.7425   31.1621   48.5096 H   0  0  0  0  0  0  0  0  0  0  0  0
   59.5004   29.3924   47.1009 H   0  0  0  0  0  0  0  0  0  0  0  0
   58.5003   30.5590   48.0445 H   0  0  0  0  0  0  0  0  0  0  0  0
   59.7770   24.0080   46.2120 H   0  0  0  0  0  0  0  0  0  0  0  0
   59.3326   23.0024   43.6974 H   0  0  0  0  0  0  0  0  0  0  0  0
   60.1277   22.0267   44.9874 H   0  0  0  0  0  0  0  0  0  0  0  0
   57.6234   21.9165   42.5819 H   0  0  0  0  0  0  0  0  0  0  0  0
   55.7317   20.2889   42.5408 H   0  0  0  0  0  0  0  0  0  0  0  0
   56.3671   19.4351   46.7338 H   0  0  0  0  0  0  0  0  0  0  0  0
   58.2615   21.0599   46.7818 H   0  0  0  0  0  0  0  0  0  0  0  0
  1  2  2  0
  2  3  1  0
  3  4  1  0
  4  5  2  0
  5  6  1  0
  6  7  1  0
  7  8  2  0
  7  9  1  0
  9 10  1  0
 10 11  1  0
 11 12  1  0
 12 13  1  0
 13 14  2  0
 13 15  1  0
 15 16  2  0
 16 17  1  0
 17 18  2  0
 18 19  1  0
 19 20  2  0
 12 21  1  0
 21 22  1  0
  6 23  2  0
 23 24  1  0
 23 25  1  0
  2 26  1  0
 26 27  1  0
 27 28  1  0
 28 29  2  0
 29 30  1  0
 30 31  2  0
 31 32  1  0
 31 33  1  0
 33 34  2  0
 25  4  1  0
 34 28  1  0
 22  9  1  0
 20 15  1  0
  3 35  1  0
  3 36  1  0
  5 37  1  0
 10 38  1  0
 10 39  1  0
 11 40  1  0
 11 41  1  0
 16 42  1  0
 17 43  1  0
 18 44  1  0
 19 45  1  0
 20 46  1  0
 21 47  1  0
 21 48  1  0
 22 49  1  0
 22 50  1  0
 26 51  1  0
 27 52  1  0
 27 53  1  0
 29 54  1  0
 30 55  1  0
 33 56  1  0
 34 57  1  0
M  CHG  2  24  -1  25  -1
M  END
>  <UniqueID>  (68) 
66

>  <SMILES>  (68) 
O=C(Cc1cc(C(=O)N2CCN(C(=O)c3ccccc3)CC2)c([O-])[n-]1)NCc1ccc(F)cc1

>  <Energy>  (68) 
89.84800331265735

>  <Genealogy>  (68) 
O=C(Cc1cc(C(=O)N2CCN(C(=O)c3ccccc3)CC2)c([O-])[n-]1)NCc1ccc(F)cc1 (protonated)
O=C(Cc1cc(C(=O)N2CCN(C(=O)c3ccccc3)CC2)c([O-])[n-]1)NCc1ccc(F)cc1 (3D coordinates assigned)
O=C(Cc1cc(C(=O)N2CCN(C(=O)c3ccccc3)CC2)c([O-])[n-]1)NCc1ccc(F)cc1 (nonaromatic ring conformer: 89.84800331265735 kcal/mol)

>  <smiles>  (68) 
O=C(Cc1cc(C(=O)N2CCN(C(=O)c3ccccc3)CC2)c(O)[nH]1)NCc1ccc(F)cc1

>  <score_type>  (68) 
oracle

>  <origin>  (68) 
adg

>  <m_score__min__energy>  (68) 
-13.800000000000001

>  <m_primary>  (68) 
energy

$$$$
68:0
     RDKit          3D

 48 51  0  0  0  0  0  0  0  0999 V2000
   57.7057   32.4509   45.0831 H   0  0  0  0  0  0  0  0  0  0  0  0
   57.3300   31.5730   44.5370 C   0  0  0  0  0  0  0  0  0  0  0  0
   56.9940   30.4440   45.2160 N   0  0  0  0  0  0  0  0  0  0  0  0
   56.5160   29.3360   44.5780 C   0  0  0  0  0  0  0  0  0  0  0  0
   56.2180   28.2570   45.2390 N   0  0  0  0  0  0  0  0  0  0  0  0
   57.0260   27.0290   45.2760 C   0  0  0  0  0  0  0  0  0  0  0  0
   56.5694   26.2785   44.6139 H   0  0  0  0  0  0  0  0  0  0  0  0
   57.0620   26.4870   46.7190 C   0  0  0  0  0  0  0  0  0  0  0  0
   57.1216   25.3895   46.6739 H   0  0  0  0  0  0  0  0  0  0  0  0
   56.1468   26.8441   47.2138 H   0  0  0  0  0  0  0  0  0  0  0  0
   58.2520   27.0030   47.5600 C   0  0  0  0  0  0  0  0  0  0  0  0
   59.0521   26.2483   47.5437 H   0  0  0  0  0  0  0  0  0  0  0  0
   57.8927   27.1798   48.5845 H   0  0  0  0  0  0  0  0  0  0  0  0
   58.7860   28.2740   47.0390 N   0  0  0  0  0  0  0  0  0  0  0  0
   59.0780   29.3800   47.9170 C   0  0  0  0  0  0  0  0  0  0  0  0
   59.8470   29.1770   49.0220 N   0  0  0  0  0  0  0  0  0  0  0  0
   60.1580   30.1700   49.8560 N   0  0  0  0  0  0  0  0  0  0  0  0
   59.7270   31.4430   49.6500 C   0  0  0  0  0  0  0  0  0  0  0  0
   60.1040   32.5100   50.6030 C   0  0  0  0  0  0  0  0  0  0  0  0
   59.6230   32.5090   51.7670 O   0  0  0  0  0  0  0  0  0  0  0  0
   61.0510   33.5290   50.2510 N   0  0  0  0  0  0  0  0  0  0  0  0
   61.9730   33.4710   49.1510 C   0  0  0  0  0  0  0  0  0  0  0  0
   63.2650   32.9390   49.3180 C   0  0  0  0  0  0  0  0  0  0  0  0
   63.5836   32.5769   50.3066 H   0  0  0  0  0  0  0  0  0  0  0  0
   64.1460   32.8680   48.2350 C   0  0  0  0  0  0  0  0  0  0  0  0
   65.1595   32.4645   48.3763 H   0  0  0  0  0  0  0  0  0  0  0  0
   63.7400   33.3090   46.9740 C   0  0  0  0  0  0  0  0  0  0  0  0
   64.4355   33.2575   46.1233 H   0  0  0  0  0  0  0  0  0  0  0  0
   62.4500   33.8160   46.7920 C   0  0  0  0  0  0  0  0  0  0  0  0
   62.1306   34.1566   45.7960 H   0  0  0  0  0  0  0  0  0  0  0  0
   61.5620   33.8920   47.8740 C   0  0  0  0  0  0  0  0  0  0  0  0
   59.9390   34.5150   47.6140 Cl  0  0  0  0  0  0  0  0  0  0  0  0
   58.9050   31.7050   48.5480 C   0  0  0  0  0  0  0  0  0  0  0  0
   58.5210   32.7206   48.3714 H   0  0  0  0  0  0  0  0  0  0  0  0
   58.5770   30.6680   47.6760 C   0  0  0  0  0  0  0  0  0  0  0  0
   57.9308   30.8581   46.8063 H   0  0  0  0  0  0  0  0  0  0  0  0
   59.1190   28.4000   45.6100 C   0  0  0  0  0  0  0  0  0  0  0  0
   60.2101   28.3277   45.4909 H   0  0  0  0  0  0  0  0  0  0  0  0
   58.7463   29.3727   45.2565 H   0  0  0  0  0  0  0  0  0  0  0  0
   58.4540   27.3010   44.7710 C   0  0  0  0  0  0  0  0  0  0  0  0
   59.0473   26.3779   44.8476 H   0  0  0  0  0  0  0  0  0  0  0  0
   58.4043   27.6333   43.7236 H   0  0  0  0  0  0  0  0  0  0  0  0
   56.3580   29.3540   43.1860 C   0  0  0  0  0  0  0  0  0  0  0  0
   55.9625   28.4721   42.6608 H   0  0  0  0  0  0  0  0  0  0  0  0
   56.7070   30.5010   42.4720 C   0  0  0  0  0  0  0  0  0  0  0  0
   56.5948   30.5239   41.3780 H   0  0  0  0  0  0  0  0  0  0  0  0
   57.1990   31.6200   43.1480 C   0  0  0  0  0  0  0  0  0  0  0  0
   57.4798   32.5271   42.5927 H   0  0  0  0  0  0  0  0  0  0  0  0
  1  2  1  0
  2  3  1  0
  3  4  1  0
  4  5  2  0
  5  6  1  0
  6  7  1  0
  6  8  1  0
  8  9  1  0
  8 10  1  0
  8 11  1  0
 11 12  1  0
 11 13  1  0
 11 14  1  0
 14 15  1  0
 15 16  2  0
 16 17  1  0
 17 18  2  0
 18 19  1  0
 19 20  2  0
 19 21  1  0
 21 22  1  0
 22 23  2  0
 23 24  1  0
 23 25  1  0
 25 26  1  0
 25 27  2  0
 27 28  1  0
 27 29  1  0
 29 30  1  0
 29 31  2  0
 31 32  1  0
 18 33  1  0
 33 34  1  0
 33 35  2  0
 35 36  1  0
 14 37  1  0
 37 38  1  0
 37 39  1  0
 37 40  1  0
 40 41  1  0
 40 42  1  0
  4 43  1  0
 43 44  1  0
 43 45  2  0
 45 46  1  0
 45 47  1  0
 47 48  1  0
 47  2  2  0
 40  6  1  0
 35 15  1  0
 31 22  1  0
M  CHG  2   3  -1  21  -1
M  END
>  <UniqueID>  (69) 
67

>  <SMILES>  (69) 
O=C([N-]c1ccccc1Cl)c1ccc(N2CCC(/N=c3/cccc[n-]3)CC2)nn1

>  <Energy>  (69) 
65.5400400421658

>  <Genealogy>  (69) 
O=C([N-]c1ccccc1Cl)c1ccc(N2CCC(N=c3cccc[n-]3)CC2)nn1 (protonated)
O=C([N-]c1ccccc1Cl)c1ccc(N2CCC(/N=c3/cccc[n-]3)CC2)nn1 (cis-trans isomerization)
O=C([N-]c1ccccc1Cl)c1ccc(N2CCC(/N=c3/cccc[n-]3)CC2)nn1 (3D coordinates assigned)
O=C([N-]c1ccccc1Cl)c1ccc(N2CCC(/N=c3/cccc[n-]3)CC2)nn1 (nonaromatic ring conformer: 65.5400400421658 kcal/mol)

>  <smiles>  (69) 
O=C(Nc1ccccc1Cl)c1ccc(N2CCC(N=c3cccc[nH]3)CC2)nn1

>  <score_type>  (69) 
oracle

>  <origin>  (69) 
adg

>  <m_score__min__energy>  (69) 
-12.119999999999999

>  <m_primary>  (69) 
energy

$$$$
69:0
     RDKit          3D

 44 45  0  0  0  0  0  0  0  0999 V2000
   59.1310   34.2330   44.8050 C   0  0  0  0  0  0  0  0  0  0  0  0
   59.0210   33.8800   46.2590 C   0  0  0  0  0  0  0  0  0  0  0  0
   58.1740   32.8390   46.6700 C   0  0  0  0  0  0  0  0  0  0  0  0
   58.1000   32.4810   48.0180 C   0  0  0  0  0  0  0  0  0  0  0  0
   58.8740   33.1570   48.9700 C   0  0  0  0  0  0  0  0  0  0  0  0
   58.7610   32.7090   50.6700 S   0  0  0  0  0  0  0  0  0  0  0  0
   57.3510   32.3140   51.0210 O   0  0  0  0  0  0  0  0  0  0  0  0
   59.1710   33.8810   51.5150 O   0  0  0  0  0  0  0  0  0  0  0  0
   59.8220   31.3770   50.9910 N   0  0  0  0  0  0  0  0  0  0  0  0
   59.6060   30.0710   50.4520 C   0  0  0  0  0  0  0  0  0  0  0  0
   58.7390   29.3040   50.9530 O   0  0  0  0  0  0  0  0  0  0  0  0
   60.4130   29.6150   49.2810 C   0  0  0  0  0  0  0  0  0  0  0  0
   60.7380   30.7590   48.4430 N   0  0  0  0  0  0  0  0  0  0  0  0
   61.0290   30.6980   47.0410 C   0  0  0  0  0  0  0  0  0  0  0  0
   61.3220   31.7650   46.4370 O   0  0  0  0  0  0  0  0  0  0  0  0
   60.9760   29.4070   46.2600 C   0  0  0  0  0  0  0  0  0  0  0  0
   60.0150   29.4950   45.0660 C   0  0  0  0  0  0  0  0  0  0  0  0
   58.7340   28.7370   45.3080 C   0  0  0  0  0  0  0  0  0  0  0  0
   58.7730   27.4340   45.8260 C   0  0  0  0  0  0  0  0  0  0  0  0
   57.5850   26.7310   46.0510 C   0  0  0  0  0  0  0  0  0  0  0  0
   56.3480   27.3180   45.7480 C   0  0  0  0  0  0  0  0  0  0  0  0
   55.1600   26.6230   45.9730 O   0  0  0  0  0  0  0  0  0  0  0  0
   56.3080   28.6140   45.2170 C   0  0  0  0  0  0  0  0  0  0  0  0
   55.0860   29.1980   44.8990 O   0  0  0  0  0  0  0  0  0  0  0  0
   57.4970   29.3220   45.0000 C   0  0  0  0  0  0  0  0  0  0  0  0
   59.7400   34.1790   48.5590 C   0  0  0  0  0  0  0  0  0  0  0  0
   59.8210   34.5330   47.2090 C   0  0  0  0  0  0  0  0  0  0  0  0
   59.4569   35.2789   44.7052 H   0  0  0  0  0  0  0  0  0  0  0  0
   59.8658   33.5723   44.3218 H   0  0  0  0  0  0  0  0  0  0  0  0
   58.1509   34.1067   44.3218 H   0  0  0  0  0  0  0  0  0  0  0  0
   57.5656   32.3026   45.9270 H   0  0  0  0  0  0  0  0  0  0  0  0
   57.4320   31.6658   48.3330 H   0  0  0  0  0  0  0  0  0  0  0  0
   61.3418   29.1447   49.6362 H   0  0  0  0  0  0  0  0  0  0  0  0
   59.8332   28.8849   48.6972 H   0  0  0  0  0  0  0  0  0  0  0  0
   61.9848   29.1759   45.8874 H   0  0  0  0  0  0  0  0  0  0  0  0
   60.6095   28.6180   46.9331 H   0  0  0  0  0  0  0  0  0  0  0  0
   59.7719   30.5523   44.8842 H   0  0  0  0  0  0  0  0  0  0  0  0
   60.5150   29.0436   44.1964 H   0  0  0  0  0  0  0  0  0  0  0  0
   59.7405   26.9638   46.0559 H   0  0  0  0  0  0  0  0  0  0  0  0
   57.6211   25.7135   46.4673 H   0  0  0  0  0  0  0  0  0  0  0  0
   54.3340   27.0920   46.3240 H   0  0  0  0  0  0  0  0  0  0  0  0
   57.4605   30.3407   44.5865 H   0  0  0  0  0  0  0  0  0  0  0  0
   60.3584   34.7047   49.3014 H   0  0  0  0  0  0  0  0  0  0  0  0
   60.5139   35.3258   46.8906 H   0  0  0  0  0  0  0  0  0  0  0  0
  1  2  1  0
  2  3  2  0
  3  4  1  0
  4  5  2  0
  5  6  1  0
  6  7  2  0
  6  8  2  0
  6  9  1  0
  9 10  1  0
 10 11  2  0
 10 12  1  0
 12 13  1  0
 13 14  1  0
 14 15  2  0
 14 16  1  0
 16 17  1  0
 17 18  1  0
 18 19  2  0
 19 20  1  0
 20 21  2  0
 21 22  1  0
 21 23  1  0
 23 24  1  0
 23 25  2  0
  5 26  1  0
 26 27  2  0
 27  2  1  0
 25 18  1  0
  1 28  1  0
  1 29  1  0
  1 30  1  0
  3 31  1  0
  4 32  1  0
 12 33  1  0
 12 34  1  0
 16 35  1  0
 16 36  1  0
 17 37  1  0
 17 38  1  0
 19 39  1  0
 20 40  1  0
 22 41  1  0
 25 42  1  0
 26 43  1  0
 27 44  1  0
M  CHG  3   9  -1  13  -1  24  -1
M  END
>  <UniqueID>  (70) 
68

>  <SMILES>  (70) 
Cc1ccc(S(=O)(=O)[N-]C(=O)C[N-]C(=O)CCc2ccc(O)c([O-])c2)cc1

>  <Energy>  (70) 
38.37052978311313

>  <Genealogy>  (70) 
Cc1ccc(S(=O)(=O)[N-]C(=O)C[N-]C(=O)CCc2ccc(O)c([O-])c2)cc1 (protonated)
Cc1ccc(S(=O)(=O)[N-]C(=O)C[N-]C(=O)CCc2ccc(O)c([O-])c2)cc1 (3D coordinates assigned)
Cc1ccc(S(=O)(=O)[N-]C(=O)C[N-]C(=O)CCc2ccc(O)c([O-])c2)cc1 (optimized conformer: 38.37052978311313 kcal/mol)

>  <smiles>  (70) 
Cc1ccc(S(=O)(=O)NC(=O)CNC(=O)CCc2ccc(O)c(O)c2)cc1

>  <score_type>  (70) 
oracle

>  <origin>  (70) 
adg

>  <m_score__min__energy>  (70) 
-14.9

>  <m_primary>  (70) 
energy

$$$$
70:0
     RDKit          3D

 39 40  0  0  0  0  0  0  0  0999 V2000
   58.1120   26.9340   43.7000 C   0  0  0  0  0  0  0  0  0  0  0  0
   57.6160   26.5450   44.8770 C   0  0  0  0  0  0  0  0  0  0  0  0
   57.3870   27.5180   46.0010 C   0  0  0  0  0  0  0  0  0  0  0  0
   57.4910   28.9430   45.5080 C   0  0  0  0  0  0  0  0  0  0  0  0
   56.3840   29.6080   44.9540 C   0  0  0  0  0  0  0  0  0  0  0  0
   55.1460   28.9800   44.8650 O   0  0  0  0  0  0  0  0  0  0  0  0
   56.5140   30.8790   44.4990 N   0  0  0  0  0  0  0  0  0  0  0  0
   57.7040   31.5360   44.5600 C   0  0  0  0  0  0  0  0  0  0  0  0
   57.8200   32.7550   44.1210 N   0  0  0  0  0  0  0  0  0  0  0  0
   57.3470   33.9470   44.8250 C   0  0  0  0  0  0  0  0  0  0  0  0
   58.4540   34.5250   45.7120 C   0  0  0  0  0  0  0  0  0  0  0  0
   59.0070   33.4640   46.6240 C   0  0  0  0  0  0  0  0  0  0  0  0
   58.1700   32.8100   47.5420 C   0  0  0  0  0  0  0  0  0  0  0  0
   58.6780   31.8000   48.3660 C   0  0  0  0  0  0  0  0  0  0  0  0
   60.0260   31.4310   48.2780 C   0  0  0  0  0  0  0  0  0  0  0  0
   60.6600   30.1470   49.3020 S   0  0  0  0  0  0  0  0  0  0  0  0
   60.5520   28.6350   48.4720 N   0  0  0  0  0  0  0  0  0  0  0  0
   62.0970   30.4300   49.6430 O   0  0  0  0  0  0  0  0  0  0  0  0
   59.8690   30.0760   50.5780 O   0  0  0  0  0  0  0  0  0  0  0  0
   60.8600   32.0670   47.3480 C   0  0  0  0  0  0  0  0  0  0  0  0
   60.3520   33.0760   46.5240 C   0  0  0  0  0  0  0  0  0  0  0  0
   58.7890   30.9100   45.0800 N   0  0  0  0  0  0  0  0  0  0  0  0
   58.7140   29.6380   45.5500 C   0  0  0  0  0  0  0  0  0  0  0  0
   59.7490   29.0920   46.0180 O   0  0  0  0  0  0  0  0  0  0  0  0
   58.2676   26.1972   42.8982 H   0  0  0  0  0  0  0  0  0  0  0  0
   58.3650   27.9913   43.5321 H   0  0  0  0  0  0  0  0  0  0  0  0
   57.3681   25.4841   45.0288 H   0  0  0  0  0  0  0  0  0  0  0  0
   56.3836   27.3541   46.4208 H   0  0  0  0  0  0  0  0  0  0  0  0
   58.1558   27.3545   46.7705 H   0  0  0  0  0  0  0  0  0  0  0  0
   57.0418   34.7046   44.0882 H   0  0  0  0  0  0  0  0  0  0  0  0
   56.4934   33.6679   45.4603 H   0  0  0  0  0  0  0  0  0  0  0  0
   59.2629   34.9123   45.0751 H   0  0  0  0  0  0  0  0  0  0  0  0
   58.0321   35.3356   46.3243 H   0  0  0  0  0  0  0  0  0  0  0  0
   57.1095   33.0931   47.6137 H   0  0  0  0  0  0  0  0  0  0  0  0
   58.0167   31.2943   49.0850 H   0  0  0  0  0  0  0  0  0  0  0  0
   59.5680   28.5430   48.1340 H   0  0  0  0  0  0  0  0  0  0  0  0
   61.1560   28.7100   47.6230 H   0  0  0  0  0  0  0  0  0  0  0  0
   61.9165   31.7717   47.2663 H   0  0  0  0  0  0  0  0  0  0  0  0
   61.0103   33.5685   45.7932 H   0  0  0  0  0  0  0  0  0  0  0  0
  1  2  2  0
  2  3  1  0
  3  4  1  0
  4  5  2  0
  5  6  1  0
  5  7  1  0
  7  8  1  0
  8  9  2  3
  9 10  1  0
 10 11  1  0
 11 12  1  0
 12 13  2  0
 13 14  1  0
 14 15  2  0
 15 16  1  0
 16 17  1  0
 16 18  2  0
 16 19  2  0
 15 20  1  0
 20 21  2  0
  8 22  1  0
 22 23  1  0
 23 24  2  0
 23  4  1  0
 21 12  1  0
  1 25  1  0
  1 26  1  0
  2 27  1  0
  3 28  1  0
  3 29  1  0
 10 30  1  0
 10 31  1  0
 11 32  1  0
 11 33  1  0
 13 34  1  0
 14 35  1  0
 17 36  1  0
 17 37  1  0
 20 38  1  0
 21 39  1  0
M  CHG  3   6  -1   7  -1  22  -1
M  END
>  <UniqueID>  (71) 
69

>  <SMILES>  (71) 
C=CCc1c([O-])[n-]c(=NCCc2ccc(S(N)(=O)=O)cc2)[n-]c1=O

>  <Energy>  (71) 
34.30256840282307

>  <Genealogy>  (71) 
C=CCc1c([O-])[n-]c(=NCCc2ccc(S(N)(=O)=O)cc2)[n-]c1=O (protonated)
C=CCc1c([O-])[n-]c(=NCCc2ccc(S(N)(=O)=O)cc2)[n-]c1=O (3D coordinates assigned)
C=CCc1c([O-])[n-]c(=NCCc2ccc(S(N)(=O)=O)cc2)[n-]c1=O (optimized conformer: 34.30256840282307 kcal/mol)

>  <smiles>  (71) 
C=CCc1c(O)[nH]c(=NCCc2ccc(S(N)(=O)=O)cc2)[nH]c1=O

>  <score_type>  (71) 
oracle

>  <origin>  (71) 
adg

>  <m_score__min__energy>  (71) 
-14.74

>  <m_primary>  (71) 
energy

$$$$
71:0
     RDKit          3D

 26 27  0  0  0  0  0  0  0  0999 V2000
   55.1730   26.6950   45.9930 O   0  0  0  0  0  0  0  0  0  0  0  0
   56.3850   26.3560   45.9330 C   0  0  0  0  0  0  0  0  0  0  0  0
   57.3950   27.3300   45.3810 C   0  0  0  0  0  0  0  0  0  0  0  0
   57.0520   28.7040   45.7340 N   0  0  0  0  0  0  0  0  0  0  0  0
   56.3220   29.5810   44.8710 C   0  0  0  0  0  0  0  0  0  0  0  0
   55.1480   29.2920   44.5140 O   0  0  0  0  0  0  0  0  0  0  0  0
   56.9370   30.8250   44.3950 C   0  0  0  0  0  0  0  0  0  0  0  0
   57.4140   31.0590   43.1200 C   0  0  0  0  0  0  0  0  0  0  0  0
   57.8960   32.3500   43.1370 C   0  0  0  0  0  0  0  0  0  0  0  0
   57.6840   32.8230   44.4160 C   0  0  0  0  0  0  0  0  0  0  0  0
   57.1100   31.8910   45.1420 O   0  0  0  0  0  0  0  0  0  0  0  0
   56.7470   25.0420   46.3940 N   0  0  0  0  0  0  0  0  0  0  0  0
   57.2280   24.0500   45.7020 C   0  0  0  0  0  0  0  0  0  0  0  0
   56.5010   23.4460   44.7210 N   0  0  0  0  0  0  0  0  0  0  0  0
   57.0160   22.4230   43.9910 C   0  0  0  0  0  0  0  0  0  0  0  0
   58.3140   21.9780   44.2380 C   0  0  0  0  0  0  0  0  0  0  0  0
   59.0520   22.6100   45.2400 C   0  0  0  0  0  0  0  0  0  0  0  0
   60.2280   22.2400   45.4900 O   0  0  0  0  0  0  0  0  0  0  0  0
   58.4980   23.6300   45.9470 N   0  0  0  0  0  0  0  0  0  0  0  0
   58.3864   27.0907   45.7931 H   0  0  0  0  0  0  0  0  0  0  0  0
   57.3990   27.2431   44.2844 H   0  0  0  0  0  0  0  0  0  0  0  0
   57.4100   30.3613   42.2696 H   0  0  0  0  0  0  0  0  0  0  0  0
   58.3570   32.8941   42.2995 H   0  0  0  0  0  0  0  0  0  0  0  0
   57.9545   33.8276   44.7731 H   0  0  0  0  0  0  0  0  0  0  0  0
   56.4101   21.9464   43.2063 H   0  0  0  0  0  0  0  0  0  0  0  0
   58.7458   21.1493   43.6576 H   0  0  0  0  0  0  0  0  0  0  0  0
  1  2  2  0
  2  3  1  0
  3  4  1  0
  4  5  1  0
  5  6  2  0
  5  7  1  0
  7  8  2  0
  8  9  1  0
  9 10  2  0
 10 11  1  0
  2 12  1  0
 12 13  2  3
 13 14  1  0
 14 15  1  0
 15 16  2  0
 16 17  1  0
 17 18  2  0
 17 19  1  0
 11  7  1  0
 19 13  1  0
  3 20  1  0
  3 21  1  0
  8 22  1  0
  9 23  1  0
 10 24  1  0
 15 25  1  0
 16 26  1  0
M  CHG  3   4  -1  14  -1  19  -1
M  END
>  <UniqueID>  (72) 
70

>  <SMILES>  (72) 
O=C(C[N-]C(=O)c1ccco1)N=c1[n-]ccc(=O)[n-]1

>  <Energy>  (72) 
55.14439402600961

>  <Genealogy>  (72) 
O=C(C[N-]C(=O)c1ccco1)N=c1[n-]ccc(=O)[n-]1 (protonated)
O=C(C[N-]C(=O)c1ccco1)N=c1[n-]ccc(=O)[n-]1 (3D coordinates assigned)
O=C(C[N-]C(=O)c1ccco1)N=c1[n-]ccc(=O)[n-]1 (optimized conformer: 55.14439402600961 kcal/mol)

>  <smiles>  (72) 
O=C(CNC(=O)c1ccco1)N=c1[nH]ccc(=O)[nH]1

>  <score_type>  (72) 
oracle

>  <origin>  (72) 
adg

>  <m_score__min__energy>  (72) 
-11.640000000000001

>  <m_primary>  (72) 
energy

$$$$
72:0
     RDKit          3D

 52 54  0  0  0  0  0  0  0  0999 V2000
   53.5680   28.3810   52.8800 C   0  0  0  0  0  0  0  0  0  0  0  0
   54.5140   29.3330   52.9650 C   0  0  0  0  0  0  0  0  0  0  0  0
   55.8100   28.9320   53.3350 C   0  0  0  0  0  0  0  0  0  0  0  0
   56.8680   29.7700   53.1870 N   0  0  0  0  0  0  0  0  0  0  0  0
   56.7280   31.0120   52.6510 C   0  0  0  0  0  0  0  0  0  0  0  0
   57.9120   31.8810   52.4550 C   0  0  0  0  0  0  0  0  0  0  0  0
   58.2740   32.6440   53.3930 O   0  0  0  0  0  0  0  0  0  0  0  0
   58.6590   31.8720   51.2230 N   0  0  0  0  0  0  0  0  0  0  0  0
   57.9890   31.6340   49.9370 C   0  0  0  0  0  0  0  0  0  0  0  0
   58.5610   32.5570   48.8590 C   0  0  0  0  0  0  0  0  0  0  0  0
   60.0280   32.4740   48.7990 N   0  0  0  0  0  0  0  0  0  0  0  0
   60.6960   32.9180   47.5970 C   0  0  0  0  0  0  0  0  0  0  0  0
   60.1030   33.7070   46.8120 O   0  0  0  0  0  0  0  0  0  0  0  0
   62.0830   32.4630   47.2350 C   0  0  0  0  0  0  0  0  0  0  0  0
   63.0530   33.5920   47.3780 C   0  0  0  0  0  0  0  0  0  0  0  0
   63.3690   34.2810   46.3710 O   0  0  0  0  0  0  0  0  0  0  0  0
   63.6200   33.8540   48.6310 O   0  0  0  0  0  0  0  0  0  0  0  0
   64.4620   32.9320   49.3190 C   0  0  0  0  0  0  0  0  0  0  0  0
   64.8440   33.4750   50.6910 C   0  0  0  0  0  0  0  0  0  0  0  0
   60.7790   31.8870   49.9210 C   0  0  0  0  0  0  0  0  0  0  0  0
   60.0940   32.1840   51.2600 C   0  0  0  0  0  0  0  0  0  0  0  0
   55.4490   31.4880   52.3390 C   0  0  0  0  0  0  0  0  0  0  0  0
   54.3090   30.6900   52.5650 C   0  0  0  0  0  0  0  0  0  0  0  0
   53.0990   31.2890   52.4110 C   0  0  0  0  0  0  0  0  0  0  0  0
   52.3190   31.3540   51.1590 C   0  0  0  0  0  0  0  0  0  0  0  0
   52.3150   30.4060   50.2030 N   0  0  0  0  0  0  0  0  0  0  0  0
   51.3770   30.8420   49.3340 C   0  0  0  0  0  0  0  0  0  0  0  0
   51.0870   30.2180   48.2810 O   0  0  0  0  0  0  0  0  0  0  0  0
   50.7660   31.9930   49.6900 N   0  0  0  0  0  0  0  0  0  0  0  0
   51.3660   32.2950   50.8520 C   0  0  0  0  0  0  0  0  0  0  0  0
   51.0450   33.4070   51.6220 O   0  0  0  0  0  0  0  0  0  0  0  0
   52.5406   28.6505   52.5939 H   0  0  0  0  0  0  0  0  0  0  0  0
   53.8216   27.3328   53.0966 H   0  0  0  0  0  0  0  0  0  0  0  0
   55.9688   27.9257   53.7500 H   0  0  0  0  0  0  0  0  0  0  0  0
   57.8090   29.4310   53.4880 H   0  0  0  0  0  0  0  0  0  0  0  0
   58.1425   30.5870   49.6366 H   0  0  0  0  0  0  0  0  0  0  0  0
   56.9146   31.8408   50.0506 H   0  0  0  0  0  0  0  0  0  0  0  0
   58.1466   32.2655   47.8826 H   0  0  0  0  0  0  0  0  0  0  0  0
   58.2846   33.5918   49.1095 H   0  0  0  0  0  0  0  0  0  0  0  0
   62.3813   31.6414   47.9028 H   0  0  0  0  0  0  0  0  0  0  0  0
   62.0856   32.1190   46.1902 H   0  0  0  0  0  0  0  0  0  0  0  0
   63.9281   31.9784   49.4435 H   0  0  0  0  0  0  0  0  0  0  0  0
   65.3785   32.7809   48.7297 H   0  0  0  0  0  0  0  0  0  0  0  0
   64.3988   32.8421   51.4728 H   0  0  0  0  0  0  0  0  0  0  0  0
   65.9390   33.4706   50.7952 H   0  0  0  0  0  0  0  0  0  0  0  0
   64.4699   34.5042   50.7952 H   0  0  0  0  0  0  0  0  0  0  0  0
   60.8389   30.7974   49.7821 H   0  0  0  0  0  0  0  0  0  0  0  0
   61.7853   32.3309   49.9377 H   0  0  0  0  0  0  0  0  0  0  0  0
   60.5696   31.5775   52.0448 H   0  0  0  0  0  0  0  0  0  0  0  0
   60.2037   33.2586   51.4677 H   0  0  0  0  0  0  0  0  0  0  0  0
   55.3323   32.4954   51.9130 H   0  0  0  0  0  0  0  0  0  0  0  0
   52.6613   31.7686   53.2989 H   0  0  0  0  0  0  0  0  0  0  0  0
  1  2  2  0
  2  3  1  0
  3  4  2  0
  4  5  1  0
  5  6  1  0
  6  7  2  0
  6  8  1  0
  8  9  1  0
  9 10  1  0
 10 11  1  0
 11 12  1  0
 12 13  2  0
 12 14  1  0
 14 15  1  0
 15 16  2  0
 15 17  1  0
 17 18  1  0
 18 19  1  0
 11 20  1  0
 20 21  1  0
  5 22  2  0
 22 23  1  0
 23 24  2  3
 24 25  1  0
 25 26  1  0
 26 27  1  0
 27 28  2  0
 27 29  1  0
 29 30  1  0
 30 31  1  0
 23  2  1  0
 30 25  2  0
 21  8  1  0
  1 32  1  0
  1 33  1  0
  3 34  1  0
  4 35  1  0
  9 36  1  0
  9 37  1  0
 10 38  1  0
 10 39  1  0
 14 40  1  0
 14 41  1  0
 18 42  1  0
 18 43  1  0
 19 44  1  0
 19 45  1  0
 19 46  1  0
 20 47  1  0
 20 48  1  0
 21 49  1  0
 21 50  1  0
 22 51  1  0
 24 52  1  0
M  CHG  4   4   1  26  -1  29  -1  31  -1
M  END
>  <UniqueID>  (73) 
71

>  <SMILES>  (73) 
C=c1c[nH+]c(C(=O)N2CCN(C(=O)CC(=O)OCC)CC2)cc1=Cc1[n-]c(=O)[n-]c1[O-]

>  <Energy>  (73) 
101.65268846469718

>  <Genealogy>  (73) 
C=c1c[nH+]c(C(=O)N2CCN(C(=O)CC(=O)OCC)CC2)cc1=Cc1[n-]c(=O)[n-]c1[O-] (protonated)
C=c1c[nH+]c(C(=O)N2CCN(C(=O)CC(=O)OCC)CC2)cc1=Cc1[n-]c(=O)[n-]c1[O-] (3D coordinates assigned)
C=c1c[nH+]c(C(=O)N2CCN(C(=O)CC(=O)OCC)CC2)cc1=Cc1[n-]c(=O)[n-]c1[O-] (nonaromatic ring conformer: 101.65268846469718 kcal/mol)

>  <smiles>  (73) 
C=c1cnc(C(=O)N2CCN(C(=O)CC(=O)OCC)CC2)cc1=Cc1[nH]c(=O)[nH]c1O

>  <score_type>  (73) 
oracle

>  <origin>  (73) 
adg

>  <m_score__min__energy>  (73) 
-15.84

>  <m_primary>  (73) 
energy

$$$$
73:0
     RDKit          3D

 35 37  0  0  0  0  0  0  0  0999 V2000
   55.3480   31.5320   52.2200 C   0  0  0  0  0  0  0  0  0  0  0  0
   55.5870   30.3360   52.7630 C   0  0  0  0  0  0  0  0  0  0  0  0
   56.8270   29.9790   53.1670 N   0  0  0  0  0  0  0  0  0  0  0  0
   56.7440   28.7990   53.7640 N   0  0  0  0  0  0  0  0  0  0  0  0
   57.8730   28.1440   54.3640 C   0  0  0  0  0  0  0  0  0  0  0  0
   58.4340   28.6800   55.3580 O   0  0  0  0  0  0  0  0  0  0  0  0
   58.4120   26.8720   53.8300 C   0  0  0  0  0  0  0  0  0  0  0  0
   59.6800   26.8410   53.2240 C   0  0  0  0  0  0  0  0  0  0  0  0
   60.1840   25.6460   52.7010 C   0  0  0  0  0  0  0  0  0  0  0  0
   59.4240   24.4750   52.7690 C   0  0  0  0  0  0  0  0  0  0  0  0
   59.9280   23.2890   52.2490 O   0  0  0  0  0  0  0  0  0  0  0  0
   58.1560   24.4990   53.3540 C   0  0  0  0  0  0  0  0  0  0  0  0
   57.6480   25.6920   53.8780 C   0  0  0  0  0  0  0  0  0  0  0  0
   55.4570   28.4040   53.7750 C   0  0  0  0  0  0  0  0  0  0  0  0
   55.0400   27.3500   54.3280 O   0  0  0  0  0  0  0  0  0  0  0  0
   54.6710   29.3320   53.1150 C   0  0  0  0  0  0  0  0  0  0  0  0
   53.3430   29.2150   52.9140 C   0  0  0  0  0  0  0  0  0  0  0  0
   52.5460   30.0440   51.9940 C   0  0  0  0  0  0  0  0  0  0  0  0
   52.4750   29.7000   50.6360 C   0  0  0  0  0  0  0  0  0  0  0  0
   51.7660   30.5080   49.7430 C   0  0  0  0  0  0  0  0  0  0  0  0
   51.1420   31.6760   50.1940 C   0  0  0  0  0  0  0  0  0  0  0  0
   50.4370   32.4730   49.3010 O   0  0  0  0  0  0  0  0  0  0  0  0
   51.2350   32.0410   51.5430 C   0  0  0  0  0  0  0  0  0  0  0  0
   50.6270   33.2070   51.9960 O   0  0  0  0  0  0  0  0  0  0  0  0
   51.9450   31.2330   52.4380 C   0  0  0  0  0  0  0  0  0  0  0  0
   54.3296   31.7971   51.8998 H   0  0  0  0  0  0  0  0  0  0  0  0
   56.1695   32.2524   52.0928 H   0  0  0  0  0  0  0  0  0  0  0  0
   60.2789   27.7615   53.1609 H   0  0  0  0  0  0  0  0  0  0  0  0
   61.1804   25.6276   52.2353 H   0  0  0  0  0  0  0  0  0  0  0  0
   57.5561   23.5783   53.4027 H   0  0  0  0  0  0  0  0  0  0  0  0
   56.6454   25.7076   54.3302 H   0  0  0  0  0  0  0  0  0  0  0  0
   52.8120   28.4377   53.4830 H   0  0  0  0  0  0  0  0  0  0  0  0
   52.9787   28.7919   50.2730 H   0  0  0  0  0  0  0  0  0  0  0  0
   51.6984   30.2247   48.6823 H   0  0  0  0  0  0  0  0  0  0  0  0
   52.0327   31.5303   53.4934 H   0  0  0  0  0  0  0  0  0  0  0  0
  1  2  2  0
  2  3  1  0
  3  4  1  0
  4  5  1  0
  5  6  2  0
  5  7  1  0
  7  8  2  0
  8  9  1  0
  9 10  2  0
 10 11  1  0
 10 12  1  0
 12 13  2  0
  4 14  1  0
 14 15  2  0
 14 16  1  0
 16 17  2  3
 17 18  1  0
 18 19  2  0
 19 20  1  0
 20 21  2  0
 21 22  1  0
 21 23  1  0
 23 24  1  0
 23 25  2  0
 16  2  1  0
 25 18  1  0
 13  7  1  0
  1 26  1  0
  1 27  1  0
  8 28  1  0
  9 29  1  0
 12 30  1  0
 13 31  1  0
 17 32  1  0
 19 33  1  0
 20 34  1  0
 25 35  1  0
M  CHG  4   3  -1  11  -1  22  -1  24  -1
M  END
>  <UniqueID>  (74) 
72

>  <SMILES>  (74) 
C=c1[n-]n(C(=O)c2ccc([O-])cc2)c(=O)c1=Cc1ccc([O-])c([O-])c1

>  <Energy>  (74) 
89.39066249970105

>  <Genealogy>  (74) 
C=c1[n-]n(C(=O)c2ccc([O-])cc2)c(=O)c1=Cc1ccc([O-])c([O-])c1 (protonated)
C=c1[n-]n(C(=O)c2ccc([O-])cc2)c(=O)c1=Cc1ccc([O-])c([O-])c1 (3D coordinates assigned)
C=c1[n-]n(C(=O)c2ccc([O-])cc2)c(=O)c1=Cc1ccc([O-])c([O-])c1 (optimized conformer: 89.39066249970105 kcal/mol)

>  <smiles>  (74) 
C=c1[nH]n(C(=O)c2ccc(O)cc2)c(=O)c1=Cc1ccc(O)c(O)c1

>  <score_type>  (74) 
oracle

>  <origin>  (74) 
adg

>  <m_score__min__energy>  (74) 
-17.309999999999999

>  <m_primary>  (74) 
energy

$$$$
74:0
     RDKit          3D

 26 27  0  0  0  0  0  0  0  0999 V2000
   56.5460   25.7360   44.3250 H   0  0  0  0  0  0  0  0  0  0  0  0
   57.3580   25.4070   44.8290 O   0  0  0  0  0  0  0  0  0  0  0  0
   58.0460   26.1690   45.7760 C   0  0  0  0  0  0  0  0  0  0  0  0
   58.7695   25.6416   46.4150 H   0  0  0  0  0  0  0  0  0  0  0  0
   57.8990   27.5120   45.9780 C   0  0  0  0  0  0  0  0  0  0  0  0
   56.6380   28.0520   45.6210 C   0  0  0  0  0  0  0  0  0  0  0  0
   55.5520   27.1730   45.6130 O   0  0  0  0  0  0  0  0  0  0  0  0
   56.3670   29.3710   45.2010 C   0  0  0  0  0  0  0  0  0  0  0  0
   55.0580   29.6610   44.7840 O   0  0  0  0  0  0  0  0  0  0  0  0
   54.3560   28.9600   44.5830 H   0  0  0  0  0  0  0  0  0  0  0  0
   57.3030   30.4200   45.0910 C   0  0  0  0  0  0  0  0  0  0  0  0
   57.0080   31.4490   44.1620 C   0  0  0  0  0  0  0  0  0  0  0  0
   56.1352   31.3404   43.5014 H   0  0  0  0  0  0  0  0  0  0  0  0
   57.7940   32.5930   44.0640 C   0  0  0  0  0  0  0  0  0  0  0  0
   57.5478   33.3682   43.3234 H   0  0  0  0  0  0  0  0  0  0  0  0
   58.8870   32.7550   44.9000 C   0  0  0  0  0  0  0  0  0  0  0  0
   59.5088   33.6594   44.8256 H   0  0  0  0  0  0  0  0  0  0  0  0
   59.1960   31.7720   45.8330 C   0  0  0  0  0  0  0  0  0  0  0  0
   60.0629   31.9151   46.4948 H   0  0  0  0  0  0  0  0  0  0  0  0
   58.4210   30.5870   45.9540 C   0  0  0  0  0  0  0  0  0  0  0  0
   58.7980   29.6370   46.9270 C   0  0  0  0  0  0  0  0  0  0  0  0
   59.3020   30.0450   48.1110 C   0  0  0  0  0  0  0  0  0  0  0  0
   59.2263   31.1020   48.4061 H   0  0  0  0  0  0  0  0  0  0  0  0
   59.7884   29.3205   48.7807 H   0  0  0  0  0  0  0  0  0  0  0  0
   58.9190   28.2800   46.5960 C   0  0  0  0  0  0  0  0  0  0  0  0
   60.0170   27.7340   46.8930 O   0  0  0  0  0  0  0  0  0  0  0  0
  1  2  1  0
  2  3  1  0
  3  4  1  0
  3  5  2  0
  5  6  1  0
  6  7  1  0
  6  8  2  0
  8  9  1  0
  9 10  1  0
  8 11  1  0
 11 12  2  0
 12 13  1  0
 12 14  1  0
 14 15  1  0
 14 16  2  0
 16 17  1  0
 16 18  1  0
 18 19  1  0
 18 20  2  0
 20 21  1  0
 21 22  2  0
 22 23  1  0
 22 24  1  0
 21 25  1  0
 25 26  2  0
 25  5  1  0
 20 11  1  0
M  CHG  1   7  -1
M  END
>  <UniqueID>  (75) 
73

>  <SMILES>  (75) 
C=c1c(=O)/c(=C\O)c([O-])c(O)c2ccccc12

>  <Energy>  (75) 
98.72231326000802

>  <Genealogy>  (75) 
C=c1c(=O)c(=CO)c([O-])c(O)c2ccccc12 (protonated)
C=c1c(=O)/c(=C\O)c([O-])c(O)c2ccccc12 (cis-trans isomerization)
C=c1c(=O)/c(=C\O)c([O-])c(O)c2ccccc12 (3D coordinates assigned)
C=c1c(=O)/c(=C\O)c([O-])c(O)c2ccccc12 (optimized conformer: 98.72231326000802 kcal/mol)

>  <smiles>  (75) 
C=c1c(=O)c(=CO)c(O)c(O)c2ccccc12

>  <score_type>  (75) 
oracle

>  <origin>  (75) 
adg

>  <m_score__min__energy>  (75) 
-10.18

>  <m_primary>  (75) 
energy

$$$$
75:0
     RDKit          3D

 46 48  0  0  0  0  0  0  0  0999 V2000
   59.8480   27.6630   47.2830 C   0  0  0  0  0  0  0  0  0  0  0  0
   59.2970   28.5890   46.4810 C   0  0  0  0  0  0  0  0  0  0  0  0
   58.2240   28.3940   45.5970 C   0  0  0  0  0  0  0  0  0  0  0  0
   57.6490   27.2640   45.1390 C   0  0  0  0  0  0  0  0  0  0  0  0
   57.1670   26.1500   45.9730 C   0  0  0  0  0  0  0  0  0  0  0  0
   57.9250   25.1180   46.3900 N   0  0  0  0  0  0  0  0  0  0  0  0
   57.0340   24.3000   46.9900 C   0  0  0  0  0  0  0  0  0  0  0  0
   57.3680   23.2140   47.5300 O   0  0  0  0  0  0  0  0  0  0  0  0
   55.7540   24.7320   46.9570 N   0  0  0  0  0  0  0  0  0  0  0  0
   55.8560   25.8960   46.2970 C   0  0  0  0  0  0  0  0  0  0  0  0
   54.7720   26.7090   45.9920 O   0  0  0  0  0  0  0  0  0  0  0  0
   57.8020   29.6540   45.2180 C   0  0  0  0  0  0  0  0  0  0  0  0
   58.6520   30.5640   45.8140 C   0  0  0  0  0  0  0  0  0  0  0  0
   58.4960   32.0290   45.6840 C   0  0  0  0  0  0  0  0  0  0  0  0
   57.3400   32.5190   45.5750 O   0  0  0  0  0  0  0  0  0  0  0  0
   59.6410   32.8920   45.7180 N   0  0  0  0  0  0  0  0  0  0  0  0
   59.8830   33.9580   46.7000 C   0  0  2  0  0  0  0  0  0  0  0  0
   58.8720   33.7800   47.8440 C   0  0  0  0  0  0  0  0  0  0  0  0
   59.6360   35.3290   46.0160 C   0  0  0  0  0  0  0  0  0  0  0  0
   58.8480   35.1680   44.8670 O   0  0  0  0  0  0  0  0  0  0  0  0
   61.2960   33.8210   47.2870 C   0  0  0  0  0  0  0  0  0  0  0  0
   62.3910   33.5910   46.4240 C   0  0  0  0  0  0  0  0  0  0  0  0
   63.6810   33.4210   46.9310 C   0  0  0  0  0  0  0  0  0  0  0  0
   63.9020   33.4520   48.3080 C   0  0  0  0  0  0  0  0  0  0  0  0
   62.8310   33.6440   49.1800 C   0  0  0  0  0  0  0  0  0  0  0  0
   61.5370   33.8150   48.6790 C   0  0  0  0  0  0  0  0  0  0  0  0
   59.5890   29.9160   46.5510 N   0  0  0  0  0  0  0  0  0  0  0  0
   60.6770   30.5400   47.3170 C   0  0  0  0  0  0  0  0  0  0  0  0
   60.6901   27.9329   47.9372 H   0  0  0  0  0  0  0  0  0  0  0  0
   59.4571   26.6348   47.2856 H   0  0  0  0  0  0  0  0  0  0  0  0
   57.5297   27.1657   44.0499 H   0  0  0  0  0  0  0  0  0  0  0  0
   56.9489   29.8880   44.5642 H   0  0  0  0  0  0  0  0  0  0  0  0
   59.3910   33.8714   48.8095 H   0  0  0  0  0  0  0  0  0  0  0  0
   58.0950   34.5552   47.7706 H   0  0  0  0  0  0  0  0  0  0  0  0
   58.4065   32.7861   47.7706 H   0  0  0  0  0  0  0  0  0  0  0  0
   59.1180   35.9970   46.7199 H   0  0  0  0  0  0  0  0  0  0  0  0
   60.6046   35.7624   45.7262 H   0  0  0  0  0  0  0  0  0  0  0  0
   58.4930   34.2420   44.9020 H   0  0  0  0  0  0  0  0  0  0  0  0
   62.2249   33.5452   45.3376 H   0  0  0  0  0  0  0  0  0  0  0  0
   64.5246   33.2623   46.2431 H   0  0  0  0  0  0  0  0  0  0  0  0
   64.9198   33.3251   48.7054 H   0  0  0  0  0  0  0  0  0  0  0  0
   63.0048   33.6610   50.2660 H   0  0  0  0  0  0  0  0  0  0  0  0
   60.6968   33.9464   49.3768 H   0  0  0  0  0  0  0  0  0  0  0  0
   60.4795   30.4268   48.3932 H   0  0  0  0  0  0  0  0  0  0  0  0
   61.6297   30.0510   47.0656 H   0  0  0  0  0  0  0  0  0  0  0  0
   60.7361   31.6093   47.0656 H   0  0  0  0  0  0  0  0  0  0  0  0
  1  2  2  0
  2  3  1  0
  3  4  2  3
  4  5  1  0
  5  6  1  0
  6  7  1  0
  7  8  2  0
  7  9  1  0
  9 10  1  0
 10 11  1  0
  3 12  1  0
 12 13  2  0
 13 14  1  0
 14 15  2  0
 14 16  1  0
 17 16  1  6
 17 18  1  0
 17 19  1  0
 19 20  1  0
 17 21  1  0
 21 22  2  0
 22 23  1  0
 23 24  2  0
 24 25  1  0
 25 26  2  0
 13 27  1  0
 27 28  1  0
 27  2  1  0
 10  5  2  0
 26 21  1  0
  1 29  1  0
  1 30  1  0
  4 31  1  0
 12 32  1  0
 18 33  1  0
 18 34  1  0
 18 35  1  0
 19 36  1  0
 19 37  1  0
 20 38  1  0
 22 39  1  0
 23 40  1  0
 24 41  1  0
 25 42  1  0
 26 43  1  0
 28 44  1  0
 28 45  1  0
 28 46  1  0
M  CHG  4   6  -1   9  -1  11  -1  16  -1
M  END
>  <UniqueID>  (76) 
74

>  <SMILES>  (76) 
C=c1c(=Cc2[n-]c(=O)[n-]c2[O-])cc(C(=O)[N-][C@](C)(CO)c2ccccc2)n1C

>  <Energy>  (76) 
120.18134159184137

>  <Genealogy>  (76) 
C=c1c(=Cc2[n-]c(=O)[n-]c2[O-])cc(C(=O)[N-]C(C)(CO)c2ccccc2)n1C (protonated)
C=c1c(=Cc2[n-]c(=O)[n-]c2[O-])cc(C(=O)[N-][C@](C)(CO)c2ccccc2)n1C (chirality)
C=c1c(=Cc2[n-]c(=O)[n-]c2[O-])cc(C(=O)[N-][C@](C)(CO)c2ccccc2)n1C (3D coordinates assigned)
C=c1c(=Cc2[n-]c(=O)[n-]c2[O-])cc(C(=O)[N-][C@](C)(CO)c2ccccc2)n1C (optimized conformer: 120.18134159184137 kcal/mol)

>  <smiles>  (76) 
C=c1c(=Cc2[nH]c(=O)[nH]c2O)cc(C(=O)NC(C)(CO)c2ccccc2)n1C

>  <score_type>  (76) 
oracle

>  <origin>  (76) 
adg

>  <m_score__min__energy>  (76) 
-17.82

>  <m_primary>  (76) 
energy

$$$$
76:0
     RDKit          3D

 54 57  0  0  0  0  0  0  0  0999 V2000
   53.3774   29.3259   53.9653 H   0  0  0  0  0  0  0  0  0  0  0  0
   53.7940   29.8250   53.0780 C   0  0  0  0  0  0  0  0  0  0  0  0
   55.1250   29.8080   52.9220 C   0  0  0  0  0  0  0  0  0  0  0  0
   56.0240   31.2250   52.3120 S   0  0  0  0  0  0  0  0  0  0  0  0
   57.5360   30.2400   52.4660 C   0  0  0  0  0  0  0  0  0  0  0  0
   58.8320   30.7610   52.1040 N   0  0  0  0  0  0  0  0  0  0  0  0
   59.0160   31.4250   50.8400 C   0  0  0  0  0  0  0  0  0  0  0  0
   59.3300   32.7930   50.8010 C   0  0  0  0  0  0  0  0  0  0  0  0
   59.4262   33.3588   51.7394 H   0  0  0  0  0  0  0  0  0  0  0  0
   59.5210   33.4400   49.5770 C   0  0  0  0  0  0  0  0  0  0  0  0
   59.7744   34.5102   49.5569 H   0  0  0  0  0  0  0  0  0  0  0  0
   59.3910   32.7310   48.3750 C   0  0  0  0  0  0  0  0  0  0  0  0
   59.5770   33.4290   47.0890 C   0  0  0  0  0  0  0  0  0  0  0  0
   60.5910   33.1620   46.3910 O   0  0  0  0  0  0  0  0  0  0  0  0
   58.6700   34.4400   46.6310 N   0  0  0  0  0  0  0  0  0  0  0  0
   58.0810   34.5270   45.2940 C   0  0  0  0  0  0  0  0  0  0  0  0
   57.1150   35.0487   45.3619 H   0  0  0  0  0  0  0  0  0  0  0  0
   58.7774   35.0774   44.6443 H   0  0  0  0  0  0  0  0  0  0  0  0
   57.8590   33.1590   44.7000 C   0  0  0  0  0  0  0  0  0  0  0  0
   58.1170   32.9300   43.3360 C   0  0  0  0  0  0  0  0  0  0  0  0
   58.4803   33.7516   42.7011 H   0  0  0  0  0  0  0  0  0  0  0  0
   57.9130   31.6610   42.7850 C   0  0  0  0  0  0  0  0  0  0  0  0
   58.1145   31.4872   41.7177 H   0  0  0  0  0  0  0  0  0  0  0  0
   57.4540   30.6140   43.5870 C   0  0  0  0  0  0  0  0  0  0  0  0
   57.3066   29.6136   43.1541 H   0  0  0  0  0  0  0  0  0  0  0  0
   57.1820   30.8370   44.9390 C   0  0  0  0  0  0  0  0  0  0  0  0
   56.8170   30.0124   45.5689 H   0  0  0  0  0  0  0  0  0  0  0  0
   57.3730   32.1070   45.4930 C   0  0  0  0  0  0  0  0  0  0  0  0
   57.1416   32.2824   46.5540 H   0  0  0  0  0  0  0  0  0  0  0  0
   59.1010   31.3580   48.4110 C   0  0  0  0  0  0  0  0  0  0  0  0
   59.0191   30.7903   47.4724 H   0  0  0  0  0  0  0  0  0  0  0  0
   58.9160   30.7100   49.6350 C   0  0  0  0  0  0  0  0  0  0  0  0
   58.6907   29.6335   49.6551 H   0  0  0  0  0  0  0  0  0  0  0  0
   59.9600   30.6640   53.0440 C   0  0  0  0  0  0  0  0  0  0  0  0
   59.6826   29.9933   53.8706 H   0  0  0  0  0  0  0  0  0  0  0  0
   60.1868   31.6711   53.4240 H   0  0  0  0  0  0  0  0  0  0  0  0
   61.2050   30.1140   52.3510 C   0  0  0  0  0  0  0  0  0  0  0  0
   61.9343   29.7918   53.1088 H   0  0  0  0  0  0  0  0  0  0  0  0
   60.9257   29.2555   51.7225 H   0  0  0  0  0  0  0  0  0  0  0  0
   61.6516   30.8986   51.7225 H   0  0  0  0  0  0  0  0  0  0  0  0
   57.3900   29.0160   52.8620 N   0  0  0  0  0  0  0  0  0  0  0  0
   56.0390   28.6920   53.1330 C   0  0  0  0  0  0  0  0  0  0  0  0
   55.6890   27.5290   53.4620 O   0  0  0  0  0  0  0  0  0  0  0  0
   52.8480   30.4650   52.1450 C   0  0  0  0  0  0  0  0  0  0  0  0
   52.6430   29.9050   50.8740 C   0  0  0  0  0  0  0  0  0  0  0  0
   53.1578   28.9737   50.5955 H   0  0  0  0  0  0  0  0  0  0  0  0
   51.7860   30.5280   49.9610 C   0  0  0  0  0  0  0  0  0  0  0  0
   51.6129   30.0752   48.9736 H   0  0  0  0  0  0  0  0  0  0  0  0
   51.1490   31.7250   50.3010 C   0  0  0  0  0  0  0  0  0  0  0  0
   50.3010   32.3450   49.3900 O   0  0  0  0  0  0  0  0  0  0  0  0
   51.3690   32.3020   51.5550 C   0  0  0  0  0  0  0  0  0  0  0  0
   50.8709   33.2462   51.8203 H   0  0  0  0  0  0  0  0  0  0  0  0
   52.2220   31.6800   52.4730 C   0  0  0  0  0  0  0  0  0  0  0  0
   52.4033   32.1431   53.4542 H   0  0  0  0  0  0  0  0  0  0  0  0
  1  2  1  0
  2  3  2  0
  3  4  1  0
  4  5  1  0
  5  6  1  0
  6  7  1  0
  7  8  2  0
  8  9  1  0
  8 10  1  0
 10 11  1  0
 10 12  2  0
 12 13  1  0
 13 14  2  0
 13 15  1  0
 15 16  1  0
 16 17  1  0
 16 18  1  0
 16 19  1  0
 19 20  2  0
 20 21  1  0
 20 22  1  0
 22 23  1  0
 22 24  2  0
 24 25  1  0
 24 26  1  0
 26 27  1  0
 26 28  2  0
 28 29  1  0
 12 30  1  0
 30 31  1  0
 30 32  2  0
 32 33  1  0
  6 34  1  0
 34 35  1  0
 34 36  1  0
 34 37  1  0
 37 38  1  0
 37 39  1  0
 37 40  1  0
  5 41  2  0
 41 42  1  0
 42 43  2  0
  2 44  1  0
 44 45  2  0
 45 46  1  0
 45 47  1  0
 47 48  1  0
 47 49  2  0
 49 50  1  0
 49 51  1  0
 51 52  1  0
 51 53  2  0
 53 54  1  0
 42  3  1  0
 53 44  1  0
 32  7  1  0
 28 19  1  0
M  CHG  2  15  -1  50  -1
M  END
>  <UniqueID>  (77) 
75

>  <SMILES>  (77) 
CCN(C1=NC(=O)/C(=C\c2ccc([O-])cc2)S1)c1ccc(C(=O)[N-]Cc2ccccc2)cc1

>  <Energy>  (77) 
89.52020121830306

>  <Genealogy>  (77) 
CCN(C1=NC(=O)C(=Cc2ccc([O-])cc2)S1)c1ccc(C(=O)[N-]Cc2ccccc2)cc1 (protonated)
CCN(C1=NC(=O)/C(=C\c2ccc([O-])cc2)S1)c1ccc(C(=O)[N-]Cc2ccccc2)cc1 (cis-trans isomerization)
CCN(C1=NC(=O)/C(=C\c2ccc([O-])cc2)S1)c1ccc(C(=O)[N-]Cc2ccccc2)cc1 (3D coordinates assigned)
CCN(C1=NC(=O)/C(=C\c2ccc([O-])cc2)S1)c1ccc(C(=O)[N-]Cc2ccccc2)cc1 (nonaromatic ring conformer: 89.52020121830306 kcal/mol)

>  <smiles>  (77) 
CCN(C1=NC(=O)C(=Cc2ccc(O)cc2)S1)c1ccc(C(=O)NCc2ccccc2)cc1

>  <score_type>  (77) 
oracle

>  <origin>  (77) 
adg

>  <m_score__min__energy>  (77) 
-14.23

>  <m_primary>  (77) 
energy

$$$$
77:0
     RDKit          3D

 48 49  0  0  0  0  0  0  0  0999 V2000
   59.2730   29.7780   49.4280 C   0  0  0  0  0  0  0  0  0  0  0  0
   60.3890   29.7640   48.3830 C   0  0  0  0  0  0  0  0  0  0  0  0
   59.8670   29.3090   47.0400 C   0  0  0  0  0  0  0  0  0  0  0  0
   60.7580   29.0910   45.9710 C   0  0  0  0  0  0  0  0  0  0  0  0
   60.2810   28.6790   44.7220 C   0  0  0  0  0  0  0  0  0  0  0  0
   58.9130   28.4880   44.5200 C   0  0  0  0  0  0  0  0  0  0  0  0
   58.0000   28.7060   45.5760 C   0  0  0  0  0  0  0  0  0  0  0  0
   56.5450   28.5690   45.3340 C   0  0  0  0  0  0  0  0  0  0  0  0
   55.9660   27.4820   45.6000 O   0  0  0  0  0  0  0  0  0  0  0  0
   55.7950   29.6540   44.7750 N   0  0  0  0  0  0  0  0  0  0  0  0
   55.9590   30.1350   43.4040 C   0  0  0  0  0  0  0  0  0  0  0  0
   57.0210   31.1870   43.3530 C   0  0  0  0  0  0  0  0  0  0  0  0
   57.2780   31.7600   42.2600 O   0  0  0  0  0  0  0  0  0  0  0  0
   57.6820   31.5940   44.5580 N   0  0  0  0  0  0  0  0  0  0  0  0
   58.0890   32.9800   44.7570 C   0  0  0  0  0  0  0  0  0  0  0  0
   58.7900   33.1080   46.0800 C   0  0  0  0  0  0  0  0  0  0  0  0
   58.0700   33.0300   47.2790 C   0  0  0  0  0  0  0  0  0  0  0  0
   58.7560   33.0590   48.4920 C   0  0  0  0  0  0  0  0  0  0  0  0
   60.1110   33.1560   48.5060 N   0  0  0  0  0  0  0  0  0  0  0  0
   60.8530   33.2260   47.3620 C   0  0  0  0  0  0  0  0  0  0  0  0
   62.2950   33.3150   47.4490 N   0  0  0  0  0  0  0  0  0  0  0  0
   63.0350   33.9320   46.3450 C   0  0  0  0  0  0  0  0  0  0  0  0
   63.0190   32.8270   48.6290 C   0  0  0  0  0  0  0  0  0  0  0  0
   60.1870   33.2010   46.1220 C   0  0  0  0  0  0  0  0  0  0  0  0
   58.4900   29.0890   46.8440 C   0  0  0  0  0  0  0  0  0  0  0  0
   59.7141   29.7725   50.4357 H   0  0  0  0  0  0  0  0  0  0  0  0
   58.6622   30.6839   49.3001 H   0  0  0  0  0  0  0  0  0  0  0  0
   58.6397   28.8877   49.3001 H   0  0  0  0  0  0  0  0  0  0  0  0
   60.8016   30.7788   48.2836 H   0  0  0  0  0  0  0  0  0  0  0  0
   61.1689   29.0617   48.7123 H   0  0  0  0  0  0  0  0  0  0  0  0
   61.8369   29.2459   46.1193 H   0  0  0  0  0  0  0  0  0  0  0  0
   60.9865   28.5049   43.8962 H   0  0  0  0  0  0  0  0  0  0  0  0
   58.5444   28.1665   43.5347 H   0  0  0  0  0  0  0  0  0  0  0  0
   56.2476   29.2947   42.7555 H   0  0  0  0  0  0  0  0  0  0  0  0
   55.0081   30.5656   43.0569 H   0  0  0  0  0  0  0  0  0  0  0  0
   57.5490   31.0090   45.4130 H   0  0  0  0  0  0  0  0  0  0  0  0
   58.7716   33.2819   43.9490 H   0  0  0  0  0  0  0  0  0  0  0  0
   57.2011   33.6293   44.7467 H   0  0  0  0  0  0  0  0  0  0  0  0
   56.9733   32.9466   47.2634 H   0  0  0  0  0  0  0  0  0  0  0  0
   58.1995   33.0033   49.4392 H   0  0  0  0  0  0  0  0  0  0  0  0
   63.8203   34.5868   46.7507 H   0  0  0  0  0  0  0  0  0  0  0  0
   63.4953   33.1464   45.7278 H   0  0  0  0  0  0  0  0  0  0  0  0
   62.3449   34.5260   45.7278 H   0  0  0  0  0  0  0  0  0  0  0  0
   62.5085   33.1711   49.5406 H   0  0  0  0  0  0  0  0  0  0  0  0
   63.0435   31.7274   48.6153 H   0  0  0  0  0  0  0  0  0  0  0  0
   64.0475   33.2169   48.6153 H   0  0  0  0  0  0  0  0  0  0  0  0
   60.7633   33.2545   45.1866 H   0  0  0  0  0  0  0  0  0  0  0  0
   57.7914   29.2163   47.6841 H   0  0  0  0  0  0  0  0  0  0  0  0
  1  2  1  0
  2  3  1  0
  3  4  2  0
  4  5  1  0
  5  6  2  0
  6  7  1  0
  7  8  1  0
  8  9  2  0
  8 10  1  0
 10 11  1  0
 11 12  1  0
 12 13  2  0
 12 14  1  0
 14 15  1  0
 15 16  1  0
 16 17  2  0
 17 18  1  0
 18 19  2  0
 19 20  1  0
 20 21  1  0
 21 22  1  0
 21 23  1  0
 20 24  2  0
  7 25  2  0
 25  3  1  0
 24 16  1  0
  1 26  1  0
  1 27  1  0
  1 28  1  0
  2 29  1  0
  2 30  1  0
  4 31  1  0
  5 32  1  0
  6 33  1  0
 11 34  1  0
 11 35  1  0
 14 36  1  0
 15 37  1  0
 15 38  1  0
 17 39  1  0
 18 40  1  0
 22 41  1  0
 22 42  1  0
 22 43  1  0
 23 44  1  0
 23 45  1  0
 23 46  1  0
 24 47  1  0
 25 48  1  0
M  CHG  1  10  -1
M  END
>  <UniqueID>  (78) 
76

>  <SMILES>  (78) 
CCc1cccc(C(=O)[N-]CC(=O)NCc2ccnc(N(C)C)c2)c1

>  <Energy>  (78) 
34.59021733416944

>  <Genealogy>  (78) 
CCc1cccc(C(=O)[N-]CC(=O)NCc2ccnc(N(C)C)c2)c1 (protonated)
CCc1cccc(C(=O)[N-]CC(=O)NCc2ccnc(N(C)C)c2)c1 (3D coordinates assigned)
CCc1cccc(C(=O)[N-]CC(=O)NCc2ccnc(N(C)C)c2)c1 (optimized conformer: 34.59021733416944 kcal/mol)

>  <smiles>  (78) 
CCc1cccc(C(=O)NCC(=O)NCc2ccnc(N(C)C)c2)c1

>  <score_type>  (78) 
oracle

>  <origin>  (78) 
adg

>  <m_score__min__energy>  (78) 
-9.2899999999999991

>  <m_primary>  (78) 
energy

$$$$
78:0
     RDKit          3D

 43 45  0  0  0  0  0  0  0  0999 V2000
   53.4240   27.9040   53.2460 C   0  0  0  0  0  0  0  0  0  0  0  0
   54.2610   28.9470   53.0230 C   0  0  0  0  0  0  0  0  0  0  0  0
   53.8120   30.1880   52.4530 C   0  0  0  0  0  0  0  0  0  0  0  0
   52.4910   30.4610   52.2550 C   0  0  0  0  0  0  0  0  0  0  0  0
   51.8690   30.8610   50.9720 C   0  0  0  0  0  0  0  0  0  0  0  0
   51.7550   30.0750   49.8860 N   0  0  0  0  0  0  0  0  0  0  0  0
   51.0230   30.8220   49.0320 C   0  0  0  0  0  0  0  0  0  0  0  0
   50.7100   30.4250   47.8790 O   0  0  0  0  0  0  0  0  0  0  0  0
   50.6420   32.0240   49.5140 N   0  0  0  0  0  0  0  0  0  0  0  0
   51.1760   32.0270   50.7470 C   0  0  0  0  0  0  0  0  0  0  0  0
   51.0280   33.0720   51.6490 O   0  0  0  0  0  0  0  0  0  0  0  0
   54.7780   31.1780   52.1560 C   0  0  0  0  0  0  0  0  0  0  0  0
   56.1420   30.9920   52.4070 C   0  0  0  0  0  0  0  0  0  0  0  0
   57.1040   32.1030   52.0640 C   0  0  0  0  0  0  0  0  0  0  0  0
   56.5770   29.7940   53.0050 C   0  0  0  0  0  0  0  0  0  0  0  0
   57.9310   29.5580   53.3130 C   0  0  0  0  0  0  0  0  0  0  0  0
   58.3100   28.3890   53.8870 N   0  0  0  0  0  0  0  0  0  0  0  0
   57.4050   27.4250   54.1770 C   0  0  0  0  0  0  0  0  0  0  0  0
   57.8050   26.3170   54.7270 N   0  0  0  0  0  0  0  0  0  0  0  0
   57.3280   24.9820   54.3650 C   0  0  0  0  0  0  0  0  0  0  0  0
   58.3560   24.2570   53.4910 C   0  0  0  0  0  0  0  0  0  0  0  0
   59.2400   25.2200   52.8360 N   0  0  0  0  0  0  0  0  0  0  0  0
   60.4040   24.8240   52.0980 C   0  0  0  0  0  0  0  0  0  0  0  0
   61.2500   25.8560   51.4280 C   0  0  0  0  0  0  0  0  0  0  0  0
   60.7020   23.6050   51.9810 O   0  0  0  0  0  0  0  0  0  0  0  0
   56.0920   27.6310   53.8930 N   0  0  0  0  0  0  0  0  0  0  0  0
   55.6430   28.7820   53.3160 C   0  0  0  0  0  0  0  0  0  0  0  0
   53.8109   26.9723   53.6844 H   0  0  0  0  0  0  0  0  0  0  0  0
   52.3580   27.9895   52.9885 H   0  0  0  0  0  0  0  0  0  0  0  0
   51.8267   30.3764   53.1277 H   0  0  0  0  0  0  0  0  0  0  0  0
   54.4450   32.1277   51.7120 H   0  0  0  0  0  0  0  0  0  0  0  0
   57.4920   32.5511   52.9906 H   0  0  0  0  0  0  0  0  0  0  0  0
   57.9396   31.6959   51.4757 H   0  0  0  0  0  0  0  0  0  0  0  0
   56.5816   32.8718   51.4757 H   0  0  0  0  0  0  0  0  0  0  0  0
   58.6853   30.3260   53.0868 H   0  0  0  0  0  0  0  0  0  0  0  0
   57.1583   24.3985   55.2819 H   0  0  0  0  0  0  0  0  0  0  0  0
   56.3911   25.0836   53.7977 H   0  0  0  0  0  0  0  0  0  0  0  0
   58.9566   23.5842   54.1208 H   0  0  0  0  0  0  0  0  0  0  0  0
   57.8243   23.6800   52.7201 H   0  0  0  0  0  0  0  0  0  0  0  0
   59.0420   26.2380   52.9590 H   0  0  0  0  0  0  0  0  0  0  0  0
   61.7528   26.4693   52.1903 H   0  0  0  0  0  0  0  0  0  0  0  0
   62.0048   25.3601   50.8001 H   0  0  0  0  0  0  0  0  0  0  0  0
   60.6157   26.4989   50.8001 H   0  0  0  0  0  0  0  0  0  0  0  0
  1  2  2  0
  2  3  1  0
  3  4  2  3
  4  5  1  0
  5  6  1  0
  6  7  1  0
  7  8  2  0
  7  9  1  0
  9 10  1  0
 10 11  1  0
  3 12  1  0
 12 13  2  0
 13 14  1  0
 13 15  1  0
 15 16  2  0
 16 17  1  0
 17 18  1  0
 18 19  2  3
 19 20  1  0
 20 21  1  0
 21 22  1  0
 22 23  1  0
 23 24  1  0
 23 25  2  0
 18 26  1  0
 26 27  2  0
 27  2  1  0
 10  5  2  0
 27 15  1  0
  1 28  1  0
  1 29  1  0
  4 30  1  0
 12 31  1  0
 14 32  1  0
 14 33  1  0
 14 34  1  0
 16 35  1  0
 20 36  1  0
 20 37  1  0
 21 38  1  0
 21 39  1  0
 22 40  1  0
 24 41  1  0
 24 42  1  0
 24 43  1  0
M  CHG  4   6  -1   9  -1  11  -1  17  -1
M  END
>  <UniqueID>  (79) 
77

>  <SMILES>  (79) 
C=c1c(=Cc2[n-]c(=O)[n-]c2[O-])cc(C)c2c[n-]c(=NCCNC(C)=O)nc12

>  <Energy>  (79) 
91.98603434834386

>  <Genealogy>  (79) 
C=c1c(=Cc2[n-]c(=O)[n-]c2[O-])cc(C)c2c[n-]c(=NCCNC(C)=O)nc12 (protonated)
C=c1c(=Cc2[n-]c(=O)[n-]c2[O-])cc(C)c2c[n-]c(=NCCNC(C)=O)nc12 (3D coordinates assigned)
C=c1c(=Cc2[n-]c(=O)[n-]c2[O-])cc(C)c2c[n-]c(=NCCNC(C)=O)nc12 (optimized conformer: 91.98603434834386 kcal/mol)

>  <smiles>  (79) 
C=c1c(=Cc2[nH]c(=O)[nH]c2O)cc(C)c2c[nH]c(=NCCNC(C)=O)nc12

>  <score_type>  (79) 
oracle

>  <origin>  (79) 
adg

>  <m_score__min__energy>  (79) 
-16.600000000000001

>  <m_primary>  (79) 
energy

$$$$
79:0
     RDKit          3D

 40 41  0  0  0  0  0  0  0  0999 V2000
   62.9670   31.2190   48.3420 N   0  0  0  0  0  0  0  0  0  0  0  0
   63.6380   32.8130   48.3480 S   0  0  1  0  0  5  0  0  0  0  0  0
   64.9120   32.8200   49.1500 O   0  0  0  0  0  0  0  0  0  0  0  0
   63.9630   33.2940   46.7700 O   0  0  0  0  0  0  0  0  0  0  0  0
   62.4680   33.9420   49.0800 C   0  0  0  0  0  0  0  0  0  0  0  0
   61.1790   33.8990   48.3250 C   0  0  0  0  0  0  0  0  0  0  0  0
   60.2490   34.6890   48.6410 O   0  0  0  0  0  0  0  0  0  0  0  0
   61.0390   33.0270   47.1920 N   0  0  0  0  0  0  0  0  0  0  0  0
   59.8140   32.8870   46.4490 C   0  0  0  0  0  0  0  0  0  0  0  0
   58.9910   34.0080   46.2230 C   0  0  0  0  0  0  0  0  0  0  0  0
   57.7890   33.8790   45.5280 C   0  0  0  0  0  0  0  0  0  0  0  0
   57.3830   32.6290   45.0590 C   0  0  0  0  0  0  0  0  0  0  0  0
   58.1780   31.5030   45.2920 C   0  0  0  0  0  0  0  0  0  0  0  0
   59.3840   31.6140   46.0030 C   0  0  0  0  0  0  0  0  0  0  0  0
   60.2050   30.3990   46.2140 C   0  0  0  0  0  0  0  0  0  0  0  0
   61.4510   30.5210   46.3890 O   0  0  0  0  0  0  0  0  0  0  0  0
   59.6120   29.0850   46.2160 N   0  0  0  0  0  0  0  0  0  0  0  0
   60.3490   27.9400   45.6620 C   0  0  0  0  0  0  0  0  0  0  0  0
   60.0650   26.6370   46.4480 C   0  0  0  0  0  0  0  0  0  0  0  0
   59.1110   26.7930   47.4840 O   0  0  0  0  0  0  0  0  0  0  0  0
   57.9560   27.4230   46.9760 C   0  0  0  0  0  0  0  0  0  0  0  0
   58.2460   28.9020   46.7290 C   0  0  0  0  0  0  0  0  0  0  0  0
   63.2350   30.7810   47.4310 H   0  0  0  0  0  0  0  0  0  0  0  0
   61.9290   31.3310   48.3310 H   0  0  0  0  0  0  0  0  0  0  0  0
   64.9040   33.0280   46.6130 H   0  0  0  0  0  0  0  0  0  0  0  0
   62.2878   33.6532   50.1260 H   0  0  0  0  0  0  0  0  0  0  0  0
   62.8766   34.9626   49.0412 H   0  0  0  0  0  0  0  0  0  0  0  0
   61.8900   32.5260   46.8510 H   0  0  0  0  0  0  0  0  0  0  0  0
   59.2997   34.9948   46.5985 H   0  0  0  0  0  0  0  0  0  0  0  0
   57.1601   34.7636   45.3492 H   0  0  0  0  0  0  0  0  0  0  0  0
   56.4374   32.5297   44.5059 H   0  0  0  0  0  0  0  0  0  0  0  0
   57.8560   30.5211   44.9150 H   0  0  0  0  0  0  0  0  0  0  0  0
   60.0475   27.7962   44.6140 H   0  0  0  0  0  0  0  0  0  0  0  0
   61.4246   28.1572   45.7385 H   0  0  0  0  0  0  0  0  0  0  0  0
   59.6909   25.8804   45.7425 H   0  0  0  0  0  0  0  0  0  0  0  0
   61.0100   26.3363   46.9239 H   0  0  0  0  0  0  0  0  0  0  0  0
   57.6640   26.9442   46.0297 H   0  0  0  0  0  0  0  0  0  0  0  0
   57.1375   27.3279   47.7047 H   0  0  0  0  0  0  0  0  0  0  0  0
   57.5283   29.2927   45.9926 H   0  0  0  0  0  0  0  0  0  0  0  0
   58.1498   29.4451   47.6807 H   0  0  0  0  0  0  0  0  0  0  0  0
  1  2  1  0
  2  3  2  0
  2  4  1  6
  2  5  1  0
  5  6  1  0
  6  7  2  0
  6  8  1  0
  8  9  1  0
  9 10  2  0
 10 11  1  0
 11 12  2  0
 12 13  1  0
 13 14  2  0
 14 15  1  0
 15 16  2  0
 15 17  1  0
 17 18  1  0
 18 19  1  0
 19 20  1  0
 20 21  1  0
 21 22  1  0
 14  9  1  0
 22 17  1  0
  1 23  1  0
  1 24  1  0
  4 25  1  0
  5 26  1  0
  5 27  1  0
  8 28  1  0
 10 29  1  0
 11 30  1  0
 12 31  1  0
 13 32  1  0
 18 33  1  0
 18 34  1  0
 19 35  1  0
 19 36  1  0
 21 37  1  0
 21 38  1  0
 22 39  1  0
 22 40  1  0
M  CHG  1   2   1
M  END
>  <UniqueID>  (80) 
78

>  <SMILES>  (80) 
N[S@@+](=O)(O)CC(=O)Nc1ccccc1C(=O)N1CCOCC1

>  <Energy>  (80) 
48.806320587158346

>  <Genealogy>  (80) 
N[S+](=O)(O)CC(=O)Nc1ccccc1C(=O)N1CCOCC1 (protonated)
N[S@@+](=O)(O)CC(=O)Nc1ccccc1C(=O)N1CCOCC1 (chirality)
N[S@@+](=O)(O)CC(=O)Nc1ccccc1C(=O)N1CCOCC1 (3D coordinates assigned)
N[S@@+](=O)(O)CC(=O)Nc1ccccc1C(=O)N1CCOCC1 (nonaromatic ring conformer: 48.806320587158346 kcal/mol)

>  <smiles>  (80) 
N[S+](=O)([O-])CC(=O)Nc1ccccc1C(=O)N1CCOCC1

>  <score_type>  (80) 
oracle

>  <origin>  (80) 
adg

>  <m_score__min__energy>  (80) 
-5.0700000000000003

>  <m_primary>  (80) 
energy

$$$$
80:0
     RDKit          3D

 42 44  0  0  0  0  0  0  0  0999 V2000
   63.8080   32.5600   49.6980 C   0  0  0  0  0  0  0  0  0  0  0  0
   62.8450   31.6730   48.8980 C   0  0  0  0  0  0  0  0  0  0  0  0
   62.0420   30.7300   49.8040 C   0  0  0  0  0  0  0  0  0  0  0  0
   61.9610   32.4800   48.0220 N   0  0  0  0  0  0  0  0  0  0  0  0
   60.6440   32.2230   48.0340 N   0  0  0  0  0  0  0  0  0  0  0  0
   59.7600   32.8970   47.2440 C   0  0  0  0  0  0  0  0  0  0  0  0
   60.2350   33.8790   46.3660 C   0  0  0  0  0  0  0  0  0  0  0  0
   61.5950   34.1740   46.3670 C   0  0  0  0  0  0  0  0  0  0  0  0
   62.4580   33.4620   47.1960 C   0  0  0  0  0  0  0  0  0  0  0  0
   63.6870   33.7320   47.1640 O   0  0  0  0  0  0  0  0  0  0  0  0
   59.3010   34.6420   45.4590 C   0  0  0  0  0  0  0  0  0  0  0  0
   58.0410   33.9170   45.2110 N   0  0  0  0  0  0  0  0  0  0  0  0
   58.0570   32.9610   44.0780 C   0  0  0  0  0  0  0  0  0  0  0  0
   57.5790   31.5780   44.4260 C   0  0  0  0  0  0  0  0  0  0  0  0
   58.3570   30.4610   44.6440 C   0  0  0  0  0  0  0  0  0  0  0  0
   57.5010   29.4620   44.9110 N   0  0  0  0  0  0  0  0  0  0  0  0
   57.8470   28.0910   45.2570 C   0  0  0  0  0  0  0  0  0  0  0  0
   56.2690   29.9440   44.8990 N   0  0  0  0  0  0  0  0  0  0  0  0
   56.2860   31.2360   44.6030 N   0  0  0  0  0  0  0  0  0  0  0  0
   57.4020   33.4330   46.4480 C   0  0  0  0  0  0  0  0  0  0  0  0
   58.3060   32.5010   47.2670 C   0  0  0  0  0  0  0  0  0  0  0  0
   63.6404   32.4056   50.7741 H   0  0  0  0  0  0  0  0  0  0  0  0
   64.8455   32.2945   49.4467 H   0  0  0  0  0  0  0  0  0  0  0  0
   63.6285   33.6158   49.4467 H   0  0  0  0  0  0  0  0  0  0  0  0
   63.4608   31.0370   48.2451 H   0  0  0  0  0  0  0  0  0  0  0  0
   62.2471   30.9709   50.8575 H   0  0  0  0  0  0  0  0  0  0  0  0
   60.9678   30.8539   49.6020 H   0  0  0  0  0  0  0  0  0  0  0  0
   62.3355   29.6893   49.6020 H   0  0  0  0  0  0  0  0  0  0  0  0
   60.2630   31.4750   48.6580 H   0  0  0  0  0  0  0  0  0  0  0  0
   61.9874   34.9678   45.7144 H   0  0  0  0  0  0  0  0  0  0  0  0
   59.0657   35.6092   45.9272 H   0  0  0  0  0  0  0  0  0  0  0  0
   59.8073   34.7750   44.4916 H   0  0  0  0  0  0  0  0  0  0  0  0
   57.4095   33.3590   43.2827 H   0  0  0  0  0  0  0  0  0  0  0  0
   59.1071   32.8612   43.7659 H   0  0  0  0  0  0  0  0  0  0  0  0
   59.4547   30.4007   44.6068 H   0  0  0  0  0  0  0  0  0  0  0  0
   57.8738   27.9847   46.3515 H   0  0  0  0  0  0  0  0  0  0  0  0
   57.0935   27.4064   44.8405 H   0  0  0  0  0  0  0  0  0  0  0  0
   58.8352   27.8459   44.8405 H   0  0  0  0  0  0  0  0  0  0  0  0
   57.1396   34.3017   47.0697 H   0  0  0  0  0  0  0  0  0  0  0  0
   56.5140   32.8542   46.1540 H   0  0  0  0  0  0  0  0  0  0  0  0
   57.9597   32.5098   48.3110 H   0  0  0  0  0  0  0  0  0  0  0  0
   58.2366   31.5022   46.8115 H   0  0  0  0  0  0  0  0  0  0  0  0
  1  2  1  0
  2  3  1  0
  2  4  1  0
  4  5  1  0
  5  6  2  0
  6  7  1  0
  7  8  2  0
  8  9  1  0
  9 10  2  0
  7 11  1  0
 11 12  1  0
 12 13  1  0
 13 14  1  0
 14 15  2  0
 15 16  1  0
 16 17  1  0
 16 18  1  0
 18 19  2  0
 12 20  1  0
 20 21  1  0
  9  4  1  0
 19 14  1  0
 21  6  1  0
  1 22  1  0
  1 23  1  0
  1 24  1  0
  2 25  1  0
  3 26  1  0
  3 27  1  0
  3 28  1  0
  5 29  1  0
  8 30  1  0
 11 31  1  0
 11 32  1  0
 13 33  1  0
 13 34  1  0
 15 35  1  0
 17 36  1  0
 17 37  1  0
 17 38  1  0
 20 39  1  0
 20 40  1  0
 21 41  1  0
 21 42  1  0
M  CHG  1   5   1
M  END
>  <UniqueID>  (81) 
79

>  <SMILES>  (81) 
CC(C)n1[nH+]c2c(cc1=O)CN(Cc1cn(C)nn1)CC2

>  <Energy>  (81) 
85.91570217795112

>  <Genealogy>  (81) 
CC(C)n1[nH+]c2c(cc1=O)CN(Cc1cn(C)nn1)CC2 (protonated)
CC(C)n1[nH+]c2c(cc1=O)CN(Cc1cn(C)nn1)CC2 (3D coordinates assigned)
CC(C)n1[nH+]c2c(cc1=O)CN(Cc1cn(C)nn1)CC2 (nonaromatic ring conformer: 85.91570217795112 kcal/mol)

>  <smiles>  (81) 
CC(C)n1nc2c(cc1=O)CN(Cc1cn(C)nn1)CC2

>  <score_type>  (81) 
oracle

>  <origin>  (81) 
adg

>  <m_score__min__energy>  (81) 
-6.7300000000000004

>  <m_primary>  (81) 
energy

$$$$
81:0
     RDKit          3D

 77 81  0  0  0  0  0  0  0  0999 V2000
   58.1310   20.6390   48.0980 H   0  0  0  0  0  0  0  0  0  0  0  0
   57.2680   21.2190   48.0180 N   0  0  0  0  0  0  0  0  0  0  0  0
   56.7990   21.6510   46.7450 C   0  0  0  0  0  0  0  0  0  0  0  0
   56.5490   20.7910   45.8550 O   0  0  0  0  0  0  0  0  0  0  0  0
   56.6330   23.0920   46.4480 C   0  0  0  0  0  0  0  0  0  0  0  0
   56.3410   24.0070   47.4720 C   0  0  0  0  0  0  0  0  0  0  0  0
   56.2215   23.6586   48.5085 H   0  0  0  0  0  0  0  0  0  0  0  0
   56.2070   25.3260   47.1740 N   0  0  0  0  0  0  0  0  0  0  0  0
   56.3400   25.7850   45.9030 C   0  0  0  0  0  0  0  0  0  0  0  0
   56.2090   27.0450   45.6200 N   0  0  0  0  0  0  0  0  0  0  0  0
   57.1020   28.1550   45.9930 C   0  0  1  0  0  0  0  0  0  0  0  0
   56.4514   29.0359   46.0965 H   0  0  0  0  0  0  0  0  0  0  0  0
   57.8950   27.7400   47.2560 C   0  0  0  0  0  0  0  0  0  0  0  0
   57.7524   28.4689   48.0674 H   0  0  0  0  0  0  0  0  0  0  0  0
   57.5730   26.7714   47.6660 H   0  0  0  0  0  0  0  0  0  0  0  0
   59.3640   27.7320   46.7710 C   0  0  1  0  0  0  0  0  0  0  0  0
   60.0955   27.7239   47.5925 H   0  0  0  0  0  0  0  0  0  0  0  0
   59.5160   26.5200   45.8280 C   0  0  0  0  0  0  0  0  0  0  0  0
   60.5758   26.3033   45.6283 H   0  0  0  0  0  0  0  0  0  0  0  0
   59.1029   25.5891   46.2436 H   0  0  0  0  0  0  0  0  0  0  0  0
   58.7970   26.9910   44.5540 C   0  0  0  0  0  0  0  0  0  0  0  0
   59.4978   27.0599   43.7090 H   0  0  0  0  0  0  0  0  0  0  0  0
   58.0049   26.3011   44.2275 H   0  0  0  0  0  0  0  0  0  0  0  0
   58.2520   28.4070   44.9480 C   0  0  1  0  0  0  0  0  0  0  0  0
   57.8140   29.1830   43.6600 C   0  0  0  0  0  0  0  0  0  0  0  0
   58.7300   29.3766   43.0825 H   0  0  0  0  0  0  0  0  0  0  0  0
   57.0577   28.5182   43.2173 H   0  0  0  0  0  0  0  0  0  0  0  0
   56.9420   30.7580   43.7880 S   0  0  0  0  0  0  0  0  0  0  0  0
   56.6050   31.2180   42.3970 O   0  0  0  0  0  0  0  0  0  0  0  0
   55.6420   30.4950   44.4970 O   0  0  0  0  0  0  0  0  0  0  0  0
   57.8280   32.0080   44.6370 N   0  0  0  0  0  0  0  0  0  0  0  0
   56.9600   32.7050   45.6060 C   0  0  0  0  0  0  0  0  0  0  0  0
   56.0225   32.9882   45.1051 H   0  0  0  0  0  0  0  0  0  0  0  0
   56.7677   32.0221   46.4466 H   0  0  0  0  0  0  0  0  0  0  0  0
   57.6320   33.9760   46.1640 C   0  0  0  0  0  0  0  0  0  0  0  0
   57.1775   34.8621   45.6969 H   0  0  0  0  0  0  0  0  0  0  0  0
   57.4868   34.0094   47.2539 H   0  0  0  0  0  0  0  0  0  0  0  0
   59.0770   33.9590   45.8720 N   0  0  0  0  0  0  0  0  0  0  0  0
   59.7770   35.0780   46.5380 C   0  0  0  0  0  0  0  0  0  0  0  0
   60.5029   35.5182   45.8385 H   0  0  0  0  0  0  0  0  0  0  0  0
   59.0350   35.8319   46.8397 H   0  0  0  0  0  0  0  0  0  0  0  0
   60.5170   34.5830   47.7880 C   0  0  0  0  0  0  0  0  0  0  0  0
   61.1489   35.3939   48.1793 H   0  0  0  0  0  0  0  0  0  0  0  0
   59.7764   34.2808   48.5431 H   0  0  0  0  0  0  0  0  0  0  0  0
   61.3680   33.4180   47.4600 N   0  0  0  0  0  0  0  0  0  0  0  0
   62.6910   33.8590   46.9720 C   0  0  0  0  0  0  0  0  0  0  0  0
   62.5994   34.1829   45.9248 H   0  0  0  0  0  0  0  0  0  0  0  0
   63.0393   34.6912   47.6014 H   0  0  0  0  0  0  0  0  0  0  0  0
   63.7160   32.7130   47.0580 C   0  0  0  0  0  0  0  0  0  0  0  0
   63.3695   31.8918   46.4134 H   0  0  0  0  0  0  0  0  0  0  0  0
   64.6821   33.1299   46.7373 H   0  0  0  0  0  0  0  0  0  0  0  0
   63.9100   32.1980   48.3700 O   0  0  0  0  0  0  0  0  0  0  0  0
   62.8450   32.4870   49.2620 C   0  0  0  0  0  0  0  0  0  0  0  0
   62.8563   31.7445   50.0736 H   0  0  0  0  0  0  0  0  0  0  0  0
   62.9992   33.5091   49.6382 H   0  0  0  0  0  0  0  0  0  0  0  0
   61.4650   32.4500   48.5830 C   0  0  0  0  0  0  0  0  0  0  0  0
   61.2884   31.4364   48.1938 H   0  0  0  0  0  0  0  0  0  0  0  0
   60.7105   32.7264   49.3343 H   0  0  0  0  0  0  0  0  0  0  0  0
   59.3030   33.9710   44.4070 C   0  0  0  0  0  0  0  0  0  0  0  0
   59.1138   34.9853   44.0256 H   0  0  0  0  0  0  0  0  0  0  0  0
   60.3429   33.6660   44.2183 H   0  0  0  0  0  0  0  0  0  0  0  0
   58.3730   32.9820   43.6780 C   0  0  0  0  0  0  0  0  0  0  0  0
   57.5456   33.5361   43.2107 H   0  0  0  0  0  0  0  0  0  0  0  0
   58.9459   32.4482   42.9054 H   0  0  0  0  0  0  0  0  0  0  0  0
   59.4260   28.9450   45.8290 C   0  0  0  0  0  0  0  0  0  0  0  0
   59.1970   30.2690   46.6210 C   0  0  0  0  0  0  0  0  0  0  0  0
   59.2329   30.0613   47.7006 H   0  0  0  0  0  0  0  0  0  0  0  0
   59.9833   30.9928   46.3605 H   0  0  0  0  0  0  0  0  0  0  0  0
   58.2133   30.6866   46.3605 H   0  0  0  0  0  0  0  0  0  0  0  0
   60.8170   29.0830   45.1310 C   0  0  0  0  0  0  0  0  0  0  0  0
   61.6045   29.1611   45.8950 H   0  0  0  0  0  0  0  0  0  0  0  0
   61.0016   28.1988   44.5033 H   0  0  0  0  0  0  0  0  0  0  0  0
   60.8242   29.9863   44.5033 H   0  0  0  0  0  0  0  0  0  0  0  0
   56.6180   24.8780   44.8830 C   0  0  0  0  0  0  0  0  0  0  0  0
   56.7304   25.2302   43.8470 H   0  0  0  0  0  0  0  0  0  0  0  0
   56.7500   23.5560   45.1720 N   0  0  0  0  0  0  0  0  0  0  0  0
   56.9590   22.9010   44.3850 H   0  0  0  0  0  0  0  0  0  0  0  0
  1  2  1  0
  2  3  1  0
  3  4  2  0
  3  5  1  0
  5  6  2  0
  6  7  1  0
  6  8  1  0
  8  9  1  0
  9 10  2  0
 10 11  1  0
 11 12  1  1
 11 13  1  0
 13 14  1  0
 13 15  1  0
 13 16  1  0
 16 17  1  1
 16 18  1  0
 18 19  1  0
 18 20  1  0
 18 21  1  0
 21 22  1  0
 21 23  1  0
 21 24  1  0
 24 25  1  6
 25 26  1  0
 25 27  1  0
 25 28  1  0
 28 29  2  0
 28 30  2  0
 28 31  1  0
 31 32  1  0
 32 33  1  0
 32 34  1  0
 32 35  1  0
 35 36  1  0
 35 37  1  0
 35 38  1  0
 38 39  1  0
 39 40  1  0
 39 41  1  0
 39 42  1  0
 42 43  1  0
 42 44  1  0
 42 45  1  0
 45 46  1  0
 46 47  1  0
 46 48  1  0
 46 49  1  0
 49 50  1  0
 49 51  1  0
 49 52  1  0
 52 53  1  0
 53 54  1  0
 53 55  1  0
 53 56  1  0
 56 57  1  0
 56 58  1  0
 38 59  1  0
 59 60  1  0
 59 61  1  0
 59 62  1  0
 62 63  1  0
 62 64  1  0
 24 65  1  0
 65 66  1  0
 66 67  1  0
 66 68  1  0
 66 69  1  0
 65 70  1  0
 70 71  1  0
 70 72  1  0
 70 73  1  0
  9 74  1  0
 74 75  1  0
 74 76  2  0
 76 77  1  0
 76  5  1  0
 24 11  1  0
 62 31  1  0
 65 16  1  0
 56 45  1  0
M  CHG  3   2  -1   8  -1  76   1
M  END
>  <UniqueID>  (82) 
80

>  <SMILES>  (82) 
CC1(C)[C@@H]2CC[C@@]1(CS(=O)(=O)N1CCN(CCN3CCOCC3)CC1)C(/N=c1/c[nH+]c(C([NH-])=O)c[n-]1)C2

>  <Energy>  (82) 
142.91587120161842

>  <Genealogy>  (82) 
CC1(C)C2CCC1(CS(=O)(=O)N1CCN(CCN3CCOCC3)CC1)C(N=c1c[nH+]c(C([NH-])=O)c[n-]1)C2 (protonated)
CC1(C)[C@@H]2CC[C@@]1(CS(=O)(=O)N1CCN(CCN3CCOCC3)CC1)C(N=c1c[nH+]c(C([NH-])=O)c[n-]1)C2 (chirality)
CC1(C)[C@@H]2CC[C@@]1(CS(=O)(=O)N1CCN(CCN3CCOCC3)CC1)C(/N=c1/c[nH+]c(C([NH-])=O)c[n-]1)C2 (cis-trans isomerization)
CC1(C)[C@@H]2CC[C@@]1(CS(=O)(=O)N1CCN(CCN3CCOCC3)CC1)C(/N=c1/c[nH+]c(C([NH-])=O)c[n-]1)C2 (3D coordinates assigned)
CC1(C)[C@@H]2CC[C@@]1(CS(=O)(=O)N1CCN(CCN3CCOCC3)CC1)C(/N=c1/c[nH+]c(C([NH-])=O)c[n-]1)C2 (nonaromatic ring conformer: 142.91587120161842 kcal/mol)

>  <smiles>  (82) 
CC1(C)C2CCC1(CS(=O)(=O)N1CCN(CCN3CCOCC3)CC1)C(N=c1cnc(C(N)=O)c[nH]1)C2

>  <score_type>  (82) 
oracle

>  <origin>  (82) 
adg

>  <m_score__min__energy>  (82) 
-13.15

>  <m_primary>  (82) 
energy

$$$$
82:0
     RDKit          3D

 44 46  0  0  0  0  0  0  0  0999 V2000
   57.8130   25.6980   47.1630 C   0  0  0  0  0  0  0  0  0  0  0  0
   57.9990   26.7340   46.3470 C   0  0  0  0  0  0  0  0  0  0  0  0
   59.2800   27.3080   46.0670 N   0  0  0  0  0  0  0  0  0  0  0  0
   58.9390   28.4030   45.1880 C   0  0  0  0  0  0  0  0  0  0  0  0
   59.9840   29.3490   44.6790 C   0  0  0  0  0  0  0  0  0  0  0  0
   57.6250   28.5220   44.9380 C   0  0  0  0  0  0  0  0  0  0  0  0
   56.9640   29.5880   44.1480 C   0  0  0  0  0  0  0  0  0  0  0  0
   56.7230   29.3990   42.9270 O   0  0  0  0  0  0  0  0  0  0  0  0
   56.5430   30.8200   44.7510 N   0  0  0  0  0  0  0  0  0  0  0  0
   57.4150   31.8540   45.2290 C   0  0  0  0  0  0  0  0  0  0  0  0
   57.3550   33.1220   44.6390 C   0  0  0  0  0  0  0  0  0  0  0  0
   58.1350   34.1680   45.1400 C   0  0  0  0  0  0  0  0  0  0  0  0
   58.9800   33.9540   46.2320 C   0  0  0  0  0  0  0  0  0  0  0  0
   59.0730   32.6790   46.8100 C   0  0  0  0  0  0  0  0  0  0  0  0
   59.9390   32.4480   47.9830 C   0  0  0  0  0  0  0  0  0  0  0  0
   59.4020   32.2410   49.1040 O   0  0  0  0  0  0  0  0  0  0  0  0
   61.3760   32.4970   47.8740 N   0  0  0  0  0  0  0  0  0  0  0  0
   62.0310   33.2360   46.7890 C   0  0  0  0  0  0  0  0  0  0  0  0
   63.3350   33.8570   47.3000 C   0  0  0  0  0  0  0  0  0  0  0  0
   64.1460   32.8800   47.9240 O   0  0  0  0  0  0  0  0  0  0  0  0
   63.5040   32.4010   49.0910 C   0  0  0  0  0  0  0  0  0  0  0  0
   62.2130   31.6560   48.7360 C   0  0  0  0  0  0  0  0  0  0  0  0
   58.3180   31.6240   46.2820 C   0  0  0  0  0  0  0  0  0  0  0  0
   56.9590   27.4500   45.6470 C   0  0  0  0  0  0  0  0  0  0  0  0
   55.7300   27.1720   45.6260 O   0  0  0  0  0  0  0  0  0  0  0  0
   56.7990   25.3070   47.3331 H   0  0  0  0  0  0  0  0  0  0  0  0
   58.6734   25.2334   47.6669 H   0  0  0  0  0  0  0  0  0  0  0  0
   59.7160   27.6730   46.9450 H   0  0  0  0  0  0  0  0  0  0  0  0
   59.8910   26.6210   45.5680 H   0  0  0  0  0  0  0  0  0  0  0  0
   60.5008   29.8168   45.5299 H   0  0  0  0  0  0  0  0  0  0  0  0
   60.7119   28.7964   44.0667 H   0  0  0  0  0  0  0  0  0  0  0  0
   59.5063   30.1281   44.0667 H   0  0  0  0  0  0  0  0  0  0  0  0
   56.6920   33.2957   43.7786 H   0  0  0  0  0  0  0  0  0  0  0  0
   58.0835   35.1627   44.6732 H   0  0  0  0  0  0  0  0  0  0  0  0
   59.5731   34.7862   46.6390 H   0  0  0  0  0  0  0  0  0  0  0  0
   62.2540   32.5476   45.9605 H   0  0  0  0  0  0  0  0  0  0  0  0
   61.3614   34.0343   46.4363 H   0  0  0  0  0  0  0  0  0  0  0  0
   63.8835   34.2929   46.4519 H   0  0  0  0  0  0  0  0  0  0  0  0
   63.0896   34.6351   48.0378 H   0  0  0  0  0  0  0  0  0  0  0  0
   64.1822   31.7151   49.6198 H   0  0  0  0  0  0  0  0  0  0  0  0
   63.2509   33.2590   49.7311 H   0  0  0  0  0  0  0  0  0  0  0  0
   62.4625   30.7246   48.2066 H   0  0  0  0  0  0  0  0  0  0  0  0
   61.6631   31.4212   49.6593 H   0  0  0  0  0  0  0  0  0  0  0  0
   58.4321   30.6102   46.6933 H   0  0  0  0  0  0  0  0  0  0  0  0
  1  2  2  0
  2  3  1  0
  3  4  1  0
  4  5  1  0
  4  6  2  0
  6  7  1  0
  7  8  2  0
  7  9  1  0
  9 10  1  0
 10 11  2  0
 11 12  1  0
 12 13  2  0
 13 14  1  0
 14 15  1  0
 15 16  2  0
 15 17  1  0
 17 18  1  0
 18 19  1  0
 19 20  1  0
 20 21  1  0
 21 22  1  0
 14 23  2  0
  6 24  1  0
 24 25  2  0
 24  2  1  0
 23 10  1  0
 22 17  1  0
  1 26  1  0
  1 27  1  0
  3 28  1  0
  3 29  1  0
  5 30  1  0
  5 31  1  0
  5 32  1  0
 11 33  1  0
 12 34  1  0
 13 35  1  0
 18 36  1  0
 18 37  1  0
 19 38  1  0
 19 39  1  0
 21 40  1  0
 21 41  1  0
 22 42  1  0
 22 43  1  0
 23 44  1  0
M  CHG  2   3   1   9  -1
M  END
>  <UniqueID>  (83) 
81

>  <SMILES>  (83) 
C=C1[NH2+]C(C)=C(C(=O)[N-]c2cccc(C(=O)N3CCOCC3)c2)C1=O

>  <Energy>  (83) 
73.99714297316027

>  <Genealogy>  (83) 
C=C1[NH2+]C(C)=C(C(=O)[N-]c2cccc(C(=O)N3CCOCC3)c2)C1=O (protonated)
C=C1[NH2+]C(C)=C(C(=O)[N-]c2cccc(C(=O)N3CCOCC3)c2)C1=O (3D coordinates assigned)
C=C1[NH2+]C(C)=C(C(=O)[N-]c2cccc(C(=O)N3CCOCC3)c2)C1=O (nonaromatic ring conformer: 73.99714297316027 kcal/mol)

>  <smiles>  (83) 
C=C1NC(C)=C(C(=O)Nc2cccc(C(=O)N3CCOCC3)c2)C1=O

>  <score_type>  (83) 
oracle

>  <origin>  (83) 
adg

>  <m_score__min__energy>  (83) 
-8.5299999999999994

>  <m_primary>  (83) 
energy

$$$$
83:0
     RDKit          3D

 41 42  0  0  1  0  0  0  0  0999 V2000
   56.3440   29.4970   42.6370 C   0  0  0  0  0  0  0  0  0  0  0  0
   56.8200   30.2820   43.7850 N   0  0  0  0  0  0  0  0  0  0  0  0
   56.6700   29.6840   45.0800 C   0  0  0  0  0  0  0  0  0  0  0  0
   57.3740   31.5370   43.5110 C   0  0  0  0  0  0  0  0  0  0  0  0
   57.4140   31.8960   42.2840 O   0  0  0  0  0  0  0  0  0  0  0  0
   57.9050   32.4760   44.4690 C   0  0  0  0  0  0  0  0  0  0  0  0
   57.7930   32.1690   45.7710 N   0  0  0  0  0  0  0  0  0  0  0  0
   58.2520   32.9640   46.7480 C   0  0  0  0  0  0  0  0  0  0  0  0
   58.0830   32.5760   47.9820 N   0  0  0  0  0  0  0  0  0  0  0  0
   59.2850   32.3570   48.7650 C   0  0  0  0  0  0  0  0  0  0  0  0
   60.0710   31.2230   48.1620 C   0  0  0  0  0  0  0  0  0  0  0  0
   59.1370   30.3090   47.5380 N   0  0  0  0  0  0  0  0  0  0  0  0
   59.5270   28.9330   47.5100 C   0  0  0  0  0  0  0  0  0  0  0  0
   60.6350   28.6360   48.0300 O   0  0  0  0  0  0  0  0  0  0  0  0
   58.7150   27.8810   46.9190 C   0  0  0  0  0  0  0  0  0  0  0  0
   59.1780   27.0820   45.8920 C   0  0  0  0  0  0  0  0  0  0  0  0
   58.1710   26.1910   45.5610 C   0  0  0  0  0  0  0  0  0  0  0  0
   57.1340   26.4970   46.4150 C   0  0  0  0  0  0  0  0  0  0  0  0
   55.8800   25.8180   46.4240 N   0  0  0  0  0  0  0  0  0  0  0  0
   54.8440   26.3430   45.9960 O   0  0  0  0  0  0  0  0  0  0  0  0
   55.7910   24.5440   46.9190 O   0  0  0  0  0  0  0  0  0  0  0  0
   57.5000   27.4890   47.1900 O   0  0  0  0  0  0  0  0  0  0  0  0
   58.8630   34.1460   46.4080 C   0  0  0  0  0  0  0  0  0  0  0  0
   58.9930   34.4950   45.0650 C   0  0  0  0  0  0  0  0  0  0  0  0
   58.4980   33.6240   44.1490 N   0  0  0  0  0  0  0  0  0  0  0  0
   55.8053   28.6086   42.9984 H   0  0  0  0  0  0  0  0  0  0  0  0
   55.6673   30.1132   42.0268 H   0  0  0  0  0  0  0  0  0  0  0  0
   57.2032   29.1818   42.0268 H   0  0  0  0  0  0  0  0  0  0  0  0
   56.8595   30.4394   45.8569 H   0  0  0  0  0  0  0  0  0  0  0  0
   55.6466   29.2955   45.1882 H   0  0  0  0  0  0  0  0  0  0  0  0
   57.3889   28.8585   45.1882 H   0  0  0  0  0  0  0  0  0  0  0  0
   59.8972   33.2709   48.7622 H   0  0  0  0  0  0  0  0  0  0  0  0
   59.0103   32.1059   49.8001 H   0  0  0  0  0  0  0  0  0  0  0  0
   60.7703   31.6137   47.4081 H   0  0  0  0  0  0  0  0  0  0  0  0
   60.6490   30.7039   48.9408 H   0  0  0  0  0  0  0  0  0  0  0  0
   58.2250   30.5950   47.1210 H   0  0  0  0  0  0  0  0  0  0  0  0
   60.1701   27.1426   45.4208 H   0  0  0  0  0  0  0  0  0  0  0  0
   58.1939   25.4103   44.7864 H   0  0  0  0  0  0  0  0  0  0  0  0
   59.2481   34.8144   47.1922 H   0  0  0  0  0  0  0  0  0  0  0  0
   59.4757   35.4354   44.7605 H   0  0  0  0  0  0  0  0  0  0  0  0
   58.5810   33.8560   43.1160 H   0  0  0  0  0  0  0  0  0  0  0  0
  1  2  1  0
  2  3  1  0
  2  4  1  0
  4  5  2  0
  4  6  1  0
  6  7  2  0
  7  8  1  0
  8  9  2  0
  9 10  1  0
 10 11  1  0
 11 12  1  0
 12 13  1  0
 13 14  2  0
 13 15  1  0
 15 16  2  0
 16 17  1  0
 17 18  2  0
 18 19  1  0
 19 20  2  0
 19 21  1  0
 18 22  1  0
  8 23  1  0
 23 24  2  0
 24 25  1  0
 25  6  1  0
 22 15  1  0
  1 26  1  0
  1 27  1  0
  1 28  1  0
  3 29  1  0
  3 30  1  0
  3 31  1  0
 10 32  1  0
 10 33  1  0
 11 34  1  0
 11 35  1  0
 12 36  1  0
 16 37  1  0
 17 38  1  0
 23 39  1  0
 24 40  1  0
 25 41  1  0
M  CHG  2  19   1  21  -1
M  END
>  <smiles>  (84) 
CN(C)C(=O)c1nc(=NCCNC(=O)c2ccc([N+](=O)[O-])o2)cc[nH]1

>  <score_type>  (84) 
oracle

>  <origin>  (84) 
adg

>  <m_score__min__energy>  (84) 
-7.29

>  <m_primary>  (84) 
energy

$$$$
84:0
     RDKit          3D

 22 23  0  0  0  0  0  0  0  0999 V2000
   55.1280   24.0650   46.8340 C   0  0  0  0  0  0  0  0  0  0  0  0
   56.2950   24.9260   46.5830 N   0  0  0  0  0  0  0  0  0  0  0  0
   56.1070   26.2140   46.1530 C   0  0  0  0  0  0  0  0  0  0  0  0
   54.8130   26.7100   45.9950 O   0  0  0  0  0  0  0  0  0  0  0  0
   57.2100   27.0500   45.8850 C   0  0  0  0  0  0  0  0  0  0  0  0
   57.0110   28.4510   45.4330 C   0  0  0  0  0  0  0  0  0  0  0  0
   55.9060   28.8290   44.8860 N   0  0  0  0  0  0  0  0  0  0  0  0
   55.8730   30.2150   44.4600 C   0  0  0  0  0  0  0  0  0  0  0  0
   57.3180   30.6850   44.3520 C   0  0  0  0  0  0  0  0  0  0  0  0
   58.2820   29.7060   45.5450 S   0  0  0  0  0  0  0  0  0  0  0  0
   58.4950   26.5040   46.0470 C   0  0  0  0  0  0  0  0  0  0  0  0
   59.5270   27.1820   45.7990 O   0  0  0  0  0  0  0  0  0  0  0  0
   58.6360   25.2180   46.4490 N   0  0  0  0  0  0  0  0  0  0  0  0
   57.5650   24.4290   46.7090 C   0  0  0  0  0  0  0  0  0  0  0  0
   57.7620   23.2350   47.0640 O   0  0  0  0  0  0  0  0  0  0  0  0
   54.9796   23.9555   47.9184 H   0  0  0  0  0  0  0  0  0  0  0  0
   54.2329   24.5207   46.3856 H   0  0  0  0  0  0  0  0  0  0  0  0
   55.2993   23.0753   46.3856 H   0  0  0  0  0  0  0  0  0  0  0  0
   55.3753   30.2975   43.4825 H   0  0  0  0  0  0  0  0  0  0  0  0
   55.3133   30.8321   45.1782 H   0  0  0  0  0  0  0  0  0  0  0  0
   57.6952   30.5173   43.3324 H   0  0  0  0  0  0  0  0  0  0  0  0
   57.3996   31.7605   44.5677 H   0  0  0  0  0  0  0  0  0  0  0  0
  1  2  1  0
  2  3  1  0
  3  4  1  0
  3  5  2  0
  5  6  1  0
  6  7  2  0
  7  8  1  0
  8  9  1  0
  9 10  1  0
  5 11  1  0
 11 12  2  0
 11 13  1  0
 13 14  1  0
 14 15  2  0
 14  2  1  0
 10  6  1  0
  1 16  1  0
  1 17  1  0
  1 18  1  0
  8 19  1  0
  8 20  1  0
  9 21  1  0
  9 22  1  0
M  CHG  2   4  -1  13  -1
M  END
>  <UniqueID>  (85) 
82

>  <SMILES>  (85) 
Cn1c([O-])c(C2=NCCS2)c(=O)[n-]c1=O

>  <Energy>  (85) 
37.31428459297703

>  <Genealogy>  (85) 
Cn1c([O-])c(C2=NCCS2)c(=O)[n-]c1=O (protonated)
Cn1c([O-])c(C2=NCCS2)c(=O)[n-]c1=O (3D coordinates assigned)
Cn1c([O-])c(C2=NCCS2)c(=O)[n-]c1=O (nonaromatic ring conformer: 37.31428459297703 kcal/mol)

>  <smiles>  (85) 
Cn1c(O)c(C2=NCCS2)c(=O)[nH]c1=O

>  <score_type>  (85) 
oracle

>  <origin>  (85) 
adg

>  <m_score__min__energy>  (85) 
-10.93

>  <m_primary>  (85) 
energy

$$$$
85:0
     RDKit          3D

 60 63  0  0  0  0  0  0  0  0999 V2000
   60.7567   31.8233   45.8764 H   0  0  0  0  0  0  0  0  0  0  0  0
   61.0350   31.2000   46.7390 C   0  0  0  0  0  0  0  0  0  0  0  0
   60.3890   30.0360   46.9080 C   0  0  0  0  0  0  0  0  0  0  0  0
   59.9680   29.3170   48.5100 S   0  0  0  0  0  0  0  0  0  0  0  0
   59.3190   27.8930   47.6310 C   0  0  0  0  0  0  0  0  0  0  0  0
   58.7530   26.9410   48.2310 O   0  0  0  0  0  0  0  0  0  0  0  0
   59.4600   27.9180   46.2130 N   0  0  0  0  0  0  0  0  0  0  0  0
   58.8760   26.9330   45.3020 C   0  0  0  0  0  0  0  0  0  0  0  0
   59.0972   27.2222   44.2640 H   0  0  0  0  0  0  0  0  0  0  0  0
   59.3086   25.9447   45.5170 H   0  0  0  0  0  0  0  0  0  0  0  0
   57.3600   26.8670   45.4960 C   0  0  0  0  0  0  0  0  0  0  0  0
   56.8882   26.5580   44.5516 H   0  0  0  0  0  0  0  0  0  0  0  0
   57.1364   26.1395   46.2902 H   0  0  0  0  0  0  0  0  0  0  0  0
   56.8320   28.1730   45.8920 N   0  0  0  0  0  0  0  0  0  0  0  0
   56.9410   29.2620   45.1910 C   0  0  0  0  0  0  0  0  0  0  0  0
   57.4750   30.3710   45.7640 N   0  0  0  0  0  0  0  0  0  0  0  0
   57.6100   31.5400   45.0780 C   0  0  0  0  0  0  0  0  0  0  0  0
   58.2040   32.7190   45.7580 C   0  0  0  0  0  0  0  0  0  0  0  0
   58.7130   33.7860   44.9940 C   0  0  0  0  0  0  0  0  0  0  0  0
   58.6617   33.7428   43.8960 H   0  0  0  0  0  0  0  0  0  0  0  0
   59.2830   34.9000   45.6170 C   0  0  0  0  0  0  0  0  0  0  0  0
   59.6723   35.7299   45.0090 H   0  0  0  0  0  0  0  0  0  0  0  0
   59.3590   34.9610   47.0100 C   0  0  0  0  0  0  0  0  0  0  0  0
   59.8038   35.8403   47.4989 H   0  0  0  0  0  0  0  0  0  0  0  0
   58.8700   33.9050   47.7820 C   0  0  0  0  0  0  0  0  0  0  0  0
   58.9346   33.9514   48.8791 H   0  0  0  0  0  0  0  0  0  0  0  0
   58.2980   32.7880   47.1630 C   0  0  0  0  0  0  0  0  0  0  0  0
   57.9190   31.9578   47.7770 H   0  0  0  0  0  0  0  0  0  0  0  0
   57.1980   31.5890   43.7360 C   0  0  0  0  0  0  0  0  0  0  0  0
   57.3029   32.5146   43.1510 H   0  0  0  0  0  0  0  0  0  0  0  0
   56.6530   30.4410   43.1590 C   0  0  0  0  0  0  0  0  0  0  0  0
   56.2750   30.4540   41.9590 O   0  0  0  0  0  0  0  0  0  0  0  0
   56.5340   29.3050   43.8930 N   0  0  0  0  0  0  0  0  0  0  0  0
   60.0470   29.1440   45.8020 C   0  0  0  0  0  0  0  0  0  0  0  0
   60.2420   29.4280   44.5880 O   0  0  0  0  0  0  0  0  0  0  0  0
   62.0960   31.6970   47.6380 C   0  0  0  0  0  0  0  0  0  0  0  0
   62.2240   31.1400   48.9170 C   0  0  0  0  0  0  0  0  0  0  0  0
   61.5214   30.3600   49.2455 H   0  0  0  0  0  0  0  0  0  0  0  0
   63.2380   31.5680   49.7790 C   0  0  0  0  0  0  0  0  0  0  0  0
   63.3155   31.1345   50.7870 H   0  0  0  0  0  0  0  0  0  0  0  0
   64.1600   32.5480   49.3690 C   0  0  0  0  0  0  0  0  0  0  0  0
   65.2180   32.9880   50.2550 N   0  0  0  0  0  0  0  0  0  0  0  0
   66.5700   32.4130   50.1590 C   0  0  0  0  0  0  0  0  0  0  0  0
   66.7371   32.0546   49.1325 H   0  0  0  0  0  0  0  0  0  0  0  0
   66.6500   31.5807   50.8737 H   0  0  0  0  0  0  0  0  0  0  0  0
   67.6290   33.4550   50.5030 C   0  0  0  0  0  0  0  0  0  0  0  0
   67.7169   33.5415   51.5961 H   0  0  0  0  0  0  0  0  0  0  0  0
   68.5969   33.1474   50.0805 H   0  0  0  0  0  0  0  0  0  0  0  0
   67.3371   34.4278   50.0805 H   0  0  0  0  0  0  0  0  0  0  0  0
   64.9510   34.0200   51.2690 C   0  0  0  0  0  0  0  0  0  0  0  0
   65.1792   33.6127   52.2650 H   0  0  0  0  0  0  0  0  0  0  0  0
   65.5845   34.8933   51.0543 H   0  0  0  0  0  0  0  0  0  0  0  0
   63.4900   34.4600   51.2330 C   0  0  0  0  0  0  0  0  0  0  0  0
   63.1156   34.5728   52.2612 H   0  0  0  0  0  0  0  0  0  0  0  0
   63.4097   35.4222   50.7060 H   0  0  0  0  0  0  0  0  0  0  0  0
   62.8917   33.7022   50.7060 H   0  0  0  0  0  0  0  0  0  0  0  0
   64.0450   33.0840   48.0730 C   0  0  0  0  0  0  0  0  0  0  0  0
   64.7604   33.8474   47.7332 H   0  0  0  0  0  0  0  0  0  0  0  0
   63.0300   32.6550   47.2140 C   0  0  0  0  0  0  0  0  0  0  0  0
   62.9624   33.0711   46.1980 H   0  0  0  0  0  0  0  0  0  0  0  0
  1  2  1  0
  2  3  2  0
  3  4  1  0
  4  5  1  0
  5  6  2  0
  5  7  1  0
  7  8  1  0
  8  9  1  0
  8 10  1  0
  8 11  1  0
 11 12  1  0
 11 13  1  0
 11 14  1  0
 14 15  2  3
 15 16  1  0
 16 17  1  0
 17 18  1  0
 18 19  2  0
 19 20  1  0
 19 21  1  0
 21 22  1  0
 21 23  2  0
 23 24  1  0
 23 25  1  0
 25 26  1  0
 25 27  2  0
 27 28  1  0
 17 29  2  0
 29 30  1  0
 29 31  1  0
 31 32  2  0
 31 33  1  0
  7 34  1  0
 34 35  2  0
  2 36  1  0
 36 37  2  0
 37 38  1  0
 37 39  1  0
 39 40  1  0
 39 41  2  0
 41 42  1  0
 42 43  1  0
 43 44  1  0
 43 45  1  0
 43 46  1  0
 46 47  1  0
 46 48  1  0
 46 49  1  0
 42 50  1  0
 50 51  1  0
 50 52  1  0
 50 53  1  0
 53 54  1  0
 53 55  1  0
 53 56  1  0
 41 57  1  0
 57 58  1  0
 57 59  2  0
 59 60  1  0
 34  3  1  0
 59 36  1  0
 33 15  1  0
 27 18  1  0
M  CHG  2  16  -1  33  -1
M  END
>  <UniqueID>  (86) 
83

>  <SMILES>  (86) 
CCN(CC)c1ccc(/C=C2\SC(=O)N(CCN=c3[n-]c(-c4ccccc4)cc(=O)[n-]3)C2=O)cc1

>  <Energy>  (86) 
88.25422545780734

>  <Genealogy>  (86) 
CCN(CC)c1ccc(C=C2SC(=O)N(CCN=c3[n-]c(-c4ccccc4)cc(=O)[n-]3)C2=O)cc1 (protonated)
CCN(CC)c1ccc(/C=C2\SC(=O)N(CCN=c3[n-]c(-c4ccccc4)cc(=O)[n-]3)C2=O)cc1 (cis-trans isomerization)
CCN(CC)c1ccc(/C=C2\SC(=O)N(CCN=c3[n-]c(-c4ccccc4)cc(=O)[n-]3)C2=O)cc1 (3D coordinates assigned)
CCN(CC)c1ccc(/C=C2\SC(=O)N(CCN=c3[n-]c(-c4ccccc4)cc(=O)[n-]3)C2=O)cc1 (nonaromatic ring conformer: 88.25422545780734 kcal/mol)

>  <smiles>  (86) 
CCN(CC)c1ccc(C=C2SC(=O)N(CCN=c3[nH]c(-c4ccccc4)cc(=O)[nH]3)C2=O)cc1

>  <score_type>  (86) 
oracle

>  <origin>  (86) 
adg

>  <m_score__min__energy>  (86) 
-12.41

>  <m_primary>  (86) 
energy

$$$$
86:0
     RDKit          3D

 55 58  0  0  0  0  0  0  0  0999 V2000
   61.9968   29.8260   49.7043 H   0  0  0  0  0  0  0  0  0  0  0  0
   61.5660   30.4860   48.9370 C   0  0  0  0  0  0  0  0  0  0  0  0
   61.9140   31.7760   48.9420 C   0  0  0  0  0  0  0  0  0  0  0  0
   61.2826   32.5078   49.4671 H   0  0  0  0  0  0  0  0  0  0  0  0
   63.3690   32.3160   48.1190 S   0  0  0  0  0  0  0  0  0  0  0  0
   63.6920   31.3560   47.0100 O   0  0  0  0  0  0  0  0  0  0  0  0
   63.1220   33.6760   47.5300 O   0  0  0  0  0  0  0  0  0  0  0  0
   64.7140   32.4000   49.2140 N   0  0  0  0  0  0  0  0  0  0  0  0
   64.5360   33.5400   50.1060 C   0  0  0  0  0  0  0  0  0  0  0  0
   64.4223   34.3164   49.3351 H   0  0  0  0  0  0  0  0  0  0  0  0
   65.3110   33.4490   51.4090 C   0  0  0  0  0  0  0  0  0  0  0  0
   66.0328   32.6336   51.5640 H   0  0  0  0  0  0  0  0  0  0  0  0
   65.9599   34.1312   51.9778 H   0  0  0  0  0  0  0  0  0  0  0  0
   63.8200   33.1510   51.3870 C   0  0  0  0  0  0  0  0  0  0  0  0
   63.4630   32.1199   51.5263 H   0  0  0  0  0  0  0  0  0  0  0  0
   62.9431   33.5283   51.9335 H   0  0  0  0  0  0  0  0  0  0  0  0
   60.6300   29.9000   47.9510 C   0  0  0  0  0  0  0  0  0  0  0  0
   59.5230   29.1180   48.3380 C   0  0  0  0  0  0  0  0  0  0  0  0
   59.3334   28.9286   49.4049 H   0  0  0  0  0  0  0  0  0  0  0  0
   58.6650   28.5820   47.3740 C   0  0  0  0  0  0  0  0  0  0  0  0
   57.7967   27.9841   47.6879 H   0  0  0  0  0  0  0  0  0  0  0  0
   58.9020   28.8000   46.0140 C   0  0  0  0  0  0  0  0  0  0  0  0
   57.9960   28.2470   45.0510 N   0  0  0  0  0  0  0  0  0  0  0  0
   56.5690   28.3700   45.0510 C   0  0  0  0  0  0  0  0  0  0  0  0
   55.8890   27.4950   45.6520 O   0  0  0  0  0  0  0  0  0  0  0  0
   55.8550   29.4190   44.2390 C   0  0  0  0  0  0  0  0  0  0  0  0
   54.9219   29.6971   44.7507 H   0  0  0  0  0  0  0  0  0  0  0  0
   55.6386   29.0053   43.2430 H   0  0  0  0  0  0  0  0  0  0  0  0
   56.7070   30.6400   44.0750 C   0  0  0  0  0  0  0  0  0  0  0  0
   57.2590   31.2340   45.1650 N   0  0  0  0  0  0  0  0  0  0  0  0
   58.0550   32.3340   45.0570 C   0  0  0  0  0  0  0  0  0  0  0  0
   58.6260   32.9400   46.2900 C   0  0  0  0  0  0  0  0  0  0  0  0
   58.3520   32.3610   47.5430 C   0  0  0  0  0  0  0  0  0  0  0  0
   57.7290   31.4562   47.5993 H   0  0  0  0  0  0  0  0  0  0  0  0
   58.8620   32.9220   48.7160 C   0  0  0  0  0  0  0  0  0  0  0  0
   58.6413   32.4523   49.6859 H   0  0  0  0  0  0  0  0  0  0  0  0
   59.6510   34.0760   48.6680 C   0  0  0  0  0  0  0  0  0  0  0  0
   60.1350   34.6010   49.8740 O   0  0  0  0  0  0  0  0  0  0  0  0
   60.2600   33.8560   51.0820 C   0  0  0  0  0  0  0  0  0  0  0  0
   60.1467   34.5315   51.9428 H   0  0  0  0  0  0  0  0  0  0  0  0
   59.4792   33.0821   51.1179 H   0  0  0  0  0  0  0  0  0  0  0  0
   61.2507   33.3793   51.1179 H   0  0  0  0  0  0  0  0  0  0  0  0
   59.9250   34.6650   47.4210 C   0  0  0  0  0  0  0  0  0  0  0  0
   60.5456   35.5718   47.3697 H   0  0  0  0  0  0  0  0  0  0  0  0
   59.4140   34.1060   46.2460 C   0  0  0  0  0  0  0  0  0  0  0  0
   59.6296   34.5816   45.2778 H   0  0  0  0  0  0  0  0  0  0  0  0
   58.3230   32.8500   43.7780 C   0  0  0  0  0  0  0  0  0  0  0  0
   58.9727   33.7288   43.6529 H   0  0  0  0  0  0  0  0  0  0  0  0
   57.7490   32.2260   42.6690 C   0  0  0  0  0  0  0  0  0  0  0  0
   57.9710   32.6660   41.5110 O   0  0  0  0  0  0  0  0  0  0  0  0
   56.9560   31.1380   42.8360 N   0  0  0  0  0  0  0  0  0  0  0  0
   59.9710   29.6210   45.6260 C   0  0  0  0  0  0  0  0  0  0  0  0
   60.1344   29.8396   44.5604 H   0  0  0  0  0  0  0  0  0  0  0  0
   60.8300   30.1630   46.5870 C   0  0  0  0  0  0  0  0  0  0  0  0
   61.6691   30.8005   46.2715 H   0  0  0  0  0  0  0  0  0  0  0  0
  1  2  1  0
  2  3  2  0
  3  4  1  0
  3  5  1  0
  5  6  2  0
  5  7  2  0
  5  8  1  0
  8  9  1  0
  9 10  1  0
  9 11  1  0
 11 12  1  0
 11 13  1  0
 11 14  1  0
 14 15  1  0
 14 16  1  0
  2 17  1  0
 17 18  2  0
 18 19  1  0
 18 20  1  0
 20 21  1  0
 20 22  2  0
 22 23  1  0
 23 24  1  0
 24 25  2  0
 24 26  1  0
 26 27  1  0
 26 28  1  0
 26 29  1  0
 29 30  2  0
 30 31  1  0
 31 32  1  0
 32 33  2  0
 33 34  1  0
 33 35  1  0
 35 36  1  0
 35 37  2  0
 37 38  1  0
 38 39  1  0
 39 40  1  0
 39 41  1  0
 39 42  1  0
 37 43  1  0
 43 44  1  0
 43 45  2  0
 45 46  1  0
 31 47  2  0
 47 48  1  0
 47 49  1  0
 49 50  2  0
 49 51  1  0
 22 52  1  0
 52 53  1  0
 52 54  2  0
 54 55  1  0
 14  9  1  0
 54 17  1  0
 51 29  1  0
 45 32  1  0
M  CHG  3   8  -1  23  -1  51  -1
M  END
>  <UniqueID>  (87) 
84

>  <SMILES>  (87) 
COc1ccc(-c2cc(=O)[n-]c(CC(=O)[N-]c3ccc(/C=C/S(=O)(=O)[N-]C4CC4)cc3)n2)cc1

>  <Energy>  (87) 
330.3969390834567

>  <Genealogy>  (87) 
COc1ccc(-c2cc(=O)[n-]c(CC(=O)[N-]c3ccc(C=CS(=O)(=O)[N-]C4CC4)cc3)n2)cc1 (protonated)
COc1ccc(-c2cc(=O)[n-]c(CC(=O)[N-]c3ccc(/C=C/S(=O)(=O)[N-]C4CC4)cc3)n2)cc1 (cis-trans isomerization)
COc1ccc(-c2cc(=O)[n-]c(CC(=O)[N-]c3ccc(/C=C/S(=O)(=O)[N-]C4CC4)cc3)n2)cc1 (3D coordinates assigned)
COc1ccc(-c2cc(=O)[n-]c(CC(=O)[N-]c3ccc(/C=C/S(=O)(=O)[N-]C4CC4)cc3)n2)cc1 (nonaromatic ring conformer: 330.3969390834567 kcal/mol)

>  <smiles>  (87) 
COc1ccc(-c2cc(=O)[nH]c(CC(=O)Nc3ccc(C=CS(=O)(=O)NC4CC4)cc3)n2)cc1

>  <score_type>  (87) 
oracle

>  <origin>  (87) 
adg

>  <m_score__min__energy>  (87) 
-12.779999999999999

>  <m_primary>  (87) 
energy

$$$$
87:0
     RDKit          3D

 41 43  0  0  0  0  0  0  0  0999 V2000
   63.6100   32.9780   47.5030 C   0  0  0  0  0  0  0  0  0  0  0  0
   62.4280   32.0000   47.5780 C   0  0  0  0  0  0  0  0  0  0  0  0
   61.2690   32.3830   46.7400 N   0  0  0  0  0  0  0  0  0  0  0  0
   59.9890   31.7420   47.1240 C   0  0  0  0  0  0  0  0  0  0  0  0
   59.0040   32.7470   47.7470 C   0  0  0  0  0  0  0  0  0  0  0  0
   58.7240   33.9040   46.8550 N   0  0  0  0  0  0  0  0  0  0  0  0
   57.4330   33.7680   46.1500 C   0  0  0  0  0  0  0  0  0  0  0  0
   57.4790   32.6140   45.1900 C   0  0  0  0  0  0  0  0  0  0  0  0
   57.7240   32.8300   43.8280 C   0  0  0  0  0  0  0  0  0  0  0  0
   57.7620   31.7390   42.9590 C   0  0  0  0  0  0  0  0  0  0  0  0
   57.5430   30.4500   43.4490 C   0  0  0  0  0  0  0  0  0  0  0  0
   57.2720   30.2690   44.8140 C   0  0  0  0  0  0  0  0  0  0  0  0
   57.0610   28.9290   45.3870 C   0  0  0  0  0  0  0  0  0  0  0  0
   55.9170   28.2380   45.2290 N   0  0  0  0  0  0  0  0  0  0  0  0
   56.1370   27.0990   45.9190 C   0  0  0  0  0  0  0  0  0  0  0  0
   55.2760   26.1860   46.0110 O   0  0  0  0  0  0  0  0  0  0  0  0
   57.3530   27.0130   46.4960 N   0  0  0  0  0  0  0  0  0  0  0  0
   57.9360   28.1710   46.1460 C   0  0  0  0  0  0  0  0  0  0  0  0
   59.2530   28.4840   46.4740 O   0  0  0  0  0  0  0  0  0  0  0  0
   57.2650   31.3480   45.6430 N   0  0  0  0  0  0  0  0  0  0  0  0
   59.8150   34.1950   45.8940 C   0  0  0  0  0  0  0  0  0  0  0  0
   61.1830   33.8360   46.4790 C   0  0  0  0  0  0  0  0  0  0  0  0
   63.9312   33.2437   48.5209 H   0  0  0  0  0  0  0  0  0  0  0  0
   64.4452   32.5033   46.9672 H   0  0  0  0  0  0  0  0  0  0  0  0
   63.3001   33.8873   46.9672 H   0  0  0  0  0  0  0  0  0  0  0  0
   62.7782   31.0100   47.2506 H   0  0  0  0  0  0  0  0  0  0  0  0
   62.0792   32.0053   48.6212 H   0  0  0  0  0  0  0  0  0  0  0  0
   59.5284   31.3034   46.2265 H   0  0  0  0  0  0  0  0  0  0  0  0
   60.2082   30.9705   47.8768 H   0  0  0  0  0  0  0  0  0  0  0  0
   58.0574   32.2277   47.9576 H   0  0  0  0  0  0  0  0  0  0  0  0
   59.4656   33.1392   48.6652 H   0  0  0  0  0  0  0  0  0  0  0  0
   56.6345   33.5950   46.8865 H   0  0  0  0  0  0  0  0  0  0  0  0
   57.2350   34.6922   45.5873 H   0  0  0  0  0  0  0  0  0  0  0  0
   57.8848   33.8494   43.4473 H   0  0  0  0  0  0  0  0  0  0  0  0
   57.9643   31.8942   41.8890 H   0  0  0  0  0  0  0  0  0  0  0  0
   57.5825   29.5844   42.7714 H   0  0  0  0  0  0  0  0  0  0  0  0
   59.6450   29.4010   46.3110 H   0  0  0  0  0  0  0  0  0  0  0  0
   59.6518   33.6078   44.9783 H   0  0  0  0  0  0  0  0  0  0  0  0
   59.8043   35.2725   45.6730 H   0  0  0  0  0  0  0  0  0  0  0  0
   61.9688   34.1227   45.7646 H   0  0  0  0  0  0  0  0  0  0  0  0
   61.3175   34.3766   47.4275 H   0  0  0  0  0  0  0  0  0  0  0  0
  1  2  1  0
  2  3  1  0
  3  4  1  0
  4  5  1  0
  5  6  1  0
  6  7  1  0
  7  8  1  0
  8  9  2  0
  9 10  1  0
 10 11  2  0
 11 12  1  0
 12 13  1  0
 13 14  1  0
 14 15  1  0
 15 16  2  0
 15 17  1  0
 17 18  1  0
 18 19  1  0
 12 20  2  0
  6 21  1  0
 21 22  1  0
 22  3  1  0
 20  8  1  0
 18 13  2  0
  1 23  1  0
  1 24  1  0
  1 25  1  0
  2 26  1  0
  2 27  1  0
  4 28  1  0
  4 29  1  0
  5 30  1  0
  5 31  1  0
  7 32  1  0
  7 33  1  0
  9 34  1  0
 10 35  1  0
 11 36  1  0
 19 37  1  0
 21 38  1  0
 21 39  1  0
 22 40  1  0
 22 41  1  0
M  CHG  2  14  -1  17  -1
M  END
>  <UniqueID>  (88) 
85

>  <SMILES>  (88) 
CCN1CCN(Cc2cccc(-c3[n-]c(=O)[n-]c3O)n2)CC1

>  <Energy>  (88) 
88.9255494207754

>  <Genealogy>  (88) 
CCN1CCN(Cc2cccc(-c3[n-]c(=O)[n-]c3O)n2)CC1 (protonated)
CCN1CCN(Cc2cccc(-c3[n-]c(=O)[n-]c3O)n2)CC1 (3D coordinates assigned)
CCN1CCN(Cc2cccc(-c3[n-]c(=O)[n-]c3O)n2)CC1 (nonaromatic ring conformer: 88.9255494207754 kcal/mol)

>  <smiles>  (88) 
CCN1CCN(Cc2cccc(-c3[nH]c(=O)[nH]c3O)n2)CC1

>  <score_type>  (88) 
oracle

>  <origin>  (88) 
adg

>  <m_score__min__energy>  (88) 
-12.630000000000001

>  <m_primary>  (88) 
energy

$$$$
88:0
     RDKit          3D

 56 60  0  0  0  0  0  0  0  0999 V2000
   59.0483   30.0044   49.2317 H   0  0  0  0  0  0  0  0  0  0  0  0
   58.5630   30.3910   50.1400 C   0  0  0  0  0  0  0  0  0  0  0  0
   58.1260   29.5290   51.0920 N   0  0  0  0  0  0  0  0  0  0  0  0
   57.5210   29.9800   52.2200 C   0  0  0  0  0  0  0  0  0  0  0  0
   57.1725   29.2647   52.9795 H   0  0  0  0  0  0  0  0  0  0  0  0
   57.3450   31.3130   52.4130 N   0  0  0  0  0  0  0  0  0  0  0  0
   56.8750   31.6500   53.2820 H   0  0  0  0  0  0  0  0  0  0  0  0
   57.7690   32.2120   51.4870 C   0  0  0  0  0  0  0  0  0  0  0  0
   57.6190   33.2879   51.6598 H   0  0  0  0  0  0  0  0  0  0  0  0
   58.3980   31.7740   50.3100 C   0  0  0  0  0  0  0  0  0  0  0  0
   58.8670   32.7380   49.2850 C   0  0  0  0  0  0  0  0  0  0  0  0
   59.8660   33.7000   49.6010 C   0  0  0  0  0  0  0  0  0  0  0  0
   60.2854   33.7329   50.6174 H   0  0  0  0  0  0  0  0  0  0  0  0
   60.3250   34.6100   48.6310 C   0  0  0  0  0  0  0  0  0  0  0  0
   61.0926   35.3596   48.8737 H   0  0  0  0  0  0  0  0  0  0  0  0
   59.7770   34.5310   47.3560 C   0  0  0  0  0  0  0  0  0  0  0  0
   60.0620   35.2980   46.2890 N   0  0  0  0  0  0  0  0  0  0  0  0
   59.3010   34.8730   45.2840 N   0  0  0  0  0  0  0  0  0  0  0  0
   58.5440   33.8330   45.7100 C   0  0  0  0  0  0  0  0  0  0  0  0
   57.5400   33.1180   44.8540 C   0  0  0  0  0  0  0  0  0  0  0  0
   57.2835   33.7763   44.0109 H   0  0  0  0  0  0  0  0  0  0  0  0
   56.6895   32.8896   45.5131 H   0  0  0  0  0  0  0  0  0  0  0  0
   58.0060   31.7570   44.2730 C   0  0  0  0  0  0  0  0  0  0  0  0
   58.8061   32.0435   43.5746 H   0  0  0  0  0  0  0  0  0  0  0  0
   58.6780   30.8190   45.2990 C   0  0  0  0  0  0  0  0  0  0  0  0
   59.1798   31.4361   46.0588 H   0  0  0  0  0  0  0  0  0  0  0  0
   59.3850   30.1849   44.7439 H   0  0  0  0  0  0  0  0  0  0  0  0
   57.6900   29.8810   46.0090 C   0  0  0  0  0  0  0  0  0  0  0  0
   57.0457   30.4815   46.6680 H   0  0  0  0  0  0  0  0  0  0  0  0
   58.2784   29.1456   46.5773 H   0  0  0  0  0  0  0  0  0  0  0  0
   56.8360   29.1360   45.0640 N   0  0  0  0  0  0  0  0  0  0  0  0
   57.5610   28.0810   44.3240 C   0  0  0  0  0  0  0  0  0  0  0  0
   58.4272   28.5262   43.8126 H   0  0  0  0  0  0  0  0  0  0  0  0
   56.8809   27.6282   43.5875 H   0  0  0  0  0  0  0  0  0  0  0  0
   58.0390   27.0120   45.2730 C   0  0  0  0  0  0  0  0  0  0  0  0
   59.2480   26.6610   45.2280 O   0  0  0  0  0  0  0  0  0  0  0  0
   57.1360   26.2600   46.0960 N   0  0  0  0  0  0  0  0  0  0  0  0
   56.1960   25.4570   45.6910 C   0  0  0  0  0  0  0  0  0  0  0  0
   54.8870   25.6880   45.9950 N   0  0  0  0  0  0  0  0  0  0  0  0
   53.8950   24.8440   45.6040 C   0  0  0  0  0  0  0  0  0  0  0  0
   52.8492   25.0661   45.8630 H   0  0  0  0  0  0  0  0  0  0  0  0
   54.2050   23.6960   44.8740 C   0  0  0  0  0  0  0  0  0  0  0  0
   53.4078   23.0106   44.5505 H   0  0  0  0  0  0  0  0  0  0  0  0
   55.5370   23.4270   44.5590 C   0  0  0  0  0  0  0  0  0  0  0  0
   55.7965   22.5239   43.9870 H   0  0  0  0  0  0  0  0  0  0  0  0
   56.5400   24.3060   44.9710 C   0  0  0  0  0  0  0  0  0  0  0  0
   57.5930   24.0962   44.7319 H   0  0  0  0  0  0  0  0  0  0  0  0
   56.0630   30.0490   44.1990 C   0  0  0  0  0  0  0  0  0  0  0  0
   55.3714   30.6263   44.8302 H   0  0  0  0  0  0  0  0  0  0  0  0
   55.5314   29.4286   43.4625 H   0  0  0  0  0  0  0  0  0  0  0  0
   56.9470   31.0360   43.4120 C   0  0  0  0  0  0  0  0  0  0  0  0
   56.2953   31.7965   42.9571 H   0  0  0  0  0  0  0  0  0  0  0  0
   57.4952   30.4444   42.6640 H   0  0  0  0  0  0  0  0  0  0  0  0
   58.8230   33.6090   47.0410 C   0  0  0  0  0  0  0  0  0  0  0  0
   58.3290   32.7030   47.9750 C   0  0  0  0  0  0  0  0  0  0  0  0
   57.5443   31.9814   47.7040 H   0  0  0  0  0  0  0  0  0  0  0  0
  1  2  1  0
  2  3  2  0
  3  4  1  0
  4  5  1  0
  4  6  2  0
  6  7  1  0
  6  8  1  0
  8  9  1  0
  8 10  2  0
 10 11  1  0
 11 12  1  0
 12 13  1  0
 12 14  2  0
 14 15  1  0
 14 16  1  0
 16 17  2  0
 17 18  1  0
 18 19  1  0
 19 20  1  0
 20 21  1  0
 20 22  1  0
 20 23  1  0
 23 24  1  0
 23 25  1  0
 25 26  1  0
 25 27  1  0
 25 28  1  0
 28 29  1  0
 28 30  1  0
 28 31  1  0
 31 32  1  0
 32 33  1  0
 32 34  1  0
 32 35  1  0
 35 36  2  0
 35 37  1  0
 37 38  2  0
 38 39  1  0
 39 40  1  0
 40 41  1  0
 40 42  2  0
 42 43  1  0
 42 44  1  0
 44 45  1  0
 44 46  2  0
 46 47  1  0
 31 48  1  0
 48 49  1  0
 48 50  1  0
 48 51  1  0
 51 52  1  0
 51 53  1  0
 19 54  2  0
 54 55  1  0
 55 56  1  0
 10  2  1  0
 55 11  2  0
 54 16  1  0
 51 23  1  0
 46 38  1  0
M  CHG  3   6   1  18  -1  39  -1
M  END
>  <UniqueID>  (89) 
86

>  <SMILES>  (89) 
O=C(CN1CCC(Cc2[n-]nc3ccc(-c4cnc[nH+]c4)cc23)CC1)/N=c1/cccc[n-]1

>  <Energy>  (89) 
114.97077437591767

>  <Genealogy>  (89) 
O=C(CN1CCC(Cc2[n-]nc3ccc(-c4cnc[nH+]c4)cc23)CC1)N=c1cccc[n-]1 (protonated)
O=C(CN1CCC(Cc2[n-]nc3ccc(-c4cnc[nH+]c4)cc23)CC1)/N=c1/cccc[n-]1 (cis-trans isomerization)
O=C(CN1CCC(Cc2[n-]nc3ccc(-c4cnc[nH+]c4)cc23)CC1)/N=c1/cccc[n-]1 (3D coordinates assigned)
O=C(CN1CCC(Cc2[n-]nc3ccc(-c4cnc[nH+]c4)cc23)CC1)/N=c1/cccc[n-]1 (nonaromatic ring conformer: 114.97077437591767 kcal/mol)

>  <smiles>  (89) 
O=C(CN1CCC(Cc2[nH]nc3ccc(-c4cncnc4)cc23)CC1)N=c1cccc[nH]1

>  <score_type>  (89) 
oracle

>  <origin>  (89) 
adg

>  <m_score__min__energy>  (89) 
-11.699999999999999

>  <m_primary>  (89) 
energy

$$$$
89:0
     RDKit          3D

 71 75  0  0  1  0  0  0  0  0999 V2000
   53.3890   22.4960   46.0820 C   0  0  0  0  0  0  0  0  0  0  0  0
   54.0150   23.7890   46.3250 N   0  0  0  0  0  0  0  0  0  0  0  0
   55.1240   24.1220   45.4930 C   0  0  0  0  0  0  0  0  0  0  0  0
   55.4510   23.2610   44.6310 O   0  0  0  0  0  0  0  0  0  0  0  0
   55.8470   25.3960   45.6320 C   0  0  0  0  0  0  0  0  0  0  0  0
   55.3200   26.3580   46.2370 O   0  0  0  0  0  0  0  0  0  0  0  0
   57.1330   25.4890   45.0670 N   0  0  0  0  0  0  0  0  0  0  0  0
   57.9510   26.6510   45.1190 C   0  0  0  0  0  0  0  0  0  0  0  0
   58.3350   27.3430   44.0050 C   0  0  0  0  0  0  0  0  0  0  0  0
   59.1380   28.4690   44.1490 C   0  0  0  0  0  0  0  0  0  0  0  0
   59.5350   28.8710   45.4150 C   0  0  0  0  0  0  0  0  0  0  0  0
   59.1610   28.1890   46.5580 C   0  0  0  0  0  0  0  0  0  0  0  0
   59.5770   28.6120   47.8620 N   0  0  0  0  0  0  0  0  0  0  0  0
   60.6400   27.8880   48.4830 C   0  0  0  0  0  0  0  0  0  0  0  0
   61.1290   28.5430   49.7590 C   0  0  0  0  0  0  0  0  0  0  0  0
   60.0010   29.0580   50.5710 C   0  0  0  0  0  0  0  0  0  0  0  0
   58.9430   29.6190   49.9110 C   0  0  0  0  0  0  0  0  0  0  0  0
   57.9110   30.0920   50.6120 N   0  0  0  0  0  0  0  0  0  0  0  0
   57.8250   30.0610   51.9410 C   0  0  0  0  0  0  0  0  0  0  0  0
   56.8160   30.5170   52.7280 O   0  0  0  0  0  0  0  0  0  0  0  0
   55.4940   30.2250   52.5910 C   0  0  0  0  0  0  0  0  0  0  0  0
   55.0010   29.1660   53.3500 C   0  0  0  0  0  0  0  0  0  0  0  0
   53.6880   28.7640   53.3090 C   0  0  0  0  0  0  0  0  0  0  0  0
   52.7860   29.4120   52.4920 C   0  0  0  0  0  0  0  0  0  0  0  0
   51.4310   28.9830   52.4630 N   0  0  0  0  0  0  0  0  0  0  0  0
   53.2530   30.4560   51.7390 C   0  0  0  0  0  0  0  0  0  0  0  0
   54.5880   30.8590   51.7840 C   0  0  0  0  0  0  0  0  0  0  0  0
   58.8940   29.4940   52.5900 N   0  0  0  0  0  0  0  0  0  0  0  0
   59.9510   29.0050   51.9420 C   0  0  0  0  0  0  0  0  0  0  0  0
   60.9530   28.4730   52.5770 N   0  0  0  0  0  0  0  0  0  0  0  0
   61.1010   27.0600   52.4940 C   0  0  0  0  0  0  0  0  0  0  0  0
   59.9930   26.3140   52.9170 C   0  0  0  0  0  0  0  0  0  0  0  0
   60.0220   24.9320   52.8810 C   0  0  0  0  0  0  0  0  0  0  0  0
   61.1690   24.3200   52.4180 C   0  0  0  0  0  0  0  0  0  0  0  0
   61.1870   22.8620   52.3860 C   0  0  0  0  0  0  0  0  0  0  0  0
   60.2490   22.0370   53.1960 C   0  0  0  0  0  0  0  0  0  0  0  0
   62.0280   22.2920   51.6440 O   0  0  0  0  0  0  0  0  0  0  0  0
   62.2560   25.0640   52.0040 C   0  0  0  0  0  0  0  0  0  0  0  0
   62.2450   26.4440   52.0320 C   0  0  0  0  0  0  0  0  0  0  0  0
   58.8780   29.7370   48.4320 C   0  0  0  0  0  0  0  0  0  0  0  0
   58.3630   27.0740   46.3750 C   0  0  0  0  0  0  0  0  0  0  0  0
   57.9600   26.3510   47.5140 O   0  0  0  0  0  0  0  0  0  0  0  0
   53.1561   22.0149   47.0434 H   0  0  0  0  0  0  0  0  0  0  0  0
   52.4608   22.6398   45.5096 H   0  0  0  0  0  0  0  0  0  0  0  0
   54.0775   21.8571   45.5096 H   0  0  0  0  0  0  0  0  0  0  0  0
   53.6860   24.4530   47.0620 H   0  0  0  0  0  0  0  0  0  0  0  0
   57.5500   24.6610   44.5630 H   0  0  0  0  0  0  0  0  0  0  0  0
   58.0127   27.0132   43.0063 H   0  0  0  0  0  0  0  0  0  0  0  0
   59.4566   29.0378   43.2630 H   0  0  0  0  0  0  0  0  0  0  0  0
   60.1698   29.7639   45.5136 H   0  0  0  0  0  0  0  0  0  0  0  0
   60.2830   26.8754   48.7221 H   0  0  0  0  0  0  0  0  0  0  0  0
   61.4833   27.8669   47.7771 H   0  0  0  0  0  0  0  0  0  0  0  0
   61.6863   27.8018   50.3506 H   0  0  0  0  0  0  0  0  0  0  0  0
   61.7742   29.3912   49.4866 H   0  0  0  0  0  0  0  0  0  0  0  0
   55.6946   28.6272   54.0123 H   0  0  0  0  0  0  0  0  0  0  0  0
   53.3545   27.9205   53.9314 H   0  0  0  0  0  0  0  0  0  0  0  0
   50.7220   29.2450   53.1750 H   0  0  0  0  0  0  0  0  0  0  0  0
   51.1380   28.3610   51.6670 H   0  0  0  0  0  0  0  0  0  0  0  0
   52.5552   30.9926   51.0793 H   0  0  0  0  0  0  0  0  0  0  0  0
   54.9187   31.7019   51.1594 H   0  0  0  0  0  0  0  0  0  0  0  0
   58.9020   29.4320   53.6320 H   0  0  0  0  0  0  0  0  0  0  0  0
   59.0931   26.8317   53.2805 H   0  0  0  0  0  0  0  0  0  0  0  0
   59.1569   24.3383   53.2114 H   0  0  0  0  0  0  0  0  0  0  0  0
   60.4417   22.2065   54.2657 H   0  0  0  0  0  0  0  0  0  0  0  0
   59.2130   22.3219   52.9604 H   0  0  0  0  0  0  0  0  0  0  0  0
   60.3993   20.9731   52.9604 H   0  0  0  0  0  0  0  0  0  0  0  0
   63.1547   24.5431   51.6422 H   0  0  0  0  0  0  0  0  0  0  0  0
   63.1147   27.0294   51.6989 H   0  0  0  0  0  0  0  0  0  0  0  0
   57.8284   29.7294   48.1031 H   0  0  0  0  0  0  0  0  0  0  0  0
   59.3409   30.6794   48.1040 H   0  0  0  0  0  0  0  0  0  0  0  0
   56.9570   26.2710   47.6380 H   0  0  0  0  0  0  0  0  0  0  0  0
  1  2  1  0
  2  3  1  0
  3  4  2  0
  3  5  1  0
  5  6  2  0
  5  7  1  0
  7  8  1  0
  8  9  2  0
  9 10  1  0
 10 11  2  0
 11 12  1  0
 12 13  1  0
 13 14  1  0
 14 15  1  0
 15 16  1  0
 16 17  2  0
 17 18  1  0
 18 19  2  0
 19 20  1  0
 20 21  1  0
 21 22  2  0
 22 23  1  0
 23 24  2  0
 24 25  1  0
 24 26  1  0
 26 27  2  0
 19 28  1  0
 28 29  1  0
 29 30  2  0
 30 31  1  0
 31 32  2  0
 32 33  1  0
 33 34  2  0
 34 35  1  0
 35 36  1  0
 35 37  2  0
 34 38  1  0
 38 39  2  0
 17 40  1  0
 12 41  2  0
 41 42  1  0
 41  8  1  0
 40 13  1  0
 29 16  1  0
 39 31  1  0
 27 21  1  0
  1 43  1  0
  1 44  1  0
  1 45  1  0
  2 46  1  0
  7 47  1  0
  9 48  1  0
 10 49  1  0
 11 50  1  0
 14 51  1  0
 14 52  1  0
 15 53  1  0
 15 54  1  0
 22 55  1  0
 23 56  1  0
 25 57  1  0
 25 58  1  0
 26 59  1  0
 27 60  1  0
 28 61  1  0
 32 62  1  0
 33 63  1  0
 36 64  1  0
 36 65  1  0
 36 66  1  0
 38 67  1  0
 39 68  1  0
 40 69  1  0
 40 70  1  0
 42 71  1  0
M  END
>  <smiles>  (90) 
CNC(=O)C(=O)Nc1cccc(N2CCc3c(nc(Oc4ccc(N)cc4)[nH]c3=Nc3ccc(C(C)=O)cc3)C2)c1O

>  <score_type>  (90) 
oracle

>  <origin>  (90) 
adg

>  <m_score__min__energy>  (90) 
-10.02

>  <m_primary>  (90) 
energy

$$$$
90:0
     RDKit          3D

 32 34  0  0  0  0  0  0  0  0999 V2000
   57.9120   23.2880   44.0670 N   0  0  0  0  0  0  0  0  0  0  0  0
   56.2640   22.7690   43.9930 S   0  0  0  0  0  0  0  0  0  0  0  0
   56.1930   21.3940   43.3910 O   0  0  0  0  0  0  0  0  0  0  0  0
   55.5020   23.7250   43.1190 O   0  0  0  0  0  0  0  0  0  0  0  0
   55.5610   22.7410   45.6190 C   0  0  0  0  0  0  0  0  0  0  0  0
   54.7220   21.6720   45.9730 C   0  0  0  0  0  0  0  0  0  0  0  0
   54.1150   21.6320   47.2300 C   0  0  0  0  0  0  0  0  0  0  0  0
   54.3390   22.6560   48.1490 C   0  0  0  0  0  0  0  0  0  0  0  0
   55.1770   23.7220   47.8170 C   0  0  0  0  0  0  0  0  0  0  0  0
   55.7990   23.7770   46.5570 C   0  0  0  0  0  0  0  0  0  0  0  0
   56.7080   24.9050   46.2630 C   0  0  0  0  0  0  0  0  0  0  0  0
   58.0490   24.6890   46.2560 N   0  0  0  0  0  0  0  0  0  0  0  0
   58.9470   25.6750   45.9960 C   0  0  0  0  0  0  0  0  0  0  0  0
   60.1770   25.4010   46.0030 O   0  0  0  0  0  0  0  0  0  0  0  0
   58.4970   26.9800   45.7250 C   0  0  0  0  0  0  0  0  0  0  0  0
   59.3970   28.0270   45.4510 C   0  0  0  0  0  0  0  0  0  0  0  0
   58.9210   29.3130   45.1830 C   0  0  0  0  0  0  0  0  0  0  0  0
   57.5480   29.5680   45.1860 C   0  0  0  0  0  0  0  0  0  0  0  0
   57.0930   30.8190   44.9250 F   0  0  0  0  0  0  0  0  0  0  0  0
   56.6420   28.5400   45.4550 C   0  0  0  0  0  0  0  0  0  0  0  0
   57.1040   27.2390   45.7280 C   0  0  0  0  0  0  0  0  0  0  0  0
   56.2060   26.1910   45.9980 C   0  0  0  0  0  0  0  0  0  0  0  0
   54.8310   26.4160   45.9900 O   0  0  0  0  0  0  0  0  0  0  0  0
   57.9050   24.3310   44.1120 H   0  0  0  0  0  0  0  0  0  0  0  0
   58.3000   22.9460   44.9750 H   0  0  0  0  0  0  0  0  0  0  0  0
   54.5414   20.8593   45.2541 H   0  0  0  0  0  0  0  0  0  0  0  0
   53.4585   20.7903   47.4957 H   0  0  0  0  0  0  0  0  0  0  0  0
   53.8552   22.6240   49.1364 H   0  0  0  0  0  0  0  0  0  0  0  0
   55.3523   24.5258   48.5472 H   0  0  0  0  0  0  0  0  0  0  0  0
   60.4796   27.8320   45.4479 H   0  0  0  0  0  0  0  0  0  0  0  0
   59.6296   30.1267   44.9691 H   0  0  0  0  0  0  0  0  0  0  0  0
   55.5619   28.7481   45.4535 H   0  0  0  0  0  0  0  0  0  0  0  0
  1  2  1  0
  2  3  2  0
  2  4  2  0
  2  5  1  0
  5  6  2  0
  6  7  1  0
  7  8  2  0
  8  9  1  0
  9 10  2  0
 10 11  1  0
 11 12  1  0
 12 13  1  0
 13 14  2  0
 13 15  1  0
 15 16  2  0
 16 17  1  0
 17 18  2  0
 18 19  1  0
 18 20  1  0
 20 21  2  0
 21 22  1  0
 22 23  1  0
 10  5  1  0
 22 11  2  0
 21 15  1  0
  1 24  1  0
  1 25  1  0
  6 26  1  0
  7 27  1  0
  8 28  1  0
  9 29  1  0
 16 30  1  0
 17 31  1  0
 20 32  1  0
M  CHG  2  12  -1  23  -1
M  END
>  <UniqueID>  (91) 
87

>  <SMILES>  (91) 
NS(=O)(=O)c1ccccc1-c1[n-]c(=O)c2ccc(F)cc2c1[O-]

>  <Energy>  (91) 
47.680915244668896

>  <Genealogy>  (91) 
NS(=O)(=O)c1ccccc1-c1[n-]c(=O)c2ccc(F)cc2c1[O-] (protonated)
NS(=O)(=O)c1ccccc1-c1[n-]c(=O)c2ccc(F)cc2c1[O-] (3D coordinates assigned)
NS(=O)(=O)c1ccccc1-c1[n-]c(=O)c2ccc(F)cc2c1[O-] (optimized conformer: 47.680915244668896 kcal/mol)

>  <smiles>  (91) 
NS(=O)(=O)c1ccccc1-c1[nH]c(=O)c2ccc(F)cc2c1O

>  <score_type>  (91) 
oracle

>  <origin>  (91) 
adg

>  <m_score__min__energy>  (91) 
-11.32

>  <m_primary>  (91) 
energy

$$$$
91:0
     RDKit          3D

 45 47  0  0  0  0  0  0  0  0999 V2000
   60.1330   30.0540   46.7590 C   0  0  0  0  0  0  0  0  0  0  0  0
   59.1550   30.3460   45.8800 C   0  0  0  0  0  0  0  0  0  0  0  0
   58.8430   31.7070   45.6170 C   0  0  0  0  0  0  0  0  0  0  0  0
   59.2600   32.7640   46.4980 N   0  0  0  0  0  0  0  0  0  0  0  0
   60.2660   33.7420   46.0600 C   0  0  0  0  0  0  0  0  0  0  0  0
   61.3670   33.9340   47.1270 C   0  0  0  0  0  0  0  0  0  0  0  0
   60.9410   33.5470   48.4940 N   0  0  0  0  0  0  0  0  0  0  0  0
   61.7550   34.2420   49.5040 C   0  0  0  0  0  0  0  0  0  0  0  0
   59.5090   33.8000   48.7190 C   0  0  0  0  0  0  0  0  0  0  0  0
   58.7000   32.8370   47.8520 C   0  0  0  0  0  0  0  0  0  0  0  0
   58.1600   32.0390   44.4920 N   0  0  0  0  0  0  0  0  0  0  0  0
   57.7150   31.1140   43.6080 C   0  0  0  0  0  0  0  0  0  0  0  0
   57.0220   31.5640   42.3550 C   0  0  0  0  0  0  0  0  0  0  0  0
   57.9710   32.3690   41.4750 C   0  0  0  0  0  0  0  0  0  0  0  0
   57.9090   29.7570   43.8700 C   0  0  0  0  0  0  0  0  0  0  0  0
   58.5460   29.3430   45.0560 C   0  0  0  0  0  0  0  0  0  0  0  0
   58.5180   28.0150   45.3360 C   0  0  0  0  0  0  0  0  0  0  0  0
   57.3070   27.2170   45.6140 C   0  0  0  0  0  0  0  0  0  0  0  0
   57.3060   25.9410   46.0460 N   0  0  0  0  0  0  0  0  0  0  0  0
   55.9970   25.6850   46.2560 C   0  0  0  0  0  0  0  0  0  0  0  0
   55.5810   24.5680   46.6610 O   0  0  0  0  0  0  0  0  0  0  0  0
   55.1680   26.7220   46.0070 N   0  0  0  0  0  0  0  0  0  0  0  0
   56.0170   27.6870   45.6120 C   0  0  0  0  0  0  0  0  0  0  0  0
   55.6220   28.9720   45.2590 O   0  0  0  0  0  0  0  0  0  0  0  0
   60.3854   29.0048   46.9725 H   0  0  0  0  0  0  0  0  0  0  0  0
   60.6793   30.8647   47.2633 H   0  0  0  0  0  0  0  0  0  0  0  0
   60.7291   33.3862   45.1278 H   0  0  0  0  0  0  0  0  0  0  0  0
   59.7642   34.7081   45.9023 H   0  0  0  0  0  0  0  0  0  0  0  0
   62.2350   33.3195   46.8459 H   0  0  0  0  0  0  0  0  0  0  0  0
   61.6066   35.0072   47.1548 H   0  0  0  0  0  0  0  0  0  0  0  0
   61.4165   33.9530   50.5099 H   0  0  0  0  0  0  0  0  0  0  0  0
   62.8117   33.9632   49.3785 H   0  0  0  0  0  0  0  0  0  0  0  0
   61.6453   35.3293   49.3785 H   0  0  0  0  0  0  0  0  0  0  0  0
   59.2663   33.6366   49.7794 H   0  0  0  0  0  0  0  0  0  0  0  0
   59.2654   34.8392   48.4529 H   0  0  0  0  0  0  0  0  0  0  0  0
   58.7226   31.8356   48.3067 H   0  0  0  0  0  0  0  0  0  0  0  0
   57.6648   33.2033   47.7876 H   0  0  0  0  0  0  0  0  0  0  0  0
   56.6737   30.6817   41.7980 H   0  0  0  0  0  0  0  0  0  0  0  0
   56.1692   32.2013   42.6315 H   0  0  0  0  0  0  0  0  0  0  0  0
   58.6559   32.9500   42.1101 H   0  0  0  0  0  0  0  0  0  0  0  0
   58.5520   31.6841   40.8399 H   0  0  0  0  0  0  0  0  0  0  0  0
   57.3900   33.0539   40.8399 H   0  0  0  0  0  0  0  0  0  0  0  0
   57.5621   29.0057   43.1453 H   0  0  0  0  0  0  0  0  0  0  0  0
   59.4826   27.4867   45.3577 H   0  0  0  0  0  0  0  0  0  0  0  0
   55.6110   29.7160   45.9460 H   0  0  0  0  0  0  0  0  0  0  0  0
  1  2  2  0
  2  3  1  0
  3  4  1  0
  4  5  1  0
  5  6  1  0
  6  7  1  0
  7  8  1  0
  7  9  1  0
  9 10  1  0
  3 11  2  0
 11 12  1  0
 12 13  1  0
 13 14  1  0
 12 15  2  0
 15 16  1  0
 16 17  2  3
 17 18  1  0
 18 19  1  0
 19 20  1  0
 20 21  2  0
 20 22  1  0
 22 23  1  0
 23 24  1  0
 16  2  1  0
 23 18  2  0
 10  4  1  0
  1 25  1  0
  1 26  1  0
  5 27  1  0
  5 28  1  0
  6 29  1  0
  6 30  1  0
  8 31  1  0
  8 32  1  0
  8 33  1  0
  9 34  1  0
  9 35  1  0
 10 36  1  0
 10 37  1  0
 13 38  1  0
 13 39  1  0
 14 40  1  0
 14 41  1  0
 14 42  1  0
 15 43  1  0
 17 44  1  0
 24 45  1  0
M  CHG  2  19  -1  22  -1
M  END
>  <UniqueID>  (92) 
88

>  <SMILES>  (92) 
C=c1c(N2CCN(C)CC2)nc(CC)cc1=Cc1[n-]c(=O)[n-]c1O

>  <Energy>  (92) 
102.70392060836397

>  <Genealogy>  (92) 
C=c1c(N2CCN(C)CC2)nc(CC)cc1=Cc1[n-]c(=O)[n-]c1O (protonated)
C=c1c(N2CCN(C)CC2)nc(CC)cc1=Cc1[n-]c(=O)[n-]c1O (3D coordinates assigned)
C=c1c(N2CCN(C)CC2)nc(CC)cc1=Cc1[n-]c(=O)[n-]c1O (nonaromatic ring conformer: 102.70392060836397 kcal/mol)

>  <smiles>  (92) 
C=c1c(N2CCN(C)CC2)nc(CC)cc1=Cc1[nH]c(=O)[nH]c1O

>  <score_type>  (92) 
oracle

>  <origin>  (92) 
adg

>  <m_score__min__energy>  (92) 
-12.279999999999999

>  <m_primary>  (92) 
energy

$$$$
92:0
     RDKit          3D

 56 59  0  0  0  0  0  0  0  0999 V2000
   56.8090   24.9350   44.5960 C   0  0  0  0  0  0  0  0  0  0  0  0
   55.7880   25.7280   45.8140 S   0  0  0  0  0  0  0  0  0  0  0  0
   54.3640   25.2830   45.6250 O   0  0  0  0  0  0  0  0  0  0  0  0
   56.2620   25.3320   47.1830 O   0  0  0  0  0  0  0  0  0  0  0  0
   55.9140   27.4530   45.6170 N   0  0  0  0  0  0  0  0  0  0  0  0
   57.2730   27.8400   45.2480 C   0  0  0  0  0  0  0  0  0  0  0  0
   57.3930   29.3370   45.1680 C   0  0  0  0  0  0  0  0  0  0  0  0
   58.0120   30.0480   46.2080 C   0  0  0  0  0  0  0  0  0  0  0  0
   58.1230   31.4410   46.1450 C   0  0  0  0  0  0  0  0  0  0  0  0
   57.6080   32.1410   45.0450 C   0  0  0  0  0  0  0  0  0  0  0  0
   57.7100   33.6110   44.9780 C   0  0  0  0  0  0  0  0  0  0  0  0
   56.6600   34.3060   45.0690 O   0  0  0  0  0  0  0  0  0  0  0  0
   58.9710   34.2800   44.8300 N   0  0  0  0  0  0  0  0  0  0  0  0
   59.6090   35.1160   45.8450 C   0  0  0  0  0  0  0  0  0  0  0  0
   60.4860   34.2770   46.7370 C   0  0  0  0  0  0  0  0  0  0  0  0
   61.7780   33.9230   46.3200 C   0  0  0  0  0  0  0  0  0  0  0  0
   62.6100   33.1700   47.1550 C   0  0  0  0  0  0  0  0  0  0  0  0
   62.1640   32.7630   48.4240 C   0  0  0  0  0  0  0  0  0  0  0  0
   63.0400   31.9710   49.3130 C   0  0  0  0  0  0  0  0  0  0  0  0
   64.2910   32.0070   49.1400 O   0  0  0  0  0  0  0  0  0  0  0  0
   62.4920   31.2000   50.3980 N   0  0  0  0  0  0  0  0  0  0  0  0
   62.9680   31.3050   51.7840 C   0  0  0  0  0  0  0  0  0  0  0  0
   62.5310   30.0050   52.4940 C   0  0  0  0  0  0  0  0  0  0  0  0
   61.7930   29.2670   51.4330 C   0  0  0  0  0  0  0  0  0  0  0  0
   61.1430   28.0370   51.5390 C   0  0  0  0  0  0  0  0  0  0  0  0
   60.4790   27.5300   50.4110 C   0  0  0  0  0  0  0  0  0  0  0  0
   60.4670   28.2610   49.2050 C   0  0  0  0  0  0  0  0  0  0  0  0
   59.6120   27.6340   47.8060 Cl  0  0  0  0  0  0  0  0  0  0  0  0
   61.1300   29.4960   49.1240 C   0  0  0  0  0  0  0  0  0  0  0  0
   61.8010   29.9680   50.2590 C   0  0  0  0  0  0  0  0  0  0  0  0
   60.8790   33.1410   48.8510 C   0  0  0  0  0  0  0  0  0  0  0  0
   60.0430   33.8830   48.0100 C   0  0  0  0  0  0  0  0  0  0  0  0
   57.0130   31.4290   43.9910 C   0  0  0  0  0  0  0  0  0  0  0  0
   56.8960   30.0370   44.0570 C   0  0  0  0  0  0  0  0  0  0  0  0
   57.5814   24.3351   45.0994 H   0  0  0  0  0  0  0  0  0  0  0  0
   56.1880   24.2801   43.9671 H   0  0  0  0  0  0  0  0  0  0  0  0
   57.2899   25.6987   43.9671 H   0  0  0  0  0  0  0  0  0  0  0  0
   57.9752   27.4609   46.0051 H   0  0  0  0  0  0  0  0  0  0  0  0
   57.5088   27.4118   44.2626 H   0  0  0  0  0  0  0  0  0  0  0  0
   58.4122   29.5065   47.0778 H   0  0  0  0  0  0  0  0  0  0  0  0
   58.6161   31.9890   46.9614 H   0  0  0  0  0  0  0  0  0  0  0  0
   60.2228   35.8830   45.3501 H   0  0  0  0  0  0  0  0  0  0  0  0
   58.8296   35.5941   46.4565 H   0  0  0  0  0  0  0  0  0  0  0  0
   62.1389   34.2396   45.3303 H   0  0  0  0  0  0  0  0  0  0  0  0
   63.6197   32.8947   46.8163 H   0  0  0  0  0  0  0  0  0  0  0  0
   64.0637   31.3996   51.8039 H   0  0  0  0  0  0  0  0  0  0  0  0
   62.5507   32.1920   52.2831 H   0  0  0  0  0  0  0  0  0  0  0  0
   63.4042   29.4314   52.8384 H   0  0  0  0  0  0  0  0  0  0  0  0
   61.9237   30.1885   53.3926 H   0  0  0  0  0  0  0  0  0  0  0  0
   61.1507   27.4769   52.4857 H   0  0  0  0  0  0  0  0  0  0  0  0
   59.9660   26.5586   50.4679 H   0  0  0  0  0  0  0  0  0  0  0  0
   61.1226   30.0790   48.1912 H   0  0  0  0  0  0  0  0  0  0  0  0
   60.5288   32.8515   49.8527 H   0  0  0  0  0  0  0  0  0  0  0  0
   59.0332   34.1593   48.3476 H   0  0  0  0  0  0  0  0  0  0  0  0
   56.6372   31.9687   43.1093 H   0  0  0  0  0  0  0  0  0  0  0  0
   56.4127   29.4883   43.2352 H   0  0  0  0  0  0  0  0  0  0  0  0
  1  2  1  0
  2  3  2  0
  2  4  2  0
  2  5  1  0
  5  6  1  0
  6  7  1  0
  7  8  2  0
  8  9  1  0
  9 10  2  0
 10 11  1  0
 11 12  2  0
 11 13  1  0
 13 14  1  0
 14 15  1  0
 15 16  2  0
 16 17  1  0
 17 18  2  0
 18 19  1  0
 19 20  2  0
 19 21  1  0
 21 22  1  0
 22 23  1  0
 23 24  1  0
 24 25  2  0
 25 26  1  0
 26 27  2  0
 27 28  1  0
 27 29  1  0
 29 30  2  0
 18 31  1  0
 31 32  2  0
 10 33  1  0
 33 34  2  0
 34  7  1  0
 32 15  1  0
 30 21  1  0
 30 24  1  0
  1 35  1  0
  1 36  1  0
  1 37  1  0
  6 38  1  0
  6 39  1  0
  8 40  1  0
  9 41  1  0
 14 42  1  0
 14 43  1  0
 16 44  1  0
 17 45  1  0
 22 46  1  0
 22 47  1  0
 23 48  1  0
 23 49  1  0
 25 50  1  0
 26 51  1  0
 29 52  1  0
 31 53  1  0
 32 54  1  0
 33 55  1  0
 34 56  1  0
M  CHG  2   5  -1  13  -1
M  END
>  <UniqueID>  (93) 
89

>  <SMILES>  (93) 
CS(=O)(=O)[N-]Cc1ccc(C(=O)[N-]Cc2ccc(C(=O)N3CCc4ccc(Cl)cc43)cc2)cc1

>  <Energy>  (93) 
76.70831153061741

>  <Genealogy>  (93) 
CS(=O)(=O)[N-]Cc1ccc(C(=O)[N-]Cc2ccc(C(=O)N3CCc4ccc(Cl)cc43)cc2)cc1 (protonated)
CS(=O)(=O)[N-]Cc1ccc(C(=O)[N-]Cc2ccc(C(=O)N3CCc4ccc(Cl)cc43)cc2)cc1 (3D coordinates assigned)
CS(=O)(=O)[N-]Cc1ccc(C(=O)[N-]Cc2ccc(C(=O)N3CCc4ccc(Cl)cc43)cc2)cc1 (nonaromatic ring conformer: 76.70831153061741 kcal/mol)

>  <smiles>  (93) 
CS(=O)(=O)NCc1ccc(C(=O)NCc2ccc(C(=O)N3CCc4ccc(Cl)cc43)cc2)cc1

>  <score_type>  (93) 
oracle

>  <origin>  (93) 
adg

>  <m_score__min__energy>  (93) 
-13.390000000000001

>  <m_primary>  (93) 
energy

$$$$
93:0
     RDKit          3D

 46 48  0  0  1  0  0  0  0  0999 V2000
   65.4850   32.0680   50.0930 C   0  0  0  0  0  0  0  0  0  0  0  0
   64.5690   32.5770   49.0730 N   0  0  0  0  0  0  0  0  0  0  0  0
   63.2430   32.8530   49.5000 C   0  0  0  0  0  0  0  0  0  0  0  0
   62.9920   32.6270   50.7250 O   0  0  0  0  0  0  0  0  0  0  0  0
   62.2250   33.3650   48.5920 C   0  0  0  0  0  0  0  0  0  0  0  0
   62.3700   33.3800   47.2200 C   0  0  0  0  0  0  0  0  0  0  0  0
   61.3610   33.8810   46.4390 C   0  0  0  0  0  0  0  0  0  0  0  0
   60.1770   34.3860   46.9410 C   0  0  0  0  0  0  0  0  0  0  0  0
   59.1000   34.9210   46.0600 C   0  0  0  0  0  0  0  0  0  0  0  0
   58.0190   34.0070   45.8600 N   0  0  0  0  0  0  0  0  0  0  0  0
   58.0250   32.9670   45.1130 C   0  0  0  0  0  0  0  0  0  0  0  0
   57.8580   33.1120   43.7550 C   0  0  0  0  0  0  0  0  0  0  0  0
   57.8720   31.9640   42.9960 C   0  0  0  0  0  0  0  0  0  0  0  0
   58.0430   30.7740   43.6010 N   0  0  0  0  0  0  0  0  0  0  0  0
   58.2060   30.6260   44.9240 C   0  0  0  0  0  0  0  0  0  0  0  0
   58.3910   29.3570   45.5920 C   0  0  0  0  0  0  0  0  0  0  0  0
   59.6100   29.0260   46.1900 C   0  0  0  0  0  0  0  0  0  0  0  0
   59.8050   27.8210   46.8320 C   0  0  0  0  0  0  0  0  0  0  0  0
   58.8030   26.8760   46.9160 C   0  0  0  0  0  0  0  0  0  0  0  0
   57.5960   27.1890   46.3320 C   0  0  0  0  0  0  0  0  0  0  0  0
   56.5320   26.2080   46.4110 C   0  0  0  0  0  0  0  0  0  0  0  0
   55.1990   26.5600   46.0580 N   0  0  0  0  0  0  0  0  0  0  0  0
   56.8050   25.0500   46.7930 O   0  0  0  0  0  0  0  0  0  0  0  0
   57.3990   28.4080   45.6820 C   0  0  0  0  0  0  0  0  0  0  0  0
   58.1930   31.7530   45.6660 N   0  0  0  0  0  0  0  0  0  0  0  0
   60.0530   34.3600   48.3280 C   0  0  0  0  0  0  0  0  0  0  0  0
   61.0580   33.8610   49.1340 C   0  0  0  0  0  0  0  0  0  0  0  0
   65.0824   32.2917   51.0919 H   0  0  0  0  0  0  0  0  0  0  0  0
   65.5946   30.9796   49.9772 H   0  0  0  0  0  0  0  0  0  0  0  0
   66.4671   32.5498   49.9772 H   0  0  0  0  0  0  0  0  0  0  0  0
   64.8620   32.7300   48.1050 H   0  0  0  0  0  0  0  0  0  0  0  0
   63.2890   32.9926   46.7560 H   0  0  0  0  0  0  0  0  0  0  0  0
   61.5023   33.8810   45.3481 H   0  0  0  0  0  0  0  0  0  0  0  0
   58.7002   35.8382   46.5170 H   0  0  0  0  0  0  0  0  0  0  0  0
   59.5517   35.1079   45.0746 H   0  0  0  0  0  0  0  0  0  0  0  0
   57.7194   34.1020   43.2961 H   0  0  0  0  0  0  0  0  0  0  0  0
   57.7446   32.0186   41.9048 H   0  0  0  0  0  0  0  0  0  0  0  0
   58.0480   29.9290   42.9920 H   0  0  0  0  0  0  0  0  0  0  0  0
   60.4387   29.7481   46.1474 H   0  0  0  0  0  0  0  0  0  0  0  0
   60.7831   27.6081   47.2882 H   0  0  0  0  0  0  0  0  0  0  0  0
   58.9615   25.9149   47.4270 H   0  0  0  0  0  0  0  0  0  0  0  0
   54.6000   25.9160   45.4740 H   0  0  0  0  0  0  0  0  0  0  0  0
   54.7650   27.4680   46.3630 H   0  0  0  0  0  0  0  0  0  0  0  0
   56.4195   28.6168   45.2271 H   0  0  0  0  0  0  0  0  0  0  0  0
   59.1335   34.7457   48.7925 H   0  0  0  0  0  0  0  0  0  0  0  0
   60.9251   33.8593   50.2259 H   0  0  0  0  0  0  0  0  0  0  0  0
  1  2  1  0
  2  3  1  0
  3  4  2  0
  3  5  1  0
  5  6  2  0
  6  7  1  0
  7  8  2  0
  8  9  1  0
  9 10  1  0
 10 11  2  0
 11 12  1  0
 12 13  2  0
 13 14  1  0
 14 15  1  0
 15 16  1  0
 16 17  2  0
 17 18  1  0
 18 19  2  0
 19 20  1  0
 20 21  1  0
 21 22  1  0
 21 23  2  0
 20 24  2  0
 15 25  2  0
  8 26  1  0
 26 27  2  0
 27  5  1  0
 25 11  1  0
 24 16  1  0
  1 28  1  0
  1 29  1  0
  1 30  1  0
  2 31  1  0
  6 32  1  0
  7 33  1  0
  9 34  1  0
  9 35  1  0
 12 36  1  0
 13 37  1  0
 14 38  1  0
 17 39  1  0
 18 40  1  0
 19 41  1  0
 22 42  1  0
 22 43  1  0
 24 44  1  0
 26 45  1  0
 27 46  1  0
M  END
>  <smiles>  (94) 
CNC(=O)c1ccc(CN=c2cc[nH]c(-c3cccc(C(N)=O)c3)n2)cc1

>  <score_type>  (94) 
oracle

>  <origin>  (94) 
adg

>  <m_score__min__energy>  (94) 
-9.5500000000000007

>  <m_primary>  (94) 
energy

$$$$
