0:0
     RDKit          3D

 43 45  0  0  0  0  0  0  0  0999 V2000
   59.5490   32.7460   50.2990 C   0  0  0  0  0  0  0  0  0  0  0  0
   59.2690   33.2430   48.9120 C   0  0  0  0  0  0  0  0  0  0  0  0
   58.2080   32.7040   48.1690 C   0  0  0  0  0  0  0  0  0  0  0  0
   57.9680   33.1410   46.8620 C   0  0  0  0  0  0  0  0  0  0  0  0
   58.7970   34.1110   46.2770 C   0  0  0  0  0  0  0  0  0  0  0  0
   58.5230   34.5910   44.8760 C   0  0  0  0  0  0  0  0  0  0  0  0
   57.4400   33.8110   44.2580 N   0  0  0  0  0  0  0  0  0  0  0  0
   57.9370   32.6820   43.4540 C   0  0  0  0  0  0  0  0  0  0  0  0
   57.4500   31.3610   43.9760 C   0  0  0  0  0  0  0  0  0  0  0  0
   56.3720   31.2180   44.7730 N   0  0  0  0  0  0  0  0  0  0  0  0
   56.3060   29.9430   45.0270 O   0  0  0  0  0  0  0  0  0  0  0  0
   57.2910   29.3190   44.4260 C   0  0  0  0  0  0  0  0  0  0  0  0
   57.5300   27.8450   44.5000 C   0  0  0  0  0  0  0  0  0  0  0  0
   58.7080   27.5680   45.2570 O   0  0  0  0  0  0  0  0  0  0  0  0
   59.3200   28.4550   46.1570 C   0  0  0  0  0  0  0  0  0  0  0  0
   60.3410   29.3480   45.7720 C   0  0  0  0  0  0  0  0  0  0  0  0
   60.9170   30.2070   46.7130 C   0  0  0  0  0  0  0  0  0  0  0  0
   60.4810   30.1870   48.0400 C   0  0  0  0  0  0  0  0  0  0  0  0
   59.4670   29.3090   48.4280 C   0  0  0  0  0  0  0  0  0  0  0  0
   58.8890   28.4480   47.4900 C   0  0  0  0  0  0  0  0  0  0  0  0
   58.0570   30.1840   43.7410 N   0  0  0  0  0  0  0  0  0  0  0  0
   59.8690   34.6380   47.0160 C   0  0  0  0  0  0  0  0  0  0  0  0
   60.1080   34.2010   48.3210 C   0  0  0  0  0  0  0  0  0  0  0  0
   59.1467   33.4601   51.0326 H   0  0  0  0  0  0  0  0  0  0  0  0
   59.0703   31.7658   50.4409 H   0  0  0  0  0  0  0  0  0  0  0  0
   60.6354   32.6475   50.4409 H   0  0  0  0  0  0  0  0  0  0  0  0
   57.5619   31.9342   48.6162 H   0  0  0  0  0  0  0  0  0  0  0  0
   57.1263   32.7229   46.2904 H   0  0  0  0  0  0  0  0  0  0  0  0
   58.2304   35.6509   44.9089 H   0  0  0  0  0  0  0  0  0  0  0  0
   59.4357   34.4637   44.2753 H   0  0  0  0  0  0  0  0  0  0  0  0
   56.8210   33.4410   45.0180 H   0  0  0  0  0  0  0  0  0  0  0  0
   57.5893   32.8041   42.4176 H   0  0  0  0  0  0  0  0  0  0  0  0
   59.0356   32.6842   43.5085 H   0  0  0  0  0  0  0  0  0  0  0  0
   56.6675   27.3620   44.9825 H   0  0  0  0  0  0  0  0  0  0  0  0
   57.6616   27.4538   43.4804 H   0  0  0  0  0  0  0  0  0  0  0  0
   60.6856   29.3690   44.7276 H   0  0  0  0  0  0  0  0  0  0  0  0
   61.7150   30.8998   46.4078 H   0  0  0  0  0  0  0  0  0  0  0  0
   60.9363   30.8627   48.7790 H   0  0  0  0  0  0  0  0  0  0  0  0
   59.1225   29.2946   49.4726 H   0  0  0  0  0  0  0  0  0  0  0  0
   58.0895   27.7596   47.8013 H   0  0  0  0  0  0  0  0  0  0  0  0
   58.9110   29.9920   43.1710 H   0  0  0  0  0  0  0  0  0  0  0  0
   60.5234   35.3984   46.5649 H   0  0  0  0  0  0  0  0  0  0  0  0
   60.9574   34.6093   48.8882 H   0  0  0  0  0  0  0  0  0  0  0  0
  1  2  1  0
  2  3  2  0
  3  4  1  0
  4  5  2  0
  5  6  1  0
  6  7  1  0
  7  8  1  0
  8  9  1  0
  9 10  2  0
 10 11  1  0
 11 12  1  0
 12 13  1  0
 13 14  1  0
 14 15  1  0
 15 16  2  0
 16 17  1  0
 17 18  2  0
 18 19  1  0
 19 20  2  0
 12 21  2  0
  5 22  1  0
 22 23  2  0
 23  2  1  0
 21  9  1  0
 20 15  1  0
  1 24  1  0
  1 25  1  0
  1 26  1  0
  3 27  1  0
  4 28  1  0
  6 29  1  0
  6 30  1  0
  7 31  1  0
  8 32  1  0
  8 33  1  0
 13 34  1  0
 13 35  1  0
 16 36  1  0
 17 37  1  0
 18 38  1  0
 19 39  1  0
 20 40  1  0
 21 41  1  0
 22 42  1  0
 23 43  1  0
M  CHG  1  21   1
M  END
>  <UniqueID>  (1) 
1

>  <SMILES>  (1) 
Cc1ccc(CNCc2noc(COc3ccccc3)[nH+]2)cc1

>  <Energy>  (1) 
76.98791113732497

>  <Genealogy>  (1) 
Cc1ccc(CNCc2noc(COc3ccccc3)[nH+]2)cc1 (protonated)
Cc1ccc(CNCc2noc(COc3ccccc3)[nH+]2)cc1 (3D coordinates assigned)
Cc1ccc(CNCc2noc(COc3ccccc3)[nH+]2)cc1 (optimized conformer: 76.98791113732497 kcal/mol)

>  <smiles>  (1) 
Cc1ccc(CNCc2noc(COc3ccccc3)n2)cc1

>  <score_type>  (1) 
oracle

>  <origin>  (1) 
adg

>  <m_score__min__energy>  (1) 
-6.04

>  <m_primary>  (1) 
energy

$$$$
1:0
     RDKit          3D

 52 55  0  0  0  0  0  0  0  0999 V2000
   54.7200   29.6780   43.4980 O   0  0  0  0  0  0  0  0  0  0  0  0
   55.7510   29.8220   44.2100 C   0  0  0  0  0  0  0  0  0  0  0  0
   56.0280   28.8460   45.2240 N   0  0  0  0  0  0  0  0  0  0  0  0
   57.3270   28.5400   45.7440 C   0  0  0  0  0  0  0  0  0  0  0  0
   57.8000   27.2190   45.8020 C   0  0  0  0  0  0  0  0  0  0  0  0
   59.0580   26.9480   46.3500 C   0  0  0  0  0  0  0  0  0  0  0  0
   59.8390   27.9890   46.8580 C   0  0  0  0  0  0  0  0  0  0  0  0
   59.3680   29.3070   46.8090 C   0  0  0  0  0  0  0  0  0  0  0  0
   60.3020   30.6300   47.5780 S   0  0  0  0  0  0  0  0  0  0  0  0
   59.9730   29.9860   49.2260 C   0  0  0  0  0  0  0  0  0  0  0  0
   60.4950   28.8890   49.5610 O   0  0  0  0  0  0  0  0  0  0  0  0
   59.0820   30.6630   50.1300 N   0  0  0  0  0  0  0  0  0  0  0  0
   58.2560   29.8630   51.0400 C   0  0  0  0  0  0  0  0  0  0  0  0
   57.2240   30.7540   51.7270 C   0  0  0  0  0  0  0  0  0  0  0  0
   57.8850   31.8470   52.3340 O   0  0  0  0  0  0  0  0  0  0  0  0
   58.4480   32.7300   51.3680 C   0  0  0  0  0  0  0  0  0  0  0  0
   58.8190   32.1000   50.0010 C   0  0  0  0  0  0  0  0  0  0  0  0
   58.1300   29.5820   46.2180 C   0  0  0  0  0  0  0  0  0  0  0  0
   56.6790   30.9420   43.9280 C   0  0  0  0  0  0  0  0  0  0  0  0
   57.3070   31.0580   42.6750 C   0  0  0  0  0  0  0  0  0  0  0  0
   58.1670   32.1250   42.4120 C   0  0  0  0  0  0  0  0  0  0  0  0
   58.4160   33.0830   43.3960 C   0  0  0  0  0  0  0  0  0  0  0  0
   57.8080   32.9830   44.6520 C   0  0  0  0  0  0  0  0  0  0  0  0
   58.0720   33.9790   45.6030 O   0  0  0  0  0  0  0  0  0  0  0  0
   59.2030   34.0540   46.4280 C   0  0  0  0  0  0  0  0  0  0  0  0
   59.1390   34.5440   47.7450 C   0  0  0  0  0  0  0  0  0  0  0  0
   60.2870   34.5770   48.5410 C   0  0  0  0  0  0  0  0  0  0  0  0
   61.5000   34.1060   48.0370 C   0  0  0  0  0  0  0  0  0  0  0  0
   61.5670   33.6020   46.7370 C   0  0  0  0  0  0  0  0  0  0  0  0
   60.4200   33.5690   45.9400 C   0  0  0  0  0  0  0  0  0  0  0  0
   56.9150   31.9250   44.9050 C   0  0  0  0  0  0  0  0  0  0  0  0
   57.1803   26.3963   45.4159 H   0  0  0  0  0  0  0  0  0  0  0  0
   59.4328   25.9143   46.3810 H   0  0  0  0  0  0  0  0  0  0  0  0
   60.8244   27.7733   47.2967 H   0  0  0  0  0  0  0  0  0  0  0  0
   57.7377   29.0794   50.4679 H   0  0  0  0  0  0  0  0  0  0  0  0
   58.9009   29.4026   51.8029 H   0  0  0  0  0  0  0  0  0  0  0  0
   56.5050   31.1261   50.9823 H   0  0  0  0  0  0  0  0  0  0  0  0
   56.6866   30.1751   52.4926 H   0  0  0  0  0  0  0  0  0  0  0  0
   57.7191   33.5324   51.1813 H   0  0  0  0  0  0  0  0  0  0  0  0
   59.3984   33.0745   51.8017 H   0  0  0  0  0  0  0  0  0  0  0  0
   57.9853   32.2500   49.2993 H   0  0  0  0  0  0  0  0  0  0  0  0
   59.7325   32.5881   49.6304 H   0  0  0  0  0  0  0  0  0  0  0  0
   57.7867   30.6230   46.1258 H   0  0  0  0  0  0  0  0  0  0  0  0
   57.1191   30.3029   41.8974 H   0  0  0  0  0  0  0  0  0  0  0  0
   58.6496   32.2112   41.4273 H   0  0  0  0  0  0  0  0  0  0  0  0
   59.0946   33.9220   43.1826 H   0  0  0  0  0  0  0  0  0  0  0  0
   58.1812   34.9027   48.1500 H   0  0  0  0  0  0  0  0  0  0  0  0
   60.2345   34.9744   49.5653 H   0  0  0  0  0  0  0  0  0  0  0  0
   62.4034   34.1319   48.6641 H   0  0  0  0  0  0  0  0  0  0  0  0
   62.5233   33.2307   46.3399 H   0  0  0  0  0  0  0  0  0  0  0  0
   60.4749   33.1584   44.9210 H   0  0  0  0  0  0  0  0  0  0  0  0
   56.3980   31.8668   45.8742 H   0  0  0  0  0  0  0  0  0  0  0  0
  1  2  2  0
  2  3  1  0
  3  4  1  0
  4  5  2  0
  5  6  1  0
  6  7  2  0
  7  8  1  0
  8  9  1  0
  9 10  1  0
 10 11  2  0
 10 12  1  0
 12 13  1  0
 13 14  1  0
 14 15  1  0
 15 16  1  0
 16 17  1  0
  8 18  2  0
  2 19  1  0
 19 20  2  0
 20 21  1  0
 21 22  2  0
 22 23  1  0
 23 24  1  0
 24 25  1  0
 25 26  2  0
 26 27  1  0
 27 28  2  0
 28 29  1  0
 29 30  2  0
 23 31  2  0
 18  4  1  0
 31 19  1  0
 17 12  1  0
 30 25  1  0
  5 32  1  0
  6 33  1  0
  7 34  1  0
 13 35  1  0
 13 36  1  0
 14 37  1  0
 14 38  1  0
 16 39  1  0
 16 40  1  0
 17 41  1  0
 17 42  1  0
 18 43  1  0
 20 44  1  0
 21 45  1  0
 22 46  1  0
 26 47  1  0
 27 48  1  0
 28 49  1  0
 29 50  1  0
 30 51  1  0
 31 52  1  0
M  CHG  1   3  -1
M  END
>  <UniqueID>  (2) 
2

>  <SMILES>  (2) 
O=C([N-]c1cccc(SC(=O)N2CCOCC2)c1)c1cccc(Oc2ccccc2)c1

>  <Energy>  (2) 
71.2037477603473

>  <Genealogy>  (2) 
O=C([N-]c1cccc(SC(=O)N2CCOCC2)c1)c1cccc(Oc2ccccc2)c1 (protonated)
O=C([N-]c1cccc(SC(=O)N2CCOCC2)c1)c1cccc(Oc2ccccc2)c1 (3D coordinates assigned)
O=C([N-]c1cccc(SC(=O)N2CCOCC2)c1)c1cccc(Oc2ccccc2)c1 (nonaromatic ring conformer: 71.2037477603473 kcal/mol)

>  <smiles>  (2) 
O=C(Nc1cccc(SC(=O)N2CCOCC2)c1)c1cccc(Oc2ccccc2)c1

>  <score_type>  (2) 
oracle

>  <origin>  (2) 
adg

>  <m_score__min__energy>  (2) 
-11.300000000000001

>  <m_primary>  (2) 
energy

$$$$
2:0
     RDKit          3D

 61 65  0  0  0  0  0  0  0  0999 V2000
   57.8940   33.5080   45.7560 C   0  0  0  0  0  0  0  0  0  0  0  0
   59.1170   32.8720   46.1150 O   0  0  0  0  0  0  0  0  0  0  0  0
   59.2290   31.5390   46.5510 C   0  0  0  0  0  0  0  0  0  0  0  0
   58.2450   30.5740   46.2550 C   0  0  0  0  0  0  0  0  0  0  0  0
   58.3770   29.2630   46.7260 C   0  0  0  0  0  0  0  0  0  0  0  0
   59.4860   28.9010   47.4960 C   0  0  0  0  0  0  0  0  0  0  0  0
   60.4660   29.8490   47.7950 C   0  0  0  0  0  0  0  0  0  0  0  0
   60.3500   31.1670   47.3220 C   0  0  0  0  0  0  0  0  0  0  0  0
   61.3700   32.1280   47.6340 N   0  0  0  0  0  0  0  0  0  0  0  0
   62.7420   31.9340   47.1490 C   0  0  0  0  0  0  0  0  0  0  0  0
   63.7530   32.2340   48.2680 C   0  0  0  0  0  0  0  0  0  0  0  0
   63.3360   33.3780   49.0980 N   0  0  0  0  0  0  0  0  0  0  0  0
   63.8110   33.5050   50.4570 C   0  0  0  0  0  0  0  0  0  0  0  0
   63.1020   34.1030   51.3120 O   0  0  0  0  0  0  0  0  0  0  0  0
   65.0930   32.9170   50.9120 C   0  0  0  0  0  0  0  0  0  0  0  0
   66.2890   33.5080   50.4710 C   0  0  0  0  0  0  0  0  0  0  0  0
   67.5190   32.9060   50.7350 C   0  0  0  0  0  0  0  0  0  0  0  0
   67.5660   31.6850   51.4010 C   0  0  0  0  0  0  0  0  0  0  0  0
   66.3880   31.0790   51.8390 C   0  0  0  0  0  0  0  0  0  0  0  0
   65.1430   31.7100   51.6480 C   0  0  0  0  0  0  0  0  0  0  0  0
   63.9170   31.1160   52.1110 N   0  0  0  0  0  0  0  0  0  0  0  0
   63.1660   30.0160   51.5690 C   0  0  0  0  0  0  0  0  0  0  0  0
   63.7960   28.9740   51.2540 O   0  0  0  0  0  0  0  0  0  0  0  0
   61.6980   30.0290   51.3660 C   0  0  0  0  0  0  0  0  0  0  0  0
   60.9760   28.9340   50.9360 C   0  0  0  0  0  0  0  0  0  0  0  0
   59.6740   29.2440   50.8530 N   0  0  0  0  0  0  0  0  0  0  0  0
   59.5270   30.5410   51.2080 C   0  0  0  0  0  0  0  0  0  0  0  0
   58.2720   31.1600   51.2200 C   0  0  0  0  0  0  0  0  0  0  0  0
   57.2740   30.4690   50.8810 O   0  0  0  0  0  0  0  0  0  0  0  0
   58.0200   32.4800   51.5880 C   0  0  0  0  0  0  0  0  0  0  0  0
   58.9180   33.4660   51.9760 C   0  0  0  0  0  0  0  0  0  0  0  0
   60.3030   33.4110   52.0820 C   0  0  0  0  0  0  0  0  0  0  0  0
   61.1070   32.3430   51.8670 N   0  0  0  0  0  0  0  0  0  0  0  0
   60.7770   31.0680   51.5250 C   0  0  0  0  0  0  0  0  0  0  0  0
   62.2350   34.2250   48.6190 C   0  0  0  0  0  0  0  0  0  0  0  0
   61.0040   33.3510   48.3610 C   0  0  0  0  0  0  0  0  0  0  0  0
   57.3473   33.7923   46.6672 H   0  0  0  0  0  0  0  0  0  0  0  0
   58.1095   34.4083   45.1618 H   0  0  0  0  0  0  0  0  0  0  0  0
   57.2808   32.8146   45.1618 H   0  0  0  0  0  0  0  0  0  0  0  0
   57.3691   30.8529   45.6508 H   0  0  0  0  0  0  0  0  0  0  0  0
   57.6058   28.5151   46.4896 H   0  0  0  0  0  0  0  0  0  0  0  0
   59.5864   27.8700   47.8660 H   0  0  0  0  0  0  0  0  0  0  0  0
   61.3352   29.5622   48.4052 H   0  0  0  0  0  0  0  0  0  0  0  0
   62.8657   30.8922   46.8184 H   0  0  0  0  0  0  0  0  0  0  0  0
   62.9244   32.6210   46.3095 H   0  0  0  0  0  0  0  0  0  0  0  0
   63.8464   31.3454   48.9096 H   0  0  0  0  0  0  0  0  0  0  0  0
   64.7142   32.4886   47.7976 H   0  0  0  0  0  0  0  0  0  0  0  0
   66.2549   34.4548   49.9120 H   0  0  0  0  0  0  0  0  0  0  0  0
   68.4512   33.3959   50.4171 H   0  0  0  0  0  0  0  0  0  0  0  0
   68.5346   31.1963   51.5826 H   0  0  0  0  0  0  0  0  0  0  0  0
   66.4318   30.0997   52.3380 H   0  0  0  0  0  0  0  0  0  0  0  0
   61.4060   27.9503   50.6963 H   0  0  0  0  0  0  0  0  0  0  0  0
   58.9200   28.5810   50.5620 H   0  0  0  0  0  0  0  0  0  0  0  0
   56.9629   32.7834   51.5685 H   0  0  0  0  0  0  0  0  0  0  0  0
   58.4662   34.4340   52.2383 H   0  0  0  0  0  0  0  0  0  0  0  0
   60.8048   34.3450   52.3750 H   0  0  0  0  0  0  0  0  0  0  0  0
   62.1190   32.5450   51.9930 H   0  0  0  0  0  0  0  0  0  0  0  0
   61.9956   34.9826   49.3798 H   0  0  0  0  0  0  0  0  0  0  0  0
   62.5335   34.7279   47.6873 H   0  0  0  0  0  0  0  0  0  0  0  0
   60.5506   33.0748   49.3244 H   0  0  0  0  0  0  0  0  0  0  0  0
   60.2904   33.9223   47.7491 H   0  0  0  0  0  0  0  0  0  0  0  0
  1  2  1  0
  2  3  1  0
  3  4  2  0
  4  5  1  0
  5  6  2  0
  6  7  1  0
  7  8  2  0
  8  9  1  0
  9 10  1  0
 10 11  1  0
 11 12  1  0
 12 13  1  0
 13 14  2  0
 13 15  1  0
 15 16  2  0
 16 17  1  0
 17 18  2  0
 18 19  1  0
 19 20  2  0
 20 21  1  0
 21 22  1  0
 22 23  2  0
 22 24  1  0
 24 25  2  0
 25 26  1  0
 26 27  1  0
 27 28  1  0
 28 29  2  0
 28 30  1  0
 30 31  2  0
 31 32  1  0
 32 33  2  0
 33 34  1  0
 12 35  1  0
 35 36  1  0
  8  3  1  0
 36  9  1  0
 20 15  1  0
 34 24  1  0
 34 27  2  0
  1 37  1  0
  1 38  1  0
  1 39  1  0
  4 40  1  0
  5 41  1  0
  6 42  1  0
  7 43  1  0
 10 44  1  0
 10 45  1  0
 11 46  1  0
 11 47  1  0
 16 48  1  0
 17 49  1  0
 18 50  1  0
 19 51  1  0
 25 52  1  0
 26 53  1  0
 30 54  1  0
 31 55  1  0
 32 56  1  0
 33 57  1  0
 35 58  1  0
 35 59  1  0
 36 60  1  0
 36 61  1  0
M  CHG  2  21  -1  33   1
M  END
>  <UniqueID>  (3) 
3

>  <SMILES>  (3) 
COc1ccccc1N1CCN(C(=O)c2ccccc2[N-]C(=O)c2c[nH]c3c(=O)ccc[nH+]c23)CC1

>  <Energy>  (3) 
132.1977068224728

>  <Genealogy>  (3) 
COc1ccccc1N1CCN(C(=O)c2ccccc2[N-]C(=O)c2c[nH]c3c(=O)ccc[nH+]c23)CC1 (protonated)
COc1ccccc1N1CCN(C(=O)c2ccccc2[N-]C(=O)c2c[nH]c3c(=O)ccc[nH+]c23)CC1 (3D coordinates assigned)
COc1ccccc1N1CCN(C(=O)c2ccccc2[N-]C(=O)c2c[nH]c3c(=O)ccc[nH+]c23)CC1 (nonaromatic ring conformer: 132.1977068224728 kcal/mol)

>  <smiles>  (3) 
COc1ccccc1N1CCN(C(=O)c2ccccc2NC(=O)c2c[nH]c3c(=O)cccnc23)CC1

>  <score_type>  (3) 
oracle

>  <origin>  (3) 
adg

>  <m_score__min__energy>  (3) 
-9.6400000000000006

>  <m_primary>  (3) 
energy

$$$$
3:0
     RDKit          3D

 54 57  0  0  0  0  0  0  0  0999 V2000
   61.4519   26.5328   49.2406 H   0  0  0  0  0  0  0  0  0  0  0  0
   60.7700   27.2450   48.7530 C   0  0  0  0  0  0  0  0  0  0  0  0
   60.3850   27.0420   47.4260 C   0  0  0  0  0  0  0  0  0  0  0  0
   60.7587   26.1663   46.8751 H   0  0  0  0  0  0  0  0  0  0  0  0
   59.5200   27.9540   46.7900 C   0  0  0  0  0  0  0  0  0  0  0  0
   59.1140   27.8110   45.4520 O   0  0  0  0  0  0  0  0  0  0  0  0
   57.7680   27.6330   45.0110 C   0  0  0  0  0  0  0  0  0  0  0  0
   57.7680   27.1082   44.0442 H   0  0  0  0  0  0  0  0  0  0  0  0
   57.2192   27.0404   45.7577 H   0  0  0  0  0  0  0  0  0  0  0  0
   57.1010   28.9610   44.8530 C   0  0  0  0  0  0  0  0  0  0  0  0
   55.7640   29.1400   44.8460 N   0  0  0  0  0  0  0  0  0  0  0  0
   55.5620   30.4280   44.6210 N   0  0  0  0  0  0  0  0  0  0  0  0
   56.7860   30.9780   44.4960 C   0  0  0  0  0  0  0  0  0  0  0  0
   57.0090   32.2370   44.2620 N   0  0  0  0  0  0  0  0  0  0  0  0
   57.4860   33.1720   45.2410 C   0  0  0  0  0  0  0  0  0  0  0  0
   56.6930   34.0400   45.6940 O   0  0  0  0  0  0  0  0  0  0  0  0
   58.8720   33.1080   45.7570 C   0  0  0  0  0  0  0  0  0  0  0  0
   59.6690   34.2640   45.7880 C   0  0  0  0  0  0  0  0  0  0  0  0
   59.2838   35.2050   45.3684 H   0  0  0  0  0  0  0  0  0  0  0  0
   60.9470   34.2260   46.3480 C   0  0  0  0  0  0  0  0  0  0  0  0
   61.5667   35.1347   46.3611 H   0  0  0  0  0  0  0  0  0  0  0  0
   61.4430   33.0360   46.8930 C   0  0  0  0  0  0  0  0  0  0  0  0
   63.0030   33.0260   47.7180 S   0  0  0  0  0  0  0  0  0  0  0  0
   63.8120   34.2080   47.2620 O   0  0  0  0  0  0  0  0  0  0  0  0
   63.7530   31.7760   47.3460 O   0  0  0  0  0  0  0  0  0  0  0  0
   62.8070   33.0920   49.4570 N   0  0  0  0  0  0  0  0  0  0  0  0
   63.7530   33.3090   49.8510 H   0  0  0  0  0  0  0  0  0  0  0  0
   62.3930   31.7690   49.9770 C   0  0  0  0  0  0  0  0  0  0  0  0
   61.7020   31.3001   49.2610 H   0  0  0  0  0  0  0  0  0  0  0  0
   63.2895   31.1453   50.1082 H   0  0  0  0  0  0  0  0  0  0  0  0
   61.6890   31.9130   51.3370 C   0  0  0  0  0  0  0  0  0  0  0  0
   61.4177   30.9087   51.6945 H   0  0  0  0  0  0  0  0  0  0  0  0
   62.3942   32.4246   52.0086 H   0  0  0  0  0  0  0  0  0  0  0  0
   60.5080   32.7080   51.2950 O   0  0  0  0  0  0  0  0  0  0  0  0
   60.4880   33.6460   50.2280 C   0  0  0  0  0  0  0  0  0  0  0  0
   60.0582   33.1571   49.3413 H   0  0  0  0  0  0  0  0  0  0  0  0
   59.8862   34.5047   50.5602 H   0  0  0  0  0  0  0  0  0  0  0  0
   61.8850   34.1820   49.8620 C   0  0  0  0  0  0  0  0  0  0  0  0
   61.7861   34.8924   49.0280 H   0  0  0  0  0  0  0  0  0  0  0  0
   62.3063   34.6719   50.7522 H   0  0  0  0  0  0  0  0  0  0  0  0
   60.6720   31.8670   46.8180 C   0  0  0  0  0  0  0  0  0  0  0  0
   61.0720   30.9203   47.2102 H   0  0  0  0  0  0  0  0  0  0  0  0
   59.3960   31.9010   46.2460 C   0  0  0  0  0  0  0  0  0  0  0  0
   58.8008   30.9783   46.1791 H   0  0  0  0  0  0  0  0  0  0  0  0
   57.7380   30.0900   44.6440 O   0  0  0  0  0  0  0  0  0  0  0  0
   59.0370   29.0520   47.5130 C   0  0  0  0  0  0  0  0  0  0  0  0
   58.3592   29.7683   47.0256 H   0  0  0  0  0  0  0  0  0  0  0  0
   59.4080   29.2490   48.8530 C   0  0  0  0  0  0  0  0  0  0  0  0
   58.9230   30.4550   49.6020 C   0  0  0  0  0  0  0  0  0  0  0  0
   58.9977   30.2694   50.6837 H   0  0  0  0  0  0  0  0  0  0  0  0
   59.5412   31.3251   49.3358 H   0  0  0  0  0  0  0  0  0  0  0  0
   57.8746   30.6548   49.3358 H   0  0  0  0  0  0  0  0  0  0  0  0
   60.2930   28.3480   49.4630 C   0  0  0  0  0  0  0  0  0  0  0  0
   60.6118   28.5109   50.5031 H   0  0  0  0  0  0  0  0  0  0  0  0
  1  2  1  0
  2  3  2  0
  3  4  1  0
  3  5  1  0
  5  6  1  0
  6  7  1  0
  7  8  1  0
  7  9  1  0
  7 10  1  0
 10 11  2  0
 11 12  1  0
 12 13  1  0
 13 14  2  0
 14 15  1  0
 15 16  2  0
 15 17  1  0
 17 18  2  0
 18 19  1  0
 18 20  1  0
 20 21  1  0
 20 22  2  0
 22 23  1  0
 23 24  2  0
 23 25  2  0
 23 26  1  0
 26 27  1  0
 26 28  1  0
 28 29  1  0
 28 30  1  0
 28 31  1  0
 31 32  1  0
 31 33  1  0
 31 34  1  0
 34 35  1  0
 35 36  1  0
 35 37  1  0
 35 38  1  0
 38 39  1  0
 38 40  1  0
 22 41  1  0
 41 42  1  0
 41 43  2  0
 43 44  1  0
 13 45  1  0
  5 46  2  0
 46 47  1  0
 46 48  1  0
 48 49  1  0
 49 50  1  0
 49 51  1  0
 49 52  1  0
 48 53  2  0
 53 54  1  0
 53  2  1  0
 45 10  1  0
 43 17  1  0
 38 26  1  0
M  CHG  2  12  -1  26   1
M  END
>  <UniqueID>  (4) 
4

>  <SMILES>  (4) 
Cc1cccc(OCc2n[n-]/c(=N\C(=O)c3ccc(S(=O)(=O)[NH+]4CCOCC4)cc3)o2)c1

>  <Energy>  (4) 
108.99077528178533

>  <Genealogy>  (4) 
Cc1cccc(OCc2n[n-]c(=NC(=O)c3ccc(S(=O)(=O)[NH+]4CCOCC4)cc3)o2)c1 (protonated)
Cc1cccc(OCc2n[n-]/c(=N\C(=O)c3ccc(S(=O)(=O)[NH+]4CCOCC4)cc3)o2)c1 (cis-trans isomerization)
Cc1cccc(OCc2n[n-]/c(=N\C(=O)c3ccc(S(=O)(=O)[NH+]4CCOCC4)cc3)o2)c1 (3D coordinates assigned)
Cc1cccc(OCc2n[n-]/c(=N\C(=O)c3ccc(S(=O)(=O)[NH+]4CCOCC4)cc3)o2)c1 (nonaromatic ring conformer: 108.99077528178533 kcal/mol)

>  <smiles>  (4) 
Cc1cccc(OCc2n[nH]c(=NC(=O)c3ccc(S(=O)(=O)N4CCOCC4)cc3)o2)c1

>  <score_type>  (4) 
oracle

>  <origin>  (4) 
adg

>  <m_score__min__energy>  (4) 
-9.2300000000000004

>  <m_primary>  (4) 
energy

$$$$
4:0
     RDKit          3D

 34 35  0  0  0  0  0  0  0  0999 V2000
   58.5991   34.9777   45.8253 H   0  0  0  0  0  0  0  0  0  0  0  0
   58.3740   33.9130   45.6650 C   0  0  0  0  0  0  0  0  0  0  0  0
   57.8910   33.4810   44.4310 C   0  0  0  0  0  0  0  0  0  0  0  0
   57.7402   34.2043   43.6161 H   0  0  0  0  0  0  0  0  0  0  0  0
   57.5980   32.1290   44.2280 C   0  0  0  0  0  0  0  0  0  0  0  0
   57.2232   31.7953   43.2491 H   0  0  0  0  0  0  0  0  0  0  0  0
   57.7770   31.1890   45.2620 C   0  0  0  0  0  0  0  0  0  0  0  0
   57.4290   29.7620   45.0060 C   0  0  0  0  0  0  0  0  0  0  0  0
   56.2530   29.3700   45.2340 O   0  0  0  0  0  0  0  0  0  0  0  0
   58.4240   28.7470   44.5090 C   0  0  0  0  0  0  0  0  0  0  0  0
   58.4906   28.8225   43.4136 H   0  0  0  0  0  0  0  0  0  0  0  0
   58.0759   27.7510   44.8201 H   0  0  0  0  0  0  0  0  0  0  0  0
   60.0920   29.0100   45.2220 S   0  0  0  0  0  0  0  0  0  0  0  0
   60.1540   27.4880   46.2350 C   0  0  0  0  0  0  0  0  0  0  0  0
   60.7911   27.6638   47.1143 H   0  0  0  0  0  0  0  0  0  0  0  0
   60.5673   26.6708   45.6256 H   0  0  0  0  0  0  0  0  0  0  0  0
   58.7740   27.1050   46.6920 C   0  0  0  0  0  0  0  0  0  0  0  0
   58.1320   27.8960   47.4330 O   0  0  0  0  0  0  0  0  0  0  0  0
   58.1310   25.9050   46.2410 N   0  0  0  0  0  0  0  0  0  0  0  0
   56.8570   25.7370   46.0310 C   0  0  0  0  0  0  0  0  0  0  0  0
   56.2140   24.5780   45.6310 C   0  0  0  0  0  0  0  0  0  0  0  0
   56.6550   23.6007   45.3852 H   0  0  0  0  0  0  0  0  0  0  0  0
   54.8820   24.9490   45.6160 C   0  0  0  0  0  0  0  0  0  0  0  0
   53.7280   24.0690   45.2720 C   0  0  0  0  0  0  0  0  0  0  0  0
   53.2541   23.7076   46.1966 H   0  0  0  0  0  0  0  0  0  0  0  0
   52.9948   24.6394   44.6829 H   0  0  0  0  0  0  0  0  0  0  0  0
   54.0840   23.2110   44.6829 H   0  0  0  0  0  0  0  0  0  0  0  0
   54.7750   26.2060   45.9880 O   0  0  0  0  0  0  0  0  0  0  0  0
   55.9480   26.7030   46.2470 N   0  0  0  0  0  0  0  0  0  0  0  0
   56.1290   27.6800   46.5670 H   0  0  0  0  0  0  0  0  0  0  0  0
   58.2810   31.6400   46.5050 C   0  0  0  0  0  0  0  0  0  0  0  0
   58.5270   30.7830   47.5250 F   0  0  0  0  0  0  0  0  0  0  0  0
   58.5720   32.9950   46.6970 C   0  0  0  0  0  0  0  0  0  0  0  0
   58.9593   33.3387   47.6675 H   0  0  0  0  0  0  0  0  0  0  0  0
  1  2  1  0
  2  3  2  0
  3  4  1  0
  3  5  1  0
  5  6  1  0
  5  7  2  0
  7  8  1  0
  8  9  2  0
  8 10  1  0
 10 11  1  0
 10 12  1  0
 10 13  1  0
 13 14  1  0
 14 15  1  0
 14 16  1  0
 14 17  1  0
 17 18  2  0
 17 19  1  0
 19 20  2  0
 20 21  1  0
 21 22  1  0
 21 23  2  0
 23 24  1  0
 24 25  1  0
 24 26  1  0
 24 27  1  0
 23 28  1  0
 28 29  1  0
 29 30  1  0
  7 31  1  0
 31 32  1  0
 31 33  2  0
 33 34  1  0
 33  2  1  0
 29 20  1  0
M  END
>  <UniqueID>  (5) 
5

>  <SMILES>  (5) 
Cc1c/c(=N\C(=O)CSCC(=O)c2ccccc2F)[nH]o1

>  <Energy>  (5) 
70.55777631791865

>  <Genealogy>  (5) 
Cc1c/c(=N\C(=O)CSCC(=O)c2ccccc2F)[nH]o1 (cis-trans isomerization)
Cc1c/c(=N\C(=O)CSCC(=O)c2ccccc2F)[nH]o1 (3D coordinates assigned)
Cc1c/c(=N\C(=O)CSCC(=O)c2ccccc2F)[nH]o1 (optimized conformer: 70.55777631791865 kcal/mol)

>  <smiles>  (5) 
Cc1cc(=NC(=O)CSCC(=O)c2ccccc2F)[nH]o1

>  <score_type>  (5) 
oracle

>  <origin>  (5) 
adg

>  <m_score__min__energy>  (5) 
-7.5099999999999998

>  <m_primary>  (5) 
energy

$$$$
5:0
     RDKit          3D

 49 51  0  0  0  0  0  0  0  0999 V2000
   57.0090   21.9360   44.5510 C   0  0  0  0  0  0  0  0  0  0  0  0
   55.9920   22.9960   44.5210 N   0  0  0  0  0  0  0  0  0  0  0  0
   56.2990   23.9520   43.4490 C   0  0  0  0  0  0  0  0  0  0  0  0
   55.9710   23.8320   46.0560 S   0  0  0  0  0  0  0  0  0  0  0  0
   56.4560   22.9120   47.1430 O   0  0  0  0  0  0  0  0  0  0  0  0
   54.5650   24.2660   46.3690 O   0  0  0  0  0  0  0  0  0  0  0  0
   57.0420   25.2370   46.0040 C   0  0  0  0  0  0  0  0  0  0  0  0
   58.4300   25.0460   45.9920 C   0  0  0  0  0  0  0  0  0  0  0  0
   59.2930   26.1420   45.9420 C   0  0  0  0  0  0  0  0  0  0  0  0
   58.7800   27.4400   45.9380 C   0  0  0  0  0  0  0  0  0  0  0  0
   59.6520   28.5210   45.8900 O   0  0  0  0  0  0  0  0  0  0  0  0
   57.3960   27.6530   46.0000 C   0  0  0  0  0  0  0  0  0  0  0  0
   56.9040   29.0000   45.9990 N   0  0  0  0  0  0  0  0  0  0  0  0
   56.1630   29.6150   44.9380 C   0  0  0  0  0  0  0  0  0  0  0  0
   55.1140   29.0710   44.4990 O   0  0  0  0  0  0  0  0  0  0  0  0
   56.6040   30.8460   44.3560 N   0  0  0  0  0  0  0  0  0  0  0  0
   57.4020   31.8500   44.9970 C   0  0  0  0  0  0  0  0  0  0  0  0
   58.5120   31.5200   45.7940 C   0  0  0  0  0  0  0  0  0  0  0  0
   59.2570   32.5260   46.4180 C   0  0  0  0  0  0  0  0  0  0  0  0
   58.8930   33.8780   46.2750 C   0  0  0  0  0  0  0  0  0  0  0  0
   59.6820   34.9430   46.9380 C   0  0  0  0  0  0  0  0  0  0  0  0
   59.7720   36.0820   46.4050 O   0  0  0  0  0  0  0  0  0  0  0  0
   60.3840   34.6610   48.1570 N   0  0  0  0  0  0  0  0  0  0  0  0
   61.6590   34.0150   48.2860 C   0  0  0  0  0  0  0  0  0  0  0  0
   62.4300   33.6400   47.1730 C   0  0  0  0  0  0  0  0  0  0  0  0
   63.6750   33.0350   47.3580 C   0  0  0  0  0  0  0  0  0  0  0  0
   64.1460   32.8260   48.6550 C   0  0  0  0  0  0  0  0  0  0  0  0
   63.4010   33.2160   49.7220 N   0  0  0  0  0  0  0  0  0  0  0  0
   62.1850   33.8060   49.5660 C   0  0  0  0  0  0  0  0  0  0  0  0
   57.7630   34.1990   45.5020 C   0  0  0  0  0  0  0  0  0  0  0  0
   57.0230   33.1910   44.8770 C   0  0  0  0  0  0  0  0  0  0  0  0
   56.5210   26.5450   46.0050 C   0  0  0  0  0  0  0  0  0  0  0  0
   55.1440   26.7440   45.9870 O   0  0  0  0  0  0  0  0  0  0  0  0
   57.2481   21.6868   45.5954 H   0  0  0  0  0  0  0  0  0  0  0  0
   56.6220   21.0420   44.0400 H   0  0  0  0  0  0  0  0  0  0  0  0
   57.9182   22.2856   44.0400 H   0  0  0  0  0  0  0  0  0  0  0  0
   56.6071   24.9113   43.8904 H   0  0  0  0  0  0  0  0  0  0  0  0
   57.1151   23.5557   42.8269 H   0  0  0  0  0  0  0  0  0  0  0  0
   55.4048   24.1049   42.8269 H   0  0  0  0  0  0  0  0  0  0  0  0
   58.8420   24.0265   46.0222 H   0  0  0  0  0  0  0  0  0  0  0  0
   60.3807   25.9822   45.9056 H   0  0  0  0  0  0  0  0  0  0  0  0
   58.7960   30.4657   45.9275 H   0  0  0  0  0  0  0  0  0  0  0  0
   60.1343   32.2584   47.0253 H   0  0  0  0  0  0  0  0  0  0  0  0
   62.0530   33.8229   46.1559 H   0  0  0  0  0  0  0  0  0  0  0  0
   64.2777   32.7266   46.4911 H   0  0  0  0  0  0  0  0  0  0  0  0
   65.1223   32.3446   48.8136 H   0  0  0  0  0  0  0  0  0  0  0  0
   61.6121   34.1205   50.4508 H   0  0  0  0  0  0  0  0  0  0  0  0
   57.4594   35.2501   45.3884 H   0  0  0  0  0  0  0  0  0  0  0  0
   56.1342   33.4550   44.2852 H   0  0  0  0  0  0  0  0  0  0  0  0
  1  2  1  0
  2  3  1  0
  2  4  1  0
  4  5  2  0
  4  6  2  0
  4  7  1  0
  7  8  2  0
  8  9  1  0
  9 10  2  0
 10 11  1  0
 10 12  1  0
 12 13  1  0
 13 14  1  0
 14 15  2  0
 14 16  1  0
 16 17  1  0
 17 18  2  0
 18 19  1  0
 19 20  2  0
 20 21  1  0
 21 22  2  0
 21 23  1  0
 23 24  1  0
 24 25  2  0
 25 26  1  0
 26 27  2  0
 27 28  1  0
 28 29  2  0
 20 30  1  0
 30 31  2  0
 12 32  2  0
 32 33  1  0
 32  7  1  0
 31 17  1  0
 29 24  1  0
  1 34  1  0
  1 35  1  0
  1 36  1  0
  3 37  1  0
  3 38  1  0
  3 39  1  0
  8 40  1  0
  9 41  1  0
 18 42  1  0
 19 43  1  0
 25 44  1  0
 26 45  1  0
 27 46  1  0
 29 47  1  0
 30 48  1  0
 31 49  1  0
M  CHG  5  11  -1  13  -1  16  -1  23  -1  33  -1
M  END
>  <UniqueID>  (6) 
6

>  <SMILES>  (6) 
CN(C)S(=O)(=O)c1ccc([O-])c([N-]C(=O)[N-]c2ccc(C(=O)[N-]c3cccnc3)cc2)c1[O-]

>  <Energy>  (6) 
65.58084514658317

>  <Genealogy>  (6) 
CN(C)S(=O)(=O)c1ccc([O-])c([N-]C(=O)[N-]c2ccc(C(=O)[N-]c3cccnc3)cc2)c1[O-] (protonated)
CN(C)S(=O)(=O)c1ccc([O-])c([N-]C(=O)[N-]c2ccc(C(=O)[N-]c3cccnc3)cc2)c1[O-] (3D coordinates assigned)
CN(C)S(=O)(=O)c1ccc([O-])c([N-]C(=O)[N-]c2ccc(C(=O)[N-]c3cccnc3)cc2)c1[O-] (optimized conformer: 65.58084514658317 kcal/mol)

>  <smiles>  (6) 
CN(C)S(=O)(=O)c1ccc(O)c(NC(=O)Nc2ccc(C(=O)Nc3cccnc3)cc2)c1O

>  <score_type>  (6) 
oracle

>  <origin>  (6) 
adg

>  <m_score__min__energy>  (6) 
-18.489999999999998

>  <m_primary>  (6) 
energy

$$$$
6:0
     RDKit          3D

 22 23  0  0  0  0  0  0  0  0999 V2000
   59.2430   33.4770   48.4710 C   0  0  0  0  0  0  0  0  0  0  0  0
   59.5610   32.8300   47.5050 C   0  0  0  0  0  0  0  0  0  0  0  0
   59.9500   32.0420   46.3290 C   0  0  0  0  0  0  0  0  0  0  0  0
   58.8360   31.1590   45.9070 N   0  0  0  0  0  0  0  0  0  0  0  0
   57.7850   31.6750   45.1760 C   0  0  0  0  0  0  0  0  0  0  0  0
   57.7630   33.2230   44.6180 S   0  0  0  0  0  0  0  0  0  0  0  0
   56.7210   30.9010   44.8670 N   0  0  0  0  0  0  0  0  0  0  0  0
   56.6370   29.6030   45.2250 C   0  0  0  0  0  0  0  0  0  0  0  0
   55.5980   28.9650   44.9120 O   0  0  0  0  0  0  0  0  0  0  0  0
   57.7040   28.9960   45.9130 C   0  0  0  0  0  0  0  0  0  0  0  0
   57.7000   27.6210   46.2880 C   0  0  0  0  0  0  0  0  0  0  0  0
   56.3520   26.5200   45.9900 Cl  0  0  0  0  0  0  0  0  0  0  0  0
   58.8100   27.0690   46.9270 C   0  0  0  0  0  0  0  0  0  0  0  0
   59.9300   27.8440   47.1940 C   0  0  0  0  0  0  0  0  0  0  0  0
   59.9510   29.1910   46.8460 C   0  0  0  0  0  0  0  0  0  0  0  0
   58.8370   29.8080   46.2250 C   0  0  0  0  0  0  0  0  0  0  0  0
   58.9528   34.0674   49.3526 H   0  0  0  0  0  0  0  0  0  0  0  0
   60.2047   32.7236   45.5040 H   0  0  0  0  0  0  0  0  0  0  0  0
   60.8198   31.4203   46.5878 H   0  0  0  0  0  0  0  0  0  0  0  0
   58.7977   26.0094   47.2222 H   0  0  0  0  0  0  0  0  0  0  0  0
   60.8051   27.3912   47.6830 H   0  0  0  0  0  0  0  0  0  0  0  0
   60.8501   29.7886   47.0572 H   0  0  0  0  0  0  0  0  0  0  0  0
  1  2  3  0
  2  3  1  0
  3  4  1  0
  4  5  1  0
  5  6  2  0
  5  7  1  0
  7  8  1  0
  8  9  2  0
  8 10  1  0
 10 11  2  0
 11 12  1  0
 11 13  1  0
 13 14  2  0
 14 15  1  0
 15 16  2  0
 16  4  1  0
 16 10  1  0
  1 17  1  0
  3 18  1  0
  3 19  1  0
 13 20  1  0
 14 21  1  0
 15 22  1  0
M  CHG  1   7  -1
M  END
>  <UniqueID>  (7) 
7

>  <SMILES>  (7) 
C#CCn1c(=S)[n-]c(=O)c2c(Cl)cccc21

>  <Energy>  (7) 
39.63658276594762

>  <Genealogy>  (7) 
C#CCn1c(=S)[n-]c(=O)c2c(Cl)cccc21 (protonated)
C#CCn1c(=S)[n-]c(=O)c2c(Cl)cccc21 (3D coordinates assigned)
C#CCn1c(=S)[n-]c(=O)c2c(Cl)cccc21 (optimized conformer: 39.63658276594762 kcal/mol)

>  <smiles>  (7) 
C#CCn1c(=S)[nH]c(=O)c2c(Cl)cccc21

>  <score_type>  (7) 
oracle

>  <origin>  (7) 
adg

>  <m_score__min__energy>  (7) 
-7.46

>  <m_primary>  (7) 
energy

$$$$
7:0
     RDKit          3D

 69 74  0  0  0  0  0  0  0  0999 V2000
   49.9590   32.7110   51.6180 H   0  0  0  0  0  0  0  0  0  0  0  0
   50.4980   31.9470   52.0950 N   0  0  0  0  0  0  0  0  0  0  0  0
   51.7770   31.4830   51.0270 S   0  0  0  0  0  0  0  0  0  0  0  0
   52.5100   32.7050   50.5490 O   0  0  0  0  0  0  0  0  0  0  0  0
   51.1890   30.7770   49.8390 O   0  0  0  0  0  0  0  0  0  0  0  0
   52.8870   30.4140   51.8780 C   0  0  0  0  0  0  0  0  0  0  0  0
   54.2290   30.7780   52.0650 C   0  0  0  0  0  0  0  0  0  0  0  0
   54.5923   31.7392   51.6726 H   0  0  0  0  0  0  0  0  0  0  0  0
   55.1100   29.9300   52.7460 C   0  0  0  0  0  0  0  0  0  0  0  0
   56.4550   30.3770   52.9800 N   0  0  0  0  0  0  0  0  0  0  0  0
   57.0480   31.3830   52.4050 C   0  0  0  0  0  0  0  0  0  0  0  0
   57.4440   31.3260   51.1020 N   0  0  0  0  0  0  0  0  0  0  0  0
   58.1540   32.3300   50.5210 C   0  0  0  0  0  0  0  0  0  0  0  0
   58.5380   32.1680   49.1760 O   0  0  0  0  0  0  0  0  0  0  0  0
   58.7090   30.9500   48.4950 C   0  0  0  0  0  0  0  0  0  0  0  0
   59.1520   29.7970   49.1630 C   0  0  0  0  0  0  0  0  0  0  0  0
   59.4292   29.8541   50.2260 H   0  0  0  0  0  0  0  0  0  0  0  0
   59.2430   28.5800   48.4880 C   0  0  0  0  0  0  0  0  0  0  0  0
   59.5647   27.6789   49.0307 H   0  0  0  0  0  0  0  0  0  0  0  0
   58.9290   28.4940   47.1270 C   0  0  0  0  0  0  0  0  0  0  0  0
   58.9100   27.2020   46.5050 N   0  0  0  0  0  0  0  0  0  0  0  0
   58.1410   26.9970   45.8290 H   0  0  0  0  0  0  0  0  0  0  0  0
   59.9820   26.2630   46.6840 C   0  0  0  0  0  0  0  0  0  0  0  0
   60.9300   26.5340   47.4700 O   0  0  0  0  0  0  0  0  0  0  0  0
   59.9610   24.9760   46.0490 N   0  0  0  0  0  0  0  0  0  0  0  0
   58.9140   24.3440   45.6000 C   0  0  0  0  0  0  0  0  0  0  0  0
   57.7530   25.0070   45.3240 N   0  0  0  0  0  0  0  0  0  0  0  0
   56.6640   24.3710   44.8140 C   0  0  0  0  0  0  0  0  0  0  0  0
   55.7444   24.9376   44.6060 H   0  0  0  0  0  0  0  0  0  0  0  0
   56.7120   22.9990   44.5540 C   0  0  0  0  0  0  0  0  0  0  0  0
   55.8332   22.4790   44.1451 H   0  0  0  0  0  0  0  0  0  0  0  0
   57.8870   22.2970   44.8190 C   0  0  0  0  0  0  0  0  0  0  0  0
   57.9407   21.2172   44.6164 H   0  0  0  0  0  0  0  0  0  0  0  0
   58.9960   22.9660   45.3420 C   0  0  0  0  0  0  0  0  0  0  0  0
   60.1660   22.2590   45.5960 O   0  0  0  0  0  0  0  0  0  0  0  0
   58.6150   29.6690   46.4080 C   0  0  0  0  0  0  0  0  0  0  0  0
   58.4400   29.6490   45.0110 C   0  0  0  0  0  0  0  0  0  0  0  0
   58.5520   28.7038   44.4596 H   0  0  0  0  0  0  0  0  0  0  0  0
   58.1250   30.8220   44.3210 C   0  0  0  0  0  0  0  0  0  0  0  0
   57.9946   30.7962   43.2291 H   0  0  0  0  0  0  0  0  0  0  0  0
   57.9750   32.0250   45.0090 C   0  0  0  0  0  0  0  0  0  0  0  0
   57.7114   32.9409   44.4599 H   0  0  0  0  0  0  0  0  0  0  0  0
   58.1580   32.0720   46.3920 C   0  0  0  0  0  0  0  0  0  0  0  0
   58.0415   33.0256   46.9278 H   0  0  0  0  0  0  0  0  0  0  0  0
   58.4910   30.9040   47.1040 C   0  0  0  0  0  0  0  0  0  0  0  0
   58.5300   33.4340   51.3060 C   0  0  0  0  0  0  0  0  0  0  0  0
   59.1529   34.2367   50.8845 H   0  0  0  0  0  0  0  0  0  0  0  0
   58.0960   33.4900   52.6320 C   0  0  0  0  0  0  0  0  0  0  0  0
   58.3415   34.3630   53.2546 H   0  0  0  0  0  0  0  0  0  0  0  0
   57.3710   32.4670   53.1530 N   0  0  0  0  0  0  0  0  0  0  0  0
   54.6580   28.6690   53.1760 C   0  0  0  0  0  0  0  0  0  0  0  0
   55.3587   27.9706   53.6569 H   0  0  0  0  0  0  0  0  0  0  0  0
   53.3180   28.2990   52.9940 C   0  0  0  0  0  0  0  0  0  0  0  0
   52.8680   27.0120   53.4340 N   0  0  0  0  0  0  0  0  0  0  0  0
   51.5030   26.5790   53.1150 C   0  0  0  0  0  0  0  0  0  0  0  0
   50.8130   26.9400   53.8919 H   0  0  0  0  0  0  0  0  0  0  0  0
   51.2062   26.9921   52.1397 H   0  0  0  0  0  0  0  0  0  0  0  0
   51.4520   25.0500   53.0580 C   0  0  0  0  0  0  0  0  0  0  0  0
   50.4049   24.7277   52.9596 H   0  0  0  0  0  0  0  0  0  0  0  0
   52.0406   24.7099   52.1932 H   0  0  0  0  0  0  0  0  0  0  0  0
   52.0040   24.4830   54.2340 O   0  0  0  0  0  0  0  0  0  0  0  0
   53.3810   24.8020   54.3310 C   0  0  0  0  0  0  0  0  0  0  0  0
   53.8129   24.2793   55.1971 H   0  0  0  0  0  0  0  0  0  0  0  0
   53.8841   24.4855   53.4054 H   0  0  0  0  0  0  0  0  0  0  0  0
   53.5740   26.3080   54.5060 C   0  0  0  0  0  0  0  0  0  0  0  0
   53.1690   26.6200   55.4800 H   0  0  0  0  0  0  0  0  0  0  0  0
   54.6461   26.5504   54.4636 H   0  0  0  0  0  0  0  0  0  0  0  0
   52.4340   29.1790   52.3540 C   0  0  0  0  0  0  0  0  0  0  0  0
   51.3786   28.8969   52.2254 H   0  0  0  0  0  0  0  0  0  0  0  0
  1  2  1  0
  2  3  1  0
  3  4  2  0
  3  5  2  0
  3  6  1  0
  6  7  2  0
  7  8  1  0
  7  9  1  0
  9 10  1  0
 10 11  2  0
 11 12  1  0
 12 13  2  0
 13 14  1  0
 14 15  1  0
 15 16  2  0
 16 17  1  0
 16 18  1  0
 18 19  1  0
 18 20  2  0
 20 21  1  0
 21 22  1  0
 21 23  1  0
 23 24  2  0
 23 25  1  0
 25 26  2  3
 26 27  1  0
 27 28  1  0
 28 29  1  0
 28 30  2  0
 30 31  1  0
 30 32  1  0
 32 33  1  0
 32 34  2  0
 34 35  1  0
 20 36  1  0
 36 37  2  0
 37 38  1  0
 37 39  1  0
 39 40  1  0
 39 41  2  0
 41 42  1  0
 41 43  1  0
 43 44  1  0
 43 45  2  0
 13 46  1  0
 46 47  1  0
 46 48  2  0
 48 49  1  0
 48 50  1  0
  9 51  2  0
 51 52  1  0
 51 53  1  0
 53 54  1  0
 54 55  1  0
 55 56  1  0
 55 57  1  0
 55 58  1  0
 58 59  1  0
 58 60  1  0
 58 61  1  0
 61 62  1  0
 62 63  1  0
 62 64  1  0
 62 65  1  0
 65 66  1  0
 65 67  1  0
 53 68  2  0
 68 69  1  0
 68  6  1  0
 50 11  1  0
 65 54  1  0
 45 15  1  0
 34 26  1  0
 45 36  1  0
M  CHG  4   2  -1  27  -1  35  -1  50  -1
M  END
>  <UniqueID>  (8) 
8

>  <SMILES>  (8) 
[NH-]S(=O)(=O)c1cc(/N=c2\nc(Oc3ccc(NC(=O)N=c4[n-]cccc4[O-])c4ccccc34)cc[n-]2)cc(N2CCOCC2)c1

>  <Energy>  (8) 
117.16295895761178

>  <Genealogy>  (8) 
[NH-]S(=O)(=O)c1cc(N=c2nc(Oc3ccc(NC(=O)N=c4[n-]cccc4[O-])c4ccccc34)cc[n-]2)cc(N2CCOCC2)c1 (protonated)
[NH-]S(=O)(=O)c1cc(/N=c2\nc(Oc3ccc(NC(=O)N=c4[n-]cccc4[O-])c4ccccc34)cc[n-]2)cc(N2CCOCC2)c1 (cis-trans isomerization)
[NH-]S(=O)(=O)c1cc(/N=c2\nc(Oc3ccc(NC(=O)N=c4[n-]cccc4[O-])c4ccccc34)cc[n-]2)cc(N2CCOCC2)c1 (3D coordinates assigned)
[NH-]S(=O)(=O)c1cc(/N=c2\nc(Oc3ccc(NC(=O)N=c4[n-]cccc4[O-])c4ccccc34)cc[n-]2)cc(N2CCOCC2)c1 (nonaromatic ring conformer: 117.16295895761178 kcal/mol)

>  <smiles>  (8) 
NS(=O)(=O)c1cc(N=c2nc(Oc3ccc(NC(=O)N=c4[nH]cccc4O)c4ccccc34)cc[nH]2)cc(N2CCOCC2)c1

>  <score_type>  (8) 
oracle

>  <origin>  (8) 
adg

>  <m_score__min__energy>  (8) 
-19.16

>  <m_primary>  (8) 
energy

$$$$
8:0
     RDKit          3D

 81 85  0  0  0  0  0  0  0  0999 V2000
   53.9900   28.6160   51.5040 H   0  0  0  0  0  0  0  0  0  0  0  0
   54.2250   29.5360   51.8550 O   0  0  0  0  0  0  0  0  0  0  0  0
   55.4840   29.8120   52.3850 C   0  0  0  0  0  0  0  0  0  0  0  0
   56.2320   28.7820   52.9630 C   0  0  0  0  0  0  0  0  0  0  0  0
   55.8259   27.7602   52.9957 H   0  0  0  0  0  0  0  0  0  0  0  0
   57.4940   29.0480   53.4990 C   0  0  0  0  0  0  0  0  0  0  0  0
   58.0802   28.2343   53.9510 H   0  0  0  0  0  0  0  0  0  0  0  0
   58.0140   30.3430   53.4630 C   0  0  0  0  0  0  0  0  0  0  0  0
   59.0080   30.5471   53.8875 H   0  0  0  0  0  0  0  0  0  0  0  0
   57.2710   31.3860   52.8860 C   0  0  0  0  0  0  0  0  0  0  0  0
   57.7890   32.7980   52.9410 C   0  0  0  0  0  0  0  0  0  0  0  0
   58.4146   32.9239   53.8370 H   0  0  0  0  0  0  0  0  0  0  0  0
   56.9408   33.4971   52.9833 H   0  0  0  0  0  0  0  0  0  0  0  0
   58.5900   33.0750   51.7430 N   0  0  0  0  0  0  0  0  0  0  0  0
   58.5480   32.1500   50.6510 C   0  0  0  0  0  0  0  0  0  0  0  0
   57.4910   32.0460   49.9700 O   0  0  0  0  0  0  0  0  0  0  0  0
   59.6590   31.2020   50.4300 C   0  0  0  0  0  0  0  0  0  0  0  0
   59.3480   29.8440   50.2350 C   0  0  0  0  0  0  0  0  0  0  0  0
   58.2951   29.5271   50.2028 H   0  0  0  0  0  0  0  0  0  0  0  0
   60.3650   28.8880   50.0810 C   0  0  0  0  0  0  0  0  0  0  0  0
   60.1050   27.5310   49.8350 O   0  0  0  0  0  0  0  0  0  0  0  0
   60.8020   26.7010   48.9020 C   0  0  0  0  0  0  0  0  0  0  0  0
   60.7407   25.6572   49.2437 H   0  0  0  0  0  0  0  0  0  0  0  0
   61.8440   27.0506   48.8564 H   0  0  0  0  0  0  0  0  0  0  0  0
   60.2150   26.7910   47.4810 C   0  0  0  0  0  0  0  0  0  0  0  0
   59.4354   26.0218   47.3784 H   0  0  0  0  0  0  0  0  0  0  0  0
   61.0490   26.6411   46.7796 H   0  0  0  0  0  0  0  0  0  0  0  0
   59.5930   28.1590   47.1520 C   0  0  0  0  0  0  0  0  0  0  0  0
   60.2812   28.7129   46.4966 H   0  0  0  0  0  0  0  0  0  0  0  0
   59.4277   28.6922   48.0998 H   0  0  0  0  0  0  0  0  0  0  0  0
   58.2870   28.0280   46.4700 N   0  0  0  0  0  0  0  0  0  0  0  0
   58.3560   27.0460   45.3550 C   0  0  0  0  0  0  0  0  0  0  0  0
   57.3849   26.5362   45.2717 H   0  0  0  0  0  0  0  0  0  0  0  0
   59.1640   26.3348   45.5815 H   0  0  0  0  0  0  0  0  0  0  0  0
   58.6800   27.7140   44.0120 C   0  0  0  0  0  0  0  0  0  0  0  0
   58.7357   26.9408   43.2316 H   0  0  0  0  0  0  0  0  0  0  0  0
   59.6415   28.2395   44.1090 H   0  0  0  0  0  0  0  0  0  0  0  0
   57.6040   28.7400   43.6240 C   0  0  0  0  0  0  0  0  0  0  0  0
   56.8928   28.2600   42.9357 H   0  0  0  0  0  0  0  0  0  0  0  0
   58.1146   29.5934   43.1539 H   0  0  0  0  0  0  0  0  0  0  0  0
   56.8240   29.2790   44.8420 C   0  0  2  0  0  0  0  0  0  0  0  0
   55.9951   28.5942   45.0744 H   0  0  0  0  0  0  0  0  0  0  0  0
   56.2860   30.6000   44.5240 N   0  0  0  0  0  0  0  0  0  0  0  0
   57.0740   31.6900   44.0230 C   0  0  0  0  0  0  0  0  0  0  0  0
   57.5450   31.6480   42.8540 O   0  0  0  0  0  0  0  0  0  0  0  0
   57.3540   32.8630   44.8680 C   0  0  0  0  0  0  0  0  0  0  0  0
   57.1920   33.8687   44.4529 H   0  0  0  0  0  0  0  0  0  0  0  0
   57.8000   32.7450   46.1270 C   0  0  0  0  0  0  0  0  0  0  0  0
   57.0515   32.6076   46.9213 H   0  0  0  0  0  0  0  0  0  0  0  0
   59.2320   32.7860   46.5300 C   0  0  0  0  0  0  0  0  0  0  0  0
   59.9160   33.9770   46.8460 C   0  0  0  0  0  0  0  0  0  0  0  0
   59.3821   34.9382   46.8116 H   0  0  0  0  0  0  0  0  0  0  0  0
   61.2680   33.9470   47.2030 C   0  0  0  0  0  0  0  0  0  0  0  0
   61.7866   34.8852   47.4496 H   0  0  0  0  0  0  0  0  0  0  0  0
   61.9710   32.7310   47.2500 C   0  0  0  0  0  0  0  0  0  0  0  0
   63.3610   32.6970   47.6170 N   0  0  0  0  0  0  0  0  0  0  0  0
   63.8870   31.6400   48.0200 O   0  0  0  0  0  0  0  0  0  0  0  0
   64.1370   33.8300   47.5190 O   0  0  0  0  0  0  0  0  0  0  0  0
   61.2910   31.5440   46.9340 C   0  0  0  0  0  0  0  0  0  0  0  0
   61.8262   30.5835   46.9662 H   0  0  0  0  0  0  0  0  0  0  0  0
   59.9400   31.5730   46.5790 C   0  0  0  0  0  0  0  0  0  0  0  0
   59.4233   30.6332   46.3344 H   0  0  0  0  0  0  0  0  0  0  0  0
   57.7420   29.3580   46.0750 C   0  0  0  0  0  0  0  0  0  0  0  0
   57.1655   29.7669   46.9178 H   0  0  0  0  0  0  0  0  0  0  0  0
   58.5940   30.0034   45.8152 H   0  0  0  0  0  0  0  0  0  0  0  0
   61.6970   29.2930   50.1670 C   0  0  0  0  0  0  0  0  0  0  0  0
   62.4997   28.5447   50.0922 H   0  0  0  0  0  0  0  0  0  0  0  0
   62.0210   30.6380   50.3470 C   0  0  0  0  0  0  0  0  0  0  0  0
   63.0774   30.9403   50.3986 H   0  0  0  0  0  0  0  0  0  0  0  0
   61.0150   31.6100   50.4630 C   0  0  0  0  0  0  0  0  0  0  0  0
   61.4120   33.0700   50.4950 C   0  0  0  0  0  0  0  0  0  0  0  0
   60.9578   33.5764   49.6306 H   0  0  0  0  0  0  0  0  0  0  0  0
   62.5107   33.1144   50.4641 H   0  0  0  0  0  0  0  0  0  0  0  0
   60.9580   33.7830   51.7740 C   0  0  0  0  0  0  0  0  0  0  0  0
   61.5894   34.6706   51.9273 H   0  0  0  0  0  0  0  0  0  0  0  0
   61.0548   33.0722   52.6079 H   0  0  0  0  0  0  0  0  0  0  0  0
   59.4950   34.2260   51.7040 C   0  0  0  0  0  0  0  0  0  0  0  0
   59.3321   34.7788   50.7671 H   0  0  0  0  0  0  0  0  0  0  0  0
   59.2829   34.8652   52.5737 H   0  0  0  0  0  0  0  0  0  0  0  0
   56.0000   31.1140   52.3500 C   0  0  0  0  0  0  0  0  0  0  0  0
   55.4088   31.9261   51.9017 H   0  0  0  0  0  0  0  0  0  0  0  0
  1  2  1  0
  2  3  1  0
  3  4  2  0
  4  5  1  0
  4  6  1  0
  6  7  1  0
  6  8  2  0
  8  9  1  0
  8 10  1  0
 10 11  1  0
 11 12  1  0
 11 13  1  0
 11 14  1  0
 14 15  1  0
 15 16  2  0
 15 17  1  0
 17 18  2  0
 18 19  1  0
 18 20  1  0
 20 21  1  0
 21 22  1  0
 22 23  1  0
 22 24  1  0
 22 25  1  0
 25 26  1  0
 25 27  1  0
 25 28  1  0
 28 29  1  0
 28 30  1  0
 28 31  1  0
 31 32  1  0
 32 33  1  0
 32 34  1  0
 32 35  1  0
 35 36  1  0
 35 37  1  0
 35 38  1  0
 38 39  1  0
 38 40  1  0
 38 41  1  0
 41 42  1  1
 41 43  1  0
 43 44  1  0
 44 45  2  0
 44 46  1  0
 46 47  1  0
 46 48  2  0
 48 49  1  0
 48 50  1  0
 50 51  2  0
 51 52  1  0
 51 53  1  0
 53 54  1  0
 53 55  2  0
 55 56  1  0
 56 57  2  0
 56 58  1  0
 55 59  1  0
 59 60  1  0
 59 61  2  0
 61 62  1  0
 41 63  1  0
 63 64  1  0
 63 65  1  0
 20 66  2  0
 66 67  1  0
 66 68  1  0
 68 69  1  0
 68 70  2  0
 70 71  1  0
 71 72  1  0
 71 73  1  0
 71 74  1  0
 74 75  1  0
 74 76  1  0
 74 77  1  0
 77 78  1  0
 77 79  1  0
 10 80  2  0
 80 81  1  0
 80  3  1  0
 77 14  1  0
 70 17  1  0
 63 31  1  0
 61 50  1  0
M  CHG  3  43  -1  56   1  58  -1
M  END
>  <UniqueID>  (9) 
9

>  <SMILES>  (9) 
O=C(/C=C/c1ccc([N+](=O)[O-])cc1)[N-][C@H]1CCCN(CCCOc2ccc3c(c2)C(=O)N(Cc2cccc(O)c2)CCC3)C1

>  <Energy>  (9) 
100.62412361502933

>  <Genealogy>  (9) 
O=C(C=Cc1ccc([N+](=O)[O-])cc1)[N-]C1CCCN(CCCOc2ccc3c(c2)C(=O)N(Cc2cccc(O)c2)CCC3)C1 (protonated)
O=C(C=Cc1ccc([N+](=O)[O-])cc1)[N-][C@H]1CCCN(CCCOc2ccc3c(c2)C(=O)N(Cc2cccc(O)c2)CCC3)C1 (chirality)
O=C(/C=C/c1ccc([N+](=O)[O-])cc1)[N-][C@H]1CCCN(CCCOc2ccc3c(c2)C(=O)N(Cc2cccc(O)c2)CCC3)C1 (cis-trans isomerization)
O=C(/C=C/c1ccc([N+](=O)[O-])cc1)[N-][C@H]1CCCN(CCCOc2ccc3c(c2)C(=O)N(Cc2cccc(O)c2)CCC3)C1 (3D coordinates assigned)
O=C(/C=C/c1ccc([N+](=O)[O-])cc1)[N-][C@H]1CCCN(CCCOc2ccc3c(c2)C(=O)N(Cc2cccc(O)c2)CCC3)C1 (nonaromatic ring conformer: 100.62412361502933 kcal/mol)

>  <smiles>  (9) 
O=C(C=Cc1ccc([N+](=O)[O-])cc1)NC1CCCN(CCCOc2ccc3c(c2)C(=O)N(Cc2cccc(O)c2)CCC3)C1

>  <score_type>  (9) 
oracle

>  <origin>  (9) 
adg

>  <m_score__min__energy>  (9) 
-9.5399999999999991

>  <m_primary>  (9) 
energy

$$$$
9:0
     RDKit          3D

 39 42  0  0  0  0  0  0  0  0999 V2000
   57.7780   32.7720   42.8560 N   0  0  0  0  0  0  0  0  0  0  0  0
   58.1100   33.4130   44.4310 S   0  0  0  0  0  0  0  0  0  0  0  0
   59.3280   34.2840   44.3170 O   0  0  0  0  0  0  0  0  0  0  0  0
   56.9440   34.2450   44.8860 O   0  0  0  0  0  0  0  0  0  0  0  0
   58.3650   32.0800   45.5870 C   0  0  0  0  0  0  0  0  0  0  0  0
   58.8610   32.2970   46.8990 C   0  0  0  0  0  0  0  0  0  0  0  0
   59.1310   33.9410   47.6030 S   0  0  0  0  0  0  0  0  0  0  0  0
   60.9250   33.8090   47.5990 C   0  0  0  0  0  0  0  0  0  0  0  0
   61.6310   33.8390   46.3880 C   0  0  0  0  0  0  0  0  0  0  0  0
   63.0250   33.7300   46.3800 C   0  0  0  0  0  0  0  0  0  0  0  0
   63.7230   33.6100   47.5840 C   0  0  0  0  0  0  0  0  0  0  0  0
   63.0290   33.6170   48.7970 C   0  0  0  0  0  0  0  0  0  0  0  0
   61.6350   33.7240   48.8090 C   0  0  0  0  0  0  0  0  0  0  0  0
   60.9850   33.7940   49.9950 F   0  0  0  0  0  0  0  0  0  0  0  0
   59.1560   31.1840   47.6910 C   0  0  0  0  0  0  0  0  0  0  0  0
   59.7050   31.2780   48.9310 N   0  0  0  0  0  0  0  0  0  0  0  0
   59.7870   29.6830   49.3490 S   0  0  0  0  0  0  0  0  0  0  0  0
   59.1760   28.8490   48.0620 N   0  0  0  0  0  0  0  0  0  0  0  0
   58.8810   29.8760   47.2190 C   0  0  0  0  0  0  0  0  0  0  0  0
   58.3280   29.6800   45.9870 N   0  0  0  0  0  0  0  0  0  0  0  0
   58.0270   28.3430   45.5380 C   0  0  0  0  0  0  0  0  0  0  0  0
   57.3200   27.4590   46.3690 C   0  0  0  0  0  0  0  0  0  0  0  0
   57.0290   26.1620   45.9320 C   0  0  0  0  0  0  0  0  0  0  0  0
   57.4430   25.7420   44.6650 C   0  0  0  0  0  0  0  0  0  0  0  0
   58.1490   26.6160   43.8330 C   0  0  0  0  0  0  0  0  0  0  0  0
   58.4410   27.9130   44.2670 C   0  0  0  0  0  0  0  0  0  0  0  0
   58.0700   30.7560   45.1720 C   0  0  0  0  0  0  0  0  0  0  0  0
   57.5680   30.5620   44.0300 O   0  0  0  0  0  0  0  0  0  0  0  0
   58.4770   32.0180   42.6710 H   0  0  0  0  0  0  0  0  0  0  0  0
   56.8480   32.3020   42.9020 H   0  0  0  0  0  0  0  0  0  0  0  0
   61.0854   33.9489   45.4392 H   0  0  0  0  0  0  0  0  0  0  0  0
   63.5719   33.7387   45.4257 H   0  0  0  0  0  0  0  0  0  0  0  0
   64.8184   33.5100   47.5774 H   0  0  0  0  0  0  0  0  0  0  0  0
   63.5811   33.5381   49.7451 H   0  0  0  0  0  0  0  0  0  0  0  0
   56.9938   27.7873   47.3669 H   0  0  0  0  0  0  0  0  0  0  0  0
   56.4743   25.4729   46.5858 H   0  0  0  0  0  0  0  0  0  0  0  0
   57.2131   24.7225   44.3219 H   0  0  0  0  0  0  0  0  0  0  0  0
   58.4750   26.2833   42.8365 H   0  0  0  0  0  0  0  0  0  0  0  0
   58.9969   28.5986   43.6105 H   0  0  0  0  0  0  0  0  0  0  0  0
  1  2  1  0
  2  3  2  0
  2  4  2  0
  2  5  1  0
  5  6  2  0
  6  7  1  0
  7  8  1  0
  8  9  2  0
  9 10  1  0
 10 11  2  0
 11 12  1  0
 12 13  2  0
 13 14  1  0
  6 15  1  0
 15 16  2  0
 16 17  1  0
 17 18  1  0
 18 19  2  0
 19 20  1  0
 20 21  1  0
 21 22  2  0
 22 23  1  0
 23 24  2  0
 24 25  1  0
 25 26  2  0
 20 27  1  0
 27 28  2  0
 27  5  1  0
 13  8  1  0
 19 15  1  0
 26 21  1  0
  1 29  1  0
  1 30  1  0
  9 31  1  0
 10 32  1  0
 11 33  1  0
 12 34  1  0
 22 35  1  0
 23 36  1  0
 24 37  1  0
 25 38  1  0
 26 39  1  0
M  END
>  <UniqueID>  (10) 
10

>  <SMILES>  (10) 
NS(=O)(=O)c1c(Sc2ccccc2F)c2nsnc2n(-c2ccccc2)c1=O

>  <Energy>  (10) 
93.51475733221177

>  <Genealogy>  (10) 
NS(=O)(=O)c1c(Sc2ccccc2F)c2nsnc2n(-c2ccccc2)c1=O (3D coordinates assigned)
NS(=O)(=O)c1c(Sc2ccccc2F)c2nsnc2n(-c2ccccc2)c1=O (optimized conformer: 93.51475733221177 kcal/mol)

>  <smiles>  (10) 
NS(=O)(=O)c1c(Sc2ccccc2F)c2nsnc2n(-c2ccccc2)c1=O

>  <score_type>  (10) 
oracle

>  <origin>  (10) 
adg

>  <m_score__min__energy>  (10) 
-8

>  <m_primary>  (10) 
energy

$$$$
10:0
     RDKit          3D

 39 41  0  0  0  0  0  0  0  0999 V2000
   60.2900   34.7390   48.5480 N   0  0  0  0  0  0  0  0  0  0  0  0
   60.3930   34.8250   46.8260 S   0  0  0  0  0  0  0  0  0  0  0  0
   61.8000   34.5220   46.3910 O   0  0  0  0  0  0  0  0  0  0  0  0
   60.0370   36.2120   46.3720 O   0  0  0  0  0  0  0  0  0  0  0  0
   59.2850   33.6590   46.1100 C   0  0  0  0  0  0  0  0  0  0  0  0
   58.7850   32.5990   46.8790 C   0  0  0  0  0  0  0  0  0  0  0  0
   57.8950   31.6800   46.3170 C   0  0  0  0  0  0  0  0  0  0  0  0
   57.5050   31.8050   44.9720 C   0  0  0  0  0  0  0  0  0  0  0  0
   56.5710   30.8960   44.3710 N   0  0  0  0  0  0  0  0  0  0  0  0
   56.3380   29.5340   44.7540 C   0  0  0  0  0  0  0  0  0  0  0  0
   55.1730   29.0650   44.6510 O   0  0  0  0  0  0  0  0  0  0  0  0
   57.4430   28.6430   45.2410 C   0  0  0  0  0  0  0  0  0  0  0  0
   56.9380   27.7490   46.2260 O   0  0  0  0  0  0  0  0  0  0  0  0
   56.8210   26.3840   46.0210 N   0  0  0  0  0  0  0  0  0  0  0  0
   57.7980   25.4550   45.8910 C   0  0  0  0  0  0  0  0  0  0  0  0
   59.1620   25.7180   45.9430 O   0  0  0  0  0  0  0  0  0  0  0  0
   57.2370   24.2070   45.6980 C   0  0  0  0  0  0  0  0  0  0  0  0
   55.8750   24.3800   45.7110 C   0  0  0  0  0  0  0  0  0  0  0  0
   55.6500   25.7270   45.9110 C   0  0  0  0  0  0  0  0  0  0  0  0
   54.4050   26.3380   45.9900 O   0  0  0  0  0  0  0  0  0  0  0  0
   54.8870   23.2730   45.5360 C   0  0  0  0  0  0  0  0  0  0  0  0
   55.5720   21.9350   45.3420 C   0  0  0  0  0  0  0  0  0  0  0  0
   56.9140   21.7640   45.3290 C   0  0  0  0  0  0  0  0  0  0  0  0
   57.9140   22.8890   45.5060 C   0  0  0  0  0  0  0  0  0  0  0  0
   57.9760   32.8860   44.2190 C   0  0  0  0  0  0  0  0  0  0  0  0
   58.8670   33.8060   44.7810 C   0  0  0  0  0  0  0  0  0  0  0  0
   60.8190   33.8890   48.8430 H   0  0  0  0  0  0  0  0  0  0  0  0
   59.0945   32.4902   47.9290 H   0  0  0  0  0  0  0  0  0  0  0  0
   57.4983   30.8563   46.9287 H   0  0  0  0  0  0  0  0  0  0  0  0
   57.8470   28.0661   44.3961 H   0  0  0  0  0  0  0  0  0  0  0  0
   58.2406   29.2589   45.6821 H   0  0  0  0  0  0  0  0  0  0  0  0
   54.2488   23.2203   46.4304 H   0  0  0  0  0  0  0  0  0  0  0  0
   54.2897   23.4857   44.6371 H   0  0  0  0  0  0  0  0  0  0  0  0
   54.9380   21.0469   45.2030 H   0  0  0  0  0  0  0  0  0  0  0  0
   57.3032   20.7459   45.1809 H   0  0  0  0  0  0  0  0  0  0  0  0
   58.5367   22.6766   46.3876 H   0  0  0  0  0  0  0  0  0  0  0  0
   58.5270   22.9486   44.5946 H   0  0  0  0  0  0  0  0  0  0  0  0
   57.6434   33.0132   43.1782 H   0  0  0  0  0  0  0  0  0  0  0  0
   59.2404   34.6469   44.1781 H   0  0  0  0  0  0  0  0  0  0  0  0
  1  2  1  0
  2  3  2  0
  2  4  2  0
  2  5  1  0
  5  6  2  0
  6  7  1  0
  7  8  2  0
  8  9  1  0
  9 10  1  0
 10 11  2  0
 10 12  1  0
 12 13  1  0
 13 14  1  0
 14 15  1  0
 15 16  1  0
 15 17  2  0
 17 18  1  0
 18 19  2  0
 19 20  1  0
 18 21  1  0
 21 22  1  0
 22 23  2  0
 23 24  1  0
  8 25  1  0
 25 26  2  0
 26  5  1  0
 19 14  1  0
 24 17  1  0
  1 27  1  0
  6 28  1  0
  7 29  1  0
 12 30  1  0
 12 31  1  0
 21 32  1  0
 21 33  1  0
 22 34  1  0
 23 35  1  0
 24 36  1  0
 24 37  1  0
 25 38  1  0
 26 39  1  0
M  CHG  4   1  -1   9  -1  16  -1  20  -1
M  END
>  <UniqueID>  (11) 
11

>  <SMILES>  (11) 
[NH-]S(=O)(=O)c1ccc([N-]C(=O)COn2c([O-])c3c(c2[O-])CC=CC3)cc1

>  <Energy>  (11) 
77.68024461009631

>  <Genealogy>  (11) 
[NH-]S(=O)(=O)c1ccc([N-]C(=O)COn2c([O-])c3c(c2[O-])CC=CC3)cc1 (protonated)
[NH-]S(=O)(=O)c1ccc([N-]C(=O)COn2c([O-])c3c(c2[O-])CC=CC3)cc1 (3D coordinates assigned)
[NH-]S(=O)(=O)c1ccc([N-]C(=O)COn2c([O-])c3c(c2[O-])CC=CC3)cc1 (nonaromatic ring conformer: 77.68024461009631 kcal/mol)

>  <smiles>  (11) 
NS(=O)(=O)c1ccc(NC(=O)COn2c(O)c3c(c2O)CC=CC3)cc1

>  <score_type>  (11) 
oracle

>  <origin>  (11) 
adg

>  <m_score__min__energy>  (11) 
-15.029999999999999

>  <m_primary>  (11) 
energy

$$$$
11:0
     RDKit          3D

 44 46  0  0  0  0  0  0  0  0999 V2000
   61.1290   30.1510   47.1530 C   0  0  0  0  0  0  0  0  0  0  0  0
   59.8590   30.1770   46.5120 O   0  0  0  0  0  0  0  0  0  0  0  0
   59.0480   29.0510   46.2970 C   0  0  0  0  0  0  0  0  0  0  0  0
   59.2970   27.8280   46.9490 C   0  0  0  0  0  0  0  0  0  0  0  0
   58.4710   26.7250   46.7290 C   0  0  0  0  0  0  0  0  0  0  0  0
   57.3880   26.8120   45.8450 C   0  0  0  0  0  0  0  0  0  0  0  0
   56.5130   25.6360   45.6440 C   0  0  0  0  0  0  0  0  0  0  0  0
   55.5900   25.2480   46.5440 N   0  0  0  0  0  0  0  0  0  0  0  0
   55.0270   24.1550   45.9870 C   0  0  0  0  0  0  0  0  0  0  0  0
   53.9680   23.3530   46.6660 C   0  0  0  0  0  0  0  0  0  0  0  0
   55.5630   23.8070   44.8000 N   0  0  0  0  0  0  0  0  0  0  0  0
   56.5040   24.7430   44.5830 C   0  0  0  0  0  0  0  0  0  0  0  0
   57.3940   24.7390   43.3820 C   0  0  0  0  0  0  0  0  0  0  0  0
   57.1260   28.0330   45.2060 C   0  0  0  0  0  0  0  0  0  0  0  0
   57.9490   29.1490   45.4200 C   0  0  0  0  0  0  0  0  0  0  0  0
   57.5530   30.6700   44.6050 S   0  0  0  0  0  0  0  0  0  0  0  0
   56.1080   30.9920   44.8680 O   0  0  0  0  0  0  0  0  0  0  0  0
   57.7140   30.5120   43.1190 O   0  0  0  0  0  0  0  0  0  0  0  0
   58.5450   32.0040   45.1580 N   0  0  0  0  0  0  0  0  0  0  0  0
   58.2530   32.3900   46.5520 C   0  0  0  0  0  0  0  0  0  0  0  0
   57.0590   33.3660   46.6770 C   0  0  0  0  0  0  0  0  0  0  0  0
   56.5630   33.7980   45.4270 O   0  0  0  0  0  0  0  0  0  0  0  0
   57.6250   34.2880   44.6430 C   0  0  0  0  0  0  0  0  0  0  0  0
   58.5570   33.1410   44.2140 C   0  0  0  0  0  0  0  0  0  0  0  0
   60.9892   30.1539   48.2441 H   0  0  0  0  0  0  0  0  0  0  0  0
   61.6715   29.2416   46.8552 H   0  0  0  0  0  0  0  0  0  0  0  0
   61.7082   31.0375   46.8552 H   0  0  0  0  0  0  0  0  0  0  0  0
   60.1502   27.7413   47.6379 H   0  0  0  0  0  0  0  0  0  0  0  0
   58.6720   25.7795   47.2541 H   0  0  0  0  0  0  0  0  0  0  0  0
   54.0840   23.4409   47.7563 H   0  0  0  0  0  0  0  0  0  0  0  0
   52.9773   23.7294   46.3712 H   0  0  0  0  0  0  0  0  0  0  0  0
   54.0618   22.2974   46.3712 H   0  0  0  0  0  0  0  0  0  0  0  0
   58.4455   24.7343   43.7049 H   0  0  0  0  0  0  0  0  0  0  0  0
   57.1917   23.8418   42.7787 H   0  0  0  0  0  0  0  0  0  0  0  0
   57.1997   25.6380   42.7787 H   0  0  0  0  0  0  0  0  0  0  0  0
   56.2638   28.1166   44.5281 H   0  0  0  0  0  0  0  0  0  0  0  0
   58.0224   31.4802   47.1257 H   0  0  0  0  0  0  0  0  0  0  0  0
   59.1416   32.9093   46.9403 H   0  0  0  0  0  0  0  0  0  0  0  0
   56.2475   32.8587   47.2192 H   0  0  0  0  0  0  0  0  0  0  0  0
   57.4184   34.2569   47.2128 H   0  0  0  0  0  0  0  0  0  0  0  0
   57.2165   34.7764   43.7460 H   0  0  0  0  0  0  0  0  0  0  0  0
   58.2025   35.0092   45.2399 H   0  0  0  0  0  0  0  0  0  0  0  0
   58.2363   32.7796   43.2258 H   0  0  0  0  0  0  0  0  0  0  0  0
   59.5818   33.5401   44.1923 H   0  0  0  0  0  0  0  0  0  0  0  0
  1  2  1  0
  2  3  1  0
  3  4  2  0
  4  5  1  0
  5  6  2  0
  6  7  1  0
  7  8  1  0
  8  9  1  0
  9 10  1  0
  9 11  2  0
 11 12  1  0
 12 13  1  0
  6 14  1  0
 14 15  2  0
 15 16  1  0
 16 17  2  0
 16 18  2  0
 16 19  1  0
 19 20  1  0
 20 21  1  0
 21 22  1  0
 22 23  1  0
 23 24  1  0
 15  3  1  0
 24 19  1  0
 12  7  2  0
  1 25  1  0
  1 26  1  0
  1 27  1  0
  4 28  1  0
  5 29  1  0
 10 30  1  0
 10 31  1  0
 10 32  1  0
 13 33  1  0
 13 34  1  0
 13 35  1  0
 14 36  1  0
 20 37  1  0
 20 38  1  0
 21 39  1  0
 21 40  1  0
 23 41  1  0
 23 42  1  0
 24 43  1  0
 24 44  1  0
M  CHG  1   8  -1
M  END
>  <UniqueID>  (12) 
12

>  <SMILES>  (12) 
COc1ccc(-c2[n-]c(C)nc2C)cc1S(=O)(=O)N1CCOCC1

>  <Energy>  (12) 
84.36319651291765

>  <Genealogy>  (12) 
COc1ccc(-c2[n-]c(C)nc2C)cc1S(=O)(=O)N1CCOCC1 (protonated)
COc1ccc(-c2[n-]c(C)nc2C)cc1S(=O)(=O)N1CCOCC1 (3D coordinates assigned)
COc1ccc(-c2[n-]c(C)nc2C)cc1S(=O)(=O)N1CCOCC1 (nonaromatic ring conformer: 84.36319651291765 kcal/mol)

>  <smiles>  (12) 
COc1ccc(-c2[nH]c(C)nc2C)cc1S(=O)(=O)N1CCOCC1

>  <score_type>  (12) 
oracle

>  <origin>  (12) 
adg

>  <m_score__min__energy>  (12) 
-9.3100000000000005

>  <m_primary>  (12) 
energy

$$$$
12:0
     RDKit          3D

 56 58  0  0  0  0  0  0  0  0999 V2000
   63.5000   33.1870   47.6160 C   0  0  0  0  0  0  0  0  0  0  0  0
   62.9020   32.2130   48.4670 O   0  0  0  0  0  0  0  0  0  0  0  0
   61.9050   31.3130   48.0600 C   0  0  0  0  0  0  0  0  0  0  0  0
   60.9760   30.8750   49.0110 C   0  0  0  0  0  0  0  0  0  0  0  0
   59.9610   29.9820   48.6550 C   0  0  0  0  0  0  0  0  0  0  0  0
   59.8540   29.5200   47.3350 C   0  0  0  0  0  0  0  0  0  0  0  0
   58.7690   28.5840   46.9640 C   0  0  0  0  0  0  0  0  0  0  0  0
   58.5030   27.0930   47.7020 S   0  0  0  0  0  0  0  0  0  0  0  0
   57.2380   26.6820   46.6730 C   0  0  0  0  0  0  0  0  0  0  0  0
   56.4640   25.4400   46.7380 C   0  0  0  0  0  0  0  0  0  0  0  0
   56.9060   24.4730   47.4130 O   0  0  0  0  0  0  0  0  0  0  0  0
   55.2250   25.3350   46.0190 N   0  0  0  0  0  0  0  0  0  0  0  0
   54.6110   24.1270   45.4490 C   0  0  0  0  0  0  0  0  0  0  0  0
   53.1420   24.4660   45.1460 C   0  0  0  0  0  0  0  0  0  0  0  0
   55.3000   23.7380   44.1230 C   0  0  0  0  0  0  0  0  0  0  0  0
   54.6420   22.9650   46.4740 C   0  0  0  0  0  0  0  0  0  0  0  0
   54.5300   23.4200   47.7960 O   0  0  0  0  0  0  0  0  0  0  0  0
   56.9980   27.6600   45.7730 N   0  0  0  0  0  0  0  0  0  0  0  0
   57.8330   28.7230   45.9280 C   0  0  0  0  0  0  0  0  0  0  0  0
   57.6890   29.9230   45.0780 C   0  0  0  0  0  0  0  0  0  0  0  0
   57.4020   29.7620   43.7170 C   0  0  0  0  0  0  0  0  0  0  0  0
   57.2750   30.8760   42.8900 C   0  0  0  0  0  0  0  0  0  0  0  0
   57.4220   32.1620   43.4110 C   0  0  0  0  0  0  0  0  0  0  0  0
   57.6860   32.3480   44.7820 C   0  0  0  0  0  0  0  0  0  0  0  0
   57.8200   33.6600   45.3460 N   0  0  0  0  0  0  0  0  0  0  0  0
   59.0750   34.1700   46.4290 S   0  0  0  0  0  0  0  0  0  0  0  0
   59.7370   35.7410   45.9230 C   0  0  0  0  0  0  0  0  0  0  0  0
   60.1760   33.1480   46.4060 O   0  0  0  0  0  0  0  0  0  0  0  0
   58.5370   34.2640   47.8300 O   0  0  0  0  0  0  0  0  0  0  0  0
   57.8080   31.2200   45.6190 C   0  0  0  0  0  0  0  0  0  0  0  0
   58.0160   31.3750   46.9930 O   0  0  0  0  0  0  0  0  0  0  0  0
   60.7990   29.9420   46.3850 C   0  0  0  0  0  0  0  0  0  0  0  0
   61.8110   30.8370   46.7400 C   0  0  0  0  0  0  0  0  0  0  0  0
   63.9779   33.9654   48.2289 H   0  0  0  0  0  0  0  0  0  0  0  0
   64.2572   32.7038   46.9811 H   0  0  0  0  0  0  0  0  0  0  0  0
   62.7264   33.6436   46.9811 H   0  0  0  0  0  0  0  0  0  0  0  0
   61.0452   31.2366   50.0476 H   0  0  0  0  0  0  0  0  0  0  0  0
   59.2424   29.6398   49.4142 H   0  0  0  0  0  0  0  0  0  0  0  0
   52.5926   24.5928   46.0905 H   0  0  0  0  0  0  0  0  0  0  0  0
   53.0932   25.3990   44.5654 H   0  0  0  0  0  0  0  0  0  0  0  0
   52.6893   23.6487   44.5654 H   0  0  0  0  0  0  0  0  0  0  0  0
   56.2391   23.2078   44.3396 H   0  0  0  0  0  0  0  0  0  0  0  0
   54.6343   23.0825   43.5424 H   0  0  0  0  0  0  0  0  0  0  0  0
   55.5174   24.6467   43.5424 H   0  0  0  0  0  0  0  0  0  0  0  0
   53.8049   22.2835   46.2620 H   0  0  0  0  0  0  0  0  0  0  0  0
   55.6107   22.4534   46.3745 H   0  0  0  0  0  0  0  0  0  0  0  0
   54.7890   24.3790   47.7950 H   0  0  0  0  0  0  0  0  0  0  0  0
   57.2763   28.7522   43.2992 H   0  0  0  0  0  0  0  0  0  0  0  0
   57.0576   30.7409   41.8202 H   0  0  0  0  0  0  0  0  0  0  0  0
   57.3313   33.0349   42.7478 H   0  0  0  0  0  0  0  0  0  0  0  0
   59.9881   36.3369   46.8129 H   0  0  0  0  0  0  0  0  0  0  0  0
   60.6439   35.5802   45.3216 H   0  0  0  0  0  0  0  0  0  0  0  0
   58.9885   36.2777   45.3216 H   0  0  0  0  0  0  0  0  0  0  0  0
   58.4790   32.1830   47.3880 H   0  0  0  0  0  0  0  0  0  0  0  0
   60.7415   29.5646   45.3534 H   0  0  0  0  0  0  0  0  0  0  0  0
   62.5372   31.1708   45.9842 H   0  0  0  0  0  0  0  0  0  0  0  0
  1  2  1  0
  2  3  1  0
  3  4  2  0
  4  5  1  0
  5  6  2  0
  6  7  1  0
  7  8  1  0
  8  9  1  0
  9 10  1  0
 10 11  2  0
 10 12  1  0
 12 13  1  0
 13 14  1  0
 13 15  1  0
 13 16  1  0
 16 17  1  0
  9 18  2  0
 18 19  1  0
 19 20  1  0
 20 21  2  0
 21 22  1  0
 22 23  2  0
 23 24  1  0
 24 25  1  0
 25 26  1  0
 26 27  1  0
 26 28  2  0
 26 29  2  0
 24 30  2  0
 30 31  1  0
  6 32  1  0
 32 33  2  0
 33  3  1  0
 19  7  2  0
 30 20  1  0
  1 34  1  0
  1 35  1  0
  1 36  1  0
  4 37  1  0
  5 38  1  0
 14 39  1  0
 14 40  1  0
 14 41  1  0
 15 42  1  0
 15 43  1  0
 15 44  1  0
 16 45  1  0
 16 46  1  0
 17 47  1  0
 21 48  1  0
 22 49  1  0
 23 50  1  0
 27 51  1  0
 27 52  1  0
 27 53  1  0
 31 54  1  0
 32 55  1  0
 33 56  1  0
M  CHG  2  12  -1  25  -1
M  END
>  <UniqueID>  (13) 
13

>  <SMILES>  (13) 
COc1ccc(-c2sc(C(=O)[N-]C(C)(C)CO)nc2-c2cccc([N-]S(C)(=O)=O)c2O)cc1

>  <Energy>  (13) 
92.64719829869598

>  <Genealogy>  (13) 
COc1ccc(-c2sc(C(=O)[N-]C(C)(C)CO)nc2-c2cccc([N-]S(C)(=O)=O)c2O)cc1 (protonated)
COc1ccc(-c2sc(C(=O)[N-]C(C)(C)CO)nc2-c2cccc([N-]S(C)(=O)=O)c2O)cc1 (3D coordinates assigned)
COc1ccc(-c2sc(C(=O)[N-]C(C)(C)CO)nc2-c2cccc([N-]S(C)(=O)=O)c2O)cc1 (optimized conformer: 92.64719829869598 kcal/mol)

>  <smiles>  (13) 
COc1ccc(-c2sc(C(=O)NC(C)(C)CO)nc2-c2cccc(NS(C)(=O)=O)c2O)cc1

>  <score_type>  (13) 
oracle

>  <origin>  (13) 
adg

>  <m_score__min__energy>  (13) 
-11.51

>  <m_primary>  (13) 
energy

$$$$
13:0
     RDKit          3D

 59 62  0  0  0  0  0  0  0  0999 V2000
   55.4139   28.8138   43.9253 H   0  0  0  0  0  0  0  0  0  0  0  0
   56.0130   29.7280   43.8020 C   0  0  0  0  0  0  0  0  0  0  0  0
   56.2430   30.5390   44.8680 N   0  0  0  0  0  0  0  0  0  0  0  0
   56.9870   31.6780   44.7610 C   0  0  0  0  0  0  0  0  0  0  0  0
   57.1970   32.4390   45.7960 N   0  0  0  0  0  0  0  0  0  0  0  0
   58.4990   33.0010   46.1740 C   0  0  1  0  0  0  0  0  0  0  0  0
   58.8821   33.6389   45.3638 H   0  0  0  0  0  0  0  0  0  0  0  0
   58.3230   33.8710   47.4320 C   0  0  0  0  0  0  0  0  0  0  0  0
   57.6051   33.3835   48.1079 H   0  0  0  0  0  0  0  0  0  0  0  0
   57.9542   34.8602   47.1229 H   0  0  0  0  0  0  0  0  0  0  0  0
   59.6600   34.0580   48.1700 C   0  0  0  0  0  0  0  0  0  0  0  0
   59.4962   34.7364   49.0203 H   0  0  0  0  0  0  0  0  0  0  0  0
   60.3765   34.4660   47.4419 H   0  0  0  0  0  0  0  0  0  0  0  0
   60.2730   32.7090   48.7180 C   0  0  1  0  0  0  0  0  0  0  0  0
   61.7930   32.8600   48.5400 C   0  0  0  0  0  0  0  0  0  0  0  0
   62.6780   32.4450   49.4750 N   0  0  0  0  0  0  0  0  0  0  0  0
   63.9770   32.6730   49.1280 C   0  0  0  0  0  0  0  0  0  0  0  0
   65.0960   32.3000   50.0350 C   0  0  0  0  0  0  0  0  0  0  0  0
   65.0220   31.1690   50.8780 C   0  0  0  0  0  0  0  0  0  0  0  0
   64.1127   30.5500   50.8823 H   0  0  0  0  0  0  0  0  0  0  0  0
   66.0970   30.8300   51.7080 C   0  0  0  0  0  0  0  0  0  0  0  0
   66.0302   29.9456   52.3586 H   0  0  0  0  0  0  0  0  0  0  0  0
   67.2540   31.6120   51.7120 C   0  0  0  0  0  0  0  0  0  0  0  0
   68.0983   31.3419   52.3633 H   0  0  0  0  0  0  0  0  0  0  0  0
   67.3390   32.7370   50.8890 C   0  0  0  0  0  0  0  0  0  0  0  0
   68.2503   33.3530   50.8946 H   0  0  0  0  0  0  0  0  0  0  0  0
   66.2680   33.0830   50.0570 C   0  0  0  0  0  0  0  0  0  0  0  0
   66.3414   33.9732   49.4150 H   0  0  0  0  0  0  0  0  0  0  0  0
   64.1400   33.2870   47.8830 C   0  0  0  0  0  0  0  0  0  0  0  0
   65.0975   33.5595   47.4150 H   0  0  0  0  0  0  0  0  0  0  0  0
   62.6150   33.5340   47.2300 S   0  0  0  0  0  0  0  0  0  0  0  0
   59.9780   32.5290   50.1970 N   0  0  0  0  0  0  0  0  0  0  0  0
   60.8420   32.0800   50.5860 H   0  0  0  0  0  0  0  0  0  0  0  0
   59.8600   33.7930   50.9850 C   0  0  0  0  0  0  0  0  0  0  0  0
   59.5968   34.6100   50.2971 H   0  0  0  0  0  0  0  0  0  0  0  0
   60.8291   33.9618   51.4773 H   0  0  0  0  0  0  0  0  0  0  0  0
   58.7930   33.7230   52.0910 C   0  0  0  0  0  0  0  0  0  0  0  0
   59.2827   33.7551   53.0755 H   0  0  0  0  0  0  0  0  0  0  0  0
   58.1079   34.5781   51.9942 H   0  0  0  0  0  0  0  0  0  0  0  0
   58.2255   32.7857   51.9942 H   0  0  0  0  0  0  0  0  0  0  0  0
   58.8930   31.5360   50.5040 C   0  0  0  0  0  0  0  0  0  0  0  0
   58.2866   31.9476   51.3243 H   0  0  0  0  0  0  0  0  0  0  0  0
   58.3508   31.3977   49.5570 H   0  0  0  0  0  0  0  0  0  0  0  0
   59.3470   30.1220   50.9220 C   0  0  0  0  0  0  0  0  0  0  0  0
   59.3690   30.0535   52.0196 H   0  0  0  0  0  0  0  0  0  0  0  0
   58.6427   29.3776   50.5222 H   0  0  0  0  0  0  0  0  0  0  0  0
   60.3530   29.9267   50.5222 H   0  0  0  0  0  0  0  0  0  0  0  0
   59.7380   31.5060   47.8590 C   0  0  0  0  0  0  0  0  0  0  0  0
   58.7704   31.1825   48.2703 H   0  0  0  0  0  0  0  0  0  0  0  0
   60.4885   30.7032   47.9068 H   0  0  0  0  0  0  0  0  0  0  0  0
   59.5450   31.8750   46.3780 C   0  0  0  0  0  0  0  0  0  0  0  0
   59.2098   30.9802   45.8331 H   0  0  0  0  0  0  0  0  0  0  0  0
   60.5093   32.2443   45.9989 H   0  0  0  0  0  0  0  0  0  0  0  0
   57.5320   32.0330   43.5200 C   0  0  0  0  0  0  0  0  0  0  0  0
   58.1346   32.9479   43.4203 H   0  0  0  0  0  0  0  0  0  0  0  0
   57.3040   31.2160   42.4110 C   0  0  0  0  0  0  0  0  0  0  0  0
   57.7263   31.4849   41.4315 H   0  0  0  0  0  0  0  0  0  0  0  0
   56.5380   30.0560   42.5490 C   0  0  0  0  0  0  0  0  0  0  0  0
   56.3500   29.4075   41.6806 H   0  0  0  0  0  0  0  0  0  0  0  0
  1  2  1  0
  2  3  1  0
  3  4  1  0
  4  5  2  0
  5  6  1  0
  6  7  1  6
  6  8  1  0
  8  9  1  0
  8 10  1  0
  8 11  1  0
 11 12  1  0
 11 13  1  0
 11 14  1  0
 14 15  1  0
 15 16  2  0
 16 17  1  0
 17 18  1  0
 18 19  2  0
 19 20  1  0
 19 21  1  0
 21 22  1  0
 21 23  2  0
 23 24  1  0
 23 25  1  0
 25 26  1  0
 25 27  2  0
 27 28  1  0
 17 29  2  0
 29 30  1  0
 29 31  1  0
 14 32  1  1
 32 33  1  0
 32 34  1  0
 34 35  1  0
 34 36  1  0
 34 37  1  0
 37 38  1  0
 37 39  1  0
 37 40  1  0
 32 41  1  0
 41 42  1  0
 41 43  1  0
 41 44  1  0
 44 45  1  0
 44 46  1  0
 44 47  1  0
 14 48  1  0
 48 49  1  0
 48 50  1  0
 48 51  1  0
 51 52  1  0
 51 53  1  0
  4 54  1  0
 54 55  1  0
 54 56  2  0
 56 57  1  0
 56 58  1  0
 58 59  1  0
 58  2  2  0
 51  6  1  0
 31 15  1  0
 27 18  1  0
M  CHG  2   3  -1  32   1
M  END
>  <UniqueID>  (14) 
14

>  <SMILES>  (14) 
CC[NH+](CC)C1(c2nc(-c3ccccc3)cs2)CCC(/N=c2/cccc[n-]2)CC1

>  <Energy>  (14) 
121.02219909607882

>  <Genealogy>  (14) 
CC[NH+](CC)C1(c2nc(-c3ccccc3)cs2)CCC(N=c2cccc[n-]2)CC1 (protonated)
CC[NH+](CC)C1(c2nc(-c3ccccc3)cs2)CCC(/N=c2/cccc[n-]2)CC1 (cis-trans isomerization)
CC[NH+](CC)C1(c2nc(-c3ccccc3)cs2)CCC(/N=c2/cccc[n-]2)CC1 (3D coordinates assigned)
CC[NH+](CC)C1(c2nc(-c3ccccc3)cs2)CCC(/N=c2/cccc[n-]2)CC1 (nonaromatic ring conformer: 121.02219909607882 kcal/mol)

>  <smiles>  (14) 
CCN(CC)C1(c2nc(-c3ccccc3)cs2)CCC(N=c2cccc[nH]2)CC1

>  <score_type>  (14) 
oracle

>  <origin>  (14) 
adg

>  <m_score__min__energy>  (14) 
-8.7200000000000006

>  <m_primary>  (14) 
energy

$$$$
14:0
     RDKit          3D

 51 52  0  0  0  0  0  0  0  0999 V2000
   55.0540   26.9260   46.7640 H   0  0  0  0  0  0  0  0  0  0  0  0
   54.7690   26.3400   45.9500 N   0  0  0  0  0  0  0  0  0  0  0  0
   55.1110   24.9560   45.8860 C   0  0  0  0  0  0  0  0  0  0  0  0
   54.1880   24.0990   45.9010 O   0  0  0  0  0  0  0  0  0  0  0  0
   56.5360   24.5360   45.7980 C   0  0  0  0  0  0  0  0  0  0  0  0
   57.5530   25.3800   46.2720 C   0  0  0  0  0  0  0  0  0  0  0  0
   57.2868   26.3498   46.7177 H   0  0  0  0  0  0  0  0  0  0  0  0
   58.8690   25.0170   46.1890 N   0  0  0  0  0  0  0  0  0  0  0  0
   59.9130   25.9280   46.6940 C   0  0  0  0  0  0  0  0  0  0  0  0
   60.8925   25.4352   46.6061 H   0  0  0  0  0  0  0  0  0  0  0  0
   59.6909   26.1641   47.7452 H   0  0  0  0  0  0  0  0  0  0  0  0
   59.9380   27.2190   45.9080 C   0  0  0  0  0  0  0  0  0  0  0  0
   60.5816   28.0290   46.2818 H   0  0  0  0  0  0  0  0  0  0  0  0
   59.2330   27.4530   44.7860 C   0  0  0  0  0  0  0  0  0  0  0  0
   58.8679   26.5824   44.2213 H   0  0  0  0  0  0  0  0  0  0  0  0
   58.9080   28.8220   44.2480 C   0  0  0  0  0  0  0  0  0  0  0  0
   58.5005   28.7261   43.2308 H   0  0  0  0  0  0  0  0  0  0  0  0
   59.8255   29.4284   44.2274 H   0  0  0  0  0  0  0  0  0  0  0  0
   57.9160   29.4790   45.1090 N   0  0  0  0  0  0  0  0  0  0  0  0
   58.3580   30.3410   46.1760 C   0  0  0  0  0  0  0  0  0  0  0  0
   59.3240   29.9990   46.9120 O   0  0  0  0  0  0  0  0  0  0  0  0
   57.7160   31.6030   46.3870 N   0  0  0  0  0  0  0  0  0  0  0  0
   58.3630   32.8740   46.2450 C   0  0  0  0  0  0  0  0  0  0  0  0
   58.4800   33.4960   44.9760 C   0  0  0  0  0  0  0  0  0  0  0  0
   57.9120   32.8690   43.7300 C   0  0  0  0  0  0  0  0  0  0  0  0
   57.1977   32.0805   44.0092 H   0  0  0  0  0  0  0  0  0  0  0  0
   57.3961   33.6373   43.1354 H   0  0  0  0  0  0  0  0  0  0  0  0
   58.7274   32.4313   43.1354 H   0  0  0  0  0  0  0  0  0  0  0  0
   59.1370   34.7310   44.8740 C   0  0  0  0  0  0  0  0  0  0  0  0
   59.2057   35.2331   43.8977 H   0  0  0  0  0  0  0  0  0  0  0  0
   59.7040   35.3280   46.0000 C   0  0  0  0  0  0  0  0  0  0  0  0
   60.2187   36.2957   45.9074 H   0  0  0  0  0  0  0  0  0  0  0  0
   59.6200   34.7010   47.2430 C   0  0  0  0  0  0  0  0  0  0  0  0
   60.0709   35.1763   48.1267 H   0  0  0  0  0  0  0  0  0  0  0  0
   58.9640   33.4680   47.3730 C   0  0  0  0  0  0  0  0  0  0  0  0
   58.8350   32.8350   48.7320 C   0  0  0  0  0  0  0  0  0  0  0  0
   58.9906   33.5985   49.5084 H   0  0  0  0  0  0  0  0  0  0  0  0
   57.8300   32.4012   48.8405 H   0  0  0  0  0  0  0  0  0  0  0  0
   59.5901   32.0425   48.8405 H   0  0  0  0  0  0  0  0  0  0  0  0
   56.4840   29.3130   44.8300 C   0  0  0  0  0  0  0  0  0  0  0  0
   55.9026   29.8828   45.5699 H   0  0  0  0  0  0  0  0  0  0  0  0
   56.2313   28.2441   44.8907 H   0  0  0  0  0  0  0  0  0  0  0  0
   56.1500   29.8200   43.4310 C   0  0  0  0  0  0  0  0  0  0  0  0
   55.5463   30.7364   43.5075 H   0  0  0  0  0  0  0  0  0  0  0  0
   57.0814   30.0388   42.8882 H   0  0  0  0  0  0  0  0  0  0  0  0
   55.5814   29.0506   42.8882 H   0  0  0  0  0  0  0  0  0  0  0  0
   59.2010   23.7920   45.6700 C   0  0  0  0  0  0  0  0  0  0  0  0
   60.4040   23.4180   45.6170 O   0  0  0  0  0  0  0  0  0  0  0  0
   58.2340   22.9630   45.2060 N   0  0  0  0  0  0  0  0  0  0  0  0
   56.9240   23.3010   45.2480 C   0  0  0  0  0  0  0  0  0  0  0  0
   56.0700   22.4930   44.7920 O   0  0  0  0  0  0  0  0  0  0  0  0
  1  2  1  0
  2  3  1  0
  3  4  2  0
  3  5  1  0
  5  6  2  0
  6  7  1  0
  6  8  1  0
  8  9  1  0
  9 10  1  0
  9 11  1  0
  9 12  1  0
 12 13  1  0
 12 14  2  0
 14 15  1  0
 14 16  1  0
 16 17  1  0
 16 18  1  0
 16 19  1  0
 19 20  1  0
 20 21  2  0
 20 22  1  0
 22 23  1  0
 23 24  2  0
 24 25  1  0
 25 26  1  0
 25 27  1  0
 25 28  1  0
 24 29  1  0
 29 30  1  0
 29 31  2  0
 31 32  1  0
 31 33  1  0
 33 34  1  0
 33 35  2  0
 35 36  1  0
 36 37  1  0
 36 38  1  0
 36 39  1  0
 19 40  1  0
 40 41  1  0
 40 42  1  0
 40 43  1  0
 43 44  1  0
 43 45  1  0
 43 46  1  0
  8 47  1  0
 47 48  2  0
 47 49  1  0
 49 50  1  0
 50 51  2  0
 50  5  1  0
 35 23  1  0
M  CHG  3   2  -1  22  -1  49  -1
M  END
>  <UniqueID>  (15) 
15

>  <SMILES>  (15) 
CCN(C/C=C\Cn1cc(C([NH-])=O)c(=O)[n-]c1=O)C(=O)[N-]c1c(C)cccc1C

>  <Energy>  (15) 
49.10218101887798

>  <Genealogy>  (15) 
CCN(CC=CCn1cc(C([NH-])=O)c(=O)[n-]c1=O)C(=O)[N-]c1c(C)cccc1C (protonated)
CCN(C/C=C\Cn1cc(C([NH-])=O)c(=O)[n-]c1=O)C(=O)[N-]c1c(C)cccc1C (cis-trans isomerization)
CCN(C/C=C\Cn1cc(C([NH-])=O)c(=O)[n-]c1=O)C(=O)[N-]c1c(C)cccc1C (3D coordinates assigned)
CCN(C/C=C\Cn1cc(C([NH-])=O)c(=O)[n-]c1=O)C(=O)[N-]c1c(C)cccc1C (optimized conformer: 49.10218101887798 kcal/mol)

>  <smiles>  (15) 
CCN(CC=CCn1cc(C(N)=O)c(=O)[nH]c1=O)C(=O)Nc1c(C)cccc1C

>  <score_type>  (15) 
oracle

>  <origin>  (15) 
adg

>  <m_score__min__energy>  (15) 
-13.859999999999999

>  <m_primary>  (15) 
energy

$$$$
15:0
     RDKit          3D

 30 31  0  0  0  0  0  0  0  0999 V2000
   55.1480   27.9170   45.0230 H   0  0  0  0  0  0  0  0  0  0  0  0
   55.5840   27.2370   45.6350 O   0  0  0  0  0  0  0  0  0  0  0  0
   56.9690   27.1450   45.7640 C   0  0  0  0  0  0  0  0  0  0  0  0
   57.5040   26.2610   46.7110 C   0  0  0  0  0  0  0  0  0  0  0  0
   56.8342   25.6100   47.2920 H   0  0  0  0  0  0  0  0  0  0  0  0
   58.8810   26.2030   46.9200 C   0  0  0  0  0  0  0  0  0  0  0  0
   59.3026   25.5059   47.6591 H   0  0  0  0  0  0  0  0  0  0  0  0
   59.7160   27.0370   46.1830 C   0  0  0  0  0  0  0  0  0  0  0  0
   60.8030   27.0133   46.3500 H   0  0  0  0  0  0  0  0  0  0  0  0
   59.1900   27.8800   45.2580 N   0  0  0  0  0  0  0  0  0  0  0  0
   57.8550   27.9520   45.0000 C   0  0  0  0  0  0  0  0  0  0  0  0
   57.4630   28.8010   44.0880 N   0  0  0  0  0  0  0  0  0  0  0  0
   56.7350   30.0260   44.2480 C   0  0  0  0  0  0  0  0  0  0  0  0
   55.5090   30.0070   44.5410 O   0  0  0  0  0  0  0  0  0  0  0  0
   57.3880   31.3330   43.9040 C   0  0  0  0  0  0  0  0  0  0  0  0
   58.4796   31.2024   43.9402 H   0  0  0  0  0  0  0  0  0  0  0  0
   57.0486   31.6220   42.8984 H   0  0  0  0  0  0  0  0  0  0  0  0
   56.9940   32.4600   44.8720 C   0  0  0  0  0  0  0  0  0  0  0  0
   56.4582   33.2389   44.3098 H   0  0  0  0  0  0  0  0  0  0  0  0
   56.3582   32.0246   45.6570 H   0  0  0  0  0  0  0  0  0  0  0  0
   58.1950   33.0820   45.5400 C   0  0  0  0  0  0  0  0  0  0  0  0
   58.4950   34.4390   45.3460 C   0  0  0  0  0  0  0  0  0  0  0  0
   57.8426   35.0672   44.7218 H   0  0  0  0  0  0  0  0  0  0  0  0
   59.6290   34.9860   45.9520 C   0  0  0  0  0  0  0  0  0  0  0  0
   59.8730   36.0481   45.8021 H   0  0  0  0  0  0  0  0  0  0  0  0
   60.4310   34.2090   46.7260 N   0  0  0  0  0  0  0  0  0  0  0  0
   60.1620   32.8930   46.9350 C   0  0  0  0  0  0  0  0  0  0  0  0
   60.8289   32.2901   47.5689 H   0  0  0  0  0  0  0  0  0  0  0  0
   59.0400   32.3050   46.3460 C   0  0  0  0  0  0  0  0  0  0  0  0
   58.8207   31.2401   46.5131 H   0  0  0  0  0  0  0  0  0  0  0  0
  1  2  1  0
  2  3  1  0
  3  4  2  0
  4  5  1  0
  4  6  1  0
  6  7  1  0
  6  8  2  0
  8  9  1  0
  8 10  1  0
 10 11  1  0
 11 12  2  0
 12 13  1  0
 13 14  2  0
 13 15  1  0
 15 16  1  0
 15 17  1  0
 15 18  1  0
 18 19  1  0
 18 20  1  0
 18 21  1  0
 21 22  2  0
 22 23  1  0
 22 24  1  0
 24 25  1  0
 24 26  2  0
 26 27  1  0
 27 28  1  0
 27 29  2  0
 29 30  1  0
 11  3  1  0
 29 21  1  0
M  CHG  1  10  -1
M  END
>  <UniqueID>  (16) 
16

>  <SMILES>  (16) 
O=C(CCc1ccncc1)/N=c1/[n-]cccc1O

>  <Energy>  (16) 
38.644918400573744

>  <Genealogy>  (16) 
O=C(CCc1ccncc1)N=c1[n-]cccc1O (protonated)
O=C(CCc1ccncc1)/N=c1/[n-]cccc1O (cis-trans isomerization)
O=C(CCc1ccncc1)/N=c1/[n-]cccc1O (3D coordinates assigned)
O=C(CCc1ccncc1)/N=c1/[n-]cccc1O (optimized conformer: 38.644918400573744 kcal/mol)

>  <smiles>  (16) 
O=C(CCc1ccncc1)N=c1[nH]cccc1O

>  <score_type>  (16) 
oracle

>  <origin>  (16) 
adg

>  <m_score__min__energy>  (16) 
-9.2400000000000002

>  <m_primary>  (16) 
energy

$$$$
16:0
     RDKit          3D

 20 20  0  0  0  0  0  0  0  0999 V2000
   56.7610   26.3460   43.7200 H   0  0  0  0  0  0  0  0  0  0  0  0
   57.7620   26.5440   43.8650 N   0  0  0  0  0  0  0  0  0  0  0  0
   58.2050   26.9220   45.0090 C   0  0  0  0  0  0  0  0  0  0  0  0
   59.2340   28.3900   45.1380 S   0  0  0  0  0  0  0  0  0  0  0  0
   57.8390   29.4960   44.9380 C   0  0  0  0  0  0  0  0  0  0  0  0
   57.7850   30.8480   45.1870 C   0  0  0  0  0  0  0  0  0  0  0  0
   58.9010   31.7390   45.6220 C   0  0  0  0  0  0  0  0  0  0  0  0
   58.9389   31.7693   46.7209 H   0  0  0  0  0  0  0  0  0  0  0  0
   59.8536   31.3502   45.2328 H   0  0  0  0  0  0  0  0  0  0  0  0
   58.7328   32.7540   45.2328 H   0  0  0  0  0  0  0  0  0  0  0  0
   56.5470   31.2750   44.8670 N   0  0  0  0  0  0  0  0  0  0  0  0
   55.9010   30.2140   44.4700 O   0  0  0  0  0  0  0  0  0  0  0  0
   56.6260   29.1330   44.4960 N   0  0  0  0  0  0  0  0  0  0  0  0
   56.3100   28.1800   44.2130 H   0  0  0  0  0  0  0  0  0  0  0  0
   57.8670   26.1330   46.2400 C   0  0  0  0  0  0  0  0  0  0  0  0
   58.3251   25.1354   46.1698 H   0  0  0  0  0  0  0  0  0  0  0  0
   58.2541   26.6615   47.1236 H   0  0  0  0  0  0  0  0  0  0  0  0
   56.4220   25.9920   46.3640 N   0  0  0  0  0  0  0  0  0  0  0  0
   55.6630   26.7150   45.6860 O   0  0  0  0  0  0  0  0  0  0  0  0
   55.8980   24.9320   47.0660 O   0  0  0  0  0  0  0  0  0  0  0  0
  1  2  1  0
  2  3  2  0
  3  4  1  0
  4  5  1  0
  5  6  1  0
  6  7  1  0
  7  8  1  0
  7  9  1  0
  7 10  1  0
  6 11  2  0
 11 12  1  0
 12 13  1  0
 13 14  1  0
  3 15  1  0
 15 16  1  0
 15 17  1  0
 15 18  1  0
 18 19  2  0
 18 20  1  0
 13  5  2  0
M  CHG  3  13   1  18   1  20  -1
M  END
>  <UniqueID>  (17) 
17

>  <SMILES>  (17) 
[H]/N=C(/C[N+](=O)[O-])Sc1[nH+]onc1C

>  <Energy>  (17) 
44.78181513817425

>  <Genealogy>  (17) 
Cc1no[nH+]c1SC(=N)C[N+](=O)[O-] (protonated)
[H]/N=C(/C[N+](=O)[O-])Sc1[nH+]onc1C (cis-trans isomerization)
[H]/N=C(/C[N+](=O)[O-])Sc1[nH+]onc1C (3D coordinates assigned)
[H]/N=C(/C[N+](=O)[O-])Sc1[nH+]onc1C (optimized conformer: 44.78181513817425 kcal/mol)

>  <smiles>  (17) 
Cc1nonc1SC(=N)C[N+](=O)[O-]

>  <score_type>  (17) 
oracle

>  <origin>  (17) 
adg

>  <m_score__min__energy>  (17) 
-4.9000000000000004

>  <m_primary>  (17) 
energy

$$$$
17:0
     RDKit          3D

 37 39  0  0  0  0  0  0  0  0999 V2000
   59.2980   33.4250   49.7610 C   0  0  0  0  0  0  0  0  0  0  0  0
   59.1950   33.5920   48.2740 C   0  0  0  0  0  0  0  0  0  0  0  0
   60.0800   34.4410   47.5950 C   0  0  0  0  0  0  0  0  0  0  0  0
   59.9520   34.6330   46.2160 C   0  0  0  0  0  0  0  0  0  0  0  0
   58.9390   33.9780   45.5030 C   0  0  0  0  0  0  0  0  0  0  0  0
   58.8140   34.1690   44.1270 O   0  0  0  0  0  0  0  0  0  0  0  0
   58.0520   33.1220   46.1710 C   0  0  0  0  0  0  0  0  0  0  0  0
   57.0130   32.4710   45.4220 N   0  0  0  0  0  0  0  0  0  0  0  0
   57.1880   31.4070   44.4750 C   0  0  0  0  0  0  0  0  0  0  0  0
   57.1670   31.6820   43.2470 O   0  0  0  0  0  0  0  0  0  0  0  0
   57.4210   30.0050   44.9000 C   0  0  0  0  0  0  0  0  0  0  0  0
   58.7330   29.5680   45.1310 C   0  0  0  0  0  0  0  0  0  0  0  0
   59.0010   28.2730   45.4780 N   0  0  0  0  0  0  0  0  0  0  0  0
   60.3870   27.8990   45.6030 C   0  0  0  0  0  0  0  0  0  0  0  0
   61.3900   28.5970   44.8670 N   0  0  0  0  0  0  0  0  0  0  0  0
   60.7250   26.9900   46.4080 O   0  0  0  0  0  0  0  0  0  0  0  0
   57.9750   27.3710   45.6620 C   0  0  0  0  0  0  0  0  0  0  0  0
   58.1960   26.0470   46.0980 C   0  0  0  0  0  0  0  0  0  0  0  0
   57.1240   25.1700   46.2680 C   0  0  0  0  0  0  0  0  0  0  0  0
   55.8260   25.6170   46.0210 C   0  0  0  0  0  0  0  0  0  0  0  0
   54.8490   24.8370   46.1690 O   0  0  0  0  0  0  0  0  0  0  0  0
   55.6130   26.8990   45.6290 N   0  0  0  0  0  0  0  0  0  0  0  0
   56.6360   27.7810   45.4510 C   0  0  0  0  0  0  0  0  0  0  0  0
   56.3640   29.1000   45.0760 C   0  0  0  0  0  0  0  0  0  0  0  0
   55.1680   29.4710   44.9240 O   0  0  0  0  0  0  0  0  0  0  0  0
   58.1660   32.9570   47.5630 C   0  0  0  0  0  0  0  0  0  0  0  0
   58.7834   34.2593   50.2602 H   0  0  0  0  0  0  0  0  0  0  0  0
   58.8286   32.4751   50.0567 H   0  0  0  0  0  0  0  0  0  0  0  0
   60.3575   33.4181   50.0567 H   0  0  0  0  0  0  0  0  0  0  0  0
   60.8776   34.9578   48.1488 H   0  0  0  0  0  0  0  0  0  0  0  0
   60.6492   35.3008   45.6888 H   0  0  0  0  0  0  0  0  0  0  0  0
   58.2010   33.5900   43.5650 H   0  0  0  0  0  0  0  0  0  0  0  0
   59.5639   30.2818   45.0310 H   0  0  0  0  0  0  0  0  0  0  0  0
   61.9190   28.1250   44.1010 H   0  0  0  0  0  0  0  0  0  0  0  0
   59.2204   25.7040   46.3052 H   0  0  0  0  0  0  0  0  0  0  0  0
   57.3011   24.1345   46.5942 H   0  0  0  0  0  0  0  0  0  0  0  0
   57.4424   32.3249   48.0985 H   0  0  0  0  0  0  0  0  0  0  0  0
  1  2  1  0
  2  3  2  0
  3  4  1  0
  4  5  2  0
  5  6  1  0
  5  7  1  0
  7  8  1  0
  8  9  1  0
  9 10  2  0
  9 11  1  0
 11 12  2  0
 12 13  1  0
 13 14  1  0
 14 15  1  0
 14 16  2  0
 13 17  1  0
 17 18  1  0
 18 19  2  0
 19 20  1  0
 20 21  2  0
 20 22  1  0
 22 23  1  0
 23 24  1  0
 24 25  2  0
  7 26  2  0
 26  2  1  0
 24 11  1  0
 23 17  2  0
  1 27  1  0
  1 28  1  0
  1 29  1  0
  3 30  1  0
  4 31  1  0
  6 32  1  0
 12 33  1  0
 15 34  1  0
 18 35  1  0
 19 36  1  0
 26 37  1  0
M  CHG  3   8  -1  15  -1  22  -1
M  END
>  <UniqueID>  (18) 
18

>  <SMILES>  (18) 
Cc1ccc(O)c([N-]C(=O)c2cn(C([NH-])=O)c3ccc(=O)[n-]c3c2=O)c1

>  <Energy>  (18) 
60.58036959294744

>  <Genealogy>  (18) 
Cc1ccc(O)c([N-]C(=O)c2cn(C([NH-])=O)c3ccc(=O)[n-]c3c2=O)c1 (protonated)
Cc1ccc(O)c([N-]C(=O)c2cn(C([NH-])=O)c3ccc(=O)[n-]c3c2=O)c1 (3D coordinates assigned)
Cc1ccc(O)c([N-]C(=O)c2cn(C([NH-])=O)c3ccc(=O)[n-]c3c2=O)c1 (optimized conformer: 60.58036959294744 kcal/mol)

>  <smiles>  (18) 
Cc1ccc(O)c(NC(=O)c2cn(C(N)=O)c3ccc(=O)[nH]c3c2=O)c1

>  <score_type>  (18) 
oracle

>  <origin>  (18) 
adg

>  <m_score__min__energy>  (18) 
-12.880000000000001

>  <m_primary>  (18) 
energy

$$$$
18:0
     RDKit          3D

 32 34  0  0  0  0  0  0  0  0999 V2000
   62.7202   33.5224   47.9593 H   0  0  0  0  0  0  0  0  0  0  0  0
   61.6900   33.7580   47.6540 C   0  0  0  0  0  0  0  0  0  0  0  0
   61.2580   33.6130   46.3740 N   0  0  0  0  0  0  0  0  0  0  0  0
   59.9620   33.9760   46.2470 C   0  0  0  0  0  0  0  0  0  0  0  0
   59.2880   33.9060   45.1370 N   0  0  0  0  0  0  0  0  0  0  0  0
   57.9270   33.4720   45.0180 C   0  0  0  0  0  0  0  0  0  0  0  0
   57.0060   34.2820   45.3060 O   0  0  0  0  0  0  0  0  0  0  0  0
   57.5710   32.1340   44.5070 C   0  0  0  0  0  0  0  0  0  0  0  0
   57.4020   31.7840   43.1790 C   0  0  0  0  0  0  0  0  0  0  0  0
   57.4766   32.4746   42.3261 H   0  0  0  0  0  0  0  0  0  0  0  0
   57.1390   30.5010   43.0940 O   0  0  0  0  0  0  0  0  0  0  0  0
   57.1380   29.9970   44.3080 C   0  0  0  0  0  0  0  0  0  0  0  0
   56.8970   28.6180   44.6150 N   0  0  0  0  0  0  0  0  0  0  0  0
   55.9840   28.2060   44.3150 H   0  0  0  0  0  0  0  0  0  0  0  0
   57.8650   27.7780   45.2650 C   0  0  0  0  0  0  0  0  0  0  0  0
   59.0450   28.1920   45.4300 O   0  0  0  0  0  0  0  0  0  0  0  0
   57.4950   26.4210   45.7360 C   0  0  0  0  0  0  0  0  0  0  0  0
   58.4770   25.4160   45.8390 C   0  0  0  0  0  0  0  0  0  0  0  0
   59.5210   25.6454   45.5792 H   0  0  0  0  0  0  0  0  0  0  0  0
   58.1370   24.1310   46.2680 C   0  0  0  0  0  0  0  0  0  0  0  0
   58.9130   23.3554   46.3467 H   0  0  0  0  0  0  0  0  0  0  0  0
   56.8150   23.8290   46.5970 C   0  0  0  0  0  0  0  0  0  0  0  0
   56.5505   22.8166   46.9361 H   0  0  0  0  0  0  0  0  0  0  0  0
   55.8280   24.8110   46.4960 C   0  0  0  0  0  0  0  0  0  0  0  0
   54.7863   24.5692   46.7535 H   0  0  0  0  0  0  0  0  0  0  0  0
   56.1590   26.1030   46.0680 C   0  0  0  0  0  0  0  0  0  0  0  0
   55.1540   27.0620   45.9930 O   0  0  0  0  0  0  0  0  0  0  0  0
   57.4110   30.9740   45.2420 C   0  0  0  0  0  0  0  0  0  0  0  0
   57.4852   30.8562   46.3332 H   0  0  0  0  0  0  0  0  0  0  0  0
   59.2970   34.4660   47.7070 S   0  0  0  0  0  0  0  0  0  0  0  0
   60.7350   34.2260   48.5500 C   0  0  0  0  0  0  0  0  0  0  0  0
   60.8917   34.4079   49.6235 H   0  0  0  0  0  0  0  0  0  0  0  0
  1  2  1  0
  2  3  1  0
  3  4  1  0
  4  5  2  0
  5  6  1  0
  6  7  2  0
  6  8  1  0
  8  9  2  0
  9 10  1  0
  9 11  1  0
 11 12  1  0
 12 13  1  0
 13 14  1  0
 13 15  1  0
 15 16  2  0
 15 17  1  0
 17 18  2  0
 18 19  1  0
 18 20  1  0
 20 21  1  0
 20 22  2  0
 22 23  1  0
 22 24  1  0
 24 25  1  0
 24 26  2  0
 26 27  1  0
 12 28  2  0
 28 29  1  0
  4 30  1  0
 30 31  1  0
 31 32  1  0
 31  2  2  0
 28  8  1  0
 26 17  1  0
M  CHG  2   3  -1  27  -1
M  END
>  <UniqueID>  (19) 
19

>  <SMILES>  (19) 
O=C(/N=c1\[n-]ccs1)c1coc(NC(=O)c2ccccc2[O-])c1

>  <Energy>  (19) 
100.96183351591587

>  <Genealogy>  (19) 
O=C(N=c1[n-]ccs1)c1coc(NC(=O)c2ccccc2[O-])c1 (protonated)
O=C(/N=c1\[n-]ccs1)c1coc(NC(=O)c2ccccc2[O-])c1 (cis-trans isomerization)
O=C(/N=c1\[n-]ccs1)c1coc(NC(=O)c2ccccc2[O-])c1 (3D coordinates assigned)
O=C(/N=c1\[n-]ccs1)c1coc(NC(=O)c2ccccc2[O-])c1 (optimized conformer: 100.96183351591587 kcal/mol)

>  <smiles>  (19) 
O=C(N=c1[nH]ccs1)c1coc(NC(=O)c2ccccc2O)c1

>  <score_type>  (19) 
oracle

>  <origin>  (19) 
adg

>  <m_score__min__energy>  (19) 
-12.18

>  <m_primary>  (19) 
energy

$$$$
19:0
     RDKit          3D

 43 46  0  0  0  0  0  0  0  0999 V2000
   56.3250   30.2920   43.8480 N   0  0  0  0  0  0  0  0  0  0  0  0
   56.9210   29.5730   44.5330 C   0  0  0  0  0  0  0  0  0  0  0  0
   57.6610   28.6720   45.3880 C   0  0  0  0  0  0  0  0  0  0  0  0
   59.0000   28.9340   45.7520 C   0  0  0  0  0  0  0  0  0  0  0  0
   59.7170   30.1890   45.3080 C   0  0  0  0  0  0  0  0  0  0  0  0
   59.1190   31.4030   45.9710 C   0  0  0  0  0  0  0  0  0  0  0  0
   58.2840   32.2700   45.2500 C   0  0  0  0  0  0  0  0  0  0  0  0
   57.7120   33.3780   45.8780 C   0  0  0  0  0  0  0  0  0  0  0  0
   57.9660   33.6320   47.2270 C   0  0  0  0  0  0  0  0  0  0  0  0
   58.8050   32.7740   47.9630 C   0  0  0  0  0  0  0  0  0  0  0  0
   59.0990   32.9830   49.3200 O   0  0  0  0  0  0  0  0  0  0  0  0
   60.2890   33.5920   49.8230 C   0  0  0  0  0  0  0  0  0  0  0  0
   61.4580   33.3130   48.9150 C   0  0  0  0  0  0  0  0  0  0  0  0
   61.6360   34.0690   47.7430 C   0  0  0  0  0  0  0  0  0  0  0  0
   62.7150   33.8080   46.8940 C   0  0  0  0  0  0  0  0  0  0  0  0
   63.6180   32.7860   47.2010 C   0  0  0  0  0  0  0  0  0  0  0  0
   63.4410   32.0220   48.3590 C   0  0  0  0  0  0  0  0  0  0  0  0
   62.3640   32.2810   49.2110 C   0  0  0  0  0  0  0  0  0  0  0  0
   59.3720   31.6630   47.3290 C   0  0  0  0  0  0  0  0  0  0  0  0
   59.6510   28.0520   46.5680 N   0  0  0  0  0  0  0  0  0  0  0  0
   59.0610   26.9440   47.0180 N   0  0  0  0  0  0  0  0  0  0  0  0
   57.7790   26.6400   46.6930 C   0  0  0  0  0  0  0  0  0  0  0  0
   57.1590   25.4800   47.1660 C   0  0  0  0  0  0  0  0  0  0  0  0
   57.7810   24.6770   47.9120 O   0  0  0  0  0  0  0  0  0  0  0  0
   55.8730   25.2170   46.8160 N   0  0  0  0  0  0  0  0  0  0  0  0
   55.1760   26.0630   46.0120 C   0  0  0  0  0  0  0  0  0  0  0  0
   53.9860   25.7970   45.7020 O   0  0  0  0  0  0  0  0  0  0  0  0
   55.7630   27.1960   45.5440 N   0  0  0  0  0  0  0  0  0  0  0  0
   57.0490   27.5050   45.8660 C   0  0  0  0  0  0  0  0  0  0  0  0
   60.7799   30.1143   45.5814 H   0  0  0  0  0  0  0  0  0  0  0  0
   59.6113   30.2915   44.2179 H   0  0  0  0  0  0  0  0  0  0  0  0
   58.0794   32.0761   44.1867 H   0  0  0  0  0  0  0  0  0  0  0  0
   57.0582   34.0539   45.3072 H   0  0  0  0  0  0  0  0  0  0  0  0
   57.5093   34.5050   47.7162 H   0  0  0  0  0  0  0  0  0  0  0  0
   60.1366   34.6793   49.8909 H   0  0  0  0  0  0  0  0  0  0  0  0
   60.5065   33.1729   50.8165 H   0  0  0  0  0  0  0  0  0  0  0  0
   60.9233   34.8689   47.4934 H   0  0  0  0  0  0  0  0  0  0  0  0
   62.8540   34.4079   45.9825 H   0  0  0  0  0  0  0  0  0  0  0  0
   64.4673   32.5828   46.5321 H   0  0  0  0  0  0  0  0  0  0  0  0
   64.1503   31.2163   48.5994 H   0  0  0  0  0  0  0  0  0  0  0  0
   62.2250   31.6739   50.1177 H   0  0  0  0  0  0  0  0  0  0  0  0
   60.0234   30.9851   47.9000 H   0  0  0  0  0  0  0  0  0  0  0  0
   60.6390   28.2360   46.8530 H   0  0  0  0  0  0  0  0  0  0  0  0
  1  2  3  0
  2  3  1  0
  3  4  2  0
  4  5  1  0
  5  6  1  0
  6  7  2  0
  7  8  1  0
  8  9  2  0
  9 10  1  0
 10 11  1  0
 11 12  1  0
 12 13  1  0
 13 14  2  0
 14 15  1  0
 15 16  2  0
 16 17  1  0
 17 18  2  0
 10 19  2  0
  4 20  1  0
 20 21  2  0
 21 22  1  0
 22 23  1  0
 23 24  2  0
 23 25  1  0
 25 26  1  0
 26 27  2  0
 26 28  1  0
 28 29  1  0
 29  3  1  0
 19  6  1  0
 29 22  2  0
 18 13  1  0
  5 30  1  0
  5 31  1  0
  7 32  1  0
  8 33  1  0
  9 34  1  0
 12 35  1  0
 12 36  1  0
 14 37  1  0
 15 38  1  0
 16 39  1  0
 17 40  1  0
 18 41  1  0
 19 42  1  0
 20 43  1  0
M  CHG  3  20   1  25  -1  28  -1
M  END
>  <UniqueID>  (20) 
20

>  <SMILES>  (20) 
N#Cc1c(Cc2cccc(OCc3ccccc3)c2)[nH+]nc2c(=O)[n-]c(=O)[n-]c12

>  <Energy>  (20) 
52.25873956581907

>  <Genealogy>  (20) 
N#Cc1c(Cc2cccc(OCc3ccccc3)c2)[nH+]nc2c(=O)[n-]c(=O)[n-]c12 (protonated)
N#Cc1c(Cc2cccc(OCc3ccccc3)c2)[nH+]nc2c(=O)[n-]c(=O)[n-]c12 (3D coordinates assigned)
N#Cc1c(Cc2cccc(OCc3ccccc3)c2)[nH+]nc2c(=O)[n-]c(=O)[n-]c12 (optimized conformer: 52.25873956581907 kcal/mol)

>  <smiles>  (20) 
N#Cc1c(Cc2cccc(OCc3ccccc3)c2)nnc2c(=O)[nH]c(=O)[nH]c12

>  <score_type>  (20) 
oracle

>  <origin>  (20) 
adg

>  <m_score__min__energy>  (20) 
-12.109999999999999

>  <m_primary>  (20) 
energy

$$$$
20:0
     RDKit          3D

 58 62  0  0  0  0  0  0  0  0999 V2000
   55.1840   29.3430   44.6930 N   0  0  0  0  0  0  0  0  0  0  0  0
   56.8930   29.2340   44.9390 S   0  0  0  0  0  0  0  0  0  0  0  0
   57.1340   28.6780   46.3150 O   0  0  0  0  0  0  0  0  0  0  0  0
   57.4770   28.3080   43.9120 O   0  0  0  0  0  0  0  0  0  0  0  0
   57.6470   30.8330   44.7970 C   0  0  0  0  0  0  0  0  0  0  0  0
   57.2280   31.6940   43.7680 C   0  0  0  0  0  0  0  0  0  0  0  0
   57.7670   32.9760   43.6510 C   0  0  0  0  0  0  0  0  0  0  0  0
   58.7310   33.4150   44.5560 C   0  0  0  0  0  0  0  0  0  0  0  0
   59.1660   32.5710   45.5800 C   0  0  0  0  0  0  0  0  0  0  0  0
   58.6390   31.2750   45.7070 C   0  0  0  0  0  0  0  0  0  0  0  0
   59.1480   30.4160   46.7970 C   0  0  0  0  0  0  0  0  0  0  0  0
   58.8920   30.7470   48.1360 C   0  0  0  0  0  0  0  0  0  0  0  0
   59.3590   29.9290   49.1670 C   0  0  0  0  0  0  0  0  0  0  0  0
   60.0860   28.7670   48.8810 C   0  0  0  0  0  0  0  0  0  0  0  0
   60.5270   27.9480   49.9720 N   0  0  0  0  0  0  0  0  0  0  0  0
   60.7670   28.3680   51.3230 C   0  0  0  0  0  0  0  0  0  0  0  0
   61.9430   28.4960   51.7570 O   0  0  0  0  0  0  0  0  0  0  0  0
   59.6080   28.6420   52.2380 C   0  0  1  0  0  0  0  0  0  0  0  0
   59.8220   29.8760   53.1380 C   0  0  0  0  0  0  0  0  0  0  0  0
   58.6130   30.6920   52.8200 C   0  0  0  0  0  0  0  0  0  0  0  0
   58.2590   31.9520   53.4880 C   0  0  0  0  0  0  0  0  0  0  0  0
   57.3800   31.9530   54.3900 O   0  0  0  0  0  0  0  0  0  0  0  0
   58.8940   33.1740   53.0950 N   0  0  0  0  0  0  0  0  0  0  0  0
   58.7850   33.7470   51.7580 C   0  0  0  0  0  0  0  0  0  0  0  0
   59.9470   33.3220   50.9030 C   0  0  0  0  0  0  0  0  0  0  0  0
   60.9290   32.4560   51.4140 C   0  0  0  0  0  0  0  0  0  0  0  0
   62.0090   32.0630   50.6210 C   0  0  0  0  0  0  0  0  0  0  0  0
   62.1210   32.5300   49.3080 C   0  0  0  0  0  0  0  0  0  0  0  0
   63.1820   32.1620   48.5390 N   0  0  0  0  0  0  0  0  0  0  0  0
   63.3280   32.6080   47.2630 C   0  0  0  0  0  0  0  0  0  0  0  0
   62.3780   33.4640   46.7040 C   0  0  0  0  0  0  0  0  0  0  0  0
   61.2750   33.8590   47.4650 C   0  0  0  0  0  0  0  0  0  0  0  0
   61.1350   33.3940   48.7800 C   0  0  0  0  0  0  0  0  0  0  0  0
   60.0490   33.7780   49.5780 C   0  0  0  0  0  0  0  0  0  0  0  0
   57.8820   30.1610   51.9030 N   0  0  0  0  0  0  0  0  0  0  0  0
   58.4420   28.9770   51.5010 O   0  0  0  0  0  0  0  0  0  0  0  0
   60.3050   28.4100   47.5370 C   0  0  0  0  0  0  0  0  0  0  0  0
   59.8460   29.2330   46.5040 C   0  0  0  0  0  0  0  0  0  0  0  0
   60.0800   28.8740   45.2150 F   0  0  0  0  0  0  0  0  0  0  0  0
   54.7370   29.3590   45.6380 H   0  0  0  0  0  0  0  0  0  0  0  0
   56.4685   31.3543   43.0485 H   0  0  0  0  0  0  0  0  0  0  0  0
   57.4300   33.6413   42.8425 H   0  0  0  0  0  0  0  0  0  0  0  0
   59.1501   34.4279   44.4638 H   0  0  0  0  0  0  0  0  0  0  0  0
   59.9267   32.9235   46.2922 H   0  0  0  0  0  0  0  0  0  0  0  0
   58.3203   31.6558   48.3751 H   0  0  0  0  0  0  0  0  0  0  0  0
   59.1539   30.2000   50.2132 H   0  0  0  0  0  0  0  0  0  0  0  0
   59.5117   27.7183   52.8275 H   0  0  0  0  0  0  0  0  0  0  0  0
   59.8498   29.5972   54.2017 H   0  0  0  0  0  0  0  0  0  0  0  0
   60.7738   30.3986   52.9623 H   0  0  0  0  0  0  0  0  0  0  0  0
   57.8493   33.4035   51.2928 H   0  0  0  0  0  0  0  0  0  0  0  0
   58.7887   34.8438   51.8411 H   0  0  0  0  0  0  0  0  0  0  0  0
   60.8461   32.0851   52.4463 H   0  0  0  0  0  0  0  0  0  0  0  0
   62.7727   31.3851   51.0299 H   0  0  0  0  0  0  0  0  0  0  0  0
   64.1984   32.2929   46.6688 H   0  0  0  0  0  0  0  0  0  0  0  0
   62.4968   33.8250   45.6718 H   0  0  0  0  0  0  0  0  0  0  0  0
   60.5194   34.5322   47.0340 H   0  0  0  0  0  0  0  0  0  0  0  0
   59.2730   34.4394   49.1652 H   0  0  0  0  0  0  0  0  0  0  0  0
   60.8399   27.4789   47.2983 H   0  0  0  0  0  0  0  0  0  0  0  0
  1  2  1  0
  2  3  2  0
  2  4  2  0
  2  5  1  0
  5  6  2  0
  6  7  1  0
  7  8  2  0
  8  9  1  0
  9 10  2  0
 10 11  1  0
 11 12  2  0
 12 13  1  0
 13 14  2  0
 14 15  1  0
 15 16  1  0
 16 17  2  0
 16 18  1  0
 18 19  1  0
 19 20  1  0
 20 21  1  0
 21 22  2  0
 21 23  1  0
 23 24  1  0
 24 25  1  0
 25 26  2  0
 26 27  1  0
 27 28  2  0
 28 29  1  0
 29 30  2  0
 30 31  1  0
 31 32  2  0
 32 33  1  0
 33 34  2  0
 20 35  2  0
 35 36  1  0
 14 37  1  0
 37 38  2  0
 38 39  1  0
 10  5  1  0
 38 11  1  0
 36 18  1  0
 34 25  1  0
 33 28  1  0
  1 40  1  0
  6 41  1  0
  7 42  1  0
  8 43  1  0
  9 44  1  0
 12 45  1  0
 13 46  1  0
 18 47  1  1
 19 48  1  0
 19 49  1  0
 24 50  1  0
 24 51  1  0
 26 52  1  0
 27 53  1  0
 30 54  1  0
 31 55  1  0
 32 56  1  0
 34 57  1  0
 37 58  1  0
M  CHG  3   1  -1  15  -1  23  -1
M  END
>  <UniqueID>  (21) 
21

>  <SMILES>  (21) 
[NH-]S(=O)(=O)c1ccccc1-c1ccc([N-]C(=O)[C@H]2CC(C(=O)[N-]Cc3ccc4ncccc4c3)=NO2)cc1F

>  <Energy>  (21) 
89.97844169574148

>  <Genealogy>  (21) 
[NH-]S(=O)(=O)c1ccccc1-c1ccc([N-]C(=O)C2CC(C(=O)[N-]Cc3ccc4ncccc4c3)=NO2)cc1F (protonated)
[NH-]S(=O)(=O)c1ccccc1-c1ccc([N-]C(=O)[C@H]2CC(C(=O)[N-]Cc3ccc4ncccc4c3)=NO2)cc1F (chirality)
[NH-]S(=O)(=O)c1ccccc1-c1ccc([N-]C(=O)[C@H]2CC(C(=O)[N-]Cc3ccc4ncccc4c3)=NO2)cc1F (3D coordinates assigned)
[NH-]S(=O)(=O)c1ccccc1-c1ccc([N-]C(=O)[C@H]2CC(C(=O)[N-]Cc3ccc4ncccc4c3)=NO2)cc1F (nonaromatic ring conformer: 89.97844169574148 kcal/mol)

>  <smiles>  (21) 
NS(=O)(=O)c1ccccc1-c1ccc(NC(=O)C2CC(C(=O)NCc3ccc4ncccc4c3)=NO2)cc1F

>  <score_type>  (21) 
oracle

>  <origin>  (21) 
adg

>  <m_score__min__energy>  (21) 
-14.470000000000001

>  <m_primary>  (21) 
energy

$$$$
21:0
     RDKit          3D

 44 46  0  0  0  0  0  0  0  0999 V2000
   59.1760   28.1720   48.3100 O   0  0  0  0  0  0  0  0  0  0  0  0
   58.7040   27.8350   47.1920 C   0  0  0  0  0  0  0  0  0  0  0  0
   59.4950   28.0680   45.9460 C   0  0  0  0  0  0  0  0  0  0  0  0
   58.6780   28.8700   44.9710 C   0  0  0  0  0  0  0  0  0  0  0  0
   57.7460   28.2310   44.1400 C   0  0  0  0  0  0  0  0  0  0  0  0
   56.9490   28.9790   43.2710 C   0  0  0  0  0  0  0  0  0  0  0  0
   57.0760   30.3700   43.2250 C   0  0  0  0  0  0  0  0  0  0  0  0
   58.0060   31.0260   44.0480 C   0  0  0  0  0  0  0  0  0  0  0  0
   58.1380   32.5020   44.0100 C   0  0  0  0  0  0  0  0  0  0  0  0
   58.0650   33.0970   42.9000 O   0  0  0  0  0  0  0  0  0  0  0  0
   58.3750   33.2650   45.2070 N   0  0  0  0  0  0  0  0  0  0  0  0
   59.2680   34.4300   45.1390 C   0  0  0  0  0  0  0  0  0  0  0  0
   59.4110   35.1160   46.5040 C   0  0  0  0  0  0  0  0  0  0  0  0
   59.6110   34.0710   47.6060 C   0  0  0  0  0  0  0  0  0  0  0  0
   58.4550   33.0500   47.6760 C   0  0  0  0  0  0  0  0  0  0  0  0
   57.5730   33.0260   46.4170 C   0  0  0  0  0  0  0  0  0  0  0  0
   58.7920   30.2700   44.9350 C   0  0  0  0  0  0  0  0  0  0  0  0
   57.4270   27.1910   47.1090 N   0  0  0  0  0  0  0  0  0  0  0  0
   57.1220   26.0710   46.5120 C   0  0  0  0  0  0  0  0  0  0  0  0
   58.1110   25.1480   46.3600 N   0  0  0  0  0  0  0  0  0  0  0  0
   57.9080   23.9470   45.7560 C   0  0  0  0  0  0  0  0  0  0  0  0
   56.6510   23.6250   45.2510 C   0  0  0  0  0  0  0  0  0  0  0  0
   55.6140   24.5490   45.3660 C   0  0  0  0  0  0  0  0  0  0  0  0
   55.8360   25.7860   45.9800 C   0  0  0  0  0  0  0  0  0  0  0  0
   54.7950   26.7070   46.0080 O   0  0  0  0  0  0  0  0  0  0  0  0
   60.4140   28.6194   46.1938 H   0  0  0  0  0  0  0  0  0  0  0  0
   59.7564   27.1001   45.4935 H   0  0  0  0  0  0  0  0  0  0  0  0
   57.6425   27.1364   44.1730 H   0  0  0  0  0  0  0  0  0  0  0  0
   56.2199   28.4725   42.6215 H   0  0  0  0  0  0  0  0  0  0  0  0
   56.4439   30.9545   42.5402 H   0  0  0  0  0  0  0  0  0  0  0  0
   60.2609   34.0988   44.8008 H   0  0  0  0  0  0  0  0  0  0  0  0
   58.8331   35.1547   44.4349 H   0  0  0  0  0  0  0  0  0  0  0  0
   60.2795   35.7907   46.4818 H   0  0  0  0  0  0  0  0  0  0  0  0
   58.4951   35.6875   46.7149 H   0  0  0  0  0  0  0  0  0  0  0  0
   60.5480   33.5288   47.4109 H   0  0  0  0  0  0  0  0  0  0  0  0
   59.6420   34.6041   48.5677 H   0  0  0  0  0  0  0  0  0  0  0  0
   58.8854   32.0476   47.8174 H   0  0  0  0  0  0  0  0  0  0  0  0
   57.8099   33.3525   48.5141 H   0  0  0  0  0  0  0  0  0  0  0  0
   57.0861   32.0428   46.3375 H   0  0  0  0  0  0  0  0  0  0  0  0
   56.8198   33.8232   46.5014 H   0  0  0  0  0  0  0  0  0  0  0  0
   59.5010   30.7778   45.6054 H   0  0  0  0  0  0  0  0  0  0  0  0
   58.7370   23.2295   45.6663 H   0  0  0  0  0  0  0  0  0  0  0  0
   56.4784   22.6525   44.7668 H   0  0  0  0  0  0  0  0  0  0  0  0
   54.6165   24.3044   44.9721 H   0  0  0  0  0  0  0  0  0  0  0  0
  1  2  2  0
  2  3  1  0
  3  4  1  0
  4  5  2  0
  5  6  1  0
  6  7  2  0
  7  8  1  0
  8  9  1  0
  9 10  2  0
  9 11  1  0
 11 12  1  0
 12 13  1  0
 13 14  1  0
 14 15  1  0
 15 16  1  0
  8 17  2  0
  2 18  1  0
 18 19  2  3
 19 20  1  0
 20 21  1  0
 21 22  2  0
 22 23  1  0
 23 24  2  0
 24 25  1  0
 17  4  1  0
 24 19  1  0
 16 11  1  0
  3 26  1  0
  3 27  1  0
  5 28  1  0
  6 29  1  0
  7 30  1  0
 12 31  1  0
 12 32  1  0
 13 33  1  0
 13 34  1  0
 14 35  1  0
 14 36  1  0
 15 37  1  0
 15 38  1  0
 16 39  1  0
 16 40  1  0
 17 41  1  0
 21 42  1  0
 22 43  1  0
 23 44  1  0
M  CHG  2  20  -1  25  -1
M  END
>  <UniqueID>  (22) 
22

>  <SMILES>  (22) 
O=C(Cc1cccc(C(=O)N2CCCCC2)c1)N=c1[n-]cccc1[O-]

>  <Energy>  (22) 
60.947541292710916

>  <Genealogy>  (22) 
O=C(Cc1cccc(C(=O)N2CCCCC2)c1)N=c1[n-]cccc1[O-] (protonated)
O=C(Cc1cccc(C(=O)N2CCCCC2)c1)N=c1[n-]cccc1[O-] (3D coordinates assigned)
O=C(Cc1cccc(C(=O)N2CCCCC2)c1)N=c1[n-]cccc1[O-] (nonaromatic ring conformer: 60.947541292710916 kcal/mol)

>  <smiles>  (22) 
O=C(Cc1cccc(C(=O)N2CCCCC2)c1)N=c1[nH]cccc1O

>  <score_type>  (22) 
oracle

>  <origin>  (22) 
adg

>  <m_score__min__energy>  (22) 
-14.720000000000001

>  <m_primary>  (22) 
energy

$$$$
22:0
     RDKit          3D

 49 52  0  0  0  0  0  0  0  0999 V2000
   53.6580   26.7290   46.3730 H   0  0  0  0  0  0  0  0  0  0  0  0
   54.1070   25.9370   45.8610 N   0  0  0  0  0  0  0  0  0  0  0  0
   55.5100   25.7040   45.9610 C   0  0  0  0  0  0  0  0  0  0  0  0
   55.9450   24.5220   46.0340 O   0  0  0  0  0  0  0  0  0  0  0  0
   56.4420   26.8360   45.9750 C   0  0  0  0  0  0  0  0  0  0  0  0
   56.2330   27.9880   45.3050 N   0  0  0  0  0  0  0  0  0  0  0  0
   57.2610   28.7910   45.5390 N   0  0  0  0  0  0  0  0  0  0  0  0
   57.4760   29.9700   44.7510 C   0  0  0  0  0  0  0  0  0  0  0  0
   57.0250   30.0270   43.4230 C   0  0  0  0  0  0  0  0  0  0  0  0
   56.5586   29.1430   42.9637 H   0  0  0  0  0  0  0  0  0  0  0  0
   57.1670   31.2050   42.6820 C   0  0  0  0  0  0  0  0  0  0  0  0
   56.8062   31.2482   41.6438 H   0  0  0  0  0  0  0  0  0  0  0  0
   57.7670   32.3270   43.2600 C   0  0  0  0  0  0  0  0  0  0  0  0
   57.8933   33.2478   42.6716 H   0  0  0  0  0  0  0  0  0  0  0  0
   58.2070   32.2790   44.5870 C   0  0  0  0  0  0  0  0  0  0  0  0
   58.6776   33.1629   45.0424 H   0  0  0  0  0  0  0  0  0  0  0  0
   58.0490   31.1080   45.3350 C   0  0  0  0  0  0  0  0  0  0  0  0
   58.3755   31.0800   46.3851 H   0  0  0  0  0  0  0  0  0  0  0  0
   58.1290   28.1480   46.3640 C   0  0  0  0  0  0  0  0  0  0  0  0
   59.2260   28.6270   46.8820 N   0  0  0  0  0  0  0  0  0  0  0  0
   60.0270   28.0730   47.9350 C   0  0  0  0  0  0  0  0  0  0  0  0
   60.7600   27.0740   47.6960 O   0  0  0  0  0  0  0  0  0  0  0  0
   60.1080   28.7510   49.2600 C   0  0  0  0  0  0  0  0  0  0  0  0
   59.5950   30.0620   49.4460 C   0  0  0  0  0  0  0  0  0  0  0  0
   59.0960   30.8280   48.3370 N   0  0  0  0  0  0  0  0  0  0  0  0
   58.3350   30.4080   47.7630 H   0  0  0  0  0  0  0  0  0  0  0  0
   59.6130   32.1090   47.9370 C   0  0  0  0  0  0  0  0  0  0  0  0
   58.7700   33.2180   47.7600 C   0  0  0  0  0  0  0  0  0  0  0  0
   57.6904   33.1204   47.9468 H   0  0  0  0  0  0  0  0  0  0  0  0
   59.2960   34.4440   47.3480 C   0  0  0  0  0  0  0  0  0  0  0  0
   58.6307   35.3107   47.2207 H   0  0  0  0  0  0  0  0  0  0  0  0
   60.6630   34.5740   47.0970 C   0  0  0  0  0  0  0  0  0  0  0  0
   61.0699   35.5452   46.7788 H   0  0  0  0  0  0  0  0  0  0  0  0
   61.5230   33.4730   47.2480 C   0  0  0  0  0  0  0  0  0  0  0  0
   62.9730   33.6040   46.9720 C   0  0  0  0  0  0  0  0  0  0  0  0
   63.3750   34.2550   45.9700 O   0  0  0  0  0  0  0  0  0  0  0  0
   63.9340   32.9980   47.8350 N   0  0  0  0  0  0  0  0  0  0  0  0
   64.6110   32.2900   47.4740 H   0  0  0  0  0  0  0  0  0  0  0  0
   60.9850   32.2410   47.6650 C   0  0  0  0  0  0  0  0  0  0  0  0
   61.6474   31.3703   47.7794 H   0  0  0  0  0  0  0  0  0  0  0  0
   59.6690   30.6590   50.7130 C   0  0  0  0  0  0  0  0  0  0  0  0
   59.2857   31.6790   50.8640 H   0  0  0  0  0  0  0  0  0  0  0  0
   60.2270   29.9610   51.7780 C   0  0  0  0  0  0  0  0  0  0  0  0
   60.2791   30.4262   52.7734 H   0  0  0  0  0  0  0  0  0  0  0  0
   60.7070   28.7070   51.5900 N   0  0  0  0  0  0  0  0  0  0  0  0
   60.6640   28.0890   50.3820 C   0  0  0  0  0  0  0  0  0  0  0  0
   61.1130   26.9170   50.2880 O   0  0  0  0  0  0  0  0  0  0  0  0
   57.6520   26.8870   46.6410 C   0  0  0  0  0  0  0  0  0  0  0  0
   58.1240   26.1024   47.2506 H   0  0  0  0  0  0  0  0  0  0  0  0
  1  2  1  0
  2  3  1  0
  3  4  2  0
  3  5  1  0
  5  6  1  0
  6  7  1  0
  7  8  1  0
  8  9  2  0
  9 10  1  0
  9 11  1  0
 11 12  1  0
 11 13  2  0
 13 14  1  0
 13 15  1  0
 15 16  1  0
 15 17  2  0
 17 18  1  0
  7 19  1  0
 19 20  2  0
 20 21  1  0
 21 22  2  0
 21 23  1  0
 23 24  2  0
 24 25  1  0
 25 26  1  0
 25 27  1  0
 27 28  2  0
 28 29  1  0
 28 30  1  0
 30 31  1  0
 30 32  2  0
 32 33  1  0
 32 34  1  0
 34 35  1  0
 35 36  2  0
 35 37  1  0
 37 38  1  0
 34 39  2  0
 39 40  1  0
 24 41  1  0
 41 42  1  0
 41 43  2  0
 43 44  1  0
 43 45  1  0
 45 46  1  0
 46 47  2  0
 19 48  1  0
 48 49  1  0
 48  5  2  0
 17  8  1  0
 46 23  1  0
 39 27  1  0
M  CHG  4   2  -1   6  -1  37  -1  45  -1
M  END
>  <UniqueID>  (23) 
23

>  <SMILES>  (23) 
[NH-]C(=O)c1cccc(Nc2cc[n-]c(=O)c2C(=O)/N=c2/cc(C([NH-])=O)[n-]n2-c2ccccc2)c1

>  <Energy>  (23) 
110.32791732240739

>  <Genealogy>  (23) 
[NH-]C(=O)c1cccc(Nc2cc[n-]c(=O)c2C(=O)N=c2cc(C([NH-])=O)[n-]n2-c2ccccc2)c1 (protonated)
[NH-]C(=O)c1cccc(Nc2cc[n-]c(=O)c2C(=O)/N=c2/cc(C([NH-])=O)[n-]n2-c2ccccc2)c1 (cis-trans isomerization)
[NH-]C(=O)c1cccc(Nc2cc[n-]c(=O)c2C(=O)/N=c2/cc(C([NH-])=O)[n-]n2-c2ccccc2)c1 (3D coordinates assigned)
[NH-]C(=O)c1cccc(Nc2cc[n-]c(=O)c2C(=O)/N=c2/cc(C([NH-])=O)[n-]n2-c2ccccc2)c1 (optimized conformer: 110.32791732240739 kcal/mol)

>  <smiles>  (23) 
NC(=O)c1cccc(Nc2cc[nH]c(=O)c2C(=O)N=c2cc(C(N)=O)[nH]n2-c2ccccc2)c1

>  <score_type>  (23) 
oracle

>  <origin>  (23) 
adg

>  <m_score__min__energy>  (23) 
-17.91

>  <m_primary>  (23) 
energy

$$$$
23:0
     RDKit          3D

 49 51  0  0  0  0  0  0  0  0999 V2000
   56.5210   30.1740   42.9480 O   0  0  0  0  0  0  0  0  0  0  0  0
   56.6680   30.3420   44.1900 C   0  0  0  0  0  0  0  0  0  0  0  0
   56.1140   29.3920   45.1050 N   0  0  0  0  0  0  0  0  0  0  0  0
   56.6220   28.0330   45.2460 C   0  0  0  0  0  0  0  0  0  0  0  0
   57.7500   28.0030   46.2750 C   0  0  0  0  0  0  0  0  0  0  0  0
   59.3860   28.2360   45.4880 S   0  0  0  0  0  0  0  0  0  0  0  0
   60.1090   29.1370   46.8620 C   0  0  0  0  0  0  0  0  0  0  0  0
   61.0290   30.1650   46.6170 C   0  0  0  0  0  0  0  0  0  0  0  0
   61.5930   30.8710   47.6850 C   0  0  0  0  0  0  0  0  0  0  0  0
   61.2470   30.5440   48.9990 C   0  0  0  0  0  0  0  0  0  0  0  0
   60.3400   29.5080   49.2470 C   0  0  0  0  0  0  0  0  0  0  0  0
   59.7730   28.8030   48.1820 C   0  0  0  0  0  0  0  0  0  0  0  0
   57.4200   31.5140   44.6980 C   0  0  0  0  0  0  0  0  0  0  0  0
   57.8100   31.5850   46.0480 C   0  0  0  0  0  0  0  0  0  0  0  0
   58.5070   32.6980   46.5290 C   0  0  0  0  0  0  0  0  0  0  0  0
   58.8240   33.7610   45.6720 C   0  0  0  0  0  0  0  0  0  0  0  0
   59.5730   34.9610   46.1850 C   0  0  0  0  0  0  0  0  0  0  0  0
   60.4170   34.5930   47.3190 N   0  0  0  0  0  0  0  0  0  0  0  0
   61.7460   34.0730   47.1470 C   0  0  0  0  0  0  0  0  0  0  0  0
   62.1740   33.8370   45.9840 O   0  0  0  0  0  0  0  0  0  0  0  0
   62.6160   33.7840   48.3150 C   0  0  0  0  0  0  0  0  0  0  0  0
   62.1760   34.1010   49.6150 C   0  0  0  0  0  0  0  0  0  0  0  0
   62.9870   33.8360   50.7220 C   0  0  0  0  0  0  0  0  0  0  0  0
   64.2390   33.2430   50.5500 C   0  0  0  0  0  0  0  0  0  0  0  0
   64.6800   32.9100   49.2670 C   0  0  0  0  0  0  0  0  0  0  0  0
   63.8750   33.1740   48.1550 C   0  0  0  0  0  0  0  0  0  0  0  0
   58.4520   33.6880   44.3210 C   0  0  0  0  0  0  0  0  0  0  0  0
   57.7550   32.5750   43.8380 C   0  0  0  0  0  0  0  0  0  0  0  0
   55.8078   27.3721   45.5781 H   0  0  0  0  0  0  0  0  0  0  0  0
   57.0085   27.6887   44.2754 H   0  0  0  0  0  0  0  0  0  0  0  0
   57.5876   28.8085   47.0063 H   0  0  0  0  0  0  0  0  0  0  0  0
   57.7415   27.0189   46.7664 H   0  0  0  0  0  0  0  0  0  0  0  0
   61.3082   30.4173   45.5834 H   0  0  0  0  0  0  0  0  0  0  0  0
   62.3087   31.6834   47.4906 H   0  0  0  0  0  0  0  0  0  0  0  0
   61.6880   31.1014   49.8386 H   0  0  0  0  0  0  0  0  0  0  0  0
   60.0728   29.2480   50.2819 H   0  0  0  0  0  0  0  0  0  0  0  0
   59.0632   27.9861   48.3790 H   0  0  0  0  0  0  0  0  0  0  0  0
   57.5647   30.7582   46.7308 H   0  0  0  0  0  0  0  0  0  0  0  0
   58.8082   32.7395   47.5861 H   0  0  0  0  0  0  0  0  0  0  0  0
   60.2047   35.3644   45.3799 H   0  0  0  0  0  0  0  0  0  0  0  0
   58.8467   35.7188   46.5141 H   0  0  0  0  0  0  0  0  0  0  0  0
   59.9930   34.6520   48.2710 H   0  0  0  0  0  0  0  0  0  0  0  0
   61.1871   34.5604   49.7600 H   0  0  0  0  0  0  0  0  0  0  0  0
   62.6376   34.0956   51.7322 H   0  0  0  0  0  0  0  0  0  0  0  0
   64.8767   33.0384   51.4226 H   0  0  0  0  0  0  0  0  0  0  0  0
   65.6644   32.4383   49.1312 H   0  0  0  0  0  0  0  0  0  0  0  0
   64.2273   32.9035   47.1487 H   0  0  0  0  0  0  0  0  0  0  0  0
   58.7098   34.5105   43.6376 H   0  0  0  0  0  0  0  0  0  0  0  0
   57.4669   32.5296   42.7774 H   0  0  0  0  0  0  0  0  0  0  0  0
  1  2  2  0
  2  3  1  0
  3  4  1  0
  4  5  1  0
  5  6  1  0
  6  7  1  0
  7  8  2  0
  8  9  1  0
  9 10  2  0
 10 11  1  0
 11 12  2  0
  2 13  1  0
 13 14  2  0
 14 15  1  0
 15 16  2  0
 16 17  1  0
 17 18  1  0
 18 19  1  0
 19 20  2  0
 19 21  1  0
 21 22  2  0
 22 23  1  0
 23 24  2  0
 24 25  1  0
 25 26  2  0
 16 27  1  0
 27 28  2  0
 12  7  1  0
 28 13  1  0
 26 21  1  0
  4 29  1  0
  4 30  1  0
  5 31  1  0
  5 32  1  0
  8 33  1  0
  9 34  1  0
 10 35  1  0
 11 36  1  0
 12 37  1  0
 14 38  1  0
 15 39  1  0
 17 40  1  0
 17 41  1  0
 18 42  1  0
 22 43  1  0
 23 44  1  0
 24 45  1  0
 25 46  1  0
 26 47  1  0
 27 48  1  0
 28 49  1  0
M  CHG  1   3  -1
M  END
>  <UniqueID>  (24) 
24

>  <SMILES>  (24) 
O=C([N-]CCSc1ccccc1)c1ccc(CNC(=O)c2ccccc2)cc1

>  <Energy>  (24) 
44.85330193269277

>  <Genealogy>  (24) 
O=C([N-]CCSc1ccccc1)c1ccc(CNC(=O)c2ccccc2)cc1 (protonated)
O=C([N-]CCSc1ccccc1)c1ccc(CNC(=O)c2ccccc2)cc1 (3D coordinates assigned)
O=C([N-]CCSc1ccccc1)c1ccc(CNC(=O)c2ccccc2)cc1 (optimized conformer: 44.85330193269277 kcal/mol)

>  <smiles>  (24) 
O=C(NCCSc1ccccc1)c1ccc(CNC(=O)c2ccccc2)cc1

>  <score_type>  (24) 
oracle

>  <origin>  (24) 
adg

>  <m_score__min__energy>  (24) 
-10.1

>  <m_primary>  (24) 
energy

$$$$
24:0
     RDKit          3D

 45 47  0  0  0  0  0  0  0  0999 V2000
   52.5920   24.0860   45.2980 C   0  0  0  0  0  0  0  0  0  0  0  0
   53.9140   24.7610   45.4460 C   0  0  0  0  0  0  0  0  0  0  0  0
   55.1410   24.2290   45.1100 C   0  0  0  0  0  0  0  0  0  0  0  0
   56.0130   25.2310   45.4710 C   0  0  0  0  0  0  0  0  0  0  0  0
   57.3010   25.1740   45.3310 N   0  0  0  0  0  0  0  0  0  0  0  0
   58.4080   25.6560   46.5750 S   0  0  0  0  0  0  0  0  0  0  0  0
   57.8560   25.2390   47.9100 O   0  0  0  0  0  0  0  0  0  0  0  0
   59.7270   24.9720   46.3550 O   0  0  0  0  0  0  0  0  0  0  0  0
   58.6510   27.4000   46.5230 C   0  0  0  0  0  0  0  0  0  0  0  0
   59.7950   27.9760   47.0900 C   0  0  0  0  0  0  0  0  0  0  0  0
   59.9720   29.3610   47.0550 C   0  0  0  0  0  0  0  0  0  0  0  0
   59.0160   30.1770   46.4440 C   0  0  0  0  0  0  0  0  0  0  0  0
   57.8800   29.6060   45.8430 C   0  0  0  0  0  0  0  0  0  0  0  0
   56.8680   30.4100   45.2200 N   0  0  0  0  0  0  0  0  0  0  0  0
   57.0710   31.6790   44.5900 C   0  0  0  0  0  0  0  0  0  0  0  0
   57.6700   31.7240   43.4830 O   0  0  0  0  0  0  0  0  0  0  0  0
   56.6450   32.8870   45.2300 N   0  0  0  0  0  0  0  0  0  0  0  0
   57.5310   33.7670   45.9870 C   0  0  0  0  0  0  0  0  0  0  0  0
   58.7910   34.0900   45.1670 C   0  0  0  0  0  0  0  0  0  0  0  0
   59.7200   35.0700   45.9120 C   0  0  0  0  0  0  0  0  0  0  0  0
   59.6180   34.9680   47.4480 C   0  0  0  0  0  0  0  0  0  0  0  0
   59.2610   33.5470   47.8960 C   0  0  0  0  0  0  0  0  0  0  0  0
   57.9010   33.0890   47.3260 C   0  0  0  0  0  0  0  0  0  0  0  0
   57.6940   28.2190   45.9070 C   0  0  0  0  0  0  0  0  0  0  0  0
   55.3460   26.2800   45.9910 N   0  0  0  0  0  0  0  0  0  0  0  0
   54.0850   25.9580   45.9610 O   0  0  0  0  0  0  0  0  0  0  0  0
   52.1754   23.8733   46.2936 H   0  0  0  0  0  0  0  0  0  0  0  0
   51.9044   24.7434   44.7456 H   0  0  0  0  0  0  0  0  0  0  0  0
   52.7213   23.1436   44.7456 H   0  0  0  0  0  0  0  0  0  0  0  0
   55.3666   23.2488   44.6647 H   0  0  0  0  0  0  0  0  0  0  0  0
   60.5549   27.3368   47.5634 H   0  0  0  0  0  0  0  0  0  0  0  0
   60.8668   29.8110   47.5098 H   0  0  0  0  0  0  0  0  0  0  0  0
   59.1524   31.2685   46.4332 H   0  0  0  0  0  0  0  0  0  0  0  0
   57.0152   34.7153   46.1986 H   0  0  0  0  0  0  0  0  0  0  0  0
   59.3394   33.1563   44.9732 H   0  0  0  0  0  0  0  0  0  0  0  0
   58.4757   34.5643   44.2259 H   0  0  0  0  0  0  0  0  0  0  0  0
   60.7583   34.8577   45.6172 H   0  0  0  0  0  0  0  0  0  0  0  0
   59.4069   36.0872   45.6339 H   0  0  0  0  0  0  0  0  0  0  0  0
   60.5855   35.2491   47.8895 H   0  0  0  0  0  0  0  0  0  0  0  0
   58.8204   35.6460   47.7858 H   0  0  0  0  0  0  0  0  0  0  0  0
   60.0435   32.8569   47.5473 H   0  0  0  0  0  0  0  0  0  0  0  0
   59.1897   33.5431   48.9937 H   0  0  0  0  0  0  0  0  0  0  0  0
   57.9395   32.0014   47.1661 H   0  0  0  0  0  0  0  0  0  0  0  0
   57.1313   33.3775   48.0570 H   0  0  0  0  0  0  0  0  0  0  0  0
   56.7901   27.7689   45.4706 H   0  0  0  0  0  0  0  0  0  0  0  0
  1  2  1  0
  2  3  2  0
  3  4  1  0
  4  5  2  3
  5  6  1  0
  6  7  2  0
  6  8  2  0
  6  9  1  0
  9 10  2  0
 10 11  1  0
 11 12  2  0
 12 13  1  0
 13 14  1  0
 14 15  1  0
 15 16  2  0
 15 17  1  0
 17 18  1  0
 18 19  1  0
 19 20  1  0
 20 21  1  0
 21 22  1  0
 22 23  1  0
 13 24  2  0
  4 25  1  0
 25 26  1  0
 26  2  1  0
 24  9  1  0
 23 18  1  0
  1 27  1  0
  1 28  1  0
  1 29  1  0
  3 30  1  0
 10 31  1  0
 11 32  1  0
 12 33  1  0
 18 34  1  0
 19 35  1  0
 19 36  1  0
 20 37  1  0
 20 38  1  0
 21 39  1  0
 21 40  1  0
 22 41  1  0
 22 42  1  0
 23 43  1  0
 23 44  1  0
 24 45  1  0
M  CHG  3  14  -1  17  -1  25  -1
M  END
>  <UniqueID>  (25) 
25

>  <SMILES>  (25) 
Cc1cc(=NS(=O)(=O)c2cccc([N-]C(=O)[N-]C3CCCCC3)c2)[n-]o1

>  <Energy>  (25) 
81.33620702555196

>  <Genealogy>  (25) 
Cc1cc(=NS(=O)(=O)c2cccc([N-]C(=O)[N-]C3CCCCC3)c2)[n-]o1 (protonated)
Cc1cc(=NS(=O)(=O)c2cccc([N-]C(=O)[N-]C3CCCCC3)c2)[n-]o1 (3D coordinates assigned)
Cc1cc(=NS(=O)(=O)c2cccc([N-]C(=O)[N-]C3CCCCC3)c2)[n-]o1 (nonaromatic ring conformer: 81.33620702555196 kcal/mol)

>  <smiles>  (25) 
Cc1cc(=NS(=O)(=O)c2cccc(NC(=O)NC3CCCCC3)c2)[nH]o1

>  <score_type>  (25) 
oracle

>  <origin>  (25) 
adg

>  <m_score__min__energy>  (25) 
-14.220000000000001

>  <m_primary>  (25) 
energy

$$$$
25:0
     RDKit          3D

 30 31  0  0  0  0  0  0  0  0999 V2000
   55.1490   29.3940   44.8860 N   0  0  0  0  0  0  0  0  0  0  0  0
   56.6690   29.5670   44.0830 S   0  0  0  0  0  0  0  0  0  0  0  0
   56.4380   29.8550   42.6260 O   0  0  0  0  0  0  0  0  0  0  0  0
   57.4470   28.2870   44.2040 O   0  0  0  0  0  0  0  0  0  0  0  0
   57.5740   30.8880   44.8150 C   0  0  0  0  0  0  0  0  0  0  0  0
   58.2580   30.6930   46.0230 C   0  0  0  0  0  0  0  0  0  0  0  0
   58.9650   31.7450   46.6100 C   0  0  0  0  0  0  0  0  0  0  0  0
   58.9870   33.0120   46.0050 C   0  0  0  0  0  0  0  0  0  0  0  0
   59.7440   34.1300   46.6130 C   0  0  0  0  0  0  0  0  0  0  0  0
   59.3720   35.3130   46.3860 O   0  0  0  0  0  0  0  0  0  0  0  0
   60.8930   33.9000   47.4540 N   0  0  0  0  0  0  0  0  0  0  0  0
   60.7230   33.7450   48.9110 C   0  0  0  0  0  0  0  0  0  0  0  0
   61.8670   34.4280   49.6540 C   0  0  0  0  0  0  0  0  0  0  0  0
   63.1320   33.8850   49.1900 N   0  0  0  0  0  0  0  0  0  0  0  0
   63.3310   33.6090   47.8050 C   0  0  0  0  0  0  0  0  0  0  0  0
   64.4530   33.1990   47.4070 O   0  0  0  0  0  0  0  0  0  0  0  0
   62.2210   33.8320   46.8160 C   0  0  0  0  0  0  0  0  0  0  0  0
   58.3110   33.2000   44.7870 C   0  0  0  0  0  0  0  0  0  0  0  0
   57.6020   32.1480   44.2020 C   0  0  0  0  0  0  0  0  0  0  0  0
   55.2850   28.6870   45.6440 H   0  0  0  0  0  0  0  0  0  0  0  0
   58.2379   29.7073   46.5108 H   0  0  0  0  0  0  0  0  0  0  0  0
   59.5080   31.5799   47.5523 H   0  0  0  0  0  0  0  0  0  0  0  0
   59.7694   34.2009   49.2154 H   0  0  0  0  0  0  0  0  0  0  0  0
   60.7250   32.6733   49.1591 H   0  0  0  0  0  0  0  0  0  0  0  0
   61.8378   35.5102   49.4588 H   0  0  0  0  0  0  0  0  0  0  0  0
   61.7634   34.2498   50.7345 H   0  0  0  0  0  0  0  0  0  0  0  0
   62.4060   34.7788   46.2874 H   0  0  0  0  0  0  0  0  0  0  0  0
   62.2141   32.9748   46.1267 H   0  0  0  0  0  0  0  0  0  0  0  0
   58.3404   34.1816   44.2914 H   0  0  0  0  0  0  0  0  0  0  0  0
   57.0636   32.3093   43.2564 H   0  0  0  0  0  0  0  0  0  0  0  0
  1  2  1  0
  2  3  2  0
  2  4  2  0
  2  5  1  0
  5  6  2  0
  6  7  1  0
  7  8  2  0
  8  9  1  0
  9 10  2  0
  9 11  1  0
 11 12  1  0
 12 13  1  0
 13 14  1  0
 14 15  1  0
 15 16  2  0
 15 17  1  0
  8 18  1  0
 18 19  2  0
 19  5  1  0
 17 11  1  0
  1 20  1  0
  6 21  1  0
  7 22  1  0
 12 23  1  0
 12 24  1  0
 13 25  1  0
 13 26  1  0
 17 27  1  0
 17 28  1  0
 18 29  1  0
 19 30  1  0
M  CHG  2   1  -1  14  -1
M  END
>  <UniqueID>  (26) 
26

>  <SMILES>  (26) 
[NH-]S(=O)(=O)c1ccc(C(=O)N2CC[N-]C(=O)C2)cc1

>  <Energy>  (26) 
33.88255016657185

>  <Genealogy>  (26) 
[NH-]S(=O)(=O)c1ccc(C(=O)N2CC[N-]C(=O)C2)cc1 (protonated)
[NH-]S(=O)(=O)c1ccc(C(=O)N2CC[N-]C(=O)C2)cc1 (3D coordinates assigned)
[NH-]S(=O)(=O)c1ccc(C(=O)N2CC[N-]C(=O)C2)cc1 (nonaromatic ring conformer: 33.88255016657185 kcal/mol)

>  <smiles>  (26) 
NS(=O)(=O)c1ccc(C(=O)N2CCNC(=O)C2)cc1

>  <score_type>  (26) 
oracle

>  <origin>  (26) 
adg

>  <m_score__min__energy>  (26) 
-10.699999999999999

>  <m_primary>  (26) 
energy

$$$$
26:0
     RDKit          3D

 28 28  0  0  0  0  0  0  0  0999 V2000
   59.2420   33.8310   51.6730 C   0  0  0  0  0  0  0  0  0  0  0  0
   58.2630   33.1530   52.5310 N   0  0  0  0  0  0  0  0  0  0  0  0
   58.2100   31.7010   52.2870 C   0  0  0  0  0  0  0  0  0  0  0  0
   56.8060   31.2300   51.8610 C   0  0  0  0  0  0  0  0  0  0  0  0
   55.9730   30.7540   53.0550 C   0  0  0  0  0  0  0  0  0  0  0  0
   54.8750   29.3740   52.5780 S   0  0  0  0  0  0  0  0  0  0  0  0
   53.4300   30.4240   52.4070 C   0  0  0  0  0  0  0  0  0  0  0  0
   52.4600   30.4520   53.4150 C   0  0  0  0  0  0  0  0  0  0  0  0
   51.3330   31.2690   53.2800 C   0  0  0  0  0  0  0  0  0  0  0  0
   51.1720   32.0580   52.1360 C   0  0  0  0  0  0  0  0  0  0  0  0
   50.0530   32.8700   52.0020 O   0  0  0  0  0  0  0  0  0  0  0  0
   52.1410   32.0290   51.1260 C   0  0  0  0  0  0  0  0  0  0  0  0
   53.2670   31.2120   51.2600 C   0  0  0  0  0  0  0  0  0  0  0  0
   59.9850   34.3455   52.3001 H   0  0  0  0  0  0  0  0  0  0  0  0
   59.7487   33.0894   51.0379 H   0  0  0  0  0  0  0  0  0  0  0  0
   58.7260   34.5662   51.0379 H   0  0  0  0  0  0  0  0  0  0  0  0
   57.3170   33.5810   52.3890 H   0  0  0  0  0  0  0  0  0  0  0  0
   58.5410   33.3100   53.5270 H   0  0  0  0  0  0  0  0  0  0  0  0
   58.9244   31.4502   51.4891 H   0  0  0  0  0  0  0  0  0  0  0  0
   58.4641   31.1922   53.2286 H   0  0  0  0  0  0  0  0  0  0  0  0
   56.2833   32.0667   51.3744 H   0  0  0  0  0  0  0  0  0  0  0  0
   56.9272   30.3814   51.1717 H   0  0  0  0  0  0  0  0  0  0  0  0
   56.6495   30.4159   53.8538 H   0  0  0  0  0  0  0  0  0  0  0  0
   55.3517   31.5915   53.4052 H   0  0  0  0  0  0  0  0  0  0  0  0
   52.5840   29.8309   54.3144 H   0  0  0  0  0  0  0  0  0  0  0  0
   50.5723   31.2913   54.0742 H   0  0  0  0  0  0  0  0  0  0  0  0
   52.0161   32.6496   50.2264 H   0  0  0  0  0  0  0  0  0  0  0  0
   54.0260   31.1876   50.4642 H   0  0  0  0  0  0  0  0  0  0  0  0
  1  2  1  0
  2  3  1  0
  3  4  1  0
  4  5  1  0
  5  6  1  0
  6  7  1  0
  7  8  2  0
  8  9  1  0
  9 10  2  0
 10 11  1  0
 10 12  1  0
 12 13  2  0
 13  7  1  0
  1 14  1  0
  1 15  1  0
  1 16  1  0
  2 17  1  0
  2 18  1  0
  3 19  1  0
  3 20  1  0
  4 21  1  0
  4 22  1  0
  5 23  1  0
  5 24  1  0
  8 25  1  0
  9 26  1  0
 12 27  1  0
 13 28  1  0
M  CHG  2   2   1  11  -1
M  END
>  <UniqueID>  (27) 
27

>  <SMILES>  (27) 
C[NH2+]CCCSc1ccc([O-])cc1

>  <Energy>  (27) 
18.128238507138626

>  <Genealogy>  (27) 
C[NH2+]CCCSc1ccc([O-])cc1 (protonated)
C[NH2+]CCCSc1ccc([O-])cc1 (3D coordinates assigned)
C[NH2+]CCCSc1ccc([O-])cc1 (optimized conformer: 18.128238507138626 kcal/mol)

>  <smiles>  (27) 
CNCCCSc1ccc(O)cc1

>  <score_type>  (27) 
oracle

>  <origin>  (27) 
adg

>  <m_score__min__energy>  (27) 
-7.3600000000000003

>  <m_primary>  (27) 
energy

$$$$
27:0
     RDKit          3D

 35 37  0  0  0  0  0  0  0  0999 V2000
   55.4550   24.2070   46.7550 O   0  0  0  0  0  0  0  0  0  0  0  0
   55.8820   25.3170   46.3460 C   0  0  0  0  0  0  0  0  0  0  0  0
   55.0580   26.3290   45.9960 N   0  0  0  0  0  0  0  0  0  0  0  0
   55.9170   27.2920   45.6270 C   0  0  0  0  0  0  0  0  0  0  0  0
   55.5260   28.5440   45.1720 O   0  0  0  0  0  0  0  0  0  0  0  0
   57.2130   26.8530   45.7640 C   0  0  0  0  0  0  0  0  0  0  0  0
   58.4590   27.6070   45.4130 C   0  0  0  0  0  0  0  0  0  0  0  0
   59.0790   28.2030   46.6520 C   0  0  0  0  0  0  0  0  0  0  0  0
   59.9890   27.4410   47.4060 C   0  0  0  0  0  0  0  0  0  0  0  0
   60.5520   27.9610   48.5710 C   0  0  0  0  0  0  0  0  0  0  0  0
   60.2120   29.2440   48.9990 C   0  0  0  0  0  0  0  0  0  0  0  0
   59.3040   30.0100   48.2660 C   0  0  0  0  0  0  0  0  0  0  0  0
   58.7210   29.4960   47.0900 C   0  0  0  0  0  0  0  0  0  0  0  0
   57.7900   30.2350   46.3360 O   0  0  0  0  0  0  0  0  0  0  0  0
   58.0670   30.9200   45.1130 C   0  0  0  0  0  0  0  0  0  0  0  0
   58.5320   32.3250   45.3870 C   0  0  0  0  0  0  0  0  0  0  0  0
   59.4700   32.5670   46.4030 C   0  0  0  0  0  0  0  0  0  0  0  0
   59.9170   33.8670   46.6560 C   0  0  0  0  0  0  0  0  0  0  0  0
   59.4230   34.9360   45.9030 C   0  0  0  0  0  0  0  0  0  0  0  0
   58.4780   34.7060   44.8990 C   0  0  0  0  0  0  0  0  0  0  0  0
   58.0300   33.4060   44.6420 C   0  0  0  0  0  0  0  0  0  0  0  0
   57.1990   25.5880   46.2190 N   0  0  0  0  0  0  0  0  0  0  0  0
   59.1779   26.9202   44.9423 H   0  0  0  0  0  0  0  0  0  0  0  0
   58.2009   28.4188   44.7171 H   0  0  0  0  0  0  0  0  0  0  0  0
   60.2587   26.4274   47.0745 H   0  0  0  0  0  0  0  0  0  0  0  0
   61.2650   27.3586   49.1530 H   0  0  0  0  0  0  0  0  0  0  0  0
   60.6604   29.6533   49.9163 H   0  0  0  0  0  0  0  0  0  0  0  0
   59.0416   31.0219   48.6085 H   0  0  0  0  0  0  0  0  0  0  0  0
   58.8531   30.3792   44.5657 H   0  0  0  0  0  0  0  0  0  0  0  0
   57.1459   30.9617   44.5131 H   0  0  0  0  0  0  0  0  0  0  0  0
   59.8552   31.7294   47.0030 H   0  0  0  0  0  0  0  0  0  0  0  0
   60.6581   34.0489   47.4483 H   0  0  0  0  0  0  0  0  0  0  0  0
   59.7779   35.9583   46.1005 H   0  0  0  0  0  0  0  0  0  0  0  0
   58.0861   35.5485   44.3102 H   0  0  0  0  0  0  0  0  0  0  0  0
   57.2826   33.2292   43.8545 H   0  0  0  0  0  0  0  0  0  0  0  0
  1  2  2  0
  2  3  1  0
  3  4  1  0
  4  5  1  0
  4  6  2  0
  6  7  1  0
  7  8  1  0
  8  9  2  0
  9 10  1  0
 10 11  2  0
 11 12  1  0
 12 13  2  0
 13 14  1  0
 14 15  1  0
 15 16  1  0
 16 17  2  0
 17 18  1  0
 18 19  2  0
 19 20  1  0
 20 21  2  0
  6 22  1  0
 22  2  1  0
 13  8  1  0
 21 16  1  0
  7 23  1  0
  7 24  1  0
  9 25  1  0
 10 26  1  0
 11 27  1  0
 12 28  1  0
 15 29  1  0
 15 30  1  0
 17 31  1  0
 18 32  1  0
 19 33  1  0
 20 34  1  0
 21 35  1  0
M  CHG  3   3  -1   5  -1  22  -1
M  END
>  <UniqueID>  (28) 
28

>  <SMILES>  (28) 
O=c1[n-]c([O-])c(Cc2ccccc2OCc2ccccc2)[n-]1

>  <Energy>  (28) 
64.38385534592992

>  <Genealogy>  (28) 
O=c1[n-]c([O-])c(Cc2ccccc2OCc2ccccc2)[n-]1 (protonated)
O=c1[n-]c([O-])c(Cc2ccccc2OCc2ccccc2)[n-]1 (3D coordinates assigned)
O=c1[n-]c([O-])c(Cc2ccccc2OCc2ccccc2)[n-]1 (optimized conformer: 64.38385534592992 kcal/mol)

>  <smiles>  (28) 
O=c1[nH]c(O)c(Cc2ccccc2OCc2ccccc2)[nH]1

>  <score_type>  (28) 
oracle

>  <origin>  (28) 
adg

>  <m_score__min__energy>  (28) 
-15.81

>  <m_primary>  (28) 
energy

$$$$
28:0
     RDKit          3D

 37 39  0  0  0  0  0  0  0  0999 V2000
   55.0120   26.6030   46.1470 N   0  0  0  0  0  0  0  0  0  0  0  0
   56.7230   26.5660   45.9040 S   0  0  0  0  0  0  0  0  0  0  0  0
   57.0290   25.6920   44.7220 O   0  0  0  0  0  0  0  0  0  0  0  0
   57.3770   25.9980   47.1330 O   0  0  0  0  0  0  0  0  0  0  0  0
   57.3470   28.1900   45.6090 C   0  0  0  0  0  0  0  0  0  0  0  0
   58.6950   28.4880   45.8640 C   0  0  0  0  0  0  0  0  0  0  0  0
   59.1950   29.7820   45.6430 C   0  0  0  0  0  0  0  0  0  0  0  0
   60.6220   30.0820   45.9050 C   0  0  0  0  0  0  0  0  0  0  0  0
   61.5040   29.3430   45.3890 O   0  0  0  0  0  0  0  0  0  0  0  0
   61.0250   31.1930   46.7290 N   0  0  0  0  0  0  0  0  0  0  0  0
   60.2390   32.4370   46.7370 C   0  0  0  0  0  0  0  0  0  0  0  0
   60.1270   32.9850   48.1560 C   0  0  0  0  0  0  0  0  0  0  0  0
   61.4970   33.1660   48.7410 C   0  0  0  0  0  0  0  0  0  0  0  0
   61.7540   34.2200   49.6330 C   0  0  0  0  0  0  0  0  0  0  0  0
   63.0250   34.3710   50.1940 C   0  0  0  0  0  0  0  0  0  0  0  0
   64.0400   33.4660   49.8810 C   0  0  0  0  0  0  0  0  0  0  0  0
   63.7880   32.4040   49.0090 C   0  0  0  0  0  0  0  0  0  0  0  0
   62.5200   32.2480   48.4280 C   0  0  0  0  0  0  0  0  0  0  0  0
   62.2540   31.0600   47.5330 C   0  0  0  0  0  0  0  0  0  0  0  0
   58.3380   30.7710   45.1360 C   0  0  0  0  0  0  0  0  0  0  0  0
   56.9970   30.4790   44.8810 C   0  0  0  0  0  0  0  0  0  0  0  0
   56.4980   29.1950   45.1180 C   0  0  0  0  0  0  0  0  0  0  0  0
   55.1580   28.9270   44.8580 O   0  0  0  0  0  0  0  0  0  0  0  0
   54.5680   26.3540   45.2350 H   0  0  0  0  0  0  0  0  0  0  0  0
   59.3655   27.7013   46.2401 H   0  0  0  0  0  0  0  0  0  0  0  0
   60.7344   33.1830   46.0982 H   0  0  0  0  0  0  0  0  0  0  0  0
   59.2294   32.2241   46.3556 H   0  0  0  0  0  0  0  0  0  0  0  0
   59.6088   33.9550   48.1329 H   0  0  0  0  0  0  0  0  0  0  0  0
   59.5586   32.2755   48.7753 H   0  0  0  0  0  0  0  0  0  0  0  0
   60.9529   34.9284   49.8907 H   0  0  0  0  0  0  0  0  0  0  0  0
   63.2256   35.2044   50.8833 H   0  0  0  0  0  0  0  0  0  0  0  0
   65.0403   33.5890   50.3217 H   0  0  0  0  0  0  0  0  0  0  0  0
   64.5881   31.6859   48.7764 H   0  0  0  0  0  0  0  0  0  0  0  0
   63.1069   30.9419   46.8484 H   0  0  0  0  0  0  0  0  0  0  0  0
   62.1199   30.1857   48.1870 H   0  0  0  0  0  0  0  0  0  0  0  0
   58.7250   31.7815   44.9385 H   0  0  0  0  0  0  0  0  0  0  0  0
   56.3302   31.2626   44.4919 H   0  0  0  0  0  0  0  0  0  0  0  0
  1  2  1  0
  2  3  2  0
  2  4  2  0
  2  5  1  0
  5  6  2  0
  6  7  1  0
  7  8  1  0
  8  9  2  0
  8 10  1  0
 10 11  1  0
 11 12  1  0
 12 13  1  0
 13 14  2  0
 14 15  1  0
 15 16  2  0
 16 17  1  0
 17 18  2  0
 18 19  1  0
  7 20  2  0
 20 21  1  0
 21 22  2  0
 22 23  1  0
 22  5  1  0
 19 10  1  0
 18 13  1  0
  1 24  1  0
  6 25  1  0
 11 26  1  0
 11 27  1  0
 12 28  1  0
 12 29  1  0
 14 30  1  0
 15 31  1  0
 16 32  1  0
 17 33  1  0
 19 34  1  0
 19 35  1  0
 20 36  1  0
 21 37  1  0
M  CHG  2   1  -1  23  -1
M  END
>  <UniqueID>  (29) 
29

>  <SMILES>  (29) 
[NH-]S(=O)(=O)c1cc(C(=O)N2CCc3ccccc3C2)ccc1[O-]

>  <Energy>  (29) 
46.77806576287079

>  <Genealogy>  (29) 
[NH-]S(=O)(=O)c1cc(C(=O)N2CCc3ccccc3C2)ccc1[O-] (protonated)
[NH-]S(=O)(=O)c1cc(C(=O)N2CCc3ccccc3C2)ccc1[O-] (3D coordinates assigned)
[NH-]S(=O)(=O)c1cc(C(=O)N2CCc3ccccc3C2)ccc1[O-] (nonaromatic ring conformer: 46.77806576287079 kcal/mol)

>  <smiles>  (29) 
NS(=O)(=O)c1cc(C(=O)N2CCc3ccccc3C2)ccc1O

>  <score_type>  (29) 
oracle

>  <origin>  (29) 
adg

>  <m_score__min__energy>  (29) 
-13.84

>  <m_primary>  (29) 
energy

$$$$
29:0
     RDKit          3D

 43 45  0  0  0  0  0  0  0  0999 V2000
   60.9696   29.1112   46.6268 H   0  0  0  0  0  0  0  0  0  0  0  0
   59.8790   29.2510   46.6600 C   0  0  0  0  0  0  0  0  0  0  0  0
   59.0640   28.3040   47.4390 C   0  0  0  0  0  0  0  0  0  0  0  0
   58.8460   28.5380   48.6580 O   0  0  0  0  0  0  0  0  0  0  0  0
   58.5580   27.1100   46.8350 N   0  0  0  0  0  0  0  0  0  0  0  0
   57.2530   26.5500   47.1530 C   0  0  0  0  0  0  0  0  0  0  0  0
   57.2796   26.1038   48.1581 H   0  0  0  0  0  0  0  0  0  0  0  0
   56.4943   27.3460   47.1275 H   0  0  0  0  0  0  0  0  0  0  0  0
   56.9070   25.4920   46.1430 C   0  0  0  0  0  0  0  0  0  0  0  0
   57.8680   24.5360   45.7680 C   0  0  0  0  0  0  0  0  0  0  0  0
   58.8776   24.5747   46.2031 H   0  0  0  0  0  0  0  0  0  0  0  0
   57.5460   23.5370   44.8450 C   0  0  0  0  0  0  0  0  0  0  0  0
   58.3051   22.7979   44.5493 H   0  0  0  0  0  0  0  0  0  0  0  0
   56.2620   23.4750   44.2970 C   0  0  0  0  0  0  0  0  0  0  0  0
   56.0120   22.6891   43.5691 H   0  0  0  0  0  0  0  0  0  0  0  0
   55.2950   24.4120   44.6740 C   0  0  0  0  0  0  0  0  0  0  0  0
   54.2852   24.3627   44.2405 H   0  0  0  0  0  0  0  0  0  0  0  0
   55.6080   25.4120   45.6010 C   0  0  0  0  0  0  0  0  0  0  0  0
   54.6260   26.3250   45.9770 O   0  0  0  0  0  0  0  0  0  0  0  0
   59.3380   30.2760   45.9910 C   0  0  0  0  0  0  0  0  0  0  0  0
   59.6983   31.2941   46.2002 H   0  0  0  0  0  0  0  0  0  0  0  0
   58.2740   30.0910   44.9810 C   0  0  0  0  0  0  0  0  0  0  0  0
   58.3860   29.0080   44.0930 C   0  0  0  0  0  0  0  0  0  0  0  0
   59.2717   28.3571   44.1358 H   0  0  0  0  0  0  0  0  0  0  0  0
   57.3830   28.7510   43.1570 C   0  0  0  0  0  0  0  0  0  0  0  0
   57.4791   27.8981   42.4690 H   0  0  0  0  0  0  0  0  0  0  0  0
   56.2580   29.5750   43.0930 C   0  0  0  0  0  0  0  0  0  0  0  0
   55.4603   29.3601   42.3667 H   0  0  0  0  0  0  0  0  0  0  0  0
   56.1440   30.6720   43.9500 C   0  0  0  0  0  0  0  0  0  0  0  0
   55.2500   31.3112   43.9018 H   0  0  0  0  0  0  0  0  0  0  0  0
   57.1580   30.9650   44.8700 C   0  0  0  0  0  0  0  0  0  0  0  0
   57.0230   32.1220   45.6530 O   0  0  0  0  0  0  0  0  0  0  0  0
   58.0170   33.1000   45.8170 C   0  0  0  0  0  0  0  0  0  0  0  0
   58.3120   33.9480   44.7430 C   0  0  0  0  0  0  0  0  0  0  0  0
   57.7924   33.8139   43.7828 H   0  0  0  0  0  0  0  0  0  0  0  0
   59.2630   34.9650   44.8820 C   0  0  0  0  0  0  0  0  0  0  0  0
   59.4781   35.6361   44.0374 H   0  0  0  0  0  0  0  0  0  0  0  0
   59.9390   35.1280   46.0930 C   0  0  0  0  0  0  0  0  0  0  0  0
   60.6784   35.9346   46.2059 H   0  0  0  0  0  0  0  0  0  0  0  0
   59.6760   34.2660   47.1620 C   0  0  0  0  0  0  0  0  0  0  0  0
   60.2197   34.3858   48.1107 H   0  0  0  0  0  0  0  0  0  0  0  0
   58.7230   33.2520   47.0270 C   0  0  0  0  0  0  0  0  0  0  0  0
   58.5238   32.5710   47.8676 H   0  0  0  0  0  0  0  0  0  0  0  0
  1  2  1  0
  2  3  1  0
  3  4  2  0
  3  5  1  0
  5  6  1  0
  6  7  1  0
  6  8  1  0
  6  9  1  0
  9 10  2  0
 10 11  1  0
 10 12  1  0
 12 13  1  0
 12 14  2  0
 14 15  1  0
 14 16  1  0
 16 17  1  0
 16 18  2  0
 18 19  1  0
  2 20  2  0
 20 21  1  0
 20 22  1  0
 22 23  2  0
 23 24  1  0
 23 25  1  0
 25 26  1  0
 25 27  2  0
 27 28  1  0
 27 29  1  0
 29 30  1  0
 29 31  2  0
 31 32  1  0
 32 33  1  0
 33 34  2  0
 34 35  1  0
 34 36  1  0
 36 37  1  0
 36 38  2  0
 38 39  1  0
 38 40  1  0
 40 41  1  0
 40 42  2  0
 42 43  1  0
 18  9  1  0
 31 22  1  0
 42 33  1  0
M  CHG  2   5  -1  19  -1
M  END
>  <UniqueID>  (30) 
30

>  <SMILES>  (30) 
O=C(/C=C/c1ccccc1Oc1ccccc1)[N-]Cc1ccccc1[O-]

>  <Energy>  (30) 
53.44262254990716

>  <Genealogy>  (30) 
O=C(C=Cc1ccccc1Oc1ccccc1)[N-]Cc1ccccc1[O-] (protonated)
O=C(/C=C/c1ccccc1Oc1ccccc1)[N-]Cc1ccccc1[O-] (cis-trans isomerization)
O=C(/C=C/c1ccccc1Oc1ccccc1)[N-]Cc1ccccc1[O-] (3D coordinates assigned)
O=C(/C=C/c1ccccc1Oc1ccccc1)[N-]Cc1ccccc1[O-] (optimized conformer: 53.44262254990716 kcal/mol)

>  <smiles>  (30) 
O=C(C=Cc1ccccc1Oc1ccccc1)NCc1ccccc1O

>  <score_type>  (30) 
oracle

>  <origin>  (30) 
adg

>  <m_score__min__energy>  (30) 
-13.1

>  <m_primary>  (30) 
energy

$$$$
30:0
     RDKit          3D

 41 43  0  0  0  0  0  0  0  0999 V2000
   55.9940   24.5460   47.0490 H   0  0  0  0  0  0  0  0  0  0  0  0
   55.6430   25.1960   46.3560 O   0  0  0  0  0  0  0  0  0  0  0  0
   56.3870   26.2880   45.9050 C   0  0  0  0  0  0  0  0  0  0  0  0
   55.7880   27.4810   45.6480 N   0  0  0  0  0  0  0  0  0  0  0  0
   56.6690   28.3850   45.1610 C   0  0  0  0  0  0  0  0  0  0  0  0
   57.0260   31.9110   44.9770 N   0  0  0  0  0  0  0  0  0  0  0  0
   57.2940   30.6750   44.6590 C   0  0  0  0  0  0  0  0  0  0  0  0
   58.2855   30.4455   44.2415 H   0  0  0  0  0  0  0  0  0  0  0  0
   56.3590   29.6000   44.8270 N   0  0  0  0  0  0  0  0  0  0  0  0
   57.9390   32.8820   45.5150 C   0  0  0  0  0  0  0  0  0  0  0  0
   58.2450   34.0150   44.7480 C   0  0  0  0  0  0  0  0  0  0  0  0
   57.7841   34.1449   43.7577 H   0  0  0  0  0  0  0  0  0  0  0  0
   59.1300   34.9790   45.2320 C   0  0  0  0  0  0  0  0  0  0  0  0
   59.3795   35.8562   44.6170 H   0  0  0  0  0  0  0  0  0  0  0  0
   59.6990   34.8280   46.5000 C   0  0  0  0  0  0  0  0  0  0  0  0
   60.4052   35.5822   46.8775 H   0  0  0  0  0  0  0  0  0  0  0  0
   59.3730   33.7210   47.2900 C   0  0  0  0  0  0  0  0  0  0  0  0
   59.8157   33.6109   48.2909 H   0  0  0  0  0  0  0  0  0  0  0  0
   58.4850   32.7540   46.8090 C   0  0  0  0  0  0  0  0  0  0  0  0
   58.1370   31.7180   47.6150 F   0  0  0  0  0  0  0  0  0  0  0  0
   58.2190   27.7590   45.0420 S   0  0  0  0  0  0  0  0  0  0  0  0
   57.7670   26.2530   45.6620 C   0  0  0  0  0  0  0  0  0  0  0  0
   58.6810   25.0610   45.7950 C   0  0  0  0  0  0  0  0  0  0  0  0
   59.3340   25.2017   46.6690 H   0  0  0  0  0  0  0  0  0  0  0  0
   59.2847   24.9727   44.8797 H   0  0  0  0  0  0  0  0  0  0  0  0
   57.8810   23.7980   45.9730 C   0  0  0  0  0  0  0  0  0  0  0  0
   57.7700   23.3230   47.1350 O   0  0  0  0  0  0  0  0  0  0  0  0
   57.3360   23.0710   44.8480 N   0  0  0  0  0  0  0  0  0  0  0  0
   56.9750   23.7620   43.6030 C   0  0  0  0  0  0  0  0  0  0  0  0
   56.5828   24.7614   43.8427 H   0  0  0  0  0  0  0  0  0  0  0  0
   57.8700   23.8518   42.9698 H   0  0  0  0  0  0  0  0  0  0  0  0
   55.9050   22.9660   42.8470 C   0  0  0  0  0  0  0  0  0  0  0  0
   54.9596   23.0113   43.4076 H   0  0  0  0  0  0  0  0  0  0  0  0
   55.7810   23.4069   41.8469 H   0  0  0  0  0  0  0  0  0  0  0  0
   56.2910   21.6130   42.6990 O   0  0  0  0  0  0  0  0  0  0  0  0
   56.3430   20.9950   43.9700 C   0  0  0  0  0  0  0  0  0  0  0  0
   55.3778   21.1344   44.4790 H   0  0  0  0  0  0  0  0  0  0  0  0
   56.5517   19.9236   43.8339 H   0  0  0  0  0  0  0  0  0  0  0  0
   57.4550   21.6080   44.8250 C   0  0  0  0  0  0  0  0  0  0  0  0
   57.3770   21.2219   45.8521 H   0  0  0  0  0  0  0  0  0  0  0  0
   58.4289   21.3362   44.3917 H   0  0  0  0  0  0  0  0  0  0  0  0
  1  2  1  0
  2  3  1  0
  3  4  1  0
  4  5  1  0
  5  6  2  0
  6  7  1  0
  7  8  1  0
  7  9  2  0
  9 10  1  0
 10 11  2  0
 11 12  1  0
 11 13  1  0
 13 14  1  0
 13 15  2  0
 15 16  1  0
 15 17  1  0
 17 18  1  0
 17 19  2  0
 19 20  1  0
  5 21  1  0
 21 22  1  0
 22 23  1  0
 23 24  1  0
 23 25  1  0
 23 26  1  0
 26 27  2  0
 26 28  1  0
 28 29  1  0
 29 30  1  0
 29 31  1  0
 29 32  1  0
 32 33  1  0
 32 34  1  0
 32 35  1  0
 35 36  1  0
 36 37  1  0
 36 38  1  0
 36 39  1  0
 39 40  1  0
 39 41  1  0
 22  3  2  0
 39 28  1  0
 19 10  1  0
M  CHG  1   4  -1
M  END
>  <UniqueID>  (31) 
31

>  <SMILES>  (31) 
O=C(Cc1s/c(=N/C=N\c2ccccc2F)[n-]c1O)N1CCOCC1

>  <Energy>  (31) 
88.84437033481659

>  <Genealogy>  (31) 
O=C(Cc1sc(=NC=Nc2ccccc2F)[n-]c1O)N1CCOCC1 (protonated)
O=C(Cc1s/c(=N/C=N\c2ccccc2F)[n-]c1O)N1CCOCC1 (cis-trans isomerization)
O=C(Cc1s/c(=N/C=N\c2ccccc2F)[n-]c1O)N1CCOCC1 (3D coordinates assigned)
O=C(Cc1s/c(=N/C=N\c2ccccc2F)[n-]c1O)N1CCOCC1 (nonaromatic ring conformer: 88.84437033481659 kcal/mol)

>  <smiles>  (31) 
O=C(Cc1sc(=NC=Nc2ccccc2F)[nH]c1O)N1CCOCC1

>  <score_type>  (31) 
oracle

>  <origin>  (31) 
adg

>  <m_score__min__energy>  (31) 
-10.6

>  <m_primary>  (31) 
energy

$$$$
31:0
     RDKit          3D

 28 29  0  0  0  0  0  0  0  0999 V2000
   57.9250   32.0780   41.9300 N   0  0  0  0  0  0  0  0  0  0  0  0
   58.0560   32.4890   43.0040 C   0  0  0  0  0  0  0  0  0  0  0  0
   58.2190   33.0010   44.3430 C   0  0  0  0  0  0  0  0  0  0  0  0
   58.9270   34.1940   44.5380 C   0  0  0  0  0  0  0  0  0  0  0  0
   59.0940   34.7110   45.8260 C   0  0  0  0  0  0  0  0  0  0  0  0
   58.5470   34.0440   46.9220 C   0  0  0  0  0  0  0  0  0  0  0  0
   57.8410   32.8520   46.7370 C   0  0  0  0  0  0  0  0  0  0  0  0
   57.6900   32.3080   45.4490 C   0  0  0  0  0  0  0  0  0  0  0  0
   56.9380   31.1010   45.2390 N   0  0  0  0  0  0  0  0  0  0  0  0
   57.3700   29.7650   45.5310 C   0  0  0  0  0  0  0  0  0  0  0  0
   58.1920   29.5880   46.4690 O   0  0  0  0  0  0  0  0  0  0  0  0
   56.8400   28.5760   44.7720 C   0  0  0  0  0  0  0  0  0  0  0  0
   55.9720   27.7590   45.6200 N   0  0  0  0  0  0  0  0  0  0  0  0
   56.2950   26.6080   46.1320 C   0  0  0  0  0  0  0  0  0  0  0  0
   57.5570   26.4210   46.6040 N   0  0  0  0  0  0  0  0  0  0  0  0
   57.9350   25.2350   47.1480 C   0  0  0  0  0  0  0  0  0  0  0  0
   57.0200   24.1850   47.2280 C   0  0  0  0  0  0  0  0  0  0  0  0
   57.3940   22.9650   47.7820 O   0  0  0  0  0  0  0  0  0  0  0  0
   55.7270   24.3900   46.7420 C   0  0  0  0  0  0  0  0  0  0  0  0
   54.8710   23.4670   46.7970 O   0  0  0  0  0  0  0  0  0  0  0  0
   55.3900   25.5910   46.2070 N   0  0  0  0  0  0  0  0  0  0  0  0
   59.3530   34.7258   43.6745 H   0  0  0  0  0  0  0  0  0  0  0  0
   59.6570   35.6442   45.9752 H   0  0  0  0  0  0  0  0  0  0  0  0
   58.6715   34.4569   47.9339 H   0  0  0  0  0  0  0  0  0  0  0  0
   57.4011   32.3366   47.6035 H   0  0  0  0  0  0  0  0  0  0  0  0
   56.2650   28.9303   43.9038 H   0  0  0  0  0  0  0  0  0  0  0  0
   57.6910   27.9607   44.4446 H   0  0  0  0  0  0  0  0  0  0  0  0
   58.9601   25.1029   47.5245 H   0  0  0  0  0  0  0  0  0  0  0  0
  1  2  3  0
  2  3  1  0
  3  4  2  0
  4  5  1  0
  5  6  2  0
  6  7  1  0
  7  8  2  0
  8  9  1  0
  9 10  1  0
 10 11  2  0
 10 12  1  0
 12 13  1  0
 13 14  2  3
 14 15  1  0
 15 16  1  0
 16 17  2  0
 17 18  1  0
 17 19  1  0
 19 20  2  0
 19 21  1  0
  8  3  1  0
 21 14  1  0
  4 22  1  0
  5 23  1  0
  6 24  1  0
  7 25  1  0
 12 26  1  0
 12 27  1  0
 16 28  1  0
M  CHG  4   9  -1  15  -1  18  -1  21  -1
M  END
>  <UniqueID>  (32) 
32

>  <SMILES>  (32) 
N#Cc1ccccc1[N-]C(=O)CN=c1[n-]cc([O-])c(=O)[n-]1

>  <Energy>  (32) 
35.265538259914806

>  <Genealogy>  (32) 
N#Cc1ccccc1[N-]C(=O)CN=c1[n-]cc([O-])c(=O)[n-]1 (protonated)
N#Cc1ccccc1[N-]C(=O)CN=c1[n-]cc([O-])c(=O)[n-]1 (3D coordinates assigned)
N#Cc1ccccc1[N-]C(=O)CN=c1[n-]cc([O-])c(=O)[n-]1 (optimized conformer: 35.265538259914806 kcal/mol)

>  <smiles>  (32) 
N#Cc1ccccc1NC(=O)CN=c1[nH]cc(O)c(=O)[nH]1

>  <score_type>  (32) 
oracle

>  <origin>  (32) 
adg

>  <m_score__min__energy>  (32) 
-14.06

>  <m_primary>  (32) 
energy

$$$$
32:0
     RDKit          3D

 39 41  0  0  0  0  0  0  0  0999 V2000
   54.7600   29.0300   42.7600 H   0  0  0  0  0  0  0  0  0  0  0  0
   54.7740   29.3910   43.7400 N   0  0  0  0  0  0  0  0  0  0  0  0
   55.8830   29.6730   44.3420 C   0  0  0  0  0  0  0  0  0  0  0  0
   56.7070   28.6760   44.7610 N   0  0  0  0  0  0  0  0  0  0  0  0
   57.8690   28.9760   45.3950 C   0  0  0  0  0  0  0  0  0  0  0  0
   58.7960   27.8890   45.8370 C   0  0  0  0  0  0  0  0  0  0  0  0
   59.7832   28.3245   46.0508 H   0  0  0  0  0  0  0  0  0  0  0  0
   58.8666   27.1432   45.0315 H   0  0  0  0  0  0  0  0  0  0  0  0
   58.1730   27.0580   47.3410 S   0  0  0  0  0  0  0  0  0  0  0  0
   57.2180   25.8220   46.4610 C   0  0  0  0  0  0  0  0  0  0  0  0
   55.8680   25.9460   46.3770 N   0  0  0  0  0  0  0  0  0  0  0  0
   55.1240   25.0310   45.7040 C   0  0  0  0  0  0  0  0  0  0  0  0
   53.8730   25.1620   45.6430 O   0  0  0  0  0  0  0  0  0  0  0  0
   55.7470   23.9470   45.0850 C   0  0  0  0  0  0  0  0  0  0  0  0
   55.1572   23.1945   44.5410 H   0  0  0  0  0  0  0  0  0  0  0  0
   57.1390   23.8390   45.1720 C   0  0  0  0  0  0  0  0  0  0  0  0
   57.8520   22.6830   44.5470 C   0  0  0  0  0  0  0  0  0  0  0  0
   58.2544   22.0305   45.3359 H   0  0  0  0  0  0  0  0  0  0  0  0
   57.1486   22.1125   43.9227 H   0  0  0  0  0  0  0  0  0  0  0  0
   58.6775   23.0555   43.9227 H   0  0  0  0  0  0  0  0  0  0  0  0
   57.8440   24.7710   45.8700 N   0  0  0  0  0  0  0  0  0  0  0  0
   58.2100   30.2740   45.5940 N   0  0  0  0  0  0  0  0  0  0  0  0
   57.3920   31.2770   45.1790 C   0  0  0  0  0  0  0  0  0  0  0  0
   57.7300   32.5240   45.3210 N   0  0  0  0  0  0  0  0  0  0  0  0
   58.4640   33.0930   46.4230 C   0  0  0  0  0  0  0  0  0  0  0  0
   58.4430   32.5020   47.7010 C   0  0  0  0  0  0  0  0  0  0  0  0
   57.8598   31.5845   47.8687 H   0  0  0  0  0  0  0  0  0  0  0  0
   59.1570   33.0720   48.7570 C   0  0  0  0  0  0  0  0  0  0  0  0
   59.1472   32.5943   49.7478 H   0  0  0  0  0  0  0  0  0  0  0  0
   59.8830   34.2470   48.5570 C   0  0  0  0  0  0  0  0  0  0  0  0
   60.4535   34.6883   49.3875 H   0  0  0  0  0  0  0  0  0  0  0  0
   59.8860   34.8630   47.3040 C   0  0  0  0  0  0  0  0  0  0  0  0
   60.4490   35.7962   47.1549 H   0  0  0  0  0  0  0  0  0  0  0  0
   59.1740   34.2980   46.2320 C   0  0  0  0  0  0  0  0  0  0  0  0
   59.1770   34.9780   44.8900 C   0  0  0  0  0  0  0  0  0  0  0  0
   59.1818   36.0688   45.0317 H   0  0  0  0  0  0  0  0  0  0  0  0
   60.0738   34.6772   44.3285 H   0  0  0  0  0  0  0  0  0  0  0  0
   58.2776   34.6851   44.3285 H   0  0  0  0  0  0  0  0  0  0  0  0
   56.2290   30.9690   44.5490 N   0  0  0  0  0  0  0  0  0  0  0  0
  1  2  1  0
  2  3  2  3
  3  4  1  0
  4  5  2  0
  5  6  1  0
  6  7  1  0
  6  8  1  0
  6  9  1  0
  9 10  1  0
 10 11  2  0
 11 12  1  0
 12 13  2  0
 12 14  1  0
 14 15  1  0
 14 16  2  0
 16 17  1  0
 17 18  1  0
 17 19  1  0
 17 20  1  0
 16 21  1  0
  5 22  1  0
 22 23  1  0
 23 24  2  0
 24 25  1  0
 25 26  2  0
 26 27  1  0
 26 28  1  0
 28 29  1  0
 28 30  2  0
 30 31  1  0
 30 32  1  0
 32 33  1  0
 32 34  2  0
 34 35  1  0
 35 36  1  0
 35 37  1  0
 35 38  1  0
 23 39  1  0
 39  3  1  0
 21 10  1  0
 34 25  1  0
M  CHG  3  21  -1  22  -1  39  -1
M  END
>  <UniqueID>  (33) 
33

>  <SMILES>  (33) 
Cc1cc(=O)nc(SCc2nc(=N)[n-]/c(=N/c3ccccc3C)[n-]2)[n-]1

>  <Energy>  (33) 
38.28672445588699

>  <Genealogy>  (33) 
Cc1cc(=O)nc(SCc2nc(=N)[n-]c(=Nc3ccccc3C)[n-]2)[n-]1 (protonated)
Cc1cc(=O)nc(SCc2nc(=N)[n-]/c(=N/c3ccccc3C)[n-]2)[n-]1 (cis-trans isomerization)
Cc1cc(=O)nc(SCc2nc(=N)[n-]/c(=N/c3ccccc3C)[n-]2)[n-]1 (3D coordinates assigned)
Cc1cc(=O)nc(SCc2nc(=N)[n-]/c(=N/c3ccccc3C)[n-]2)[n-]1 (optimized conformer: 38.28672445588699 kcal/mol)

>  <smiles>  (33) 
Cc1cc(=O)nc(SCc2nc(=N)[nH]c(=Nc3ccccc3C)[nH]2)[nH]1

>  <score_type>  (33) 
oracle

>  <origin>  (33) 
adg

>  <m_score__min__energy>  (33) 
-12.84

>  <m_primary>  (33) 
energy

$$$$
33:0
     RDKit          3D

 25 26  0  0  0  0  0  0  0  0999 V2000
   55.3690   22.7720   43.6270 O   0  0  0  0  0  0  0  0  0  0  0  0
   55.9780   23.7570   44.1200 C   0  0  0  0  0  0  0  0  0  0  0  0
   57.3950   24.0470   43.7190 C   0  0  0  0  0  0  0  0  0  0  0  0
   57.6670   25.5560   43.7490 C   0  0  0  0  0  0  0  0  0  0  0  0
   57.2380   26.1510   45.0220 N   0  0  0  0  0  0  0  0  0  0  0  0
   57.9920   27.2350   45.5880 C   0  0  0  0  0  0  0  0  0  0  0  0
   59.0520   26.9320   46.4560 C   0  0  0  0  0  0  0  0  0  0  0  0
   59.7750   27.9520   47.0770 C   0  0  0  0  0  0  0  0  0  0  0  0
   59.4430   29.2860   46.8390 C   0  0  0  0  0  0  0  0  0  0  0  0
   58.3960   29.6040   45.9710 C   0  0  0  0  0  0  0  0  0  0  0  0
   57.6650   28.5910   45.3250 C   0  0  0  0  0  0  0  0  0  0  0  0
   56.6210   28.9560   44.4030 N   0  0  0  0  0  0  0  0  0  0  0  0
   56.8460   29.0360   43.1780 O   0  0  0  0  0  0  0  0  0  0  0  0
   55.3910   29.3520   44.8750 O   0  0  0  0  0  0  0  0  0  0  0  0
   56.0090   25.7100   45.6310 C   0  0  0  0  0  0  0  0  0  0  0  0
   55.5220   26.3210   46.6190 O   0  0  0  0  0  0  0  0  0  0  0  0
   55.3450   24.5560   45.1190 N   0  0  0  0  0  0  0  0  0  0  0  0
   58.0787   23.5426   44.4176 H   0  0  0  0  0  0  0  0  0  0  0  0
   57.5562   23.6781   42.6953 H   0  0  0  0  0  0  0  0  0  0  0  0
   58.7456   25.7283   43.6185 H   0  0  0  0  0  0  0  0  0  0  0  0
   57.0961   26.0277   42.9356 H   0  0  0  0  0  0  0  0  0  0  0  0
   59.3156   25.8816   46.6488 H   0  0  0  0  0  0  0  0  0  0  0  0
   60.6061   27.7041   47.7536 H   0  0  0  0  0  0  0  0  0  0  0  0
   60.0070   30.0890   47.3360 H   0  0  0  0  0  0  0  0  0  0  0  0
   58.1403   30.6586   45.7906 H   0  0  0  0  0  0  0  0  0  0  0  0
  1  2  2  0
  2  3  1  0
  3  4  1  0
  4  5  1  0
  5  6  1  0
  6  7  2  0
  7  8  1  0
  8  9  2  0
  9 10  1  0
 10 11  2  0
 11 12  1  0
 12 13  2  0
 12 14  1  0
  5 15  1  0
 15 16  2  0
 15 17  1  0
 17  2  1  0
 11  6  1  0
  3 18  1  0
  3 19  1  0
  4 20  1  0
  4 21  1  0
  7 22  1  0
  8 23  1  0
  9 24  1  0
 10 25  1  0
M  CHG  3  12   1  14  -1  17  -1
M  END
>  <UniqueID>  (34) 
34

>  <SMILES>  (34) 
O=C1CCN(c2ccccc2[N+](=O)[O-])C(=O)[N-]1

>  <Energy>  (34) 
33.77217863364446

>  <Genealogy>  (34) 
O=C1CCN(c2ccccc2[N+](=O)[O-])C(=O)[N-]1 (protonated)
O=C1CCN(c2ccccc2[N+](=O)[O-])C(=O)[N-]1 (3D coordinates assigned)
O=C1CCN(c2ccccc2[N+](=O)[O-])C(=O)[N-]1 (nonaromatic ring conformer: 33.77217863364446 kcal/mol)

>  <smiles>  (34) 
O=C1CCN(c2ccccc2[N+](=O)[O-])C(=O)N1

>  <score_type>  (34) 
oracle

>  <origin>  (34) 
adg

>  <m_score__min__energy>  (34) 
-7.9199999999999999

>  <m_primary>  (34) 
energy

$$$$
34:0
     RDKit          3D

 54 56  0  0  0  0  0  0  0  0999 V2000
   59.7680   26.4750   47.5630 C   0  0  0  0  0  0  0  0  0  0  0  0
   58.8870   27.2200   46.5960 C   0  0  0  0  0  0  0  0  0  0  0  0
   57.5880   26.8040   46.2760 C   0  0  0  0  0  0  0  0  0  0  0  0
   56.8950   25.5880   46.7520 C   0  0  0  0  0  0  0  0  0  0  0  0
   57.0770   25.1800   47.9280 O   0  0  0  0  0  0  0  0  0  0  0  0
   55.9620   24.8880   45.9170 N   0  0  0  0  0  0  0  0  0  0  0  0
   56.2960   23.8680   44.9660 C   0  0  0  0  0  0  0  0  0  0  0  0
   55.5750   23.7180   43.7670 C   0  0  0  0  0  0  0  0  0  0  0  0
   55.9240   22.7160   42.8560 C   0  0  0  0  0  0  0  0  0  0  0  0
   56.9990   21.8650   43.1300 C   0  0  0  0  0  0  0  0  0  0  0  0
   57.7340   22.0220   44.3090 C   0  0  0  0  0  0  0  0  0  0  0  0
   57.3900   23.0270   45.2200 C   0  0  0  0  0  0  0  0  0  0  0  0
   58.1100   23.1690   46.3620 F   0  0  0  0  0  0  0  0  0  0  0  0
   56.9110   27.9180   45.2130 S   0  0  0  0  0  0  0  0  0  0  0  0
   58.2510   28.9250   45.1140 C   0  0  0  0  0  0  0  0  0  0  0  0
   58.3460   30.1030   44.2980 N   0  0  0  0  0  0  0  0  0  0  0  0
   57.3850   31.1700   44.3270 C   0  0  0  0  0  0  0  0  0  0  0  0
   56.2580   31.0030   44.8680 O   0  0  0  0  0  0  0  0  0  0  0  0
   57.7130   32.5000   43.7130 C   0  0  0  0  0  0  0  0  0  0  0  0
   58.0270   33.5610   44.7880 C   0  0  0  0  0  0  0  0  0  0  0  0
   56.8840   34.5790   44.8750 C   0  0  0  0  0  0  0  0  0  0  0  0
   59.3550   34.2810   44.5020 C   0  0  0  0  0  0  0  0  0  0  0  0
   59.2690   28.4070   45.9190 C   0  0  0  0  0  0  0  0  0  0  0  0
   60.6270   28.9890   45.9640 C   0  0  0  0  0  0  0  0  0  0  0  0
   61.4130   28.8000   45.0000 O   0  0  0  0  0  0  0  0  0  0  0  0
   61.0570   29.8050   47.0620 N   0  0  0  0  0  0  0  0  0  0  0  0
   60.5700   31.1210   47.3540 C   0  0  0  0  0  0  0  0  0  0  0  0
   59.1960   31.3060   47.5620 C   0  0  0  0  0  0  0  0  0  0  0  0
   58.6930   32.5720   47.8740 C   0  0  0  0  0  0  0  0  0  0  0  0
   59.5560   33.6680   47.9570 C   0  0  0  0  0  0  0  0  0  0  0  0
   60.9210   33.5010   47.7130 C   0  0  0  0  0  0  0  0  0  0  0  0
   61.4310   32.2350   47.4040 C   0  0  0  0  0  0  0  0  0  0  0  0
   62.7470   32.1120   47.1030 F   0  0  0  0  0  0  0  0  0  0  0  0
   59.4739   26.7237   48.5934 H   0  0  0  0  0  0  0  0  0  0  0  0
   59.6570   25.3927   47.4011 H   0  0  0  0  0  0  0  0  0  0  0  0
   60.8169   26.7643   47.4011 H   0  0  0  0  0  0  0  0  0  0  0  0
   54.7338   24.3913   43.5455 H   0  0  0  0  0  0  0  0  0  0  0  0
   55.3526   22.5973   41.9236 H   0  0  0  0  0  0  0  0  0  0  0  0
   57.2668   21.0711   42.4172 H   0  0  0  0  0  0  0  0  0  0  0  0
   58.5830   21.3553   44.5205 H   0  0  0  0  0  0  0  0  0  0  0  0
   59.1530   30.1920   43.6420 H   0  0  0  0  0  0  0  0  0  0  0  0
   58.5898   32.3845   43.0589 H   0  0  0  0  0  0  0  0  0  0  0  0
   56.8372   32.8396   43.1406 H   0  0  0  0  0  0  0  0  0  0  0  0
   58.1266   33.0419   45.7527 H   0  0  0  0  0  0  0  0  0  0  0  0
   56.6546   34.7833   45.9312 H   0  0  0  0  0  0  0  0  0  0  0  0
   57.1860   35.5127   44.3781 H   0  0  0  0  0  0  0  0  0  0  0  0
   55.9913   34.1713   44.3781 H   0  0  0  0  0  0  0  0  0  0  0  0
   59.8413   34.5447   45.4528 H   0  0  0  0  0  0  0  0  0  0  0  0
   60.0150   33.6172   43.9243 H   0  0  0  0  0  0  0  0  0  0  0  0
   59.1588   35.1963   43.9243 H   0  0  0  0  0  0  0  0  0  0  0  0
   58.5101   30.4500   47.4792 H   0  0  0  0  0  0  0  0  0  0  0  0
   57.6162   32.7059   48.0545 H   0  0  0  0  0  0  0  0  0  0  0  0
   59.1605   34.6616   48.2144 H   0  0  0  0  0  0  0  0  0  0  0  0
   61.5972   34.3671   47.7639 H   0  0  0  0  0  0  0  0  0  0  0  0
  1  2  1  0
  2  3  2  0
  3  4  1  0
  4  5  2  0
  4  6  1  0
  6  7  1  0
  7  8  2  0
  8  9  1  0
  9 10  2  0
 10 11  1  0
 11 12  2  0
 12 13  1  0
  3 14  1  0
 14 15  1  0
 15 16  1  0
 16 17  1  0
 17 18  2  0
 17 19  1  0
 19 20  1  0
 20 21  1  0
 20 22  1  0
 15 23  2  0
 23 24  1  0
 24 25  2  0
 24 26  1  0
 26 27  1  0
 27 28  2  0
 28 29  1  0
 29 30  2  0
 30 31  1  0
 31 32  2  0
 32 33  1  0
 23  2  1  0
 32 27  1  0
 12  7  1  0
  1 34  1  0
  1 35  1  0
  1 36  1  0
  8 37  1  0
  9 38  1  0
 10 39  1  0
 11 40  1  0
 16 41  1  0
 19 42  1  0
 19 43  1  0
 20 44  1  0
 21 45  1  0
 21 46  1  0
 21 47  1  0
 22 48  1  0
 22 49  1  0
 22 50  1  0
 28 51  1  0
 29 52  1  0
 30 53  1  0
 31 54  1  0
M  CHG  2   6  -1  26  -1
M  END
>  <UniqueID>  (35) 
35

>  <SMILES>  (35) 
Cc1c(C(=O)[N-]c2ccccc2F)sc(NC(=O)CC(C)C)c1C(=O)[N-]c1ccccc1F

>  <Energy>  (35) 
92.8599085988629

>  <Genealogy>  (35) 
Cc1c(C(=O)[N-]c2ccccc2F)sc(NC(=O)CC(C)C)c1C(=O)[N-]c1ccccc1F (protonated)
Cc1c(C(=O)[N-]c2ccccc2F)sc(NC(=O)CC(C)C)c1C(=O)[N-]c1ccccc1F (3D coordinates assigned)
Cc1c(C(=O)[N-]c2ccccc2F)sc(NC(=O)CC(C)C)c1C(=O)[N-]c1ccccc1F (optimized conformer: 92.8599085988629 kcal/mol)

>  <smiles>  (35) 
Cc1c(C(=O)Nc2ccccc2F)sc(NC(=O)CC(C)C)c1C(=O)Nc1ccccc1F

>  <score_type>  (35) 
oracle

>  <origin>  (35) 
adg

>  <m_score__min__energy>  (35) 
-12.300000000000001

>  <m_primary>  (35) 
energy

$$$$
35:0
     RDKit          3D

 50 52  0  0  0  0  0  0  0  0999 V2000
   58.1650   27.3700   43.3750 C   0  0  0  0  0  0  0  0  0  0  0  0
   58.7910   27.5950   44.7170 C   0  0  0  0  0  0  0  0  0  0  0  0
   58.3330   26.8900   45.8410 C   0  0  0  0  0  0  0  0  0  0  0  0
   58.9100   27.1130   47.0950 C   0  0  0  0  0  0  0  0  0  0  0  0
   59.9380   28.0510   47.2480 C   0  0  0  0  0  0  0  0  0  0  0  0
   60.5230   28.2190   48.5460 N   0  0  0  0  0  0  0  0  0  0  0  0
   60.2100   29.5290   49.6430 S   0  0  0  0  0  0  0  0  0  0  0  0
   61.0160   29.2890   50.8900 O   0  0  0  0  0  0  0  0  0  0  0  0
   58.7480   29.5410   50.0000 O   0  0  0  0  0  0  0  0  0  0  0  0
   60.6770   31.0920   48.9520 C   0  0  0  0  0  0  0  0  0  0  0  0
   59.7450   31.8210   48.1960 C   0  0  0  0  0  0  0  0  0  0  0  0
   60.0810   33.0650   47.6470 C   0  0  0  0  0  0  0  0  0  0  0  0
   59.0750   33.8450   46.9070 C   0  0  0  0  0  0  0  0  0  0  0  0
   58.8770   35.0430   47.2530 O   0  0  0  0  0  0  0  0  0  0  0  0
   58.3190   33.2760   45.8140 N   0  0  0  0  0  0  0  0  0  0  0  0
   57.0070   33.8460   45.4920 C   0  0  0  0  0  0  0  0  0  0  0  0
   58.9010   32.2400   44.9460 C   0  0  0  0  0  0  0  0  0  0  0  0
   57.8310   31.4290   44.2590 C   0  0  0  0  0  0  0  0  0  0  0  0
   57.6710   31.4860   42.8640 C   0  0  0  0  0  0  0  0  0  0  0  0
   56.6800   30.7250   42.2350 C   0  0  0  0  0  0  0  0  0  0  0  0
   55.8540   29.8890   42.9880 C   0  0  0  0  0  0  0  0  0  0  0  0
   56.0160   29.8110   44.3750 C   0  0  0  0  0  0  0  0  0  0  0  0
   55.1950   28.9780   45.1260 O   0  0  0  0  0  0  0  0  0  0  0  0
   57.0060   30.5720   45.0080 C   0  0  0  0  0  0  0  0  0  0  0  0
   61.3570   33.5950   47.8620 C   0  0  0  0  0  0  0  0  0  0  0  0
   62.2960   32.8770   48.6060 C   0  0  0  0  0  0  0  0  0  0  0  0
   61.9680   31.6340   49.1590 C   0  0  0  0  0  0  0  0  0  0  0  0
   62.9460   30.9730   49.9070 O   0  0  0  0  0  0  0  0  0  0  0  0
   60.3860   28.7690   46.1240 C   0  0  0  0  0  0  0  0  0  0  0  0
   59.8120   28.5440   44.8680 C   0  0  0  0  0  0  0  0  0  0  0  0
   57.1373   27.0006   43.5071 H   0  0  0  0  0  0  0  0  0  0  0  0
   58.1452   28.3173   42.8162 H   0  0  0  0  0  0  0  0  0  0  0  0
   58.7528   26.6269   42.8162 H   0  0  0  0  0  0  0  0  0  0  0  0
   57.5174   26.1596   45.7350 H   0  0  0  0  0  0  0  0  0  0  0  0
   58.5534   26.5470   47.9682 H   0  0  0  0  0  0  0  0  0  0  0  0
   58.7379   31.4098   48.0328 H   0  0  0  0  0  0  0  0  0  0  0  0
   56.4700   34.0793   46.4233 H   0  0  0  0  0  0  0  0  0  0  0  0
   57.1412   34.7669   44.9056 H   0  0  0  0  0  0  0  0  0  0  0  0
   56.4255   33.1194   44.9056 H   0  0  0  0  0  0  0  0  0  0  0  0
   59.5279   32.7241   44.1827 H   0  0  0  0  0  0  0  0  0  0  0  0
   59.4995   31.5617   45.5719 H   0  0  0  0  0  0  0  0  0  0  0  0
   58.3283   32.1322   42.2637 H   0  0  0  0  0  0  0  0  0  0  0  0
   56.5514   30.7856   41.1442 H   0  0  0  0  0  0  0  0  0  0  0  0
   55.0757   29.2916   42.4906 H   0  0  0  0  0  0  0  0  0  0  0  0
   57.1390   30.4989   46.0975 H   0  0  0  0  0  0  0  0  0  0  0  0
   61.6214   34.5779   47.4450 H   0  0  0  0  0  0  0  0  0  0  0  0
   63.3030   33.2925   48.7587 H   0  0  0  0  0  0  0  0  0  0  0  0
   62.7910   30.0870   50.3630 H   0  0  0  0  0  0  0  0  0  0  0  0
   61.1911   29.5105   46.2332 H   0  0  0  0  0  0  0  0  0  0  0  0
   60.1632   29.1141   43.9953 H   0  0  0  0  0  0  0  0  0  0  0  0
  1  2  1  0
  2  3  2  0
  3  4  1  0
  4  5  2  0
  5  6  1  0
  6  7  1  0
  7  8  2  0
  7  9  2  0
  7 10  1  0
 10 11  2  0
 11 12  1  0
 12 13  1  0
 13 14  2  0
 13 15  1  0
 15 16  1  0
 15 17  1  0
 17 18  1  0
 18 19  2  0
 19 20  1  0
 20 21  2  0
 21 22  1  0
 22 23  1  0
 22 24  2  0
 12 25  2  0
 25 26  1  0
 26 27  2  0
 27 28  1  0
  5 29  1  0
 29 30  2  0
 30  2  1  0
 27 10  1  0
 24 18  1  0
  1 31  1  0
  1 32  1  0
  1 33  1  0
  3 34  1  0
  4 35  1  0
 11 36  1  0
 16 37  1  0
 16 38  1  0
 16 39  1  0
 17 40  1  0
 17 41  1  0
 19 42  1  0
 20 43  1  0
 21 44  1  0
 24 45  1  0
 25 46  1  0
 26 47  1  0
 28 48  1  0
 29 49  1  0
 30 50  1  0
M  CHG  2   6  -1  23  -1
M  END
>  <UniqueID>  (36) 
36

>  <SMILES>  (36) 
Cc1ccc([N-]S(=O)(=O)c2cc(C(=O)N(C)Cc3cccc([O-])c3)ccc2O)cc1

>  <Energy>  (36) 
57.14800766188089

>  <Genealogy>  (36) 
Cc1ccc([N-]S(=O)(=O)c2cc(C(=O)N(C)Cc3cccc([O-])c3)ccc2O)cc1 (protonated)
Cc1ccc([N-]S(=O)(=O)c2cc(C(=O)N(C)Cc3cccc([O-])c3)ccc2O)cc1 (3D coordinates assigned)
Cc1ccc([N-]S(=O)(=O)c2cc(C(=O)N(C)Cc3cccc([O-])c3)ccc2O)cc1 (optimized conformer: 57.14800766188089 kcal/mol)

>  <smiles>  (36) 
Cc1ccc(NS(=O)(=O)c2cc(C(=O)N(C)Cc3cccc(O)c3)ccc2O)cc1

>  <score_type>  (36) 
oracle

>  <origin>  (36) 
adg

>  <m_score__min__energy>  (36) 
-13.08

>  <m_primary>  (36) 
energy

$$$$
36:0
     RDKit          3D

 36 38  0  0  0  0  0  0  0  0999 V2000
   58.8420   33.1820   47.7650 C   0  0  0  0  0  0  0  0  0  0  0  0
   58.3820   32.5520   46.4910 C   0  0  0  0  0  0  0  0  0  0  0  0
   57.9210   31.2800   46.4100 N   0  0  0  0  0  0  0  0  0  0  0  0
   57.6170   31.1400   45.1020 C   0  0  0  0  0  0  0  0  0  0  0  0
   57.0920   29.9900   44.5100 C   0  0  0  0  0  0  0  0  0  0  0  0
   56.8540   28.8530   45.2980 O   0  0  0  0  0  0  0  0  0  0  0  0
   57.8310   28.2070   46.1160 C   0  0  0  0  0  0  0  0  0  0  0  0
   57.7520   26.6960   46.0200 C   0  0  0  0  0  0  0  0  0  0  0  0
   58.9300   25.9220   46.0730 C   0  0  0  0  0  0  0  0  0  0  0  0
   58.8740   24.5310   45.9740 C   0  0  0  0  0  0  0  0  0  0  0  0
   57.6430   23.8890   45.8410 C   0  0  0  0  0  0  0  0  0  0  0  0
   56.4650   24.6340   45.8290 C   0  0  0  0  0  0  0  0  0  0  0  0
   56.5030   26.0300   45.9370 C   0  0  0  0  0  0  0  0  0  0  0  0
   55.2860   26.7150   45.9760 O   0  0  0  0  0  0  0  0  0  0  0  0
   56.8310   30.0420   43.1210 C   0  0  0  0  0  0  0  0  0  0  0  0
   57.0960   31.2130   42.3890 C   0  0  0  0  0  0  0  0  0  0  0  0
   57.6240   32.3340   43.0430 C   0  0  0  0  0  0  0  0  0  0  0  0
   57.8650   32.2450   44.3760 N   0  0  0  0  0  0  0  0  0  0  0  0
   58.3600   33.1500   45.2380 C   0  0  0  0  0  0  0  0  0  0  0  0
   58.7400   34.5570   44.8910 C   0  0  0  0  0  0  0  0  0  0  0  0
   58.4333   32.6223   48.6193 H   0  0  0  0  0  0  0  0  0  0  0  0
   59.9411   33.1642   47.8069 H   0  0  0  0  0  0  0  0  0  0  0  0
   58.4903   34.2234   47.8069 H   0  0  0  0  0  0  0  0  0  0  0  0
   58.8319   28.5303   45.7940 H   0  0  0  0  0  0  0  0  0  0  0  0
   57.6353   28.4890   47.1611 H   0  0  0  0  0  0  0  0  0  0  0  0
   59.9033   26.4201   46.1937 H   0  0  0  0  0  0  0  0  0  0  0  0
   59.8016   23.9404   46.0009 H   0  0  0  0  0  0  0  0  0  0  0  0
   57.6017   22.7939   45.7455 H   0  0  0  0  0  0  0  0  0  0  0  0
   55.4967   24.1209   45.7338 H   0  0  0  0  0  0  0  0  0  0  0  0
   55.1400   27.6200   45.5490 H   0  0  0  0  0  0  0  0  0  0  0  0
   56.4178   29.1601   42.6096 H   0  0  0  0  0  0  0  0  0  0  0  0
   56.8899   31.2488   41.3091 H   0  0  0  0  0  0  0  0  0  0  0  0
   57.8375   33.2613   42.4911 H   0  0  0  0  0  0  0  0  0  0  0  0
   58.8956   35.1333   45.8150 H   0  0  0  0  0  0  0  0  0  0  0  0
   59.6688   34.5512   44.3016 H   0  0  0  0  0  0  0  0  0  0  0  0
   57.9346   35.0196   44.3016 H   0  0  0  0  0  0  0  0  0  0  0  0
  1  2  1  0
  2  3  1  0
  3  4  2  0
  4  5  1  0
  5  6  1  0
  6  7  1  0
  7  8  1  0
  8  9  2  0
  9 10  1  0
 10 11  2  0
 11 12  1  0
 12 13  2  0
 13 14  1  0
  5 15  2  0
 15 16  1  0
 16 17  2  0
 17 18  1  0
 18 19  1  0
 19 20  1  0
 19  2  2  0
 18  4  1  0
 13  8  1  0
  1 21  1  0
  1 22  1  0
  1 23  1  0
  7 24  1  0
  7 25  1  0
  9 26  1  0
 10 27  1  0
 11 28  1  0
 12 29  1  0
 14 30  1  0
 15 31  1  0
 16 32  1  0
 17 33  1  0
 20 34  1  0
 20 35  1  0
 20 36  1  0
M  END
>  <UniqueID>  (37) 
37

>  <SMILES>  (37) 
Cc1nc2c(OCc3ccccc3O)cccn2c1C

>  <Energy>  (37) 
73.69791004350631

>  <Genealogy>  (37) 
Cc1nc2c(OCc3ccccc3O)cccn2c1C (3D coordinates assigned)
Cc1nc2c(OCc3ccccc3O)cccn2c1C (optimized conformer: 73.69791004350631 kcal/mol)

>  <smiles>  (37) 
Cc1nc2c(OCc3ccccc3O)cccn2c1C

>  <score_type>  (37) 
oracle

>  <origin>  (37) 
adg

>  <m_score__min__energy>  (37) 
-8.5700000000000003

>  <m_primary>  (37) 
energy

$$$$
37:0
     RDKit          3D

 45 48  0  0  0  0  0  0  0  0999 V2000
   58.9077   33.9156   52.4168 H   0  0  0  0  0  0  0  0  0  0  0  0
   58.9170   33.1500   51.6270 C   0  0  0  0  0  0  0  0  0  0  0  0
   59.7960   33.3090   50.6250 C   0  0  0  0  0  0  0  0  0  0  0  0
   60.8625   33.3567   50.8903 H   0  0  0  0  0  0  0  0  0  0  0  0
   59.4460   33.4250   49.1950 C   0  0  0  0  0  0  0  0  0  0  0  0
   60.1560   34.2870   48.3420 C   0  0  0  0  0  0  0  0  0  0  0  0
   60.9641   34.9142   48.7464 H   0  0  0  0  0  0  0  0  0  0  0  0
   59.8400   34.3510   46.9820 C   0  0  0  0  0  0  0  0  0  0  0  0
   60.3901   35.0418   46.3261 H   0  0  0  0  0  0  0  0  0  0  0  0
   58.8240   33.5390   46.4450 C   0  0  0  0  0  0  0  0  0  0  0  0
   58.4880   33.6090   45.0030 C   0  0  0  0  0  0  0  0  0  0  0  0
   59.2600   34.2140   44.2090 O   0  0  0  0  0  0  0  0  0  0  0  0
   57.2840   32.9900   44.5170 N   0  0  0  0  0  0  0  0  0  0  0  0
   57.1360   31.7360   44.2070 C   0  0  0  0  0  0  0  0  0  0  0  0
   57.0500   30.7310   45.1060 N   0  0  0  0  0  0  0  0  0  0  0  0
   56.8880   29.5260   44.4950 C   0  0  0  0  0  0  0  0  0  0  0  0
   56.8300   28.2830   45.2890 C   0  0  0  0  0  0  0  0  0  0  0  0
   55.9010   27.6963   45.2377 H   0  0  0  0  0  0  0  0  0  0  0  0
   57.8150   27.8070   46.0690 C   0  0  0  0  0  0  0  0  0  0  0  0
   57.8387   26.7217   46.2468 H   0  0  0  0  0  0  0  0  0  0  0  0
   58.8700   28.6230   46.7080 C   0  0  0  0  0  0  0  0  0  0  0  0
   59.7880   29.3120   45.8990 C   0  0  0  0  0  0  0  0  0  0  0  0
   59.7316   29.2185   44.8044 H   0  0  0  0  0  0  0  0  0  0  0  0
   60.7730   30.1160   46.4790 C   0  0  0  0  0  0  0  0  0  0  0  0
   61.4994   30.6405   45.8408 H   0  0  0  0  0  0  0  0  0  0  0  0
   60.8370   30.2550   47.8680 C   0  0  0  0  0  0  0  0  0  0  0  0
   61.6178   30.8823   48.3227 H   0  0  0  0  0  0  0  0  0  0  0  0
   59.9090   29.5970   48.6790 C   0  0  0  0  0  0  0  0  0  0  0  0
   59.9553   29.7128   49.7719 H   0  0  0  0  0  0  0  0  0  0  0  0
   58.9220   28.7920   48.1040 C   0  0  0  0  0  0  0  0  0  0  0  0
   58.1831   28.2887   48.7449 H   0  0  0  0  0  0  0  0  0  0  0  0
   56.8820   29.5730   43.0990 C   0  0  0  0  0  0  0  0  0  0  0  0
   56.7877   28.7091   42.4246 H   0  0  0  0  0  0  0  0  0  0  0  0
   57.0440   31.1800   42.6280 S   0  0  0  0  0  0  0  0  0  0  0  0
   58.1380   32.6550   47.2990 C   0  0  0  0  0  0  0  0  0  0  0  0
   57.3460   32.0083   46.8934 H   0  0  0  0  0  0  0  0  0  0  0  0
   58.4560   32.5930   48.6590 C   0  0  0  0  0  0  0  0  0  0  0  0
   57.9246   31.8855   49.3124 H   0  0  0  0  0  0  0  0  0  0  0  0
   57.9610   32.0310   51.7560 C   0  0  0  0  0  0  0  0  0  0  0  0
   56.6750   32.1450   52.1330 N   0  0  0  0  0  0  0  0  0  0  0  0
   56.1980   30.8870   52.0320 C   0  0  0  0  0  0  0  0  0  0  0  0
   55.1622   30.6140   52.2821 H   0  0  0  0  0  0  0  0  0  0  0  0
   57.1120   29.9950   51.5950 N   0  0  0  0  0  0  0  0  0  0  0  0
   58.2250   30.7260   51.4150 C   0  0  0  0  0  0  0  0  0  0  0  0
   59.1905   30.3423   51.0535 H   0  0  0  0  0  0  0  0  0  0  0  0
  1  2  1  0
  2  3  2  3
  3  4  1  0
  3  5  1  0
  5  6  2  0
  6  7  1  0
  6  8  1  0
  8  9  1  0
  8 10  2  0
 10 11  1  0
 11 12  2  0
 11 13  1  0
 13 14  2  0
 14 15  1  0
 15 16  1  0
 16 17  1  0
 17 18  1  0
 17 19  2  0
 19 20  1  0
 19 21  1  0
 21 22  2  0
 22 23  1  0
 22 24  1  0
 24 25  1  0
 24 26  2  0
 26 27  1  0
 26 28  1  0
 28 29  1  0
 28 30  2  0
 30 31  1  0
 16 32  2  0
 32 33  1  0
 32 34  1  0
 10 35  1  0
 35 36  1  0
 35 37  2  0
 37 38  1  0
  2 39  1  0
 39 40  1  0
 40 41  2  0
 41 42  1  0
 41 43  1  0
 43 44  1  0
 44 45  1  0
 37  5  1  0
 44 39  2  0
 34 14  1  0
 30 21  1  0
M  CHG  2  15  -1  43  -1
M  END
>  <UniqueID>  (38) 
38

>  <SMILES>  (38) 
O=C(/N=c1\[n-]c(/C=C\c2ccccc2)cs1)c1ccc(C=Cc2c[n-]cn2)cc1

>  <Energy>  (38) 
125.70410460954045

>  <Genealogy>  (38) 
O=C(N=c1[n-]c(C=Cc2ccccc2)cs1)c1ccc(C=Cc2c[n-]cn2)cc1 (protonated)
O=C(/N=c1\[n-]c(/C=C\c2ccccc2)cs1)c1ccc(C=Cc2c[n-]cn2)cc1 (cis-trans isomerization)
O=C(/N=c1\[n-]c(/C=C\c2ccccc2)cs1)c1ccc(C=Cc2c[n-]cn2)cc1 (3D coordinates assigned)
O=C(/N=c1\[n-]c(/C=C\c2ccccc2)cs1)c1ccc(C=Cc2c[n-]cn2)cc1 (optimized conformer: 125.70410460954045 kcal/mol)

>  <smiles>  (38) 
O=C(N=c1[nH]c(C=Cc2ccccc2)cs1)c1ccc(C=Cc2c[nH]cn2)cc1

>  <score_type>  (38) 
oracle

>  <origin>  (38) 
adg

>  <m_score__min__energy>  (38) 
-12.550000000000001

>  <m_primary>  (38) 
energy

$$$$
38:0
     RDKit          3D

 60 63  0  0  0  0  0  0  0  0999 V2000
   58.1340   32.6440   43.8080 C   0  0  0  0  0  0  0  0  0  0  0  0
   57.2830   33.2810   44.9010 C   0  0  0  0  0  0  0  0  0  0  0  0
   58.0930   33.5120   46.1470 C   0  0  0  0  0  0  0  0  0  0  0  0
   57.9210   32.7430   47.3090 C   0  0  0  0  0  0  0  0  0  0  0  0
   58.7950   33.1000   48.3320 C   0  0  0  0  0  0  0  0  0  0  0  0
   58.8800   32.5180   49.6390 N   0  0  0  0  0  0  0  0  0  0  0  0
   59.6970   32.9790   50.7260 C   0  0  0  0  0  0  0  0  0  0  0  0
   59.2800   33.8740   51.5080 O   0  0  0  0  0  0  0  0  0  0  0  0
   61.0040   32.4330   50.9310 N   0  0  0  0  0  0  0  0  0  0  0  0
   61.9750   32.1930   49.8630 C   0  0  1  0  0  0  0  0  0  0  0  0
   63.2390   31.5740   50.4550 C   0  0  0  0  0  0  0  0  0  0  0  0
   61.4060   31.2910   48.8060 C   0  0  0  0  0  0  0  0  0  0  0  0
   60.5290   30.2990   49.0800 N   0  0  0  0  0  0  0  0  0  0  0  0
   60.1920   29.5950   47.9670 C   0  0  0  0  0  0  0  0  0  0  0  0
   60.7970   30.0370   46.7950 C   0  0  0  0  0  0  0  0  0  0  0  0
   60.7430   29.3410   45.4730 C   0  0  0  0  0  0  0  0  0  0  0  0
   59.6480   28.3060   45.4920 C   0  0  0  0  0  0  0  0  0  0  0  0
   59.8500   27.0930   46.1690 C   0  0  0  0  0  0  0  0  0  0  0  0
   58.8720   26.0970   46.1480 C   0  0  0  0  0  0  0  0  0  0  0  0
   57.6750   26.2910   45.4390 C   0  0  0  0  0  0  0  0  0  0  0  0
   56.6210   25.2500   45.4280 C   0  0  0  0  0  0  0  0  0  0  0  0
   55.5340   25.4810   46.0240 O   0  0  0  0  0  0  0  0  0  0  0  0
   56.7990   23.9540   44.7280 C   0  0  0  0  0  0  0  0  0  0  0  0
   56.1240   23.7080   43.5180 C   0  0  0  0  0  0  0  0  0  0  0  0
   56.3110   22.5010   42.8370 C   0  0  0  0  0  0  0  0  0  0  0  0
   57.1790   21.5360   43.3490 C   0  0  0  0  0  0  0  0  0  0  0  0
   57.8640   21.7740   44.5430 C   0  0  0  0  0  0  0  0  0  0  0  0
   57.6820   22.9770   45.2270 C   0  0  0  0  0  0  0  0  0  0  0  0
   57.4690   27.5050   44.7660 C   0  0  0  0  0  0  0  0  0  0  0  0
   58.4510   28.5050   44.7770 C   0  0  0  0  0  0  0  0  0  0  0  0
   58.2390   29.6930   44.0790 O   0  0  0  0  0  0  0  0  0  0  0  0
   61.7810   31.3480   47.1630 S   0  0  0  0  0  0  0  0  0  0  0  0
   59.8090   34.3210   47.7920 S   0  0  0  0  0  0  0  0  0  0  0  0
   59.1170   34.4560   46.2630 C   0  0  0  0  0  0  0  0  0  0  0  0
   59.5720   35.4180   45.2120 C   0  0  0  0  0  0  0  0  0  0  0  0
   58.9338   32.0453   44.2682 H   0  0  0  0  0  0  0  0  0  0  0  0
   57.5028   31.9945   43.1836 H   0  0  0  0  0  0  0  0  0  0  0  0
   58.5793   33.4326   43.1836 H   0  0  0  0  0  0  0  0  0  0  0  0
   56.8956   34.2450   44.5397 H   0  0  0  0  0  0  0  0  0  0  0  0
   56.4541   32.5994   45.1425 H   0  0  0  0  0  0  0  0  0  0  0  0
   57.1732   31.9416   47.4014 H   0  0  0  0  0  0  0  0  0  0  0  0
   62.2204   33.1554   49.3902 H   0  0  0  0  0  0  0  0  0  0  0  0
   63.1814   31.6022   51.5531 H   0  0  0  0  0  0  0  0  0  0  0  0
   63.3281   30.5303   50.1192 H   0  0  0  0  0  0  0  0  0  0  0  0
   64.1181   32.1435   50.1192 H   0  0  0  0  0  0  0  0  0  0  0  0
   59.4961   28.7434   47.9912 H   0  0  0  0  0  0  0  0  0  0  0  0
   60.5387   30.0758   44.6803 H   0  0  0  0  0  0  0  0  0  0  0  0
   61.7076   28.8493   45.2789 H   0  0  0  0  0  0  0  0  0  0  0  0
   60.7868   26.9258   46.7207 H   0  0  0  0  0  0  0  0  0  0  0  0
   59.0398   25.1546   46.6899 H   0  0  0  0  0  0  0  0  0  0  0  0
   55.4455   24.4693   43.1056 H   0  0  0  0  0  0  0  0  0  0  0  0
   55.7730   22.3121   41.8963 H   0  0  0  0  0  0  0  0  0  0  0  0
   57.3241   20.5870   42.8120 H   0  0  0  0  0  0  0  0  0  0  0  0
   58.5480   21.0120   44.9448 H   0  0  0  0  0  0  0  0  0  0  0  0
   58.2316   23.1631   46.1615 H   0  0  0  0  0  0  0  0  0  0  0  0
   56.5268   27.6736   44.2240 H   0  0  0  0  0  0  0  0  0  0  0  0
   58.4760   29.7840   43.0970 H   0  0  0  0  0  0  0  0  0  0  0  0
   59.9951   36.3126   45.6922 H   0  0  0  0  0  0  0  0  0  0  0  0
   60.3397   34.9404   44.5854 H   0  0  0  0  0  0  0  0  0  0  0  0
   58.7158   35.7085   44.5854 H   0  0  0  0  0  0  0  0  0  0  0  0
  1  2  1  0
  2  3  1  0
  3  4  1  0
  4  5  2  0
  5  6  1  0
  6  7  1  0
  7  8  2  0
  7  9  1  0
  9 10  1  0
 10 11  1  0
 10 12  1  0
 12 13  2  0
 13 14  1  0
 14 15  2  0
 15 16  1  0
 16 17  1  0
 17 18  2  0
 18 19  1  0
 19 20  2  0
 20 21  1  0
 21 22  2  0
 21 23  1  0
 23 24  2  0
 24 25  1  0
 25 26  2  0
 26 27  1  0
 27 28  2  0
 20 29  1  0
 29 30  2  0
 30 31  1  0
 15 32  1  0
  5 33  1  0
 33 34  1  0
 34 35  1  0
 34  3  2  0
 32 12  1  0
 30 17  1  0
 28 23  1  0
  1 36  1  0
  1 37  1  0
  1 38  1  0
  2 39  1  0
  2 40  1  0
  4 41  1  0
 10 42  1  6
 11 43  1  0
 11 44  1  0
 11 45  1  0
 14 46  1  0
 16 47  1  0
 16 48  1  0
 18 49  1  0
 19 50  1  0
 24 51  1  0
 25 52  1  0
 26 53  1  0
 27 54  1  0
 28 55  1  0
 29 56  1  0
 31 57  1  0
 35 58  1  0
 35 59  1  0
 35 60  1  0
M  CHG  2   6  -1   9  -1
M  END
>  <UniqueID>  (39) 
39

>  <SMILES>  (39) 
CCc1cc([N-]C(=O)[N-][C@@H](C)c2ncc(Cc3ccc(C(=O)c4ccccc4)cc3O)s2)sc1C

>  <Energy>  (39) 
109.51585259885428

>  <Genealogy>  (39) 
CCc1cc([N-]C(=O)[N-]C(C)c2ncc(Cc3ccc(C(=O)c4ccccc4)cc3O)s2)sc1C (protonated)
CCc1cc([N-]C(=O)[N-][C@@H](C)c2ncc(Cc3ccc(C(=O)c4ccccc4)cc3O)s2)sc1C (chirality)
CCc1cc([N-]C(=O)[N-][C@@H](C)c2ncc(Cc3ccc(C(=O)c4ccccc4)cc3O)s2)sc1C (3D coordinates assigned)
CCc1cc([N-]C(=O)[N-][C@@H](C)c2ncc(Cc3ccc(C(=O)c4ccccc4)cc3O)s2)sc1C (optimized conformer: 109.51585259885428 kcal/mol)

>  <smiles>  (39) 
CCc1cc(NC(=O)NC(C)c2ncc(Cc3ccc(C(=O)c4ccccc4)cc3O)s2)sc1C

>  <score_type>  (39) 
oracle

>  <origin>  (39) 
adg

>  <m_score__min__energy>  (39) 
-13.5

>  <m_primary>  (39) 
energy

$$$$
39:0
     RDKit          3D

 39 40  0  0  0  0  0  0  0  0999 V2000
   54.4640   23.1020   46.0640 C   0  0  0  0  0  0  0  0  0  0  0  0
   55.5120   23.6110   45.2450 O   0  0  0  0  0  0  0  0  0  0  0  0
   56.2670   24.7570   45.5410 C   0  0  0  0  0  0  0  0  0  0  0  0
   57.6690   24.7320   45.6330 C   0  0  0  0  0  0  0  0  0  0  0  0
   58.4040   25.8930   45.9440 C   0  0  0  0  0  0  0  0  0  0  0  0
   57.7110   27.1270   46.1190 C   0  0  0  0  0  0  0  0  0  0  0  0
   56.3070   27.1260   46.0350 C   0  0  0  0  0  0  0  0  0  0  0  0
   55.5960   25.9620   45.7500 C   0  0  0  0  0  0  0  0  0  0  0  0
   54.2080   26.0070   45.6710 O   0  0  0  0  0  0  0  0  0  0  0  0
   58.3510   28.3950   46.3960 N   0  0  0  0  0  0  0  0  0  0  0  0
   59.7220   28.7540   46.1470 C   0  0  0  0  0  0  0  0  0  0  0  0
   60.0370   30.1330   45.6540 C   0  0  0  0  0  0  0  0  0  0  0  0
   58.6890   31.2520   46.0260 S   0  0  0  0  0  0  0  0  0  0  0  0
   57.4820   30.8540   45.2220 O   0  0  0  0  0  0  0  0  0  0  0  0
   58.3490   31.1370   47.4870 O   0  0  0  0  0  0  0  0  0  0  0  0
   59.0940   32.9130   45.6640 N   0  0  0  0  0  0  0  0  0  0  0  0
   58.9330   33.7460   46.8620 C   0  0  0  0  0  0  0  0  0  0  0  0
   58.2450   33.4150   44.5770 C   0  0  0  0  0  0  0  0  0  0  0  0
   60.7060   27.9830   46.4930 N   0  0  0  0  0  0  0  0  0  0  0  0
   60.5430   26.6570   47.0570 C   0  0  0  0  0  0  0  0  0  0  0  0
   59.9070   25.7440   46.0200 C   0  0  0  0  0  0  0  0  0  0  0  0
   54.7307   23.2315   47.1233 H   0  0  0  0  0  0  0  0  0  0  0  0
   53.5335   23.6486   45.8506 H   0  0  0  0  0  0  0  0  0  0  0  0
   54.3183   22.0328   45.8506 H   0  0  0  0  0  0  0  0  0  0  0  0
   58.2036   23.7866   45.4586 H   0  0  0  0  0  0  0  0  0  0  0  0
   55.7579   28.0651   46.1979 H   0  0  0  0  0  0  0  0  0  0  0  0
   57.7180   29.2020   46.5960 H   0  0  0  0  0  0  0  0  0  0  0  0
   60.9530   30.4931   46.1452 H   0  0  0  0  0  0  0  0  0  0  0  0
   60.1813   30.0980   44.5641 H   0  0  0  0  0  0  0  0  0  0  0  0
   59.0534   33.1231   47.7606 H   0  0  0  0  0  0  0  0  0  0  0  0
   59.6943   34.5400   46.8615 H   0  0  0  0  0  0  0  0  0  0  0  0
   57.9307   34.1991   46.8615 H   0  0  0  0  0  0  0  0  0  0  0  0
   57.3718   33.9313   45.0024 H   0  0  0  0  0  0  0  0  0  0  0  0
   58.8206   34.1181   43.9570 H   0  0  0  0  0  0  0  0  0  0  0  0
   57.9063   32.5718   43.9570 H   0  0  0  0  0  0  0  0  0  0  0  0
   61.5263   26.2569   47.3451 H   0  0  0  0  0  0  0  0  0  0  0  0
   59.8968   26.7115   47.9455 H   0  0  0  0  0  0  0  0  0  0  0  0
   60.3332   25.9826   45.0344 H   0  0  0  0  0  0  0  0  0  0  0  0
   60.1202   24.7072   46.3194 H   0  0  0  0  0  0  0  0  0  0  0  0
  1  2  1  0
  2  3  1  0
  3  4  2  0
  4  5  1  0
  5  6  2  0
  6  7  1  0
  7  8  2  0
  8  9  1  0
  6 10  1  0
 10 11  1  0
 11 12  1  0
 12 13  1  0
 13 14  2  0
 13 15  2  0
 13 16  1  0
 16 17  1  0
 16 18  1  0
 11 19  2  0
 19 20  1  0
 20 21  1  0
  8  3  1  0
 21  5  1  0
  1 22  1  0
  1 23  1  0
  1 24  1  0
  4 25  1  0
  7 26  1  0
 10 27  1  0
 12 28  1  0
 12 29  1  0
 17 30  1  0
 17 31  1  0
 17 32  1  0
 18 33  1  0
 18 34  1  0
 18 35  1  0
 20 36  1  0
 20 37  1  0
 21 38  1  0
 21 39  1  0
M  CHG  1   9  -1
M  END
>  <UniqueID>  (40) 
40

>  <SMILES>  (40) 
COc1cc2c(cc1[O-])NC(CS(=O)(=O)N(C)C)=NCC2

>  <Energy>  (40) 
40.314768641296936

>  <Genealogy>  (40) 
COc1cc2c(cc1[O-])NC(CS(=O)(=O)N(C)C)=NCC2 (protonated)
COc1cc2c(cc1[O-])NC(CS(=O)(=O)N(C)C)=NCC2 (3D coordinates assigned)
COc1cc2c(cc1[O-])NC(CS(=O)(=O)N(C)C)=NCC2 (nonaromatic ring conformer: 40.314768641296936 kcal/mol)

>  <smiles>  (40) 
COc1cc2c(cc1O)NC(CS(=O)(=O)N(C)C)=NCC2

>  <score_type>  (40) 
oracle

>  <origin>  (40) 
adg

>  <m_score__min__energy>  (40) 
-7.1299999999999999

>  <m_primary>  (40) 
energy

$$$$
40:0
     RDKit          3D

 32 32  0  0  0  0  0  0  0  0999 V2000
   58.4280   31.0960   47.1670 N   0  0  0  0  0  0  0  0  0  0  0  0
   59.3010   32.2690   47.1960 C   0  0  0  0  0  0  0  0  0  0  0  0
   58.6640   33.5010   46.5230 C   0  0  0  0  0  0  0  0  0  0  0  0
   58.6730   33.4690   44.9840 C   0  0  0  0  0  0  0  0  0  0  0  0
   57.4230   32.7960   44.3950 C   0  0  0  0  0  0  0  0  0  0  0  0
   57.6080   31.2800   44.2460 C   0  0  0  0  0  0  0  0  0  0  0  0
   56.7730   30.5440   45.1960 N   0  0  0  0  0  0  0  0  0  0  0  0
   56.2970   29.2010   45.0340 C   0  0  0  0  0  0  0  0  0  0  0  0
   55.1340   29.0210   44.5900 O   0  0  0  0  0  0  0  0  0  0  0  0
   57.1290   28.0260   45.3640 C   0  0  0  0  0  0  0  0  0  0  0  0
   58.5270   28.0950   45.2440 C   0  0  0  0  0  0  0  0  0  0  0  0
   59.3190   26.9890   45.5640 C   0  0  0  0  0  0  0  0  0  0  0  0
   58.7250   25.8090   46.0200 C   0  0  0  0  0  0  0  0  0  0  0  0
   59.5140   24.7100   46.3370 O   0  0  0  0  0  0  0  0  0  0  0  0
   57.3360   25.7360   46.1620 C   0  0  0  0  0  0  0  0  0  0  0  0
   56.5370   26.8410   45.8430 C   0  0  0  0  0  0  0  0  0  0  0  0
   55.1570   26.7480   45.9930 O   0  0  0  0  0  0  0  0  0  0  0  0
   58.6510   30.5160   46.3250 H   0  0  0  0  0  0  0  0  0  0  0  0
   57.4340   31.4090   47.0920 H   0  0  0  0  0  0  0  0  0  0  0  0
   59.5235   32.5164   48.2445 H   0  0  0  0  0  0  0  0  0  0  0  0
   60.2134   32.0183   46.6350 H   0  0  0  0  0  0  0  0  0  0  0  0
   57.6188   33.5726   46.8582 H   0  0  0  0  0  0  0  0  0  0  0  0
   59.2736   34.3673   46.8196 H   0  0  0  0  0  0  0  0  0  0  0  0
   58.7243   34.5027   44.6113 H   0  0  0  0  0  0  0  0  0  0  0  0
   59.5462   32.8783   44.6701 H   0  0  0  0  0  0  0  0  0  0  0  0
   56.5688   32.9866   45.0613 H   0  0  0  0  0  0  0  0  0  0  0  0
   57.2466   33.2186   43.3948 H   0  0  0  0  0  0  0  0  0  0  0  0
   57.3317   30.9846   43.2231 H   0  0  0  0  0  0  0  0  0  0  0  0
   58.6613   31.0381   44.4513 H   0  0  0  0  0  0  0  0  0  0  0  0
   59.0009   29.0248   44.8962 H   0  0  0  0  0  0  0  0  0  0  0  0
   60.4122   27.0473   45.4568 H   0  0  0  0  0  0  0  0  0  0  0  0
   56.8696   24.8083   46.5252 H   0  0  0  0  0  0  0  0  0  0  0  0
  1  2  1  0
  2  3  1  0
  3  4  1  0
  4  5  1  0
  5  6  1  0
  6  7  1  0
  7  8  1  0
  8  9  2  0
  8 10  1  0
 10 11  2  0
 11 12  1  0
 12 13  2  0
 13 14  1  0
 13 15  1  0
 15 16  2  0
 16 17  1  0
 16 10  1  0
  1 18  1  0
  1 19  1  0
  2 20  1  0
  2 21  1  0
  3 22  1  0
  3 23  1  0
  4 24  1  0
  4 25  1  0
  5 26  1  0
  5 27  1  0
  6 28  1  0
  6 29  1  0
 11 30  1  0
 12 31  1  0
 15 32  1  0
M  CHG  3   7  -1  14  -1  17  -1
M  END
>  <UniqueID>  (41) 
41

>  <SMILES>  (41) 
NCCCCC[N-]C(=O)c1ccc([O-])cc1[O-]

>  <Energy>  (41) 
27.367554479688227

>  <Genealogy>  (41) 
NCCCCC[N-]C(=O)c1ccc([O-])cc1[O-] (protonated)
NCCCCC[N-]C(=O)c1ccc([O-])cc1[O-] (3D coordinates assigned)
NCCCCC[N-]C(=O)c1ccc([O-])cc1[O-] (optimized conformer: 27.367554479688227 kcal/mol)

>  <smiles>  (41) 
NCCCCCNC(=O)c1ccc(O)cc1O

>  <score_type>  (41) 
oracle

>  <origin>  (41) 
adg

>  <m_score__min__energy>  (41) 
-12.58

>  <m_primary>  (41) 
energy

$$$$
41:0
     RDKit          3D

 39 41  0  0  0  0  0  0  0  0999 V2000
   58.7170   30.1460   48.0250 H   0  0  0  0  0  0  0  0  0  0  0  0
   58.8890   31.1590   47.8300 N   0  0  0  0  0  0  0  0  0  0  0  0
   58.5980   31.7150   46.6920 C   0  0  0  0  0  0  0  0  0  0  0  0
   59.0900   32.9930   46.3930 C   0  0  0  0  0  0  0  0  0  0  0  0
   59.7260   33.5212   47.1186 H   0  0  0  0  0  0  0  0  0  0  0  0
   58.7720   33.5970   45.1710 C   0  0  0  0  0  0  0  0  0  0  0  0
   59.3310   34.9490   44.8380 C   0  0  0  0  0  0  0  0  0  0  0  0
   59.5556   35.4921   45.7679 H   0  0  0  0  0  0  0  0  0  0  0  0
   60.2536   34.8299   44.2510 H   0  0  0  0  0  0  0  0  0  0  0  0
   58.5936   35.5162   44.2510 H   0  0  0  0  0  0  0  0  0  0  0  0
   58.0080   32.9290   44.2610 N   0  0  0  0  0  0  0  0  0  0  0  0
   57.7970   33.3870   43.3440 H   0  0  0  0  0  0  0  0  0  0  0  0
   57.5100   31.6840   44.5170 C   0  0  0  0  0  0  0  0  0  0  0  0
   56.7080   31.0380   43.5660 C   0  0  0  0  0  0  0  0  0  0  0  0
   56.4815   31.5371   42.6123 H   0  0  0  0  0  0  0  0  0  0  0  0
   56.1950   29.7650   43.8220 C   0  0  0  0  0  0  0  0  0  0  0  0
   55.5550   29.2748   43.0736 H   0  0  0  0  0  0  0  0  0  0  0  0
   56.4870   29.1080   45.0200 C   0  0  0  0  0  0  0  0  0  0  0  0
   55.9220   27.8080   45.2450 N   0  0  0  0  0  0  0  0  0  0  0  0
   56.5570   26.7040   45.9000 C   0  0  0  0  0  0  0  0  0  0  0  0
   55.8900   25.9170   46.6260 O   0  0  0  0  0  0  0  0  0  0  0  0
   57.9350   26.5290   45.7440 O   0  0  0  0  0  0  0  0  0  0  0  0
   58.8900   27.2540   46.4660 C   0  0  0  0  0  0  0  0  0  0  0  0
   58.9490   27.0790   47.8550 C   0  0  0  0  0  0  0  0  0  0  0  0
   58.2652   26.3713   48.3465 H   0  0  0  0  0  0  0  0  0  0  0  0
   59.8710   27.7980   48.6190 C   0  0  0  0  0  0  0  0  0  0  0  0
   59.9092   27.6580   49.7094 H   0  0  0  0  0  0  0  0  0  0  0  0
   60.7440   28.6940   48.0000 C   0  0  0  0  0  0  0  0  0  0  0  0
   61.4585   29.2713   48.6052 H   0  0  0  0  0  0  0  0  0  0  0  0
   60.7120   28.8590   46.6130 C   0  0  0  0  0  0  0  0  0  0  0  0
   61.4028   29.5664   46.1310 H   0  0  0  0  0  0  0  0  0  0  0  0
   59.8040   28.1280   45.8300 C   0  0  0  0  0  0  0  0  0  0  0  0
   59.8200   28.2990   44.3360 C   0  0  0  0  0  0  0  0  0  0  0  0
   59.9199   29.3665   44.0902 H   0  0  0  0  0  0  0  0  0  0  0  0
   60.6702   27.7441   43.9125 H   0  0  0  0  0  0  0  0  0  0  0  0
   58.8817   27.9114   43.9125 H   0  0  0  0  0  0  0  0  0  0  0  0
   57.2700   29.7580   45.9920 C   0  0  0  0  0  0  0  0  0  0  0  0
   57.4740   29.2592   46.9509 H   0  0  0  0  0  0  0  0  0  0  0  0
   57.7950   31.0430   45.7470 C   0  0  0  0  0  0  0  0  0  0  0  0
  1  2  1  0
  2  3  2  0
  3  4  1  0
  4  5  1  0
  4  6  2  0
  6  7  1  0
  7  8  1  0
  7  9  1  0
  7 10  1  0
  6 11  1  0
 11 12  1  0
 11 13  1  0
 13 14  2  0
 14 15  1  0
 14 16  1  0
 16 17  1  0
 16 18  2  0
 18 19  1  0
 19 20  1  0
 20 21  2  0
 20 22  1  0
 22 23  1  0
 23 24  2  0
 24 25  1  0
 24 26  1  0
 26 27  1  0
 26 28  2  0
 28 29  1  0
 28 30  1  0
 30 31  1  0
 30 32  2  0
 32 33  1  0
 33 34  1  0
 33 35  1  0
 33 36  1  0
 18 37  1  0
 37 38  1  0
 37 39  2  0
 39  3  1  0
 39 13  1  0
 32 23  1  0
M  CHG  1  19  -1
M  END
>  <UniqueID>  (42) 
42

>  <SMILES>  (42) 
[H]/N=c1\cc(C)[nH]c2ccc([N-]C(=O)Oc3ccccc3C)cc12

>  <Energy>  (42) 
56.68379512805422

>  <Genealogy>  (42) 
Cc1cc(=N)c2cc([N-]C(=O)Oc3ccccc3C)ccc2[nH]1 (protonated)
[H]/N=c1\cc(C)[nH]c2ccc([N-]C(=O)Oc3ccccc3C)cc12 (cis-trans isomerization)
[H]/N=c1\cc(C)[nH]c2ccc([N-]C(=O)Oc3ccccc3C)cc12 (3D coordinates assigned)
[H]/N=c1\cc(C)[nH]c2ccc([N-]C(=O)Oc3ccccc3C)cc12 (optimized conformer: 56.68379512805422 kcal/mol)

>  <smiles>  (42) 
Cc1cc(=N)c2cc(NC(=O)Oc3ccccc3C)ccc2[nH]1

>  <score_type>  (42) 
oracle

>  <origin>  (42) 
adg

>  <m_score__min__energy>  (42) 
-8.5999999999999996

>  <m_primary>  (42) 
energy

$$$$
42:0
     RDKit          3D

 46 49  0  0  0  0  0  0  0  0999 V2000
   60.2340   35.2620   45.9940 O   0  0  0  0  0  0  0  0  0  0  0  0
   60.1170   34.3110   46.8170 C   0  0  0  0  0  0  0  0  0  0  0  0
   58.7910   34.0840   47.5040 C   0  0  0  0  0  0  0  0  0  0  0  0
   57.7670   33.3790   46.5980 C   0  0  0  0  0  0  0  0  0  0  0  0
   58.0990   33.5130   45.0970 C   0  0  0  0  0  0  0  0  0  0  0  0
   58.2970   32.2090   44.4240 N   0  0  2  0  0  0  0  0  0  0  0  0
   57.0150   31.6290   43.9790 C   0  0  0  0  0  0  0  0  0  0  0  0
   57.2090   30.1160   44.0030 C   0  0  2  0  0  0  0  0  0  0  0  0
   55.9650   29.3470   44.3750 C   0  0  0  0  0  0  0  0  0  0  0  0
   54.8540   29.6490   43.8630 O   0  0  0  0  0  0  0  0  0  0  0  0
   56.0600   28.2080   45.2350 N   0  0  0  0  0  0  0  0  0  0  0  0
   57.2890   27.8730   45.8850 C   0  0  0  0  0  0  0  0  0  0  0  0
   57.3770   26.7160   46.6670 C   0  0  0  0  0  0  0  0  0  0  0  0
   58.5670   26.4130   47.3360 C   0  0  0  0  0  0  0  0  0  0  0  0
   59.6680   27.2690   47.2290 C   0  0  0  0  0  0  0  0  0  0  0  0
   59.5840   28.4280   46.4540 C   0  0  0  0  0  0  0  0  0  0  0  0
   58.3940   28.7320   45.7710 C   0  0  0  0  0  0  0  0  0  0  0  0
   58.2680   29.9240   44.9760 N   0  0  0  0  0  0  0  0  0  0  0  0
   58.9110   31.1870   45.2970 C   0  0  0  0  0  0  0  0  0  0  0  0
   61.3040   33.4700   47.1260 C   0  0  0  0  0  0  0  0  0  0  0  0
   61.1850   32.2730   47.8610 C   0  0  0  0  0  0  0  0  0  0  0  0
   62.3140   31.4970   48.1430 C   0  0  0  0  0  0  0  0  0  0  0  0
   63.5730   31.9060   47.7010 C   0  0  0  0  0  0  0  0  0  0  0  0
   63.7080   33.0920   46.9770 C   0  0  0  0  0  0  0  0  0  0  0  0
   62.5830   33.8710   46.6920 C   0  0  0  0  0  0  0  0  0  0  0  0
   58.9585   33.4626   48.3961 H   0  0  0  0  0  0  0  0  0  0  0  0
   58.3795   35.0697   47.7669 H   0  0  0  0  0  0  0  0  0  0  0  0
   57.7453   32.3105   46.8584 H   0  0  0  0  0  0  0  0  0  0  0  0
   56.7925   33.8614   46.7644 H   0  0  0  0  0  0  0  0  0  0  0  0
   57.2702   34.0398   44.6014 H   0  0  0  0  0  0  0  0  0  0  0  0
   59.0461   34.0673   45.0202 H   0  0  0  0  0  0  0  0  0  0  0  0
   58.8950   32.3340   43.5730 H   0  0  0  0  0  0  0  0  0  0  0  0
   56.2048   31.9216   44.6631 H   0  0  0  0  0  0  0  0  0  0  0  0
   56.7379   31.9845   42.9756 H   0  0  0  0  0  0  0  0  0  0  0  0
   57.4547   29.7281   43.0034 H   0  0  0  0  0  0  0  0  0  0  0  0
   56.5100   26.0448   46.7555 H   0  0  0  0  0  0  0  0  0  0  0  0
   58.6373   25.5009   47.9468 H   0  0  0  0  0  0  0  0  0  0  0  0
   60.6028   27.0287   47.7567 H   0  0  0  0  0  0  0  0  0  0  0  0
   60.4494   29.1029   46.3783 H   0  0  0  0  0  0  0  0  0  0  0  0
   58.7426   31.4404   46.3541 H   0  0  0  0  0  0  0  0  0  0  0  0
   59.9977   31.1302   45.1365 H   0  0  0  0  0  0  0  0  0  0  0  0
   60.1962   31.9466   48.2156 H   0  0  0  0  0  0  0  0  0  0  0  0
   62.2094   30.5627   48.7141 H   0  0  0  0  0  0  0  0  0  0  0  0
   64.4594   31.2936   47.9232 H   0  0  0  0  0  0  0  0  0  0  0  0
   64.7011   33.4139   46.6304 H   0  0  0  0  0  0  0  0  0  0  0  0
   62.6973   34.8058   46.1236 H   0  0  0  0  0  0  0  0  0  0  0  0
  1  2  2  0
  2  3  1  0
  3  4  1  0
  4  5  1  0
  5  6  1  0
  6  7  1  0
  7  8  1  0
  8  9  1  0
  9 10  2  0
  9 11  1  0
 11 12  1  0
 12 13  2  0
 13 14  1  0
 14 15  2  0
 15 16  1  0
 16 17  2  0
 17 18  1  0
 18 19  1  0
  2 20  1  0
 20 21  2  0
 21 22  1  0
 22 23  2  0
 23 24  1  0
 24 25  2  0
 19  6  1  0
 25 20  1  0
 18  8  1  0
 17 12  1  0
  3 26  1  0
  3 27  1  0
  4 28  1  0
  4 29  1  0
  5 30  1  0
  5 31  1  0
  6 32  1  6
  7 33  1  0
  7 34  1  0
  8 35  1  6
 13 36  1  0
 14 37  1  0
 15 38  1  0
 16 39  1  0
 19 40  1  0
 19 41  1  0
 21 42  1  0
 22 43  1  0
 23 44  1  0
 24 45  1  0
 25 46  1  0
M  CHG  2   6   1  11  -1
M  END
>  <UniqueID>  (43) 
43

>  <SMILES>  (43) 
O=C(CCC[N@@H+]1C[C@@H]2C(=O)[N-]c3ccccc3N2C1)c1ccccc1

>  <Energy>  (43) 
58.533894608128904

>  <Genealogy>  (43) 
O=C(CCC[NH+]1CC2C(=O)[N-]c3ccccc3N2C1)c1ccccc1 (protonated)
O=C(CCC[N@@H+]1C[C@@H]2C(=O)[N-]c3ccccc3N2C1)c1ccccc1 (chirality)
O=C(CCC[N@@H+]1C[C@@H]2C(=O)[N-]c3ccccc3N2C1)c1ccccc1 (3D coordinates assigned)
O=C(CCC[N@@H+]1C[C@@H]2C(=O)[N-]c3ccccc3N2C1)c1ccccc1 (nonaromatic ring conformer: 58.533894608128904 kcal/mol)

>  <smiles>  (43) 
O=C(CCCN1CC2C(=O)Nc3ccccc3N2C1)c1ccccc1

>  <score_type>  (43) 
oracle

>  <origin>  (43) 
adg

>  <m_score__min__energy>  (43) 
-9.2300000000000004

>  <m_primary>  (43) 
energy

$$$$
43:0
     RDKit          3D

 32 33  0  0  0  0  0  0  0  0999 V2000
   55.2260   29.3330   44.8590 O   0  0  0  0  0  0  0  0  0  0  0  0
   56.4780   29.4570   44.9100 C   0  0  0  0  0  0  0  0  0  0  0  0
   57.3440   28.2860   44.5450 C   0  0  0  0  0  0  0  0  0  0  0  0
   59.1030   28.7720   44.4660 S   0  0  0  0  0  0  0  0  0  0  0  0
   59.3390   28.8040   46.2460 C   0  0  0  0  0  0  0  0  0  0  0  0
   60.1530   27.8450   46.8580 C   0  0  0  0  0  0  0  0  0  0  0  0
   60.3300   27.8820   48.2430 C   0  0  0  0  0  0  0  0  0  0  0  0
   59.6980   28.8730   48.9960 C   0  0  0  0  0  0  0  0  0  0  0  0
   58.8990   29.8190   48.3490 C   0  0  0  0  0  0  0  0  0  0  0  0
   58.7380   29.7690   46.9980 N   0  0  0  0  0  0  0  0  0  0  0  0
   57.0320   30.7040   45.3460 N   0  0  0  0  0  0  0  0  0  0  0  0
   57.2380   31.8630   44.4870 C   0  0  0  0  0  0  0  0  0  0  0  0
   57.9730   32.9240   45.2520 C   0  0  0  0  0  0  0  0  0  0  0  0
   57.9600   32.9220   46.6570 C   0  0  0  0  0  0  0  0  0  0  0  0
   58.6160   33.9320   47.3680 C   0  0  0  0  0  0  0  0  0  0  0  0
   59.2790   34.9540   46.6850 C   0  0  0  0  0  0  0  0  0  0  0  0
   59.2820   34.9710   45.2870 C   0  0  0  0  0  0  0  0  0  0  0  0
   58.6270   33.9640   44.5710 C   0  0  0  0  0  0  0  0  0  0  0  0
   57.2221   27.4984   45.3031 H   0  0  0  0  0  0  0  0  0  0  0  0
   57.0372   27.9185   43.5546 H   0  0  0  0  0  0  0  0  0  0  0  0
   60.6485   27.0699   46.2549 H   0  0  0  0  0  0  0  0  0  0  0  0
   60.9651   27.1329   48.7385 H   0  0  0  0  0  0  0  0  0  0  0  0
   59.8277   28.9088   50.0877 H   0  0  0  0  0  0  0  0  0  0  0  0
   58.3988   30.6060   48.9325 H   0  0  0  0  0  0  0  0  0  0  0  0
   58.1370   30.4860   46.5330 H   0  0  0  0  0  0  0  0  0  0  0  0
   57.8294   31.5680   43.6077 H   0  0  0  0  0  0  0  0  0  0  0  0
   56.2643   32.2546   44.1574 H   0  0  0  0  0  0  0  0  0  0  0  0
   57.4323   32.1237   47.1994 H   0  0  0  0  0  0  0  0  0  0  0  0
   58.6098   33.9214   48.4679 H   0  0  0  0  0  0  0  0  0  0  0  0
   59.7983   35.7447   47.2464 H   0  0  0  0  0  0  0  0  0  0  0  0
   59.8007   35.7782   44.7491 H   0  0  0  0  0  0  0  0  0  0  0  0
   58.6239   33.9864   43.4712 H   0  0  0  0  0  0  0  0  0  0  0  0
  1  2  2  0
  2  3  1  0
  3  4  1  0
  4  5  1  0
  5  6  2  0
  6  7  1  0
  7  8  2  0
  8  9  1  0
  9 10  2  0
  2 11  1  0
 11 12  1  0
 12 13  1  0
 13 14  2  0
 14 15  1  0
 15 16  2  0
 16 17  1  0
 17 18  2  0
 10  5  1  0
 18 13  1  0
  3 19  1  0
  3 20  1  0
  6 21  1  0
  7 22  1  0
  8 23  1  0
  9 24  1  0
 10 25  1  0
 12 26  1  0
 12 27  1  0
 14 28  1  0
 15 29  1  0
 16 30  1  0
 17 31  1  0
 18 32  1  0
M  CHG  2  10   1  11  -1
M  END
>  <UniqueID>  (44) 
44

>  <SMILES>  (44) 
O=C(CSc1cccc[nH+]1)[N-]Cc1ccccc1

>  <Energy>  (44) 
25.03875196533391

>  <Genealogy>  (44) 
O=C(CSc1cccc[nH+]1)[N-]Cc1ccccc1 (protonated)
O=C(CSc1cccc[nH+]1)[N-]Cc1ccccc1 (3D coordinates assigned)
O=C(CSc1cccc[nH+]1)[N-]Cc1ccccc1 (optimized conformer: 25.03875196533391 kcal/mol)

>  <smiles>  (44) 
O=C(CSc1ccccn1)NCc1ccccc1

>  <score_type>  (44) 
oracle

>  <origin>  (44) 
adg

>  <m_score__min__energy>  (44) 
-6.9500000000000002

>  <m_primary>  (44) 
energy

$$$$
44:0
     RDKit          3D

 38 39  0  0  0  0  0  0  0  0999 V2000
   55.1140   26.3110   45.9940 O   0  0  0  0  0  0  0  0  0  0  0  0
   56.3110   25.9210   45.9980 C   0  0  0  0  0  0  0  0  0  0  0  0
   57.2880   26.6970   46.7030 N   0  0  0  0  0  0  0  0  0  0  0  0
   57.7930   27.9900   46.2530 C   0  0  0  0  0  0  0  0  0  0  0  0
   57.1220   28.4010   44.9440 C   0  0  0  0  0  0  0  0  0  0  0  0
   57.1060   30.1740   44.7010 S   0  0  0  0  0  0  0  0  0  0  0  0
   57.8110   30.5410   43.4260 O   0  0  0  0  0  0  0  0  0  0  0  0
   55.6750   30.6120   44.5790 O   0  0  0  0  0  0  0  0  0  0  0  0
   57.8030   30.9880   46.0700 N   0  0  0  0  0  0  0  0  0  0  0  0
   58.5770   32.1980   46.0950 C   0  0  0  0  0  0  0  0  0  0  0  0
   59.7250   32.3510   46.8950 C   0  0  0  0  0  0  0  0  0  0  0  0
   60.4790   33.5380   46.8540 C   0  0  0  0  0  0  0  0  0  0  0  0
   61.6810   33.6670   47.6370 N   0  0  0  0  0  0  0  0  0  0  0  0
   61.6240   33.9730   48.8470 O   0  0  0  0  0  0  0  0  0  0  0  0
   62.9160   33.4820   47.0590 O   0  0  0  0  0  0  0  0  0  0  0  0
   60.0480   34.5910   46.0300 C   0  0  0  0  0  0  0  0  0  0  0  0
   58.9000   34.4540   45.2500 C   0  0  0  0  0  0  0  0  0  0  0  0
   58.1680   33.2610   45.2750 C   0  0  0  0  0  0  0  0  0  0  0  0
   57.0280   33.1250   44.4830 O   0  0  0  0  0  0  0  0  0  0  0  0
   56.6690   24.6930   45.2590 C   0  0  0  0  0  0  0  0  0  0  0  0
   55.7780   24.1450   44.3220 C   0  0  0  0  0  0  0  0  0  0  0  0
   56.1210   22.9880   43.6150 C   0  0  0  0  0  0  0  0  0  0  0  0
   57.3590   22.3780   43.8280 C   0  0  0  0  0  0  0  0  0  0  0  0
   58.2610   22.9290   44.7420 C   0  0  0  0  0  0  0  0  0  0  0  0
   57.9240   24.0880   45.4500 C   0  0  0  0  0  0  0  0  0  0  0  0
   58.8170   24.6090   46.3290 F   0  0  0  0  0  0  0  0  0  0  0  0
   57.5820   28.7482   47.0215 H   0  0  0  0  0  0  0  0  0  0  0  0
   58.8774   27.9097   46.0867 H   0  0  0  0  0  0  0  0  0  0  0  0
   57.6666   27.9365   44.1087 H   0  0  0  0  0  0  0  0  0  0  0  0
   56.0762   28.0627   44.9870 H   0  0  0  0  0  0  0  0  0  0  0  0
   60.0364   31.5324   47.5605 H   0  0  0  0  0  0  0  0  0  0  0  0
   60.6200   35.5301   45.9998 H   0  0  0  0  0  0  0  0  0  0  0  0
   58.5684   35.2868   44.6125 H   0  0  0  0  0  0  0  0  0  0  0  0
   56.6730   32.2150   44.2140 H   0  0  0  0  0  0  0  0  0  0  0  0
   54.8060   24.6279   44.1433 H   0  0  0  0  0  0  0  0  0  0  0  0
   55.4144   22.5578   42.8900 H   0  0  0  0  0  0  0  0  0  0  0  0
   57.6241   21.4640   43.2764 H   0  0  0  0  0  0  0  0  0  0  0  0
   59.2380   22.4507   44.9053 H   0  0  0  0  0  0  0  0  0  0  0  0
  1  2  2  0
  2  3  1  0
  3  4  1  0
  4  5  1  0
  5  6  1  0
  6  7  2  0
  6  8  2  0
  6  9  1  0
  9 10  1  0
 10 11  2  0
 11 12  1  0
 12 13  1  0
 13 14  2  0
 13 15  1  0
 12 16  2  0
 16 17  1  0
 17 18  2  0
 18 19  1  0
  2 20  1  0
 20 21  2  0
 21 22  1  0
 22 23  2  0
 23 24  1  0
 24 25  2  0
 25 26  1  0
 18 10  1  0
 25 20  1  0
  4 27  1  0
  4 28  1  0
  5 29  1  0
  5 30  1  0
 11 31  1  0
 16 32  1  0
 17 33  1  0
 19 34  1  0
 21 35  1  0
 22 36  1  0
 23 37  1  0
 24 38  1  0
M  CHG  4   3  -1   9  -1  13   1  15  -1
M  END
>  <UniqueID>  (45) 
45

>  <SMILES>  (45) 
O=C([N-]CCS(=O)(=O)[N-]c1cc([N+](=O)[O-])ccc1O)c1ccccc1F

>  <Energy>  (45) 
41.26813140955089

>  <Genealogy>  (45) 
O=C([N-]CCS(=O)(=O)[N-]c1cc([N+](=O)[O-])ccc1O)c1ccccc1F (protonated)
O=C([N-]CCS(=O)(=O)[N-]c1cc([N+](=O)[O-])ccc1O)c1ccccc1F (3D coordinates assigned)
O=C([N-]CCS(=O)(=O)[N-]c1cc([N+](=O)[O-])ccc1O)c1ccccc1F (optimized conformer: 41.26813140955089 kcal/mol)

>  <smiles>  (45) 
O=C(NCCS(=O)(=O)Nc1cc([N+](=O)[O-])ccc1O)c1ccccc1F

>  <score_type>  (45) 
oracle

>  <origin>  (45) 
adg

>  <m_score__min__energy>  (45) 
-11.539999999999999

>  <m_primary>  (45) 
energy

$$$$
45:0
     RDKit          3D

 59 62  0  0  0  0  0  0  0  0999 V2000
   58.9110   34.5410   53.2270 C   0  0  0  0  0  0  0  0  0  0  0  0
   58.6010   33.4590   52.3540 O   0  0  0  0  0  0  0  0  0  0  0  0
   59.5550   32.6250   51.7430 C   0  0  0  0  0  0  0  0  0  0  0  0
   60.9060   33.0040   51.6470 C   0  0  0  0  0  0  0  0  0  0  0  0
   61.8230   32.1590   51.0140 C   0  0  0  0  0  0  0  0  0  0  0  0
   63.2740   32.5420   50.9160 C   0  0  0  0  0  0  0  0  0  0  0  0
   63.5650   33.1760   49.6130 N   0  0  0  0  0  0  0  0  0  0  0  0
   63.6250   32.1680   48.5110 C   0  0  0  0  0  0  0  0  0  0  0  0
   63.1090   32.6870   47.1610 C   0  0  0  0  0  0  0  0  0  0  0  0
   61.7360   33.2490   47.3560 C   0  0  0  0  0  0  0  0  0  0  0  0
   60.6980   33.0210   46.4400 C   0  0  0  0  0  0  0  0  0  0  0  0
   59.4300   33.5780   46.6640 C   0  0  0  0  0  0  0  0  0  0  0  0
   58.1420   33.3360   45.4880 S   0  0  0  0  0  0  0  0  0  0  0  0
   58.7290   33.3730   44.1030 O   0  0  0  0  0  0  0  0  0  0  0  0
   57.1380   34.4500   45.6090 O   0  0  0  0  0  0  0  0  0  0  0  0
   57.3390   31.8140   45.7160 N   0  0  0  0  0  0  0  0  0  0  0  0
   58.0310   30.5780   45.9210 C   0  0  0  0  0  0  0  0  0  0  0  0
   58.9460   30.4450   46.9770 C   0  0  0  0  0  0  0  0  0  0  0  0
   59.6220   29.2390   47.1780 C   0  0  0  0  0  0  0  0  0  0  0  0
   59.4060   28.1650   46.3120 C   0  0  0  0  0  0  0  0  0  0  0  0
   58.5240   28.2980   45.2370 C   0  0  0  0  0  0  0  0  0  0  0  0
   57.8400   29.5060   45.0270 C   0  0  0  0  0  0  0  0  0  0  0  0
   56.7290   29.6600   43.6620 S   0  0  0  0  0  0  0  0  0  0  0  0
   56.9800   31.1810   42.8790 N   0  0  0  0  0  0  0  0  0  0  0  0
   56.9650   28.5590   42.6660 O   0  0  0  0  0  0  0  0  0  0  0  0
   55.3150   29.5760   44.1590 O   0  0  0  0  0  0  0  0  0  0  0  0
   59.2100   34.3650   47.8050 C   0  0  0  0  0  0  0  0  0  0  0  0
   60.2490   34.6030   48.7090 C   0  0  0  0  0  0  0  0  0  0  0  0
   61.5130   34.0410   48.4870 C   0  0  0  0  0  0  0  0  0  0  0  0
   62.6880   34.3560   49.3730 C   0  0  0  0  0  0  0  0  0  0  0  0
   61.4060   30.9670   50.5120 N   0  0  0  0  0  0  0  0  0  0  0  0
   60.1100   30.5680   50.5880 C   0  0  0  0  0  0  0  0  0  0  0  0
   59.1460   31.3870   51.2020 C   0  0  0  0  0  0  0  0  0  0  0  0
   57.7350   30.9330   51.2940 C   0  0  0  0  0  0  0  0  0  0  0  0
   56.6540   31.8710   51.2700 N   0  0  0  0  0  0  0  0  0  0  0  0
   57.4730   29.7040   51.3900 O   0  0  0  0  0  0  0  0  0  0  0  0
   58.8157   34.2085   54.2712 H   0  0  0  0  0  0  0  0  0  0  0  0
   59.9417   34.8777   53.0420 H   0  0  0  0  0  0  0  0  0  0  0  0
   58.2149   35.3724   53.0420 H   0  0  0  0  0  0  0  0  0  0  0  0
   61.2406   33.9631   52.0690 H   0  0  0  0  0  0  0  0  0  0  0  0
   63.5150   33.2498   51.7228 H   0  0  0  0  0  0  0  0  0  0  0  0
   63.8849   31.6319   51.0084 H   0  0  0  0  0  0  0  0  0  0  0  0
   64.6722   31.8560   48.3843 H   0  0  0  0  0  0  0  0  0  0  0  0
   62.9677   31.3362   48.8044 H   0  0  0  0  0  0  0  0  0  0  0  0
   63.7807   33.4729   46.7854 H   0  0  0  0  0  0  0  0  0  0  0  0
   63.0772   31.8649   46.4308 H   0  0  0  0  0  0  0  0  0  0  0  0
   60.8784   32.4056   45.5463 H   0  0  0  0  0  0  0  0  0  0  0  0
   59.1319   31.2950   47.6500 H   0  0  0  0  0  0  0  0  0  0  0  0
   60.3243   29.1355   48.0183 H   0  0  0  0  0  0  0  0  0  0  0  0
   59.9313   27.2127   46.4767 H   0  0  0  0  0  0  0  0  0  0  0  0
   58.3646   27.4524   44.5518 H   0  0  0  0  0  0  0  0  0  0  0  0
   57.2650   31.8620   43.6190 H   0  0  0  0  0  0  0  0  0  0  0  0
   58.2150   34.7966   47.9887 H   0  0  0  0  0  0  0  0  0  0  0  0
   60.0743   35.2315   49.5947 H   0  0  0  0  0  0  0  0  0  0  0  0
   63.2858   35.1464   48.8956 H   0  0  0  0  0  0  0  0  0  0  0  0
   62.2906   34.6759   50.3475 H   0  0  0  0  0  0  0  0  0  0  0  0
   59.8122   29.5968   50.1660 H   0  0  0  0  0  0  0  0  0  0  0  0
   56.8230   32.8990   51.3330 H   0  0  0  0  0  0  0  0  0  0  0  0
   55.6670   31.5290   51.2720 H   0  0  0  0  0  0  0  0  0  0  0  0
  1  2  1  0
  2  3  1  0
  3  4  2  0
  4  5  1  0
  5  6  1  0
  6  7  1  0
  7  8  1  0
  8  9  1  0
  9 10  1  0
 10 11  2  0
 11 12  1  0
 12 13  1  0
 13 14  2  0
 13 15  2  0
 13 16  1  0
 16 17  1  0
 17 18  2  0
 18 19  1  0
 19 20  2  0
 20 21  1  0
 21 22  2  0
 22 23  1  0
 23 24  1  0
 23 25  2  0
 23 26  2  0
 12 27  2  0
 27 28  1  0
 28 29  2  0
 29 30  1  0
  5 31  2  0
 31 32  1  0
 32 33  2  0
 33 34  1  0
 34 35  1  0
 34 36  2  0
 33  3  1  0
 30  7  1  0
 29 10  1  0
 22 17  1  0
  1 37  1  0
  1 38  1  0
  1 39  1  0
  4 40  1  0
  6 41  1  0
  6 42  1  0
  8 43  1  0
  8 44  1  0
  9 45  1  0
  9 46  1  0
 11 47  1  0
 18 48  1  0
 19 49  1  0
 20 50  1  0
 21 51  1  0
 24 52  1  0
 27 53  1  0
 28 54  1  0
 30 55  1  0
 30 56  1  0
 32 57  1  0
 35 58  1  0
 35 59  1  0
M  CHG  2  16  -1  24  -1
M  END
>  <UniqueID>  (46) 
46

>  <SMILES>  (46) 
COc1cc(CN2CCc3cc(S(=O)(=O)[N-]c4ccccc4S([NH-])(=O)=O)ccc3C2)ncc1C(N)=O

>  <Energy>  (46) 
85.36995637812997

>  <Genealogy>  (46) 
COc1cc(CN2CCc3cc(S(=O)(=O)[N-]c4ccccc4S([NH-])(=O)=O)ccc3C2)ncc1C(N)=O (protonated)
COc1cc(CN2CCc3cc(S(=O)(=O)[N-]c4ccccc4S([NH-])(=O)=O)ccc3C2)ncc1C(N)=O (3D coordinates assigned)
COc1cc(CN2CCc3cc(S(=O)(=O)[N-]c4ccccc4S([NH-])(=O)=O)ccc3C2)ncc1C(N)=O (nonaromatic ring conformer: 85.36995637812997 kcal/mol)

>  <smiles>  (46) 
COc1cc(CN2CCc3cc(S(=O)(=O)Nc4ccccc4S(N)(=O)=O)ccc3C2)ncc1C(N)=O

>  <score_type>  (46) 
oracle

>  <origin>  (46) 
adg

>  <m_score__min__energy>  (46) 
-14.85

>  <m_primary>  (46) 
energy

$$$$
46:0
     RDKit          3D

 59 63  0  0  0  0  0  0  0  0999 V2000
   67.8090   30.1130   52.0370 C   0  0  0  0  0  0  0  0  0  0  0  0
   66.3240   30.0380   51.7900 C   0  0  0  0  0  0  0  0  0  0  0  0
   65.5940   28.9600   52.3110 C   0  0  0  0  0  0  0  0  0  0  0  0
   64.2180   28.8890   52.0890 C   0  0  0  0  0  0  0  0  0  0  0  0
   63.5540   27.9300   52.5610 O   0  0  0  0  0  0  0  0  0  0  0  0
   63.6020   29.8280   51.3800 O   0  0  0  0  0  0  0  0  0  0  0  0
   64.2430   30.8680   50.8550 C   0  0  0  0  0  0  0  0  0  0  0  0
   63.5220   31.8200   50.1260 C   0  0  0  0  0  0  0  0  0  0  0  0
   64.1610   32.9400   49.5860 C   0  0  0  0  0  0  0  0  0  0  0  0
   63.3750   33.8970   48.9230 O   0  0  0  0  0  0  0  0  0  0  0  0
   61.9840   34.1310   49.1640 C   0  0  0  0  0  0  0  0  0  0  0  0
   61.1220   33.0710   48.5220 C   0  0  0  0  0  0  0  0  0  0  0  0
   61.4770   32.4910   47.2940 C   0  0  0  0  0  0  0  0  0  0  0  0
   60.7060   31.4600   46.7480 C   0  0  0  0  0  0  0  0  0  0  0  0
   59.5420   31.0260   47.4000 C   0  0  0  0  0  0  0  0  0  0  0  0
   58.7780   29.8720   46.8810 C   0  0  0  0  0  0  0  0  0  0  0  0
   58.9120   28.6140   47.4840 C   0  0  0  0  0  0  0  0  0  0  0  0
   58.1380   27.5380   47.0510 C   0  0  0  0  0  0  0  0  0  0  0  0
   57.2210   27.7000   45.9970 C   0  0  0  0  0  0  0  0  0  0  0  0
   56.3930   26.6210   45.5390 N   0  0  0  0  0  0  0  0  0  0  0  0
   56.2030   25.0940   46.3390 S   0  0  0  0  0  0  0  0  0  0  0  0
   54.7460   24.7290   46.3570 O   0  0  0  0  0  0  0  0  0  0  0  0
   56.6780   25.2180   47.7610 O   0  0  0  0  0  0  0  0  0  0  0  0
   57.0900   23.8360   45.4840 C   0  0  0  0  0  0  0  0  0  0  0  0
   58.4870   23.7630   45.5620 C   0  0  0  0  0  0  0  0  0  0  0  0
   59.1750   22.7490   44.8920 C   0  0  0  0  0  0  0  0  0  0  0  0
   58.4730   21.7980   44.1480 C   0  0  0  0  0  0  0  0  0  0  0  0
   57.0770   21.8640   44.0660 C   0  0  0  0  0  0  0  0  0  0  0  0
   56.3640   20.9210   43.3320 O   0  0  0  0  0  0  0  0  0  0  0  0
   56.3900   22.8860   44.7300 C   0  0  0  0  0  0  0  0  0  0  0  0
   57.1170   28.9430   45.3700 C   0  0  0  0  0  0  0  0  0  0  0  0
   57.8800   30.0280   45.8110 C   0  0  0  0  0  0  0  0  0  0  0  0
   59.1420   31.6620   48.5850 C   0  0  0  0  0  0  0  0  0  0  0  0
   59.9280   32.6760   49.1420 C   0  0  0  0  0  0  0  0  0  0  0  0
   65.5530   33.0790   49.7440 C   0  0  0  0  0  0  0  0  0  0  0  0
   66.2850   32.1300   50.4640 C   0  0  0  0  0  0  0  0  0  0  0  0
   65.6390   31.0180   51.0360 C   0  0  0  0  0  0  0  0  0  0  0  0
   68.0005   30.1227   53.1202 H   0  0  0  0  0  0  0  0  0  0  0  0
   68.3004   29.2385   51.5855 H   0  0  0  0  0  0  0  0  0  0  0  0
   68.2098   31.0325   51.5855 H   0  0  0  0  0  0  0  0  0  0  0  0
   66.1025   28.1756   52.8908 H   0  0  0  0  0  0  0  0  0  0  0  0
   62.4406   31.6857   49.9761 H   0  0  0  0  0  0  0  0  0  0  0  0
   61.8044   34.1279   50.2492 H   0  0  0  0  0  0  0  0  0  0  0  0
   61.7178   35.1034   48.7241 H   0  0  0  0  0  0  0  0  0  0  0  0
   62.3677   32.8499   46.7575 H   0  0  0  0  0  0  0  0  0  0  0  0
   61.0134   30.9874   45.8035 H   0  0  0  0  0  0  0  0  0  0  0  0
   59.6321   28.4746   48.3038 H   0  0  0  0  0  0  0  0  0  0  0  0
   58.2452   26.5568   47.5366 H   0  0  0  0  0  0  0  0  0  0  0  0
   59.0432   24.5061   46.1523 H   0  0  0  0  0  0  0  0  0  0  0  0
   60.2723   22.6992   44.9504 H   0  0  0  0  0  0  0  0  0  0  0  0
   59.0172   20.9969   43.6263 H   0  0  0  0  0  0  0  0  0  0  0  0
   56.6560   19.9520   43.2830 H   0  0  0  0  0  0  0  0  0  0  0  0
   55.2938   22.9436   44.6594 H   0  0  0  0  0  0  0  0  0  0  0  0
   56.4286   29.0697   44.5215 H   0  0  0  0  0  0  0  0  0  0  0  0
   57.7774   31.0066   45.3193 H   0  0  0  0  0  0  0  0  0  0  0  0
   58.2058   31.3617   49.0783 H   0  0  0  0  0  0  0  0  0  0  0  0
   59.6073   33.1669   50.0727 H   0  0  0  0  0  0  0  0  0  0  0  0
   66.0691   33.9416   49.2972 H   0  0  0  0  0  0  0  0  0  0  0  0
   67.3715   32.2531   50.5841 H   0  0  0  0  0  0  0  0  0  0  0  0
  1  2  1  0
  2  3  2  0
  3  4  1  0
  4  5  2  0
  4  6  1  0
  6  7  1  0
  7  8  2  0
  8  9  1  0
  9 10  1  0
 10 11  1  0
 11 12  1  0
 12 13  2  0
 13 14  1  0
 14 15  2  0
 15 16  1  0
 16 17  2  0
 17 18  1  0
 18 19  2  0
 19 20  1  0
 20 21  1  0
 21 22  2  0
 21 23  2  0
 21 24  1  0
 24 25  2  0
 25 26  1  0
 26 27  2  0
 27 28  1  0
 28 29  1  0
 28 30  2  0
 19 31  1  0
 31 32  2  0
 15 33  1  0
 33 34  2  0
  9 35  2  0
 35 36  1  0
 36 37  2  0
 37  2  1  0
 37  7  1  0
 34 12  1  0
 32 16  1  0
 30 24  1  0
  1 38  1  0
  1 39  1  0
  1 40  1  0
  3 41  1  0
  8 42  1  0
 11 43  1  0
 11 44  1  0
 13 45  1  0
 14 46  1  0
 17 47  1  0
 18 48  1  0
 25 49  1  0
 26 50  1  0
 27 51  1  0
 29 52  1  0
 30 53  1  0
 31 54  1  0
 32 55  1  0
 33 56  1  0
 34 57  1  0
 35 58  1  0
 36 59  1  0
M  CHG  1  20  -1
M  END
>  <UniqueID>  (47) 
47

>  <SMILES>  (47) 
Cc1cc(=O)oc2cc(OCc3ccc(-c4ccc([N-]S(=O)(=O)c5cccc(O)c5)cc4)cc3)ccc12

>  <Energy>  (47) 
80.83853711137989

>  <Genealogy>  (47) 
Cc1cc(=O)oc2cc(OCc3ccc(-c4ccc([N-]S(=O)(=O)c5cccc(O)c5)cc4)cc3)ccc12 (protonated)
Cc1cc(=O)oc2cc(OCc3ccc(-c4ccc([N-]S(=O)(=O)c5cccc(O)c5)cc4)cc3)ccc12 (3D coordinates assigned)
Cc1cc(=O)oc2cc(OCc3ccc(-c4ccc([N-]S(=O)(=O)c5cccc(O)c5)cc4)cc3)ccc12 (optimized conformer: 80.83853711137989 kcal/mol)

>  <smiles>  (47) 
Cc1cc(=O)oc2cc(OCc3ccc(-c4ccc(NS(=O)(=O)c5cccc(O)c5)cc4)cc3)ccc12

>  <score_type>  (47) 
oracle

>  <origin>  (47) 
adg

>  <m_score__min__energy>  (47) 
-11.85

>  <m_primary>  (47) 
energy

$$$$
47:0
     RDKit          3D

 47 49  0  0  0  0  0  0  0  0999 V2000
   58.1530   33.1600   45.4450 N   0  0  0  0  0  0  0  0  0  0  0  0
   58.7020   33.2950   47.0790 S   0  0  0  0  0  0  0  0  0  0  0  0
   57.8720   32.4100   47.9640 O   0  0  0  0  0  0  0  0  0  0  0  0
   58.5290   34.7230   47.5170 O   0  0  0  0  0  0  0  0  0  0  0  0
   60.4080   32.8290   47.1980 C   0  0  0  0  0  0  0  0  0  0  0  0
   61.3700   33.8350   47.3880 C   0  0  0  0  0  0  0  0  0  0  0  0
   62.7290   33.5180   47.4400 C   0  0  0  0  0  0  0  0  0  0  0  0
   63.1450   32.1950   47.3020 C   0  0  0  0  0  0  0  0  0  0  0  0
   62.2030   31.1810   47.1230 C   0  0  0  0  0  0  0  0  0  0  0  0
   60.8310   31.4810   47.0810 C   0  0  0  0  0  0  0  0  0  0  0  0
   59.8740   30.3680   46.9180 C   0  0  0  0  0  0  0  0  0  0  0  0
   60.1090   29.1460   47.5550 C   0  0  0  0  0  0  0  0  0  0  0  0
   59.2060   28.0940   47.4120 C   0  0  0  0  0  0  0  0  0  0  0  0
   58.0430   28.2430   46.6360 C   0  0  0  0  0  0  0  0  0  0  0  0
   57.0650   27.0900   46.5750 C   0  0  0  0  0  0  0  0  0  0  0  0
   56.9550   26.5500   45.2110 N   0  0  0  0  0  0  0  0  0  0  0  0
   58.0660   25.6520   44.8520 C   0  0  0  0  0  0  0  0  0  0  0  0
   57.5860   24.2850   44.4230 C   0  0  0  0  0  0  0  0  0  0  0  0
   58.1180   23.1270   45.0130 C   0  0  0  0  0  0  0  0  0  0  0  0
   57.6850   21.8630   44.6000 C   0  0  0  0  0  0  0  0  0  0  0  0
   56.7160   21.7450   43.5940 C   0  0  0  0  0  0  0  0  0  0  0  0
   56.2760   20.4910   43.1740 O   0  0  0  0  0  0  0  0  0  0  0  0
   56.1840   22.8960   43.0040 C   0  0  0  0  0  0  0  0  0  0  0  0
   56.6160   24.1620   43.4160 C   0  0  0  0  0  0  0  0  0  0  0  0
   57.8020   29.4790   45.9810 C   0  0  0  0  0  0  0  0  0  0  0  0
   56.6370   29.6910   45.1630 N   0  0  0  0  0  0  0  0  0  0  0  0
   55.6920   28.8760   45.1970 O   0  0  0  0  0  0  0  0  0  0  0  0
   56.4650   30.8730   44.4810 O   0  0  0  0  0  0  0  0  0  0  0  0
   58.7160   30.5350   46.1500 C   0  0  0  0  0  0  0  0  0  0  0  0
   57.2570   32.6250   45.4670 H   0  0  0  0  0  0  0  0  0  0  0  0
   61.0499   34.8818   47.4968 H   0  0  0  0  0  0  0  0  0  0  0  0
   63.4729   34.3143   47.5902 H   0  0  0  0  0  0  0  0  0  0  0  0
   64.2168   31.9498   47.3342 H   0  0  0  0  0  0  0  0  0  0  0  0
   62.5373   30.1387   47.0139 H   0  0  0  0  0  0  0  0  0  0  0  0
   61.0103   29.0142   48.1716 H   0  0  0  0  0  0  0  0  0  0  0  0
   59.4057   27.1351   47.9125 H   0  0  0  0  0  0  0  0  0  0  0  0
   57.4102   26.2921   47.2489 H   0  0  0  0  0  0  0  0  0  0  0  0
   56.0753   27.4594   46.8816 H   0  0  0  0  0  0  0  0  0  0  0  0
   56.9310   27.3510   44.5370 H   0  0  0  0  0  0  0  0  0  0  0  0
   58.6319   26.1037   44.0239 H   0  0  0  0  0  0  0  0  0  0  0  0
   58.6942   25.5218   45.7455 H   0  0  0  0  0  0  0  0  0  0  0  0
   58.8783   23.2145   45.8031 H   0  0  0  0  0  0  0  0  0  0  0  0
   58.1057   20.9595   45.0655 H   0  0  0  0  0  0  0  0  0  0  0  0
   56.8310   19.6570   43.3280 H   0  0  0  0  0  0  0  0  0  0  0  0
   55.4239   22.8061   42.2139 H   0  0  0  0  0  0  0  0  0  0  0  0
   56.1937   25.0639   42.9488 H   0  0  0  0  0  0  0  0  0  0  0  0
   58.5177   31.5056   45.6718 H   0  0  0  0  0  0  0  0  0  0  0  0
  1  2  1  0
  2  3  2  0
  2  4  2  0
  2  5  1  0
  5  6  2  0
  6  7  1  0
  7  8  2  0
  8  9  1  0
  9 10  2  0
 10 11  1  0
 11 12  2  0
 12 13  1  0
 13 14  2  0
 14 15  1  0
 15 16  1  0
 16 17  1  0
 17 18  1  0
 18 19  2  0
 19 20  1  0
 20 21  2  0
 21 22  1  0
 21 23  1  0
 23 24  2  0
 14 25  1  0
 25 26  1  0
 26 27  2  0
 26 28  1  0
 25 29  2  0
 10  5  1  0
 29 11  1  0
 24 18  1  0
  1 30  1  0
  6 31  1  0
  7 32  1  0
  8 33  1  0
  9 34  1  0
 12 35  1  0
 13 36  1  0
 15 37  1  0
 15 38  1  0
 16 39  1  0
 17 40  1  0
 17 41  1  0
 19 42  1  0
 20 43  1  0
 22 44  1  0
 23 45  1  0
 24 46  1  0
 29 47  1  0
M  CHG  3   1  -1  26   1  28  -1
M  END
>  <UniqueID>  (48) 
48

>  <SMILES>  (48) 
[NH-]S(=O)(=O)c1ccccc1-c1ccc(CNCc2ccc(O)cc2)c([N+](=O)[O-])c1

>  <Energy>  (48) 
62.63308147143753

>  <Genealogy>  (48) 
[NH-]S(=O)(=O)c1ccccc1-c1ccc(CNCc2ccc(O)cc2)c([N+](=O)[O-])c1 (protonated)
[NH-]S(=O)(=O)c1ccccc1-c1ccc(CNCc2ccc(O)cc2)c([N+](=O)[O-])c1 (3D coordinates assigned)
[NH-]S(=O)(=O)c1ccccc1-c1ccc(CNCc2ccc(O)cc2)c([N+](=O)[O-])c1 (optimized conformer: 62.63308147143753 kcal/mol)

>  <smiles>  (48) 
NS(=O)(=O)c1ccccc1-c1ccc(CNCc2ccc(O)cc2)c([N+](=O)[O-])c1

>  <score_type>  (48) 
oracle

>  <origin>  (48) 
adg

>  <m_score__min__energy>  (48) 
-11.77

>  <m_primary>  (48) 
energy

$$$$
48:0
     RDKit          3D

 57 60  0  0  0  0  0  0  0  0999 V2000
   59.6500   34.1240   48.7560 C   0  0  0  0  0  0  0  0  0  0  0  0
   59.5780   32.9580   49.6480 N   0  0  0  0  0  0  0  0  0  0  0  0
   58.2490   32.3260   49.5580 C   0  0  0  0  0  0  0  0  0  0  0  0
   58.1180   31.1090   50.4990 C   0  0  0  0  0  0  0  0  0  0  0  0
   59.3740   30.8260   51.3520 C   0  0  0  0  0  0  0  0  0  0  0  0
   60.4630   29.9380   50.6690 C   0  0  0  0  0  0  0  0  0  0  0  0
   60.8220   30.3470   49.2840 N   0  0  0  0  0  0  0  0  0  0  0  0
   61.8690   31.2310   49.1180 C   0  0  0  0  0  0  0  0  0  0  0  0
   62.5830   31.5850   50.0960 O   0  0  0  0  0  0  0  0  0  0  0  0
   62.1710   31.7630   47.8650 C   0  0  0  0  0  0  0  0  0  0  0  0
   61.4270   31.3940   46.7590 C   0  0  0  0  0  0  0  0  0  0  0  0
   60.4110   30.4510   46.8910 C   0  0  0  0  0  0  0  0  0  0  0  0
   59.6650   30.0760   45.7650 C   0  0  0  0  0  0  0  0  0  0  0  0
   58.6530   29.1270   45.8720 C   0  0  0  0  0  0  0  0  0  0  0  0
   57.8350   28.8550   44.7340 N   0  0  0  0  0  0  0  0  0  0  0  0
   56.5130   29.8930   44.3230 S   0  0  0  0  0  0  0  0  0  0  0  0
   56.3510   29.9750   42.5530 C   0  0  0  0  0  0  0  0  0  0  0  0
   55.2490   29.3330   44.9090 O   0  0  0  0  0  0  0  0  0  0  0  0
   56.7440   31.2710   44.8730 O   0  0  0  0  0  0  0  0  0  0  0  0
   58.4260   28.4820   47.1000 C   0  0  0  0  0  0  0  0  0  0  0  0
   57.4720   27.4650   47.2380 O   0  0  0  0  0  0  0  0  0  0  0  0
   57.4400   26.2840   46.4810 C   0  0  0  0  0  0  0  0  0  0  0  0
   58.5660   25.4490   46.3540 C   0  0  0  0  0  0  0  0  0  0  0  0
   58.4930   24.2760   45.5960 C   0  0  0  0  0  0  0  0  0  0  0  0
   57.2960   23.9220   44.9690 C   0  0  0  0  0  0  0  0  0  0  0  0
   56.1680   24.7380   45.1050 C   0  0  0  0  0  0  0  0  0  0  0  0
   56.2390   25.9120   45.8630 C   0  0  0  0  0  0  0  0  0  0  0  0
   55.1380   26.6940   45.9900 F   0  0  0  0  0  0  0  0  0  0  0  0
   59.1470   28.8740   48.2320 C   0  0  0  0  0  0  0  0  0  0  0  0
   60.1330   29.8910   48.1670 C   0  0  0  0  0  0  0  0  0  0  0  0
   59.9170   32.1300   51.9810 C   0  0  0  0  0  0  0  0  0  0  0  0
   59.8760   33.3500   51.0360 C   0  0  0  0  0  0  0  0  0  0  0  0
   59.7068   35.0431   49.3578 H   0  0  0  0  0  0  0  0  0  0  0  0
   60.5450   34.0454   48.1213 H   0  0  0  0  0  0  0  0  0  0  0  0
   58.7521   34.1561   48.1213 H   0  0  0  0  0  0  0  0  0  0  0  0
   57.4843   33.0684   49.8302 H   0  0  0  0  0  0  0  0  0  0  0  0
   58.1125   31.9714   48.5257 H   0  0  0  0  0  0  0  0  0  0  0  0
   57.2730   31.2894   51.1797 H   0  0  0  0  0  0  0  0  0  0  0  0
   57.9694   30.2288   49.8562 H   0  0  0  0  0  0  0  0  0  0  0  0
   59.0416   30.1778   52.1763 H   0  0  0  0  0  0  0  0  0  0  0  0
   61.3735   29.9786   51.2848 H   0  0  0  0  0  0  0  0  0  0  0  0
   60.0358   28.9272   50.5929 H   0  0  0  0  0  0  0  0  0  0  0  0
   63.0012   32.4764   47.7561 H   0  0  0  0  0  0  0  0  0  0  0  0
   61.6373   31.8443   45.7777 H   0  0  0  0  0  0  0  0  0  0  0  0
   59.8813   30.5355   44.7893 H   0  0  0  0  0  0  0  0  0  0  0  0
   55.3971   30.4578   42.2941 H   0  0  0  0  0  0  0  0  0  0  0  0
   57.1835   30.5603   42.1353 H   0  0  0  0  0  0  0  0  0  0  0  0
   56.3722   28.9576   42.1353 H   0  0  0  0  0  0  0  0  0  0  0  0
   59.5078   25.7204   46.8533 H   0  0  0  0  0  0  0  0  0  0  0  0
   59.3787   23.6318   45.4935 H   0  0  0  0  0  0  0  0  0  0  0  0
   57.2404   23.0020   44.3686 H   0  0  0  0  0  0  0  0  0  0  0  0
   55.2240   24.4564   44.6155 H   0  0  0  0  0  0  0  0  0  0  0  0
   58.9447   28.3823   49.1950 H   0  0  0  0  0  0  0  0  0  0  0  0
   59.3133   32.3618   52.8708 H   0  0  0  0  0  0  0  0  0  0  0  0
   60.9753   31.9499   52.2209 H   0  0  0  0  0  0  0  0  0  0  0  0
   59.0973   34.0443   51.3847 H   0  0  0  0  0  0  0  0  0  0  0  0
   60.8671   33.8270   51.0509 H   0  0  0  0  0  0  0  0  0  0  0  0
  1  2  1  0
  2  3  1  0
  3  4  1  0
  4  5  1  0
  5  6  1  0
  6  7  1  0
  7  8  1  0
  8  9  2  0
  8 10  1  0
 10 11  2  0
 11 12  1  0
 12 13  2  0
 13 14  1  0
 14 15  1  0
 15 16  1  0
 16 17  1  0
 16 18  2  0
 16 19  2  0
 14 20  2  0
 20 21  1  0
 21 22  1  0
 22 23  2  0
 23 24  1  0
 24 25  2  0
 25 26  1  0
 26 27  2  0
 27 28  1  0
 20 29  1  0
 29 30  2  0
  5 31  1  0
 31 32  1  0
 32  2  1  0
 30  7  1  0
 30 12  1  0
 27 22  1  0
  1 33  1  0
  1 34  1  0
  1 35  1  0
  3 36  1  0
  3 37  1  0
  4 38  1  0
  4 39  1  0
  5 40  1  0
  6 41  1  0
  6 42  1  0
 10 43  1  0
 11 44  1  0
 13 45  1  0
 17 46  1  0
 17 47  1  0
 17 48  1  0
 23 49  1  0
 24 50  1  0
 25 51  1  0
 26 52  1  0
 29 53  1  0
 31 54  1  0
 31 55  1  0
 32 56  1  0
 32 57  1  0
M  CHG  1  15  -1
M  END
>  <UniqueID>  (49) 
49

>  <SMILES>  (49) 
CN1CCC(Cn2c(=O)ccc3cc([N-]S(C)(=O)=O)c(Oc4ccccc4F)cc32)CC1

>  <Energy>  (49) 
90.42178925854432

>  <Genealogy>  (49) 
CN1CCC(Cn2c(=O)ccc3cc([N-]S(C)(=O)=O)c(Oc4ccccc4F)cc32)CC1 (protonated)
CN1CCC(Cn2c(=O)ccc3cc([N-]S(C)(=O)=O)c(Oc4ccccc4F)cc32)CC1 (3D coordinates assigned)
CN1CCC(Cn2c(=O)ccc3cc([N-]S(C)(=O)=O)c(Oc4ccccc4F)cc32)CC1 (nonaromatic ring conformer: 90.42178925854432 kcal/mol)

>  <smiles>  (49) 
CN1CCC(Cn2c(=O)ccc3cc(NS(C)(=O)=O)c(Oc4ccccc4F)cc32)CC1

>  <score_type>  (49) 
oracle

>  <origin>  (49) 
adg

>  <m_score__min__energy>  (49) 
-11.220000000000001

>  <m_primary>  (49) 
energy

$$$$
49:0
     RDKit          3D

 51 54  0  0  0  0  0  0  0  0999 V2000
   55.5220   29.3220   45.0280 O   0  0  0  0  0  0  0  0  0  0  0  0
   56.4000   29.5310   44.1470 C   0  0  0  0  0  0  0  0  0  0  0  0
   56.4070   30.8440   43.4250 C   0  0  0  0  0  0  0  0  0  0  0  0
   58.1140   31.4100   43.1140 S   0  0  0  0  0  0  0  0  0  0  0  0
   58.1710   32.5420   44.5090 C   0  0  0  0  0  0  0  0  0  0  0  0
   57.6540   33.7830   44.4740 N   0  0  0  0  0  0  0  0  0  0  0  0
   57.7880   34.2920   45.6910 N   0  0  0  0  0  0  0  0  0  0  0  0
   58.3930   33.3570   46.4500 C   0  0  0  0  0  0  0  0  0  0  0  0
   58.5420   33.4860   47.9410 C   0  0  0  0  0  0  0  0  0  0  0  0
   59.7270   34.2650   48.2970 N   0  0  0  0  0  0  0  0  0  0  0  0
   61.0840   33.8730   48.0150 C   0  0  0  0  0  0  0  0  0  0  0  0
   61.8990   33.4300   49.0700 C   0  0  0  0  0  0  0  0  0  0  0  0
   63.2250   33.0520   48.8340 C   0  0  0  0  0  0  0  0  0  0  0  0
   63.7480   33.1080   47.5410 C   0  0  0  0  0  0  0  0  0  0  0  0
   62.9490   33.5460   46.4840 C   0  0  0  0  0  0  0  0  0  0  0  0
   61.6250   33.9320   46.7160 C   0  0  0  0  0  0  0  0  0  0  0  0
   58.6520   32.2420   45.7340 N   0  0  0  0  0  0  0  0  0  0  0  0
   59.2150   31.0010   46.1780 C   0  0  0  0  0  0  0  0  0  0  0  0
   59.7980   30.1200   45.2550 C   0  0  0  0  0  0  0  0  0  0  0  0
   60.3090   28.8910   45.6780 C   0  0  0  0  0  0  0  0  0  0  0  0
   60.2430   28.5350   47.0280 C   0  0  0  0  0  0  0  0  0  0  0  0
   59.6630   29.4070   47.9540 C   0  0  0  0  0  0  0  0  0  0  0  0
   59.1460   30.6350   47.5300 C   0  0  0  0  0  0  0  0  0  0  0  0
   57.3900   28.5350   43.8390 N   0  0  0  0  0  0  0  0  0  0  0  0
   57.5260   27.2760   44.5240 C   0  0  0  0  0  0  0  0  0  0  0  0
   57.7640   26.0760   43.8270 C   0  0  0  0  0  0  0  0  0  0  0  0
   57.8730   24.8660   44.5190 C   0  0  0  0  0  0  0  0  0  0  0  0
   57.7670   24.8430   45.9120 C   0  0  0  0  0  0  0  0  0  0  0  0
   57.5680   26.0320   46.6160 C   0  0  0  0  0  0  0  0  0  0  0  0
   57.4570   27.2450   45.9290 C   0  0  0  0  0  0  0  0  0  0  0  0
   57.2690   28.3900   46.6300 F   0  0  0  0  0  0  0  0  0  0  0  0
   55.8854   30.7286   42.4634 H   0  0  0  0  0  0  0  0  0  0  0  0
   55.8986   31.5914   44.0518 H   0  0  0  0  0  0  0  0  0  0  0  0
   57.6504   33.9862   48.3471 H   0  0  0  0  0  0  0  0  0  0  0  0
   58.6529   32.4770   48.3648 H   0  0  0  0  0  0  0  0  0  0  0  0
   59.5630   35.2060   48.7230 H   0  0  0  0  0  0  0  0  0  0  0  0
   61.4910   33.3799   50.0903 H   0  0  0  0  0  0  0  0  0  0  0  0
   63.8559   32.7104   49.6678 H   0  0  0  0  0  0  0  0  0  0  0  0
   64.7896   32.8070   47.3553 H   0  0  0  0  0  0  0  0  0  0  0  0
   63.3619   33.5878   45.4653 H   0  0  0  0  0  0  0  0  0  0  0  0
   61.0029   34.2835   45.8796 H   0  0  0  0  0  0  0  0  0  0  0  0
   59.8530   30.3987   44.1923 H   0  0  0  0  0  0  0  0  0  0  0  0
   60.7631   28.2036   44.9492 H   0  0  0  0  0  0  0  0  0  0  0  0
   60.6476   27.5682   47.3620 H   0  0  0  0  0  0  0  0  0  0  0  0
   59.6133   29.1270   49.0166 H   0  0  0  0  0  0  0  0  0  0  0  0
   58.6836   31.3163   48.2594 H   0  0  0  0  0  0  0  0  0  0  0  0
   58.1430   28.8000   43.1650 H   0  0  0  0  0  0  0  0  0  0  0  0
   57.8648   26.0905   42.7317 H   0  0  0  0  0  0  0  0  0  0  0  0
   58.0425   23.9305   43.9658 H   0  0  0  0  0  0  0  0  0  0  0  0
   57.8403   23.8885   46.4537 H   0  0  0  0  0  0  0  0  0  0  0  0
   57.4984   26.0147   47.7137 H   0  0  0  0  0  0  0  0  0  0  0  0
  1  2  2  0
  2  3  1  0
  3  4  1  0
  4  5  1  0
  5  6  2  0
  6  7  1  0
  7  8  2  0
  8  9  1  0
  9 10  1  0
 10 11  1  0
 11 12  2  0
 12 13  1  0
 13 14  2  0
 14 15  1  0
 15 16  2  0
  8 17  1  0
 17 18  1  0
 18 19  2  0
 19 20  1  0
 20 21  2  0
 21 22  1  0
 22 23  2  0
  2 24  1  0
 24 25  1  0
 25 26  2  0
 26 27  1  0
 27 28  2  0
 28 29  1  0
 29 30  2  0
 30 31  1  0
 17  5  1  0
 23 18  1  0
 30 25  1  0
 16 11  1  0
  3 32  1  0
  3 33  1  0
  9 34  1  0
  9 35  1  0
 10 36  1  0
 12 37  1  0
 13 38  1  0
 14 39  1  0
 15 40  1  0
 16 41  1  0
 19 42  1  0
 20 43  1  0
 21 44  1  0
 22 45  1  0
 23 46  1  0
 24 47  1  0
 26 48  1  0
 27 49  1  0
 28 50  1  0
 29 51  1  0
M  END
>  <UniqueID>  (50) 
50

>  <SMILES>  (50) 
O=C(CSc1nnc(CNc2ccccc2)n1-c1ccccc1)Nc1ccccc1F

>  <Energy>  (50) 
89.32495632388904

>  <Genealogy>  (50) 
O=C(CSc1nnc(CNc2ccccc2)n1-c1ccccc1)Nc1ccccc1F (3D coordinates assigned)
O=C(CSc1nnc(CNc2ccccc2)n1-c1ccccc1)Nc1ccccc1F (optimized conformer: 89.32495632388904 kcal/mol)

>  <smiles>  (50) 
O=C(CSc1nnc(CNc2ccccc2)n1-c1ccccc1)Nc1ccccc1F

>  <score_type>  (50) 
oracle

>  <origin>  (50) 
adg

>  <m_score__min__energy>  (50) 
-8.9100000000000001

>  <m_primary>  (50) 
energy

$$$$
50:0
     RDKit          3D

 68 71  0  0  0  0  0  0  0  0999 V2000
   54.7670   26.7170   45.2160 H   0  0  0  0  0  0  0  0  0  0  0  0
   54.8300   25.9970   45.9690 N   0  0  0  0  0  0  0  0  0  0  0  0
   56.5090   25.7240   46.2690 S   0  0  0  0  0  0  0  0  0  0  0  0
   56.6910   25.1830   47.6600 O   0  0  0  0  0  0  0  0  0  0  0  0
   57.0340   24.7140   45.2870 O   0  0  0  0  0  0  0  0  0  0  0  0
   57.3900   27.2380   46.1000 C   0  0  0  0  0  0  0  0  0  0  0  0
   56.9260   28.2340   45.2330 C   0  0  0  0  0  0  0  0  0  0  0  0
   56.0200   28.0600   44.6340 H   0  0  0  0  0  0  0  0  0  0  0  0
   57.6090   29.4490   45.1250 C   0  0  0  0  0  0  0  0  0  0  0  0
   57.2369   30.2275   44.4427 H   0  0  0  0  0  0  0  0  0  0  0  0
   58.7670   29.6800   45.8830 C   0  0  0  0  0  0  0  0  0  0  0  0
   59.4650   31.0140   45.8240 C   0  0  0  0  0  0  0  0  0  0  0  0
   58.8317   31.7725   46.3074 H   0  0  0  0  0  0  0  0  0  0  0  0
   59.6388   31.2709   44.7686 H   0  0  0  0  0  0  0  0  0  0  0  0
   60.8160   30.9610   46.5400 C   0  0  0  0  0  0  0  0  0  0  0  0
   61.4065   31.8492   46.2709 H   0  0  0  0  0  0  0  0  0  0  0  0
   61.3527   30.0509   46.2338 H   0  0  0  0  0  0  0  0  0  0  0  0
   60.6110   30.9350   47.9910 N   0  0  0  0  0  0  0  0  0  0  0  0
   62.4840   31.7760   49.1040 C   0  0  0  0  0  0  0  0  0  0  0  0
   61.4750   30.7630   48.9650 C   0  0  0  0  0  0  0  0  0  0  0  0
   62.9090   32.4800   47.9960 C   0  0  0  0  0  0  0  0  0  0  0  0
   63.7760   31.9050   47.0640 O   0  0  0  0  0  0  0  0  0  0  0  0
   64.7740   32.0840   47.0960 H   0  0  0  0  0  0  0  0  0  0  0  0
   62.4100   33.7850   47.6750 N   0  0  0  0  0  0  0  0  0  0  0  0
   62.5780   34.1150   46.6980 H   0  0  0  0  0  0  0  0  0  0  0  0
   61.2250   34.2990   48.3590 C   0  0  0  0  0  0  0  0  0  0  0  0
   61.0465   33.7084   49.2696 H   0  0  0  0  0  0  0  0  0  0  0  0
   61.3921   35.3540   48.6219 H   0  0  0  0  0  0  0  0  0  0  0  0
   60.0220   34.2020   47.4600 C   0  0  0  0  0  0  0  0  0  0  0  0
   60.0680   34.7090   46.1490 C   0  0  0  0  0  0  0  0  0  0  0  0
   60.9783   35.2089   45.7864 H   0  0  0  0  0  0  0  0  0  0  0  0
   58.9610   34.5800   45.3050 C   0  0  0  0  0  0  0  0  0  0  0  0
   59.0037   34.9751   44.2793 H   0  0  0  0  0  0  0  0  0  0  0  0
   57.8000   33.9500   45.7620 C   0  0  0  0  0  0  0  0  0  0  0  0
   56.7300   33.8220   44.9390 F   0  0  0  0  0  0  0  0  0  0  0  0
   57.7420   33.4550   47.0700 C   0  0  0  0  0  0  0  0  0  0  0  0
   56.8252   32.9671   47.4327 H   0  0  0  0  0  0  0  0  0  0  0  0
   58.8480   33.5800   47.9160 C   0  0  0  0  0  0  0  0  0  0  0  0
   58.7986   33.1896   48.9432 H   0  0  0  0  0  0  0  0  0  0  0  0
   63.1160   32.0520   50.3520 C   0  0  0  0  0  0  0  0  0  0  0  0
   63.3810   33.3070   50.7450 C   0  0  0  0  0  0  0  0  0  0  0  0
   63.0092   34.1580   50.1555 H   0  0  0  0  0  0  0  0  0  0  0  0
   63.9701   33.4850   51.6567 H   0  0  0  0  0  0  0  0  0  0  0  0
   63.6100   31.0700   51.1330 N   0  0  0  0  0  0  0  0  0  0  0  0
   63.0610   29.8670   51.3670 C   0  0  0  0  0  0  0  0  0  0  0  0
   63.7530   28.9960   51.9610 O   0  0  0  0  0  0  0  0  0  0  0  0
   61.7370   29.6530   51.1520 N   0  0  0  0  0  0  0  0  0  0  0  0
   60.9400   28.9400   52.2020 C   0  0  0  0  0  0  0  0  0  0  0  0
   61.2550   27.8901   52.1104 H   0  0  0  0  0  0  0  0  0  0  0  0
   61.2160   29.5030   53.6250 C   0  0  0  0  0  0  0  0  0  0  0  0
   60.7309   28.8569   54.3715 H   0  0  0  0  0  0  0  0  0  0  0  0
   62.3023   29.5263   53.7968 H   0  0  0  0  0  0  0  0  0  0  0  0
   60.6580   30.9310   53.7500 C   0  0  0  0  0  0  0  0  0  0  0  0
   60.8715   31.3133   54.7591 H   0  0  0  0  0  0  0  0  0  0  0  0
   61.1387   31.5624   52.9883 H   0  0  0  0  0  0  0  0  0  0  0  0
   59.2590   30.9510   53.5340 O   0  0  0  0  0  0  0  0  0  0  0  0
   58.9640   30.5310   52.2150 C   0  0  0  0  0  0  0  0  0  0  0  0
   57.8799   30.6087   52.0458 H   0  0  0  0  0  0  0  0  0  0  0  0
   59.5089   31.1757   51.5097 H   0  0  0  0  0  0  0  0  0  0  0  0
   59.4050   29.0770   51.9940 C   0  0  0  0  0  0  0  0  0  0  0  0
   58.8824   28.4265   52.7108 H   0  0  0  0  0  0  0  0  0  0  0  0
   59.1560   28.7806   50.9644 H   0  0  0  0  0  0  0  0  0  0  0  0
   61.2940   29.6690   49.8620 C   0  0  0  0  0  0  0  0  0  0  0  0
   60.6990   28.6400   49.4380 O   0  0  0  0  0  0  0  0  0  0  0  0
   59.2270   28.6800   46.7540 C   0  0  0  0  0  0  0  0  0  0  0  0
   60.1329   28.8521   47.3538 H   0  0  0  0  0  0  0  0  0  0  0  0
   58.5420   27.4680   46.8640 C   0  0  0  0  0  0  0  0  0  0  0  0
   58.9077   26.6918   47.5522 H   0  0  0  0  0  0  0  0  0  0  0  0
  1  2  1  0
  2  3  1  0
  3  4  2  0
  3  5  2  0
  3  6  1  0
  6  7  2  0
  7  8  1  0
  7  9  1  0
  9 10  1  0
  9 11  2  0
 11 12  1  0
 12 13  1  0
 12 14  1  0
 12 15  1  0
 15 16  1  0
 15 17  1  0
 15 18  1  0
 18 19  2  0
 19 20  1  0
 20 21  2  0
 21 22  1  0
 22 23  1  0
 21 24  1  0
 24 25  1  0
 24 26  1  0
 26 27  1  0
 26 28  1  0
 26 29  1  0
 29 30  2  0
 30 31  1  0
 30 32  1  0
 32 33  1  0
 32 34  2  0
 34 35  1  0
 34 36  1  0
 36 37  1  0
 36 38  2  0
 38 39  1  0
 20 40  1  0
 40 41  2  0
 41 42  1  0
 41 43  1  0
 40 44  1  0
 44 45  1  0
 45 46  2  0
 45 47  1  0
 47 48  1  0
 48 49  1  0
 48 50  1  0
 50 51  1  0
 50 52  1  0
 50 53  1  0
 53 54  1  0
 53 55  1  0
 53 56  1  0
 56 57  1  0
 57 58  1  0
 57 59  1  0
 57 60  1  0
 60 61  1  0
 60 62  1  0
 47 63  1  0
 63 64  2  0
 11 65  1  0
 65 66  1  0
 65 67  2  0
 67 68  1  0
 67  6  1  0
 63 19  1  0
 38 29  1  0
 60 48  1  0
M  CHG  2   2  -1  44  -1
M  END
>  <UniqueID>  (51) 
51

>  <SMILES>  (51) 
C=c1[n-]c(=O)n(C2CCOCC2)c(=O)/c(=N\CCc2ccc(S([NH-])(=O)=O)cc2)c1=C(O)NCc1ccc(F)cc1

>  <Energy>  (51) 
162.08039829099909

>  <Genealogy>  (51) 
C=c1[n-]c(=O)n(C2CCOCC2)c(=O)c(=NCCc2ccc(S([NH-])(=O)=O)cc2)c1=C(O)NCc1ccc(F)cc1 (protonated)
C=c1[n-]c(=O)n(C2CCOCC2)c(=O)/c(=N\CCc2ccc(S([NH-])(=O)=O)cc2)c1=C(O)NCc1ccc(F)cc1 (cis-trans isomerization)
C=c1[n-]c(=O)n(C2CCOCC2)c(=O)/c(=N\CCc2ccc(S([NH-])(=O)=O)cc2)c1=C(O)NCc1ccc(F)cc1 (3D coordinates assigned)
C=c1[n-]c(=O)n(C2CCOCC2)c(=O)/c(=N\CCc2ccc(S([NH-])(=O)=O)cc2)c1=C(O)NCc1ccc(F)cc1 (nonaromatic ring conformer: 162.08039829099909 kcal/mol)

>  <smiles>  (51) 
C=c1[nH]c(=O)n(C2CCOCC2)c(=O)c(=NCCc2ccc(S(N)(=O)=O)cc2)c1=C(O)NCc1ccc(F)cc1

>  <score_type>  (51) 
oracle

>  <origin>  (51) 
adg

>  <m_score__min__energy>  (51) 
-12.16

>  <m_primary>  (51) 
energy

$$$$
51:0
     RDKit          3D

 54 56  0  0  0  0  0  0  0  0999 V2000
   58.5389   29.1370   43.8624 H   0  0  0  0  0  0  0  0  0  0  0  0
   58.0370   29.3090   44.8260 C   0  0  0  0  0  0  0  0  0  0  0  0
   56.6420   29.7970   44.8220 C   0  0  0  0  0  0  0  0  0  0  0  0
   55.7140   28.9680   45.0040 O   0  0  0  0  0  0  0  0  0  0  0  0
   56.3020   31.1780   44.6260 N   0  0  0  0  0  0  0  0  0  0  0  0
   57.1750   32.2960   44.8470 C   0  0  0  0  0  0  0  0  0  0  0  0
   57.1080   32.9510   46.0840 C   0  0  0  0  0  0  0  0  0  0  0  0
   56.3690   32.6297   46.8327 H   0  0  0  0  0  0  0  0  0  0  0  0
   57.9730   34.0090   46.3730 C   0  0  0  0  0  0  0  0  0  0  0  0
   57.9232   34.5076   47.3522 H   0  0  0  0  0  0  0  0  0  0  0  0
   58.9000   34.4340   45.4210 C   0  0  0  0  0  0  0  0  0  0  0  0
   59.5906   35.2571   45.6567 H   0  0  0  0  0  0  0  0  0  0  0  0
   58.9530   33.8170   44.1700 C   0  0  0  0  0  0  0  0  0  0  0  0
   59.6856   34.1585   43.4239 H   0  0  0  0  0  0  0  0  0  0  0  0
   58.0780   32.7630   43.8560 C   0  0  0  0  0  0  0  0  0  0  0  0
   58.1260   32.1690   42.4750 C   0  0  0  0  0  0  0  0  0  0  0  0
   58.2144   31.0751   42.5492 H   0  0  0  0  0  0  0  0  0  0  0  0
   57.2041   32.4264   41.9329 H   0  0  0  0  0  0  0  0  0  0  0  0
   58.9946   32.5711   41.9329 H   0  0  0  0  0  0  0  0  0  0  0  0
   58.7140   29.0680   45.9550 C   0  0  0  0  0  0  0  0  0  0  0  0
   58.9473   28.0226   46.2052 H   0  0  0  0  0  0  0  0  0  0  0  0
   59.1680   30.1260   46.8880 C   0  0  0  0  0  0  0  0  0  0  0  0
   58.7150   30.2110   48.2190 C   0  0  0  0  0  0  0  0  0  0  0  0
   58.0070   29.4626   48.6045 H   0  0  0  0  0  0  0  0  0  0  0  0
   59.1600   31.2410   49.0530 C   0  0  0  0  0  0  0  0  0  0  0  0
   58.8008   31.2986   50.0911 H   0  0  0  0  0  0  0  0  0  0  0  0
   60.0610   32.2000   48.5730 C   0  0  0  0  0  0  0  0  0  0  0  0
   60.5750   33.5200   49.6220 S   0  0  0  0  0  0  0  0  0  0  0  0
   59.4060   34.0380   50.4140 O   0  0  0  0  0  0  0  0  0  0  0  0
   61.1110   34.6370   48.7730 O   0  0  0  0  0  0  0  0  0  0  0  0
   61.8160   32.9780   50.7110 N   0  0  0  0  0  0  0  0  0  0  0  0
   62.4110   32.3060   50.1740 H   0  0  0  0  0  0  0  0  0  0  0  0
   62.6530   34.1130   51.1110 C   0  0  0  0  0  0  0  0  0  0  0  0
   62.4345   34.3769   52.1563 H   0  0  0  0  0  0  0  0  0  0  0  0
   62.4360   34.9710   50.4578 H   0  0  0  0  0  0  0  0  0  0  0  0
   64.1090   33.7470   50.9820 C   0  0  0  0  0  0  0  0  0  0  0  0
   64.9940   34.0710   52.0250 C   0  0  0  0  0  0  0  0  0  0  0  0
   64.6185   34.5902   52.9191 H   0  0  0  0  0  0  0  0  0  0  0  0
   66.3460   33.7380   51.9330 C   0  0  0  0  0  0  0  0  0  0  0  0
   67.0333   34.0015   52.7504 H   0  0  0  0  0  0  0  0  0  0  0  0
   66.8270   33.0720   50.8070 C   0  0  0  0  0  0  0  0  0  0  0  0
   67.8955   32.8214   50.7326 H   0  0  0  0  0  0  0  0  0  0  0  0
   65.9560   32.7220   49.7730 C   0  0  0  0  0  0  0  0  0  0  0  0
   66.3414   32.1908   48.8903 H   0  0  0  0  0  0  0  0  0  0  0  0
   64.5860   33.0450   49.8530 C   0  0  0  0  0  0  0  0  0  0  0  0
   63.6800   32.6850   48.8410 O   0  0  0  0  0  0  0  0  0  0  0  0
   63.8130   33.0470   47.4720 C   0  0  0  0  0  0  0  0  0  0  0  0
   64.1915   34.0773   47.4003 H   0  0  0  0  0  0  0  0  0  0  0  0
   64.5182   32.3621   46.9785 H   0  0  0  0  0  0  0  0  0  0  0  0
   62.8321   32.9816   46.9785 H   0  0  0  0  0  0  0  0  0  0  0  0
   60.5050   32.1270   47.2460 C   0  0  0  0  0  0  0  0  0  0  0  0
   61.2078   32.8805   46.8609 H   0  0  0  0  0  0  0  0  0  0  0  0
   60.0580   31.1000   46.4100 C   0  0  0  0  0  0  0  0  0  0  0  0
   60.4070   31.0548   45.3678 H   0  0  0  0  0  0  0  0  0  0  0  0
  1  2  1  0
  2  3  1  0
  3  4  2  0
  3  5  1  0
  5  6  1  0
  6  7  2  0
  7  8  1  0
  7  9  1  0
  9 10  1  0
  9 11  2  0
 11 12  1  0
 11 13  1  0
 13 14  1  0
 13 15  2  0
 15 16  1  0
 16 17  1  0
 16 18  1  0
 16 19  1  0
  2 20  2  0
 20 21  1  0
 20 22  1  0
 22 23  2  0
 23 24  1  0
 23 25  1  0
 25 26  1  0
 25 27  2  0
 27 28  1  0
 28 29  2  0
 28 30  2  0
 28 31  1  0
 31 32  1  0
 31 33  1  0
 33 34  1  0
 33 35  1  0
 33 36  1  0
 36 37  2  0
 37 38  1  0
 37 39  1  0
 39 40  1  0
 39 41  2  0
 41 42  1  0
 41 43  1  0
 43 44  1  0
 43 45  2  0
 45 46  1  0
 46 47  1  0
 47 48  1  0
 47 49  1  0
 47 50  1  0
 27 51  1  0
 51 52  1  0
 51 53  2  0
 53 54  1  0
 15  6  1  0
 53 22  1  0
 45 36  1  0
M  CHG  1   5  -1
M  END
>  <UniqueID>  (52) 
52

>  <SMILES>  (52) 
COc1ccccc1CNS(=O)(=O)c1ccc(/C=C/C(=O)[N-]c2ccccc2C)cc1

>  <Energy>  (52) 
64.00108865857305

>  <Genealogy>  (52) 
COc1ccccc1CNS(=O)(=O)c1ccc(C=CC(=O)[N-]c2ccccc2C)cc1 (protonated)
COc1ccccc1CNS(=O)(=O)c1ccc(/C=C/C(=O)[N-]c2ccccc2C)cc1 (cis-trans isomerization)
COc1ccccc1CNS(=O)(=O)c1ccc(/C=C/C(=O)[N-]c2ccccc2C)cc1 (3D coordinates assigned)
COc1ccccc1CNS(=O)(=O)c1ccc(/C=C/C(=O)[N-]c2ccccc2C)cc1 (optimized conformer: 64.00108865857305 kcal/mol)

>  <smiles>  (52) 
COc1ccccc1CNS(=O)(=O)c1ccc(C=CC(=O)Nc2ccccc2C)cc1

>  <score_type>  (52) 
oracle

>  <origin>  (52) 
adg

>  <m_score__min__energy>  (52) 
-11.109999999999999

>  <m_primary>  (52) 
energy

$$$$
52:0
     RDKit          3D

 29 31  0  0  0  0  0  0  0  0999 V2000
   54.6170   30.4600   44.5680 H   0  0  0  0  0  0  0  0  0  0  0  0
   55.6300   30.6310   44.3780 N   0  0  0  0  0  0  0  0  0  0  0  0
   56.5560   29.9190   44.9370 C   0  0  0  0  0  0  0  0  0  0  0  0
   56.3930   28.5720   45.0360 N   0  0  0  0  0  0  0  0  0  0  0  0
   57.3390   27.7540   45.5740 C   0  0  0  0  0  0  0  0  0  0  0  0
   57.0690   26.3010   45.6290 C   0  0  0  0  0  0  0  0  0  0  0  0
   58.0700   25.3820   45.2690 C   0  0  0  0  0  0  0  0  0  0  0  0
   59.0635   25.7460   44.9681 H   0  0  0  0  0  0  0  0  0  0  0  0
   57.8110   24.0090   45.2910 C   0  0  0  0  0  0  0  0  0  0  0  0
   58.6025   23.2958   45.0175 H   0  0  0  0  0  0  0  0  0  0  0  0
   56.5480   23.5420   45.6600 C   0  0  0  0  0  0  0  0  0  0  0  0
   56.3470   22.4607   45.6799 H   0  0  0  0  0  0  0  0  0  0  0  0
   55.5390   24.4450   46.0040 C   0  0  0  0  0  0  0  0  0  0  0  0
   54.2820   23.9720   46.3650 O   0  0  0  0  0  0  0  0  0  0  0  0
   55.7930   25.8230   45.9870 C   0  0  0  0  0  0  0  0  0  0  0  0
   54.7800   26.7120   46.3360 O   0  0  0  0  0  0  0  0  0  0  0  0
   58.5370   28.3120   46.0590 C   0  0  0  0  0  0  0  0  0  0  0  0
   59.7740   27.3410   46.8500 Cl  0  0  0  0  0  0  0  0  0  0  0  0
   58.7280   29.6930   45.9670 C   0  0  0  0  0  0  0  0  0  0  0  0
   59.6650   30.1375   46.3337 H   0  0  0  0  0  0  0  0  0  0  0  0
   57.7400   30.5190   45.4130 C   0  0  0  0  0  0  0  0  0  0  0  0
   57.9540   31.9420   45.3400 N   0  0  0  0  0  0  0  0  0  0  0  0
   58.1010   32.7000   44.2330 C   0  0  0  0  0  0  0  0  0  0  0  0
   58.1061   32.2934   43.2109 H   0  0  0  0  0  0  0  0  0  0  0  0
   58.2410   34.0110   44.5180 N   0  0  0  0  0  0  0  0  0  0  0  0
   58.1720   34.0710   45.8620 C   0  0  0  0  0  0  0  0  0  0  0  0
   58.2499   34.9902   46.4612 H   0  0  0  0  0  0  0  0  0  0  0  0
   57.9890   32.8050   46.3700 C   0  0  0  0  0  0  0  0  0  0  0  0
   57.8888   32.5446   47.4340 H   0  0  0  0  0  0  0  0  0  0  0  0
  1  2  1  0
  2  3  2  0
  3  4  1  0
  4  5  1  0
  5  6  1  0
  6  7  2  0
  7  8  1  0
  7  9  1  0
  9 10  1  0
  9 11  2  0
 11 12  1  0
 11 13  1  0
 13 14  1  0
 13 15  2  0
 15 16  1  0
  5 17  2  0
 17 18  1  0
 17 19  1  0
 19 20  1  0
 19 21  2  0
 21 22  1  0
 22 23  1  0
 23 24  1  0
 23 25  2  0
 25 26  1  0
 26 27  1  0
 26 28  2  0
 28 29  1  0
 21  3  1  0
 28 22  1  0
 15  6  1  0
M  CHG  3   4  -1  14  -1  16  -1
M  END
>  <UniqueID>  (53) 
53

>  <SMILES>  (53) 
[H]/N=c1\[n-]c(-c2cccc([O-])c2[O-])c(Cl)cc1-n1ccnc1

>  <Energy>  (53) 
75.32737333578048

>  <Genealogy>  (53) 
N=c1[n-]c(-c2cccc([O-])c2[O-])c(Cl)cc1-n1ccnc1 (protonated)
[H]/N=c1\[n-]c(-c2cccc([O-])c2[O-])c(Cl)cc1-n1ccnc1 (cis-trans isomerization)
[H]/N=c1\[n-]c(-c2cccc([O-])c2[O-])c(Cl)cc1-n1ccnc1 (3D coordinates assigned)
[H]/N=c1\[n-]c(-c2cccc([O-])c2[O-])c(Cl)cc1-n1ccnc1 (optimized conformer: 75.32737333578048 kcal/mol)

>  <smiles>  (53) 
N=c1[nH]c(-c2cccc(O)c2O)c(Cl)cc1-n1ccnc1

>  <score_type>  (53) 
oracle

>  <origin>  (53) 
adg

>  <m_score__min__energy>  (53) 
-14.98

>  <m_primary>  (53) 
energy

$$$$
53:0
     RDKit          3D

 44 45  0  0  0  0  0  0  0  0999 V2000
   60.0020   25.9850   46.4220 C   0  0  0  0  0  0  0  0  0  0  0  0
   59.2580   27.1490   47.0720 C   0  0  0  0  0  0  0  0  0  0  0  0
   58.7140   28.0580   46.0510 N   0  0  0  0  0  0  0  0  0  0  0  0
   57.7620   27.5380   45.0540 C   0  0  0  0  0  0  0  0  0  0  0  0
   56.3360   27.7760   45.4870 C   0  0  0  0  0  0  0  0  0  0  0  0
   55.7900   28.8810   45.2350 O   0  0  0  0  0  0  0  0  0  0  0  0
   55.5310   26.7210   46.0270 N   0  0  0  0  0  0  0  0  0  0  0  0
   55.8840   25.3320   46.0650 C   0  0  0  0  0  0  0  0  0  0  0  0
   56.6610   24.8530   47.1290 C   0  0  0  0  0  0  0  0  0  0  0  0
   57.0410   23.5060   47.1710 C   0  0  0  0  0  0  0  0  0  0  0  0
   56.6630   22.6360   46.1440 C   0  0  0  0  0  0  0  0  0  0  0  0
   55.9150   23.1160   45.0640 C   0  0  0  0  0  0  0  0  0  0  0  0
   55.5660   22.2770   44.0560 F   0  0  0  0  0  0  0  0  0  0  0  0
   55.5360   24.4630   45.0160 C   0  0  0  0  0  0  0  0  0  0  0  0
   59.1580   29.4330   45.9640 C   0  0  0  0  0  0  0  0  0  0  0  0
   60.3650   29.7130   46.2050 O   0  0  0  0  0  0  0  0  0  0  0  0
   58.2560   30.4790   45.5700 N   0  0  0  0  0  0  0  0  0  0  0  0
   58.4870   31.8720   45.8590 C   0  0  0  0  0  0  0  0  0  0  0  0
   59.1280   32.2600   47.0500 C   0  0  0  0  0  0  0  0  0  0  0  0
   59.3350   33.6110   47.3350 C   0  0  0  0  0  0  0  0  0  0  0  0
   58.8980   34.5890   46.4430 C   0  0  0  0  0  0  0  0  0  0  0  0
   58.2390   34.2210   45.2670 C   0  0  0  0  0  0  0  0  0  0  0  0
   58.0230   32.8600   44.9660 C   0  0  0  0  0  0  0  0  0  0  0  0
   57.3630   32.4580   43.7920 O   0  0  0  0  0  0  0  0  0  0  0  0
   58.0180   31.9760   42.6230 C   0  0  0  0  0  0  0  0  0  0  0  0
   60.4185   25.3334   47.2043 H   0  0  0  0  0  0  0  0  0  0  0  0
   59.3050   25.4078   45.7967 H   0  0  0  0  0  0  0  0  0  0  0  0
   60.8186   26.3752   45.7967 H   0  0  0  0  0  0  0  0  0  0  0  0
   58.4310   26.7536   47.6800 H   0  0  0  0  0  0  0  0  0  0  0  0
   59.9636   27.7097   47.7027 H   0  0  0  0  0  0  0  0  0  0  0  0
   57.9350   28.0454   44.0935 H   0  0  0  0  0  0  0  0  0  0  0  0
   57.9197   26.4540   44.9532 H   0  0  0  0  0  0  0  0  0  0  0  0
   56.9727   25.5366   47.9324 H   0  0  0  0  0  0  0  0  0  0  0  0
   57.6389   23.1311   48.0148 H   0  0  0  0  0  0  0  0  0  0  0  0
   56.9533   21.5758   46.1852 H   0  0  0  0  0  0  0  0  0  0  0  0
   54.9648   24.8421   44.1558 H   0  0  0  0  0  0  0  0  0  0  0  0
   57.4460   30.2310   44.9630 H   0  0  0  0  0  0  0  0  0  0  0  0
   59.4685   31.4934   47.7616 H   0  0  0  0  0  0  0  0  0  0  0  0
   59.8439   33.9042   48.2651 H   0  0  0  0  0  0  0  0  0  0  0  0
   59.0722   35.6522   46.6652 H   0  0  0  0  0  0  0  0  0  0  0  0
   57.8866   34.9973   44.5719 H   0  0  0  0  0  0  0  0  0  0  0  0
   58.8723   31.3473   42.9143 H   0  0  0  0  0  0  0  0  0  0  0  0
   57.3115   31.3808   42.0259 H   0  0  0  0  0  0  0  0  0  0  0  0
   58.3761   32.8276   42.0259 H   0  0  0  0  0  0  0  0  0  0  0  0
  1  2  1  0
  2  3  1  0
  3  4  1  0
  4  5  1  0
  5  6  2  0
  5  7  1  0
  7  8  1  0
  8  9  2  0
  9 10  1  0
 10 11  2  0
 11 12  1  0
 12 13  1  0
 12 14  2  0
  3 15  1  0
 15 16  2  0
 15 17  1  0
 17 18  1  0
 18 19  2  0
 19 20  1  0
 20 21  2  0
 21 22  1  0
 22 23  2  0
 23 24  1  0
 24 25  1  0
 14  8  1  0
 23 18  1  0
  1 26  1  0
  1 27  1  0
  1 28  1  0
  2 29  1  0
  2 30  1  0
  4 31  1  0
  4 32  1  0
  9 33  1  0
 10 34  1  0
 11 35  1  0
 14 36  1  0
 17 37  1  0
 19 38  1  0
 20 39  1  0
 21 40  1  0
 22 41  1  0
 25 42  1  0
 25 43  1  0
 25 44  1  0
M  CHG  1   7  -1
M  END
>  <UniqueID>  (54) 
54

>  <SMILES>  (54) 
CCN(CC(=O)[N-]c1cccc(F)c1)C(=O)Nc1ccccc1OC

>  <Energy>  (54) 
50.045651386437775

>  <Genealogy>  (54) 
CCN(CC(=O)[N-]c1cccc(F)c1)C(=O)Nc1ccccc1OC (protonated)
CCN(CC(=O)[N-]c1cccc(F)c1)C(=O)Nc1ccccc1OC (3D coordinates assigned)
CCN(CC(=O)[N-]c1cccc(F)c1)C(=O)Nc1ccccc1OC (optimized conformer: 50.045651386437775 kcal/mol)

>  <smiles>  (54) 
CCN(CC(=O)Nc1cccc(F)c1)C(=O)Nc1ccccc1OC

>  <score_type>  (54) 
oracle

>  <origin>  (54) 
adg

>  <m_score__min__energy>  (54) 
-8.8599999999999994

>  <m_primary>  (54) 
energy

$$$$
54:0
     RDKit          3D

 49 51  0  0  0  0  0  0  0  0999 V2000
   56.2030   30.2140   44.8680 O   0  0  0  0  0  0  0  0  0  0  0  0
   57.2710   30.5070   44.2630 C   0  0  0  0  0  0  0  0  0  0  0  0
   57.5440   31.9300   43.8900 C   0  0  0  0  0  0  0  0  0  0  0  0
   57.1440   33.0280   45.2940 S   0  0  0  0  0  0  0  0  0  0  0  0
   58.5370   34.1800   45.0370 C   0  0  0  0  0  0  0  0  0  0  0  0
   59.4340   34.1520   46.2390 C   0  0  0  0  0  0  0  0  0  0  0  0
   60.7990   33.8580   46.0910 C   0  0  0  0  0  0  0  0  0  0  0  0
   61.6460   33.8600   47.2050 C   0  0  0  0  0  0  0  0  0  0  0  0
   61.1360   34.1640   48.4700 C   0  0  0  0  0  0  0  0  0  0  0  0
   61.9580   34.1670   49.5490 F   0  0  0  0  0  0  0  0  0  0  0  0
   59.7810   34.4730   48.6230 C   0  0  0  0  0  0  0  0  0  0  0  0
   58.9310   34.4720   47.5100 C   0  0  0  0  0  0  0  0  0  0  0  0
   58.2230   29.4860   43.9390 N   0  0  0  0  0  0  0  0  0  0  0  0
   58.3690   28.2770   44.7030 C   0  0  0  0  0  0  0  0  0  0  0  0
   59.6130   27.9620   45.2690 C   0  0  0  0  0  0  0  0  0  0  0  0
   59.7670   26.7990   46.0290 C   0  0  0  0  0  0  0  0  0  0  0  0
   58.6770   25.9520   46.2450 C   0  0  0  0  0  0  0  0  0  0  0  0
   57.4220   26.2690   45.7070 C   0  0  0  0  0  0  0  0  0  0  0  0
   56.0340   25.2170   45.9970 S   0  0  0  0  0  0  0  0  0  0  0  0
   54.7700   26.0010   45.7750 O   0  0  0  0  0  0  0  0  0  0  0  0
   56.0500   24.7570   47.4280 O   0  0  0  0  0  0  0  0  0  0  0  0
   56.0450   23.8240   44.9440 N   0  0  0  0  0  0  0  0  0  0  0  0
   56.6300   24.1660   43.6390 C   0  0  0  0  0  0  0  0  0  0  0  0
   56.5860   22.9340   42.7110 C   0  0  0  0  0  0  0  0  0  0  0  0
   56.2150   21.7500   43.4000 O   0  0  0  0  0  0  0  0  0  0  0  0
   57.0290   21.5830   44.5430 C   0  0  0  0  0  0  0  0  0  0  0  0
   56.7920   22.7160   45.5620 C   0  0  0  0  0  0  0  0  0  0  0  0
   57.2710   27.4330   44.9420 C   0  0  0  0  0  0  0  0  0  0  0  0
   58.6072   32.0417   43.6309 H   0  0  0  0  0  0  0  0  0  0  0  0
   56.9203   32.2042   43.0264 H   0  0  0  0  0  0  0  0  0  0  0  0
   59.1064   33.8747   44.1468 H   0  0  0  0  0  0  0  0  0  0  0  0
   58.1493   35.1990   44.8911 H   0  0  0  0  0  0  0  0  0  0  0  0
   61.2043   33.6251   45.0952 H   0  0  0  0  0  0  0  0  0  0  0  0
   62.7133   33.6223   47.0849 H   0  0  0  0  0  0  0  0  0  0  0  0
   59.3822   34.7171   49.6187 H   0  0  0  0  0  0  0  0  0  0  0  0
   57.8669   34.7225   47.6319 H   0  0  0  0  0  0  0  0  0  0  0  0
   58.8370   29.6280   43.1060 H   0  0  0  0  0  0  0  0  0  0  0  0
   60.4709   28.6328   45.1142 H   0  0  0  0  0  0  0  0  0  0  0  0
   60.7488   26.5500   46.4581 H   0  0  0  0  0  0  0  0  0  0  0  0
   58.8039   25.0345   46.8384 H   0  0  0  0  0  0  0  0  0  0  0  0
   56.0558   24.9869   43.1846 H   0  0  0  0  0  0  0  0  0  0  0  0
   57.6750   24.4798   43.7790 H   0  0  0  0  0  0  0  0  0  0  0  0
   55.8548   23.1207   41.9106 H   0  0  0  0  0  0  0  0  0  0  0  0
   57.5976   22.7831   42.3061 H   0  0  0  0  0  0  0  0  0  0  0  0
   56.7913   20.6187   45.0158 H   0  0  0  0  0  0  0  0  0  0  0  0
   58.0829   21.6095   44.2290 H   0  0  0  0  0  0  0  0  0  0  0  0
   56.2160   22.3222   46.4124 H   0  0  0  0  0  0  0  0  0  0  0  0
   57.7669   23.0940   45.9037 H   0  0  0  0  0  0  0  0  0  0  0  0
   56.2855   27.6882   44.5253 H   0  0  0  0  0  0  0  0  0  0  0  0
  1  2  2  0
  2  3  1  0
  3  4  1  0
  4  5  1  0
  5  6  1  0
  6  7  2  0
  7  8  1  0
  8  9  2  0
  9 10  1  0
  9 11  1  0
 11 12  2  0
  2 13  1  0
 13 14  1  0
 14 15  2  0
 15 16  1  0
 16 17  2  0
 17 18  1  0
 18 19  1  0
 19 20  2  0
 19 21  2  0
 19 22  1  0
 22 23  1  0
 23 24  1  0
 24 25  1  0
 25 26  1  0
 26 27  1  0
 18 28  2  0
 12  6  1  0
 28 14  1  0
 27 22  1  0
  3 29  1  0
  3 30  1  0
  5 31  1  0
  5 32  1  0
  7 33  1  0
  8 34  1  0
 11 35  1  0
 12 36  1  0
 13 37  1  0
 15 38  1  0
 16 39  1  0
 17 40  1  0
 23 41  1  0
 23 42  1  0
 24 43  1  0
 24 44  1  0
 26 45  1  0
 26 46  1  0
 27 47  1  0
 27 48  1  0
 28 49  1  0
M  END
>  <UniqueID>  (55) 
55

>  <SMILES>  (55) 
O=C(CSCc1ccc(F)cc1)Nc1cccc(S(=O)(=O)N2CCOCC2)c1

>  <Energy>  (55) 
53.950594438516056

>  <Genealogy>  (55) 
O=C(CSCc1ccc(F)cc1)Nc1cccc(S(=O)(=O)N2CCOCC2)c1 (3D coordinates assigned)
O=C(CSCc1ccc(F)cc1)Nc1cccc(S(=O)(=O)N2CCOCC2)c1 (nonaromatic ring conformer: 53.950594438516056 kcal/mol)

>  <smiles>  (55) 
O=C(CSCc1ccc(F)cc1)Nc1cccc(S(=O)(=O)N2CCOCC2)c1

>  <score_type>  (55) 
oracle

>  <origin>  (55) 
adg

>  <m_score__min__energy>  (55) 
-10.84

>  <m_primary>  (55) 
energy

$$$$
55:0
     RDKit          3D

 67 70  0  0  0  0  0  0  0  0999 V2000
   52.5780   31.2420   51.8800 C   0  0  0  0  0  0  0  0  0  0  0  0
   53.8700   30.7270   52.4450 C   0  0  0  0  0  0  0  0  0  0  0  0
   53.9350   30.3140   53.7830 C   0  0  0  0  0  0  0  0  0  0  0  0
   55.1260   29.8060   54.3050 C   0  0  0  0  0  0  0  0  0  0  0  0
   56.2660   29.6870   53.4940 C   0  0  0  0  0  0  0  0  0  0  0  0
   57.5460   29.1490   54.0680 C   0  0  0  0  0  0  0  0  0  0  0  0
   56.2080   30.0850   52.1430 C   0  0  0  0  0  0  0  0  0  0  0  0
   57.3600   29.9570   51.3480 O   0  0  0  0  0  0  0  0  0  0  0  0
   58.1740   31.0460   50.9220 C   0  0  0  0  0  0  0  0  0  0  0  0
   59.2300   30.5540   49.9840 C   0  0  0  0  0  0  0  0  0  0  0  0
   60.2390   31.2720   49.7480 O   0  0  0  0  0  0  0  0  0  0  0  0
   59.1250   29.2430   49.4090 N   0  0  0  0  0  0  0  0  0  0  0  0
   60.0880   28.7290   48.4360 C   0  0  0  0  0  0  0  0  0  0  0  0
   60.2410   27.2110   48.5740 C   0  0  0  0  0  0  0  0  0  0  0  0
   59.7730   26.5400   47.4030 O   0  0  0  0  0  0  0  0  0  0  0  0
   58.4310   26.4280   47.0040 C   0  0  0  0  0  0  0  0  0  0  0  0
   57.6630   25.2670   47.2230 C   0  0  0  0  0  0  0  0  0  0  0  0
   56.3210   25.2130   46.8130 C   0  0  0  0  0  0  0  0  0  0  0  0
   55.5170   23.9610   47.0170 C   0  0  0  0  0  0  0  0  0  0  0  0
   55.7460   26.3250   46.1760 C   0  0  0  0  0  0  0  0  0  0  0  0
   54.4160   26.2870   45.7650 O   0  0  0  0  0  0  0  0  0  0  0  0
   56.5120   27.4730   45.9400 C   0  0  0  0  0  0  0  0  0  0  0  0
   55.9500   28.5860   45.2470 N   0  0  0  0  0  0  0  0  0  0  0  0
   56.8960   29.4700   44.1020 S   0  0  0  0  0  0  0  0  0  0  0  0
   56.0050   30.3700   43.2920 O   0  0  0  0  0  0  0  0  0  0  0  0
   57.5770   28.5030   43.1730 O   0  0  0  0  0  0  0  0  0  0  0  0
   58.1030   30.4260   44.9570 C   0  0  0  0  0  0  0  0  0  0  0  0
   59.3470   29.8710   45.2900 C   0  0  0  0  0  0  0  0  0  0  0  0
   60.2770   30.6170   46.0180 C   0  0  0  0  0  0  0  0  0  0  0  0
   59.9640   31.9140   46.4360 C   0  0  0  0  0  0  0  0  0  0  0  0
   58.7120   32.4760   46.1170 C   0  0  0  0  0  0  0  0  0  0  0  0
   57.7940   31.7320   45.3620 C   0  0  0  0  0  0  0  0  0  0  0  0
   58.4110   33.9070   46.4920 C   0  0  0  0  0  0  0  0  0  0  0  0
   59.0860   34.3140   47.8110 C   0  0  0  0  0  0  0  0  0  0  0  0
   60.5250   33.8910   47.8280 C   0  0  0  0  0  0  0  0  0  0  0  0
   61.3820   34.5750   48.4460 O   0  0  0  0  0  0  0  0  0  0  0  0
   60.9080   32.6630   47.2080 N   0  0  0  0  0  0  0  0  0  0  0  0
   57.8470   27.5200   46.3540 C   0  0  0  0  0  0  0  0  0  0  0  0
   55.0000   30.5960   51.6250 C   0  0  0  0  0  0  0  0  0  0  0  0
   51.8999   31.5123   52.7028 H   0  0  0  0  0  0  0  0  0  0  0  0
   52.7763   32.1298   51.2616 H   0  0  0  0  0  0  0  0  0  0  0  0
   52.1112   30.4612   51.2616 H   0  0  0  0  0  0  0  0  0  0  0  0
   53.0443   30.3905   54.4240 H   0  0  0  0  0  0  0  0  0  0  0  0
   55.1717   29.4966   55.3596 H   0  0  0  0  0  0  0  0  0  0  0  0
   57.4931   29.1712   55.1665 H   0  0  0  0  0  0  0  0  0  0  0  0
   57.6930   28.1130   53.7289 H   0  0  0  0  0  0  0  0  0  0  0  0
   58.3890   29.7689   53.7289 H   0  0  0  0  0  0  0  0  0  0  0  0
   57.5480   31.7906   50.4086 H   0  0  0  0  0  0  0  0  0  0  0  0
   58.6533   31.5054   51.7991 H   0  0  0  0  0  0  0  0  0  0  0  0
   58.3470   28.6170   49.7120 H   0  0  0  0  0  0  0  0  0  0  0  0
   59.7365   28.9655   47.4208 H   0  0  0  0  0  0  0  0  0  0  0  0
   61.0641   29.2007   48.6221 H   0  0  0  0  0  0  0  0  0  0  0  0
   61.3031   26.9691   48.7268 H   0  0  0  0  0  0  0  0  0  0  0  0
   59.6415   26.8754   49.4330 H   0  0  0  0  0  0  0  0  0  0  0  0
   58.1180   24.3968   47.7187 H   0  0  0  0  0  0  0  0  0  0  0  0
   55.3968   23.7739   48.0943 H   0  0  0  0  0  0  0  0  0  0  0  0
   54.5269   24.0814   46.5531 H   0  0  0  0  0  0  0  0  0  0  0  0
   56.0384   23.1108   46.5531 H   0  0  0  0  0  0  0  0  0  0  0  0
   59.5912   28.8451   44.9770 H   0  0  0  0  0  0  0  0  0  0  0  0
   61.2577   30.1831   46.2629 H   0  0  0  0  0  0  0  0  0  0  0  0
   56.8260   32.1756   45.0860 H   0  0  0  0  0  0  0  0  0  0  0  0
   58.7729   34.5673   45.6901 H   0  0  0  0  0  0  0  0  0  0  0  0
   57.3231   34.0001   46.6258 H   0  0  0  0  0  0  0  0  0  0  0  0
   59.0305   35.4070   47.9218 H   0  0  0  0  0  0  0  0  0  0  0  0
   58.5634   33.8168   48.6415 H   0  0  0  0  0  0  0  0  0  0  0  0
   58.4437   28.4249   46.1665 H   0  0  0  0  0  0  0  0  0  0  0  0
   54.9436   30.8946   50.5678 H   0  0  0  0  0  0  0  0  0  0  0  0
  1  2  1  0
  2  3  2  0
  3  4  1  0
  4  5  2  0
  5  6  1  0
  5  7  1  0
  7  8  1  0
  8  9  1  0
  9 10  1  0
 10 11  2  0
 10 12  1  0
 12 13  1  0
 13 14  1  0
 14 15  1  0
 15 16  1  0
 16 17  2  0
 17 18  1  0
 18 19  1  0
 18 20  2  0
 20 21  1  0
 20 22  1  0
 22 23  1  0
 23 24  1  0
 24 25  2  0
 24 26  2  0
 24 27  1  0
 27 28  2  0
 28 29  1  0
 29 30  2  0
 30 31  1  0
 31 32  2  0
 31 33  1  0
 33 34  1  0
 34 35  1  0
 35 36  2  0
 35 37  1  0
 22 38  2  0
  7 39  2  0
 39  2  1  0
 38 16  1  0
 32 27  1  0
 37 30  1  0
  1 40  1  0
  1 41  1  0
  1 42  1  0
  3 43  1  0
  4 44  1  0
  6 45  1  0
  6 46  1  0
  6 47  1  0
  9 48  1  0
  9 49  1  0
 12 50  1  0
 13 51  1  0
 13 52  1  0
 14 53  1  0
 14 54  1  0
 17 55  1  0
 19 56  1  0
 19 57  1  0
 19 58  1  0
 28 59  1  0
 29 60  1  0
 32 61  1  0
 33 62  1  0
 33 63  1  0
 34 64  1  0
 34 65  1  0
 38 66  1  0
 39 67  1  0
M  CHG  3  21  -1  23  -1  37  -1
M  END
>  <UniqueID>  (56) 
56

>  <SMILES>  (56) 
Cc1ccc(C)c(OCC(=O)NCCOc2cc(C)c([O-])c([N-]S(=O)(=O)c3ccc4c(c3)CCC(=O)[N-]4)c2)c1

>  <Energy>  (56) 
72.88006705935761

>  <Genealogy>  (56) 
Cc1ccc(C)c(OCC(=O)NCCOc2cc(C)c([O-])c([N-]S(=O)(=O)c3ccc4c(c3)CCC(=O)[N-]4)c2)c1 (protonated)
Cc1ccc(C)c(OCC(=O)NCCOc2cc(C)c([O-])c([N-]S(=O)(=O)c3ccc4c(c3)CCC(=O)[N-]4)c2)c1 (3D coordinates assigned)
Cc1ccc(C)c(OCC(=O)NCCOc2cc(C)c([O-])c([N-]S(=O)(=O)c3ccc4c(c3)CCC(=O)[N-]4)c2)c1 (nonaromatic ring conformer: 72.88006705935761 kcal/mol)

>  <smiles>  (56) 
Cc1ccc(C)c(OCC(=O)NCCOc2cc(C)c(O)c(NS(=O)(=O)c3ccc4c(c3)CCC(=O)N4)c2)c1

>  <score_type>  (56) 
oracle

>  <origin>  (56) 
adg

>  <m_score__min__energy>  (56) 
-16.739999999999998

>  <m_primary>  (56) 
energy

$$$$
56:0
     RDKit          3D

 42 44  0  0  0  0  0  0  0  0999 V2000
   55.2840   26.2820   46.1850 N   0  0  0  0  0  0  0  0  0  0  0  0
   56.7040   26.1440   46.0590 C   0  0  0  0  0  0  0  0  0  0  0  0
   57.2660   25.0060   46.3360 N   0  0  0  0  0  0  0  0  0  0  0  0
   57.5200   27.2920   45.5940 C   0  0  0  0  0  0  0  0  0  0  0  0
   58.9200   27.1860   45.5640 C   0  0  0  0  0  0  0  0  0  0  0  0
   59.7020   28.2550   45.1240 C   0  0  0  0  0  0  0  0  0  0  0  0
   59.0970   29.4390   44.7030 C   0  0  0  0  0  0  0  0  0  0  0  0
   57.7010   29.5650   44.7170 C   0  0  0  0  0  0  0  0  0  0  0  0
   56.9540   31.0730   44.1830 S   0  0  0  0  0  0  0  0  0  0  0  0
   57.6960   31.6460   43.0080 O   0  0  0  0  0  0  0  0  0  0  0  0
   55.5340   30.7960   43.7800 O   0  0  0  0  0  0  0  0  0  0  0  0
   56.9540   32.2410   45.4650 N   0  0  0  0  0  0  0  0  0  0  0  0
   57.9720   33.2260   45.7000 C   0  0  0  0  0  0  0  0  0  0  0  0
   58.3260   34.1660   44.7120 C   0  0  0  0  0  0  0  0  0  0  0  0
   59.3130   35.1200   44.9640 C   0  0  0  0  0  0  0  0  0  0  0  0
   59.9550   35.1540   46.2020 C   0  0  0  0  0  0  0  0  0  0  0  0
   59.6170   34.2290   47.1910 C   0  0  0  0  0  0  0  0  0  0  0  0
   58.6370   33.2510   46.9470 C   0  0  0  0  0  0  0  0  0  0  0  0
   58.2660   32.2890   48.0470 C   0  0  0  0  0  0  0  0  0  0  0  0
   59.1980   31.1630   48.0640 N   0  0  0  0  0  0  0  0  0  0  0  0
   59.0110   29.9720   48.6520 C   0  0  0  0  0  0  0  0  0  0  0  0
   60.1050   29.1860   48.3690 C   0  0  0  0  0  0  0  0  0  0  0  0
   60.9720   29.8770   47.5990 N   0  0  0  0  0  0  0  0  0  0  0  0
   60.3830   31.0790   47.4300 C   0  0  0  0  0  0  0  0  0  0  0  0
   56.9100   28.4950   45.1780 C   0  0  0  0  0  0  0  0  0  0  0  0
   55.5280   28.6390   45.2510 O   0  0  0  0  0  0  0  0  0  0  0  0
   54.7990   27.1490   45.8640 H   0  0  0  0  0  0  0  0  0  0  0  0
   54.7010   25.4970   46.5520 H   0  0  0  0  0  0  0  0  0  0  0  0
   57.7120   24.4330   45.5850 H   0  0  0  0  0  0  0  0  0  0  0  0
   57.2710   24.6230   47.3080 H   0  0  0  0  0  0  0  0  0  0  0  0
   59.4039   26.2534   45.8897 H   0  0  0  0  0  0  0  0  0  0  0  0
   60.7981   28.1635   45.1092 H   0  0  0  0  0  0  0  0  0  0  0  0
   59.7186   30.2784   44.3581 H   0  0  0  0  0  0  0  0  0  0  0  0
   57.8208   34.1478   43.7350 H   0  0  0  0  0  0  0  0  0  0  0  0
   59.5853   35.8468   44.1845 H   0  0  0  0  0  0  0  0  0  0  0  0
   60.7286   35.9108   46.3990 H   0  0  0  0  0  0  0  0  0  0  0  0
   60.1209   34.2655   48.1681 H   0  0  0  0  0  0  0  0  0  0  0  0
   58.3067   32.8098   49.0150 H   0  0  0  0  0  0  0  0  0  0  0  0
   57.2483   31.9118   47.8679 H   0  0  0  0  0  0  0  0  0  0  0  0
   58.1387   29.6761   49.2533 H   0  0  0  0  0  0  0  0  0  0  0  0
   60.2505   28.1527   48.7171 H   0  0  0  0  0  0  0  0  0  0  0  0
   60.8213   31.8980   46.8408 H   0  0  0  0  0  0  0  0  0  0  0  0
  1  2  1  0
  2  3  2  0
  2  4  1  0
  4  5  2  0
  5  6  1  0
  6  7  2  0
  7  8  1  0
  8  9  1  0
  9 10  2  0
  9 11  2  0
  9 12  1  0
 12 13  1  0
 13 14  2  0
 14 15  1  0
 15 16  2  0
 16 17  1  0
 17 18  2  0
 18 19  1  0
 19 20  1  0
 20 21  1  0
 21 22  2  0
 22 23  1  0
 23 24  2  0
  8 25  2  0
 25 26  1  0
 25  4  1  0
 18 13  1  0
 24 20  1  0
  1 27  1  0
  1 28  1  0
  3 29  1  0
  3 30  1  0
  5 31  1  0
  6 32  1  0
  7 33  1  0
 14 34  1  0
 15 35  1  0
 16 36  1  0
 17 37  1  0
 19 38  1  0
 19 39  1  0
 21 40  1  0
 22 41  1  0
 24 42  1  0
M  CHG  3   3   1  12  -1  26  -1
M  END
>  <UniqueID>  (57) 
57

>  <SMILES>  (57) 
NC(=[NH2+])c1cccc(S(=O)(=O)[N-]c2ccccc2Cn2ccnc2)c1[O-]

>  <Energy>  (57) 
80.01208029319746

>  <Genealogy>  (57) 
NC(=[NH2+])c1cccc(S(=O)(=O)[N-]c2ccccc2Cn2ccnc2)c1[O-] (protonated)
NC(=[NH2+])c1cccc(S(=O)(=O)[N-]c2ccccc2Cn2ccnc2)c1[O-] (3D coordinates assigned)
NC(=[NH2+])c1cccc(S(=O)(=O)[N-]c2ccccc2Cn2ccnc2)c1[O-] (optimized conformer: 80.01208029319746 kcal/mol)

>  <smiles>  (57) 
N=C(N)c1cccc(S(=O)(=O)Nc2ccccc2Cn2ccnc2)c1O

>  <score_type>  (57) 
oracle

>  <origin>  (57) 
adg

>  <m_score__min__energy>  (57) 
-11.359999999999999

>  <m_primary>  (57) 
energy

$$$$
57:0
     RDKit          3D

 48 51  0  0  1  0  0  0  0  0999 V2000
   63.6880   33.8470   49.1380 C   0  0  0  0  0  0  0  0  0  0  0  0
   62.5140   33.1150   48.7940 N   0  0  0  0  0  0  0  0  0  0  0  0
   62.6140   32.4280   47.5280 C   0  0  0  0  0  0  0  0  0  0  0  0
   61.3480   31.7520   47.1220 C   0  0  0  0  0  0  0  0  0  0  0  0
   60.7660   30.9680   48.1750 N   0  0  0  0  0  0  0  0  0  0  0  0
   60.1870   29.6920   48.0020 C   0  0  0  0  0  0  0  0  0  0  0  0
   60.5710   28.5670   48.6990 C   0  0  0  0  0  0  0  0  0  0  0  0
   59.9650   27.3310   48.4900 C   0  0  0  0  0  0  0  0  0  0  0  0
   60.3560   26.3340   49.1560 O   0  0  0  0  0  0  0  0  0  0  0  0
   58.9710   27.1980   47.5880 N   0  0  0  0  0  0  0  0  0  0  0  0
   58.6070   28.3060   46.9160 C   0  0  0  0  0  0  0  0  0  0  0  0
   57.5580   28.2090   45.9510 N   0  0  0  0  0  0  0  0  0  0  0  0
   57.1620   29.3270   45.4060 C   0  0  0  0  0  0  0  0  0  0  0  0
   57.9540   30.3910   45.1580 N   0  0  0  0  0  0  0  0  0  0  0  0
   57.1860   31.3490   44.5920 C   0  0  0  0  0  0  0  0  0  0  0  0
   57.5810   32.7070   44.1330 C   0  0  0  0  0  0  0  0  0  0  0  0
   58.2130   33.4670   45.2170 C   0  0  0  0  0  0  0  0  0  0  0  0
   58.0500   33.1610   46.5670 C   0  0  0  0  0  0  0  0  0  0  0  0
   58.6740   33.9190   47.5320 C   0  0  0  0  0  0  0  0  0  0  0  0
   59.4590   34.9810   47.1530 C   0  0  0  0  0  0  0  0  0  0  0  0
   59.6480   35.3190   45.8230 C   0  0  0  0  0  0  0  0  0  0  0  0
   59.0150   34.5500   44.8590 C   0  0  0  0  0  0  0  0  0  0  0  0
   55.9310   30.8340   44.5100 N   0  0  0  0  0  0  0  0  0  0  0  0
   55.9310   29.6180   45.0020 O   0  0  0  0  0  0  0  0  0  0  0  0
   59.1810   29.5080   47.1030 N   0  0  0  0  0  0  0  0  0  0  0  0
   60.7760   31.5460   49.5160 C   0  0  0  0  0  0  0  0  0  0  0  0
   62.0440   32.2530   49.8540 C   0  0  0  0  0  0  0  0  0  0  0  0
   63.7776   33.9029   50.2329 H   0  0  0  0  0  0  0  0  0  0  0  0
   64.5713   33.3393   48.7233 H   0  0  0  0  0  0  0  0  0  0  0  0
   63.6209   34.8636   48.7233 H   0  0  0  0  0  0  0  0  0  0  0  0
   62.8823   33.1612   46.7531 H   0  0  0  0  0  0  0  0  0  0  0  0
   63.3791   31.6459   47.6413 H   0  0  0  0  0  0  0  0  0  0  0  0
   60.6231   32.5207   46.8161 H   0  0  0  0  0  0  0  0  0  0  0  0
   61.5921   31.0654   46.2980 H   0  0  0  0  0  0  0  0  0  0  0  0
   61.3788   28.6477   49.4412 H   0  0  0  0  0  0  0  0  0  0  0  0
   58.5270   26.2620   47.4440 H   0  0  0  0  0  0  0  0  0  0  0  0
   58.9740   30.5210   45.3410 H   0  0  0  0  0  0  0  0  0  0  0  0
   58.2918   32.6118   43.2989 H   0  0  0  0  0  0  0  0  0  0  0  0
   56.6767   33.2439   43.8105 H   0  0  0  0  0  0  0  0  0  0  0  0
   57.4196   32.3095   46.8629 H   0  0  0  0  0  0  0  0  0  0  0  0
   58.5452   33.6765   48.5972 H   0  0  0  0  0  0  0  0  0  0  0  0
   59.9532   35.5820   47.9305 H   0  0  0  0  0  0  0  0  0  0  0  0
   60.2817   36.1725   45.5402 H   0  0  0  0  0  0  0  0  0  0  0  0
   59.1474   34.7979   43.7955 H   0  0  0  0  0  0  0  0  0  0  0  0
   59.9469   32.2651   49.5905 H   0  0  0  0  0  0  0  0  0  0  0  0
   60.6734   30.7124   50.2263 H   0  0  0  0  0  0  0  0  0  0  0  0
   61.8748   32.8642   50.7528 H   0  0  0  0  0  0  0  0  0  0  0  0
   62.8140   31.4844   50.0165 H   0  0  0  0  0  0  0  0  0  0  0  0
  1  2  1  0
  2  3  1  0
  3  4  1  0
  4  5  1  0
  5  6  1  0
  6  7  2  0
  7  8  1  0
  8  9  2  0
  8 10  1  0
 10 11  1  0
 11 12  1  0
 12 13  2  0
 13 14  1  0
 14 15  1  0
 15 16  1  0
 16 17  1  0
 17 18  2  0
 18 19  1  0
 19 20  2  0
 20 21  1  0
 21 22  2  0
 15 23  2  0
 23 24  1  0
 11 25  2  0
  5 26  1  0
 26 27  1  0
 27  2  1  0
 25  6  1  0
 24 13  1  0
 22 17  1  0
  1 28  1  0
  1 29  1  0
  1 30  1  0
  3 31  1  0
  3 32  1  0
  4 33  1  0
  4 34  1  0
  7 35  1  0
 10 36  1  0
 14 37  1  0
 16 38  1  0
 16 39  1  0
 18 40  1  0
 19 41  1  0
 20 42  1  0
 21 43  1  0
 22 44  1  0
 26 45  1  0
 26 46  1  0
 27 47  1  0
 27 48  1  0
M  END
>  <smiles>  (58) 
CN1CCN(c2cc(=O)[nH]c(N=c3[nH]c(Cc4ccccc4)no3)n2)CC1

>  <score_type>  (58) 
oracle

>  <origin>  (58) 
adg

>  <m_score__min__energy>  (58) 
-8.9800000000000004

>  <m_primary>  (58) 
energy

$$$$
58:0
     RDKit          3D

 45 47  0  0  0  0  0  0  0  0999 V2000
   60.0557   27.3724   48.9254 H   0  0  0  0  0  0  0  0  0  0  0  0
   60.0450   28.4330   48.6340 C   0  0  0  0  0  0  0  0  0  0  0  0
   60.9340   29.3350   49.2470 C   0  0  0  0  0  0  0  0  0  0  0  0
   61.8420   28.9280   50.2390 O   0  0  0  0  0  0  0  0  0  0  0  0
   61.6930   29.1950   51.6290 C   0  0  0  0  0  0  0  0  0  0  0  0
   62.1482   28.3793   52.2099 H   0  0  0  0  0  0  0  0  0  0  0  0
   62.1921   30.1437   51.8757 H   0  0  0  0  0  0  0  0  0  0  0  0
   60.6235   29.2684   51.8757 H   0  0  0  0  0  0  0  0  0  0  0  0
   60.9230   30.6870   48.8710 C   0  0  0  0  0  0  0  0  0  0  0  0
   61.8260   31.5600   49.5010 O   0  0  0  0  0  0  0  0  0  0  0  0
   62.9140   32.2060   48.8480 C   0  0  0  0  0  0  0  0  0  0  0  0
   63.6031   32.6152   49.6015 H   0  0  0  0  0  0  0  0  0  0  0  0
   63.4482   31.4787   48.2190 H   0  0  0  0  0  0  0  0  0  0  0  0
   62.5312   33.0232   48.2190 H   0  0  0  0  0  0  0  0  0  0  0  0
   60.0190   31.1320   47.8850 C   0  0  0  0  0  0  0  0  0  0  0  0
   60.0091   32.1921   47.5914 H   0  0  0  0  0  0  0  0  0  0  0  0
   59.1310   30.2310   47.2750 C   0  0  0  0  0  0  0  0  0  0  0  0
   58.2070   30.6220   46.2860 C   0  0  0  0  0  0  0  0  0  0  0  0
   58.1190   31.9780   45.8280 N   0  0  0  0  0  0  0  0  0  0  0  0
   58.0840   32.2540   44.3910 C   0  0  0  0  0  0  0  0  0  0  0  0
   58.6706   31.4916   43.8576 H   0  0  0  0  0  0  0  0  0  0  0  0
   57.0418   32.2296   44.0400 H   0  0  0  0  0  0  0  0  0  0  0  0
   58.6800   33.6390   44.1180 C   0  0  0  0  0  0  0  0  0  0  0  0
   59.7610   33.6125   44.3197 H   0  0  0  0  0  0  0  0  0  0  0  0
   58.4929   33.9022   43.0665 H   0  0  0  0  0  0  0  0  0  0  0  0
   58.0780   34.6170   44.9440 O   0  0  0  0  0  0  0  0  0  0  0  0
   58.4040   34.3640   46.2990 C   0  0  0  0  0  0  0  0  0  0  0  0
   59.4976   34.3055   46.4019 H   0  0  0  0  0  0  0  0  0  0  0  0
   58.0043   35.1821   46.9163 H   0  0  0  0  0  0  0  0  0  0  0  0
   57.7840   33.0450   46.7710 C   0  0  0  0  0  0  0  0  0  0  0  0
   58.1783   32.7909   47.7660 H   0  0  0  0  0  0  0  0  0  0  0  0
   56.6908   33.1545   46.8241 H   0  0  0  0  0  0  0  0  0  0  0  0
   57.3700   29.6950   45.7470 N   0  0  0  0  0  0  0  0  0  0  0  0
   57.3940   28.3970   46.1400 C   0  0  0  0  0  0  0  0  0  0  0  0
   56.5820   27.5490   45.5800 N   0  0  0  0  0  0  0  0  0  0  0  0
   56.0990   26.3250   46.1530 C   0  0  0  0  0  0  0  0  0  0  0  0
   54.8870   26.0170   45.9930 O   0  0  0  0  0  0  0  0  0  0  0  0
   56.9460   25.4940   46.9610 N   0  0  0  0  0  0  0  0  0  0  0  0
   57.8610   25.8610   47.3060 H   0  0  0  0  0  0  0  0  0  0  0  0
   56.5320   24.1610   47.3820 C   0  0  0  0  0  0  0  0  0  0  0  0
   56.5167   24.1118   48.4808 H   0  0  0  0  0  0  0  0  0  0  0  0
   55.5257   23.9491   46.9914 H   0  0  0  0  0  0  0  0  0  0  0  0
   57.2412   23.4164   46.9914 H   0  0  0  0  0  0  0  0  0  0  0  0
   58.2890   27.9970   47.0830 N   0  0  0  0  0  0  0  0  0  0  0  0
   59.1490   28.8750   47.6580 C   0  0  0  0  0  0  0  0  0  0  0  0
  1  2  1  0
  2  3  2  0
  3  4  1  0
  4  5  1  0
  5  6  1  0
  5  7  1  0
  5  8  1  0
  3  9  1  0
  9 10  1  0
 10 11  1  0
 11 12  1  0
 11 13  1  0
 11 14  1  0
  9 15  2  0
 15 16  1  0
 15 17  1  0
 17 18  1  0
 18 19  1  0
 19 20  1  0
 20 21  1  0
 20 22  1  0
 20 23  1  0
 23 24  1  0
 23 25  1  0
 23 26  1  0
 26 27  1  0
 27 28  1  0
 27 29  1  0
 27 30  1  0
 30 31  1  0
 30 32  1  0
 18 33  2  0
 33 34  1  0
 34 35  2  0
 35 36  1  0
 36 37  2  0
 36 38  1  0
 38 39  1  0
 38 40  1  0
 40 41  1  0
 40 42  1  0
 40 43  1  0
 34 44  1  0
 44 45  1  0
 45  2  1  0
 45 17  2  0
 30 19  1  0
M  CHG  1  44  -1
M  END
>  <UniqueID>  (59) 
58

>  <SMILES>  (59) 
CNC(=O)/N=c1/nc(N2CCOCC2)c2cc(OC)c(OC)cc2[n-]1

>  <Energy>  (59) 
57.63760613746861

>  <Genealogy>  (59) 
CNC(=O)N=c1nc(N2CCOCC2)c2cc(OC)c(OC)cc2[n-]1 (protonated)
CNC(=O)/N=c1/nc(N2CCOCC2)c2cc(OC)c(OC)cc2[n-]1 (cis-trans isomerization)
CNC(=O)/N=c1/nc(N2CCOCC2)c2cc(OC)c(OC)cc2[n-]1 (3D coordinates assigned)
CNC(=O)/N=c1/nc(N2CCOCC2)c2cc(OC)c(OC)cc2[n-]1 (nonaromatic ring conformer: 57.63760613746861 kcal/mol)

>  <smiles>  (59) 
CNC(=O)N=c1nc(N2CCOCC2)c2cc(OC)c(OC)cc2[nH]1

>  <score_type>  (59) 
oracle

>  <origin>  (59) 
adg

>  <m_score__min__energy>  (59) 
-7.1200000000000001

>  <m_primary>  (59) 
energy

$$$$
59:0
     RDKit          3D

 36 38  0  0  0  0  0  0  0  0999 V2000
   60.4120   31.7210   48.3910 C   0  0  0  0  0  0  0  0  0  0  0  0
   59.5640   32.2780   47.2800 C   0  0  0  0  0  0  0  0  0  0  0  0
   59.2110   31.4810   46.1870 C   0  0  0  0  0  0  0  0  0  0  0  0
   58.4520   31.9810   45.1610 N   0  0  0  0  0  0  0  0  0  0  0  0
   58.0690   31.1010   44.0260 C   0  0  2  0  0  0  0  0  0  0  0  0
   56.5640   30.8080   43.8920 C   0  0  0  0  0  0  0  0  0  0  0  0
   56.8330   29.3160   44.0480 C   0  0  2  0  0  0  0  0  0  0  0  0
   56.2080   28.7530   45.2470 N   0  0  0  0  0  0  0  0  0  0  0  0
   56.9290   27.2210   45.6310 S   0  0  0  0  0  0  0  0  0  0  0  0
   55.9130   26.3500   46.3130 O   0  0  0  0  0  0  0  0  0  0  0  0
   57.3840   26.5350   44.3720 O   0  0  0  0  0  0  0  0  0  0  0  0
   58.2970   27.4510   46.7050 C   0  0  0  0  0  0  0  0  0  0  0  0
   59.3890   26.6060   46.8270 C   0  0  0  0  0  0  0  0  0  0  0  0
   60.3370   27.0700   47.7460 C   0  0  0  0  0  0  0  0  0  0  0  0
   59.9930   28.2790   48.3400 C   0  0  0  0  0  0  0  0  0  0  0  0
   58.5060   28.7710   47.7210 S   0  0  0  0  0  0  0  0  0  0  0  0
   58.3110   29.6040   44.2730 C   0  0  0  0  0  0  0  0  0  0  0  0
   57.8920   33.2300   45.3010 C   0  0  0  0  0  0  0  0  0  0  0  0
   57.0530   33.6580   44.4620 O   0  0  0  0  0  0  0  0  0  0  0  0
   58.2170   34.0160   46.3640 N   0  0  0  0  0  0  0  0  0  0  0  0
   59.0430   33.5740   47.3450 C   0  0  0  0  0  0  0  0  0  0  0  0
   59.3180   34.3270   48.3180 O   0  0  0  0  0  0  0  0  0  0  0  0
   59.9786   32.0057   49.3611 H   0  0  0  0  0  0  0  0  0  0  0  0
   60.4456   30.6244   48.3121 H   0  0  0  0  0  0  0  0  0  0  0  0
   61.4318   32.1257   48.3121 H   0  0  0  0  0  0  0  0  0  0  0  0
   59.5482   30.4346   46.1497 H   0  0  0  0  0  0  0  0  0  0  0  0
   58.6026   31.6440   43.2320 H   0  0  0  0  0  0  0  0  0  0  0  0
   56.1384   31.0869   42.9168 H   0  0  0  0  0  0  0  0  0  0  0  0
   55.8405   31.3124   44.5493 H   0  0  0  0  0  0  0  0  0  0  0  0
   56.5024   28.6111   43.2709 H   0  0  0  0  0  0  0  0  0  0  0  0
   59.4989   25.6692   46.2610 H   0  0  0  0  0  0  0  0  0  0  0  0
   61.2667   26.5291   47.9766 H   0  0  0  0  0  0  0  0  0  0  0  0
   60.5904   28.8219   49.0872 H   0  0  0  0  0  0  0  0  0  0  0  0
   58.9763   29.1308   43.5358 H   0  0  0  0  0  0  0  0  0  0  0  0
   58.8051   29.2689   45.1969 H   0  0  0  0  0  0  0  0  0  0  0  0
   57.8010   34.9730   46.4380 H   0  0  0  0  0  0  0  0  0  0  0  0
  1  2  1  0
  2  3  2  0
  3  4  1  0
  4  5  1  0
  5  6  1  0
  6  7  1  0
  7  8  1  0
  8  9  1  0
  9 10  2  0
  9 11  2  0
  9 12  1  0
 12 13  2  0
 13 14  1  0
 14 15  2  0
 15 16  1  0
  7 17  1  0
  4 18  1  0
 18 19  2  0
 18 20  1  0
 20 21  1  0
 21 22  2  0
 21  2  1  0
 17  5  1  0
 16 12  1  0
  1 23  1  0
  1 24  1  0
  1 25  1  0
  3 26  1  0
  5 27  1  6
  6 28  1  0
  6 29  1  0
  7 30  1  6
 13 31  1  0
 14 32  1  0
 15 33  1  0
 17 34  1  0
 17 35  1  0
 20 36  1  0
M  CHG  1   8  -1
M  END
>  <UniqueID>  (60) 
59

>  <SMILES>  (60) 
Cc1cn(C2CC([N-]S(=O)(=O)c3cccs3)C2)c(=O)[nH]c1=O

>  <Energy>  (60) 
131.0384439109844

>  <Genealogy>  (60) 
Cc1cn(C2CC([N-]S(=O)(=O)c3cccs3)C2)c(=O)[nH]c1=O (protonated)
Cc1cn(C2CC([N-]S(=O)(=O)c3cccs3)C2)c(=O)[nH]c1=O (3D coordinates assigned)
Cc1cn(C2CC([N-]S(=O)(=O)c3cccs3)C2)c(=O)[nH]c1=O (nonaromatic ring conformer: 131.0384439109844 kcal/mol)

>  <smiles>  (60) 
Cc1cn(C2CC(NS(=O)(=O)c3cccs3)C2)c(=O)[nH]c1=O

>  <score_type>  (60) 
oracle

>  <origin>  (60) 
adg

>  <m_score__min__energy>  (60) 
-9.3900000000000006

>  <m_primary>  (60) 
energy

$$$$
60:0
     RDKit          3D

 69 73  0  0  0  0  0  0  0  0999 V2000
   60.3890   30.4520   51.8480 C   0  0  0  0  0  0  0  0  0  0  0  0
   59.5070   31.6070   51.6790 N   0  0  0  0  0  0  0  0  0  0  0  0
   59.5930   32.7410   52.5620 C   0  0  0  0  0  0  0  0  0  0  0  0
   58.7220   33.8330   52.4080 C   0  0  0  0  0  0  0  0  0  0  0  0
   58.7990   34.9260   53.2770 C   0  0  0  0  0  0  0  0  0  0  0  0
   59.7490   34.9470   54.2980 C   0  0  0  0  0  0  0  0  0  0  0  0
   60.6270   33.8730   54.4520 C   0  0  0  0  0  0  0  0  0  0  0  0
   60.5500   32.7740   53.5910 C   0  0  0  0  0  0  0  0  0  0  0  0
   58.3100   31.5670   50.4150 S   0  0  0  0  0  0  0  0  0  0  0  0
   58.1700   30.1650   49.8870 O   0  0  0  0  0  0  0  0  0  0  0  0
   56.9810   31.9910   50.9770 O   0  0  0  0  0  0  0  0  0  0  0  0
   58.7880   32.6300   49.0950 C   0  0  0  0  0  0  0  0  0  0  0  0
   59.8690   33.5130   49.2310 C   0  0  0  0  0  0  0  0  0  0  0  0
   60.2750   34.2970   48.1470 C   0  0  0  0  0  0  0  0  0  0  0  0
   59.6140   34.1920   46.9190 C   0  0  0  0  0  0  0  0  0  0  0  0
   58.5330   33.3080   46.7700 C   0  0  0  0  0  0  0  0  0  0  0  0
   57.8540   33.1620   45.4620 C   0  0  0  0  0  0  0  0  0  0  0  0
   58.1270   33.9650   44.5310 O   0  0  0  0  0  0  0  0  0  0  0  0
   56.8390   32.1730   45.2470 N   0  0  0  0  0  0  0  0  0  0  0  0
   57.0710   30.8380   44.7820 C   0  0  0  0  0  0  0  0  0  0  0  0
   56.7510   30.5090   43.4620 C   0  0  0  0  0  0  0  0  0  0  0  0
   56.9810   29.2170   42.9800 C   0  0  0  0  0  0  0  0  0  0  0  0
   57.5660   28.2430   43.8020 C   0  0  0  0  0  0  0  0  0  0  0  0
   57.7770   26.9230   43.2820 N   0  0  0  0  0  0  0  0  0  0  0  0
   57.9390   28.5840   45.1180 C   0  0  0  0  0  0  0  0  0  0  0  0
   58.8210   27.4290   46.1800 S   0  0  0  0  0  0  0  0  0  0  0  0
   59.8710   28.7180   46.8500 C   0  0  0  0  0  0  0  0  0  0  0  0
   60.5250   29.6030   45.9850 C   0  0  0  0  0  0  0  0  0  0  0  0
   61.3950   30.5710   46.4960 C   0  0  0  0  0  0  0  0  0  0  0  0
   61.6090   30.6730   47.8840 C   0  0  0  0  0  0  0  0  0  0  0  0
   62.5470   31.6320   48.4090 N   0  0  0  0  0  0  0  0  0  0  0  0
   63.2620   32.5360   47.4900 C   0  0  0  0  0  0  0  0  0  0  0  0
   63.7820   33.8170   48.1840 C   0  0  0  0  0  0  0  0  0  0  0  0
   63.3270   33.9580   49.5150 O   0  0  0  0  0  0  0  0  0  0  0  0
   63.6880   32.8180   50.2520 C   0  0  0  0  0  0  0  0  0  0  0  0
   62.7890   31.6540   49.8580 C   0  0  0  0  0  0  0  0  0  0  0  0
   60.9280   29.7940   48.7480 C   0  0  0  0  0  0  0  0  0  0  0  0
   60.0640   28.8240   48.2320 C   0  0  0  0  0  0  0  0  0  0  0  0
   57.6710   29.8690   45.6040 C   0  0  0  0  0  0  0  0  0  0  0  0
   58.1100   32.5530   47.8760 C   0  0  0  0  0  0  0  0  0  0  0  0
   60.5373   30.2577   52.9205 H   0  0  0  0  0  0  0  0  0  0  0  0
   59.9326   29.5698   51.3753 H   0  0  0  0  0  0  0  0  0  0  0  0
   61.3602   30.6600   51.3753 H   0  0  0  0  0  0  0  0  0  0  0  0
   57.9758   33.8280   51.5998 H   0  0  0  0  0  0  0  0  0  0  0  0
   58.1075   35.7727   53.1548 H   0  0  0  0  0  0  0  0  0  0  0  0
   59.8061   35.8080   54.9802 H   0  0  0  0  0  0  0  0  0  0  0  0
   61.3812   33.8912   55.2525 H   0  0  0  0  0  0  0  0  0  0  0  0
   61.2430   31.9295   53.7198 H   0  0  0  0  0  0  0  0  0  0  0  0
   60.3984   33.5889   50.1922 H   0  0  0  0  0  0  0  0  0  0  0  0
   61.1156   34.9975   48.2601 H   0  0  0  0  0  0  0  0  0  0  0  0
   59.9422   34.8044   46.0662 H   0  0  0  0  0  0  0  0  0  0  0  0
   56.3157   31.2708   42.7986 H   0  0  0  0  0  0  0  0  0  0  0  0
   56.7007   28.9623   41.9473 H   0  0  0  0  0  0  0  0  0  0  0  0
   57.0280   26.4110   42.7640 H   0  0  0  0  0  0  0  0  0  0  0  0
   58.7070   26.4530   43.3810 H   0  0  0  0  0  0  0  0  0  0  0  0
   60.3541   29.5368   44.9004 H   0  0  0  0  0  0  0  0  0  0  0  0
   61.9148   31.2563   45.8103 H   0  0  0  0  0  0  0  0  0  0  0  0
   64.1200   31.9955   47.0638 H   0  0  0  0  0  0  0  0  0  0  0  0
   62.5473   32.8492   46.7147 H   0  0  0  0  0  0  0  0  0  0  0  0
   64.8816   33.7872   48.1926 H   0  0  0  0  0  0  0  0  0  0  0  0
   63.3941   34.6750   47.6153 H   0  0  0  0  0  0  0  0  0  0  0  0
   64.7360   32.5604   50.0392 H   0  0  0  0  0  0  0  0  0  0  0  0
   63.5722   33.0238   51.3264 H   0  0  0  0  0  0  0  0  0  0  0  0
   63.2726   30.7116   50.1547 H   0  0  0  0  0  0  0  0  0  0  0  0
   61.8224   31.7738   50.3693 H   0  0  0  0  0  0  0  0  0  0  0  0
   61.0768   29.8712   49.8352 H   0  0  0  0  0  0  0  0  0  0  0  0
   59.5345   28.1423   48.9138 H   0  0  0  0  0  0  0  0  0  0  0  0
   57.9332   30.1233   46.6416 H   0  0  0  0  0  0  0  0  0  0  0  0
   57.2348   31.8934   47.7814 H   0  0  0  0  0  0  0  0  0  0  0  0
  1  2  1  0
  2  3  1  0
  3  4  2  0
  4  5  1  0
  5  6  2  0
  6  7  1  0
  7  8  2  0
  2  9  1  0
  9 10  2  0
  9 11  2  0
  9 12  1  0
 12 13  2  0
 13 14  1  0
 14 15  2  0
 15 16  1  0
 16 17  1  0
 17 18  2  0
 17 19  1  0
 19 20  1  0
 20 21  2  0
 21 22  1  0
 22 23  2  0
 23 24  1  0
 23 25  1  0
 25 26  1  0
 26 27  1  0
 27 28  2  0
 28 29  1  0
 29 30  2  0
 30 31  1  0
 31 32  1  0
 32 33  1  0
 33 34  1  0
 34 35  1  0
 35 36  1  0
 30 37  1  0
 37 38  2  0
 25 39  2  0
 16 40  2  0
  8  3  1  0
 40 12  1  0
 39 20  1  0
 38 27  1  0
 36 31  1  0
  1 41  1  0
  1 42  1  0
  1 43  1  0
  4 44  1  0
  5 45  1  0
  6 46  1  0
  7 47  1  0
  8 48  1  0
 13 49  1  0
 14 50  1  0
 15 51  1  0
 21 52  1  0
 22 53  1  0
 24 54  1  0
 24 55  1  0
 28 56  1  0
 29 57  1  0
 32 58  1  0
 32 59  1  0
 33 60  1  0
 33 61  1  0
 35 62  1  0
 35 63  1  0
 36 64  1  0
 36 65  1  0
 37 66  1  0
 38 67  1  0
 39 68  1  0
 40 69  1  0
M  CHG  1  19  -1
M  END
>  <UniqueID>  (61) 
60

>  <SMILES>  (61) 
CN(c1ccccc1)S(=O)(=O)c1cccc(C(=O)[N-]c2ccc(N)c(Sc3ccc(N4CCOCC4)cc3)c2)c1

>  <Energy>  (61) 
87.58015983659898

>  <Genealogy>  (61) 
CN(c1ccccc1)S(=O)(=O)c1cccc(C(=O)[N-]c2ccc(N)c(Sc3ccc(N4CCOCC4)cc3)c2)c1 (protonated)
CN(c1ccccc1)S(=O)(=O)c1cccc(C(=O)[N-]c2ccc(N)c(Sc3ccc(N4CCOCC4)cc3)c2)c1 (3D coordinates assigned)
CN(c1ccccc1)S(=O)(=O)c1cccc(C(=O)[N-]c2ccc(N)c(Sc3ccc(N4CCOCC4)cc3)c2)c1 (nonaromatic ring conformer: 87.58015983659898 kcal/mol)

>  <smiles>  (61) 
CN(c1ccccc1)S(=O)(=O)c1cccc(C(=O)Nc2ccc(N)c(Sc3ccc(N4CCOCC4)cc3)c2)c1

>  <score_type>  (61) 
oracle

>  <origin>  (61) 
adg

>  <m_score__min__energy>  (61) 
-11.49

>  <m_primary>  (61) 
energy

$$$$
61:0
     RDKit          3D

 56 59  0  0  0  0  0  0  0  0999 V2000
   58.9160   29.1780   48.5680 C   0  0  0  0  0  0  0  0  0  0  0  0
   58.9310   29.9660   49.7860 N   0  0  0  0  0  0  0  0  0  0  0  0
   58.8180   29.5020   51.0240 N   0  0  0  0  0  0  0  0  0  0  0  0
   58.8780   30.5480   51.8890 C   0  0  0  0  0  0  0  0  0  0  0  0
   59.0340   31.6990   51.1680 C   0  0  0  0  0  0  0  0  0  0  0  0
   59.1580   33.0480   51.4260 C   0  0  0  0  0  0  0  0  0  0  0  0
   59.1310   33.4030   52.6330 O   0  0  0  0  0  0  0  0  0  0  0  0
   59.2990   33.8990   50.4130 N   0  0  0  0  0  0  0  0  0  0  0  0
   59.3310   33.5360   49.1130 C   0  0  0  0  0  0  0  0  0  0  0  0
   59.5070   34.6050   48.1140 C   0  0  0  0  0  0  0  0  0  0  0  0
   59.9900   34.1460   46.8310 N   0  0  0  0  0  0  0  0  0  0  0  0
   59.2970   34.6680   45.6600 C   0  0  0  0  0  0  0  0  0  0  0  0
   58.1530   33.8180   45.2320 C   0  0  0  0  0  0  0  0  0  0  0  0
   58.3200   33.1130   43.9250 C   0  0  0  0  0  0  0  0  0  0  0  0
   57.7880   31.7180   44.1370 C   0  0  0  0  0  0  0  0  0  0  0  0
   57.0060   31.0890   43.1910 C   0  0  0  0  0  0  0  0  0  0  0  0
   56.5640   29.8130   43.4700 C   0  0  0  0  0  0  0  0  0  0  0  0
   56.8690   29.1490   44.6420 C   0  0  0  0  0  0  0  0  0  0  0  0
   57.6460   29.7740   45.5840 C   0  0  0  0  0  0  0  0  0  0  0  0
   58.0880   31.0500   45.3050 C   0  0  0  0  0  0  0  0  0  0  0  0
   61.0660   33.2490   46.6350 C   0  0  0  0  0  0  0  0  0  0  0  0
   60.8160   32.0120   46.3980 O   0  0  0  0  0  0  0  0  0  0  0  0
   62.4920   33.6090   46.6760 C   0  0  0  0  0  0  0  0  0  0  0  0
   62.9920   33.3680   48.0830 C   0  0  0  0  0  0  0  0  0  0  0  0
   63.7680   32.2280   48.2970 C   0  0  0  0  0  0  0  0  0  0  0  0
   64.2320   31.9910   49.5760 C   0  0  0  0  0  0  0  0  0  0  0  0
   63.9490   32.8440   50.6310 C   0  0  0  0  0  0  0  0  0  0  0  0
   63.1780   33.9620   50.3770 C   0  0  0  0  0  0  0  0  0  0  0  0
   62.6860   34.2440   49.1070 C   0  0  0  0  0  0  0  0  0  0  0  0
   59.2130   32.2320   48.8440 N   0  0  0  0  0  0  0  0  0  0  0  0
   59.0660   31.3180   49.8350 C   0  0  0  0  0  0  0  0  0  0  0  0
   58.8956   28.1083   48.8236 H   0  0  0  0  0  0  0  0  0  0  0  0
   58.0225   29.4312   47.9785 H   0  0  0  0  0  0  0  0  0  0  0  0
   59.8185   29.3970   47.9785 H   0  0  0  0  0  0  0  0  0  0  0  0
   58.8121   30.4802   52.9849 H   0  0  0  0  0  0  0  0  0  0  0  0
   58.5350   35.0966   47.9605 H   0  0  0  0  0  0  0  0  0  0  0  0
   60.2723   35.2868   48.5134 H   0  0  0  0  0  0  0  0  0  0  0  0
   58.9172   35.6728   45.8969 H   0  0  0  0  0  0  0  0  0  0  0  0
   60.0204   34.6860   44.8315 H   0  0  0  0  0  0  0  0  0  0  0  0
   57.9899   33.0558   46.0082 H   0  0  0  0  0  0  0  0  0  0  0  0
   57.3051   34.5052   45.0946 H   0  0  0  0  0  0  0  0  0  0  0  0
   57.7473   33.6254   43.1379 H   0  0  0  0  0  0  0  0  0  0  0  0
   59.3723   33.0996   43.6049 H   0  0  0  0  0  0  0  0  0  0  0  0
   56.7439   31.5881   42.2464 H   0  0  0  0  0  0  0  0  0  0  0  0
   55.9392   29.2999   42.7241 H   0  0  0  0  0  0  0  0  0  0  0  0
   56.4930   28.1303   44.8181 H   0  0  0  0  0  0  0  0  0  0  0  0
   57.9073   29.2748   46.5287 H   0  0  0  0  0  0  0  0  0  0  0  0
   58.7121   31.5612   46.0528 H   0  0  0  0  0  0  0  0  0  0  0  0
   63.0556   32.9848   45.9670 H   0  0  0  0  0  0  0  0  0  0  0  0
   62.6291   34.6639   46.3960 H   0  0  0  0  0  0  0  0  0  0  0  0
   64.0029   31.5392   47.4721 H   0  0  0  0  0  0  0  0  0  0  0  0
   64.8454   31.0973   49.7632 H   0  0  0  0  0  0  0  0  0  0  0  0
   64.3278   32.6366   51.6427 H   0  0  0  0  0  0  0  0  0  0  0  0
   62.9464   34.6496   51.2038 H   0  0  0  0  0  0  0  0  0  0  0  0
   62.0716   35.1377   48.9232 H   0  0  0  0  0  0  0  0  0  0  0  0
   59.2380   31.9000   47.8800 H   0  0  0  0  0  0  0  0  0  0  0  0
  1  2  1  0
  2  3  1  0
  3  4  2  0
  4  5  1  0
  5  6  1  0
  6  7  2  0
  6  8  1  0
  8  9  2  0
  9 10  1  0
 10 11  1  0
 11 12  1  0
 12 13  1  0
 13 14  1  0
 14 15  1  0
 15 16  2  0
 16 17  1  0
 17 18  2  0
 18 19  1  0
 19 20  2  0
 11 21  1  0
 21 22  2  0
 21 23  1  0
 23 24  1  0
 24 25  2  0
 25 26  1  0
 26 27  2  0
 27 28  1  0
 28 29  2  0
  9 30  1  0
 30 31  1  0
 31  2  1  0
 31  5  2  0
 20 15  1  0
 29 24  1  0
  1 32  1  0
  1 33  1  0
  1 34  1  0
  4 35  1  0
 10 36  1  0
 10 37  1  0
 12 38  1  0
 12 39  1  0
 13 40  1  0
 13 41  1  0
 14 42  1  0
 14 43  1  0
 16 44  1  0
 17 45  1  0
 18 46  1  0
 19 47  1  0
 20 48  1  0
 23 49  1  0
 23 50  1  0
 25 51  1  0
 26 52  1  0
 27 53  1  0
 28 54  1  0
 29 55  1  0
 30 56  1  0
M  END
>  <smiles>  (62) 
Cn1ncc2c(=O)nc(CN(CCCc3ccccc3)C(=O)Cc3ccccc3)[nH]c21

>  <score_type>  (62) 
oracle

>  <origin>  (62) 
adg

>  <m_score__min__energy>  (62) 
-8.8699999999999992

>  <m_primary>  (62) 
energy

$$$$
62:0
     RDKit          3D

 45 47  0  0  0  0  0  0  0  0999 V2000
   61.1660   29.9570   49.7030 C   0  0  0  0  0  0  0  0  0  0  0  0
   60.1690   29.0490   49.2500 O   0  0  0  0  0  0  0  0  0  0  0  0
   59.3050   29.3430   48.1900 C   0  0  0  0  0  0  0  0  0  0  0  0
   58.8840   30.5210   48.0270 O   0  0  0  0  0  0  0  0  0  0  0  0
   58.8620   28.2510   47.3020 C   0  0  0  0  0  0  0  0  0  0  0  0
   59.4180   27.0210   47.4790 N   0  0  0  0  0  0  0  0  0  0  0  0
   59.0270   25.9330   46.7630 C   0  0  0  0  0  0  0  0  0  0  0  0
   58.0090   26.0510   45.8190 C   0  0  0  0  0  0  0  0  0  0  0  0
   57.4210   27.2960   45.6020 C   0  0  0  0  0  0  0  0  0  0  0  0
   57.8570   28.4170   46.3160 C   0  0  0  0  0  0  0  0  0  0  0  0
   57.2810   29.6560   46.0210 O   0  0  0  0  0  0  0  0  0  0  0  0
   56.5350   29.9060   44.8620 C   0  0  0  0  0  0  0  0  0  0  0  0
   55.4100   29.3520   44.7090 O   0  0  0  0  0  0  0  0  0  0  0  0
   57.0340   30.8600   43.8390 C   0  0  0  0  0  0  0  0  0  0  0  0
   56.6530   30.6790   42.4940 C   0  0  0  0  0  0  0  0  0  0  0  0
   57.0490   31.5880   41.5110 C   0  0  0  0  0  0  0  0  0  0  0  0
   57.8350   32.6880   41.8510 C   0  0  0  0  0  0  0  0  0  0  0  0
   58.2340   32.8780   43.1740 C   0  0  0  0  0  0  0  0  0  0  0  0
   57.8450   31.9740   44.1770 C   0  0  0  0  0  0  0  0  0  0  0  0
   58.3470   32.1500   45.5110 N   0  0  0  0  0  0  0  0  0  0  0  0
   58.3540   33.4160   46.1820 C   0  0  0  0  0  0  0  0  0  0  0  0
   57.8600   34.4340   45.6260 O   0  0  0  0  0  0  0  0  0  0  0  0
   58.9500   33.5130   47.4820 N   0  0  0  0  0  0  0  0  0  0  0  0
   60.3530   33.5900   47.7730 C   0  0  0  0  0  0  0  0  0  0  0  0
   61.3330   33.2460   46.8230 C   0  0  0  0  0  0  0  0  0  0  0  0
   62.6910   33.3590   47.1400 C   0  0  0  0  0  0  0  0  0  0  0  0
   63.0800   33.8300   48.3970 C   0  0  0  0  0  0  0  0  0  0  0  0
   62.1120   34.1970   49.3350 C   0  0  0  0  0  0  0  0  0  0  0  0
   60.7540   34.0850   49.0210 C   0  0  0  0  0  0  0  0  0  0  0  0
   61.1788   29.9687   50.8029 H   0  0  0  0  0  0  0  0  0  0  0  0
   62.1498   29.6382   49.3282 H   0  0  0  0  0  0  0  0  0  0  0  0
   60.9403   30.9663   49.3282 H   0  0  0  0  0  0  0  0  0  0  0  0
   59.5139   24.9607   46.9289 H   0  0  0  0  0  0  0  0  0  0  0  0
   57.6729   25.1710   45.2510 H   0  0  0  0  0  0  0  0  0  0  0  0
   56.6101   27.3974   44.8657 H   0  0  0  0  0  0  0  0  0  0  0  0
   56.0365   29.8115   42.2156 H   0  0  0  0  0  0  0  0  0  0  0  0
   56.7402   31.4359   40.4663 H   0  0  0  0  0  0  0  0  0  0  0  0
   58.1406   33.4062   41.0759 H   0  0  0  0  0  0  0  0  0  0  0  0
   58.8596   33.7444   43.4348 H   0  0  0  0  0  0  0  0  0  0  0  0
   58.6850   31.3130   46.0360 H   0  0  0  0  0  0  0  0  0  0  0  0
   61.0302   32.8872   45.8282 H   0  0  0  0  0  0  0  0  0  0  0  0
   63.4534   33.0768   46.3990 H   0  0  0  0  0  0  0  0  0  0  0  0
   64.1479   33.9117   48.6477 H   0  0  0  0  0  0  0  0  0  0  0  0
   62.4184   34.5745   50.3217 H   0  0  0  0  0  0  0  0  0  0  0  0
   59.9958   34.3874   49.7583 H   0  0  0  0  0  0  0  0  0  0  0  0
  1  2  1  0
  2  3  1  0
  3  4  2  0
  3  5  1  0
  5  6  2  0
  6  7  1  0
  7  8  2  0
  8  9  1  0
  9 10  2  0
 10 11  1  0
 11 12  1  0
 12 13  2  0
 12 14  1  0
 14 15  2  0
 15 16  1  0
 16 17  2  0
 17 18  1  0
 18 19  2  0
 19 20  1  0
 20 21  1  0
 21 22  2  0
 21 23  1  0
 23 24  1  0
 24 25  2  0
 25 26  1  0
 26 27  2  0
 27 28  1  0
 28 29  2  0
 10  5  1  0
 19 14  1  0
 29 24  1  0
  1 30  1  0
  1 31  1  0
  1 32  1  0
  7 33  1  0
  8 34  1  0
  9 35  1  0
 15 36  1  0
 16 37  1  0
 17 38  1  0
 18 39  1  0
 20 40  1  0
 25 41  1  0
 26 42  1  0
 27 43  1  0
 28 44  1  0
 29 45  1  0
M  CHG  1  23  -1
M  END
>  <UniqueID>  (63) 
61

>  <SMILES>  (63) 
COC(=O)c1ncccc1OC(=O)c1ccccc1NC(=O)[N-]c1ccccc1

>  <Energy>  (63) 
65.6182835088848

>  <Genealogy>  (63) 
COC(=O)c1ncccc1OC(=O)c1ccccc1NC(=O)[N-]c1ccccc1 (protonated)
COC(=O)c1ncccc1OC(=O)c1ccccc1NC(=O)[N-]c1ccccc1 (3D coordinates assigned)
COC(=O)c1ncccc1OC(=O)c1ccccc1NC(=O)[N-]c1ccccc1 (optimized conformer: 65.6182835088848 kcal/mol)

>  <smiles>  (63) 
COC(=O)c1ncccc1OC(=O)c1ccccc1NC(=O)Nc1ccccc1

>  <score_type>  (63) 
oracle

>  <origin>  (63) 
adg

>  <m_score__min__energy>  (63) 
-9.6300000000000008

>  <m_primary>  (63) 
energy

$$$$
63:0
     RDKit          3D

 42 45  0  0  0  0  0  0  0  0999 V2000
   55.2890   29.3100   45.2470 O   0  0  0  0  0  0  0  0  0  0  0  0
   56.1900   29.9270   44.6230 C   0  0  0  0  0  0  0  0  0  0  0  0
   56.0980   31.3490   44.4980 N   0  0  0  0  0  0  0  0  0  0  0  0
   57.1220   32.2920   44.8420 C   0  0  0  0  0  0  0  0  0  0  0  0
   57.9000   32.9430   43.8500 C   0  0  0  0  0  0  0  0  0  0  0  0
   58.9150   33.8450   44.2140 C   0  0  0  0  0  0  0  0  0  0  0  0
   59.1520   34.0790   45.5680 C   0  0  0  0  0  0  0  0  0  0  0  0
   60.1030   34.9210   46.0470 N   0  0  0  0  0  0  0  0  0  0  0  0
   60.1090   34.9350   47.4030 C   0  0  0  0  0  0  0  0  0  0  0  0
   58.9340   33.9000   48.0490 S   0  0  0  0  0  0  0  0  0  0  0  0
   58.4060   33.4220   46.5310 C   0  0  0  0  0  0  0  0  0  0  0  0
   57.3960   32.5230   46.2020 C   0  0  0  0  0  0  0  0  0  0  0  0
   57.2510   29.2070   43.9810 N   0  0  0  0  0  0  0  0  0  0  0  0
   58.4460   28.6590   44.6300 C   0  0  1  0  0  0  0  0  0  0  0  0
   59.3280   29.8010   45.2150 C   0  0  0  0  0  0  0  0  0  0  0  0
   59.7810   29.6330   46.7010 C   0  0  0  0  0  0  0  0  0  0  0  0
   58.7560   30.2810   47.6590 C   0  0  0  0  0  0  0  0  0  0  0  0
   58.5030   29.4490   48.7370 F   0  0  0  0  0  0  0  0  0  0  0  0
   61.1570   30.2980   46.9040 C   0  0  0  0  0  0  0  0  0  0  0  0
   61.3800   30.5770   48.2420 F   0  0  0  0  0  0  0  0  0  0  0  0
   59.9070   28.2540   47.0420 O   0  0  0  0  0  0  0  0  0  0  0  0
   58.9290   27.3190   46.7080 C   0  0  0  0  0  0  0  0  0  0  0  0
   58.7650   26.1760   47.4960 C   0  0  0  0  0  0  0  0  0  0  0  0
   57.7740   25.2440   47.1800 C   0  0  0  0  0  0  0  0  0  0  0  0
   56.9590   25.4430   46.0620 C   0  0  0  0  0  0  0  0  0  0  0  0
   56.0110   24.5270   45.7430 F   0  0  0  0  0  0  0  0  0  0  0  0
   57.1400   26.5710   45.2560 C   0  0  0  0  0  0  0  0  0  0  0  0
   58.1140   27.5320   45.5860 C   0  0  0  0  0  0  0  0  0  0  0  0
   57.7072   32.7400   42.7862 H   0  0  0  0  0  0  0  0  0  0  0  0
   59.5115   34.3570   43.4445 H   0  0  0  0  0  0  0  0  0  0  0  0
   60.7942   35.5449   48.0101 H   0  0  0  0  0  0  0  0  0  0  0  0
   56.8254   32.0053   46.9871 H   0  0  0  0  0  0  0  0  0  0  0  0
   59.0751   28.1706   43.8713 H   0  0  0  0  0  0  0  0  0  0  0  0
   60.2335   29.8764   44.5950 H   0  0  0  0  0  0  0  0  0  0  0  0
   58.6927   30.6989   45.2015 H   0  0  0  0  0  0  0  0  0  0  0  0
   59.1584   31.2366   48.0264 H   0  0  0  0  0  0  0  0  0  0  0  0
   57.8164   30.4490   47.1123 H   0  0  0  0  0  0  0  0  0  0  0  0
   61.9423   29.6178   46.5425 H   0  0  0  0  0  0  0  0  0  0  0  0
   61.1766   31.2426   46.3407 H   0  0  0  0  0  0  0  0  0  0  0  0
   59.4173   26.0105   48.3661 H   0  0  0  0  0  0  0  0  0  0  0  0
   57.6349   24.3536   47.8108 H   0  0  0  0  0  0  0  0  0  0  0  0
   56.5179   26.7082   44.3592 H   0  0  0  0  0  0  0  0  0  0  0  0
  1  2  2  0
  2  3  1  0
  3  4  1  0
  4  5  2  0
  5  6  1  0
  6  7  2  0
  7  8  1  0
  8  9  2  0
  9 10  1  0
 10 11  1  0
 11 12  2  0
  2 13  1  0
 13 14  1  0
 14 15  1  0
 15 16  1  0
 16 17  1  0
 17 18  1  0
 16 19  1  0
 19 20  1  0
 16 21  1  0
 21 22  1  0
 22 23  2  0
 23 24  1  0
 24 25  2  0
 25 26  1  0
 25 27  1  0
 27 28  2  0
 12  4  1  0
 28 14  1  0
 11  7  1  0
 28 22  1  0
  5 29  1  0
  6 30  1  0
  9 31  1  0
 12 32  1  0
 14 33  1  6
 15 34  1  0
 15 35  1  0
 17 36  1  0
 17 37  1  0
 19 38  1  0
 19 39  1  0
 23 40  1  0
 24 41  1  0
 27 42  1  0
M  CHG  2   3  -1  13  -1
M  END
>  <UniqueID>  (64) 
62

>  <SMILES>  (64) 
O=C([N-]c1ccc2ncsc2c1)[N-][C@H]1CC(CF)(CF)Oc2ccc(F)cc21

>  <Energy>  (64) 
90.99696862148235

>  <Genealogy>  (64) 
O=C([N-]c1ccc2ncsc2c1)[N-]C1CC(CF)(CF)Oc2ccc(F)cc21 (protonated)
O=C([N-]c1ccc2ncsc2c1)[N-][C@H]1CC(CF)(CF)Oc2ccc(F)cc21 (chirality)
O=C([N-]c1ccc2ncsc2c1)[N-][C@H]1CC(CF)(CF)Oc2ccc(F)cc21 (3D coordinates assigned)
O=C([N-]c1ccc2ncsc2c1)[N-][C@H]1CC(CF)(CF)Oc2ccc(F)cc21 (nonaromatic ring conformer: 90.99696862148235 kcal/mol)

>  <smiles>  (64) 
O=C(Nc1ccc2ncsc2c1)NC1CC(CF)(CF)Oc2ccc(F)cc21

>  <score_type>  (64) 
oracle

>  <origin>  (64) 
adg

>  <m_score__min__energy>  (64) 
-10.359999999999999

>  <m_primary>  (64) 
energy

$$$$
64:0
     RDKit          3D

 52 54  0  0  0  0  0  0  0  0999 V2000
   56.5276   33.6159   45.4227 H   0  0  0  0  0  0  0  0  0  0  0  0
   57.4910   33.2890   45.8410 C   0  0  0  0  0  0  0  0  0  0  0  0
   57.7650   31.9650   45.9610 N   0  0  0  0  0  0  0  0  0  0  0  0
   58.9480   31.5060   46.4560 C   0  0  0  0  0  0  0  0  0  0  0  0
   59.1580   30.2280   46.6040 N   0  0  0  0  0  0  0  0  0  0  0  0
   58.6720   29.1240   45.8230 C   0  0  0  0  0  0  0  0  0  0  0  0
   59.1870   28.8040   44.5530 C   0  0  0  0  0  0  0  0  0  0  0  0
   59.9622   29.4387   44.0988 H   0  0  0  0  0  0  0  0  0  0  0  0
   58.7150   27.6810   43.8680 C   0  0  0  0  0  0  0  0  0  0  0  0
   59.1028   27.4482   42.8653 H   0  0  0  0  0  0  0  0  0  0  0  0
   57.7530   26.8530   44.4510 C   0  0  0  0  0  0  0  0  0  0  0  0
   57.3872   25.9712   43.9046 H   0  0  0  0  0  0  0  0  0  0  0  0
   57.2490   27.1400   45.7330 C   0  0  0  0  0  0  0  0  0  0  0  0
   56.2370   26.2610   46.3630 C   0  0  0  0  0  0  0  0  0  0  0  0
   56.5810   25.4440   47.2630 O   0  0  0  0  0  0  0  0  0  0  0  0
   54.8670   26.3310   45.9560 N   0  0  0  0  0  0  0  0  0  0  0  0
   54.0790   25.1520   45.6260 C   0  0  0  0  0  0  0  0  0  0  0  0
   53.7499   24.6597   46.5530 H   0  0  0  0  0  0  0  0  0  0  0  0
   53.1991   25.4519   45.0378 H   0  0  0  0  0  0  0  0  0  0  0  0
   54.6926   24.4537   45.0378 H   0  0  0  0  0  0  0  0  0  0  0  0
   57.7250   28.2760   46.4100 C   0  0  0  0  0  0  0  0  0  0  0  0
   57.3472   28.5027   47.4179 H   0  0  0  0  0  0  0  0  0  0  0  0
   59.9300   32.4320   46.8840 C   0  0  0  0  0  0  0  0  0  0  0  0
   61.2130   31.9930   47.4880 C   0  0  0  0  0  0  0  0  0  0  0  0
   62.2510   31.9070   46.7760 O   0  0  0  0  0  0  0  0  0  0  0  0
   61.2860   31.6740   48.8810 N   0  0  0  0  0  0  0  0  0  0  0  0
   60.1760   31.2700   49.6970 C   0  0  0  0  0  0  0  0  0  0  0  0
   59.4100   32.2160   50.4020 C   0  0  0  0  0  0  0  0  0  0  0  0
   59.7051   33.2756   50.3859 H   0  0  0  0  0  0  0  0  0  0  0  0
   58.2700   31.8220   51.1280 C   0  0  0  0  0  0  0  0  0  0  0  0
   57.4800   32.7450   51.8350 O   0  0  0  0  0  0  0  0  0  0  0  0
   57.9920   33.7560   52.6970 C   0  0  0  0  0  0  0  0  0  0  0  0
   57.8402   33.4562   53.7444 H   0  0  0  0  0  0  0  0  0  0  0  0
   59.0669   33.8906   52.5063 H   0  0  0  0  0  0  0  0  0  0  0  0
   57.4644   34.7022   52.5063 H   0  0  0  0  0  0  0  0  0  0  0  0
   57.8890   30.4740   51.1450 C   0  0  0  0  0  0  0  0  0  0  0  0
   56.7390   30.1170   51.8680 O   0  0  0  0  0  0  0  0  0  0  0  0
   56.6380   30.1390   53.2890 C   0  0  0  0  0  0  0  0  0  0  0  0
   57.6227   29.9245   53.7299 H   0  0  0  0  0  0  0  0  0  0  0  0
   56.2978   31.1323   53.6171 H   0  0  0  0  0  0  0  0  0  0  0  0
   55.9155   29.3772   53.6171 H   0  0  0  0  0  0  0  0  0  0  0  0
   58.6540   29.5270   50.4400 C   0  0  0  0  0  0  0  0  0  0  0  0
   58.3580   28.4677   50.4587 H   0  0  0  0  0  0  0  0  0  0  0  0
   59.7900   29.9160   49.7130 C   0  0  0  0  0  0  0  0  0  0  0  0
   60.5800   28.8900   48.9450 C   0  0  0  0  0  0  0  0  0  0  0  0
   61.0952   28.2209   49.6500 H   0  0  0  0  0  0  0  0  0  0  0  0
   59.8994   28.3018   48.3120 H   0  0  0  0  0  0  0  0  0  0  0  0
   61.3227   29.3977   48.3120 H   0  0  0  0  0  0  0  0  0  0  0  0
   59.6480   33.8050   46.7740 C   0  0  0  0  0  0  0  0  0  0  0  0
   60.3920   34.5445   47.1049 H   0  0  0  0  0  0  0  0  0  0  0  0
   58.4310   34.2340   46.2480 C   0  0  0  0  0  0  0  0  0  0  0  0
   58.2143   35.3084   46.1549 H   0  0  0  0  0  0  0  0  0  0  0  0
  1  2  1  0
  2  3  1  0
  3  4  1  0
  4  5  2  0
  5  6  1  0
  6  7  2  0
  7  8  1  0
  7  9  1  0
  9 10  1  0
  9 11  2  0
 11 12  1  0
 11 13  1  0
 13 14  1  0
 14 15  2  0
 14 16  1  0
 16 17  1  0
 17 18  1  0
 17 19  1  0
 17 20  1  0
 13 21  2  0
 21 22  1  0
  4 23  1  0
 23 24  1  0
 24 25  2  0
 24 26  1  0
 26 27  1  0
 27 28  2  0
 28 29  1  0
 28 30  1  0
 30 31  1  0
 31 32  1  0
 32 33  1  0
 32 34  1  0
 32 35  1  0
 30 36  2  0
 36 37  1  0
 37 38  1  0
 38 39  1  0
 38 40  1  0
 38 41  1  0
 36 42  1  0
 42 43  1  0
 42 44  2  0
 44 45  1  0
 45 46  1  0
 45 47  1  0
 45 48  1  0
 23 49  2  0
 49 50  1  0
 49 51  1  0
 51 52  1  0
 51  2  2  0
 21  6  1  0
 44 27  1  0
M  CHG  3   3  -1  16  -1  26  -1
M  END
>  <UniqueID>  (65) 
63

>  <SMILES>  (65) 
C[N-]C(=O)c1cccc(/N=c2\[n-]cccc2C(=O)[N-]c2cc(OC)c(OC)cc2C)c1

>  <Energy>  (65) 
67.7889334408321

>  <Genealogy>  (65) 
C[N-]C(=O)c1cccc(N=c2[n-]cccc2C(=O)[N-]c2cc(OC)c(OC)cc2C)c1 (protonated)
C[N-]C(=O)c1cccc(/N=c2\[n-]cccc2C(=O)[N-]c2cc(OC)c(OC)cc2C)c1 (cis-trans isomerization)
C[N-]C(=O)c1cccc(/N=c2\[n-]cccc2C(=O)[N-]c2cc(OC)c(OC)cc2C)c1 (3D coordinates assigned)
C[N-]C(=O)c1cccc(/N=c2\[n-]cccc2C(=O)[N-]c2cc(OC)c(OC)cc2C)c1 (optimized conformer: 67.7889334408321 kcal/mol)

>  <smiles>  (65) 
CNC(=O)c1cccc(N=c2[nH]cccc2C(=O)Nc2cc(OC)c(OC)cc2C)c1

>  <score_type>  (65) 
oracle

>  <origin>  (65) 
adg

>  <m_score__min__energy>  (65) 
-13.609999999999999

>  <m_primary>  (65) 
energy

$$$$
65:0
     RDKit          3D

 29 31  0  0  0  0  0  0  0  0999 V2000
   61.5170   33.6890   48.9050 H   0  0  0  0  0  0  0  0  0  0  0  0
   61.1340   32.7210   48.8110 N   0  0  0  0  0  0  0  0  0  0  0  0
   61.3850   32.2370   47.1720 S   0  0  0  0  0  0  0  0  0  0  0  0
   62.2380   30.9990   47.1430 O   0  0  0  0  0  0  0  0  0  0  0  0
   62.0980   33.3310   46.4260 O   0  0  0  0  0  0  0  0  0  0  0  0
   59.8330   31.9120   46.4100 C   0  0  0  0  0  0  0  0  0  0  0  0
   59.1850   32.9200   45.6570 C   0  0  0  0  0  0  0  0  0  0  0  0
   59.6432   33.9164   45.5718 H   0  0  0  0  0  0  0  0  0  0  0  0
   57.9610   32.6590   45.0170 C   0  0  0  0  0  0  0  0  0  0  0  0
   57.4575   33.4348   44.4215 H   0  0  0  0  0  0  0  0  0  0  0  0
   57.4040   31.3910   45.1580 C   0  0  0  0  0  0  0  0  0  0  0  0
   56.2720   30.9470   44.5770 N   0  0  0  0  0  0  0  0  0  0  0  0
   56.1800   29.6590   44.9780 C   0  0  0  0  0  0  0  0  0  0  0  0
   55.1440   28.8180   44.5900 O   0  0  0  0  0  0  0  0  0  0  0  0
   57.2230   29.2880   45.8150 C   0  0  0  0  0  0  0  0  0  0  0  0
   57.4390   27.9490   46.3930 C   0  0  0  0  0  0  0  0  0  0  0  0
   58.2089   27.8303   47.1697 H   0  0  0  0  0  0  0  0  0  0  0  0
   56.7380   26.8670   46.0140 C   0  0  0  0  0  0  0  0  0  0  0  0
   55.4170   26.7150   46.2300 N   0  0  0  0  0  0  0  0  0  0  0  0
   55.1350   25.5230   45.6650 C   0  0  0  0  0  0  0  0  0  0  0  0
   53.9800   25.0270   45.6680 O   0  0  0  0  0  0  0  0  0  0  0  0
   56.1900   24.9080   45.0960 N   0  0  0  0  0  0  0  0  0  0  0  0
   57.2080   25.7610   45.3140 C   0  0  0  0  0  0  0  0  0  0  0  0
   58.4540   25.5200   44.9000 C   0  0  0  0  0  0  0  0  0  0  0  0
   59.2518   26.2495   45.1032 H   0  0  0  0  0  0  0  0  0  0  0  0
   58.6829   24.5919   44.3557 H   0  0  0  0  0  0  0  0  0  0  0  0
   58.0170   30.4150   45.9070 C   0  0  0  0  0  0  0  0  0  0  0  0
   59.2510   30.6340   46.5230 C   0  0  0  0  0  0  0  0  0  0  0  0
   59.7546   29.8309   47.0810 H   0  0  0  0  0  0  0  0  0  0  0  0
  1  2  1  0
  2  3  1  0
  3  4  2  0
  3  5  2  0
  3  6  1  0
  6  7  2  0
  7  8  1  0
  7  9  1  0
  9 10  1  0
  9 11  2  0
 11 12  1  0
 12 13  1  0
 13 14  1  0
 13 15  2  0
 15 16  1  0
 16 17  1  0
 16 18  2  0
 18 19  1  0
 19 20  1  0
 20 21  2  0
 20 22  1  0
 22 23  1  0
 23 24  2  0
 24 25  1  0
 24 26  1  0
 15 27  1  0
 27 28  2  0
 28 29  1  0
 28  6  1  0
 27 11  1  0
 23 18  1  0
M  CHG  5   2  -1  12  -1  14  -1  19  -1  22  -1
M  END
>  <UniqueID>  (66) 
64

>  <SMILES>  (66) 
C=c1[n-]c(=O)[n-]/c1=C\c1c([O-])[n-]c2ccc(S([NH-])(=O)=O)cc12

>  <Energy>  (66) 
99.17008953259574

>  <Genealogy>  (66) 
C=c1[n-]c(=O)[n-]c1=Cc1c([O-])[n-]c2ccc(S([NH-])(=O)=O)cc12 (protonated)
C=c1[n-]c(=O)[n-]/c1=C\c1c([O-])[n-]c2ccc(S([NH-])(=O)=O)cc12 (cis-trans isomerization)
C=c1[n-]c(=O)[n-]/c1=C\c1c([O-])[n-]c2ccc(S([NH-])(=O)=O)cc12 (3D coordinates assigned)
C=c1[n-]c(=O)[n-]/c1=C\c1c([O-])[n-]c2ccc(S([NH-])(=O)=O)cc12 (optimized conformer: 99.17008953259574 kcal/mol)

>  <smiles>  (66) 
C=c1[nH]c(=O)[nH]c1=Cc1c(O)[nH]c2ccc(S(N)(=O)=O)cc12

>  <score_type>  (66) 
oracle

>  <origin>  (66) 
adg

>  <m_score__min__energy>  (66) 
-15.51

>  <m_primary>  (66) 
energy

$$$$
66:0
     RDKit          3D

 23 24  0  0  0  0  0  0  0  0999 V2000
   57.7360   26.0840   44.4990 C   0  0  0  0  0  0  0  0  0  0  0  0
   56.8010   26.8060   45.8310 S   0  0  0  0  0  0  0  0  0  0  0  0
   57.7150   27.2270   46.9470 O   0  0  0  0  0  0  0  0  0  0  0  0
   55.8380   25.7800   46.3560 O   0  0  0  0  0  0  0  0  0  0  0  0
   55.8990   28.1710   45.2540 N   0  0  0  0  0  0  0  0  0  0  0  0
   56.4530   29.3610   44.6750 C   0  0  0  0  0  0  0  0  0  0  0  0
   56.2540   29.6990   43.3100 C   0  0  0  0  0  0  0  0  0  0  0  0
   56.8100   30.8730   42.7730 C   0  0  0  0  0  0  0  0  0  0  0  0
   57.5600   31.6940   43.6120 C   0  0  0  0  0  0  0  0  0  0  0  0
   57.7560   31.3660   44.9390 C   0  0  0  0  0  0  0  0  0  0  0  0
   57.2170   30.2090   45.4970 C   0  0  0  0  0  0  0  0  0  0  0  0
   58.5720   32.4130   45.5320 C   0  0  0  0  0  0  0  0  0  0  0  0
   58.9720   32.4850   46.7250 O   0  0  0  0  0  0  0  0  0  0  0  0
   58.8280   33.3590   44.4570 C   0  0  0  0  0  0  0  0  0  0  0  0
   59.5030   34.4170   44.5530 O   0  0  0  0  0  0  0  0  0  0  0  0
   58.1990   32.9190   43.2540 N   0  0  0  0  0  0  0  0  0  0  0  0
   58.5427   25.4611   44.9128 H   0  0  0  0  0  0  0  0  0  0  0  0
   57.0726   25.4615   43.8806 H   0  0  0  0  0  0  0  0  0  0  0  0
   58.1704   26.8833   43.8806 H   0  0  0  0  0  0  0  0  0  0  0  0
   55.6585   29.0350   42.6662 H   0  0  0  0  0  0  0  0  0  0  0  0
   56.6566   31.1369   41.7162 H   0  0  0  0  0  0  0  0  0  0  0  0
   57.3850   29.9642   46.5562 H   0  0  0  0  0  0  0  0  0  0  0  0
   58.2070   33.3880   42.3220 H   0  0  0  0  0  0  0  0  0  0  0  0
  1  2  1  0
  2  3  2  0
  2  4  2  0
  2  5  1  0
  5  6  1  0
  6  7  2  0
  7  8  1  0
  8  9  2  0
  9 10  1  0
 10 11  2  0
 10 12  1  0
 12 13  2  0
 12 14  1  0
 14 15  2  0
 14 16  1  0
 11  6  1  0
 16  9  1  0
  1 17  1  0
  1 18  1  0
  1 19  1  0
  7 20  1  0
  8 21  1  0
 11 22  1  0
 16 23  1  0
M  CHG  1   5  -1
M  END
>  <UniqueID>  (67) 
65

>  <SMILES>  (67) 
CS(=O)(=O)[N-]c1ccc2c(c1)C(=O)C(=O)N2

>  <Energy>  (67) 
53.953235293798926

>  <Genealogy>  (67) 
CS(=O)(=O)[N-]c1ccc2c(c1)C(=O)C(=O)N2 (protonated)
CS(=O)(=O)[N-]c1ccc2c(c1)C(=O)C(=O)N2 (3D coordinates assigned)
CS(=O)(=O)[N-]c1ccc2c(c1)C(=O)C(=O)N2 (nonaromatic ring conformer: 53.953235293798926 kcal/mol)

>  <smiles>  (67) 
CS(=O)(=O)Nc1ccc2c(c1)C(=O)C(=O)N2

>  <score_type>  (67) 
oracle

>  <origin>  (67) 
adg

>  <m_score__min__energy>  (67) 
-7.8399999999999999

>  <m_primary>  (67) 
energy

$$$$
67:0
     RDKit          3D

 47 49  0  0  0  0  0  0  0  0999 V2000
   58.5430   31.7720   49.6920 C   0  0  0  0  0  0  0  0  0  0  0  0
   58.8880   33.0940   49.2890 O   0  0  0  0  0  0  0  0  0  0  0  0
   58.9190   33.5410   47.9590 C   0  0  0  0  0  0  0  0  0  0  0  0
   57.7650   33.5390   47.1500 C   0  0  0  0  0  0  0  0  0  0  0  0
   57.8180   34.0120   45.8390 C   0  0  0  0  0  0  0  0  0  0  0  0
   59.0170   34.4930   45.3150 C   0  0  0  0  0  0  0  0  0  0  0  0
   60.1720   34.4910   46.0990 C   0  0  0  0  0  0  0  0  0  0  0  0
   60.1400   34.0130   47.4230 C   0  0  0  0  0  0  0  0  0  0  0  0
   61.3440   34.0500   48.2260 N   0  0  0  0  0  0  0  0  0  0  0  0
   62.5180   33.5860   47.4690 C   0  0  0  0  0  0  0  0  0  0  0  0
   62.7530   32.1040   47.6500 C   0  0  0  0  0  0  0  0  0  0  0  0
   63.7820   31.5880   47.1410 O   0  0  0  0  0  0  0  0  0  0  0  0
   61.7880   31.2450   48.2730 N   0  0  0  0  0  0  0  0  0  0  0  0
   60.7420   30.5330   47.6000 C   0  0  0  0  0  0  0  0  0  0  0  0
   60.2030   29.3530   48.1360 C   0  0  0  0  0  0  0  0  0  0  0  0
   59.1600   28.6960   47.4800 C   0  0  0  0  0  0  0  0  0  0  0  0
   58.6540   29.2040   46.2750 C   0  0  0  0  0  0  0  0  0  0  0  0
   57.3090   28.4020   45.4720 S   0  0  0  0  0  0  0  0  0  0  0  0
   56.1900   29.3760   45.2300 O   0  0  0  0  0  0  0  0  0  0  0  0
   57.7820   27.8560   44.1550 O   0  0  0  0  0  0  0  0  0  0  0  0
   56.7200   27.0930   46.4490 N   0  0  0  0  0  0  0  0  0  0  0  0
   56.1230   26.0430   45.9730 C   0  0  0  0  0  0  0  0  0  0  0  0
   54.7640   25.9400   45.9870 N   0  0  0  0  0  0  0  0  0  0  0  0
   54.1410   24.8370   45.4960 C   0  0  0  0  0  0  0  0  0  0  0  0
   54.8940   23.7900   44.9680 C   0  0  0  0  0  0  0  0  0  0  0  0
   56.2830   23.9100   44.9590 C   0  0  0  0  0  0  0  0  0  0  0  0
   56.8690   25.0290   45.4600 N   0  0  0  0  0  0  0  0  0  0  0  0
   59.2360   30.3460   45.7080 C   0  0  0  0  0  0  0  0  0  0  0  0
   60.2860   30.9970   46.3620 C   0  0  0  0  0  0  0  0  0  0  0  0
   58.5283   31.7156   50.7905 H   0  0  0  0  0  0  0  0  0  0  0  0
   57.5481   31.5166   49.2984 H   0  0  0  0  0  0  0  0  0  0  0  0
   59.2862   31.0630   49.2984 H   0  0  0  0  0  0  0  0  0  0  0  0
   56.8149   33.1614   47.5558 H   0  0  0  0  0  0  0  0  0  0  0  0
   56.9110   34.0055   45.2166 H   0  0  0  0  0  0  0  0  0  0  0  0
   59.0529   34.8741   44.2838 H   0  0  0  0  0  0  0  0  0  0  0  0
   61.1164   34.8666   45.6783 H   0  0  0  0  0  0  0  0  0  0  0  0
   61.5210   35.0080   48.6080 H   0  0  0  0  0  0  0  0  0  0  0  0
   61.2130   33.4200   49.0520 H   0  0  0  0  0  0  0  0  0  0  0  0
   62.3574   33.7931   46.4007 H   0  0  0  0  0  0  0  0  0  0  0  0
   63.4017   34.1209   47.8471 H   0  0  0  0  0  0  0  0  0  0  0  0
   60.6034   28.9446   49.0756 H   0  0  0  0  0  0  0  0  0  0  0  0
   58.7341   27.7773   47.9097 H   0  0  0  0  0  0  0  0  0  0  0  0
   53.0432   24.7705   45.5152 H   0  0  0  0  0  0  0  0  0  0  0  0
   54.4041   22.8901   44.5678 H   0  0  0  0  0  0  0  0  0  0  0  0
   56.9034   23.1004   44.5471 H   0  0  0  0  0  0  0  0  0  0  0  0
   58.8657   30.7308   44.7463 H   0  0  0  0  0  0  0  0  0  0  0  0
   60.7557   31.8783   45.9008 H   0  0  0  0  0  0  0  0  0  0  0  0
  1  2  1  0
  2  3  1  0
  3  4  2  0
  4  5  1  0
  5  6  2  0
  6  7  1  0
  7  8  2  0
  8  9  1  0
  9 10  1  0
 10 11  1  0
 11 12  2  0
 11 13  1  0
 13 14  1  0
 14 15  2  0
 15 16  1  0
 16 17  2  0
 17 18  1  0
 18 19  2  0
 18 20  2  0
 18 21  1  0
 21 22  2  3
 22 23  1  0
 23 24  2  0
 24 25  1  0
 25 26  2  0
 26 27  1  0
 17 28  1  0
 28 29  2  0
  8  3  1  0
 29 14  1  0
 27 22  1  0
  1 30  1  0
  1 31  1  0
  1 32  1  0
  4 33  1  0
  5 34  1  0
  6 35  1  0
  7 36  1  0
  9 37  1  0
  9 38  1  0
 10 39  1  0
 10 40  1  0
 15 41  1  0
 16 42  1  0
 24 43  1  0
 25 44  1  0
 26 45  1  0
 28 46  1  0
 29 47  1  0
M  CHG  3   9   1  13  -1  27  -1
M  END
>  <UniqueID>  (68) 
66

>  <SMILES>  (68) 
COc1ccccc1[NH2+]CC(=O)[N-]c1ccc(S(=O)(=O)N=c2nccc[n-]2)cc1

>  <Energy>  (68) 
55.04160800373587

>  <Genealogy>  (68) 
COc1ccccc1[NH2+]CC(=O)[N-]c1ccc(S(=O)(=O)N=c2nccc[n-]2)cc1 (protonated)
COc1ccccc1[NH2+]CC(=O)[N-]c1ccc(S(=O)(=O)N=c2nccc[n-]2)cc1 (3D coordinates assigned)
COc1ccccc1[NH2+]CC(=O)[N-]c1ccc(S(=O)(=O)N=c2nccc[n-]2)cc1 (optimized conformer: 55.04160800373587 kcal/mol)

>  <smiles>  (68) 
COc1ccccc1NCC(=O)Nc1ccc(S(=O)(=O)N=c2nccc[nH]2)cc1

>  <score_type>  (68) 
oracle

>  <origin>  (68) 
adg

>  <m_score__min__energy>  (68) 
-9.8499999999999996

>  <m_primary>  (68) 
energy

$$$$
68:0
     RDKit          3D

 32 33  0  0  0  0  0  0  0  0999 V2000
   55.6410   26.7270   46.0310 O   0  0  0  0  0  0  0  0  0  0  0  0
   56.8940   26.8670   46.0560 C   0  0  0  0  0  0  0  0  0  0  0  0
   57.6920   26.2040   47.1320 C   0  0  0  0  0  0  0  0  0  0  0  0
   56.9050   25.2210   47.7990 O   0  0  0  0  0  0  0  0  0  0  0  0
   56.6940   23.9300   47.2960 C   0  0  0  0  0  0  0  0  0  0  0  0
   57.5850   23.0460   47.4320 O   0  0  0  0  0  0  0  0  0  0  0  0
   55.4260   23.6080   46.6050 C   0  0  0  0  0  0  0  0  0  0  0  0
   55.2260   23.9760   45.2610 C   0  0  0  0  0  0  0  0  0  0  0  0
   54.0250   23.6670   44.6150 C   0  0  0  0  0  0  0  0  0  0  0  0
   53.0140   22.9880   45.3000 C   0  0  0  0  0  0  0  0  0  0  0  0
   51.8220   22.6810   44.6540 O   0  0  0  0  0  0  0  0  0  0  0  0
   53.2030   22.6170   46.6330 C   0  0  0  0  0  0  0  0  0  0  0  0
   54.4010   22.9250   47.2850 C   0  0  0  0  0  0  0  0  0  0  0  0
   57.5740   27.5880   45.0220 N   0  0  0  0  0  0  0  0  0  0  0  0
   57.6020   29.0130   44.8470 C   0  0  0  0  0  0  0  0  0  0  0  0
   58.8110   29.7330   44.8260 C   0  0  0  0  0  0  0  0  0  0  0  0
   58.8040   31.1170   44.6320 C   0  0  0  0  0  0  0  0  0  0  0  0
   57.5960   31.7920   44.4430 C   0  0  0  0  0  0  0  0  0  0  0  0
   56.3930   31.0830   44.4390 C   0  0  0  0  0  0  0  0  0  0  0  0
   56.3920   29.6940   44.6330 C   0  0  0  0  0  0  0  0  0  0  0  0
   55.1920   28.9850   44.6220 O   0  0  0  0  0  0  0  0  0  0  0  0
   58.5730   25.7206   46.6845 H   0  0  0  0  0  0  0  0  0  0  0  0
   58.0082   26.9638   47.8619 H   0  0  0  0  0  0  0  0  0  0  0  0
   56.0188   24.5095   44.7161 H   0  0  0  0  0  0  0  0  0  0  0  0
   53.8758   23.9591   43.5651 H   0  0  0  0  0  0  0  0  0  0  0  0
   52.4074   22.0811   47.1714 H   0  0  0  0  0  0  0  0  0  0  0  0
   54.5429   22.6316   48.3356 H   0  0  0  0  0  0  0  0  0  0  0  0
   59.7657   29.2041   44.9629 H   0  0  0  0  0  0  0  0  0  0  0  0
   59.7516   31.6757   44.6282 H   0  0  0  0  0  0  0  0  0  0  0  0
   57.5922   32.8823   44.2973 H   0  0  0  0  0  0  0  0  0  0  0  0
   55.4432   31.6156   44.2832 H   0  0  0  0  0  0  0  0  0  0  0  0
   55.1450   28.0160   44.9150 H   0  0  0  0  0  0  0  0  0  0  0  0
  1  2  2  0
  2  3  1  0
  3  4  1  0
  4  5  1  0
  5  6  2  0
  5  7  1  0
  7  8  2  0
  8  9  1  0
  9 10  2  0
 10 11  1  0
 10 12  1  0
 12 13  2  0
  2 14  1  0
 14 15  1  0
 15 16  2  0
 16 17  1  0
 17 18  2  0
 18 19  1  0
 19 20  2  0
 20 21  1  0
 13  7  1  0
 20 15  1  0
  3 22  1  0
  3 23  1  0
  8 24  1  0
  9 25  1  0
 12 26  1  0
 13 27  1  0
 16 28  1  0
 17 29  1  0
 18 30  1  0
 19 31  1  0
 21 32  1  0
M  CHG  2  11  -1  14  -1
M  END
>  <UniqueID>  (69) 
67

>  <SMILES>  (69) 
O=C(COC(=O)c1ccc([O-])cc1)[N-]c1ccccc1O

>  <Energy>  (69) 
34.1355102878013

>  <Genealogy>  (69) 
O=C(COC(=O)c1ccc([O-])cc1)[N-]c1ccccc1O (protonated)
O=C(COC(=O)c1ccc([O-])cc1)[N-]c1ccccc1O (3D coordinates assigned)
O=C(COC(=O)c1ccc([O-])cc1)[N-]c1ccccc1O (optimized conformer: 34.1355102878013 kcal/mol)

>  <smiles>  (69) 
O=C(COC(=O)c1ccc(O)cc1)Nc1ccccc1O

>  <score_type>  (69) 
oracle

>  <origin>  (69) 
adg

>  <m_score__min__energy>  (69) 
-10.44

>  <m_primary>  (69) 
energy

$$$$
69:0
     RDKit          3D

 46 48  0  0  1  0  0  0  0  0999 V2000
   55.5700   25.9130   45.9930 N   0  0  0  0  0  0  0  0  0  0  0  0
   56.3630   26.9290   46.0390 C   0  0  0  0  0  0  0  0  0  0  0  0
   56.0420   28.0700   45.4000 N   0  0  0  0  0  0  0  0  0  0  0  0
   56.8660   29.1260   45.4490 C   0  0  0  0  0  0  0  0  0  0  0  0
   56.5100   30.2660   44.7890 O   0  0  0  0  0  0  0  0  0  0  0  0
   57.3070   31.1340   44.0540 C   0  0  0  0  0  0  0  0  0  0  0  0
   57.8430   32.2380   44.8830 C   0  0  0  0  0  0  0  0  0  0  0  0
   57.8530   32.2210   46.2620 C   0  0  0  0  0  0  0  0  0  0  0  0
   58.3730   33.2930   46.9500 C   0  0  0  0  0  0  0  0  0  0  0  0
   58.8870   34.3910   46.2800 C   0  0  0  0  0  0  0  0  0  0  0  0
   58.8870   34.4290   44.9010 C   0  0  0  0  0  0  0  0  0  0  0  0
   58.3600   33.3410   44.2380 C   0  0  0  0  0  0  0  0  0  0  0  0
   58.0350   28.9820   46.1730 C   0  0  0  0  0  0  0  0  0  0  0  0
   58.3750   27.8190   46.8330 C   0  0  0  0  0  0  0  0  0  0  0  0
   59.4540   27.7040   47.4950 N   0  0  0  0  0  0  0  0  0  0  0  0
   60.7030   28.2730   47.0210 C   0  0  0  0  0  0  0  0  0  0  0  0
   60.7910   29.6000   47.7370 C   0  0  0  0  0  0  0  0  0  0  0  0
   60.1100   29.7950   48.9410 C   0  0  0  0  0  0  0  0  0  0  0  0
   60.1570   30.9750   49.6250 C   0  0  0  0  0  0  0  0  0  0  0  0
   60.8960   32.0240   49.1310 C   0  0  0  0  0  0  0  0  0  0  0  0
   61.5880   31.8560   47.9260 C   0  0  0  0  0  0  0  0  0  0  0  0
   62.5380   33.1800   47.2760 S   0  0  0  0  0  0  0  0  0  0  0  0
   64.1140   32.6860   46.8440 N   0  0  0  0  0  0  0  0  0  0  0  0
   62.5910   34.2400   48.3660 O   0  0  0  0  0  0  0  0  0  0  0  0
   61.8870   33.8240   46.0870 O   0  0  0  0  0  0  0  0  0  0  0  0
   61.5310   30.6450   47.2360 C   0  0  0  0  0  0  0  0  0  0  0  0
   57.4980   26.7840   46.7450 N   0  0  0  0  0  0  0  0  0  0  0  0
   55.2330   25.5240   45.0640 H   0  0  0  0  0  0  0  0  0  0  0  0
   55.1480   28.1470   44.8590 H   0  0  0  0  0  0  0  0  0  0  0  0
   58.1495   30.5682   43.6298 H   0  0  0  0  0  0  0  0  0  0  0  0
   56.6840   31.5770   43.2631 H   0  0  0  0  0  0  0  0  0  0  0  0
   57.4480   31.3563   46.8081 H   0  0  0  0  0  0  0  0  0  0  0  0
   58.3807   33.2779   48.0499 H   0  0  0  0  0  0  0  0  0  0  0  0
   59.2974   35.2372   46.8506 H   0  0  0  0  0  0  0  0  0  0  0  0
   59.2912   35.2926   44.3524 H   0  0  0  0  0  0  0  0  0  0  0  0
   58.3517   33.3539   43.1381 H   0  0  0  0  0  0  0  0  0  0  0  0
   58.7271   29.8354   46.2254 H   0  0  0  0  0  0  0  0  0  0  0  0
   61.5531   27.6275   47.2867 H   0  0  0  0  0  0  0  0  0  0  0  0
   60.7335   28.3781   45.9265 H   0  0  0  0  0  0  0  0  0  0  0  0
   59.5141   28.9672   49.3528 H   0  0  0  0  0  0  0  0  0  0  0  0
   59.6047   31.0867   50.5697 H   0  0  0  0  0  0  0  0  0  0  0  0
   60.9426   32.9796   49.6739 H   0  0  0  0  0  0  0  0  0  0  0  0
   64.8410   33.0620   47.4810 H   0  0  0  0  0  0  0  0  0  0  0  0
   64.2150   31.6720   46.7120 H   0  0  0  0  0  0  0  0  0  0  0  0
   62.0789   30.5259   46.2896 H   0  0  0  0  0  0  0  0  0  0  0  0
   57.7500   25.8940   47.2450 H   0  0  0  0  0  0  0  0  0  0  0  0
  1  2  2  3
  2  3  1  0
  3  4  1  0
  4  5  1  0
  5  6  1  0
  6  7  1  0
  7  8  2  0
  8  9  1  0
  9 10  2  0
 10 11  1  0
 11 12  2  0
  4 13  2  0
 13 14  1  0
 14 15  2  0
 15 16  1  0
 16 17  1  0
 17 18  2  0
 18 19  1  0
 19 20  2  0
 20 21  1  0
 21 22  1  0
 22 23  1  0
 22 24  2  0
 22 25  2  0
 21 26  2  0
 14 27  1  0
 27  2  1  0
 12  7  1  0
 26 17  1  0
  1 28  1  0
  3 29  1  0
  6 30  1  0
  6 31  1  0
  8 32  1  0
  9 33  1  0
 10 34  1  0
 11 35  1  0
 12 36  1  0
 13 37  1  0
 16 38  1  0
 16 39  1  0
 18 40  1  0
 19 41  1  0
 20 42  1  0
 23 43  1  0
 23 44  1  0
 26 45  1  0
 27 46  1  0
M  END
>  <smiles>  (70) 
N=c1[nH]c(OCc2ccccc2)cc(=NCc2cccc(S(N)(=O)=O)c2)[nH]1

>  <score_type>  (70) 
oracle

>  <origin>  (70) 
adg

>  <m_score__min__energy>  (70) 
-9.0500000000000007

>  <m_primary>  (70) 
energy

$$$$
70:0
     RDKit          3D

 60 63  0  0  0  0  0  0  0  0999 V2000
   57.2194   21.5229   41.9912 H   0  0  0  0  0  0  0  0  0  0  0  0
   57.0110   22.0240   42.9480 C   0  0  0  0  0  0  0  0  0  0  0  0
   56.0130   22.9970   43.0240 C   0  0  0  0  0  0  0  0  0  0  0  0
   55.4293   23.2556   42.1282 H   0  0  0  0  0  0  0  0  0  0  0  0
   57.0190   32.8640   44.8940 C   0  0  0  0  0  0  0  0  0  0  0  0
   56.0569   33.1576   44.4488 H   0  0  0  0  0  0  0  0  0  0  0  0
   57.5100   31.5640   44.7000 C   0  0  0  0  0  0  0  0  0  0  0  0
   56.7280   30.5720   43.8840 C   0  0  0  0  0  0  0  0  0  0  0  0
   57.4124   30.0310   43.2140 H   0  0  0  0  0  0  0  0  0  0  0  0
   55.9721   31.1076   43.2908 H   0  0  0  0  0  0  0  0  0  0  0  0
   56.0590   29.6180   44.7660 N   0  0  0  0  0  0  0  0  0  0  0  0
   56.5950   28.5430   45.2560 C   0  0  0  0  0  0  0  0  0  0  0  0
   57.9410   28.4830   45.4080 N   0  0  0  0  0  0  0  0  0  0  0  0
   58.5290   27.3700   45.9140 C   0  0  0  0  0  0  0  0  0  0  0  0
   59.8200   27.3390   46.0560 N   0  0  0  0  0  0  0  0  0  0  0  0
   60.5080   27.4220   47.3430 C   0  0  0  0  0  0  0  0  0  0  0  0
   61.5957   27.3926   47.1813 H   0  0  0  0  0  0  0  0  0  0  0  0
   60.2116   26.5726   47.9759 H   0  0  0  0  0  0  0  0  0  0  0  0
   60.1360   28.7080   48.0190 C   0  0  0  0  0  0  0  0  0  0  0  0
   61.0560   29.7670   48.0600 C   0  0  0  0  0  0  0  0  0  0  0  0
   62.0356   29.6595   47.5712 H   0  0  0  0  0  0  0  0  0  0  0  0
   60.7350   30.9570   48.7180 C   0  0  0  0  0  0  0  0  0  0  0  0
   61.4622   31.7820   48.7423 H   0  0  0  0  0  0  0  0  0  0  0  0
   59.4860   31.1060   49.3500 C   0  0  0  0  0  0  0  0  0  0  0  0
   59.1210   32.2770   50.0310 O   0  0  0  0  0  0  0  0  0  0  0  0
   58.1530   32.3290   51.0790 C   0  0  0  0  0  0  0  0  0  0  0  0
   58.6646   32.3015   52.0524 H   0  0  0  0  0  0  0  0  0  0  0  0
   57.5724   33.2596   50.9961 H   0  0  0  0  0  0  0  0  0  0  0  0
   57.4761   31.4659   50.9961 H   0  0  0  0  0  0  0  0  0  0  0  0
   58.5720   30.0470   49.3100 C   0  0  0  0  0  0  0  0  0  0  0  0
   57.5916   30.1544   49.7972 H   0  0  0  0  0  0  0  0  0  0  0  0
   58.8940   28.8530   48.6560 C   0  0  0  0  0  0  0  0  0  0  0  0
   58.1707   28.0244   48.6410 H   0  0  0  0  0  0  0  0  0  0  0  0
   57.7580   26.3100   46.2760 N   0  0  0  0  0  0  0  0  0  0  0  0
   56.4100   26.3610   46.1360 C   0  0  0  0  0  0  0  0  0  0  0  0
   55.6910   25.3440   46.5090 N   0  0  0  0  0  0  0  0  0  0  0  0
   56.1950   23.9830   46.6990 C   0  0  0  0  0  0  0  0  0  0  0  0
   57.1163   24.0235   47.2986 H   0  0  0  0  0  0  0  0  0  0  0  0
   55.4190   23.3963   47.2124 H   0  0  0  0  0  0  0  0  0  0  0  0
   56.4970   23.3170   45.3820 C   0  0  0  0  0  0  0  0  0  0  0  0
   55.7540   23.6430   44.2350 C   0  0  0  0  0  0  0  0  0  0  0  0
   54.9664   24.4089   44.2908 H   0  0  0  0  0  0  0  0  0  0  0  0
   57.7470   33.7890   45.6510 C   0  0  0  0  0  0  0  0  0  0  0  0
   57.3522   34.8044   45.8031 H   0  0  0  0  0  0  0  0  0  0  0  0
   58.9750   33.4270   46.2150 C   0  0  0  0  0  0  0  0  0  0  0  0
   59.8970   34.5970   47.1500 S   0  0  0  0  0  0  0  0  0  0  0  0
   59.6630   35.9800   46.6090 O   0  0  0  0  0  0  0  0  0  0  0  0
   61.3630   34.2840   47.0530 O   0  0  0  0  0  0  0  0  0  0  0  0
   59.3970   34.5290   48.8050 N   0  0  0  0  0  0  0  0  0  0  0  0
   58.5430   33.9240   48.8370 H   0  0  0  0  0  0  0  0  0  0  0  0
   60.1450   34.0190   49.3280 H   0  0  0  0  0  0  0  0  0  0  0  0
   59.4780   32.1360   46.0090 C   0  0  0  0  0  0  0  0  0  0  0  0
   60.4498   31.8514   46.4387 H   0  0  0  0  0  0  0  0  0  0  0  0
   57.4860   22.3230   45.3030 C   0  0  0  0  0  0  0  0  0  0  0  0
   58.0577   22.0451   46.2007 H   0  0  0  0  0  0  0  0  0  0  0  0
   55.8320   27.4790   45.6250 N   0  0  0  0  0  0  0  0  0  0  0  0
   58.7500   31.2090   45.2600 C   0  0  0  0  0  0  0  0  0  0  0  0
   59.1489   30.1953   45.1072 H   0  0  0  0  0  0  0  0  0  0  0  0
   57.7450   21.6870   44.0880 C   0  0  0  0  0  0  0  0  0  0  0  0
   58.5293   20.9181   44.0278 H   0  0  0  0  0  0  0  0  0  0  0  0
  1  2  1  0
  2  3  2  0
  3  4  1  0
  3  5  1  0
  5  6  1  0
  5  7  2  0
  7  8  1  0
  8  9  1  0
  8 10  1  0
  8 11  1  0
 11 12  2  0
 12 13  1  0
 13 14  1  0
 14 15  2  3
 15 16  1  0
 16 17  1  0
 16 18  1  0
 16 19  1  0
 19 20  2  0
 20 21  1  0
 20 22  1  0
 22 23  1  0
 22 24  2  0
 24 25  1  0
 25 26  1  0
 26 27  1  0
 26 28  1  0
 26 29  1  0
 24 30  1  0
 30 31  1  0
 30 32  2  0
 32 33  1  0
 14 34  1  0
 34 35  1  0
 35 36  2  0
 36 37  1  0
 37 38  1  0
 37 39  1  0
 37 40  1  0
 40 41  2  0
 41 42  1  0
 41 43  1  0
 43 44  1  0
 43 45  2  0
 45 46  1  0
 46 47  2  0
 46 48  2  0
 46 49  1  0
 49 50  1  0
 49 51  1  0
 45 52  1  0
 52 53  1  0
 52 54  2  0
 54 55  1  0
 35 56  1  0
  7 57  1  0
 57 58  1  0
 57 59  2  0
 59 60  1  0
 59  2  1  0
 56 12  1  0
 32 19  1  0
 54 40  1  0
M  CHG  3  13  -1  34  -1  56  -1
M  END
>  <UniqueID>  (71) 
68

>  <SMILES>  (71) 
COc1ccc(CN=c2[n-]/c(=N/Cc3ccccc3)[n-]/c(=N\Cc3ccc(S(N)(=O)=O)cc3)[n-]2)cc1

>  <Energy>  (71) 
59.094486043520526

>  <Genealogy>  (71) 
COc1ccc(CN=c2[n-]c(=NCc3ccccc3)[n-]c(=NCc3ccc(S(N)(=O)=O)cc3)[n-]2)cc1 (protonated)
COc1ccc(CN=c2[n-]/c(=N/Cc3ccccc3)[n-]/c(=N\Cc3ccc(S(N)(=O)=O)cc3)[n-]2)cc1 (cis-trans isomerization)
COc1ccc(CN=c2[n-]/c(=N/Cc3ccccc3)[n-]/c(=N\Cc3ccc(S(N)(=O)=O)cc3)[n-]2)cc1 (3D coordinates assigned)
COc1ccc(CN=c2[n-]/c(=N/Cc3ccccc3)[n-]/c(=N\Cc3ccc(S(N)(=O)=O)cc3)[n-]2)cc1 (optimized conformer: 59.094486043520526 kcal/mol)

>  <smiles>  (71) 
COc1ccc(CN=c2[nH]c(=NCc3ccccc3)[nH]c(=NCc3ccc(S(N)(=O)=O)cc3)[nH]2)cc1

>  <score_type>  (71) 
oracle

>  <origin>  (71) 
adg

>  <m_score__min__energy>  (71) 
-14.92

>  <m_primary>  (71) 
energy

$$$$
71:0
     RDKit          3D

 39 43  0  0  0  0  0  0  0  0999 V2000
   58.7190   25.1890   46.0350 O   0  0  0  0  0  0  0  0  0  0  0  0
   58.2800   26.3260   45.9670 C   0  0  0  0  0  0  0  0  0  0  0  0
   58.1200   27.1410   47.2260 C   0  0  0  0  0  0  0  0  0  0  0  0
   58.5880   28.5900   47.0220 C   0  0  0  0  0  0  0  0  0  0  0  0
   58.0240   29.1740   45.7520 C   0  0  0  0  0  0  0  0  0  0  0  0
   57.6790   28.3590   44.6680 C   0  0  0  0  0  0  0  0  0  0  0  0
   57.1430   29.3050   43.3740 S   0  0  0  0  0  0  0  0  0  0  0  0
   57.3670   30.7560   44.1850 C   0  0  0  0  0  0  0  0  0  0  0  0
   57.1320   31.9920   43.6950 N   0  0  0  0  0  0  0  0  0  0  0  0
   57.3970   33.0750   44.4730 C   0  0  0  0  0  0  0  0  0  0  0  0
   57.9190   32.9250   45.7360 N   0  0  0  0  0  0  0  0  0  0  0  0
   58.1650   34.1260   46.5490 C   0  0  0  0  0  0  0  0  0  0  0  0
   59.5350   34.0680   47.1480 C   0  0  0  0  0  0  0  0  0  0  0  0
   60.7130   33.8050   46.4490 C   0  0  0  0  0  0  0  0  0  0  0  0
   61.8260   33.7350   47.2930 C   0  0  0  0  0  0  0  0  0  0  0  0
   63.1440   33.4900   46.9000 C   0  0  0  0  0  0  0  0  0  0  0  0
   64.1460   33.4450   47.8850 C   0  0  0  0  0  0  0  0  0  0  0  0
   63.8230   33.6420   49.2420 C   0  0  0  0  0  0  0  0  0  0  0  0
   62.4940   33.8850   49.6260 C   0  0  0  0  0  0  0  0  0  0  0  0
   61.5190   33.9270   48.6320 C   0  0  0  0  0  0  0  0  0  0  0  0
   59.8700   34.1850   48.8030 S   0  0  0  0  0  0  0  0  0  0  0  0
   58.1560   31.6680   46.2450 C   0  0  0  0  0  0  0  0  0  0  0  0
   58.6370   31.5280   47.4030 O   0  0  0  0  0  0  0  0  0  0  0  0
   57.8660   30.5460   45.4550 C   0  0  0  0  0  0  0  0  0  0  0  0
   57.8230   26.8670   44.6350 C   0  0  0  0  0  0  0  0  0  0  0  0
   57.0590   27.1456   47.5164 H   0  0  0  0  0  0  0  0  0  0  0  0
   58.7394   26.6858   48.0128 H   0  0  0  0  0  0  0  0  0  0  0  0
   58.2536   29.1981   47.8754 H   0  0  0  0  0  0  0  0  0  0  0  0
   59.6855   28.5933   46.9482 H   0  0  0  0  0  0  0  0  0  0  0  0
   57.1911   34.0843   44.0870 H   0  0  0  0  0  0  0  0  0  0  0  0
   58.0834   35.0195   45.9126 H   0  0  0  0  0  0  0  0  0  0  0  0
   57.4199   34.1735   47.3568 H   0  0  0  0  0  0  0  0  0  0  0  0
   60.7611   33.6683   45.3586 H   0  0  0  0  0  0  0  0  0  0  0  0
   63.3931   33.3352   45.8398 H   0  0  0  0  0  0  0  0  0  0  0  0
   65.1896   33.2546   47.5941 H   0  0  0  0  0  0  0  0  0  0  0  0
   64.6152   33.6053   50.0043 H   0  0  0  0  0  0  0  0  0  0  0  0
   62.2303   34.0380   50.6829 H   0  0  0  0  0  0  0  0  0  0  0  0
   56.8504   26.4196   44.3821 H   0  0  0  0  0  0  0  0  0  0  0  0
   58.5805   26.6100   43.8799 H   0  0  0  0  0  0  0  0  0  0  0  0
  1  2  2  0
  2  3  1  0
  3  4  1  0
  4  5  1  0
  5  6  2  0
  6  7  1  0
  7  8  1  0
  8  9  1  0
  9 10  2  0
 10 11  1  0
 11 12  1  0
 12 13  1  0
 13 14  2  0
 14 15  1  0
 15 16  2  0
 16 17  1  0
 17 18  2  0
 18 19  1  0
 19 20  2  0
 20 21  1  0
 11 22  1  0
 22 23  2  0
 22 24  1  0
  6 25  1  0
 25  2  1  0
 24  5  1  0
 24  8  2  0
 21 13  1  0
 20 15  1  0
  3 26  1  0
  3 27  1  0
  4 28  1  0
  4 29  1  0
 10 30  1  0
 12 31  1  0
 12 32  1  0
 14 33  1  0
 16 34  1  0
 17 35  1  0
 18 36  1  0
 19 37  1  0
 25 38  1  0
 25 39  1  0
M  END
>  <UniqueID>  (72) 
69

>  <SMILES>  (72) 
O=C1CCc2c(sc3ncn(Cc4cc5ccccc5s4)c(=O)c23)C1

>  <Energy>  (72) 
111.33847623106976

>  <Genealogy>  (72) 
O=C1CCc2c(sc3ncn(Cc4cc5ccccc5s4)c(=O)c23)C1 (3D coordinates assigned)
O=C1CCc2c(sc3ncn(Cc4cc5ccccc5s4)c(=O)c23)C1 (nonaromatic ring conformer: 111.33847623106976 kcal/mol)

>  <smiles>  (72) 
O=C1CCc2c(sc3ncn(Cc4cc5ccccc5s4)c(=O)c23)C1

>  <score_type>  (72) 
oracle

>  <origin>  (72) 
adg

>  <m_score__min__energy>  (72) 
-8.6400000000000006

>  <m_primary>  (72) 
energy

$$$$
72:0
     RDKit          3D

 57 60  0  0  0  0  0  0  0  0999 V2000
   60.3520   26.3340   46.0770 C   0  0  0  0  0  0  0  0  0  0  0  0
   59.6970   27.4450   46.7700 N   0  0  0  0  0  0  0  0  0  0  0  0
   59.9900   27.6980   48.1590 C   0  0  0  0  0  0  0  0  0  0  0  0
   60.2450   26.7350   48.9320 O   0  0  0  0  0  0  0  0  0  0  0  0
   59.9570   29.0670   48.7060 C   0  0  0  0  0  0  0  0  0  0  0  0
   60.6930   30.0940   48.0970 C   0  0  0  0  0  0  0  0  0  0  0  0
   60.6200   31.3990   48.5890 C   0  0  0  0  0  0  0  0  0  0  0  0
   59.8030   31.6910   49.6830 C   0  0  0  0  0  0  0  0  0  0  0  0
   59.0670   30.6720   50.3030 C   0  0  0  0  0  0  0  0  0  0  0  0
   57.9430   31.0480   51.6010 S   0  0  0  0  0  0  0  0  0  0  0  0
   57.1550   32.2860   51.2750 O   0  0  0  0  0  0  0  0  0  0  0  0
   58.7160   31.2960   52.8650 O   0  0  0  0  0  0  0  0  0  0  0  0
   56.8510   29.7270   51.8530 N   0  0  0  0  0  0  0  0  0  0  0  0
   55.5370   29.9200   52.3790 C   0  0  0  0  0  0  0  0  0  0  0  0
   54.6130   30.6830   51.6530 C   0  0  0  0  0  0  0  0  0  0  0  0
   53.3250   30.8950   52.1560 C   0  0  0  0  0  0  0  0  0  0  0  0
   52.9610   30.3580   53.3950 C   0  0  0  0  0  0  0  0  0  0  0  0
   53.8850   29.6150   54.1330 C   0  0  0  0  0  0  0  0  0  0  0  0
   55.1730   29.3990   53.6320 C   0  0  0  0  0  0  0  0  0  0  0  0
   56.0690   28.7210   54.3870 F   0  0  0  0  0  0  0  0  0  0  0  0
   59.1590   29.3570   49.8230 C   0  0  0  0  0  0  0  0  0  0  0  0
   58.5690   28.0820   46.1410 C   0  0  0  0  0  0  0  0  0  0  0  0
   58.7180   29.2650   45.3820 C   0  0  0  0  0  0  0  0  0  0  0  0
   60.0120   29.8900   45.3120 N   0  0  0  0  0  0  0  0  0  0  0  0
   57.6210   29.8150   44.7480 N   0  0  0  0  0  0  0  0  0  0  0  0
   57.7360   31.0740   43.9760 C   0  0  0  0  0  0  0  0  0  0  0  0
   58.0060   32.2470   44.8860 C   0  0  0  0  0  0  0  0  0  0  0  0
   57.8180   32.1310   46.2740 C   0  0  0  0  0  0  0  0  0  0  0  0
   58.0800   33.2170   47.1150 C   0  0  0  0  0  0  0  0  0  0  0  0
   58.5430   34.4220   46.5820 C   0  0  0  0  0  0  0  0  0  0  0  0
   58.7520   34.5400   45.2060 C   0  0  0  0  0  0  0  0  0  0  0  0
   58.4920   33.4560   44.3610 C   0  0  0  0  0  0  0  0  0  0  0  0
   56.3920   29.2070   44.8740 C   0  0  0  0  0  0  0  0  0  0  0  0
   55.3700   29.6860   44.3110 O   0  0  0  0  0  0  0  0  0  0  0  0
   56.2510   28.0850   45.6190 N   0  0  0  0  0  0  0  0  0  0  0  0
   57.2990   27.5160   46.2530 C   0  0  0  0  0  0  0  0  0  0  0  0
   57.1200   26.4700   46.9330 O   0  0  0  0  0  0  0  0  0  0  0  0
   60.7653   25.6329   46.8170 H   0  0  0  0  0  0  0  0  0  0  0  0
   59.6177   25.8111   45.4467 H   0  0  0  0  0  0  0  0  0  0  0  0
   61.1651   26.7233   45.4467 H   0  0  0  0  0  0  0  0  0  0  0  0
   61.3301   29.8707   47.2286 H   0  0  0  0  0  0  0  0  0  0  0  0
   61.2073   32.1985   48.1137 H   0  0  0  0  0  0  0  0  0  0  0  0
   59.7369   32.7226   50.0590 H   0  0  0  0  0  0  0  0  0  0  0  0
   54.9013   31.1168   50.6842 H   0  0  0  0  0  0  0  0  0  0  0  0
   52.5985   31.4841   51.5770 H   0  0  0  0  0  0  0  0  0  0  0  0
   51.9467   30.5209   53.7883 H   0  0  0  0  0  0  0  0  0  0  0  0
   53.5993   29.1988   55.1103 H   0  0  0  0  0  0  0  0  0  0  0  0
   58.6036   28.5505   50.3241 H   0  0  0  0  0  0  0  0  0  0  0  0
   60.2140   30.8280   45.7100 H   0  0  0  0  0  0  0  0  0  0  0  0
   60.8220   29.4140   44.8600 H   0  0  0  0  0  0  0  0  0  0  0  0
   58.5627   30.9799   43.2565 H   0  0  0  0  0  0  0  0  0  0  0  0
   56.7851   31.2503   43.4518 H   0  0  0  0  0  0  0  0  0  0  0  0
   57.4631   31.1813   46.7008 H   0  0  0  0  0  0  0  0  0  0  0  0
   57.9210   33.1220   48.1993 H   0  0  0  0  0  0  0  0  0  0  0  0
   58.7428   35.2769   47.2448 H   0  0  0  0  0  0  0  0  0  0  0  0
   59.1217   35.4871   44.7861 H   0  0  0  0  0  0  0  0  0  0  0  0
   58.6691   33.5508   43.2795 H   0  0  0  0  0  0  0  0  0  0  0  0
  1  2  1  0
  2  3  1  0
  3  4  2  0
  3  5  1  0
  5  6  2  0
  6  7  1  0
  7  8  2  0
  8  9  1  0
  9 10  1  0
 10 11  2  0
 10 12  2  0
 10 13  1  0
 13 14  1  0
 14 15  2  0
 15 16  1  0
 16 17  2  0
 17 18  1  0
 18 19  2  0
 19 20  1  0
  9 21  2  0
  2 22  1  0
 22 23  2  0
 23 24  1  0
 23 25  1  0
 25 26  1  0
 26 27  1  0
 27 28  2  0
 28 29  1  0
 29 30  2  0
 30 31  1  0
 31 32  2  0
 25 33  1  0
 33 34  2  0
 33 35  1  0
 35 36  1  0
 36 37  2  0
 21  5  1  0
 36 22  1  0
 19 14  1  0
 32 27  1  0
  1 38  1  0
  1 39  1  0
  1 40  1  0
  6 41  1  0
  7 42  1  0
  8 43  1  0
 15 44  1  0
 16 45  1  0
 17 46  1  0
 18 47  1  0
 21 48  1  0
 24 49  1  0
 24 50  1  0
 26 51  1  0
 26 52  1  0
 28 53  1  0
 29 54  1  0
 30 55  1  0
 31 56  1  0
 32 57  1  0
M  CHG  2  13  -1  35  -1
M  END
>  <UniqueID>  (73) 
70

>  <SMILES>  (73) 
CN(C(=O)c1cccc(S(=O)(=O)[N-]c2ccccc2F)c1)c1c(N)n(Cc2ccccc2)c(=O)[n-]c1=O

>  <Energy>  (73) 
86.21335464297302

>  <Genealogy>  (73) 
CN(C(=O)c1cccc(S(=O)(=O)[N-]c2ccccc2F)c1)c1c(N)n(Cc2ccccc2)c(=O)[n-]c1=O (protonated)
CN(C(=O)c1cccc(S(=O)(=O)[N-]c2ccccc2F)c1)c1c(N)n(Cc2ccccc2)c(=O)[n-]c1=O (3D coordinates assigned)
CN(C(=O)c1cccc(S(=O)(=O)[N-]c2ccccc2F)c1)c1c(N)n(Cc2ccccc2)c(=O)[n-]c1=O (optimized conformer: 86.21335464297302 kcal/mol)

>  <smiles>  (73) 
CN(C(=O)c1cccc(S(=O)(=O)Nc2ccccc2F)c1)c1c(N)n(Cc2ccccc2)c(=O)[nH]c1=O

>  <score_type>  (73) 
oracle

>  <origin>  (73) 
adg

>  <m_score__min__energy>  (73) 
-12.140000000000001

>  <m_primary>  (73) 
energy

$$$$
73:0
     RDKit          3D

 49 51  0  0  0  0  0  0  0  0999 V2000
   58.6510   33.6550   47.2470 C   0  0  0  0  0  0  0  0  0  0  0  0
   58.8370   32.8010   46.0750 N   0  0  0  0  0  0  0  0  0  0  0  0
   59.6270   31.5650   46.1530 C   0  0  0  0  0  0  0  0  0  0  0  0
   60.7530   31.7150   47.1500 C   0  0  0  0  0  0  0  0  0  0  0  0
   61.6270   32.8180   47.0700 C   0  0  0  0  0  0  0  0  0  0  0  0
   61.4420   33.8000   46.1010 O   0  0  0  0  0  0  0  0  0  0  0  0
   62.6950   32.9390   47.9630 C   0  0  0  0  0  0  0  0  0  0  0  0
   62.9090   31.9660   48.9380 C   0  0  0  0  0  0  0  0  0  0  0  0
   62.0590   30.8620   49.0240 C   0  0  0  0  0  0  0  0  0  0  0  0
   60.9830   30.7190   48.1250 C   0  0  0  0  0  0  0  0  0  0  0  0
   60.1400   29.5950   48.1530 O   0  0  0  0  0  0  0  0  0  0  0  0
   60.4920   28.2930   47.6920 C   0  0  0  0  0  0  0  0  0  0  0  0
   59.4920   27.8340   46.6690 C   0  0  0  0  0  0  0  0  0  0  0  0
   59.6950   28.1110   45.3080 C   0  0  0  0  0  0  0  0  0  0  0  0
   58.7700   27.6770   44.3580 C   0  0  0  0  0  0  0  0  0  0  0  0
   57.6340   26.9670   44.7530 C   0  0  0  0  0  0  0  0  0  0  0  0
   57.4020   26.6960   46.1150 C   0  0  0  0  0  0  0  0  0  0  0  0
   56.1990   25.9370   46.5370 C   0  0  0  0  0  0  0  0  0  0  0  0
   54.9250   26.2150   45.9580 N   0  0  0  0  0  0  0  0  0  0  0  0
   56.2920   25.0320   47.4090 O   0  0  0  0  0  0  0  0  0  0  0  0
   58.3340   27.1470   47.0660 C   0  0  0  0  0  0  0  0  0  0  0  0
   58.0530   33.0640   44.9040 C   0  0  0  0  0  0  0  0  0  0  0  0
   57.9360   34.2530   44.5010 O   0  0  0  0  0  0  0  0  0  0  0  0
   57.3850   31.9660   44.1670 C   0  0  0  0  0  0  0  0  0  0  0  0
   57.5160   31.8500   42.7710 C   0  0  0  0  0  0  0  0  0  0  0  0
   56.9160   30.7870   42.0900 C   0  0  0  0  0  0  0  0  0  0  0  0
   56.1660   29.8390   42.7880 C   0  0  0  0  0  0  0  0  0  0  0  0
   56.0110   29.9540   44.1720 C   0  0  0  0  0  0  0  0  0  0  0  0
   55.2570   29.0130   44.8650 O   0  0  0  0  0  0  0  0  0  0  0  0
   56.6160   31.0120   44.8590 C   0  0  0  0  0  0  0  0  0  0  0  0
   58.7813   33.0569   48.1609 H   0  0  0  0  0  0  0  0  0  0  0  0
   59.3935   34.4665   47.2309 H   0  0  0  0  0  0  0  0  0  0  0  0
   57.6383   34.0842   47.2309 H   0  0  0  0  0  0  0  0  0  0  0  0
   58.9737   30.7377   46.4673 H   0  0  0  0  0  0  0  0  0  0  0  0
   60.0564   31.3556   45.1622 H   0  0  0  0  0  0  0  0  0  0  0  0
   63.3694   33.8054   47.8963 H   0  0  0  0  0  0  0  0  0  0  0  0
   63.7490   32.0683   49.6408 H   0  0  0  0  0  0  0  0  0  0  0  0
   62.2300   30.0992   49.7979 H   0  0  0  0  0  0  0  0  0  0  0  0
   61.4932   28.3237   47.2374 H   0  0  0  0  0  0  0  0  0  0  0  0
   60.4946   27.5930   48.5405 H   0  0  0  0  0  0  0  0  0  0  0  0
   60.5860   28.6719   44.9895 H   0  0  0  0  0  0  0  0  0  0  0  0
   58.9362   27.8951   43.2927 H   0  0  0  0  0  0  0  0  0  0  0  0
   56.9166   26.6176   43.9958 H   0  0  0  0  0  0  0  0  0  0  0  0
   54.8430   26.7500   45.0620 H   0  0  0  0  0  0  0  0  0  0  0  0
   58.1535   26.9592   48.1347 H   0  0  0  0  0  0  0  0  0  0  0  0
   58.0942   32.6005   42.2120 H   0  0  0  0  0  0  0  0  0  0  0  0
   57.0353   30.6972   41.0002 H   0  0  0  0  0  0  0  0  0  0  0  0
   55.6975   29.0023   42.2492 H   0  0  0  0  0  0  0  0  0  0  0  0
   56.4896   31.0988   45.9483 H   0  0  0  0  0  0  0  0  0  0  0  0
  1  2  1  0
  2  3  1  0
  3  4  1  0
  4  5  2  0
  5  6  1  0
  5  7  1  0
  7  8  2  0
  8  9  1  0
  9 10  2  0
 10 11  1  0
 11 12  1  0
 12 13  1  0
 13 14  2  0
 14 15  1  0
 15 16  2  0
 16 17  1  0
 17 18  1  0
 18 19  1  0
 18 20  2  0
 17 21  2  0
  2 22  1  0
 22 23  2  0
 22 24  1  0
 24 25  2  0
 25 26  1  0
 26 27  2  0
 27 28  1  0
 28 29  1  0
 28 30  2  0
 10  4  1  0
 21 13  1  0
 30 24  1  0
  1 31  1  0
  1 32  1  0
  1 33  1  0
  3 34  1  0
  3 35  1  0
  7 36  1  0
  8 37  1  0
  9 38  1  0
 12 39  1  0
 12 40  1  0
 14 41  1  0
 15 42  1  0
 16 43  1  0
 19 44  1  0
 21 45  1  0
 25 46  1  0
 26 47  1  0
 27 48  1  0
 30 49  1  0
M  CHG  3   6  -1  19  -1  29  -1
M  END
>  <UniqueID>  (74) 
71

>  <SMILES>  (74) 
CN(Cc1c([O-])cccc1OCc1cccc(C([NH-])=O)c1)C(=O)c1cccc([O-])c1

>  <Energy>  (74) 
51.78445158212127

>  <Genealogy>  (74) 
CN(Cc1c([O-])cccc1OCc1cccc(C([NH-])=O)c1)C(=O)c1cccc([O-])c1 (protonated)
CN(Cc1c([O-])cccc1OCc1cccc(C([NH-])=O)c1)C(=O)c1cccc([O-])c1 (3D coordinates assigned)
CN(Cc1c([O-])cccc1OCc1cccc(C([NH-])=O)c1)C(=O)c1cccc([O-])c1 (optimized conformer: 51.78445158212127 kcal/mol)

>  <smiles>  (74) 
CN(Cc1c(O)cccc1OCc1cccc(C(N)=O)c1)C(=O)c1cccc(O)c1

>  <score_type>  (74) 
oracle

>  <origin>  (74) 
adg

>  <m_score__min__energy>  (74) 
-15.949999999999999

>  <m_primary>  (74) 
energy

$$$$
74:0
     RDKit          3D

 46 49  0  0  0  0  0  0  0  0999 V2000
   56.6330   30.5140   45.7500 H   0  0  0  0  0  0  0  0  0  0  0  0
   56.9080   29.6900   45.2310 O   0  0  0  0  0  0  0  0  0  0  0  0
   56.9100   28.4260   45.8140 C   0  0  0  0  0  0  0  0  0  0  0  0
   55.9440   27.5130   45.6000 N   0  0  0  0  0  0  0  0  0  0  0  0
   56.3930   26.4510   46.3010 C   0  0  0  0  0  0  0  0  0  0  0  0
   55.7690   25.3600   46.3650 O   0  0  0  0  0  0  0  0  0  0  0  0
   57.5400   26.6590   46.9070 O   0  0  0  0  0  0  0  0  0  0  0  0
   57.8870   27.8930   46.6350 C   0  0  0  0  0  0  0  0  0  0  0  0
   59.1350   28.5170   47.1030 C   0  0  0  0  0  0  0  0  0  0  0  0
   60.0789   28.1952   46.6387 H   0  0  0  0  0  0  0  0  0  0  0  0
   59.1920   29.4540   48.0610 C   0  0  0  0  0  0  0  0  0  0  0  0
   58.5380   29.4280   49.2920 C   0  0  0  0  0  0  0  0  0  0  0  0
   57.8774   28.6372   49.6772 H   0  0  0  0  0  0  0  0  0  0  0  0
   58.8930   30.6040   49.9280 C   0  0  0  0  0  0  0  0  0  0  0  0
   59.7710   31.2560   49.0930 C   0  0  0  0  0  0  0  0  0  0  0  0
   59.9520   30.5670   47.9520 N   0  0  0  0  0  0  0  0  0  0  0  0
   60.5610   30.8380   47.1470 H   0  0  0  0  0  0  0  0  0  0  0  0
   60.3560   32.4170   49.4000 C   0  0  0  0  0  0  0  0  0  0  0  0
   60.9922   32.9266   48.6614 H   0  0  0  0  0  0  0  0  0  0  0  0
   60.1410   33.0280   50.7650 C   0  0  0  0  0  0  0  0  0  0  0  0
   60.1838   34.1234   50.6746 H   0  0  0  0  0  0  0  0  0  0  0  0
   60.9300   32.6531   51.4335 H   0  0  0  0  0  0  0  0  0  0  0  0
   58.7750   32.6300   51.3680 C   0  0  0  0  0  0  0  0  0  0  0  0
   57.9761   33.1316   50.8022 H   0  0  0  0  0  0  0  0  0  0  0  0
   58.7642   32.9380   52.4240 H   0  0  0  0  0  0  0  0  0  0  0  0
   58.5460   31.1010   51.3100 C   0  0  1  0  0  0  0  0  0  0  0  0
   59.2035   30.5810   52.0222 H   0  0  0  0  0  0  0  0  0  0  0  0
   57.1330   30.7750   51.7200 C   0  0  0  0  0  0  0  0  0  0  0  0
   56.1750   31.5010   51.3340 O   0  0  0  0  0  0  0  0  0  0  0  0
   56.9180   29.7230   52.6720 N   0  0  0  0  0  0  0  0  0  0  0  0
   55.9060   28.9050   52.7390 C   0  0  0  0  0  0  0  0  0  0  0  0
   55.9357   27.9993   52.1154 H   0  0  0  0  0  0  0  0  0  0  0  0
   54.6990   29.1170   53.6130 C   0  0  0  0  0  0  0  0  0  0  0  0
   54.2030   28.1500   53.7829 H   0  0  0  0  0  0  0  0  0  0  0  0
   55.0286   29.5527   54.5678 H   0  0  0  0  0  0  0  0  0  0  0  0
   53.7230   30.0650   52.9620 C   0  0  0  0  0  0  0  0  0  0  0  0
   52.7560   30.7370   53.7270 C   0  0  0  0  0  0  0  0  0  0  0  0
   52.7052   30.5725   54.8134 H   0  0  0  0  0  0  0  0  0  0  0  0
   51.8570   31.6150   53.1120 C   0  0  0  0  0  0  0  0  0  0  0  0
   51.1044   32.1417   53.7171 H   0  0  0  0  0  0  0  0  0  0  0  0
   51.9120   31.8250   51.7320 C   0  0  0  0  0  0  0  0  0  0  0  0
   51.0200   32.7000   51.1260 O   0  0  0  0  0  0  0  0  0  0  0  0
   52.8630   31.1510   50.9610 C   0  0  0  0  0  0  0  0  0  0  0  0
   52.9042   31.3129   49.8738 H   0  0  0  0  0  0  0  0  0  0  0  0
   53.7620   30.2710   51.5710 C   0  0  0  0  0  0  0  0  0  0  0  0
   54.5041   29.7366   50.9597 H   0  0  0  0  0  0  0  0  0  0  0  0
  1  2  1  0
  2  3  1  0
  3  4  1  0
  4  5  1  0
  5  6  2  0
  5  7  1  0
  7  8  1  0
  8  9  1  0
  9 10  1  0
  9 11  2  0
 11 12  1  0
 12 13  1  0
 12 14  2  0
 14 15  1  0
 15 16  1  0
 16 17  1  0
 15 18  2  0
 18 19  1  0
 18 20  1  0
 20 21  1  0
 20 22  1  0
 20 23  1  0
 23 24  1  0
 23 25  1  0
 23 26  1  0
 26 27  1  1
 26 28  1  0
 28 29  2  0
 28 30  1  0
 30 31  2  0
 31 32  1  0
 31 33  1  0
 33 34  1  0
 33 35  1  0
 33 36  1  0
 36 37  2  0
 37 38  1  0
 37 39  1  0
 39 40  1  0
 39 41  2  0
 41 42  1  0
 41 43  1  0
 43 44  1  0
 43 45  2  0
 45 46  1  0
  8  3  2  0
 16 11  1  0
 45 36  1  0
 26 14  1  0
M  CHG  2   4  -1  42  -1
M  END
>  <UniqueID>  (75) 
72

>  <SMILES>  (75) 
O=C(/N=C\Cc1ccc([O-])cc1)[C@@H]1CCC=c2[nH]/c(=C/c3oc(=O)[n-]c3O)cc21

>  <Energy>  (75) 
116.35012159660025

>  <Genealogy>  (75) 
O=C(N=CCc1ccc([O-])cc1)C1CCC=c2[nH]c(=Cc3oc(=O)[n-]c3O)cc21 (protonated)
O=C(N=CCc1ccc([O-])cc1)[C@@H]1CCC=c2[nH]c(=Cc3oc(=O)[n-]c3O)cc21 (chirality)
O=C(/N=C\Cc1ccc([O-])cc1)[C@@H]1CCC=c2[nH]/c(=C/c3oc(=O)[n-]c3O)cc21 (cis-trans isomerization)
O=C(/N=C\Cc1ccc([O-])cc1)[C@@H]1CCC=c2[nH]/c(=C/c3oc(=O)[n-]c3O)cc21 (3D coordinates assigned)
O=C(/N=C\Cc1ccc([O-])cc1)[C@@H]1CCC=c2[nH]/c(=C/c3oc(=O)[n-]c3O)cc21 (nonaromatic ring conformer: 116.35012159660025 kcal/mol)

>  <smiles>  (75) 
O=C(N=CCc1ccc(O)cc1)C1CCC=c2[nH]c(=Cc3oc(=O)[nH]c3O)cc21

>  <score_type>  (75) 
oracle

>  <origin>  (75) 
adg

>  <m_score__min__energy>  (75) 
-14.51

>  <m_primary>  (75) 
energy

$$$$
75:0
     RDKit          3D

 31 32  0  0  0  0  0  0  0  0999 V2000
   60.8090   29.7780   47.7640 C   0  0  0  0  0  0  0  0  0  0  0  0
   60.0500   28.5470   48.8030 S   0  0  0  0  0  0  0  0  0  0  0  0
   59.0020   29.1710   49.6800 O   0  0  0  0  0  0  0  0  0  0  0  0
   61.1100   27.9420   49.6800 O   0  0  0  0  0  0  0  0  0  0  0  0
   59.3490   27.2850   47.8340 N   0  0  0  0  0  0  0  0  0  0  0  0
   58.2710   27.3620   47.1050 C   0  0  0  0  0  0  0  0  0  0  0  0
   57.4050   26.2640   47.0770 C   0  0  0  0  0  0  0  0  0  0  0  0
   56.2370   26.3190   46.3140 C   0  0  0  0  0  0  0  0  0  0  0  0
   55.9350   27.4400   45.6090 N   0  0  0  0  0  0  0  0  0  0  0  0
   56.7430   28.5360   45.6160 C   0  0  0  0  0  0  0  0  0  0  0  0
   56.3520   29.7210   44.8210 C   0  0  0  0  0  0  0  0  0  0  0  0
   55.1450   29.8620   44.4920 O   0  0  0  0  0  0  0  0  0  0  0  0
   57.3050   30.6960   44.3750 N   0  0  0  0  0  0  0  0  0  0  0  0
   57.7380   31.8550   45.1040 C   0  0  0  0  0  0  0  0  0  0  0  0
   57.6830   33.1080   44.4820 C   0  0  0  0  0  0  0  0  0  0  0  0
   58.1030   34.2530   45.1650 C   0  0  0  0  0  0  0  0  0  0  0  0
   58.5660   34.1550   46.4800 C   0  0  0  0  0  0  0  0  0  0  0  0
   58.6020   32.9120   47.1170 C   0  0  0  0  0  0  0  0  0  0  0  0
   58.1820   31.7640   46.4370 C   0  0  0  0  0  0  0  0  0  0  0  0
   57.9410   28.5050   46.3490 C   0  0  0  0  0  0  0  0  0  0  0  0
   61.2829   30.5465   48.3923 H   0  0  0  0  0  0  0  0  0  0  0  0
   61.5710   29.3026   47.1289 H   0  0  0  0  0  0  0  0  0  0  0  0
   60.0420   30.2453   47.1289 H   0  0  0  0  0  0  0  0  0  0  0  0
   57.6436   25.3590   47.6549 H   0  0  0  0  0  0  0  0  0  0  0  0
   55.5599   25.4526   46.2838 H   0  0  0  0  0  0  0  0  0  0  0  0
   57.3077   33.1918   43.4514 H   0  0  0  0  0  0  0  0  0  0  0  0
   58.0690   35.2330   44.6665 H   0  0  0  0  0  0  0  0  0  0  0  0
   58.9020   35.0564   47.0134 H   0  0  0  0  0  0  0  0  0  0  0  0
   58.9609   32.8361   48.1540 H   0  0  0  0  0  0  0  0  0  0  0  0
   58.1986   30.7883   46.9447 H   0  0  0  0  0  0  0  0  0  0  0  0
   58.6198   29.3704   46.3330 H   0  0  0  0  0  0  0  0  0  0  0  0
  1  2  1  0
  2  3  2  0
  2  4  2  0
  2  5  1  0
  5  6  2  3
  6  7  1  0
  7  8  2  0
  8  9  1  0
  9 10  1  0
 10 11  1  0
 11 12  2  0
 11 13  1  0
 13 14  1  0
 14 15  2  0
 15 16  1  0
 16 17  2  0
 17 18  1  0
 18 19  2  0
 10 20  2  0
 20  6  1  0
 19 14  1  0
  1 21  1  0
  1 22  1  0
  1 23  1  0
  7 24  1  0
  8 25  1  0
 15 26  1  0
 16 27  1  0
 17 28  1  0
 18 29  1  0
 19 30  1  0
 20 31  1  0
M  CHG  2   9  -1  13  -1
M  END
>  <UniqueID>  (76) 
73

>  <SMILES>  (76) 
CS(=O)(=O)N=c1cc[n-]c(C(=O)[N-]c2ccccc2)c1

>  <Energy>  (76) 
38.72644437311029

>  <Genealogy>  (76) 
CS(=O)(=O)N=c1cc[n-]c(C(=O)[N-]c2ccccc2)c1 (protonated)
CS(=O)(=O)N=c1cc[n-]c(C(=O)[N-]c2ccccc2)c1 (3D coordinates assigned)
CS(=O)(=O)N=c1cc[n-]c(C(=O)[N-]c2ccccc2)c1 (optimized conformer: 38.72644437311029 kcal/mol)

>  <smiles>  (76) 
CS(=O)(=O)N=c1cc[nH]c(C(=O)Nc2ccccc2)c1

>  <score_type>  (76) 
oracle

>  <origin>  (76) 
adg

>  <m_score__min__energy>  (76) 
-11.16

>  <m_primary>  (76) 
energy

$$$$
76:0
     RDKit          3D

 45 47  0  0  0  0  0  0  0  0999 V2000
   56.9330   26.0620   47.1750 O   0  0  0  0  0  0  0  0  0  0  0  0
   56.3790   26.3590   46.0830 C   0  0  0  0  0  0  0  0  0  0  0  0
   54.9710   26.1640   45.9390 N   0  0  0  0  0  0  0  0  0  0  0  0
   54.3780   24.8700   45.6200 C   0  0  0  0  0  0  0  0  0  0  0  0
   55.4210   23.9390   45.0630 C   0  0  0  0  0  0  0  0  0  0  0  0
   56.3310   23.3050   45.9250 C   0  0  0  0  0  0  0  0  0  0  0  0
   57.3250   22.4690   45.4080 C   0  0  0  0  0  0  0  0  0  0  0  0
   57.4210   22.2630   44.0290 C   0  0  0  0  0  0  0  0  0  0  0  0
   56.5210   22.8910   43.1650 C   0  0  0  0  0  0  0  0  0  0  0  0
   55.5230   23.7270   43.6780 C   0  0  0  0  0  0  0  0  0  0  0  0
   57.1190   26.9160   45.0340 O   0  0  0  0  0  0  0  0  0  0  0  0
   57.4660   28.2710   44.9350 C   0  0  0  0  0  0  0  0  0  0  0  0
   56.5030   29.2940   44.8390 C   0  0  0  0  0  0  0  0  0  0  0  0
   55.1450   28.9980   44.8740 O   0  0  0  0  0  0  0  0  0  0  0  0
   56.8820   30.5660   44.7480 O   0  0  0  0  0  0  0  0  0  0  0  0
   58.1590   30.9420   44.7570 C   0  0  0  0  0  0  0  0  0  0  0  0
   58.4960   32.3960   44.6690 C   0  0  0  0  0  0  0  0  0  0  0  0
   57.2970   33.1410   44.6430 O   0  0  0  0  0  0  0  0  0  0  0  0
   56.8860   33.4610   45.9580 C   0  0  0  0  0  0  0  0  0  0  0  0
   58.0810   33.6400   46.8580 C   0  0  0  0  0  0  0  0  0  0  0  0
   58.3070   32.7420   47.9140 C   0  0  0  0  0  0  0  0  0  0  0  0
   59.4040   32.9160   48.7640 C   0  0  0  0  0  0  0  0  0  0  0  0
   60.2800   33.9880   48.5670 C   0  0  0  0  0  0  0  0  0  0  0  0
   60.0580   34.8880   47.5210 C   0  0  0  0  0  0  0  0  0  0  0  0
   58.9610   34.7180   46.6690 C   0  0  0  0  0  0  0  0  0  0  0  0
   59.1700   29.9830   44.8920 C   0  0  0  0  0  0  0  0  0  0  0  0
   58.8150   28.6370   44.9850 C   0  0  0  0  0  0  0  0  0  0  0  0
   59.7080   27.7580   45.1080 O   0  0  0  0  0  0  0  0  0  0  0  0
   53.9514   24.4314   46.5341 H   0  0  0  0  0  0  0  0  0  0  0  0
   53.5893   25.0144   44.8669 H   0  0  0  0  0  0  0  0  0  0  0  0
   56.2612   23.4669   47.0108 H   0  0  0  0  0  0  0  0  0  0  0  0
   58.0329   21.9724   46.0878 H   0  0  0  0  0  0  0  0  0  0  0  0
   58.2052   21.6064   43.6242 H   0  0  0  0  0  0  0  0  0  0  0  0
   56.5968   22.7282   42.0798 H   0  0  0  0  0  0  0  0  0  0  0  0
   54.8159   24.2198   42.9945 H   0  0  0  0  0  0  0  0  0  0  0  0
   59.0949   32.6901   45.5435 H   0  0  0  0  0  0  0  0  0  0  0  0
   59.0761   32.5902   43.7548 H   0  0  0  0  0  0  0  0  0  0  0  0
   56.3052   34.3950   45.9381 H   0  0  0  0  0  0  0  0  0  0  0  0
   56.2690   32.6376   46.3471 H   0  0  0  0  0  0  0  0  0  0  0  0
   57.6187   31.8988   48.0731 H   0  0  0  0  0  0  0  0  0  0  0  0
   59.5779   32.2088   49.5884 H   0  0  0  0  0  0  0  0  0  0  0  0
   61.1435   34.1229   49.2350 H   0  0  0  0  0  0  0  0  0  0  0  0
   60.7469   35.7316   47.3672 H   0  0  0  0  0  0  0  0  0  0  0  0
   58.7875   35.4306   45.8491 H   0  0  0  0  0  0  0  0  0  0  0  0
   60.2270   30.2858   44.9242 H   0  0  0  0  0  0  0  0  0  0  0  0
  1  2  2  0
  2  3  1  0
  3  4  1  0
  4  5  1  0
  5  6  2  0
  6  7  1  0
  7  8  2  0
  8  9  1  0
  9 10  2  0
  2 11  1  0
 11 12  1  0
 12 13  2  0
 13 14  1  0
 13 15  1  0
 15 16  1  0
 16 17  1  0
 17 18  1  0
 18 19  1  0
 19 20  1  0
 20 21  2  0
 21 22  1  0
 22 23  2  0
 23 24  1  0
 24 25  2  0
 16 26  2  0
 26 27  1  0
 27 28  2  0
 10  5  1  0
 27 12  1  0
 25 20  1  0
  4 29  1  0
  4 30  1  0
  6 31  1  0
  7 32  1  0
  8 33  1  0
  9 34  1  0
 10 35  1  0
 17 36  1  0
 17 37  1  0
 19 38  1  0
 19 39  1  0
 21 40  1  0
 22 41  1  0
 23 42  1  0
 24 43  1  0
 25 44  1  0
 26 45  1  0
M  CHG  2   3  -1  14  -1
M  END
>  <UniqueID>  (77) 
74

>  <SMILES>  (77) 
O=C([N-]Cc1ccccc1)Oc1c([O-])oc(COCc2ccccc2)cc1=O

>  <Energy>  (77) 
52.84296098939185

>  <Genealogy>  (77) 
O=C([N-]Cc1ccccc1)Oc1c([O-])oc(COCc2ccccc2)cc1=O (protonated)
O=C([N-]Cc1ccccc1)Oc1c([O-])oc(COCc2ccccc2)cc1=O (3D coordinates assigned)
O=C([N-]Cc1ccccc1)Oc1c([O-])oc(COCc2ccccc2)cc1=O (optimized conformer: 52.84296098939185 kcal/mol)

>  <smiles>  (77) 
O=C(NCc1ccccc1)Oc1c(O)oc(COCc2ccccc2)cc1=O

>  <score_type>  (77) 
oracle

>  <origin>  (77) 
adg

>  <m_score__min__energy>  (77) 
-13.130000000000001

>  <m_primary>  (77) 
energy

$$$$
77:0
     RDKit          3D

 58 61  0  0  1  0  0  0  0  0999 V2000
   61.9230   31.0020   47.1490 C   0  0  0  0  0  0  0  0  0  0  0  0
   58.9540   27.5960   44.2310 N   0  0  0  0  0  0  0  0  0  0  0  0
   59.3000   27.8670   45.4140 C   0  0  0  0  0  0  0  0  0  0  0  0
   59.7230   29.1380   45.6750 N   0  0  0  0  0  0  0  0  0  0  0  0
   60.1020   29.4860   46.9170 C   0  0  0  0  0  0  0  0  0  0  0  0
   60.5070   30.6800   47.1910 N   0  0  0  0  0  0  0  0  0  0  0  0
   57.7020   27.9490   43.6140 C   0  0  0  0  0  0  0  0  0  0  0  0
   57.3490   29.3810   43.8920 C   0  0  0  0  0  0  0  0  0  0  0  0
   58.1360   30.4690   43.8240 N   0  0  0  0  0  0  0  0  0  0  0  0
   57.4560   31.5750   44.1480 C   0  0  0  0  0  0  0  0  0  0  0  0
   57.9090   32.9930   44.2110 C   0  0  0  0  0  0  0  0  0  0  0  0
   58.5110   33.2550   45.5620 C   0  0  0  0  0  0  0  0  0  0  0  0
   57.9310   32.8070   46.7230 C   0  0  0  0  0  0  0  0  0  0  0  0
   58.5740   33.1040   47.9250 C   0  0  0  0  0  0  0  0  0  0  0  0
   59.7510   33.8230   47.9420 C   0  0  0  0  0  0  0  0  0  0  0  0
   60.5940   34.2200   49.4310 Cl  0  0  0  0  0  0  0  0  0  0  0  0
   60.3420   34.2800   46.7600 C   0  0  0  0  0  0  0  0  0  0  0  0
   59.6860   33.9740   45.5710 C   0  0  0  0  0  0  0  0  0  0  0  0
   56.1860   31.1590   44.4320 N   0  0  0  0  0  0  0  0  0  0  0  0
   56.1010   29.8260   44.2810 C   0  0  0  0  0  0  0  0  0  0  0  0
   55.0070   29.0070   44.4660 O   0  0  0  0  0  0  0  0  0  0  0  0
   59.2360   26.9180   46.3490 N   0  0  0  0  0  0  0  0  0  0  0  0
   59.6110   27.2450   47.6010 C   0  0  0  0  0  0  0  0  0  0  0  0
   60.0450   28.5200   47.9000 C   0  0  0  0  0  0  0  0  0  0  0  0
   60.4600   28.9070   49.2630 C   0  0  0  0  0  0  0  0  0  0  0  0
   61.0600   28.0530   49.9250 O   0  0  0  0  0  0  0  0  0  0  0  0
   60.1700   30.2050   49.7570 N   0  0  0  0  0  0  0  0  0  0  0  0
   60.5170   30.6960   51.0540 C   0  0  0  0  0  0  0  0  0  0  0  0
   59.4430   31.5870   51.5430 C   0  0  0  0  0  0  0  0  0  0  0  0
   59.6440   32.7410   52.2490 C   0  0  0  0  0  0  0  0  0  0  0  0
   58.6070   33.5300   52.6830 C   0  0  0  0  0  0  0  0  0  0  0  0
   57.3310   33.1280   52.3880 C   0  0  0  0  0  0  0  0  0  0  0  0
   57.0570   31.9760   51.6810 C   0  0  0  0  0  0  0  0  0  0  0  0
   58.1320   31.2180   51.2660 C   0  0  0  0  0  0  0  0  0  0  0  0
   62.3096   31.0899   48.1751 H   0  0  0  0  0  0  0  0  0  0  0  0
   62.4649   30.2042   46.6201 H   0  0  0  0  0  0  0  0  0  0  0  0
   62.0666   31.9557   46.6201 H   0  0  0  0  0  0  0  0  0  0  0  0
   59.7540   29.8480   44.8990 H   0  0  0  0  0  0  0  0  0  0  0  0
   57.7833   27.8033   42.5267 H   0  0  0  0  0  0  0  0  0  0  0  0
   56.9127   27.3066   44.0315 H   0  0  0  0  0  0  0  0  0  0  0  0
   58.6623   33.1745   43.4302 H   0  0  0  0  0  0  0  0  0  0  0  0
   57.0525   33.6641   44.0495 H   0  0  0  0  0  0  0  0  0  0  0  0
   56.9922   32.2340   46.7061 H   0  0  0  0  0  0  0  0  0  0  0  0
   58.1358   32.7596   48.8733 H   0  0  0  0  0  0  0  0  0  0  0  0
   61.2804   34.8539   46.7693 H   0  0  0  0  0  0  0  0  0  0  0  0
   60.1155   34.3140   44.6171 H   0  0  0  0  0  0  0  0  0  0  0  0
   55.4070   31.8090   44.7220 H   0  0  0  0  0  0  0  0  0  0  0  0
   55.1420   28.1100   44.9010 H   0  0  0  0  0  0  0  0  0  0  0  0
   58.9130   25.9810   46.1050 H   0  0  0  0  0  0  0  0  0  0  0  0
   59.5706   26.4853   48.3955 H   0  0  0  0  0  0  0  0  0  0  0  0
   59.6500   30.8380   49.0790 H   0  0  0  0  0  0  0  0  0  0  0  0
   60.6367   29.8502   51.7471 H   0  0  0  0  0  0  0  0  0  0  0  0
   61.4620   31.2560   50.9952 H   0  0  0  0  0  0  0  0  0  0  0  0
   60.6750   33.0488   52.4778 H   0  0  0  0  0  0  0  0  0  0  0  0
   58.7948   34.4544   53.2489 H   0  0  0  0  0  0  0  0  0  0  0  0
   56.4902   33.7498   52.7292 H   0  0  0  0  0  0  0  0  0  0  0  0
   56.0232   31.6740   51.4572 H   0  0  0  0  0  0  0  0  0  0  0  0
   57.9462   30.2939   50.6989 H   0  0  0  0  0  0  0  0  0  0  0  0
  1  2  1  0
  2  3  2  0
  3  4  1  0
  4  5  1  0
  5  6  2  0
  6  7  1  0
  7  8  1  0
  8  9  1  0
  9 10  2  0
 10 11  1  0
 11 12  1  0
 12 13  2  0
 13 14  1  0
 14 15  2  0
 15 16  1  0
 15 17  1  0
 17 18  2  0
 10 19  1  0
 19 20  1  0
 20 21  1  0
  5 22  1  0
 22 23  1  0
 23 24  2  0
 24 25  1  0
 25 26  2  0
 25 27  1  0
 27 28  1  0
 28 29  1  0
 29 30  2  0
 30 31  1  0
 31 32  2  0
 32 33  1  0
 33 34  2  0
 24  3  1  0
 34 29  1  0
 20  8  2  0
 18 12  1  0
  1 35  1  0
  1 36  1  0
  1 37  1  0
  4 38  1  0
  7 39  1  0
  7 40  1  0
 11 41  1  0
 11 42  1  0
 13 43  1  0
 14 44  1  0
 17 45  1  0
 18 46  1  0
 19 47  1  0
 21 48  1  0
 22 49  1  0
 23 50  1  0
 27 51  1  0
 28 52  1  0
 28 53  1  0
 30 54  1  0
 31 55  1  0
 32 56  1  0
 33 57  1  0
 34 58  1  0
M  END
>  <smiles>  (78) 
CN=c1[nH]c(=NCc2nc(Cc3ccc(Cl)cc3)[nH]c2O)[nH]cc1C(=O)NCc1ccccc1

>  <score_type>  (78) 
oracle

>  <origin>  (78) 
adg

>  <m_score__min__energy>  (78) 
-9.1899999999999995

>  <m_primary>  (78) 
energy

$$$$
78:0
     RDKit          3D

 36 39  0  0  0  0  0  0  0  0999 V2000
   61.0340   29.3530   45.9920 C   0  0  0  0  0  0  0  0  0  0  0  0
   59.6620   29.6910   45.5870 N   0  0  0  0  0  0  0  0  0  0  0  0
   58.8670   28.7260   45.0480 C   0  0  0  0  0  0  0  0  0  0  0  0
   57.5680   29.0190   44.6680 C   0  0  0  0  0  0  0  0  0  0  0  0
   57.0830   30.3100   44.8480 C   0  0  0  0  0  0  0  0  0  0  0  0
   55.8970   30.5530   44.4950 O   0  0  0  0  0  0  0  0  0  0  0  0
   57.8860   31.2850   45.4000 N   0  0  0  0  0  0  0  0  0  0  0  0
   57.4400   32.5780   45.5970 C   0  0  0  0  0  0  0  0  0  0  0  0
   56.2720   32.9270   45.2750 O   0  0  0  0  0  0  0  0  0  0  0  0
   58.2780   33.5390   46.1620 C   0  0  0  0  0  0  0  0  0  0  0  0
   59.5730   33.1820   46.5320 C   0  0  0  0  0  0  0  0  0  0  0  0
   60.5050   34.1770   47.1150 C   0  0  0  0  0  0  0  0  0  0  0  0
   60.0920   35.3430   47.3520 O   0  0  0  0  0  0  0  0  0  0  0  0
   61.9120   33.8390   47.4260 C   0  0  0  0  0  0  0  0  0  0  0  0
   62.9260   33.5380   46.5160 C   0  0  0  0  0  0  0  0  0  0  0  0
   64.0730   33.2350   47.1640 N   0  0  0  0  0  0  0  0  0  0  0  0
   63.7980   33.3330   48.4750 C   0  0  0  0  0  0  0  0  0  0  0  0
   64.6720   33.1090   49.5370 C   0  0  0  0  0  0  0  0  0  0  0  0
   64.1780   33.2710   50.8420 C   0  0  0  0  0  0  0  0  0  0  0  0
   62.8340   33.6510   51.0560 C   0  0  0  0  0  0  0  0  0  0  0  0
   61.9730   33.8690   49.9650 C   0  0  0  0  0  0  0  0  0  0  0  0
   62.4890   33.6950   48.6780 C   0  0  0  0  0  0  0  0  0  0  0  0
   59.9850   31.9100   46.3180 N   0  0  0  0  0  0  0  0  0  0  0  0
   59.1780   30.9620   45.7690 C   0  0  0  0  0  0  0  0  0  0  0  0
   61.0988   29.3370   47.0900 H   0  0  0  0  0  0  0  0  0  0  0  0
   61.3001   28.3624   45.5946 H   0  0  0  0  0  0  0  0  0  0  0  0
   61.7298   30.1066   45.5946 H   0  0  0  0  0  0  0  0  0  0  0  0
   59.2591   27.7071   44.9135 H   0  0  0  0  0  0  0  0  0  0  0  0
   56.9274   28.2400   44.2290 H   0  0  0  0  0  0  0  0  0  0  0  0
   57.9203   34.5681   46.3139 H   0  0  0  0  0  0  0  0  0  0  0  0
   62.8083   33.5461   45.4223 H   0  0  0  0  0  0  0  0  0  0  0  0
   64.9840   32.9660   46.7290 H   0  0  0  0  0  0  0  0  0  0  0  0
   65.7167   32.8144   49.3589 H   0  0  0  0  0  0  0  0  0  0  0  0
   64.8416   33.1010   51.7027 H   0  0  0  0  0  0  0  0  0  0  0  0
   62.4585   33.7772   52.0822 H   0  0  0  0  0  0  0  0  0  0  0  0
   60.9257   34.1673   50.1202 H   0  0  0  0  0  0  0  0  0  0  0  0
  1  2  1  0
  2  3  1  0
  3  4  2  0
  4  5  1  0
  5  6  2  0
  5  7  1  0
  7  8  1  0
  8  9  2  0
  8 10  1  0
 10 11  2  0
 11 12  1  0
 12 13  2  0
 12 14  1  0
 14 15  2  0
 15 16  1  0
 16 17  1  0
 17 18  2  0
 18 19  1  0
 19 20  2  0
 20 21  1  0
 21 22  2  0
 11 23  1  0
 23 24  2  0
 24  2  1  0
 24  7  1  0
 22 14  1  0
 22 17  1  0
  1 25  1  0
  1 26  1  0
  1 27  1  0
  3 28  1  0
  4 29  1  0
 10 30  1  0
 15 31  1  0
 16 32  1  0
 18 33  1  0
 19 34  1  0
 20 35  1  0
 21 36  1  0
M  END
>  <UniqueID>  (79) 
75

>  <SMILES>  (79) 
Cn1ccc(=O)n2c(=O)cc(C(=O)c3c[nH]c4ccccc34)nc12

>  <Energy>  (79) 
87.19760059154328

>  <Genealogy>  (79) 
Cn1ccc(=O)n2c(=O)cc(C(=O)c3c[nH]c4ccccc34)nc12 (3D coordinates assigned)
Cn1ccc(=O)n2c(=O)cc(C(=O)c3c[nH]c4ccccc34)nc12 (optimized conformer: 87.19760059154328 kcal/mol)

>  <smiles>  (79) 
Cn1ccc(=O)n2c(=O)cc(C(=O)c3c[nH]c4ccccc34)nc12

>  <score_type>  (79) 
oracle

>  <origin>  (79) 
adg

>  <m_score__min__energy>  (79) 
-8.1099999999999994

>  <m_primary>  (79) 
energy

$$$$
79:0
     RDKit          3D

 41 42  0  0  1  0  0  0  0  0999 V2000
   56.0250   27.2200   45.9740 O   0  0  0  0  0  0  0  0  0  0  0  0
   56.8050   28.0500   45.3990 C   0  0  0  0  0  0  0  0  0  0  0  0
   57.9190   27.6880   44.7680 N   0  0  0  0  0  0  0  0  0  0  0  0
   58.7400   28.5890   44.1590 C   0  0  0  0  0  0  0  0  0  0  0  0
   58.3880   29.9160   44.2100 C   0  0  0  0  0  0  0  0  0  0  0  0
   57.2300   30.2510   44.8720 C   0  0  0  0  0  0  0  0  0  0  0  0
   56.8840   31.4690   44.9310 N   0  0  0  0  0  0  0  0  0  0  0  0
   57.6660   32.5270   45.4030 C   0  0  0  0  0  0  0  0  0  0  0  0
   58.0500   33.5110   44.4790 C   0  0  0  0  0  0  0  0  0  0  0  0
   58.8300   34.5930   44.8880 C   0  0  0  0  0  0  0  0  0  0  0  0
   59.2180   34.6790   46.2080 C   0  0  0  0  0  0  0  0  0  0  0  0
   59.9990   35.7610   46.6190 O   0  0  0  0  0  0  0  0  0  0  0  0
   58.8240   33.6960   47.0890 C   0  0  0  0  0  0  0  0  0  0  0  0
   59.3020   33.8730   48.5100 C   0  0  0  0  0  0  0  0  0  0  0  0
   60.5650   33.2770   48.7310 N   0  0  0  0  0  0  0  0  0  0  0  0
   60.6150   31.9430   49.1690 C   0  0  0  0  0  0  0  0  0  0  0  0
   60.8490   30.9600   48.0430 C   0  0  0  0  0  0  0  0  0  0  0  0
   59.5150   29.7530   48.0440 Cl  0  0  0  0  0  0  0  0  0  0  0  0
   61.6880   34.0820   48.9560 C   0  0  0  0  0  0  0  0  0  0  0  0
   62.9950   33.5680   48.3950 C   0  0  0  0  0  0  0  0  0  0  0  0
   63.0850   33.8380   46.6240 Cl  0  0  0  0  0  0  0  0  0  0  0  0
   58.0520   32.6110   46.7230 C   0  0  0  0  0  0  0  0  0  0  0  0
   56.4350   29.3390   45.4650 N   0  0  0  0  0  0  0  0  0  0  0  0
   58.1890   26.6770   44.7300 H   0  0  0  0  0  0  0  0  0  0  0  0
   59.6555   28.2642   43.6429 H   0  0  0  0  0  0  0  0  0  0  0  0
   59.0132   30.6869   43.7359 H   0  0  0  0  0  0  0  0  0  0  0  0
   57.7348   33.4289   43.4283 H   0  0  0  0  0  0  0  0  0  0  0  0
   59.1313   35.3671   44.1669 H   0  0  0  0  0  0  0  0  0  0  0  0
   59.5790   36.5150   47.1140 H   0  0  0  0  0  0  0  0  0  0  0  0
   59.3761   34.9489   48.7265 H   0  0  0  0  0  0  0  0  0  0  0  0
   58.5766   33.3781   49.1725 H   0  0  0  0  0  0  0  0  0  0  0  0
   61.4335   31.8435   49.8971 H   0  0  0  0  0  0  0  0  0  0  0  0
   59.6378   31.7061   49.6151 H   0  0  0  0  0  0  0  0  0  0  0  0
   60.8635   31.4948   47.0819 H   0  0  0  0  0  0  0  0  0  0  0  0
   61.8143   30.4517   48.1840 H   0  0  0  0  0  0  0  0  0  0  0  0
   61.4923   35.0663   48.5056 H   0  0  0  0  0  0  0  0  0  0  0  0
   61.8224   34.1053   50.0475 H   0  0  0  0  0  0  0  0  0  0  0  0
   63.8280   34.0961   48.8821 H   0  0  0  0  0  0  0  0  0  0  0  0
   63.0583   32.4870   48.5883 H   0  0  0  0  0  0  0  0  0  0  0  0
   57.7573   31.8451   47.4554 H   0  0  0  0  0  0  0  0  0  0  0  0
   55.5590   29.6630   45.9550 H   0  0  0  0  0  0  0  0  0  0  0  0
  1  2  2  0
  2  3  1  0
  3  4  1  0
  4  5  2  0
  5  6  1  0
  6  7  2  0
  7  8  1  0
  8  9  2  0
  9 10  1  0
 10 11  2  0
 11 12  1  0
 11 13  1  0
 13 14  1  0
 14 15  1  0
 15 16  1  0
 16 17  1  0
 17 18  1  0
 15 19  1  0
 19 20  1  0
 20 21  1  0
 13 22  2  0
  6 23  1  0
 23  2  1  0
 22  8  1  0
  3 24  1  0
  4 25  1  0
  5 26  1  0
  9 27  1  0
 10 28  1  0
 12 29  1  0
 14 30  1  0
 14 31  1  0
 16 32  1  0
 16 33  1  0
 17 34  1  0
 17 35  1  0
 19 36  1  0
 19 37  1  0
 20 38  1  0
 20 39  1  0
 22 40  1  0
 23 41  1  0
M  END
>  <smiles>  (80) 
O=c1[nH]ccc(=Nc2ccc(O)c(CN(CCCl)CCCl)c2)[nH]1

>  <score_type>  (80) 
oracle

>  <origin>  (80) 
adg

>  <m_score__min__energy>  (80) 
-6.8099999999999996

>  <m_primary>  (80) 
energy

$$$$
80:0
     RDKit          3D

 45 47  0  0  0  0  0  0  0  0999 V2000
   53.3940   22.2270   46.7050 C   0  0  0  0  0  0  0  0  0  0  0  0
   54.8620   21.9310   46.5010 C   0  0  0  0  0  0  0  0  0  0  0  0
   55.2820   20.6200   46.1840 C   0  0  0  0  0  0  0  0  0  0  0  0
   54.1360   19.2910   46.0250 Cl  0  0  0  0  0  0  0  0  0  0  0  0
   56.6380   20.3470   45.9770 C   0  0  0  0  0  0  0  0  0  0  0  0
   57.5840   21.3650   46.0760 C   0  0  0  0  0  0  0  0  0  0  0  0
   57.1820   22.6700   46.3620 C   0  0  0  0  0  0  0  0  0  0  0  0
   55.8210   22.9720   46.5490 C   0  0  0  0  0  0  0  0  0  0  0  0
   55.3940   24.3120   46.8400 N   0  0  0  0  0  0  0  0  0  0  0  0
   55.3520   25.4300   45.9430 C   0  0  0  0  0  0  0  0  0  0  0  0
   54.4090   26.2620   45.9920 O   0  0  0  0  0  0  0  0  0  0  0  0
   56.4480   25.6710   45.0570 N   0  0  0  0  0  0  0  0  0  0  0  0
   57.5050   26.5950   45.3460 C   0  0  0  0  0  0  0  0  0  0  0  0
   58.8210   26.1370   45.5090 C   0  0  0  0  0  0  0  0  0  0  0  0
   59.8480   27.0340   45.8010 C   0  0  0  0  0  0  0  0  0  0  0  0
   59.5670   28.3910   45.9610 C   0  0  0  0  0  0  0  0  0  0  0  0
   58.2540   28.8660   45.8220 C   0  0  0  0  0  0  0  0  0  0  0  0
   57.9720   30.2830   46.1370 C   0  0  0  0  0  0  0  0  0  0  0  0
   57.0650   30.8870   45.5010 O   0  0  0  0  0  0  0  0  0  0  0  0
   58.7820   31.0430   47.1560 C   0  0  0  0  0  0  0  0  0  0  0  0
   59.0950   32.4360   46.6710 C   0  0  0  0  0  0  0  0  0  0  0  0
   60.4030   32.9410   46.7780 C   0  0  0  0  0  0  0  0  0  0  0  0
   60.6840   34.2580   46.3960 C   0  0  0  0  0  0  0  0  0  0  0  0
   59.6630   35.0780   45.9070 C   0  0  0  0  0  0  0  0  0  0  0  0
   58.3620   34.5840   45.7930 C   0  0  0  0  0  0  0  0  0  0  0  0
   58.0770   33.2670   46.1720 C   0  0  0  0  0  0  0  0  0  0  0  0
   57.2250   27.9700   45.4670 C   0  0  0  0  0  0  0  0  0  0  0  0
   55.9330   28.4520   45.2440 O   0  0  0  0  0  0  0  0  0  0  0  0
   53.1751   22.2711   47.7821 H   0  0  0  0  0  0  0  0  0  0  0  0
   53.1468   23.1931   46.2407 H   0  0  0  0  0  0  0  0  0  0  0  0
   52.7917   21.4322   46.2407 H   0  0  0  0  0  0  0  0  0  0  0  0
   56.9592   19.3232   45.7348 H   0  0  0  0  0  0  0  0  0  0  0  0
   58.6504   21.1393   45.9283 H   0  0  0  0  0  0  0  0  0  0  0  0
   57.9346   23.4683   46.4418 H   0  0  0  0  0  0  0  0  0  0  0  0
   59.0439   25.0648   45.4059 H   0  0  0  0  0  0  0  0  0  0  0  0
   60.8811   26.6710   45.9053 H   0  0  0  0  0  0  0  0  0  0  0  0
   60.3800   29.0932   46.1977 H   0  0  0  0  0  0  0  0  0  0  0  0
   58.2098   31.1089   48.0931 H   0  0  0  0  0  0  0  0  0  0  0  0
   59.7295   30.5084   47.3184 H   0  0  0  0  0  0  0  0  0  0  0  0
   61.2085   32.2986   47.1634 H   0  0  0  0  0  0  0  0  0  0  0  0
   61.7091   34.6480   46.4807 H   0  0  0  0  0  0  0  0  0  0  0  0
   59.8848   36.1141   45.6115 H   0  0  0  0  0  0  0  0  0  0  0  0
   57.5607   35.2301   45.4052 H   0  0  0  0  0  0  0  0  0  0  0  0
   57.0514   32.8804   46.0789 H   0  0  0  0  0  0  0  0  0  0  0  0
   55.1620   27.8480   44.9850 H   0  0  0  0  0  0  0  0  0  0  0  0
  1  2  1  0
  2  3  2  0
  3  4  1  0
  3  5  1  0
  5  6  2  0
  6  7  1  0
  7  8  2  0
  8  9  1  0
  9 10  1  0
 10 11  2  0
 10 12  1  0
 12 13  1  0
 13 14  2  0
 14 15  1  0
 15 16  2  0
 16 17  1  0
 17 18  1  0
 18 19  2  0
 18 20  1  0
 20 21  1  0
 21 22  2  0
 22 23  1  0
 23 24  2  0
 24 25  1  0
 25 26  2  0
 17 27  2  0
 27 28  1  0
  8  2  1  0
 27 13  1  0
 26 21  1  0
  1 29  1  0
  1 30  1  0
  1 31  1  0
  5 32  1  0
  6 33  1  0
  7 34  1  0
 14 35  1  0
 15 36  1  0
 16 37  1  0
 20 38  1  0
 20 39  1  0
 22 40  1  0
 23 41  1  0
 24 42  1  0
 25 43  1  0
 26 44  1  0
 28 45  1  0
M  CHG  2   9  -1  12  -1
M  END
>  <UniqueID>  (81) 
76

>  <SMILES>  (81) 
Cc1c(Cl)cccc1[N-]C(=O)[N-]c1cccc(C(=O)Cc2ccccc2)c1O

>  <Energy>  (81) 
60.11117962561216

>  <Genealogy>  (81) 
Cc1c(Cl)cccc1[N-]C(=O)[N-]c1cccc(C(=O)Cc2ccccc2)c1O (protonated)
Cc1c(Cl)cccc1[N-]C(=O)[N-]c1cccc(C(=O)Cc2ccccc2)c1O (3D coordinates assigned)
Cc1c(Cl)cccc1[N-]C(=O)[N-]c1cccc(C(=O)Cc2ccccc2)c1O (optimized conformer: 60.11117962561216 kcal/mol)

>  <smiles>  (81) 
Cc1c(Cl)cccc1NC(=O)Nc1cccc(C(=O)Cc2ccccc2)c1O

>  <score_type>  (81) 
oracle

>  <origin>  (81) 
adg

>  <m_score__min__energy>  (81) 
-13.77

>  <m_primary>  (81) 
energy

$$$$
81:0
     RDKit          3D

 38 39  0  0  0  0  0  0  0  0999 V2000
   55.9260   27.5450   46.0630 H   0  0  0  0  0  0  0  0  0  0  0  0
   55.3170   26.7380   46.0000 O   0  0  0  0  0  0  0  0  0  0  0  0
   55.8210   25.4410   45.9260 C   0  0  0  0  0  0  0  0  0  0  0  0
   55.0590   24.4500   45.2920 C   0  0  0  0  0  0  0  0  0  0  0  0
   54.1138   24.7193   44.7980 H   0  0  0  0  0  0  0  0  0  0  0  0
   55.4920   23.1260   45.2840 C   0  0  0  0  0  0  0  0  0  0  0  0
   54.8965   22.3492   44.7820 H   0  0  0  0  0  0  0  0  0  0  0  0
   56.6860   22.7970   45.9180 C   0  0  0  0  0  0  0  0  0  0  0  0
   57.0288   21.7520   45.9370 H   0  0  0  0  0  0  0  0  0  0  0  0
   57.4290   23.7670   46.5140 N   0  0  0  0  0  0  0  0  0  0  0  0
   57.0590   25.0790   46.5210 C   0  0  0  0  0  0  0  0  0  0  0  0
   57.8590   25.9240   47.1130 N   0  0  0  0  0  0  0  0  0  0  0  0
   58.2840   27.2240   46.6820 C   0  0  0  0  0  0  0  0  0  0  0  0
   57.7130   28.2620   47.1160 O   0  0  0  0  0  0  0  0  0  0  0  0
   59.2880   27.3420   45.5780 C   0  0  0  0  0  0  0  0  0  0  0  0
   59.6534   26.3375   45.3184 H   0  0  0  0  0  0  0  0  0  0  0  0
   60.1125   27.9804   45.9283 H   0  0  0  0  0  0  0  0  0  0  0  0
   58.6770   27.9880   44.3290 C   0  0  0  0  0  0  0  0  0  0  0  0
   58.9001   27.3582   43.4552 H   0  0  0  0  0  0  0  0  0  0  0  0
   59.1133   28.9908   44.2101 H   0  0  0  0  0  0  0  0  0  0  0  0
   57.2260   28.1300   44.4550 N   0  0  0  0  0  0  0  0  0  0  0  0
   56.5160   29.3580   44.6630 C   0  0  0  0  0  0  0  0  0  0  0  0
   55.2790   29.3110   44.8930 O   0  0  0  0  0  0  0  0  0  0  0  0
   57.1890   30.6720   44.6380 C   0  0  0  0  0  0  0  0  0  0  0  0
   57.2870   31.3830   43.4330 C   0  0  0  0  0  0  0  0  0  0  0  0
   56.8557   30.9620   42.5128 H   0  0  0  0  0  0  0  0  0  0  0  0
   57.9300   32.6240   43.3950 C   0  0  0  0  0  0  0  0  0  0  0  0
   57.9896   33.1812   42.4484 H   0  0  0  0  0  0  0  0  0  0  0  0
   58.5010   33.1630   44.5620 C   0  0  0  0  0  0  0  0  0  0  0  0
   59.1550   34.4040   44.5770 O   0  0  0  0  0  0  0  0  0  0  0  0
   59.5810   35.0730   45.7600 C   0  0  0  0  0  0  0  0  0  0  0  0
   59.2280   34.5186   46.6421 H   0  0  0  0  0  0  0  0  0  0  0  0
   60.6796   35.1261   45.7758 H   0  0  0  0  0  0  0  0  0  0  0  0
   59.1644   36.0909   45.7758 H   0  0  0  0  0  0  0  0  0  0  0  0
   58.4210   32.4400   45.7580 C   0  0  0  0  0  0  0  0  0  0  0  0
   58.8687   32.8511   46.6748 H   0  0  0  0  0  0  0  0  0  0  0  0
   57.7770   31.2000   45.7970 C   0  0  0  0  0  0  0  0  0  0  0  0
   57.7311   30.6360   46.7403 H   0  0  0  0  0  0  0  0  0  0  0  0
  1  2  1  0
  2  3  1  0
  3  4  2  0
  4  5  1  0
  4  6  1  0
  6  7  1  0
  6  8  2  0
  8  9  1  0
  8 10  1  0
 10 11  1  0
 11 12  2  0
 12 13  1  0
 13 14  2  0
 13 15  1  0
 15 16  1  0
 15 17  1  0
 15 18  1  0
 18 19  1  0
 18 20  1  0
 18 21  1  0
 21 22  1  0
 22 23  2  0
 22 24  1  0
 24 25  2  0
 25 26  1  0
 25 27  1  0
 27 28  1  0
 27 29  2  0
 29 30  1  0
 30 31  1  0
 31 32  1  0
 31 33  1  0
 31 34  1  0
 29 35  1  0
 35 36  1  0
 35 37  2  0
 37 38  1  0
 11  3  1  0
 37 24  1  0
M  CHG  2  10  -1  21  -1
M  END
>  <UniqueID>  (82) 
77

>  <SMILES>  (82) 
COc1ccc(C(=O)[N-]CCC(=O)/N=c2/[n-]cccc2O)cc1

>  <Energy>  (82) 
50.85375923647738

>  <Genealogy>  (82) 
COc1ccc(C(=O)[N-]CCC(=O)N=c2[n-]cccc2O)cc1 (protonated)
COc1ccc(C(=O)[N-]CCC(=O)/N=c2/[n-]cccc2O)cc1 (cis-trans isomerization)
COc1ccc(C(=O)[N-]CCC(=O)/N=c2/[n-]cccc2O)cc1 (3D coordinates assigned)
COc1ccc(C(=O)[N-]CCC(=O)/N=c2/[n-]cccc2O)cc1 (optimized conformer: 50.85375923647738 kcal/mol)

>  <smiles>  (82) 
COc1ccc(C(=O)NCCC(=O)N=c2[nH]cccc2O)cc1

>  <score_type>  (82) 
oracle

>  <origin>  (82) 
adg

>  <m_score__min__energy>  (82) 
-10.800000000000001

>  <m_primary>  (82) 
energy

$$$$
82:0
     RDKit          3D

 40 42  0  0  0  0  0  0  0  0999 V2000
   55.8860   22.2060   43.6930 O   0  0  0  0  0  0  0  0  0  0  0  0
   56.1490   23.3250   44.2040 C   0  0  0  0  0  0  0  0  0  0  0  0
   57.4340   23.8530   44.1130 C   0  0  0  0  0  0  0  0  0  0  0  0
   57.6860   25.0950   44.6940 C   0  0  0  0  0  0  0  0  0  0  0  0
   56.6960   25.7740   45.3510 N   0  0  0  0  0  0  0  0  0  0  0  0
   57.0070   27.0980   45.9310 C   0  0  1  0  0  0  0  0  0  0  0  0
   58.5020   27.4030   45.8460 C   0  0  0  0  0  0  0  0  0  0  0  0
   58.5570   28.8450   45.3760 C   0  0  1  0  0  0  0  0  0  0  0  0
   59.1850   28.9630   44.1200 O   0  0  0  0  0  0  0  0  0  0  0  0
   57.0830   29.2740   45.3630 C   0  0  1  0  0  0  0  0  0  0  0  0
   56.7100   30.2700   44.2540 C   0  0  0  0  0  0  0  0  0  0  0  0
   56.6360   31.5770   44.7830 O   0  0  0  0  0  0  0  0  0  0  0  0
   57.6040   32.3980   44.1700 C   0  0  0  0  0  0  0  0  0  0  0  0
   58.2930   33.1990   45.2340 C   0  0  0  0  0  0  0  0  0  0  0  0
   58.1340   32.8650   46.5900 C   0  0  0  0  0  0  0  0  0  0  0  0
   58.7380   33.6420   47.5830 C   0  0  0  0  0  0  0  0  0  0  0  0
   59.4920   34.7640   47.2300 C   0  0  0  0  0  0  0  0  0  0  0  0
   59.6410   35.1150   45.8860 C   0  0  0  0  0  0  0  0  0  0  0  0
   59.0380   34.3390   44.8900 C   0  0  0  0  0  0  0  0  0  0  0  0
   56.2900   28.1150   45.2690 O   0  0  0  0  0  0  0  0  0  0  0  0
   55.4320   25.2330   45.4070 C   0  0  0  0  0  0  0  0  0  0  0  0
   54.4900   25.8460   45.9770 O   0  0  0  0  0  0  0  0  0  0  0  0
   55.1790   24.0230   44.8430 N   0  0  0  0  0  0  0  0  0  0  0  0
   58.2326   23.3025   43.5942 H   0  0  0  0  0  0  0  0  0  0  0  0
   58.6921   25.5342   44.6235 H   0  0  0  0  0  0  0  0  0  0  0  0
   56.7080   27.0684   46.9892 H   0  0  0  0  0  0  0  0  0  0  0  0
   58.9797   27.2944   46.8309 H   0  0  0  0  0  0  0  0  0  0  0  0
   59.0360   26.7175   45.1716 H   0  0  0  0  0  0  0  0  0  0  0  0
   59.1640   29.4920   46.0264 H   0  0  0  0  0  0  0  0  0  0  0  0
   58.4810   29.0210   43.4220 H   0  0  0  0  0  0  0  0  0  0  0  0
   56.8981   29.8201   46.2998 H   0  0  0  0  0  0  0  0  0  0  0  0
   57.4754   30.2394   43.4645 H   0  0  0  0  0  0  0  0  0  0  0  0
   55.7308   29.9941   43.8355 H   0  0  0  0  0  0  0  0  0  0  0  0
   58.3392   31.7733   43.6416 H   0  0  0  0  0  0  0  0  0  0  0  0
   57.1224   33.0707   43.4450 H   0  0  0  0  0  0  0  0  0  0  0  0
   57.5317   31.9885   46.8711 H   0  0  0  0  0  0  0  0  0  0  0  0
   58.6196   33.3700   48.6422 H   0  0  0  0  0  0  0  0  0  0  0  0
   59.9695   35.3725   48.0122 H   0  0  0  0  0  0  0  0  0  0  0  0
   60.2321   36.0010   45.6109 H   0  0  0  0  0  0  0  0  0  0  0  0
   59.1479   34.6230   43.8330 H   0  0  0  0  0  0  0  0  0  0  0  0
  1  2  2  0
  2  3  1  0
  3  4  2  0
  4  5  1  0
  5  6  1  0
  6  7  1  0
  7  8  1  0
  8  9  1  0
  8 10  1  0
 10 11  1  0
 11 12  1  0
 12 13  1  0
 13 14  1  0
 14 15  2  0
 15 16  1  0
 16 17  2  0
 17 18  1  0
 18 19  2  0
 10 20  1  0
  5 21  1  0
 21 22  2  0
 21 23  1  0
 23  2  1  0
 20  6  1  0
 19 14  1  0
  3 24  1  0
  4 25  1  0
  6 26  1  1
  7 27  1  0
  7 28  1  0
  8 29  1  1
  9 30  1  0
 10 31  1  1
 11 32  1  0
 11 33  1  0
 13 34  1  0
 13 35  1  0
 15 36  1  0
 16 37  1  0
 17 38  1  0
 18 39  1  0
 19 40  1  0
M  CHG  1  23  -1
M  END
>  <UniqueID>  (83) 
78

>  <SMILES>  (83) 
O=c1ccn([C@H]2C[C@@H](O)C(COCc3ccccc3)O2)c(=O)[n-]1

>  <Energy>  (83) 
48.71862113388476

>  <Genealogy>  (83) 
O=c1ccn(C2CC(O)C(COCc3ccccc3)O2)c(=O)[n-]1 (protonated)
O=c1ccn([C@H]2C[C@@H](O)C(COCc3ccccc3)O2)c(=O)[n-]1 (chirality)
O=c1ccn([C@H]2C[C@@H](O)C(COCc3ccccc3)O2)c(=O)[n-]1 (3D coordinates assigned)
O=c1ccn([C@H]2C[C@@H](O)C(COCc3ccccc3)O2)c(=O)[n-]1 (nonaromatic ring conformer: 48.71862113388476 kcal/mol)

>  <smiles>  (83) 
O=c1ccn(C2CC(O)C(COCc3ccccc3)O2)c(=O)[nH]1

>  <score_type>  (83) 
oracle

>  <origin>  (83) 
adg

>  <m_score__min__energy>  (83) 
-10.31

>  <m_primary>  (83) 
energy

$$$$
83:0
     RDKit          3D

 46 49  0  0  0  0  0  0  0  0999 V2000
   55.1560   29.3640   44.8660 N   0  0  0  0  0  0  0  0  0  0  0  0
   56.6070   29.8250   44.0500 S   0  0  0  0  0  0  0  0  0  0  0  0
   57.5070   28.6280   43.9190 O   0  0  0  0  0  0  0  0  0  0  0  0
   56.2730   30.3290   42.6730 O   0  0  0  0  0  0  0  0  0  0  0  0
   57.4200   31.0910   44.9640 C   0  0  0  0  0  0  0  0  0  0  0  0
   57.0140   32.4260   44.8390 C   0  0  0  0  0  0  0  0  0  0  0  0
   57.6700   33.4280   45.5610 C   0  0  0  0  0  0  0  0  0  0  0  0
   58.7330   33.1020   46.4060 C   0  0  0  0  0  0  0  0  0  0  0  0
   59.1540   31.7700   46.5310 C   0  0  0  0  0  0  0  0  0  0  0  0
   60.2410   31.4330   47.4080 N   0  0  0  0  0  0  0  0  0  0  0  0
   60.2870   30.4370   48.3330 C   0  0  0  0  0  0  0  0  0  0  0  0
   58.9300   29.3100   48.6720 S   0  0  0  0  0  0  0  0  0  0  0  0
   59.4330   28.0900   47.4090 C   0  0  0  0  0  0  0  0  0  0  0  0
   58.2550   27.3040   46.9000 C   0  0  0  0  0  0  0  0  0  0  0  0
   57.2770   27.9230   46.4080 O   0  0  0  0  0  0  0  0  0  0  0  0
   58.1740   25.8780   47.0280 N   0  0  0  0  0  0  0  0  0  0  0  0
   57.4850   24.9890   46.1390 C   0  0  0  0  0  0  0  0  0  0  0  0
   58.2210   24.0330   45.4270 C   0  0  0  0  0  0  0  0  0  0  0  0
   57.5730   23.1420   44.5660 C   0  0  0  0  0  0  0  0  0  0  0  0
   56.1810   23.1870   44.4320 C   0  0  0  0  0  0  0  0  0  0  0  0
   55.5370   22.3010   43.5760 O   0  0  0  0  0  0  0  0  0  0  0  0
   55.4380   24.1190   45.1640 C   0  0  0  0  0  0  0  0  0  0  0  0
   56.0860   25.0110   46.0230 C   0  0  0  0  0  0  0  0  0  0  0  0
   61.4480   30.4050   49.0360 N   0  0  0  0  0  0  0  0  0  0  0  0
   62.1470   31.4290   48.5150 C   0  0  0  0  0  0  0  0  0  0  0  0
   63.4270   31.8480   48.8650 C   0  0  0  0  0  0  0  0  0  0  0  0
   63.9720   32.9440   48.1710 C   0  0  0  0  0  0  0  0  0  0  0  0
   63.2330   33.5840   47.1510 C   0  0  0  0  0  0  0  0  0  0  0  0
   61.9400   33.1370   46.8190 C   0  0  0  0  0  0  0  0  0  0  0  0
   61.4250   32.0540   47.5370 C   0  0  0  0  0  0  0  0  0  0  0  0
   58.4940   30.7680   45.8040 C   0  0  0  0  0  0  0  0  0  0  0  0
   55.4310   28.7040   45.6270 H   0  0  0  0  0  0  0  0  0  0  0  0
   56.1786   32.6862   44.1724 H   0  0  0  0  0  0  0  0  0  0  0  0
   57.3480   34.4753   45.4631 H   0  0  0  0  0  0  0  0  0  0  0  0
   59.2422   33.8932   46.9759 H   0  0  0  0  0  0  0  0  0  0  0  0
   59.8998   28.6204   46.5659 H   0  0  0  0  0  0  0  0  0  0  0  0
   60.1422   27.3876   47.8714 H   0  0  0  0  0  0  0  0  0  0  0  0
   59.3134   23.9831   45.5458 H   0  0  0  0  0  0  0  0  0  0  0  0
   58.1573   22.4060   43.9943 H   0  0  0  0  0  0  0  0  0  0  0  0
   54.3430   24.1499   45.0635 H   0  0  0  0  0  0  0  0  0  0  0  0
   55.4983   25.7323   46.6098 H   0  0  0  0  0  0  0  0  0  0  0  0
   63.9942   31.3390   49.6583 H   0  0  0  0  0  0  0  0  0  0  0  0
   64.9798   33.3048   48.4242 H   0  0  0  0  0  0  0  0  0  0  0  0
   63.6709   34.4374   46.6126 H   0  0  0  0  0  0  0  0  0  0  0  0
   61.3561   33.6225   46.0232 H   0  0  0  0  0  0  0  0  0  0  0  0
   58.8218   29.7218   45.8940 H   0  0  0  0  0  0  0  0  0  0  0  0
  1  2  1  0
  2  3  2  0
  2  4  2  0
  2  5  1  0
  5  6  2  0
  6  7  1  0
  7  8  2  0
  8  9  1  0
  9 10  1  0
 10 11  1  0
 11 12  1  0
 12 13  1  0
 13 14  1  0
 14 15  2  0
 14 16  1  0
 16 17  1  0
 17 18  2  0
 18 19  1  0
 19 20  2  0
 20 21  1  0
 20 22  1  0
 22 23  2  0
 11 24  2  0
 24 25  1  0
 25 26  2  0
 26 27  1  0
 27 28  2  0
 28 29  1  0
 29 30  2  0
  9 31  2  0
 31  5  1  0
 30 10  1  0
 23 17  1  0
 30 25  1  0
  1 32  1  0
  6 33  1  0
  7 34  1  0
  8 35  1  0
 13 36  1  0
 13 37  1  0
 18 38  1  0
 19 39  1  0
 22 40  1  0
 23 41  1  0
 26 42  1  0
 27 43  1  0
 28 44  1  0
 29 45  1  0
 31 46  1  0
M  CHG  3   1  -1  16  -1  21  -1
M  END
>  <UniqueID>  (84) 
79

>  <SMILES>  (84) 
[NH-]S(=O)(=O)c1cccc(-n2c(SCC(=O)[N-]c3ccc([O-])cc3)nc3ccccc32)c1

>  <Energy>  (84) 
94.15292674195715

>  <Genealogy>  (84) 
[NH-]S(=O)(=O)c1cccc(-n2c(SCC(=O)[N-]c3ccc([O-])cc3)nc3ccccc32)c1 (protonated)
[NH-]S(=O)(=O)c1cccc(-n2c(SCC(=O)[N-]c3ccc([O-])cc3)nc3ccccc32)c1 (3D coordinates assigned)
[NH-]S(=O)(=O)c1cccc(-n2c(SCC(=O)[N-]c3ccc([O-])cc3)nc3ccccc32)c1 (optimized conformer: 94.15292674195715 kcal/mol)

>  <smiles>  (84) 
NS(=O)(=O)c1cccc(-n2c(SCC(=O)Nc3ccc(O)cc3)nc3ccccc32)c1

>  <score_type>  (84) 
oracle

>  <origin>  (84) 
adg

>  <m_score__min__energy>  (84) 
-17.07

>  <m_primary>  (84) 
energy

$$$$
84:0
     RDKit          3D

 62 64  0  0  0  0  0  0  0  0999 V2000
   55.8460   30.0620   52.5740 C   0  0  0  0  0  0  0  0  0  0  0  0
   57.0120   29.6720   51.8540 O   0  0  0  0  0  0  0  0  0  0  0  0
   57.9410   30.5670   51.3020 C   0  0  0  0  0  0  0  0  0  0  0  0
   57.6860   31.9350   51.4080 C   0  0  0  0  0  0  0  0  0  0  0  0
   58.5750   32.8670   50.8710 C   0  0  0  0  0  0  0  0  0  0  0  0
   59.7450   32.4460   50.2040 C   0  0  0  0  0  0  0  0  0  0  0  0
   60.6650   33.3560   49.6490 O   0  0  0  0  0  0  0  0  0  0  0  0
   60.3500   34.5700   48.9650 C   0  0  0  0  0  0  0  0  0  0  0  0
   59.7510   34.2770   47.6150 C   0  0  0  0  0  0  0  0  0  0  0  0
   59.8050   35.2310   46.5880 C   0  0  0  0  0  0  0  0  0  0  0  0
   59.2270   34.9640   45.3450 C   0  0  0  0  0  0  0  0  0  0  0  0
   58.5810   33.7490   45.1140 C   0  0  0  0  0  0  0  0  0  0  0  0
   58.5080   32.7860   46.1320 C   0  0  0  0  0  0  0  0  0  0  0  0
   57.8560   31.4860   45.8710 C   0  0  0  0  0  0  0  0  0  0  0  0
   58.0180   30.5450   46.6940 O   0  0  0  0  0  0  0  0  0  0  0  0
   57.0180   31.2630   44.7300 N   0  0  0  0  0  0  0  0  0  0  0  0
   56.5380   29.7090   44.1230 S   0  0  0  0  0  0  0  0  0  0  0  0
   56.6670   29.7090   42.6280 O   0  0  0  0  0  0  0  0  0  0  0  0
   55.1040   29.4290   44.4620 O   0  0  0  0  0  0  0  0  0  0  0  0
   57.5770   28.4560   44.7980 C   0  0  0  0  0  0  0  0  0  0  0  0
   58.9720   28.5770   44.7480 C   0  0  0  0  0  0  0  0  0  0  0  0
   59.7850   27.5710   45.2720 C   0  0  0  0  0  0  0  0  0  0  0  0
   59.2120   26.4420   45.8610 C   0  0  0  0  0  0  0  0  0  0  0  0
   57.8160   26.3150   45.9350 C   0  0  0  0  0  0  0  0  0  0  0  0
   57.2010   25.0880   46.5460 C   0  0  0  0  0  0  0  0  0  0  0  0
   55.8080   25.2230   46.6090 O   0  0  0  0  0  0  0  0  0  0  0  0
   57.0030   27.3180   45.3830 C   0  0  0  0  0  0  0  0  0  0  0  0
   59.1120   33.0480   47.3740 C   0  0  0  0  0  0  0  0  0  0  0  0
   60.0180   31.0620   50.1130 C   0  0  0  0  0  0  0  0  0  0  0  0
   61.2590   30.5540   49.4110 C   0  0  0  0  0  0  0  0  0  0  0  0
   61.6720   31.4280   48.2920 N   0  0  0  0  0  0  0  0  0  0  0  0
   61.4010   30.8070   46.9830 C   0  0  0  0  0  0  0  0  0  0  0  0
   63.1080   31.7410   48.4010 C   0  0  0  0  0  0  0  0  0  0  0  0
   59.1110   30.1340   50.6550 C   0  0  0  0  0  0  0  0  0  0  0  0
   56.0430   29.9961   53.6542 H   0  0  0  0  0  0  0  0  0  0  0  0
   55.5823   31.0972   52.3118 H   0  0  0  0  0  0  0  0  0  0  0  0
   55.0125   29.3937   52.3118 H   0  0  0  0  0  0  0  0  0  0  0  0
   56.7760   32.2817   51.9195 H   0  0  0  0  0  0  0  0  0  0  0  0
   58.3613   33.9416   50.9687 H   0  0  0  0  0  0  0  0  0  0  0  0
   59.6285   35.1455   49.5635 H   0  0  0  0  0  0  0  0  0  0  0  0
   61.2750   35.1486   48.8248 H   0  0  0  0  0  0  0  0  0  0  0  0
   60.3054   36.1949   46.7627 H   0  0  0  0  0  0  0  0  0  0  0  0
   59.2813   35.7156   44.5437 H   0  0  0  0  0  0  0  0  0  0  0  0
   58.1282   33.5457   44.1323 H   0  0  0  0  0  0  0  0  0  0  0  0
   59.4284   29.4688   44.2937 H   0  0  0  0  0  0  0  0  0  0  0  0
   60.8796   27.6676   45.2209 H   0  0  0  0  0  0  0  0  0  0  0  0
   59.8568   25.6494   46.2684 H   0  0  0  0  0  0  0  0  0  0  0  0
   57.4533   24.2111   45.9316 H   0  0  0  0  0  0  0  0  0  0  0  0
   57.5948   24.9596   47.5650 H   0  0  0  0  0  0  0  0  0  0  0  0
   55.5690   25.2620   47.5710 H   0  0  0  0  0  0  0  0  0  0  0  0
   55.9086   27.2104   45.4096 H   0  0  0  0  0  0  0  0  0  0  0  0
   59.0844   32.2841   48.1650 H   0  0  0  0  0  0  0  0  0  0  0  0
   62.0809   30.5018   50.1402 H   0  0  0  0  0  0  0  0  0  0  0  0
   61.0262   29.5631   48.9940 H   0  0  0  0  0  0  0  0  0  0  0  0
   61.1410   32.3250   48.3500 H   0  0  0  0  0  0  0  0  0  0  0  0
   60.9652   29.8084   47.1341 H   0  0  0  0  0  0  0  0  0  0  0  0
   60.6946   31.4338   46.4190 H   0  0  0  0  0  0  0  0  0  0  0  0
   62.3410   30.7154   46.4190 H   0  0  0  0  0  0  0  0  0  0  0  0
   63.3903   31.8025   49.4624 H   0  0  0  0  0  0  0  0  0  0  0  0
   63.6940   30.9495   47.9110 H   0  0  0  0  0  0  0  0  0  0  0  0
   63.3115   32.7046   47.9110 H   0  0  0  0  0  0  0  0  0  0  0  0
   59.3196   29.0572   50.5716 H   0  0  0  0  0  0  0  0  0  0  0  0
  1  2  1  0
  2  3  1  0
  3  4  2  0
  4  5  1  0
  5  6  2  0
  6  7  1  0
  7  8  1  0
  8  9  1  0
  9 10  2  0
 10 11  1  0
 11 12  2  0
 12 13  1  0
 13 14  1  0
 14 15  2  0
 14 16  1  0
 16 17  1  0
 17 18  2  0
 17 19  2  0
 17 20  1  0
 20 21  2  0
 21 22  1  0
 22 23  2  0
 23 24  1  0
 24 25  1  0
 25 26  1  0
 24 27  2  0
 13 28  2  0
  6 29  1  0
 29 30  1  0
 30 31  1  0
 31 32  1  0
 31 33  1  0
 29 34  2  0
 34  3  1  0
 28  9  1  0
 27 20  1  0
  1 35  1  0
  1 36  1  0
  1 37  1  0
  4 38  1  0
  5 39  1  0
  8 40  1  0
  8 41  1  0
 10 42  1  0
 11 43  1  0
 12 44  1  0
 21 45  1  0
 22 46  1  0
 23 47  1  0
 25 48  1  0
 25 49  1  0
 26 50  1  0
 27 51  1  0
 28 52  1  0
 30 53  1  0
 30 54  1  0
 31 55  1  0
 32 56  1  0
 32 57  1  0
 32 58  1  0
 33 59  1  0
 33 60  1  0
 33 61  1  0
 34 62  1  0
M  CHG  2  16  -1  31   1
M  END
>  <UniqueID>  (85) 
80

>  <SMILES>  (85) 
COc1ccc(OCc2cccc(C(=O)[N-]S(=O)(=O)c3cccc(CO)c3)c2)c(C[NH+](C)C)c1

>  <Energy>  (85) 
69.61744166397496

>  <Genealogy>  (85) 
COc1ccc(OCc2cccc(C(=O)[N-]S(=O)(=O)c3cccc(CO)c3)c2)c(C[NH+](C)C)c1 (protonated)
COc1ccc(OCc2cccc(C(=O)[N-]S(=O)(=O)c3cccc(CO)c3)c2)c(C[NH+](C)C)c1 (3D coordinates assigned)
COc1ccc(OCc2cccc(C(=O)[N-]S(=O)(=O)c3cccc(CO)c3)c2)c(C[NH+](C)C)c1 (optimized conformer: 69.61744166397496 kcal/mol)

>  <smiles>  (85) 
COc1ccc(OCc2cccc(C(=O)NS(=O)(=O)c3cccc(CO)c3)c2)c(CN(C)C)c1

>  <score_type>  (85) 
oracle

>  <origin>  (85) 
adg

>  <m_score__min__energy>  (85) 
-9.8200000000000003

>  <m_primary>  (85) 
energy

$$$$
85:0
     RDKit          3D

 21 21  0  0  0  0  0  0  0  0999 V2000
   60.0623   35.7295   47.0699 H   0  0  0  0  0  0  0  0  0  0  0  0
   59.4620   34.9330   46.6060 C   0  0  0  0  0  0  0  0  0  0  0  0
   59.2680   34.6770   44.9530 S   0  0  0  0  0  0  0  0  0  0  0  0
   58.2500   33.3590   45.1680 C   0  0  0  0  0  0  0  0  0  0  0  0
   57.7630   32.6670   44.1810 N   0  0  0  0  0  0  0  0  0  0  0  0
   57.3520   31.2930   44.2120 C   0  0  0  0  0  0  0  0  0  0  0  0
   57.1620   30.7480   45.3790 N   0  0  0  0  0  0  0  0  0  0  0  0
   57.9680   29.6970   45.9890 C   0  0  0  0  0  0  0  0  0  0  0  0
   57.9067   29.7770   47.0844 H   0  0  0  0  0  0  0  0  0  0  0  0
   57.5900   28.7140   45.6714 H   0  0  0  0  0  0  0  0  0  0  0  0
   59.0154   29.8072   45.6714 H   0  0  0  0  0  0  0  0  0  0  0  0
   57.3680   30.5140   43.0010 N   0  0  0  0  0  0  0  0  0  0  0  0
   58.0300   30.8110   42.2480 H   0  0  0  0  0  0  0  0  0  0  0  0
   56.2720   29.6340   42.6080 C   0  0  0  0  0  0  0  0  0  0  0  0
   55.7789   29.2381   43.5081 H   0  0  0  0  0  0  0  0  0  0  0  0
   55.5432   30.2007   42.0099 H   0  0  0  0  0  0  0  0  0  0  0  0
   56.6678   28.8000   42.0099 H   0  0  0  0  0  0  0  0  0  0  0  0
   58.0650   33.0880   46.4820 N   0  0  0  0  0  0  0  0  0  0  0  0
   57.5230   32.2850   46.8670 H   0  0  0  0  0  0  0  0  0  0  0  0
   58.7310   33.9620   47.2830 C   0  0  0  0  0  0  0  0  0  0  0  0
   58.6946   33.9057   48.3810 H   0  0  0  0  0  0  0  0  0  0  0  0
  1  2  1  0
  2  3  1  0
  3  4  1  0
  4  5  2  0
  5  6  1  0
  6  7  2  0
  7  8  1  0
  8  9  1  0
  8 10  1  0
  8 11  1  0
  6 12  1  0
 12 13  1  0
 12 14  1  0
 14 15  1  0
 14 16  1  0
 14 17  1  0
  4 18  1  0
 18 19  1  0
 18 20  1  0
 20 21  1  0
 20  2  2  0
M  END
>  <UniqueID>  (86) 
81

>  <SMILES>  (86) 
C/N=C(/N=c1\[nH]ccs1)NC

>  <Energy>  (86) 
55.93359093846166

>  <Genealogy>  (86) 
C/N=C(/N=c1\[nH]ccs1)NC (cis-trans isomerization)
C/N=C(/N=c1\[nH]ccs1)NC (3D coordinates assigned)
C/N=C(/N=c1\[nH]ccs1)NC (optimized conformer: 55.93359093846166 kcal/mol)

>  <smiles>  (86) 
CN=C(N=c1[nH]ccs1)NC

>  <score_type>  (86) 
oracle

>  <origin>  (86) 
adg

>  <m_score__min__energy>  (86) 
-4.6500000000000004

>  <m_primary>  (86) 
energy

$$$$
86:0
     RDKit          3D

 31 32  0  0  0  0  0  0  0  0999 V2000
   54.7770   26.2380   45.9910 N   0  0  0  0  0  0  0  0  0  0  0  0
   56.2960   25.4570   46.2490 S   0  0  0  0  0  0  0  0  0  0  0  0
   56.5190   24.4260   45.1780 O   0  0  0  0  0  0  0  0  0  0  0  0
   56.2830   24.7690   47.5840 O   0  0  0  0  0  0  0  0  0  0  0  0
   57.5880   26.6520   46.2040 C   0  0  0  0  0  0  0  0  0  0  0  0
   57.4550   27.8010   45.4150 C   0  0  0  0  0  0  0  0  0  0  0  0
   58.4710   28.7600   45.3870 C   0  0  0  0  0  0  0  0  0  0  0  0
   59.6330   28.5870   46.1630 C   0  0  0  0  0  0  0  0  0  0  0  0
   60.6920   29.5600   46.1660 N   0  0  0  0  0  0  0  0  0  0  0  0
   60.6630   31.0050   47.1270 S   0  0  0  0  0  0  0  0  0  0  0  0
   60.2520   30.6620   48.5310 O   0  0  0  0  0  0  0  0  0  0  0  0
   62.0450   31.5960   47.1640 O   0  0  0  0  0  0  0  0  0  0  0  0
   59.4990   32.1560   46.4600 C   0  0  0  0  0  0  0  0  0  0  0  0
   58.8310   31.8440   45.2630 C   0  0  0  0  0  0  0  0  0  0  0  0
   57.8910   32.7280   44.7260 C   0  0  0  0  0  0  0  0  0  0  0  0
   57.2510   32.4120   43.5720 F   0  0  0  0  0  0  0  0  0  0  0  0
   57.6100   33.9310   45.3750 C   0  0  0  0  0  0  0  0  0  0  0  0
   56.6970   34.7880   44.8550 F   0  0  0  0  0  0  0  0  0  0  0  0
   58.2700   34.2530   46.5630 C   0  0  0  0  0  0  0  0  0  0  0  0
   59.2150   33.3760   47.1110 C   0  0  0  0  0  0  0  0  0  0  0  0
   60.0820   33.8990   48.7400 Br  0  0  0  0  0  0  0  0  0  0  0  0
   59.7610   27.4300   46.9470 C   0  0  0  0  0  0  0  0  0  0  0  0
   58.7450   26.4730   46.9720 C   0  0  0  0  0  0  0  0  0  0  0  0
   54.7660   27.0900   46.5960 H   0  0  0  0  0  0  0  0  0  0  0  0
   56.5458   27.9496   44.8139 H   0  0  0  0  0  0  0  0  0  0  0  0
   58.3624   29.6543   44.7557 H   0  0  0  0  0  0  0  0  0  0  0  0
   61.5860   29.3360   45.6730 H   0  0  0  0  0  0  0  0  0  0  0  0
   59.0495   30.8981   44.7457 H   0  0  0  0  0  0  0  0  0  0  0  0
   58.0462   35.2021   47.0720 H   0  0  0  0  0  0  0  0  0  0  0  0
   60.6699   27.2759   47.5471 H   0  0  0  0  0  0  0  0  0  0  0  0
   58.8538   25.5747   47.5975 H   0  0  0  0  0  0  0  0  0  0  0  0
  1  2  1  0
  2  3  2  0
  2  4  2  0
  2  5  1  0
  5  6  2  0
  6  7  1  0
  7  8  2  0
  8  9  1  0
  9 10  1  0
 10 11  2  0
 10 12  2  0
 10 13  1  0
 13 14  2  0
 14 15  1  0
 15 16  1  0
 15 17  2  0
 17 18  1  0
 17 19  1  0
 19 20  2  0
 20 21  1  0
  8 22  1  0
 22 23  2  0
 23  5  1  0
 20 13  1  0
  1 24  1  0
  6 25  1  0
  7 26  1  0
  9 27  1  0
 14 28  1  0
 19 29  1  0
 22 30  1  0
 23 31  1  0
M  CHG  1   1  -1
M  END
>  <UniqueID>  (87) 
82

>  <SMILES>  (87) 
[NH-]S(=O)(=O)c1ccc(NS(=O)(=O)c2cc(F)c(F)cc2Br)cc1

>  <Energy>  (87) 
35.69757832998419

>  <Genealogy>  (87) 
[NH-]S(=O)(=O)c1ccc(NS(=O)(=O)c2cc(F)c(F)cc2Br)cc1 (protonated)
[NH-]S(=O)(=O)c1ccc(NS(=O)(=O)c2cc(F)c(F)cc2Br)cc1 (3D coordinates assigned)
[NH-]S(=O)(=O)c1ccc(NS(=O)(=O)c2cc(F)c(F)cc2Br)cc1 (optimized conformer: 35.69757832998419 kcal/mol)

>  <smiles>  (87) 
NS(=O)(=O)c1ccc(NS(=O)(=O)c2cc(F)c(F)cc2Br)cc1

>  <score_type>  (87) 
oracle

>  <origin>  (87) 
adg

>  <m_score__min__energy>  (87) 
-10.619999999999999

>  <m_primary>  (87) 
energy

$$$$
87:0
     RDKit          3D

 60 64  0  0  0  0  0  0  0  0999 V2000
   59.0290   34.9790   44.4980 O   0  0  0  0  0  0  0  0  0  0  0  0
   58.7710   33.9560   45.1860 C   0  0  0  0  0  0  0  0  0  0  0  0
   59.0320   33.9670   46.5570 C   0  0  0  0  0  0  0  0  0  0  0  0
   58.7490   32.8260   47.3170 C   0  0  0  0  0  0  0  0  0  0  0  0
   59.0050   32.8050   48.7310 N   0  0  0  0  0  0  0  0  0  0  0  0
   59.7140   33.9320   49.3480 C   0  0  0  0  0  0  0  0  0  0  0  0
   60.2520   33.5340   50.7260 C   0  0  0  0  0  0  0  0  0  0  0  0
   59.2310   32.9580   51.5140 O   0  0  0  0  0  0  0  0  0  0  0  0
   58.8260   31.7320   50.9360 C   0  0  0  0  0  0  0  0  0  0  0  0
   58.1550   31.9690   49.5810 C   0  0  0  0  0  0  0  0  0  0  0  0
   58.2450   31.7450   46.7260 O   0  0  0  0  0  0  0  0  0  0  0  0
   57.9660   31.6860   45.4240 C   0  0  0  0  0  0  0  0  0  0  0  0
   57.4120   30.5120   44.8700 C   0  0  0  0  0  0  0  0  0  0  0  0
   57.0900   29.3120   45.7330 C   0  0  0  0  0  0  0  0  0  0  0  0
   58.1260   28.2690   45.5620 N   0  0  0  0  0  0  0  0  0  0  0  0
   58.4950   27.6230   46.8490 C   0  0  0  0  0  0  0  0  0  0  0  0
   60.0090   27.6260   47.1320 C   0  0  0  0  0  0  0  0  0  0  0  0
   60.6110   28.9660   46.9430 N   0  0  0  0  0  0  0  0  0  0  0  0
   60.3780   29.8670   48.0930 C   0  0  0  0  0  0  0  0  0  0  0  0
   61.5160   30.8360   48.2870 C   0  0  0  0  0  0  0  0  0  0  0  0
   61.9160   31.6810   47.2400 C   0  0  0  0  0  0  0  0  0  0  0  0
   62.9890   32.5600   47.4140 C   0  0  0  0  0  0  0  0  0  0  0  0
   63.6650   32.6040   48.6360 C   0  0  0  0  0  0  0  0  0  0  0  0
   64.7060   33.4580   48.8030 F   0  0  0  0  0  0  0  0  0  0  0  0
   63.2730   31.7640   49.6840 C   0  0  0  0  0  0  0  0  0  0  0  0
   62.2040   30.8800   49.5110 C   0  0  0  0  0  0  0  0  0  0  0  0
   60.2210   29.6190   45.6640 C   0  0  0  0  0  0  0  0  0  0  0  0
   59.2880   28.7600   44.7940 C   0  0  0  0  0  0  0  0  0  0  0  0
   57.1180   30.4720   43.4930 C   0  0  0  0  0  0  0  0  0  0  0  0
   56.5620   29.3310   42.9220 O   0  0  0  0  0  0  0  0  0  0  0  0
   57.3820   31.5790   42.6830 C   0  0  0  0  0  0  0  0  0  0  0  0
   57.9330   32.7380   43.2270 C   0  0  0  0  0  0  0  0  0  0  0  0
   58.2260   32.8040   44.5980 C   0  0  0  0  0  0  0  0  0  0  0  0
   59.4555   34.8625   47.0352 H   0  0  0  0  0  0  0  0  0  0  0  0
   60.5540   34.2288   48.7028 H   0  0  0  0  0  0  0  0  0  0  0  0
   59.0139   34.7720   49.4671 H   0  0  0  0  0  0  0  0  0  0  0  0
   61.0651   32.8041   50.5990 H   0  0  0  0  0  0  0  0  0  0  0  0
   60.6241   34.4359   51.2340 H   0  0  0  0  0  0  0  0  0  0  0  0
   59.7082   31.0903   50.7949 H   0  0  0  0  0  0  0  0  0  0  0  0
   58.1040   31.2452   51.6082 H   0  0  0  0  0  0  0  0  0  0  0  0
   57.9865   31.0014   49.0856 H   0  0  0  0  0  0  0  0  0  0  0  0
   57.1957   32.4826   49.7423 H   0  0  0  0  0  0  0  0  0  0  0  0
   57.0561   29.6214   46.7881 H   0  0  0  0  0  0  0  0  0  0  0  0
   56.1145   28.9030   45.4310 H   0  0  0  0  0  0  0  0  0  0  0  0
   57.9883   28.1596   47.6647 H   0  0  0  0  0  0  0  0  0  0  0  0
   58.1829   26.5704   46.7813 H   0  0  0  0  0  0  0  0  0  0  0  0
   60.1757   27.3061   48.1712 H   0  0  0  0  0  0  0  0  0  0  0  0
   60.4870   26.9376   46.4195 H   0  0  0  0  0  0  0  0  0  0  0  0
   59.4528   30.4355   47.9177 H   0  0  0  0  0  0  0  0  0  0  0  0
   60.2979   29.2491   48.9996 H   0  0  0  0  0  0  0  0  0  0  0  0
   61.3828   31.6514   46.2783 H   0  0  0  0  0  0  0  0  0  0  0  0
   63.3011   33.2170   46.5888 H   0  0  0  0  0  0  0  0  0  0  0  0
   63.8066   31.7992   50.6452 H   0  0  0  0  0  0  0  0  0  0  0  0
   61.9009   30.2174   50.3351 H   0  0  0  0  0  0  0  0  0  0  0  0
   59.7070   30.5630   45.8980 H   0  0  0  0  0  0  0  0  0  0  0  0
   61.1445   29.7774   45.0878 H   0  0  0  0  0  0  0  0  0  0  0  0
   58.9274   29.3671   43.9505 H   0  0  0  0  0  0  0  0  0  0  0  0
   59.8568   27.8888   44.4369 H   0  0  0  0  0  0  0  0  0  0  0  0
   57.1534   31.5358   41.6079 H   0  0  0  0  0  0  0  0  0  0  0  0
   58.1388   33.6034   42.5799 H   0  0  0  0  0  0  0  0  0  0  0  0
  1  2  2  0
  2  3  1  0
  3  4  2  0
  4  5  1  0
  5  6  1  0
  6  7  1  0
  7  8  1  0
  8  9  1  0
  9 10  1  0
  4 11  1  0
 11 12  1  0
 12 13  2  0
 13 14  1  0
 14 15  1  0
 15 16  1  0
 16 17  1  0
 17 18  1  0
 18 19  1  0
 19 20  1  0
 20 21  2  0
 21 22  1  0
 22 23  2  0
 23 24  1  0
 23 25  1  0
 25 26  2  0
 18 27  1  0
 27 28  1  0
 13 29  1  0
 29 30  1  0
 29 31  2  0
 31 32  1  0
 32 33  2  0
 33  2  1  0
 10  5  1  0
 33 12  1  0
 28 15  1  0
 26 20  1  0
  3 34  1  0
  6 35  1  0
  6 36  1  0
  7 37  1  0
  7 38  1  0
  9 39  1  0
  9 40  1  0
 10 41  1  0
 10 42  1  0
 14 43  1  0
 14 44  1  0
 16 45  1  0
 16 46  1  0
 17 47  1  0
 17 48  1  0
 19 49  1  0
 19 50  1  0
 21 51  1  0
 22 52  1  0
 25 53  1  0
 26 54  1  0
 27 55  1  0
 27 56  1  0
 28 57  1  0
 28 58  1  0
 31 59  1  0
 32 60  1  0
M  CHG  1  30  -1
M  END
>  <UniqueID>  (88) 
83

>  <SMILES>  (88) 
O=c1cc(N2CCOCC2)oc2c(CN3CCN(Cc4ccc(F)cc4)CC3)c([O-])ccc12

>  <Energy>  (88) 
87.19333928261682

>  <Genealogy>  (88) 
O=c1cc(N2CCOCC2)oc2c(CN3CCN(Cc4ccc(F)cc4)CC3)c([O-])ccc12 (protonated)
O=c1cc(N2CCOCC2)oc2c(CN3CCN(Cc4ccc(F)cc4)CC3)c([O-])ccc12 (3D coordinates assigned)
O=c1cc(N2CCOCC2)oc2c(CN3CCN(Cc4ccc(F)cc4)CC3)c([O-])ccc12 (nonaromatic ring conformer: 87.19333928261682 kcal/mol)

>  <smiles>  (88) 
O=c1cc(N2CCOCC2)oc2c(CN3CCN(Cc4ccc(F)cc4)CC3)c(O)ccc12

>  <score_type>  (88) 
oracle

>  <origin>  (88) 
adg

>  <m_score__min__energy>  (88) 
-10.23

>  <m_primary>  (88) 
energy

$$$$
88:0
     RDKit          3D

 58 61  0  0  0  0  0  0  0  0999 V2000
   56.7500   29.6150   53.4740 C   0  0  0  0  0  0  0  0  0  0  0  0
   56.8590   29.8460   52.0240 N   0  0  0  0  0  0  0  0  0  0  0  0
   56.3120   31.1600   51.6300 C   0  0  0  0  0  0  0  0  0  0  0  0
   57.2060   32.3410   52.0660 C   0  0  0  0  0  0  0  0  0  0  0  0
   58.7190   32.0040   52.0320 C   0  0  0  0  0  0  0  0  0  0  0  0
   59.5180   33.1820   51.6570 N   0  0  0  0  0  0  0  0  0  0  0  0
   60.0380   33.4320   50.3340 C   0  0  0  0  0  0  0  0  0  0  0  0
   61.3690   33.8570   50.1960 C   0  0  0  0  0  0  0  0  0  0  0  0
   61.9080   34.1080   48.9330 C   0  0  0  0  0  0  0  0  0  0  0  0
   61.1260   33.9400   47.7900 C   0  0  0  0  0  0  0  0  0  0  0  0
   59.7920   33.5140   47.8980 C   0  0  0  0  0  0  0  0  0  0  0  0
   58.9550   33.3410   46.6840 C   0  0  0  0  0  0  0  0  0  0  0  0
   58.8970   34.3560   45.7110 C   0  0  0  0  0  0  0  0  0  0  0  0
   58.1270   34.1860   44.5580 C   0  0  0  0  0  0  0  0  0  0  0  0
   57.3960   33.0110   44.3690 C   0  0  0  0  0  0  0  0  0  0  0  0
   57.4170   32.0010   45.3370 C   0  0  0  0  0  0  0  0  0  0  0  0
   56.6590   30.8050   45.0970 N   0  0  0  0  0  0  0  0  0  0  0  0
   57.1710   29.4680   45.0290 C   0  0  0  0  0  0  0  0  0  0  0  0
   57.1020   28.8110   43.9550 O   0  0  0  0  0  0  0  0  0  0  0  0
   57.7790   28.8940   46.1940 N   0  0  0  0  0  0  0  0  0  0  0  0
   58.4970   27.6460   46.1930 C   0  0  0  0  0  0  0  0  0  0  0  0
   59.9020   27.6300   46.2840 C   0  0  0  0  0  0  0  0  0  0  0  0
   60.5980   26.4180   46.3120 C   0  0  0  0  0  0  0  0  0  0  0  0
   59.9010   25.2100   46.2590 C   0  0  0  0  0  0  0  0  0  0  0  0
   58.5070   25.2090   46.1850 C   0  0  0  0  0  0  0  0  0  0  0  0
   57.7990   26.4190   46.1570 C   0  0  0  0  0  0  0  0  0  0  0  0
   56.3600   26.3830   46.0690 C   0  0  0  0  0  0  0  0  0  0  0  0
   55.2050   26.3540   46.0000 N   0  0  0  0  0  0  0  0  0  0  0  0
   58.2160   32.1600   46.4850 C   0  0  0  0  0  0  0  0  0  0  0  0
   59.2570   33.2560   49.1740 C   0  0  0  0  0  0  0  0  0  0  0  0
   58.9860   30.8470   51.0600 C   0  0  0  0  0  0  0  0  0  0  0  0
   58.2260   29.5820   51.5030 C   0  0  0  0  0  0  0  0  0  0  0  0
   57.1587   30.4812   54.0150 H   0  0  0  0  0  0  0  0  0  0  0  0
   55.6927   29.4789   53.7451 H   0  0  0  0  0  0  0  0  0  0  0  0
   57.3172   28.7123   53.7451 H   0  0  0  0  0  0  0  0  0  0  0  0
   56.2100   31.1832   50.5350 H   0  0  0  0  0  0  0  0  0  0  0  0
   55.3420   31.2775   52.1353 H   0  0  0  0  0  0  0  0  0  0  0  0
   57.0209   33.1884   51.3896 H   0  0  0  0  0  0  0  0  0  0  0  0
   56.9470   32.5811   53.1078 H   0  0  0  0  0  0  0  0  0  0  0  0
   59.0216   31.6961   53.0438 H   0  0  0  0  0  0  0  0  0  0  0  0
   59.7210   33.9000   52.3900 H   0  0  0  0  0  0  0  0  0  0  0  0
   61.9930   33.9935   51.0916 H   0  0  0  0  0  0  0  0  0  0  0  0
   62.9527   34.4393   48.8387 H   0  0  0  0  0  0  0  0  0  0  0  0
   61.5567   34.1424   46.7983 H   0  0  0  0  0  0  0  0  0  0  0  0
   59.4612   35.2886   45.8592 H   0  0  0  0  0  0  0  0  0  0  0  0
   58.0963   34.9796   43.7969 H   0  0  0  0  0  0  0  0  0  0  0  0
   56.8003   32.8789   43.4538 H   0  0  0  0  0  0  0  0  0  0  0  0
   57.6340   29.3890   47.1020 H   0  0  0  0  0  0  0  0  0  0  0  0
   60.4564   28.5788   46.3335 H   0  0  0  0  0  0  0  0  0  0  0  0
   61.6961   26.4164   46.3759 H   0  0  0  0  0  0  0  0  0  0  0  0
   60.4508   24.2574   46.2756 H   0  0  0  0  0  0  0  0  0  0  0  0
   57.9614   24.2545   46.1485 H   0  0  0  0  0  0  0  0  0  0  0  0
   58.2631   31.3545   47.2327 H   0  0  0  0  0  0  0  0  0  0  0  0
   58.2161   32.9126   49.2671 H   0  0  0  0  0  0  0  0  0  0  0  0
   58.6512   31.1361   50.0528 H   0  0  0  0  0  0  0  0  0  0  0  0
   60.0643   30.6297   51.0541 H   0  0  0  0  0  0  0  0  0  0  0  0
   58.1416   28.9088   50.6371 H   0  0  0  0  0  0  0  0  0  0  0  0
   58.8008   29.1403   52.3304 H   0  0  0  0  0  0  0  0  0  0  0  0
  1  2  1  0
  2  3  1  0
  3  4  1  0
  4  5  1  0
  5  6  1  0
  6  7  1  0
  7  8  2  0
  8  9  1  0
  9 10  2  0
 10 11  1  0
 11 12  1  0
 12 13  2  0
 13 14  1  0
 14 15  2  0
 15 16  1  0
 16 17  1  0
 17 18  1  0
 18 19  2  0
 18 20  1  0
 20 21  1  0
 21 22  2  0
 22 23  1  0
 23 24  2  0
 24 25  1  0
 25 26  2  0
 26 27  1  0
 27 28  3  0
 16 29  2  0
 11 30  2  0
  5 31  1  0
 31 32  1  0
 32  2  1  0
 30  7  1  0
 29 12  1  0
 26 21  1  0
  1 33  1  0
  1 34  1  0
  1 35  1  0
  3 36  1  0
  3 37  1  0
  4 38  1  0
  4 39  1  0
  5 40  1  0
  6 41  1  0
  8 42  1  0
  9 43  1  0
 10 44  1  0
 13 45  1  0
 14 46  1  0
 15 47  1  0
 20 48  1  0
 22 49  1  0
 23 50  1  0
 24 51  1  0
 25 52  1  0
 29 53  1  0
 30 54  1  0
 31 55  1  0
 31 56  1  0
 32 57  1  0
 32 58  1  0
M  CHG  1  17  -1
M  END
>  <UniqueID>  (89) 
84

>  <SMILES>  (89) 
CN1CCC(Nc2cccc(-c3cccc([N-]C(=O)Nc4ccccc4C#N)c3)c2)CC1

>  <Energy>  (89) 
83.2589655189472

>  <Genealogy>  (89) 
CN1CCC(Nc2cccc(-c3cccc([N-]C(=O)Nc4ccccc4C#N)c3)c2)CC1 (protonated)
CN1CCC(Nc2cccc(-c3cccc([N-]C(=O)Nc4ccccc4C#N)c3)c2)CC1 (3D coordinates assigned)
CN1CCC(Nc2cccc(-c3cccc([N-]C(=O)Nc4ccccc4C#N)c3)c2)CC1 (nonaromatic ring conformer: 83.2589655189472 kcal/mol)

>  <smiles>  (89) 
CN1CCC(Nc2cccc(-c3cccc(NC(=O)Nc4ccccc4C#N)c3)c2)CC1

>  <score_type>  (89) 
oracle

>  <origin>  (89) 
adg

>  <m_score__min__energy>  (89) 
-11.970000000000001

>  <m_primary>  (89) 
energy

$$$$
89:0
     RDKit          3D

 54 56  0  0  1  0  0  0  0  0999 V2000
   57.2480   31.2790   42.2120 C   0  0  0  0  0  0  0  0  0  0  0  0
   57.1200   31.2750   43.6480 N   0  0  0  0  0  0  0  0  0  0  0  0
   56.3990   30.2010   44.2680 C   0  0  0  0  0  0  0  0  0  0  0  0
   55.1870   30.4380   44.5200 O   0  0  0  0  0  0  0  0  0  0  0  0
   57.0160   28.9220   44.5870 C   0  0  0  0  0  0  0  0  0  0  0  0
   56.7480   28.2090   45.6070 N   0  0  0  0  0  0  0  0  0  0  0  0
   56.8770   26.7870   45.6720 C   0  0  0  0  0  0  0  0  0  0  0  0
   55.9560   26.1880   46.3120 O   0  0  0  0  0  0  0  0  0  0  0  0
   58.0000   26.0520   45.0400 C   0  0  0  0  0  0  0  0  0  0  0  0
   59.1350   25.9900   46.0360 C   0  0  0  0  0  0  0  0  0  0  0  0
   59.4450   27.3730   46.4690 C   0  0  0  0  0  0  0  0  0  0  0  0
   59.2430   27.8290   47.7560 C   0  0  0  0  0  0  0  0  0  0  0  0
   59.5610   29.1390   48.0720 C   0  0  0  0  0  0  0  0  0  0  0  0
   60.0720   29.9750   47.1040 C   0  0  0  0  0  0  0  0  0  0  0  0
   60.4130   31.3330   47.3840 N   0  0  0  0  0  0  0  0  0  0  0  0
   61.7780   31.6940   47.1890 C   0  0  0  0  0  0  0  0  0  0  0  0
   62.6090   30.8430   46.7920 O   0  0  0  0  0  0  0  0  0  0  0  0
   62.2720   33.0860   47.4460 C   0  0  0  0  0  0  0  0  0  0  0  0
   61.7080   33.4460   48.7860 C   0  0  0  0  0  0  0  0  0  0  0  0
   62.3930   33.7070   49.9580 C   0  0  0  0  0  0  0  0  0  0  0  0
   61.4830   33.9890   50.9230 N   0  0  0  0  0  0  0  0  0  0  0  0
   60.2600   33.9070   50.3730 C   0  0  0  0  0  0  0  0  0  0  0  0
   60.4040   33.5770   49.0750 N   0  0  0  0  0  0  0  0  0  0  0  0
   60.2840   29.5440   45.8030 C   0  0  0  0  0  0  0  0  0  0  0  0
   59.9600   28.2300   45.5100 C   0  0  0  0  0  0  0  0  0  0  0  0
   57.6560   32.2590   44.5130 C   0  0  0  0  0  0  0  0  0  0  0  0
   57.4940   32.0970   45.8460 N   0  0  0  0  0  0  0  0  0  0  0  0
   57.9720   32.9840   46.7550 C   0  0  0  0  0  0  0  0  0  0  0  0
   57.7680   32.7450   48.0150 N   0  0  0  0  0  0  0  0  0  0  0  0
   58.6550   34.1120   46.3300 C   0  0  0  0  0  0  0  0  0  0  0  0
   58.8170   34.2710   44.9810 C   0  0  0  0  0  0  0  0  0  0  0  0
   58.3180   33.3500   44.1170 N   0  0  0  0  0  0  0  0  0  0  0  0
   58.3130   31.3123   41.9389 H   0  0  0  0  0  0  0  0  0  0  0  0
   56.7924   30.3662   41.8007 H   0  0  0  0  0  0  0  0  0  0  0  0
   56.7363   32.1616   41.8007 H   0  0  0  0  0  0  0  0  0  0  0  0
   57.7762   28.5402   43.8896 H   0  0  0  0  0  0  0  0  0  0  0  0
   57.6785   25.0337   44.7762 H   0  0  0  0  0  0  0  0  0  0  0  0
   58.3240   26.5640   44.1219 H   0  0  0  0  0  0  0  0  0  0  0  0
   58.8356   25.3857   46.9050 H   0  0  0  0  0  0  0  0  0  0  0  0
   60.0206   25.5277   45.5756 H   0  0  0  0  0  0  0  0  0  0  0  0
   58.8327   27.1572   48.5243 H   0  0  0  0  0  0  0  0  0  0  0  0
   59.4057   29.5117   49.0952 H   0  0  0  0  0  0  0  0  0  0  0  0
   59.7180   32.0370   47.7140 H   0  0  0  0  0  0  0  0  0  0  0  0
   63.3715   33.1099   47.4684 H   0  0  0  0  0  0  0  0  0  0  0  0
   61.9618   33.7903   46.6601 H   0  0  0  0  0  0  0  0  0  0  0  0
   63.4854   33.6891   50.0855 H   0  0  0  0  0  0  0  0  0  0  0  0
   61.7080   34.2280   51.9240 H   0  0  0  0  0  0  0  0  0  0  0  0
   59.3060   34.0795   50.8928 H   0  0  0  0  0  0  0  0  0  0  0  0
   60.6926   30.2180   45.0357 H   0  0  0  0  0  0  0  0  0  0  0  0
   60.1159   27.8562   44.4873 H   0  0  0  0  0  0  0  0  0  0  0  0
   58.5310   33.0120   48.6880 H   0  0  0  0  0  0  0  0  0  0  0  0
   59.0498   34.8477   47.0461 H   0  0  0  0  0  0  0  0  0  0  0  0
   59.3543   35.1495   44.5942 H   0  0  0  0  0  0  0  0  0  0  0  0
   58.4700   33.5260   43.1210 H   0  0  0  0  0  0  0  0  0  0  0  0
  1  2  1  0
  2  3  1  0
  3  4  2  0
  3  5  1  0
  5  6  2  0
  6  7  1  0
  7  8  2  0
  7  9  1  0
  9 10  1  0
 10 11  1  0
 11 12  2  0
 12 13  1  0
 13 14  2  0
 14 15  1  0
 15 16  1  0
 16 17  2  0
 16 18  1  0
 18 19  1  0
 19 20  2  0
 20 21  1  0
 21 22  1  0
 22 23  2  0
 14 24  1  0
 24 25  2  0
  2 26  1  0
 26 27  2  0
 27 28  1  0
 28 29  2  3
 28 30  1  0
 30 31  2  0
 31 32  1  0
 25 11  1  0
 32 26  1  0
 23 19  1  0
  1 33  1  0
  1 34  1  0
  1 35  1  0
  5 36  1  0
  9 37  1  0
  9 38  1  0
 10 39  1  0
 10 40  1  0
 12 41  1  0
 13 42  1  0
 15 43  1  0
 18 44  1  0
 18 45  1  0
 20 46  1  0
 21 47  1  0
 22 48  1  0
 24 49  1  0
 25 50  1  0
 29 51  1  0
 30 52  1  0
 31 53  1  0
 32 54  1  0
M  END
>  <smiles>  (90) 
CN(C(=O)C=NC(=O)CCc1ccc(NC(=O)Cc2c[nH]cn2)cc1)c1nc(=N)cc[nH]1

>  <score_type>  (90) 
oracle

>  <origin>  (90) 
adg

>  <m_score__min__energy>  (90) 
-9.3399999999999999

>  <m_primary>  (90) 
energy

$$$$
90:0
     RDKit          3D

 26 28  0  0  0  0  0  0  0  0999 V2000
   55.1400   25.3400   46.0330 O   0  0  0  0  0  0  0  0  0  0  0  0
   56.1060   26.1310   45.7980 C   0  0  0  0  0  0  0  0  0  0  0  0
   57.4000   25.7390   45.6850 N   0  0  0  0  0  0  0  0  0  0  0  0
   58.1320   26.8410   45.4360 C   0  0  0  0  0  0  0  0  0  0  0  0
   59.4630   26.9870   45.2420 N   0  0  0  0  0  0  0  0  0  0  0  0
   59.9600   28.2310   45.0030 C   0  0  0  0  0  0  0  0  0  0  0  0
   59.1300   29.3310   44.9580 C   0  0  0  0  0  0  0  0  0  0  0  0
   57.7560   29.1740   45.1590 C   0  0  0  0  0  0  0  0  0  0  0  0
   56.9700   30.3150   45.1030 O   0  0  0  0  0  0  0  0  0  0  0  0
   57.5160   31.5820   45.2010 C   0  0  0  0  0  0  0  0  0  0  0  0
   57.7640   32.2240   46.3920 C   0  0  0  0  0  0  0  0  0  0  0  0
   58.3150   33.4960   46.3940 C   0  0  0  0  0  0  0  0  0  0  0  0
   58.6110   34.1140   45.1750 C   0  0  0  0  0  0  0  0  0  0  0  0
   58.3650   33.4760   43.9740 C   0  0  0  0  0  0  0  0  0  0  0  0
   57.8170   32.2100   43.9890 C   0  0  0  0  0  0  0  0  0  0  0  0
   57.5720   31.5760   42.8020 F   0  0  0  0  0  0  0  0  0  0  0  0
   57.2570   27.9120   45.4010 C   0  0  0  0  0  0  0  0  0  0  0  0
   56.0180   27.4660   45.6230 N   0  0  0  0  0  0  0  0  0  0  0  0
   57.7150   24.7490   45.7810 H   0  0  0  0  0  0  0  0  0  0  0  0
   61.0405   28.3610   44.8432 H   0  0  0  0  0  0  0  0  0  0  0  0
   59.5483   30.3298   44.7644 H   0  0  0  0  0  0  0  0  0  0  0  0
   57.5248   31.7274   47.3439 H   0  0  0  0  0  0  0  0  0  0  0  0
   58.5171   34.0133   47.3435 H   0  0  0  0  0  0  0  0  0  0  0  0
   59.0466   35.1241   45.1720 H   0  0  0  0  0  0  0  0  0  0  0  0
   58.6026   33.9702   43.0204 H   0  0  0  0  0  0  0  0  0  0  0  0
   55.1500   28.0440   45.6560 H   0  0  0  0  0  0  0  0  0  0  0  0
  1  2  2  0
  2  3  1  0
  3  4  1  0
  4  5  2  0
  5  6  1  0
  6  7  2  0
  7  8  1  0
  8  9  1  0
  9 10  1  0
 10 11  2  0
 11 12  1  0
 12 13  2  0
 13 14  1  0
 14 15  2  0
 15 16  1  0
  8 17  2  0
 17 18  1  0
 18  2  1  0
 17  4  1  0
 15 10  1  0
  3 19  1  0
  6 20  1  0
  7 21  1  0
 11 22  1  0
 12 23  1  0
 13 24  1  0
 14 25  1  0
 18 26  1  0
M  END
>  <smiles>  (91) 
O=c1[nH]c2nccc(Oc3ccccc3F)c2[nH]1

>  <score_type>  (91) 
oracle

>  <origin>  (91) 
adg

>  <m_score__min__energy>  (91) 
-6.71

>  <m_primary>  (91) 
energy

$$$$
91:0
     RDKit          3D

 61 65  0  0  0  0  0  0  0  0999 V2000
   62.2170   32.6210   46.9430 O   0  0  0  0  0  0  0  0  0  0  0  0
   61.7480   31.9510   47.9070 C   0  0  0  0  0  0  0  0  0  0  0  0
   61.7960   32.4620   49.1760 N   0  0  0  0  0  0  0  0  0  0  0  0
   62.4600   33.7580   49.4320 C   0  0  0  0  0  0  0  0  0  0  0  0
   63.8070   33.5380   50.0740 C   0  0  0  0  0  0  0  0  0  0  0  0
   64.1440   34.2050   51.2650 C   0  0  0  0  0  0  0  0  0  0  0  0
   65.4090   34.0330   51.8360 C   0  0  0  0  0  0  0  0  0  0  0  0
   66.3470   33.2000   51.2220 C   0  0  0  0  0  0  0  0  0  0  0  0
   66.0220   32.5350   50.0370 C   0  0  0  0  0  0  0  0  0  0  0  0
   64.7580   32.7050   49.4630 C   0  0  0  0  0  0  0  0  0  0  0  0
   61.2780   31.7360   50.2140 C   0  0  0  0  0  0  0  0  0  0  0  0
   61.3230   32.2030   51.3870 O   0  0  0  0  0  0  0  0  0  0  0  0
   60.7130   30.5090   49.9910 N   0  0  0  0  0  0  0  0  0  0  0  0
   60.1380   29.7200   51.1040 C   0  0  0  0  0  0  0  0  0  0  0  0
   58.7600   30.2200   51.4630 C   0  0  0  0  0  0  0  0  0  0  0  0
   58.3030   31.4510   50.9590 C   0  0  0  0  0  0  0  0  0  0  0  0
   57.0390   31.9330   51.3070 C   0  0  0  0  0  0  0  0  0  0  0  0
   56.2180   31.1930   52.1610 C   0  0  0  0  0  0  0  0  0  0  0  0
   56.6590   29.9670   52.6680 C   0  0  0  0  0  0  0  0  0  0  0  0
   55.6170   29.0470   53.7410 Cl  0  0  0  0  0  0  0  0  0  0  0  0
   57.9270   29.4780   52.3220 C   0  0  0  0  0  0  0  0  0  0  0  0
   58.3420   28.2860   52.8180 F   0  0  0  0  0  0  0  0  0  0  0  0
   60.6870   30.0040   48.7200 C   0  0  0  0  0  0  0  0  0  0  0  0
   60.1880   28.8620   48.5110 O   0  0  0  0  0  0  0  0  0  0  0  0
   61.1970   30.7200   47.6740 N   0  0  0  0  0  0  0  0  0  0  0  0
   61.1760   30.1420   46.3120 C   0  0  0  0  0  0  0  0  0  0  0  0
   59.7580   29.7930   45.9040 C   0  0  0  0  0  0  0  0  0  0  0  0
   59.4850   28.4680   45.5170 C   0  0  0  0  0  0  0  0  0  0  0  0
   58.1860   28.0680   45.2040 C   0  0  0  0  0  0  0  0  0  0  0  0
   57.1370   28.9830   45.2710 C   0  0  0  0  0  0  0  0  0  0  0  0
   55.8750   28.5900   44.9720 F   0  0  0  0  0  0  0  0  0  0  0  0
   57.3860   30.3060   45.6400 C   0  0  0  0  0  0  0  0  0  0  0  0
   58.6900   30.7300   45.9460 C   0  0  0  0  0  0  0  0  0  0  0  0
   58.8950   32.1530   46.2900 C   0  0  0  0  0  0  0  0  0  0  0  0
   59.2130   33.0870   45.2910 C   0  0  0  0  0  0  0  0  0  0  0  0
   59.3990   34.4330   45.6200 C   0  0  0  0  0  0  0  0  0  0  0  0
   59.2620   34.8560   46.9460 C   0  0  0  0  0  0  0  0  0  0  0  0
   58.9300   33.9350   47.9420 C   0  0  0  0  0  0  0  0  0  0  0  0
   58.7370   32.5880   47.6160 C   0  0  0  0  0  0  0  0  0  0  0  0
   62.5948   34.2912   48.4793 H   0  0  0  0  0  0  0  0  0  0  0  0
   61.8326   34.3535   50.1115 H   0  0  0  0  0  0  0  0  0  0  0  0
   63.4095   34.8650   51.7497 H   0  0  0  0  0  0  0  0  0  0  0  0
   65.6656   34.5545   52.7699 H   0  0  0  0  0  0  0  0  0  0  0  0
   67.3421   33.0674   51.6716 H   0  0  0  0  0  0  0  0  0  0  0  0
   66.7606   31.8774   49.5553 H   0  0  0  0  0  0  0  0  0  0  0  0
   64.5075   32.1832   48.5276 H   0  0  0  0  0  0  0  0  0  0  0  0
   60.0705   28.6649   50.8002 H   0  0  0  0  0  0  0  0  0  0  0  0
   60.7903   29.8257   51.9834 H   0  0  0  0  0  0  0  0  0  0  0  0
   58.9453   32.0382   50.2862 H   0  0  0  0  0  0  0  0  0  0  0  0
   56.6897   32.8967   50.9079 H   0  0  0  0  0  0  0  0  0  0  0  0
   55.2236   31.5752   52.4349 H   0  0  0  0  0  0  0  0  0  0  0  0
   61.5870   30.8745   45.6017 H   0  0  0  0  0  0  0  0  0  0  0  0
   61.7835   29.2250   46.3057 H   0  0  0  0  0  0  0  0  0  0  0  0
   60.3064   27.7385   45.4606 H   0  0  0  0  0  0  0  0  0  0  0  0
   57.9891   27.0283   44.9037 H   0  0  0  0  0  0  0  0  0  0  0  0
   56.5536   31.0232   45.6917 H   0  0  0  0  0  0  0  0  0  0  0  0
   59.3161   32.7586   44.2462 H   0  0  0  0  0  0  0  0  0  0  0  0
   59.6534   35.1603   44.8349 H   0  0  0  0  0  0  0  0  0  0  0  0
   59.4157   35.9141   47.2044 H   0  0  0  0  0  0  0  0  0  0  0  0
   58.8201   34.2690   48.9843 H   0  0  0  0  0  0  0  0  0  0  0  0
   58.4608   31.8679   48.4003 H   0  0  0  0  0  0  0  0  0  0  0  0
  1  2  2  0
  2  3  1  0
  3  4  1  0
  4  5  1  0
  5  6  2  0
  6  7  1  0
  7  8  2  0
  8  9  1  0
  9 10  2  0
  3 11  1  0
 11 12  2  0
 11 13  1  0
 13 14  1  0
 14 15  1  0
 15 16  2  0
 16 17  1  0
 17 18  2  0
 18 19  1  0
 19 20  1  0
 19 21  2  0
 21 22  1  0
 13 23  1  0
 23 24  2  0
 23 25  1  0
 25 26  1  0
 26 27  1  0
 27 28  2  0
 28 29  1  0
 29 30  2  0
 30 31  1  0
 30 32  1  0
 32 33  2  0
 33 34  1  0
 34 35  2  0
 35 36  1  0
 36 37  2  0
 37 38  1  0
 38 39  2  0
 25  2  1  0
 33 27  1  0
 39 34  1  0
 10  5  1  0
 21 15  1  0
  4 40  1  0
  4 41  1  0
  6 42  1  0
  7 43  1  0
  8 44  1  0
  9 45  1  0
 10 46  1  0
 14 47  1  0
 14 48  1  0
 16 49  1  0
 17 50  1  0
 18 51  1  0
 26 52  1  0
 26 53  1  0
 28 54  1  0
 29 55  1  0
 32 56  1  0
 35 57  1  0
 36 58  1  0
 37 59  1  0
 38 60  1  0
 39 61  1  0
M  END
>  <UniqueID>  (92) 
85

>  <SMILES>  (92) 
O=c1n(Cc2ccccc2)c(=O)n(Cc2cccc(Cl)c2F)c(=O)n1Cc1ccc(F)cc1-c1ccccc1

>  <Energy>  (92) 
86.25750959105754

>  <Genealogy>  (92) 
O=c1n(Cc2ccccc2)c(=O)n(Cc2cccc(Cl)c2F)c(=O)n1Cc1ccc(F)cc1-c1ccccc1 (3D coordinates assigned)
O=c1n(Cc2ccccc2)c(=O)n(Cc2cccc(Cl)c2F)c(=O)n1Cc1ccc(F)cc1-c1ccccc1 (optimized conformer: 86.25750959105754 kcal/mol)

>  <smiles>  (92) 
O=c1n(Cc2ccccc2)c(=O)n(Cc2cccc(Cl)c2F)c(=O)n1Cc1ccc(F)cc1-c1ccccc1

>  <score_type>  (92) 
oracle

>  <origin>  (92) 
adg

>  <m_score__min__energy>  (92) 
-9.0199999999999996

>  <m_primary>  (92) 
energy

$$$$
92:0
     RDKit          3D

 42 44  0  0  0  0  0  0  0  0999 V2000
   54.8790   26.3370   46.0790 N   0  0  0  0  0  0  0  0  0  0  0  0
   54.6270   24.7250   45.5060 S   0  0  0  0  0  0  0  0  0  0  0  0
   53.2220   24.6000   44.9890 O   0  0  0  0  0  0  0  0  0  0  0  0
   55.5980   24.4690   44.3890 O   0  0  0  0  0  0  0  0  0  0  0  0
   54.8880   23.5530   46.8110 C   0  0  0  0  0  0  0  0  0  0  0  0
   53.8290   22.7130   47.1940 C   0  0  0  0  0  0  0  0  0  0  0  0
   53.9830   21.8090   48.2480 C   0  0  0  0  0  0  0  0  0  0  0  0
   55.1940   21.7340   48.9350 C   0  0  0  0  0  0  0  0  0  0  0  0
   56.2610   22.5550   48.5630 C   0  0  0  0  0  0  0  0  0  0  0  0
   56.1250   23.4590   47.4970 C   0  0  0  0  0  0  0  0  0  0  0  0
   57.2910   24.2870   47.1280 C   0  0  0  0  0  0  0  0  0  0  0  0
   57.6110   25.4260   47.8810 C   0  0  0  0  0  0  0  0  0  0  0  0
   58.7060   26.2180   47.5260 C   0  0  0  0  0  0  0  0  0  0  0  0
   59.5030   25.8740   46.4240 C   0  0  0  0  0  0  0  0  0  0  0  0
   60.6460   26.7610   46.0160 C   0  0  0  0  0  0  0  0  0  0  0  0
   60.1920   28.1450   45.9100 N   0  0  0  0  0  0  0  0  0  0  0  0
   59.1620   28.5440   44.9910 C   0  0  0  0  0  0  0  0  0  0  0  0
   58.8130   27.7590   44.0670 O   0  0  0  0  0  0  0  0  0  0  0  0
   58.5100   29.8710   45.1020 C   0  0  0  0  0  0  0  0  0  0  0  0
   59.1770   30.9690   45.6710 C   0  0  0  0  0  0  0  0  0  0  0  0
   58.5360   32.2050   45.7740 C   0  0  0  0  0  0  0  0  0  0  0  0
   57.2240   32.3360   45.3130 C   0  0  0  0  0  0  0  0  0  0  0  0
   56.6320   33.4430   45.3990 O   0  0  0  0  0  0  0  0  0  0  0  0
   56.5840   31.2660   44.7740 N   0  0  0  0  0  0  0  0  0  0  0  0
   57.1860   30.0510   44.6630 C   0  0  0  0  0  0  0  0  0  0  0  0
   59.1890   24.7250   45.6800 C   0  0  0  0  0  0  0  0  0  0  0  0
   58.0940   23.9330   46.0340 C   0  0  0  0  0  0  0  0  0  0  0  0
   53.9430   26.7250   46.3340 H   0  0  0  0  0  0  0  0  0  0  0  0
   52.8695   22.7676   46.6589 H   0  0  0  0  0  0  0  0  0  0  0  0
   53.1470   21.1549   48.5365 H   0  0  0  0  0  0  0  0  0  0  0  0
   55.3091   21.0278   49.7705 H   0  0  0  0  0  0  0  0  0  0  0  0
   57.2141   22.4931   49.1086 H   0  0  0  0  0  0  0  0  0  0  0  0
   56.9983   25.6966   48.7535 H   0  0  0  0  0  0  0  0  0  0  0  0
   58.9445   27.1165   48.1141 H   0  0  0  0  0  0  0  0  0  0  0  0
   61.4442   26.6964   46.7701 H   0  0  0  0  0  0  0  0  0  0  0  0
   61.0279   26.4307   45.0387 H   0  0  0  0  0  0  0  0  0  0  0  0
   60.6610   28.8620   46.5070 H   0  0  0  0  0  0  0  0  0  0  0  0
   60.2081   30.8543   46.0367 H   0  0  0  0  0  0  0  0  0  0  0  0
   59.0590   33.0670   46.2138 H   0  0  0  0  0  0  0  0  0  0  0  0
   56.6342   29.2049   44.2276 H   0  0  0  0  0  0  0  0  0  0  0  0
   59.8083   24.4473   44.8143 H   0  0  0  0  0  0  0  0  0  0  0  0
   57.8608   23.0287   45.4527 H   0  0  0  0  0  0  0  0  0  0  0  0
  1  2  1  0
  2  3  2  0
  2  4  2  0
  2  5  1  0
  5  6  2  0
  6  7  1  0
  7  8  2  0
  8  9  1  0
  9 10  2  0
 10 11  1  0
 11 12  2  0
 12 13  1  0
 13 14  2  0
 14 15  1  0
 15 16  1  0
 16 17  1  0
 17 18  2  0
 17 19  1  0
 19 20  1  0
 20 21  2  0
 21 22  1  0
 22 23  2  0
 22 24  1  0
 24 25  1  0
 14 26  1  0
 26 27  2  0
 10  5  1  0
 27 11  1  0
 25 19  2  0
  1 28  1  0
  6 29  1  0
  7 30  1  0
  8 31  1  0
  9 32  1  0
 12 33  1  0
 13 34  1  0
 15 35  1  0
 15 36  1  0
 16 37  1  0
 20 38  1  0
 21 39  1  0
 25 40  1  0
 26 41  1  0
 27 42  1  0
M  CHG  2   1  -1  24  -1
M  END
>  <UniqueID>  (93) 
86

>  <SMILES>  (93) 
[NH-]S(=O)(=O)c1ccccc1-c1ccc(CNC(=O)c2ccc(=O)[n-]c2)cc1

>  <Energy>  (93) 
53.81001698961699

>  <Genealogy>  (93) 
[NH-]S(=O)(=O)c1ccccc1-c1ccc(CNC(=O)c2ccc(=O)[n-]c2)cc1 (protonated)
[NH-]S(=O)(=O)c1ccccc1-c1ccc(CNC(=O)c2ccc(=O)[n-]c2)cc1 (3D coordinates assigned)
[NH-]S(=O)(=O)c1ccccc1-c1ccc(CNC(=O)c2ccc(=O)[n-]c2)cc1 (optimized conformer: 53.81001698961699 kcal/mol)

>  <smiles>  (93) 
NS(=O)(=O)c1ccccc1-c1ccc(CNC(=O)c2ccc(=O)[nH]c2)cc1

>  <score_type>  (93) 
oracle

>  <origin>  (93) 
adg

>  <m_score__min__energy>  (93) 
-12.289999999999999

>  <m_primary>  (93) 
energy

$$$$
93:0
     RDKit          3D

 46 49  0  0  0  0  0  0  0  0999 V2000
   61.0880   30.0710   45.6860 O   0  0  0  0  0  0  0  0  0  0  0  0
   59.8350   30.1370   45.8270 C   0  0  0  0  0  0  0  0  0  0  0  0
   59.2310   31.4660   46.0760 C   0  0  0  0  0  0  0  0  0  0  0  0
   59.9160   32.3530   46.9220 C   0  0  0  0  0  0  0  0  0  0  0  0
   59.3630   33.5910   47.2520 C   0  0  0  0  0  0  0  0  0  0  0  0
   58.1190   33.9590   46.7400 C   0  0  0  0  0  0  0  0  0  0  0  0
   57.4350   33.1010   45.8790 C   0  0  0  0  0  0  0  0  0  0  0  0
   57.9850   31.8580   45.5180 C   0  0  0  0  0  0  0  0  0  0  0  0
   57.2860   31.0390   44.5630 N   0  0  0  0  0  0  0  0  0  0  0  0
   57.5630   31.0020   43.2690 N   0  0  0  0  0  0  0  0  0  0  0  0
   56.6620   30.1720   42.7160 C   0  0  0  0  0  0  0  0  0  0  0  0
   55.8330   29.7230   43.7190 C   0  0  0  0  0  0  0  0  0  0  0  0
   56.2390   30.2870   44.8690 N   0  0  0  0  0  0  0  0  0  0  0  0
   59.0430   28.9220   45.8240 N   0  0  0  0  0  0  0  0  0  0  0  0
   58.8160   28.2590   44.5250 C   0  0  0  0  0  0  0  0  0  0  0  0
   57.7810   27.1360   44.5890 C   0  0  0  0  0  0  0  0  0  0  0  0
   56.7520   27.4560   45.4950 O   0  0  0  0  0  0  0  0  0  0  0  0
   57.2800   27.4120   46.7980 C   0  0  0  0  0  0  0  0  0  0  0  0
   58.2610   28.5790   47.0380 C   0  0  1  0  0  0  0  0  0  0  0  0
   59.1950   28.2570   48.2220 C   0  0  0  0  0  0  0  0  0  0  0  0
   59.6270   29.4580   48.8620 O   0  0  0  0  0  0  0  0  0  0  0  0
   58.8800   30.1560   49.8170 C   0  0  0  0  0  0  0  0  0  0  0  0
   58.8780   31.5540   49.7940 C   0  0  0  0  0  0  0  0  0  0  0  0
   58.1400   32.2560   50.7490 C   0  0  0  0  0  0  0  0  0  0  0  0
   57.4130   31.5570   51.7140 C   0  0  0  0  0  0  0  0  0  0  0  0
   56.6920   32.2270   52.6470 F   0  0  0  0  0  0  0  0  0  0  0  0
   57.4370   30.1610   51.7100 C   0  0  0  0  0  0  0  0  0  0  0  0
   58.1640   29.4970   50.7720 N   0  0  0  0  0  0  0  0  0  0  0  0
   60.8980   32.0693   47.3285 H   0  0  0  0  0  0  0  0  0  0  0  0
   59.9087   34.2771   47.9164 H   0  0  0  0  0  0  0  0  0  0  0  0
   57.6765   34.9276   47.0157 H   0  0  0  0  0  0  0  0  0  0  0  0
   56.4551   33.3997   45.4781 H   0  0  0  0  0  0  0  0  0  0  0  0
   56.5984   29.9001   41.6520 H   0  0  0  0  0  0  0  0  0  0  0  0
   54.9894   29.0272   43.6003 H   0  0  0  0  0  0  0  0  0  0  0  0
   58.4675   29.0137   43.8046 H   0  0  0  0  0  0  0  0  0  0  0  0
   59.7704   27.8039   44.2216 H   0  0  0  0  0  0  0  0  0  0  0  0
   57.3477   26.9874   43.5889 H   0  0  0  0  0  0  0  0  0  0  0  0
   58.2788   26.2166   44.9309 H   0  0  0  0  0  0  0  0  0  0  0  0
   56.4553   27.4808   47.5226 H   0  0  0  0  0  0  0  0  0  0  0  0
   57.8254   26.4649   46.9229 H   0  0  0  0  0  0  0  0  0  0  0  0
   57.6602   29.4663   47.2866 H   0  0  0  0  0  0  0  0  0  0  0  0
   58.6546   27.6338   48.9497 H   0  0  0  0  0  0  0  0  0  0  0  0
   60.0770   27.7203   47.8423 H   0  0  0  0  0  0  0  0  0  0  0  0
   59.4534   32.0966   49.0294 H   0  0  0  0  0  0  0  0  0  0  0  0
   58.1315   33.3559   50.7409 H   0  0  0  0  0  0  0  0  0  0  0  0
   56.8682   29.5986   52.4651 H   0  0  0  0  0  0  0  0  0  0  0  0
  1  2  2  0
  2  3  1  0
  3  4  2  0
  4  5  1  0
  5  6  2  0
  6  7  1  0
  7  8  2  0
  8  9  1  0
  9 10  1  0
 10 11  2  0
 11 12  1  0
 12 13  2  0
  2 14  1  0
 14 15  1  0
 15 16  1  0
 16 17  1  0
 17 18  1  0
 18 19  1  0
 19 20  1  0
 20 21  1  0
 21 22  1  0
 22 23  2  0
 23 24  1  0
 24 25  2  0
 25 26  1  0
 25 27  1  0
 27 28  2  0
  8  3  1  0
 13  9  1  0
 19 14  1  0
 28 22  1  0
  4 29  1  0
  5 30  1  0
  6 31  1  0
  7 32  1  0
 11 33  1  0
 12 34  1  0
 15 35  1  0
 15 36  1  0
 16 37  1  0
 16 38  1  0
 18 39  1  0
 18 40  1  0
 19 41  1  1
 20 42  1  0
 20 43  1  0
 23 44  1  0
 24 45  1  0
 27 46  1  0
M  END
>  <UniqueID>  (94) 
87

>  <SMILES>  (94) 
O=C(c1ccccc1-n1nccn1)N1CCOC[C@H]1COc1ccc(F)cn1

>  <Energy>  (94) 
97.20505210722865

>  <Genealogy>  (94) 
O=C(c1ccccc1-n1nccn1)N1CCOC[C@H]1COc1ccc(F)cn1 (chirality)
O=C(c1ccccc1-n1nccn1)N1CCOC[C@H]1COc1ccc(F)cn1 (3D coordinates assigned)
O=C(c1ccccc1-n1nccn1)N1CCOC[C@H]1COc1ccc(F)cn1 (nonaromatic ring conformer: 97.20505210722865 kcal/mol)

>  <smiles>  (94) 
O=C(c1ccccc1-n1nccn1)N1CCOCC1COc1ccc(F)cn1

>  <score_type>  (94) 
oracle

>  <origin>  (94) 
adg

>  <m_score__min__energy>  (94) 
-7.9900000000000002

>  <m_primary>  (94) 
energy

$$$$
