0:0
     RDKit          3D

 24 25  0  0  0  0  0  0  0  0999 V2000
   55.6390   29.7440   44.7610 O   0  0  0  0  0  0  0  0  0  0  0  0
   56.6010   29.2560   45.4100 C   0  0  0  0  0  0  0  0  0  0  0  0
   57.5550   30.1490   46.0020 N   0  0  0  0  0  0  0  0  0  0  0  0
   57.9010   31.4560   45.5220 C   0  0  0  0  0  0  0  0  0  0  0  0
   57.7910   31.7240   44.1510 C   0  0  0  0  0  0  0  0  0  0  0  0
   58.1320   32.9830   43.6480 C   0  0  0  0  0  0  0  0  0  0  0  0
   58.5990   33.9800   44.5100 C   0  0  0  0  0  0  0  0  0  0  0  0
   58.7340   33.7140   45.8760 C   0  0  0  0  0  0  0  0  0  0  0  0
   59.3350   34.9590   46.9560 Cl  0  0  0  0  0  0  0  0  0  0  0  0
   58.3950   32.4540   46.3820 C   0  0  0  0  0  0  0  0  0  0  0  0
   56.6840   27.7890   45.5720 C   0  0  0  0  0  0  0  0  0  0  0  0
   57.9220   27.1240   45.6230 C   0  0  0  0  0  0  0  0  0  0  0  0
   57.9490   25.7380   45.7850 C   0  0  0  0  0  0  0  0  0  0  0  0
   56.7540   25.0270   45.9090 C   0  0  0  0  0  0  0  0  0  0  0  0
   55.5420   25.7210   45.8760 C   0  0  0  0  0  0  0  0  0  0  0  0
   54.4540   25.0990   45.9950 O   0  0  0  0  0  0  0  0  0  0  0  0
   55.5360   27.0710   45.7130 N   0  0  0  0  0  0  0  0  0  0  0  0
   57.4345   30.9397   43.4670 H   0  0  0  0  0  0  0  0  0  0  0  0
   58.0328   33.1897   42.5722 H   0  0  0  0  0  0  0  0  0  0  0  0
   58.8599   34.9725   44.1139 H   0  0  0  0  0  0  0  0  0  0  0  0
   58.5151   32.2433   47.4549 H   0  0  0  0  0  0  0  0  0  0  0  0
   58.8606   27.6910   45.5360 H   0  0  0  0  0  0  0  0  0  0  0  0
   58.9114   25.2061   45.8150 H   0  0  0  0  0  0  0  0  0  0  0  0
   56.7666   23.9339   46.0312 H   0  0  0  0  0  0  0  0  0  0  0  0
  1  2  2  0
  2  3  1  0
  3  4  1  0
  4  5  2  0
  5  6  1  0
  6  7  2  0
  7  8  1  0
  8  9  1  0
  8 10  2  0
  2 11  1  0
 11 12  2  0
 12 13  1  0
 13 14  2  0
 14 15  1  0
 15 16  2  0
 15 17  1  0
 10  4  1  0
 17 11  1  0
  5 18  1  0
  6 19  1  0
  7 20  1  0
 10 21  1  0
 12 22  1  0
 13 23  1  0
 14 24  1  0
M  CHG  2   3  -1  17  -1
M  END
>  <UniqueID>  (1) 
1

>  <SMILES>  (1) 
O=C([N-]c1cccc(Cl)c1)c1cccc(=O)[n-]1

>  <Energy>  (1) 
31.7579948379506

>  <Genealogy>  (1) 
O=C([N-]c1cccc(Cl)c1)c1cccc(=O)[n-]1 (protonated)
O=C([N-]c1cccc(Cl)c1)c1cccc(=O)[n-]1 (3D coordinates assigned)
O=C([N-]c1cccc(Cl)c1)c1cccc(=O)[n-]1 (optimized conformer: 31.7579948379506 kcal/mol)

>  <smiles>  (1) 
O=C(Nc1cccc(Cl)c1)c1cccc(=O)[nH]1

>  <score_type>  (1) 
oracle

>  <origin>  (1) 
adg

>  <m_score__min__energy>  (1) 
-10.890000000000001

>  <m_primary>  (1) 
energy

$$$$
1:0
     RDKit          3D

 43 45  0  0  0  0  0  0  0  0999 V2000
   55.5610   29.2400   45.0040 N   0  0  0  0  0  0  0  0  0  0  0  0
   56.2760   30.0780   44.1010 C   0  0  0  0  0  0  0  0  0  0  0  0
   56.0890   29.9430   42.8620 O   0  0  0  0  0  0  0  0  0  0  0  0
   57.2120   31.1120   44.5830 C   0  0  0  0  0  0  0  0  0  0  0  0
   57.8000   31.1620   46.1630 S   0  0  0  0  0  0  0  0  0  0  0  0
   58.7390   32.5450   45.9960 C   0  0  0  0  0  0  0  0  0  0  0  0
   59.4170   33.2340   47.1050 C   0  0  0  0  0  0  0  0  0  0  0  0
   58.7690   33.5450   48.1390 O   0  0  0  0  0  0  0  0  0  0  0  0
   60.7830   33.6360   46.9860 N   0  0  0  0  0  0  0  0  0  0  0  0
   61.8690   32.6600   47.0270 C   0  0  0  0  0  0  0  0  0  0  0  0
   61.3470   31.3240   47.4860 C   0  0  0  0  0  0  0  0  0  0  0  0
   61.2820   31.0190   48.8540 C   0  0  0  0  0  0  0  0  0  0  0  0
   60.6740   29.8360   49.2800 C   0  0  0  0  0  0  0  0  0  0  0  0
   60.0900   28.9710   48.3530 C   0  0  0  0  0  0  0  0  0  0  0  0
   60.1260   29.2680   46.9790 C   0  0  0  0  0  0  0  0  0  0  0  0
   59.3920   28.4260   45.9990 C   0  0  0  0  0  0  0  0  0  0  0  0
   59.7290   28.4680   44.6330 C   0  0  0  0  0  0  0  0  0  0  0  0
   59.0790   27.6360   43.7180 C   0  0  0  0  0  0  0  0  0  0  0  0
   58.0950   26.7480   44.1520 C   0  0  0  0  0  0  0  0  0  0  0  0
   57.7510   26.6880   45.5090 C   0  0  0  0  0  0  0  0  0  0  0  0
   56.5080   25.5710   46.0620 S   0  0  0  0  0  0  0  0  0  0  0  0
   54.9670   26.3500   46.0070 N   0  0  0  0  0  0  0  0  0  0  0  0
   56.4830   24.3540   45.1810 O   0  0  0  0  0  0  0  0  0  0  0  0
   56.8050   25.1400   47.4710 O   0  0  0  0  0  0  0  0  0  0  0  0
   58.3910   27.5320   46.4250 C   0  0  0  0  0  0  0  0  0  0  0  0
   60.7980   30.4290   46.5530 C   0  0  0  0  0  0  0  0  0  0  0  0
   58.6020   32.9970   44.6870 C   0  0  0  0  0  0  0  0  0  0  0  0
   59.2320   34.1370   44.2020 O   0  0  0  0  0  0  0  0  0  0  0  0
   57.7520   32.2120   43.8960 C   0  0  0  0  0  0  0  0  0  0  0  0
   57.4800   32.5590   42.5730 O   0  0  0  0  0  0  0  0  0  0  0  0
   55.5450   28.2040   44.8760 H   0  0  0  0  0  0  0  0  0  0  0  0
   62.3023   32.5553   46.0214 H   0  0  0  0  0  0  0  0  0  0  0  0
   62.6388   33.0073   47.7319 H   0  0  0  0  0  0  0  0  0  0  0  0
   61.7106   31.7128   49.5922 H   0  0  0  0  0  0  0  0  0  0  0  0
   60.6553   29.5848   50.3508 H   0  0  0  0  0  0  0  0  0  0  0  0
   59.5980   28.0503   48.6999 H   0  0  0  0  0  0  0  0  0  0  0  0
   60.5091   29.1603   44.2837 H   0  0  0  0  0  0  0  0  0  0  0  0
   59.3443   27.6815   42.6514 H   0  0  0  0  0  0  0  0  0  0  0  0
   57.5880   26.0935   43.4277 H   0  0  0  0  0  0  0  0  0  0  0  0
   55.1450   27.3790   46.0300 H   0  0  0  0  0  0  0  0  0  0  0  0
   58.1090   27.4962   47.4876 H   0  0  0  0  0  0  0  0  0  0  0  0
   60.8943   30.6378   45.4773 H   0  0  0  0  0  0  0  0  0  0  0  0
   56.8820   32.0170   41.9670 H   0  0  0  0  0  0  0  0  0  0  0  0
  1  2  1  0
  2  3  2  0
  2  4  1  0
  4  5  1  0
  5  6  1  0
  6  7  1  0
  7  8  2  0
  7  9  1  0
  9 10  1  0
 10 11  1  0
 11 12  2  0
 12 13  1  0
 13 14  2  0
 14 15  1  0
 15 16  1  0
 16 17  2  0
 17 18  1  0
 18 19  2  0
 19 20  1  0
 20 21  1  0
 21 22  1  0
 21 23  2  0
 21 24  2  0
 20 25  2  0
 15 26  2  0
  6 27  2  0
 27 28  1  0
 27 29  1  0
 29 30  1  0
 29  4  2  0
 26 11  1  0
 25 16  1  0
  1 31  1  0
 10 32  1  0
 10 33  1  0
 12 34  1  0
 13 35  1  0
 14 36  1  0
 17 37  1  0
 18 38  1  0
 19 39  1  0
 22 40  1  0
 25 41  1  0
 26 42  1  0
 30 43  1  0
M  CHG  4   1  -1   9  -1  22  -1  28  -1
M  END
>  <UniqueID>  (2) 
2

>  <SMILES>  (2) 
[NH-]C(=O)c1sc(C(=O)[N-]Cc2cccc(-c3cccc(S([NH-])(=O)=O)c3)c2)c([O-])c1O

>  <Energy>  (2) 
80.23454255317748

>  <Genealogy>  (2) 
[NH-]C(=O)c1sc(C(=O)[N-]Cc2cccc(-c3cccc(S([NH-])(=O)=O)c3)c2)c([O-])c1O (protonated)
[NH-]C(=O)c1sc(C(=O)[N-]Cc2cccc(-c3cccc(S([NH-])(=O)=O)c3)c2)c([O-])c1O (3D coordinates assigned)
[NH-]C(=O)c1sc(C(=O)[N-]Cc2cccc(-c3cccc(S([NH-])(=O)=O)c3)c2)c([O-])c1O (optimized conformer: 80.23454255317748 kcal/mol)

>  <smiles>  (2) 
NC(=O)c1sc(C(=O)NCc2cccc(-c3cccc(S(N)(=O)=O)c3)c2)c(O)c1O

>  <score_type>  (2) 
oracle

>  <origin>  (2) 
adg

>  <m_score__min__energy>  (2) 
-17.109999999999999

>  <m_primary>  (2) 
energy

$$$$
2:0
     RDKit          3D

 53 57  0  0  0  0  0  0  0  0999 V2000
   58.0294   24.4095   47.7954 H   0  0  0  0  0  0  0  0  0  0  0  0
   57.5310   25.1770   47.1850 C   0  0  0  0  0  0  0  0  0  0  0  0
   56.2540   24.9890   46.7680 N   0  0  0  0  0  0  0  0  0  0  0  0
   55.6190   25.9180   46.0020 C   0  0  0  0  0  0  0  0  0  0  0  0
   54.3830   25.7580   45.6300 N   0  0  0  0  0  0  0  0  0  0  0  0
   53.6090   24.5480   45.6870 C   0  0  0  0  0  0  0  0  0  0  0  0
   54.0480   23.4120   46.3930 C   0  0  0  0  0  0  0  0  0  0  0  0
   55.0015   23.4412   46.9407 H   0  0  0  0  0  0  0  0  0  0  0  0
   53.2750   22.2460   46.4000 C   0  0  0  0  0  0  0  0  0  0  0  0
   53.6145   21.3655   46.9652 H   0  0  0  0  0  0  0  0  0  0  0  0
   52.0720   22.1980   45.6900 C   0  0  0  0  0  0  0  0  0  0  0  0
   51.3230   21.0680   45.7000 F   0  0  0  0  0  0  0  0  0  0  0  0
   51.6480   23.3100   44.9590 C   0  0  0  0  0  0  0  0  0  0  0  0
   50.7070   23.2683   44.3909 H   0  0  0  0  0  0  0  0  0  0  0  0
   52.4190   24.4760   44.9490 C   0  0  0  0  0  0  0  0  0  0  0  0
   52.0897   25.3433   44.3579 H   0  0  0  0  0  0  0  0  0  0  0  0
   56.2690   27.0620   45.6630 N   0  0  0  0  0  0  0  0  0  0  0  0
   57.5540   27.2960   46.0490 C   0  0  0  0  0  0  0  0  0  0  0  0
   58.1880   28.5400   45.6970 N   0  0  0  0  0  0  0  0  0  0  0  0
   59.6380   28.6350   45.4840 C   0  0  0  0  0  0  0  0  0  0  0  0
   60.1136   27.7037   45.8253 H   0  0  0  0  0  0  0  0  0  0  0  0
   59.8252   28.7926   44.4116 H   0  0  0  0  0  0  0  0  0  0  0  0
   60.2340   29.8210   46.2660 C   0  0  0  0  0  0  0  0  0  0  0  0
   60.5882   29.4537   47.2405 H   0  0  0  0  0  0  0  0  0  0  0  0
   61.0509   30.2349   45.6565 H   0  0  0  0  0  0  0  0  0  0  0  0
   59.2220   30.9640   46.5110 C   0  0  0  0  0  0  0  0  0  0  0  0
   58.6947   30.7850   47.4596 H   0  0  0  0  0  0  0  0  0  0  0  0
   59.9270   32.2050   46.5860 O   0  0  0  0  0  0  0  0  0  0  0  0
   61.1510   32.4160   47.2450 C   0  0  0  0  0  0  0  0  0  0  0  0
   62.0230   33.3710   46.7190 C   0  0  0  0  0  0  0  0  0  0  0  0
   61.7429   33.9334   45.8161 H   0  0  0  0  0  0  0  0  0  0  0  0
   63.2490   33.6120   47.3380 C   0  0  0  0  0  0  0  0  0  0  0  0
   63.9371   34.3642   46.9248 H   0  0  0  0  0  0  0  0  0  0  0  0
   63.6010   32.8950   48.4850 C   0  0  0  0  0  0  0  0  0  0  0  0
   64.8260   33.1200   49.1330 C   0  0  0  0  0  0  0  0  0  0  0  0
   65.5297   33.8653   48.7340 H   0  0  0  0  0  0  0  0  0  0  0  0
   65.1520   32.3990   50.2830 C   0  0  0  0  0  0  0  0  0  0  0  0
   66.1112   32.5802   50.7901 H   0  0  0  0  0  0  0  0  0  0  0  0
   64.2640   31.4480   50.7920 C   0  0  0  0  0  0  0  0  0  0  0  0
   64.5257   30.8839   51.6993 H   0  0  0  0  0  0  0  0  0  0  0  0
   63.0440   31.2110   50.1520 C   0  0  0  0  0  0  0  0  0  0  0  0
   62.3508   30.4579   50.5549 H   0  0  0  0  0  0  0  0  0  0  0  0
   62.7000   31.9320   48.9950 C   0  0  0  0  0  0  0  0  0  0  0  0
   61.5080   31.7140   48.3660 N   0  0  0  0  0  0  0  0  0  0  0  0
   60.8680   30.9900   48.7590 H   0  0  0  0  0  0  0  0  0  0  0  0
   58.1710   31.0080   45.3890 C   0  0  0  0  0  0  0  0  0  0  0  0
   57.5016   31.8661   45.5493 H   0  0  0  0  0  0  0  0  0  0  0  0
   58.6797   31.1104   44.4191 H   0  0  0  0  0  0  0  0  0  0  0  0
   57.3470   29.7100   45.3950 C   0  0  0  0  0  0  0  0  0  0  0  0
   56.5586   29.7903   46.1579 H   0  0  0  0  0  0  0  0  0  0  0  0
   56.9104   29.5730   44.3947 H   0  0  0  0  0  0  0  0  0  0  0  0
   58.2120   26.3450   46.8390 C   0  0  0  0  0  0  0  0  0  0  0  0
   59.2440   26.5151   47.1796 H   0  0  0  0  0  0  0  0  0  0  0  0
  1  2  1  0
  2  3  1  0
  3  4  1  0
  4  5  2  0
  5  6  1  0
  6  7  2  0
  7  8  1  0
  7  9  1  0
  9 10  1  0
  9 11  2  0
 11 12  1  0
 11 13  1  0
 13 14  1  0
 13 15  2  0
 15 16  1  0
  4 17  1  0
 17 18  2  0
 18 19  1  0
 19 20  1  0
 20 21  1  0
 20 22  1  0
 20 23  1  0
 23 24  1  0
 23 25  1  0
 23 26  1  0
 26 27  1  0
 26 28  1  0
 28 29  1  0
 29 30  2  0
 30 31  1  0
 30 32  1  0
 32 33  1  0
 32 34  2  0
 34 35  1  0
 35 36  1  0
 35 37  2  0
 37 38  1  0
 37 39  1  0
 39 40  1  0
 39 41  2  0
 41 42  1  0
 41 43  1  0
 43 44  2  0
 44 45  1  0
 26 46  1  0
 46 47  1  0
 46 48  1  0
 46 49  1  0
 49 50  1  0
 49 51  1  0
 18 52  1  0
 52 53  1  0
 52  2  2  0
 15  6  1  0
 49 19  1  0
 44 29  1  0
 43 34  1  0
M  CHG  2   3  -1  44   1
M  END
>  <UniqueID>  (3) 
3

>  <SMILES>  (3) 
Fc1ccc(/N=c2/nc(N3CCC(Oc4ccc5ccccc5[nH+]4)CC3)cc[n-]2)cc1

>  <Energy>  (3) 
74.8950899360206

>  <Genealogy>  (3) 
Fc1ccc(N=c2nc(N3CCC(Oc4ccc5ccccc5[nH+]4)CC3)cc[n-]2)cc1 (protonated)
Fc1ccc(/N=c2/nc(N3CCC(Oc4ccc5ccccc5[nH+]4)CC3)cc[n-]2)cc1 (cis-trans isomerization)
Fc1ccc(/N=c2/nc(N3CCC(Oc4ccc5ccccc5[nH+]4)CC3)cc[n-]2)cc1 (3D coordinates assigned)
Fc1ccc(/N=c2/nc(N3CCC(Oc4ccc5ccccc5[nH+]4)CC3)cc[n-]2)cc1 (nonaromatic ring conformer: 74.8950899360206 kcal/mol)

>  <smiles>  (3) 
Fc1ccc(N=c2nc(N3CCC(Oc4ccc5ccccc5n4)CC3)cc[nH]2)cc1

>  <score_type>  (3) 
oracle

>  <origin>  (3) 
adg

>  <m_score__min__energy>  (3) 
-9.8599999999999994

>  <m_primary>  (3) 
energy

$$$$
3:0
     RDKit          3D

 41 43  0  0  0  0  0  0  0  0999 V2000
   54.5040   24.4760   47.1240 H   0  0  0  0  0  0  0  0  0  0  0  0
   55.2670   24.0430   46.6190 O   0  0  0  0  0  0  0  0  0  0  0  0
   56.3140   24.7980   46.0960 C   0  0  0  0  0  0  0  0  0  0  0  0
   56.2580   26.1440   45.8250 C   0  0  0  0  0  0  0  0  0  0  0  0
   55.1480   26.9650   45.9860 O   0  0  0  0  0  0  0  0  0  0  0  0
   57.4950   26.5070   45.3200 C   0  0  0  0  0  0  0  0  0  0  0  0
   57.9120   27.8200   44.7980 C   0  0  0  0  0  0  0  0  0  0  0  0
   58.9917   28.0170   44.7239 H   0  0  0  0  0  0  0  0  0  0  0  0
   57.0770   28.7940   44.4060 C   0  0  0  0  0  0  0  0  0  0  0  0
   56.4005   28.5745   43.5668 H   0  0  0  0  0  0  0  0  0  0  0  0
   56.9950   30.1360   45.0120 C   0  0  0  0  0  0  0  0  0  0  0  0
   56.2880   31.0150   44.4510 O   0  0  0  0  0  0  0  0  0  0  0  0
   57.8000   30.4730   46.1500 N   0  0  0  0  0  0  0  0  0  0  0  0
   58.5440   31.6860   46.3310 C   0  0  0  0  0  0  0  0  0  0  0  0
   57.8860   32.9110   46.1710 C   0  0  0  0  0  0  0  0  0  0  0  0
   56.8140   32.9283   45.9251 H   0  0  0  0  0  0  0  0  0  0  0  0
   58.5840   34.1120   46.3220 C   0  0  0  0  0  0  0  0  0  0  0  0
   58.0579   35.0709   46.2043 H   0  0  0  0  0  0  0  0  0  0  0  0
   59.9480   34.0980   46.6220 C   0  0  0  0  0  0  0  0  0  0  0  0
   60.4923   35.0455   46.7485 H   0  0  0  0  0  0  0  0  0  0  0  0
   60.6240   32.8790   46.7620 C   0  0  0  0  0  0  0  0  0  0  0  0
   62.3480   32.8610   47.1250 S   0  0  0  0  0  0  0  0  0  0  0  0
   62.9010   31.5030   46.7990 O   0  0  0  0  0  0  0  0  0  0  0  0
   63.0620   33.8970   46.3030 O   0  0  0  0  0  0  0  0  0  0  0  0
   62.6160   33.1940   48.8060 N   0  0  0  0  0  0  0  0  0  0  0  0
   63.6750   32.8070   49.4460 C   0  0  0  0  0  0  0  0  0  0  0  0
   64.8780   33.4160   49.3540 N   0  0  0  0  0  0  0  0  0  0  0  0
   65.8000   32.8090   50.1460 C   0  0  0  0  0  0  0  0  0  0  0  0
   66.8415   33.1568   50.2116 H   0  0  0  0  0  0  0  0  0  0  0  0
   65.3320   31.7160   50.8680 C   0  0  0  0  0  0  0  0  0  0  0  0
   65.9241   31.0973   51.5584 H   0  0  0  0  0  0  0  0  0  0  0  0
   63.7020   31.5040   50.5020 S   0  0  0  0  0  0  0  0  0  0  0  0
   59.9250   31.6740   46.5980 C   0  0  0  0  0  0  0  0  0  0  0  0
   60.4590   30.7157   46.6785 H   0  0  0  0  0  0  0  0  0  0  0  0
   58.2450   25.3430   45.2680 C   0  0  0  0  0  0  0  0  0  0  0  0
   59.2726   25.2704   44.8824 H   0  0  0  0  0  0  0  0  0  0  0  0
   57.5270   24.3110   45.7610 N   0  0  0  0  0  0  0  0  0  0  0  0
   57.9700   22.9240   45.8630 C   0  0  0  0  0  0  0  0  0  0  0  0
   58.0592   22.6446   46.9232 H   0  0  0  0  0  0  0  0  0  0  0  0
   57.2367   22.2678   45.3713 H   0  0  0  0  0  0  0  0  0  0  0  0
   58.9479   22.8143   45.3713 H   0  0  0  0  0  0  0  0  0  0  0  0
  1  2  1  0
  2  3  1  0
  3  4  2  0
  4  5  1  0
  4  6  1  0
  6  7  1  0
  7  8  1  0
  7  9  2  3
  9 10  1  0
  9 11  1  0
 11 12  2  0
 11 13  1  0
 13 14  1  0
 14 15  2  0
 15 16  1  0
 15 17  1  0
 17 18  1  0
 17 19  2  0
 19 20  1  0
 19 21  1  0
 21 22  1  0
 22 23  2  0
 22 24  2  0
 22 25  1  0
 25 26  2  0
 26 27  1  0
 27 28  1  0
 28 29  1  0
 28 30  2  0
 30 31  1  0
 30 32  1  0
 21 33  2  0
 33 34  1  0
  6 35  2  0
 35 36  1  0
 35 37  1  0
 37 38  1  0
 38 39  1  0
 38 40  1  0
 38 41  1  0
 37  3  1  0
 33 14  1  0
 32 26  1  0
M  CHG  3   5  -1  13  -1  27  -1
M  END
>  <UniqueID>  (4) 
4

>  <SMILES>  (4) 
Cn1cc(C=CC(=O)[N-]c2cccc(S(=O)(=O)/N=c3\[n-]ccs3)c2)c([O-])c1O

>  <Energy>  (4) 
112.63859930207069

>  <Genealogy>  (4) 
Cn1cc(C=CC(=O)[N-]c2cccc(S(=O)(=O)N=c3[n-]ccs3)c2)c([O-])c1O (protonated)
Cn1cc(C=CC(=O)[N-]c2cccc(S(=O)(=O)/N=c3\[n-]ccs3)c2)c([O-])c1O (cis-trans isomerization)
Cn1cc(C=CC(=O)[N-]c2cccc(S(=O)(=O)/N=c3\[n-]ccs3)c2)c([O-])c1O (3D coordinates assigned)
Cn1cc(C=CC(=O)[N-]c2cccc(S(=O)(=O)/N=c3\[n-]ccs3)c2)c([O-])c1O (optimized conformer: 112.63859930207069 kcal/mol)

>  <smiles>  (4) 
Cn1cc(C=CC(=O)Nc2cccc(S(=O)(=O)N=c3[nH]ccs3)c2)c(O)c1O

>  <score_type>  (4) 
oracle

>  <origin>  (4) 
adg

>  <m_score__min__energy>  (4) 
-14.789999999999999

>  <m_primary>  (4) 
energy

$$$$
4:0
     RDKit          3D

 34 35  0  0  0  0  0  0  0  0999 V2000
   59.6660   29.5260   45.7310 C   0  0  0  0  0  0  0  0  0  0  0  0
   58.6620   28.6320   45.1460 N   0  0  0  0  0  0  0  0  0  0  0  0
   57.7690   29.1260   44.0900 C   0  0  0  0  0  0  0  0  0  0  0  0
   56.5070   29.7140   44.6700 C   0  0  0  0  0  0  0  0  0  0  0  0
   55.5120   28.9670   44.8690 O   0  0  0  0  0  0  0  0  0  0  0  0
   56.3460   31.1280   44.8380 N   0  0  0  0  0  0  0  0  0  0  0  0
   57.3830   32.0720   45.1290 C   0  0  0  0  0  0  0  0  0  0  0  0
   57.8990   32.8600   44.0930 C   0  0  0  0  0  0  0  0  0  0  0  0
   58.8860   33.8150   44.3560 C   0  0  0  0  0  0  0  0  0  0  0  0
   59.3490   34.0030   45.6610 C   0  0  0  0  0  0  0  0  0  0  0  0
   58.8180   33.2420   46.7070 C   0  0  0  0  0  0  0  0  0  0  0  0
   59.3780   33.4950   48.3510 Cl  0  0  0  0  0  0  0  0  0  0  0  0
   57.8290   32.2870   46.4450 C   0  0  0  0  0  0  0  0  0  0  0  0
   58.6900   27.2260   45.4590 C   0  0  0  0  0  0  0  0  0  0  0  0
   59.7930   26.6710   45.7190 O   0  0  0  0  0  0  0  0  0  0  0  0
   57.4540   26.4160   45.4900 C   0  0  0  0  0  0  0  0  0  0  0  0
   57.3490   25.2320   44.7440 C   0  0  0  0  0  0  0  0  0  0  0  0
   56.1790   24.4700   44.8000 C   0  0  0  0  0  0  0  0  0  0  0  0
   55.1260   24.8930   45.6140 C   0  0  0  0  0  0  0  0  0  0  0  0
   54.0640   24.2200   45.6770 O   0  0  0  0  0  0  0  0  0  0  0  0
   55.2480   26.0330   46.3460 N   0  0  0  0  0  0  0  0  0  0  0  0
   56.3760   26.7920   46.3070 C   0  0  0  0  0  0  0  0  0  0  0  0
   59.6080   29.4744   46.8283 H   0  0  0  0  0  0  0  0  0  0  0  0
   60.6689   29.2164   45.4018 H   0  0  0  0  0  0  0  0  0  0  0  0
   59.4743   30.5579   45.4018 H   0  0  0  0  0  0  0  0  0  0  0  0
   58.2927   29.9014   43.5116 H   0  0  0  0  0  0  0  0  0  0  0  0
   57.4927   28.2791   43.4447 H   0  0  0  0  0  0  0  0  0  0  0  0
   57.5260   32.7271   43.0667 H   0  0  0  0  0  0  0  0  0  0  0  0
   59.2985   34.4191   43.5345 H   0  0  0  0  0  0  0  0  0  0  0  0
   60.1308   34.7493   45.8653 H   0  0  0  0  0  0  0  0  0  0  0  0
   57.3990   31.7024   47.2717 H   0  0  0  0  0  0  0  0  0  0  0  0
   58.1889   24.9033   44.1143 H   0  0  0  0  0  0  0  0  0  0  0  0
   56.0883   23.5466   44.2091 H   0  0  0  0  0  0  0  0  0  0  0  0
   56.4439   27.7041   46.9181 H   0  0  0  0  0  0  0  0  0  0  0  0
  1  2  1  0
  2  3  1  0
  3  4  1  0
  4  5  2  0
  4  6  1  0
  6  7  1  0
  7  8  2  0
  8  9  1  0
  9 10  2  0
 10 11  1  0
 11 12  1  0
 11 13  2  0
  2 14  1  0
 14 15  2  0
 14 16  1  0
 16 17  1  0
 17 18  2  0
 18 19  1  0
 19 20  2  0
 19 21  1  0
 21 22  1  0
 13  7  1  0
 22 16  2  0
  1 23  1  0
  1 24  1  0
  1 25  1  0
  3 26  1  0
  3 27  1  0
  8 28  1  0
  9 29  1  0
 10 30  1  0
 13 31  1  0
 17 32  1  0
 18 33  1  0
 22 34  1  0
M  CHG  2   6  -1  21  -1
M  END
>  <UniqueID>  (5) 
5

>  <SMILES>  (5) 
CN(CC(=O)[N-]c1cccc(Cl)c1)C(=O)c1ccc(=O)[n-]c1

>  <Energy>  (5) 
44.62755799407133

>  <Genealogy>  (5) 
CN(CC(=O)[N-]c1cccc(Cl)c1)C(=O)c1ccc(=O)[n-]c1 (protonated)
CN(CC(=O)[N-]c1cccc(Cl)c1)C(=O)c1ccc(=O)[n-]c1 (3D coordinates assigned)
CN(CC(=O)[N-]c1cccc(Cl)c1)C(=O)c1ccc(=O)[n-]c1 (optimized conformer: 44.62755799407133 kcal/mol)

>  <smiles>  (5) 
CN(CC(=O)Nc1cccc(Cl)c1)C(=O)c1ccc(=O)[nH]c1

>  <score_type>  (5) 
oracle

>  <origin>  (5) 
adg

>  <m_score__min__energy>  (5) 
-11.699999999999999

>  <m_primary>  (5) 
energy

$$$$
5:0
     RDKit          3D

 19 20  0  0  0  0  0  0  0  0999 V2000
   56.8910   27.1360   45.4200 O   0  0  0  0  0  0  0  0  0  0  0  0
   56.7710   28.3770   45.2460 C   0  0  0  0  0  0  0  0  0  0  0  0
   57.7410   29.3180   45.5000 C   0  0  0  0  0  0  0  0  0  0  0  0
   57.1270   30.5150   45.1530 C   0  0  0  0  0  0  0  0  0  0  0  0
   57.7200   31.8730   45.2250 C   0  0  0  0  0  0  0  0  0  0  0  0
   57.7850   32.5460   46.4600 C   0  0  0  0  0  0  0  0  0  0  0  0
   58.3410   33.8260   46.5440 C   0  0  0  0  0  0  0  0  0  0  0  0
   58.8380   34.4510   45.3990 C   0  0  0  0  0  0  0  0  0  0  0  0
   58.7800   33.7950   44.1670 C   0  0  0  0  0  0  0  0  0  0  0  0
   58.2240   32.5150   44.0770 C   0  0  0  0  0  0  0  0  0  0  0  0
   55.8680   30.2710   44.7220 N   0  0  0  0  0  0  0  0  0  0  0  0
   55.6600   28.9670   44.7840 N   0  0  0  0  0  0  0  0  0  0  0  0
   58.7591   29.1607   45.8855 H   0  0  0  0  0  0  0  0  0  0  0  0
   57.3949   32.0605   47.3667 H   0  0  0  0  0  0  0  0  0  0  0  0
   58.3869   34.3418   47.5145 H   0  0  0  0  0  0  0  0  0  0  0  0
   59.2746   35.4584   45.4667 H   0  0  0  0  0  0  0  0  0  0  0  0
   59.1729   34.2868   43.2649 H   0  0  0  0  0  0  0  0  0  0  0  0
   58.1799   32.0060   43.1029 H   0  0  0  0  0  0  0  0  0  0  0  0
   54.7690   28.4950   44.5100 H   0  0  0  0  0  0  0  0  0  0  0  0
  1  2  2  0
  2  3  1  0
  3  4  2  0
  4  5  1  0
  5  6  2  0
  6  7  1  0
  7  8  2  0
  8  9  1  0
  9 10  2  0
  4 11  1  0
 11 12  1  0
 12  2  1  0
 10  5  1  0
  3 13  1  0
  6 14  1  0
  7 15  1  0
  8 16  1  0
  9 17  1  0
 10 18  1  0
 12 19  1  0
M  CHG  1  11  -1
M  END
>  <UniqueID>  (6) 
6

>  <SMILES>  (6) 
O=c1cc(-c2ccccc2)[n-][nH]1

>  <Energy>  (6) 
52.27011053531778

>  <Genealogy>  (6) 
O=c1cc(-c2ccccc2)[n-][nH]1 (protonated)
O=c1cc(-c2ccccc2)[n-][nH]1 (3D coordinates assigned)
O=c1cc(-c2ccccc2)[n-][nH]1 (optimized conformer: 52.27011053531778 kcal/mol)

>  <smiles>  (6) 
O=c1cc(-c2ccccc2)[nH][nH]1

>  <score_type>  (6) 
oracle

>  <origin>  (6) 
adg

>  <m_score__min__energy>  (6) 
-7.4500000000000002

>  <m_primary>  (6) 
energy

$$$$
6:0
     RDKit          3D

 39 41  0  0  0  0  0  0  0  0999 V2000
   55.5080   28.9720   44.8780 N   0  0  0  0  0  0  0  0  0  0  0  0
   56.7220   30.1080   44.4090 S   0  0  0  0  0  0  0  0  0  0  0  0
   56.9630   30.0100   42.9280 O   0  0  0  0  0  0  0  0  0  0  0  0
   56.2500   31.4970   44.7320 O   0  0  0  0  0  0  0  0  0  0  0  0
   58.2150   29.7560   45.2720 C   0  0  0  0  0  0  0  0  0  0  0  0
   59.3820   29.4680   44.5520 C   0  0  0  0  0  0  0  0  0  0  0  0
   60.5610   29.1400   45.2270 C   0  0  0  0  0  0  0  0  0  0  0  0
   60.5810   29.1020   46.6250 C   0  0  0  0  0  0  0  0  0  0  0  0
   59.4340   29.4420   47.3530 C   0  0  0  0  0  0  0  0  0  0  0  0
   59.4210   29.2880   48.7750 N   0  0  0  0  0  0  0  0  0  0  0  0
   58.9250   30.0460   49.7190 C   0  0  0  0  0  0  0  0  0  0  0  0
   58.1420   29.4240   50.6330 N   0  0  0  0  0  0  0  0  0  0  0  0
   57.4910   30.1130   51.5930 C   0  0  0  0  0  0  0  0  0  0  0  0
   56.7670   29.4980   52.4210 O   0  0  0  0  0  0  0  0  0  0  0  0
   57.6040   31.4610   51.6480 N   0  0  0  0  0  0  0  0  0  0  0  0
   56.9120   32.1690   52.6040 O   0  0  0  0  0  0  0  0  0  0  0  0
   58.4250   32.1110   50.7800 C   0  0  0  0  0  0  0  0  0  0  0  0
   58.5370   33.3660   50.8730 O   0  0  0  0  0  0  0  0  0  0  0  0
   59.1340   31.4140   49.8240 N   0  0  0  0  0  0  0  0  0  0  0  0
   60.2090   32.1380   49.1040 C   0  0  0  0  0  0  0  0  0  0  0  0
   59.7250   32.8760   47.8740 C   0  0  0  0  0  0  0  0  0  0  0  0
   60.6570   33.6170   47.1260 C   0  0  0  0  0  0  0  0  0  0  0  0
   60.2470   34.3550   46.0120 C   0  0  0  0  0  0  0  0  0  0  0  0
   58.9000   34.3780   45.6450 C   0  0  0  0  0  0  0  0  0  0  0  0
   57.9610   33.6650   46.3930 C   0  0  0  0  0  0  0  0  0  0  0  0
   58.3660   32.9220   47.5060 C   0  0  0  0  0  0  0  0  0  0  0  0
   58.2420   29.7320   46.6740 C   0  0  0  0  0  0  0  0  0  0  0  0
   54.6860   29.5240   45.2100 H   0  0  0  0  0  0  0  0  0  0  0  0
   59.3702   29.5001   43.4525 H   0  0  0  0  0  0  0  0  0  0  0  0
   61.4743   28.9115   44.6581 H   0  0  0  0  0  0  0  0  0  0  0  0
   61.4989   28.8047   47.1533 H   0  0  0  0  0  0  0  0  0  0  0  0
   60.6582   32.8682   49.7932 H   0  0  0  0  0  0  0  0  0  0  0  0
   60.9332   31.3835   48.7630 H   0  0  0  0  0  0  0  0  0  0  0  0
   61.7170   33.6159   47.4198 H   0  0  0  0  0  0  0  0  0  0  0  0
   60.9864   34.9183   45.4238 H   0  0  0  0  0  0  0  0  0  0  0  0
   58.5787   34.9576   44.7670 H   0  0  0  0  0  0  0  0  0  0  0  0
   56.8994   33.6879   46.1058 H   0  0  0  0  0  0  0  0  0  0  0  0
   57.6199   32.3707   48.0971 H   0  0  0  0  0  0  0  0  0  0  0  0
   57.3244   29.9415   47.2432 H   0  0  0  0  0  0  0  0  0  0  0  0
  1  2  1  0
  2  3  2  0
  2  4  2  0
  2  5  1  0
  5  6  2  0
  6  7  1  0
  7  8  2  0
  8  9  1  0
  9 10  1  0
 10 11  2  3
 11 12  1  0
 12 13  1  0
 13 14  2  0
 13 15  1  0
 15 16  1  0
 15 17  1  0
 17 18  2  0
 17 19  1  0
 19 20  1  0
 20 21  1  0
 21 22  2  0
 22 23  1  0
 23 24  2  0
 24 25  1  0
 25 26  2  0
  9 27  2  0
 27  5  1  0
 19 11  1  0
 26 21  1  0
  1 28  1  0
  6 29  1  0
  7 30  1  0
  8 31  1  0
 20 32  1  0
 20 33  1  0
 22 34  1  0
 23 35  1  0
 24 36  1  0
 25 37  1  0
 26 38  1  0
 27 39  1  0
M  CHG  3   1  -1  12  -1  16  -1
M  END
>  <UniqueID>  (7) 
7

>  <SMILES>  (7) 
[NH-]S(=O)(=O)c1cccc(N=c2[n-]c(=O)n([O-])c(=O)n2Cc2ccccc2)c1

>  <Energy>  (7) 
65.4622028882999

>  <Genealogy>  (7) 
[NH-]S(=O)(=O)c1cccc(N=c2[n-]c(=O)n([O-])c(=O)n2Cc2ccccc2)c1 (protonated)
[NH-]S(=O)(=O)c1cccc(N=c2[n-]c(=O)n([O-])c(=O)n2Cc2ccccc2)c1 (3D coordinates assigned)
[NH-]S(=O)(=O)c1cccc(N=c2[n-]c(=O)n([O-])c(=O)n2Cc2ccccc2)c1 (optimized conformer: 65.4622028882999 kcal/mol)

>  <smiles>  (7) 
NS(=O)(=O)c1cccc(N=c2[nH]c(=O)n(O)c(=O)n2Cc2ccccc2)c1

>  <score_type>  (7) 
oracle

>  <origin>  (7) 
adg

>  <m_score__min__energy>  (7) 
-13.27

>  <m_primary>  (7) 
energy

$$$$
7:0
     RDKit          3D

 47 49  0  0  0  0  0  0  0  0999 V2000
   55.7520   29.6450   44.1890 N   0  0  0  0  0  0  0  0  0  0  0  0
   56.5610   28.9120   44.5740 C   0  0  0  0  0  0  0  0  0  0  0  0
   57.5710   27.9940   45.0550 C   0  0  0  0  0  0  0  0  0  0  0  0
   57.6670   26.7590   44.5290 C   0  0  0  0  0  0  0  0  0  0  0  0
   57.2240   25.6080   45.1940 O   0  0  0  0  0  0  0  0  0  0  0  0
   56.2280   25.6100   46.1770 C   0  0  0  0  0  0  0  0  0  0  0  0
   55.0740   26.4240   46.0000 N   0  0  0  0  0  0  0  0  0  0  0  0
   56.3540   24.9220   47.2260 O   0  0  0  0  0  0  0  0  0  0  0  0
   58.4380   28.4090   46.1910 C   0  0  0  0  0  0  0  0  0  0  0  0
   59.5720   27.6560   46.5480 C   0  0  0  0  0  0  0  0  0  0  0  0
   60.3890   28.0570   47.6080 C   0  0  0  0  0  0  0  0  0  0  0  0
   60.0880   29.2180   48.3350 C   0  0  0  0  0  0  0  0  0  0  0  0
   60.9860   29.6740   49.4550 C   0  0  0  0  0  0  0  0  0  0  0  0
   60.5270   30.9690   49.9850 N   0  0  0  0  0  0  0  0  0  0  0  0
   59.9960   31.0180   51.2390 C   0  0  0  0  0  0  0  0  0  0  0  0
   59.5220   32.2140   51.7560 C   0  0  0  0  0  0  0  0  0  0  0  0
   59.5940   33.3620   50.9750 C   0  0  0  0  0  0  0  0  0  0  0  0
   59.1510   34.4440   51.4480 O   0  0  0  0  0  0  0  0  0  0  0  0
   60.1290   33.3090   49.7130 N   0  0  0  0  0  0  0  0  0  0  0  0
   60.2290   34.5300   48.8840 C   0  0  0  0  0  0  0  0  0  0  0  0
   59.5070   34.3480   47.5700 C   0  0  0  0  0  0  0  0  0  0  0  0
   59.9500   35.0290   46.4220 C   0  0  0  0  0  0  0  0  0  0  0  0
   59.2730   34.8820   45.2070 C   0  0  0  0  0  0  0  0  0  0  0  0
   58.1490   34.0580   45.1270 C   0  0  0  0  0  0  0  0  0  0  0  0
   57.7010   33.3760   46.2610 C   0  0  0  0  0  0  0  0  0  0  0  0
   58.3740   33.5180   47.4790 C   0  0  0  0  0  0  0  0  0  0  0  0
   57.9240   32.8370   48.5620 F   0  0  0  0  0  0  0  0  0  0  0  0
   60.5840   32.1070   49.2180 C   0  0  0  0  0  0  0  0  0  0  0  0
   61.0550   32.0480   48.0470 O   0  0  0  0  0  0  0  0  0  0  0  0
   58.9670   29.9810   47.9750 C   0  0  0  0  0  0  0  0  0  0  0  0
   58.1500   29.5820   46.9150 C   0  0  0  0  0  0  0  0  0  0  0  0
   58.1142   26.6479   43.5302 H   0  0  0  0  0  0  0  0  0  0  0  0
   55.1450   27.4650   46.0150 H   0  0  0  0  0  0  0  0  0  0  0  0
   59.8176   26.7424   45.9868 H   0  0  0  0  0  0  0  0  0  0  0  0
   61.2731   27.4589   47.8738 H   0  0  0  0  0  0  0  0  0  0  0  0
   60.9689   28.9257   50.2611 H   0  0  0  0  0  0  0  0  0  0  0  0
   62.0093   29.7888   49.0681 H   0  0  0  0  0  0  0  0  0  0  0  0
   59.9430   30.1019   51.8456 H   0  0  0  0  0  0  0  0  0  0  0  0
   59.0953   32.2540   52.7691 H   0  0  0  0  0  0  0  0  0  0  0  0
   59.7792   35.3733   49.4286 H   0  0  0  0  0  0  0  0  0  0  0  0
   61.2909   34.7295   48.6776 H   0  0  0  0  0  0  0  0  0  0  0  0
   60.8340   35.6810   46.4800 H   0  0  0  0  0  0  0  0  0  0  0  0
   59.6268   35.4165   44.3131 H   0  0  0  0  0  0  0  0  0  0  0  0
   57.6161   33.9457   44.1713 H   0  0  0  0  0  0  0  0  0  0  0  0
   56.8164   32.7254   46.1959 H   0  0  0  0  0  0  0  0  0  0  0  0
   58.7300   30.8998   48.5315 H   0  0  0  0  0  0  0  0  0  0  0  0
   57.2740   30.1892   46.6433 H   0  0  0  0  0  0  0  0  0  0  0  0
  1  2  3  0
  2  3  1  0
  3  4  2  3
  4  5  1  0
  5  6  1  0
  6  7  1  0
  6  8  2  0
  3  9  1  0
  9 10  2  0
 10 11  1  0
 11 12  2  0
 12 13  1  0
 13 14  1  0
 14 15  1  0
 15 16  2  0
 16 17  1  0
 17 18  2  0
 17 19  1  0
 19 20  1  0
 20 21  1  0
 21 22  2  0
 22 23  1  0
 23 24  2  0
 24 25  1  0
 25 26  2  0
 26 27  1  0
 19 28  1  0
 28 29  2  0
 12 30  1  0
 30 31  2  0
 31  9  1  0
 28 14  1  0
 26 21  1  0
  4 32  1  0
  7 33  1  0
 10 34  1  0
 11 35  1  0
 13 36  1  0
 13 37  1  0
 15 38  1  0
 16 39  1  0
 20 40  1  0
 20 41  1  0
 22 42  1  0
 23 43  1  0
 24 44  1  0
 25 45  1  0
 30 46  1  0
 31 47  1  0
M  CHG  1   7  -1
M  END
>  <UniqueID>  (8) 
8

>  <SMILES>  (8) 
N#CC(=COC([NH-])=O)c1ccc(Cn2ccc(=O)n(Cc3ccccc3F)c2=O)cc1

>  <Energy>  (8) 
65.28235660284719

>  <Genealogy>  (8) 
N#CC(=COC([NH-])=O)c1ccc(Cn2ccc(=O)n(Cc3ccccc3F)c2=O)cc1 (protonated)
N#CC(=COC([NH-])=O)c1ccc(Cn2ccc(=O)n(Cc3ccccc3F)c2=O)cc1 (3D coordinates assigned)
N#CC(=COC([NH-])=O)c1ccc(Cn2ccc(=O)n(Cc3ccccc3F)c2=O)cc1 (optimized conformer: 65.28235660284719 kcal/mol)

>  <smiles>  (8) 
N#CC(=COC(N)=O)c1ccc(Cn2ccc(=O)n(Cc3ccccc3F)c2=O)cc1

>  <score_type>  (8) 
oracle

>  <origin>  (8) 
adg

>  <m_score__min__energy>  (8) 
-11.630000000000001

>  <m_primary>  (8) 
energy

$$$$
8:0
     RDKit          3D

 49 52  0  0  1  0  0  0  0  0999 V2000
   60.2350   31.2510   46.1310 O   0  0  0  0  0  0  0  0  0  0  0  0
   60.6920   31.0300   47.2500 C   0  0  0  0  0  0  0  0  0  0  0  0
   60.4890   29.8490   47.9540 N   0  0  0  0  0  0  0  0  0  0  0  0
   59.7440   28.7250   47.5280 C   0  0  0  0  0  0  0  0  0  0  0  0
   59.8930   27.4510   48.0200 C   0  0  0  0  0  0  0  0  0  0  0  0
   59.1320   26.3720   47.5620 C   0  0  0  0  0  0  0  0  0  0  0  0
   58.1860   26.5620   46.5780 C   0  0  0  0  0  0  0  0  0  0  0  0
   58.0430   27.8440   46.0910 C   0  0  0  0  0  0  0  0  0  0  0  0
   57.0300   28.0640   45.0290 C   0  0  0  0  0  0  0  0  0  0  0  0
   56.3490   29.3370   45.1660 N   0  0  0  0  0  0  0  0  0  0  0  0
   56.8020   30.3750   44.5060 C   0  0  0  0  0  0  0  0  0  0  0  0
   56.7540   30.4450   43.1300 C   0  0  0  0  0  0  0  0  0  0  0  0
   57.2550   31.5820   42.4940 C   0  0  0  0  0  0  0  0  0  0  0  0
   57.7730   32.5780   43.2510 N   0  0  0  0  0  0  0  0  0  0  0  0
   57.7920   32.4510   44.5920 C   0  0  0  0  0  0  0  0  0  0  0  0
   58.3430   33.5130   45.3550 N   0  0  0  0  0  0  0  0  0  0  0  0
   58.2880   33.5790   46.8000 C   0  0  0  0  0  0  0  0  0  0  0  0
   58.9340   34.8790   47.2120 C   0  0  0  0  0  0  0  0  0  0  0  0
   59.8940   35.1420   46.0730 C   0  0  1  0  0  0  0  0  0  0  0  0
   60.9810   34.3110   46.1930 O   0  0  0  0  0  0  0  0  0  0  0  0
   59.0510   34.7070   44.8910 C   0  0  0  0  0  0  0  0  0  0  0  0
   57.3270   31.3910   45.2380 N   0  0  0  0  0  0  0  0  0  0  0  0
   58.7840   28.8870   46.5380 C   0  0  0  0  0  0  0  0  0  0  0  0
   61.5030   32.0830   47.8780 C   0  0  0  0  0  0  0  0  0  0  0  0
   61.2330   32.9440   48.9090 C   0  0  0  0  0  0  0  0  0  0  0  0
   62.1920   33.8060   49.2550 C   0  0  0  0  0  0  0  0  0  0  0  0
   63.3610   33.7960   48.5900 C   0  0  0  0  0  0  0  0  0  0  0  0
   63.1950   32.5020   47.3600 S   0  0  0  0  0  0  0  0  0  0  0  0
   60.9400   29.7790   48.9170 H   0  0  0  0  0  0  0  0  0  0  0  0
   60.6415   27.2730   48.8062 H   0  0  0  0  0  0  0  0  0  0  0  0
   59.2883   25.3697   47.9875 H   0  0  0  0  0  0  0  0  0  0  0  0
   57.5740   25.7302   46.1990 H   0  0  0  0  0  0  0  0  0  0  0  0
   57.5326   28.0363   44.0509 H   0  0  0  0  0  0  0  0  0  0  0  0
   56.2744   27.2695   45.1182 H   0  0  0  0  0  0  0  0  0  0  0  0
   56.3278   29.6182   42.5428 H   0  0  0  0  0  0  0  0  0  0  0  0
   57.2295   31.6674   41.3976 H   0  0  0  0  0  0  0  0  0  0  0  0
   58.1580   33.4490   42.7780 H   0  0  0  0  0  0  0  0  0  0  0  0
   57.2418   33.5540   47.1389 H   0  0  0  0  0  0  0  0  0  0  0  0
   58.8116   32.7228   47.2503 H   0  0  0  0  0  0  0  0  0  0  0  0
   58.1889   35.6836   47.2979 H   0  0  0  0  0  0  0  0  0  0  0  0
   59.4229   34.8335   48.1963 H   0  0  0  0  0  0  0  0  0  0  0  0
   60.2795   36.1706   46.0147 H   0  0  0  0  0  0  0  0  0  0  0  0
   60.7470   33.3680   46.0130 H   0  0  0  0  0  0  0  0  0  0  0  0
   58.3376   35.4966   44.6125 H   0  0  0  0  0  0  0  0  0  0  0  0
   59.6609   34.5068   43.9977 H   0  0  0  0  0  0  0  0  0  0  0  0
   58.6210   29.8855   46.1063 H   0  0  0  0  0  0  0  0  0  0  0  0
   60.2648   32.9258   49.4308 H   0  0  0  0  0  0  0  0  0  0  0  0
   62.0275   34.5183   50.0769 H   0  0  0  0  0  0  0  0  0  0  0  0
   64.2330   34.4436   48.7637 H   0  0  0  0  0  0  0  0  0  0  0  0
  1  2  2  0
  2  3  1  0
  3  4  1  0
  4  5  2  0
  5  6  1  0
  6  7  2  0
  7  8  1  0
  8  9  1  0
  9 10  1  0
 10 11  2  0
 11 12  1  0
 12 13  2  0
 13 14  1  0
 14 15  1  0
 15 16  1  0
 16 17  1  0
 17 18  1  0
 18 19  1  0
 19 20  1  0
 19 21  1  0
 15 22  2  0
  8 23  2  0
  2 24  1  0
 24 25  2  0
 25 26  1  0
 26 27  2  0
 27 28  1  0
 23  4  1  0
 28 24  1  0
 22 11  1  0
 21 16  1  0
  3 29  1  0
  5 30  1  0
  6 31  1  0
  7 32  1  0
  9 33  1  0
  9 34  1  0
 12 35  1  0
 13 36  1  0
 14 37  1  0
 17 38  1  0
 17 39  1  0
 18 40  1  0
 18 41  1  0
 19 42  1  6
 20 43  1  0
 21 44  1  0
 21 45  1  0
 23 46  1  0
 25 47  1  0
 26 48  1  0
 27 49  1  0
M  END
>  <smiles>  (9) 
O=C(Nc1cccc(CN=c2cc[nH]c(N3CCC(O)C3)n2)c1)c1cccs1

>  <score_type>  (9) 
oracle

>  <origin>  (9) 
adg

>  <m_score__min__energy>  (9) 
-9

>  <m_primary>  (9) 
energy

$$$$
9:0
     RDKit          3D

 35 37  0  0  1  0  0  0  0  0999 V2000
   58.2480   22.4490   44.3490 C   0  0  0  0  0  0  0  0  0  0  0  0
   57.3160   23.4940   44.7840 N   0  0  0  0  0  0  0  0  0  0  0  0
   56.0230   23.3650   44.4530 C   0  0  0  0  0  0  0  0  0  0  0  0
   55.6600   22.3730   43.7930 O   0  0  0  0  0  0  0  0  0  0  0  0
   55.1780   24.3280   44.8580 N   0  0  0  0  0  0  0  0  0  0  0  0
   55.5950   25.3870   45.5670 C   0  0  0  0  0  0  0  0  0  0  0  0
   54.6350   26.3320   45.9390 O   0  0  0  0  0  0  0  0  0  0  0  0
   56.9430   25.5520   45.9310 C   0  0  0  0  0  0  0  0  0  0  0  0
   57.3240   26.7140   46.6960 C   0  0  0  0  0  0  0  0  0  0  0  0
   58.4710   27.3340   46.6960 C   0  0  0  0  0  0  0  0  0  0  0  0
   58.6450   28.7730   46.4730 C   0  0  0  0  0  0  0  0  0  0  0  0
   57.6900   29.4590   45.8140 N   0  0  0  0  0  0  0  0  0  0  0  0
   57.8110   30.7740   45.5900 C   0  0  0  0  0  0  0  0  0  0  0  0
   56.8940   31.3690   44.9720 O   0  0  0  0  0  0  0  0  0  0  0  0
   58.9010   31.4900   46.0120 C   0  0  0  0  0  0  0  0  0  0  0  0
   59.0230   32.8490   45.7790 C   0  0  0  0  0  0  0  0  0  0  0  0
   57.7380   33.6900   44.9110 Cl  0  0  0  0  0  0  0  0  0  0  0  0
   60.1500   33.5010   46.2350 C   0  0  0  0  0  0  0  0  0  0  0  0
   61.1370   32.8070   46.9120 C   0  0  0  0  0  0  0  0  0  0  0  0
   62.5330   33.7240   47.4530 Cl  0  0  0  0  0  0  0  0  0  0  0  0
   61.0080   31.4560   47.1410 C   0  0  0  0  0  0  0  0  0  0  0  0
   59.8820   30.7840   46.6890 C   0  0  0  0  0  0  0  0  0  0  0  0
   59.7120   29.4630   46.8880 N   0  0  0  0  0  0  0  0  0  0  0  0
   57.7830   24.5540   45.5050 C   0  0  0  0  0  0  0  0  0  0  0  0
   58.9900   24.5650   45.7500 O   0  0  0  0  0  0  0  0  0  0  0  0
   58.6859   21.9581   45.2306 H   0  0  0  0  0  0  0  0  0  0  0  0
   57.7084   21.7047   43.7450 H   0  0  0  0  0  0  0  0  0  0  0  0
   59.0490   22.9003   43.7450 H   0  0  0  0  0  0  0  0  0  0  0  0
   54.1690   24.2450   44.6090 H   0  0  0  0  0  0  0  0  0  0  0  0
   53.7860   25.9550   46.3890 H   0  0  0  0  0  0  0  0  0  0  0  0
   56.5519   27.1280   47.3612 H   0  0  0  0  0  0  0  0  0  0  0  0
   59.3748   26.7335   46.8766 H   0  0  0  0  0  0  0  0  0  0  0  0
   60.2647   34.5808   46.0590 H   0  0  0  0  0  0  0  0  0  0  0  0
   61.7959   30.9106   47.6811 H   0  0  0  0  0  0  0  0  0  0  0  0
   60.5010   28.9930   47.4100 H   0  0  0  0  0  0  0  0  0  0  0  0
  1  2  1  0
  2  3  1  0
  3  4  2  0
  3  5  1  0
  5  6  1  0
  6  7  1  0
  6  8  2  0
  8  9  1  0
  9 10  2  0
 10 11  1  0
 11 12  2  0
 12 13  1  0
 13 14  2  0
 13 15  1  0
 15 16  2  0
 16 17  1  0
 16 18  1  0
 18 19  2  0
 19 20  1  0
 19 21  1  0
 21 22  2  0
 22 23  1  0
  8 24  1  0
 24 25  2  0
 24  2  1  0
 23 11  1  0
 22 15  1  0
  1 26  1  0
  1 27  1  0
  1 28  1  0
  5 29  1  0
  7 30  1  0
  9 31  1  0
 10 32  1  0
 18 33  1  0
 21 34  1  0
 23 35  1  0
M  END
>  <smiles>  (10) 
Cn1c(=O)[nH]c(O)c(C=Cc2nc(=O)c3c(Cl)cc(Cl)cc3[nH]2)c1=O

>  <score_type>  (10) 
oracle

>  <origin>  (10) 
adg

>  <m_score__min__energy>  (10) 
-9.4499999999999993

>  <m_primary>  (10) 
energy

$$$$
10:0
     RDKit          3D

 53 55  0  0  0  0  0  0  0  0999 V2000
   58.6170   30.5380   48.8520 O   0  0  0  0  0  0  0  0  0  0  0  0
   59.4590   30.2810   49.7520 C   0  0  0  0  0  0  0  0  0  0  0  0
   60.4190   29.1480   49.5460 C   0  0  0  0  0  0  0  0  0  0  0  0
   59.6740   27.9420   49.2140 N   0  0  0  0  0  0  0  0  0  0  0  0
   59.3860   27.5530   47.8680 C   0  0  0  0  0  0  0  0  0  0  0  0
   60.3200   27.2800   47.0680 O   0  0  0  0  0  0  0  0  0  0  0  0
   57.9650   27.4280   47.4240 C   0  0  0  0  0  0  0  0  0  0  0  0
   57.6950   28.3730   46.3410 N   0  0  0  0  0  0  0  0  0  0  0  0
   56.6270   28.3700   45.5140 C   0  0  0  0  0  0  0  0  0  0  0  0
   55.5590   27.4850   45.6180 O   0  0  0  0  0  0  0  0  0  0  0  0
   56.7570   29.3560   44.5570 C   0  0  0  0  0  0  0  0  0  0  0  0
   57.9410   30.0090   44.8260 C   0  0  0  0  0  0  0  0  0  0  0  0
   58.5100   29.3600   45.9080 C   0  0  0  0  0  0  0  0  0  0  0  0
   59.7480   29.6520   46.4740 O   0  0  0  0  0  0  0  0  0  0  0  0
   58.4970   31.1120   43.9760 C   0  0  0  0  0  0  0  0  0  0  0  0
   57.3900   31.7220   43.0910 C   0  0  0  0  0  0  0  0  0  0  0  0
   56.5200   30.6340   42.4300 C   0  0  0  0  0  0  0  0  0  0  0  0
   55.8000   29.7630   43.4790 C   0  0  0  0  0  0  0  0  0  0  0  0
   59.5190   31.1310   50.9060 N   0  0  0  0  0  0  0  0  0  0  0  0
   60.0020   32.5080   50.9190 C   0  0  0  0  0  0  0  0  0  0  0  0
   61.3120   32.6160   50.1420 C   0  0  0  0  0  0  0  0  0  0  0  0
   61.1820   33.6450   49.1120 N   0  0  0  0  0  0  0  0  0  0  0  0
   61.1280   32.9030   47.5420 S   0  0  0  0  0  0  0  0  0  0  0  0
   61.1240   31.4090   47.7010 O   0  0  0  0  0  0  0  0  0  0  0  0
   62.3480   33.3060   46.7600 O   0  0  0  0  0  0  0  0  0  0  0  0
   59.6660   33.3900   46.6890 C   0  0  0  0  0  0  0  0  0  0  0  0
   59.7390   34.2040   45.5490 C   0  0  0  0  0  0  0  0  0  0  0  0
   58.5690   34.5820   44.8800 C   0  0  0  0  0  0  0  0  0  0  0  0
   57.3240   34.1480   45.3460 C   0  0  0  0  0  0  0  0  0  0  0  0
   57.2470   33.3340   46.4810 C   0  0  0  0  0  0  0  0  0  0  0  0
   58.4160   32.9550   47.1500 C   0  0  0  0  0  0  0  0  0  0  0  0
   61.1065   29.3936   48.7232 H   0  0  0  0  0  0  0  0  0  0  0  0
   60.9976   28.9826   50.4668 H   0  0  0  0  0  0  0  0  0  0  0  0
   57.7835   26.4034   47.0673 H   0  0  0  0  0  0  0  0  0  0  0  0
   57.3006   27.6507   48.2719 H   0  0  0  0  0  0  0  0  0  0  0  0
   59.9230   29.5010   47.4610 H   0  0  0  0  0  0  0  0  0  0  0  0
   58.9135   31.8954   44.6263 H   0  0  0  0  0  0  0  0  0  0  0  0
   59.2841   30.6995   43.3277 H   0  0  0  0  0  0  0  0  0  0  0  0
   56.7477   32.3613   43.7145 H   0  0  0  0  0  0  0  0  0  0  0  0
   57.8730   32.3049   42.2929 H   0  0  0  0  0  0  0  0  0  0  0  0
   55.7666   31.1191   41.7919 H   0  0  0  0  0  0  0  0  0  0  0  0
   57.1785   29.9821   41.8372 H   0  0  0  0  0  0  0  0  0  0  0  0
   54.9744   30.3378   43.9239 H   0  0  0  0  0  0  0  0  0  0  0  0
   55.4069   28.8606   42.9880 H   0  0  0  0  0  0  0  0  0  0  0  0
   59.2491   33.1613   50.4540 H   0  0  0  0  0  0  0  0  0  0  0  0
   60.1764   32.8168   51.9603 H   0  0  0  0  0  0  0  0  0  0  0  0
   62.1259   32.8868   50.8306 H   0  0  0  0  0  0  0  0  0  0  0  0
   61.5395   31.6493   49.6690 H   0  0  0  0  0  0  0  0  0  0  0  0
   60.7173   34.5459   45.1801 H   0  0  0  0  0  0  0  0  0  0  0  0
   58.6290   35.2211   43.9867 H   0  0  0  0  0  0  0  0  0  0  0  0
   56.4052   34.4467   44.8200 H   0  0  0  0  0  0  0  0  0  0  0  0
   56.2678   32.9920   46.8474 H   0  0  0  0  0  0  0  0  0  0  0  0
   58.3537   32.3132   48.0412 H   0  0  0  0  0  0  0  0  0  0  0  0
  1  2  2  0
  2  3  1  0
  3  4  1  0
  4  5  1  0
  5  6  2  0
  5  7  1  0
  7  8  1  0
  8  9  1  0
  9 10  1  0
  9 11  2  0
 11 12  1  0
 12 13  2  0
 13 14  1  0
 12 15  1  0
 15 16  1  0
 16 17  1  0
 17 18  1  0
  2 19  1  0
 19 20  1  0
 20 21  1  0
 21 22  1  0
 22 23  1  0
 23 24  2  0
 23 25  2  0
 23 26  1  0
 26 27  2  0
 27 28  1  0
 28 29  2  0
 29 30  1  0
 30 31  2  0
 13  8  1  0
 31 26  1  0
 18 11  1  0
  3 32  1  0
  3 33  1  0
  7 34  1  0
  7 35  1  0
 14 36  1  0
 15 37  1  0
 15 38  1  0
 16 39  1  0
 16 40  1  0
 17 41  1  0
 17 42  1  0
 18 43  1  0
 18 44  1  0
 20 45  1  0
 20 46  1  0
 21 47  1  0
 21 48  1  0
 27 49  1  0
 28 50  1  0
 29 51  1  0
 30 52  1  0
 31 53  1  0
M  CHG  4   4  -1  10  -1  19  -1  22  -1
M  END
>  <UniqueID>  (11) 
9

>  <SMILES>  (11) 
O=C(C[N-]C(=O)Cn1c([O-])c2c(c1O)CCCC2)[N-]CC[N-]S(=O)(=O)c1ccccc1

>  <Energy>  (11) 
71.35230822269442

>  <Genealogy>  (11) 
O=C(C[N-]C(=O)Cn1c([O-])c2c(c1O)CCCC2)[N-]CC[N-]S(=O)(=O)c1ccccc1 (protonated)
O=C(C[N-]C(=O)Cn1c([O-])c2c(c1O)CCCC2)[N-]CC[N-]S(=O)(=O)c1ccccc1 (3D coordinates assigned)
O=C(C[N-]C(=O)Cn1c([O-])c2c(c1O)CCCC2)[N-]CC[N-]S(=O)(=O)c1ccccc1 (nonaromatic ring conformer: 71.35230822269442 kcal/mol)

>  <smiles>  (11) 
O=C(CNC(=O)Cn1c(O)c2c(c1O)CCCC2)NCCNS(=O)(=O)c1ccccc1

>  <score_type>  (11) 
oracle

>  <origin>  (11) 
adg

>  <m_score__min__energy>  (11) 
-15.220000000000001

>  <m_primary>  (11) 
energy

$$$$
11:0
     RDKit          3D

 44 46  0  0  0  0  0  0  0  0999 V2000
   58.5850   34.0350   44.4090 O   0  0  0  0  0  0  0  0  0  0  0  0
   58.1550   32.8900   44.7110 C   0  0  0  0  0  0  0  0  0  0  0  0
   57.3940   32.1360   43.6970 C   0  0  0  0  0  0  0  0  0  0  0  0
   56.7520   30.9790   43.9210 C   0  0  0  0  0  0  0  0  0  0  0  0
   57.3620   29.7690   44.5220 C   0  0  0  0  0  0  0  0  0  0  0  0
   58.7510   29.5710   44.4730 C   0  0  0  0  0  0  0  0  0  0  0  0
   59.3190   28.4280   45.0340 C   0  0  0  0  0  0  0  0  0  0  0  0
   58.5100   27.4620   45.6290 C   0  0  0  0  0  0  0  0  0  0  0  0
   57.1120   27.6170   45.6660 C   0  0  0  0  0  0  0  0  0  0  0  0
   56.3000   26.5930   46.2800 N   0  0  0  0  0  0  0  0  0  0  0  0
   55.0910   26.4680   45.9960 O   0  0  0  0  0  0  0  0  0  0  0  0
   56.8490   25.7300   47.2010 O   0  0  0  0  0  0  0  0  0  0  0  0
   56.5400   28.7820   45.0990 C   0  0  0  0  0  0  0  0  0  0  0  0
   55.1610   28.9730   45.1150 O   0  0  0  0  0  0  0  0  0  0  0  0
   58.3740   32.3480   46.0260 N   0  0  0  0  0  0  0  0  0  0  0  0
   59.3370   32.8690   46.9560 C   0  0  0  0  0  0  0  0  0  0  0  0
   60.7040   32.6920   46.6960 C   0  0  0  0  0  0  0  0  0  0  0  0
   61.6630   33.1740   47.5890 C   0  0  0  0  0  0  0  0  0  0  0  0
   61.2690   33.8340   48.7620 C   0  0  0  0  0  0  0  0  0  0  0  0
   62.3010   34.3170   49.7450 C   0  0  0  0  0  0  0  0  0  0  0  0
   63.2930   33.2250   50.0380 C   0  0  0  0  0  0  0  0  0  0  0  0
   64.6580   33.4170   49.7820 C   0  0  0  0  0  0  0  0  0  0  0  0
   65.5670   32.4040   50.0950 C   0  0  0  0  0  0  0  0  0  0  0  0
   65.1290   31.2430   50.6520 N   0  0  0  0  0  0  0  0  0  0  0  0
   63.8120   31.0330   50.9200 C   0  0  0  0  0  0  0  0  0  0  0  0
   62.8710   32.0210   50.6230 C   0  0  0  0  0  0  0  0  0  0  0  0
   59.9020   33.9790   49.0440 C   0  0  0  0  0  0  0  0  0  0  0  0
   58.9420   33.4990   48.1480 C   0  0  0  0  0  0  0  0  0  0  0  0
   57.3494   32.5537   42.6804 H   0  0  0  0  0  0  0  0  0  0  0  0
   55.6908   30.9243   43.6366 H   0  0  0  0  0  0  0  0  0  0  0  0
   59.3942   30.3212   43.9897 H   0  0  0  0  0  0  0  0  0  0  0  0
   60.4097   28.2883   45.0068 H   0  0  0  0  0  0  0  0  0  0  0  0
   58.9697   26.5677   46.0750 H   0  0  0  0  0  0  0  0  0  0  0  0
   57.9170   31.4410   46.2700 H   0  0  0  0  0  0  0  0  0  0  0  0
   61.0228   32.1697   45.7819 H   0  0  0  0  0  0  0  0  0  0  0  0
   62.7323   33.0354   47.3715 H   0  0  0  0  0  0  0  0  0  0  0  0
   62.8295   35.1832   49.3203 H   0  0  0  0  0  0  0  0  0  0  0  0
   61.7981   34.6044   50.6801 H   0  0  0  0  0  0  0  0  0  0  0  0
   65.0107   34.3594   49.3375 H   0  0  0  0  0  0  0  0  0  0  0  0
   66.6386   32.5452   49.8908 H   0  0  0  0  0  0  0  0  0  0  0  0
   63.4879   30.0836   51.3713 H   0  0  0  0  0  0  0  0  0  0  0  0
   61.8064   31.8568   50.8460 H   0  0  0  0  0  0  0  0  0  0  0  0
   59.5843   34.4726   49.9743 H   0  0  0  0  0  0  0  0  0  0  0  0
   57.8725   33.6152   48.3774 H   0  0  0  0  0  0  0  0  0  0  0  0
  1  2  2  0
  2  3  1  0
  3  4  2  3
  4  5  1  0
  5  6  2  0
  6  7  1  0
  7  8  2  0
  8  9  1  0
  9 10  1  0
 10 11  2  0
 10 12  1  0
  9 13  2  0
 13 14  1  0
  2 15  1  0
 15 16  1  0
 16 17  2  0
 17 18  1  0
 18 19  2  0
 19 20  1  0
 20 21  1  0
 21 22  2  0
 22 23  1  0
 23 24  2  0
 24 25  1  0
 25 26  2  0
 19 27  1  0
 27 28  2  0
 13  5  1  0
 28 16  1  0
 26 21  1  0
  3 29  1  0
  4 30  1  0
  6 31  1  0
  7 32  1  0
  8 33  1  0
 15 34  1  0
 17 35  1  0
 18 36  1  0
 20 37  1  0
 20 38  1  0
 22 39  1  0
 23 40  1  0
 25 41  1  0
 26 42  1  0
 27 43  1  0
 28 44  1  0
M  CHG  3  10   1  12  -1  14  -1
M  END
>  <UniqueID>  (12) 
10

>  <SMILES>  (12) 
O=C(C=Cc1cccc([N+](=O)[O-])c1[O-])Nc1ccc(Cc2ccncc2)cc1

>  <Energy>  (12) 
61.4968979649714

>  <Genealogy>  (12) 
O=C(C=Cc1cccc([N+](=O)[O-])c1[O-])Nc1ccc(Cc2ccncc2)cc1 (protonated)
O=C(C=Cc1cccc([N+](=O)[O-])c1[O-])Nc1ccc(Cc2ccncc2)cc1 (3D coordinates assigned)
O=C(C=Cc1cccc([N+](=O)[O-])c1[O-])Nc1ccc(Cc2ccncc2)cc1 (optimized conformer: 61.4968979649714 kcal/mol)

>  <smiles>  (12) 
O=C(C=Cc1cccc([N+](=O)[O-])c1O)Nc1ccc(Cc2ccncc2)cc1

>  <score_type>  (12) 
oracle

>  <origin>  (12) 
adg

>  <m_score__min__energy>  (12) 
-12.800000000000001

>  <m_primary>  (12) 
energy

$$$$
12:0
     RDKit          3D

 36 37  0  0  0  0  0  0  0  0999 V2000
   50.9970   32.3290   50.1040 N   0  0  0  0  0  0  0  0  0  0  0  0
   51.1460   32.0770   51.5010 C   0  0  0  0  0  0  0  0  0  0  0  0
   50.3180   32.5800   52.3060 O   0  0  0  0  0  0  0  0  0  0  0  0
   52.2600   31.2360   51.9980 C   0  0  0  0  0  0  0  0  0  0  0  0
   51.9980   30.0990   52.7820 C   0  0  0  0  0  0  0  0  0  0  0  0
   53.0480   29.3010   53.2440 C   0  0  0  0  0  0  0  0  0  0  0  0
   54.3690   29.6310   52.9390 C   0  0  0  0  0  0  0  0  0  0  0  0
   54.6530   30.7760   52.1720 C   0  0  0  0  0  0  0  0  0  0  0  0
   55.9620   31.1420   51.8310 O   0  0  0  0  0  0  0  0  0  0  0  0
   57.1020   30.3480   52.0130 C   0  0  0  0  0  0  0  0  0  0  0  0
   57.0280   29.0890   51.9860 O   0  0  0  0  0  0  0  0  0  0  0  0
   58.3980   31.0030   52.3630 C   0  0  0  0  0  0  0  0  0  0  0  0
   58.3760   32.4000   51.9260 N   0  0  0  0  0  0  0  0  0  0  0  0
   59.7940   32.7420   50.9820 S   0  0  0  0  0  0  0  0  0  0  0  0
   60.7070   31.5470   50.9870 O   0  0  0  0  0  0  0  0  0  0  0  0
   60.5280   33.9020   51.5950 O   0  0  0  0  0  0  0  0  0  0  0  0
   59.3450   33.1560   49.3280 C   0  0  0  0  0  0  0  0  0  0  0  0
   59.9040   34.2770   48.6970 C   0  0  0  0  0  0  0  0  0  0  0  0
   59.5580   34.5850   47.3770 C   0  0  0  0  0  0  0  0  0  0  0  0
   58.6550   33.7740   46.6820 C   0  0  0  0  0  0  0  0  0  0  0  0
   58.1840   34.1950   44.8800 Br  0  0  0  0  0  0  0  0  0  0  0  0
   58.1000   32.6520   47.3070 C   0  0  0  0  0  0  0  0  0  0  0  0
   58.4450   32.3420   48.6260 C   0  0  0  0  0  0  0  0  0  0  0  0
   53.5960   31.5600   51.6950 C   0  0  0  0  0  0  0  0  0  0  0  0
   50.0510   32.3460   49.6600 H   0  0  0  0  0  0  0  0  0  0  0  0
   50.9600   29.8358   53.0334 H   0  0  0  0  0  0  0  0  0  0  0  0
   52.8323   28.4091   53.8506 H   0  0  0  0  0  0  0  0  0  0  0  0
   55.1906   28.9944   53.2991 H   0  0  0  0  0  0  0  0  0  0  0  0
   58.5463   30.9624   53.4522 H   0  0  0  0  0  0  0  0  0  0  0  0
   59.2216   30.4756   51.8594 H   0  0  0  0  0  0  0  0  0  0  0  0
   57.5540   32.5300   51.2920 H   0  0  0  0  0  0  0  0  0  0  0  0
   60.6158   34.9152   49.2411 H   0  0  0  0  0  0  0  0  0  0  0  0
   59.9965   35.4658   46.8852 H   0  0  0  0  0  0  0  0  0  0  0  0
   57.3913   32.0129   46.7599 H   0  0  0  0  0  0  0  0  0  0  0  0
   58.0094   31.4576   49.1139 H   0  0  0  0  0  0  0  0  0  0  0  0
   53.8125   32.4420   51.0744 H   0  0  0  0  0  0  0  0  0  0  0  0
  1  2  1  0
  2  3  2  0
  2  4  1  0
  4  5  2  0
  5  6  1  0
  6  7  2  0
  7  8  1  0
  8  9  1  0
  9 10  1  0
 10 11  2  0
 10 12  1  0
 12 13  1  0
 13 14  1  0
 14 15  2  0
 14 16  2  0
 14 17  1  0
 17 18  2  0
 18 19  1  0
 19 20  2  0
 20 21  1  0
 20 22  1  0
 22 23  2  0
  8 24  2  0
 24  4  1  0
 23 17  1  0
  1 25  1  0
  5 26  1  0
  6 27  1  0
  7 28  1  0
 12 29  1  0
 12 30  1  0
 13 31  1  0
 18 32  1  0
 19 33  1  0
 22 34  1  0
 23 35  1  0
 24 36  1  0
M  CHG  1   1  -1
M  END
>  <UniqueID>  (13) 
11

>  <SMILES>  (13) 
[NH-]C(=O)c1cccc(OC(=O)CNS(=O)(=O)c2ccc(Br)cc2)c1

>  <Energy>  (13) 
37.317790308056345

>  <Genealogy>  (13) 
[NH-]C(=O)c1cccc(OC(=O)CNS(=O)(=O)c2ccc(Br)cc2)c1 (protonated)
[NH-]C(=O)c1cccc(OC(=O)CNS(=O)(=O)c2ccc(Br)cc2)c1 (3D coordinates assigned)
[NH-]C(=O)c1cccc(OC(=O)CNS(=O)(=O)c2ccc(Br)cc2)c1 (optimized conformer: 37.317790308056345 kcal/mol)

>  <smiles>  (13) 
NC(=O)c1cccc(OC(=O)CNS(=O)(=O)c2ccc(Br)cc2)c1

>  <score_type>  (13) 
oracle

>  <origin>  (13) 
adg

>  <m_score__min__energy>  (13) 
-11.99

>  <m_primary>  (13) 
energy

$$$$
13:0
     RDKit          3D

 34 35  0  0  0  0  0  0  0  0999 V2000
   57.9813   28.4511   55.2658 H   0  0  0  0  0  0  0  0  0  0  0  0
   57.6210   28.8400   54.3020 C   0  0  0  0  0  0  0  0  0  0  0  0
   56.3400   28.6090   53.9140 N   0  0  0  0  0  0  0  0  0  0  0  0
   55.8760   29.0700   52.7250 C   0  0  0  0  0  0  0  0  0  0  0  0
   54.6340   28.8550   52.4020 N   0  0  0  0  0  0  0  0  0  0  0  0
   53.6230   29.8540   52.1770 C   0  0  0  0  0  0  0  0  0  0  0  0
   53.1890   30.1910   50.8810 C   0  0  0  0  0  0  0  0  0  0  0  0
   53.6397   29.6990   50.0065 H   0  0  0  0  0  0  0  0  0  0  0  0
   52.1860   31.1500   50.7020 C   0  0  0  0  0  0  0  0  0  0  0  0
   51.8616   31.4232   49.6871 H   0  0  0  0  0  0  0  0  0  0  0  0
   51.5960   31.7610   51.8120 C   0  0  0  0  0  0  0  0  0  0  0  0
   50.6000   32.7140   51.6320 O   0  0  0  0  0  0  0  0  0  0  0  0
   52.0010   31.4070   53.1020 C   0  0  0  0  0  0  0  0  0  0  0  0
   51.5312   31.8823   53.9757 H   0  0  0  0  0  0  0  0  0  0  0  0
   53.0030   30.4490   53.2820 C   0  0  0  0  0  0  0  0  0  0  0  0
   53.3064   30.1607   54.2993 H   0  0  0  0  0  0  0  0  0  0  0  0
   56.7020   29.7890   51.9160 N   0  0  0  0  0  0  0  0  0  0  0  0
   57.9940   30.0540   52.2540 C   0  0  0  0  0  0  0  0  0  0  0  0
   58.8270   30.8290   51.3550 N   0  0  0  0  0  0  0  0  0  0  0  0
   60.0110   30.2380   50.7190 C   0  0  0  0  0  0  0  0  0  0  0  0
   60.7086   29.8898   51.4949 H   0  0  0  0  0  0  0  0  0  0  0  0
   59.7046   29.3871   50.0928 H   0  0  0  0  0  0  0  0  0  0  0  0
   60.5068   30.9943   50.0928 H   0  0  0  0  0  0  0  0  0  0  0  0
   58.4560   32.2120   51.0170 C   0  0  0  0  0  0  0  0  0  0  0  0
   59.3682   32.7982   50.8319 H   0  0  0  0  0  0  0  0  0  0  0  0
   57.8254   32.2047   50.1158 H   0  0  0  0  0  0  0  0  0  0  0  0
   57.6710   32.8470   52.1730 C   0  0  0  0  0  0  0  0  0  0  0  0
   58.1810   32.6182   53.1204 H   0  0  0  0  0  0  0  0  0  0  0  0
   57.6268   33.9334   52.0063 H   0  0  0  0  0  0  0  0  0  0  0  0
   56.3050   32.3350   52.2330 N   0  0  0  0  0  0  0  0  0  0  0  0
   56.0860   31.8500   51.3330 H   0  0  0  0  0  0  0  0  0  0  0  0
   56.2430   31.6240   52.9990 H   0  0  0  0  0  0  0  0  0  0  0  0
   58.4800   29.5690   53.4810 C   0  0  0  0  0  0  0  0  0  0  0  0
   59.5188   29.7612   53.7874 H   0  0  0  0  0  0  0  0  0  0  0  0
  1  2  1  0
  2  3  1  0
  3  4  1  0
  4  5  2  0
  5  6  1  0
  6  7  2  0
  7  8  1  0
  7  9  1  0
  9 10  1  0
  9 11  2  0
 11 12  1  0
 11 13  1  0
 13 14  1  0
 13 15  2  0
 15 16  1  0
  4 17  1  0
 17 18  2  0
 18 19  1  0
 19 20  1  0
 20 21  1  0
 20 22  1  0
 20 23  1  0
 19 24  1  0
 24 25  1  0
 24 26  1  0
 24 27  1  0
 27 28  1  0
 27 29  1  0
 27 30  1  0
 30 31  1  0
 30 32  1  0
 18 33  1  0
 33 34  1  0
 33  2  2  0
 15  6  1  0
M  CHG  2   3  -1  12  -1
M  END
>  <UniqueID>  (14) 
12

>  <SMILES>  (14) 
CN(CCN)c1cc[n-]/c(=N/c2ccc([O-])cc2)n1

>  <Energy>  (14) 
36.867683514694704

>  <Genealogy>  (14) 
CN(CCN)c1cc[n-]c(=Nc2ccc([O-])cc2)n1 (protonated)
CN(CCN)c1cc[n-]/c(=N/c2ccc([O-])cc2)n1 (cis-trans isomerization)
CN(CCN)c1cc[n-]/c(=N/c2ccc([O-])cc2)n1 (3D coordinates assigned)
CN(CCN)c1cc[n-]/c(=N/c2ccc([O-])cc2)n1 (optimized conformer: 36.867683514694704 kcal/mol)

>  <smiles>  (14) 
CN(CCN)c1cc[nH]c(=Nc2ccc(O)cc2)n1

>  <score_type>  (14) 
oracle

>  <origin>  (14) 
adg

>  <m_score__min__energy>  (14) 
-10.35

>  <m_primary>  (14) 
energy

$$$$
14:0
     RDKit          3D

 36 38  0  0  0  0  0  0  0  0999 V2000
   59.7836   35.7044   47.3173 H   0  0  0  0  0  0  0  0  0  0  0  0
   59.2730   34.9330   46.7220 C   0  0  0  0  0  0  0  0  0  0  0  0
   59.3280   34.9780   45.3270 C   0  0  0  0  0  0  0  0  0  0  0  0
   59.8890   35.7797   44.8244 H   0  0  0  0  0  0  0  0  0  0  0  0
   58.6700   34.0040   44.5690 C   0  0  0  0  0  0  0  0  0  0  0  0
   58.7308   34.0321   43.4710 H   0  0  0  0  0  0  0  0  0  0  0  0
   57.9340   32.9930   45.2000 C   0  0  0  0  0  0  0  0  0  0  0  0
   57.3030   31.9870   44.3930 N   0  0  0  0  0  0  0  0  0  0  0  0
   57.0810   30.7510   44.7310 C   0  0  0  0  0  0  0  0  0  0  0  0
   55.8870   30.1540   44.5330 N   0  0  0  0  0  0  0  0  0  0  0  0
   55.8420   28.9030   44.9880 N   0  0  0  0  0  0  0  0  0  0  0  0
   56.9950   28.4890   45.5650 C   0  0  0  0  0  0  0  0  0  0  0  0
   57.1840   27.1370   46.1420 C   0  0  0  0  0  0  0  0  0  0  0  0
   58.3130   26.8600   46.9300 C   0  0  0  0  0  0  0  0  0  0  0  0
   59.0552   27.6497   47.1185 H   0  0  0  0  0  0  0  0  0  0  0  0
   58.4990   25.5900   47.4750 C   0  0  0  0  0  0  0  0  0  0  0  0
   59.3898   25.3827   48.0861 H   0  0  0  0  0  0  0  0  0  0  0  0
   57.5620   24.5800   47.2500 C   0  0  0  0  0  0  0  0  0  0  0  0
   57.7720   23.3250   47.8110 O   0  0  0  0  0  0  0  0  0  0  0  0
   56.4170   24.8340   46.4710 C   0  0  0  0  0  0  0  0  0  0  0  0
   55.4620   23.7800   46.2430 N   0  0  0  0  0  0  0  0  0  0  0  0
   55.6530   22.8260   46.6230 H   0  0  0  0  0  0  0  0  0  0  0  0
   53.9080   24.0140   45.5050 S   0  0  0  0  0  0  0  0  0  0  0  0
   53.4950   25.4540   45.6190 O   0  0  0  0  0  0  0  0  0  0  0  0
   54.0030   23.6520   44.0490 O   0  0  0  0  0  0  0  0  0  0  0  0
   52.6940   22.9570   46.2680 C   0  0  0  0  0  0  0  0  0  0  0  0
   52.7791   23.0311   47.3622 H   0  0  0  0  0  0  0  0  0  0  0  0
   51.6868   23.2710   45.9565 H   0  0  0  0  0  0  0  0  0  0  0  0
   52.8664   21.9162   45.9565 H   0  0  0  0  0  0  0  0  0  0  0  0
   56.2440   26.1160   45.9130 C   0  0  0  0  0  0  0  0  0  0  0  0
   55.3614   26.3214   45.2895 H   0  0  0  0  0  0  0  0  0  0  0  0
   58.1550   29.7190   45.5270 S   0  0  0  0  0  0  0  0  0  0  0  0
   57.9100   32.9350   46.6060 C   0  0  0  0  0  0  0  0  0  0  0  0
   57.3703   32.1209   47.1119 H   0  0  0  0  0  0  0  0  0  0  0  0
   58.5700   33.9090   47.3620 C   0  0  0  0  0  0  0  0  0  0  0  0
   58.5357   33.8690   48.4607 H   0  0  0  0  0  0  0  0  0  0  0  0
  1  2  1  0
  2  3  2  0
  3  4  1  0
  3  5  1  0
  5  6  1  0
  5  7  2  0
  7  8  1  0
  8  9  2  0
  9 10  1  0
 10 11  1  0
 11 12  2  0
 12 13  1  0
 13 14  2  0
 14 15  1  0
 14 16  1  0
 16 17  1  0
 16 18  2  0
 18 19  1  0
 18 20  1  0
 20 21  1  0
 21 22  1  0
 21 23  1  0
 23 24  2  0
 23 25  2  0
 23 26  1  0
 26 27  1  0
 26 28  1  0
 26 29  1  0
 20 30  2  0
 30 31  1  0
 12 32  1  0
  7 33  1  0
 33 34  1  0
 33 35  2  0
 35 36  1  0
 35  2  1  0
 32  9  1  0
 30 13  1  0
M  CHG  2  10  -1  19  -1
M  END
>  <UniqueID>  (15) 
13

>  <SMILES>  (15) 
CS(=O)(=O)Nc1cc(-c2n[n-]/c(=N/c3ccccc3)s2)ccc1[O-]

>  <Energy>  (15) 
80.6255681644246

>  <Genealogy>  (15) 
CS(=O)(=O)Nc1cc(-c2n[n-]c(=Nc3ccccc3)s2)ccc1[O-] (protonated)
CS(=O)(=O)Nc1cc(-c2n[n-]/c(=N/c3ccccc3)s2)ccc1[O-] (cis-trans isomerization)
CS(=O)(=O)Nc1cc(-c2n[n-]/c(=N/c3ccccc3)s2)ccc1[O-] (3D coordinates assigned)
CS(=O)(=O)Nc1cc(-c2n[n-]/c(=N/c3ccccc3)s2)ccc1[O-] (optimized conformer: 80.6255681644246 kcal/mol)

>  <smiles>  (15) 
CS(=O)(=O)Nc1cc(-c2n[nH]c(=Nc3ccccc3)s2)ccc1O

>  <score_type>  (15) 
oracle

>  <origin>  (15) 
adg

>  <m_score__min__energy>  (15) 
-11.92

>  <m_primary>  (15) 
energy

$$$$
15:0
     RDKit          3D

 39 41  0  0  0  0  0  0  0  0999 V2000
   60.9022   30.3687   46.9067 H   0  0  0  0  0  0  0  0  0  0  0  0
   60.1360   30.0470   46.1860 C   0  0  0  0  0  0  0  0  0  0  0  0
   60.1480   29.0200   45.7922 H   0  0  0  0  0  0  0  0  0  0  0  0
   59.1860   30.9080   45.7870 C   0  0  0  0  0  0  0  0  0  0  0  0
   58.1540   30.6420   44.8820 C   0  0  0  0  0  0  0  0  0  0  0  0
   57.9100   29.4880   44.2320 C   0  0  0  0  0  0  0  0  0  0  0  0
   58.0539   29.4630   43.1417 H   0  0  0  0  0  0  0  0  0  0  0  0
   57.4580   28.2510   44.9090 C   0  0  0  0  0  0  0  0  0  0  0  0
   56.1080   28.0440   45.2440 C   0  0  0  0  0  0  0  0  0  0  0  0
   55.1450   29.0020   44.9470 O   0  0  0  0  0  0  0  0  0  0  0  0
   55.7350   26.9060   45.8840 N   0  0  0  0  0  0  0  0  0  0  0  0
   56.6490   25.9630   46.2260 C   0  0  0  0  0  0  0  0  0  0  0  0
   56.1710   24.6050   46.9940 S   0  0  0  0  0  0  0  0  0  0  0  0
   57.9620   26.1540   45.9410 N   0  0  0  0  0  0  0  0  0  0  0  0
   58.3860   27.2740   45.3010 C   0  0  0  0  0  0  0  0  0  0  0  0
   59.6140   27.4180   45.0550 O   0  0  0  0  0  0  0  0  0  0  0  0
   57.4450   31.8280   44.7380 C   0  0  0  0  0  0  0  0  0  0  0  0
   56.5705   31.9968   44.0924 H   0  0  0  0  0  0  0  0  0  0  0  0
   58.0520   32.7530   45.5630 C   0  0  0  0  0  0  0  0  0  0  0  0
   57.6190   34.1810   45.7030 C   0  0  0  0  0  0  0  0  0  0  0  0
   57.5412   34.4376   46.7698 H   0  0  0  0  0  0  0  0  0  0  0  0
   58.3585   34.8373   45.2210 H   0  0  0  0  0  0  0  0  0  0  0  0
   56.6395   34.3161   45.2210 H   0  0  0  0  0  0  0  0  0  0  0  0
   59.1120   32.2000   46.1940 N   0  0  0  0  0  0  0  0  0  0  0  0
   59.9770   32.8700   47.1290 C   0  0  0  0  0  0  0  0  0  0  0  0
   59.4730   33.3290   48.3540 C   0  0  0  0  0  0  0  0  0  0  0  0
   58.4142   33.1681   48.6049 H   0  0  0  0  0  0  0  0  0  0  0  0
   60.3090   33.9900   49.2580 C   0  0  0  0  0  0  0  0  0  0  0  0
   59.9061   34.3445   50.2182 H   0  0  0  0  0  0  0  0  0  0  0  0
   61.6640   34.2040   48.9450 C   0  0  0  0  0  0  0  0  0  0  0  0
   62.5440   34.8620   49.8170 O   0  0  0  0  0  0  0  0  0  0  0  0
   63.3630   34.2050   50.7780 C   0  0  0  0  0  0  0  0  0  0  0  0
   63.0278   34.4739   51.7906 H   0  0  0  0  0  0  0  0  0  0  0  0
   63.2851   33.1161   50.6430 H   0  0  0  0  0  0  0  0  0  0  0  0
   64.4091   34.5173   50.6430 H   0  0  0  0  0  0  0  0  0  0  0  0
   62.1620   33.7470   47.7180 C   0  0  0  0  0  0  0  0  0  0  0  0
   63.2198   33.9098   47.4640 H   0  0  0  0  0  0  0  0  0  0  0  0
   61.3260   33.0860   46.8140 C   0  0  0  0  0  0  0  0  0  0  0  0
   61.7276   32.7341   45.8523 H   0  0  0  0  0  0  0  0  0  0  0  0
  1  2  1  0
  2  3  1  0
  2  4  2  0
  4  5  1  0
  5  6  2  0
  6  7  1  0
  6  8  1  0
  8  9  2  0
  9 10  1  0
  9 11  1  0
 11 12  1  0
 12 13  2  0
 12 14  1  0
 14 15  1  0
 15 16  2  0
  5 17  1  0
 17 18  1  0
 17 19  2  0
 19 20  1  0
 20 21  1  0
 20 22  1  0
 20 23  1  0
 19 24  1  0
 24 25  1  0
 25 26  2  0
 26 27  1  0
 26 28  1  0
 28 29  1  0
 28 30  2  0
 30 31  1  0
 31 32  1  0
 32 33  1  0
 32 34  1  0
 32 35  1  0
 30 36  1  0
 36 37  1  0
 36 38  2  0
 38 39  1  0
 24  4  1  0
 38 25  1  0
 15  8  1  0
M  CHG  3  10  -1  11  -1  14  -1
M  END
>  <UniqueID>  (16) 
14

>  <SMILES>  (16) 
C=c1/c(=C/c2c([O-])[n-]c(=S)[n-]c2=O)cc(C)n1-c1ccc(OC)cc1

>  <Energy>  (16) 
85.57002580418731

>  <Genealogy>  (16) 
C=c1c(=Cc2c([O-])[n-]c(=S)[n-]c2=O)cc(C)n1-c1ccc(OC)cc1 (protonated)
C=c1/c(=C/c2c([O-])[n-]c(=S)[n-]c2=O)cc(C)n1-c1ccc(OC)cc1 (cis-trans isomerization)
C=c1/c(=C/c2c([O-])[n-]c(=S)[n-]c2=O)cc(C)n1-c1ccc(OC)cc1 (3D coordinates assigned)
C=c1/c(=C/c2c([O-])[n-]c(=S)[n-]c2=O)cc(C)n1-c1ccc(OC)cc1 (optimized conformer: 85.57002580418731 kcal/mol)

>  <smiles>  (16) 
C=c1c(=Cc2c(O)[nH]c(=S)[nH]c2=O)cc(C)n1-c1ccc(OC)cc1

>  <score_type>  (16) 
oracle

>  <origin>  (16) 
adg

>  <m_score__min__energy>  (16) 
-14.529999999999999

>  <m_primary>  (16) 
energy

$$$$
16:0
     RDKit          3D

 37 39  0  0  0  0  0  0  0  0999 V2000
   59.0200   34.2180   44.1730 O   0  0  0  0  0  0  0  0  0  0  0  0
   58.1150   33.5140   44.6980 C   0  0  0  0  0  0  0  0  0  0  0  0
   57.6280   32.2890   43.9990 C   0  0  0  0  0  0  0  0  0  0  0  0
   56.6530   31.6120   44.8490 N   0  0  0  0  0  0  0  0  0  0  0  0
   56.5450   29.9370   44.4000 S   0  0  0  0  0  0  0  0  0  0  0  0
   55.2730   29.3590   44.9520 O   0  0  0  0  0  0  0  0  0  0  0  0
   56.5210   29.8230   42.9000 O   0  0  0  0  0  0  0  0  0  0  0  0
   57.9130   29.0440   45.0590 C   0  0  0  0  0  0  0  0  0  0  0  0
   59.2160   29.3760   44.6650 C   0  0  0  0  0  0  0  0  0  0  0  0
   60.3080   28.6740   45.1830 C   0  0  0  0  0  0  0  0  0  0  0  0
   60.1030   27.6390   46.0990 C   0  0  0  0  0  0  0  0  0  0  0  0
   58.8060   27.3040   46.4970 C   0  0  0  0  0  0  0  0  0  0  0  0
   57.7110   28.0050   45.9800 C   0  0  0  0  0  0  0  0  0  0  0  0
   57.5240   33.8930   45.9080 O   0  0  0  0  0  0  0  0  0  0  0  0
   57.6380   33.1290   47.1070 C   0  0  0  0  0  0  0  0  0  0  0  0
   59.0470   32.6470   47.2860 C   0  0  0  0  0  0  0  0  0  0  0  0
   59.2980   31.3470   47.7610 C   0  0  0  0  0  0  0  0  0  0  0  0
   60.6260   30.9190   47.8940 C   0  0  0  0  0  0  0  0  0  0  0  0
   60.8790   29.7590   48.3200 O   0  0  0  0  0  0  0  0  0  0  0  0
   61.6290   31.7750   47.5550 N   0  0  0  0  0  0  0  0  0  0  0  0
   62.9680   31.5300   47.6200 C   0  0  0  0  0  0  0  0  0  0  0  0
   63.7620   32.5990   47.2040 C   0  0  0  0  0  0  0  0  0  0  0  0
   62.7530   33.8800   46.7470 S   0  0  0  0  0  0  0  0  0  0  0  0
   61.3580   33.0160   47.0970 C   0  0  0  0  0  0  0  0  0  0  0  0
   60.0870   33.4650   46.9560 N   0  0  0  0  0  0  0  0  0  0  0  0
   57.1543   32.5713   43.0472 H   0  0  0  0  0  0  0  0  0  0  0  0
   58.4742   31.6162   43.7958 H   0  0  0  0  0  0  0  0  0  0  0  0
   59.3801   30.1918   43.9456 H   0  0  0  0  0  0  0  0  0  0  0  0
   61.3292   28.9364   44.8694 H   0  0  0  0  0  0  0  0  0  0  0  0
   60.9629   27.0876   46.5070 H   0  0  0  0  0  0  0  0  0  0  0  0
   58.6458   26.4884   47.2175 H   0  0  0  0  0  0  0  0  0  0  0  0
   56.6909   27.7413   46.2959 H   0  0  0  0  0  0  0  0  0  0  0  0
   57.3577   33.7571   47.9654 H   0  0  0  0  0  0  0  0  0  0  0  0
   56.9681   32.2590   47.0416 H   0  0  0  0  0  0  0  0  0  0  0  0
   58.4658   30.6774   48.0237 H   0  0  0  0  0  0  0  0  0  0  0  0
   63.3856   30.5742   47.9694 H   0  0  0  0  0  0  0  0  0  0  0  0
   64.8616   32.6083   47.1773 H   0  0  0  0  0  0  0  0  0  0  0  0
  1  2  2  0
  2  3  1  0
  3  4  1  0
  4  5  1  0
  5  6  2  0
  5  7  2  0
  5  8  1  0
  8  9  2  0
  9 10  1  0
 10 11  2  0
 11 12  1  0
 12 13  2  0
  2 14  1  0
 14 15  1  0
 15 16  1  0
 16 17  2  0
 17 18  1  0
 18 19  2  0
 18 20  1  0
 20 21  1  0
 21 22  2  0
 22 23  1  0
 23 24  1  0
 24 25  2  0
 13  8  1  0
 25 16  1  0
 24 20  1  0
  3 26  1  0
  3 27  1  0
  9 28  1  0
 10 29  1  0
 11 30  1  0
 12 31  1  0
 13 32  1  0
 15 33  1  0
 15 34  1  0
 17 35  1  0
 21 36  1  0
 22 37  1  0
M  CHG  1   4  -1
M  END
>  <UniqueID>  (17) 
15

>  <SMILES>  (17) 
O=C(C[N-]S(=O)(=O)c1ccccc1)OCc1cc(=O)n2ccsc2n1

>  <Energy>  (17) 
69.13498500075426

>  <Genealogy>  (17) 
O=C(C[N-]S(=O)(=O)c1ccccc1)OCc1cc(=O)n2ccsc2n1 (protonated)
O=C(C[N-]S(=O)(=O)c1ccccc1)OCc1cc(=O)n2ccsc2n1 (3D coordinates assigned)
O=C(C[N-]S(=O)(=O)c1ccccc1)OCc1cc(=O)n2ccsc2n1 (optimized conformer: 69.13498500075426 kcal/mol)

>  <smiles>  (17) 
O=C(CNS(=O)(=O)c1ccccc1)OCc1cc(=O)n2ccsc2n1

>  <score_type>  (17) 
oracle

>  <origin>  (17) 
adg

>  <m_score__min__energy>  (17) 
-10.43

>  <m_primary>  (17) 
energy

$$$$
17:0
     RDKit          3D

 48 50  0  0  0  0  0  0  0  0999 V2000
   59.7504   30.4928   49.5939 H   0  0  0  0  0  0  0  0  0  0  0  0
   60.7190   29.9970   49.7550 C   0  0  0  0  0  0  0  0  0  0  0  0
   60.7580   28.5200   49.8180 C   0  0  0  0  0  0  0  0  0  0  0  0
   61.2780   27.9430   50.8110 O   0  0  0  0  0  0  0  0  0  0  0  0
   60.1570   27.7160   48.7930 N   0  0  0  0  0  0  0  0  0  0  0  0
   59.6800   28.1840   47.5230 C   0  0  0  0  0  0  0  0  0  0  0  0
   58.3850   27.8460   47.1170 C   0  0  0  0  0  0  0  0  0  0  0  0
   57.7618   27.2027   47.7556 H   0  0  0  0  0  0  0  0  0  0  0  0
   57.8790   28.3210   45.9050 C   0  0  0  0  0  0  0  0  0  0  0  0
   56.8569   28.0537   45.5986 H   0  0  0  0  0  0  0  0  0  0  0  0
   58.6640   29.1370   45.0740 C   0  0  0  0  0  0  0  0  0  0  0  0
   58.0900   29.6710   43.8680 N   0  0  0  0  0  0  0  0  0  0  0  0
   58.1520   29.1130   42.9880 H   0  0  0  0  0  0  0  0  0  0  0  0
   57.0930   31.0920   43.8260 S   0  0  0  0  0  0  0  0  0  0  0  0
   55.7490   30.7620   44.4070 O   0  0  0  0  0  0  0  0  0  0  0  0
   56.9180   31.5230   42.3970 O   0  0  0  0  0  0  0  0  0  0  0  0
   57.8080   32.3970   44.7730 C   0  0  0  0  0  0  0  0  0  0  0  0
   58.4070   33.4850   44.1240 C   0  0  0  0  0  0  0  0  0  0  0  0
   58.4418   33.5152   43.0250 H   0  0  0  0  0  0  0  0  0  0  0  0
   58.9610   34.5330   44.8670 C   0  0  0  0  0  0  0  0  0  0  0  0
   59.4212   35.3889   44.3516 H   0  0  0  0  0  0  0  0  0  0  0  0
   58.9300   34.4930   46.2650 C   0  0  0  0  0  0  0  0  0  0  0  0
   59.4840   35.4990   46.9860 F   0  0  0  0  0  0  0  0  0  0  0  0
   58.3290   33.4140   46.9170 C   0  0  0  0  0  0  0  0  0  0  0  0
   58.3037   33.3825   48.0163 H   0  0  0  0  0  0  0  0  0  0  0  0
   57.7590   32.3730   46.1760 C   0  0  0  0  0  0  0  0  0  0  0  0
   57.2714   31.5339   46.6938 H   0  0  0  0  0  0  0  0  0  0  0  0
   59.9870   29.4210   45.4540 C   0  0  0  0  0  0  0  0  0  0  0  0
   60.6268   30.0273   44.7959 H   0  0  0  0  0  0  0  0  0  0  0  0
   60.4940   28.9380   46.6620 C   0  0  0  0  0  0  0  0  0  0  0  0
   61.5369   29.1492   46.9409 H   0  0  0  0  0  0  0  0  0  0  0  0
   61.8140   30.7550   49.8860 C   0  0  0  0  0  0  0  0  0  0  0  0
   62.4153   30.6757   50.8037 H   0  0  0  0  0  0  0  0  0  0  0  0
   62.2350   31.6970   48.8260 C   0  0  0  0  0  0  0  0  0  0  0  0
   61.3180   32.0260   47.8160 C   0  0  0  0  0  0  0  0  0  0  0  0
   60.3053   31.5970   47.8358 H   0  0  0  0  0  0  0  0  0  0  0  0
   61.6840   32.8950   46.7860 C   0  0  0  0  0  0  0  0  0  0  0  0
   60.9622   33.1413   45.9933 H   0  0  0  0  0  0  0  0  0  0  0  0
   62.9640   33.4520   46.7600 C   0  0  0  0  0  0  0  0  0  0  0  0
   63.2545   34.1237   45.9387 H   0  0  0  0  0  0  0  0  0  0  0  0
   63.8760   33.1570   47.7760 C   0  0  0  0  0  0  0  0  0  0  0  0
   64.8816   33.6022   47.7533 H   0  0  0  0  0  0  0  0  0  0  0  0
   63.5170   32.2930   48.8300 C   0  0  0  0  0  0  0  0  0  0  0  0
   64.3890   32.0320   49.8990 O   0  0  0  0  0  0  0  0  0  0  0  0
   65.6320   32.6920   50.1120 C   0  0  0  0  0  0  0  0  0  0  0  0
   65.8151   32.7892   51.1923 H   0  0  0  0  0  0  0  0  0  0  0  0
   66.4419   32.1052   49.6542 H   0  0  0  0  0  0  0  0  0  0  0  0
   65.5995   33.6917   49.6542 H   0  0  0  0  0  0  0  0  0  0  0  0
  1  2  1  0
  2  3  1  0
  3  4  2  0
  3  5  1  0
  5  6  1  0
  6  7  2  0
  7  8  1  0
  7  9  1  0
  9 10  1  0
  9 11  2  0
 11 12  1  0
 12 13  1  0
 12 14  1  0
 14 15  2  0
 14 16  2  0
 14 17  1  0
 17 18  2  0
 18 19  1  0
 18 20  1  0
 20 21  1  0
 20 22  2  0
 22 23  1  0
 22 24  1  0
 24 25  1  0
 24 26  2  0
 26 27  1  0
 11 28  1  0
 28 29  1  0
 28 30  2  0
 30 31  1  0
  2 32  2  0
 32 33  1  0
 32 34  1  0
 34 35  2  0
 35 36  1  0
 35 37  1  0
 37 38  1  0
 37 39  2  0
 39 40  1  0
 39 41  1  0
 41 42  1  0
 41 43  2  0
 43 44  1  0
 44 45  1  0
 45 46  1  0
 45 47  1  0
 45 48  1  0
 30  6  1  0
 43 34  1  0
 26 17  1  0
M  CHG  1   5  -1
M  END
>  <UniqueID>  (18) 
16

>  <SMILES>  (18) 
COc1ccccc1/C=C/C(=O)[N-]c1ccc(NS(=O)(=O)c2ccc(F)cc2)cc1

>  <Energy>  (18) 
58.463988339970385

>  <Genealogy>  (18) 
COc1ccccc1C=CC(=O)[N-]c1ccc(NS(=O)(=O)c2ccc(F)cc2)cc1 (protonated)
COc1ccccc1/C=C/C(=O)[N-]c1ccc(NS(=O)(=O)c2ccc(F)cc2)cc1 (cis-trans isomerization)
COc1ccccc1/C=C/C(=O)[N-]c1ccc(NS(=O)(=O)c2ccc(F)cc2)cc1 (3D coordinates assigned)
COc1ccccc1/C=C/C(=O)[N-]c1ccc(NS(=O)(=O)c2ccc(F)cc2)cc1 (optimized conformer: 58.463988339970385 kcal/mol)

>  <smiles>  (18) 
COc1ccccc1C=CC(=O)Nc1ccc(NS(=O)(=O)c2ccc(F)cc2)cc1

>  <score_type>  (18) 
oracle

>  <origin>  (18) 
adg

>  <m_score__min__energy>  (18) 
-11.140000000000001

>  <m_primary>  (18) 
energy

$$$$
18:0
     RDKit          3D

 44 46  0  0  0  0  0  0  0  0999 V2000
   57.7070   23.3910   46.3440 C   0  0  0  0  0  0  0  0  0  0  0  0
   57.3140   25.1060   46.6020 S   0  0  0  0  0  0  0  0  0  0  0  0
   58.2350   25.6840   47.6400 O   0  0  0  0  0  0  0  0  0  0  0  0
   55.8980   25.2290   47.0910 O   0  0  0  0  0  0  0  0  0  0  0  0
   57.5020   25.9830   45.0860 C   0  0  0  0  0  0  0  0  0  0  0  0
   57.6700   25.2800   43.8860 C   0  0  0  0  0  0  0  0  0  0  0  0
   57.7940   25.9730   42.6790 C   0  0  0  0  0  0  0  0  0  0  0  0
   57.7560   27.3700   42.6650 C   0  0  0  0  0  0  0  0  0  0  0  0
   57.6030   28.0880   43.8650 C   0  0  0  0  0  0  0  0  0  0  0  0
   57.5310   29.5250   43.8760 N   0  0  0  0  0  0  0  0  0  0  0  0
   56.4720   30.2760   44.4850 C   0  0  0  0  0  0  0  0  0  0  0  0
   55.4080   29.7030   44.8430 O   0  0  0  0  0  0  0  0  0  0  0  0
   56.6010   31.6980   44.5950 N   0  0  0  0  0  0  0  0  0  0  0  0
   57.5840   32.4080   45.3640 C   0  0  0  0  0  0  0  0  0  0  0  0
   57.5120   33.7990   45.5640 C   0  0  0  0  0  0  0  0  0  0  0  0
   58.4770   34.4490   46.3390 C   0  0  0  0  0  0  0  0  0  0  0  0
   59.5240   33.7270   46.9230 C   0  0  0  0  0  0  0  0  0  0  0  0
   60.4640   34.4160   47.7020 O   0  0  0  0  0  0  0  0  0  0  0  0
   61.7300   33.9320   48.0660 C   0  0  0  0  0  0  0  0  0  0  0  0
   62.6740   33.5220   47.1050 C   0  0  0  0  0  0  0  0  0  0  0  0
   63.9320   33.0610   47.5070 C   0  0  0  0  0  0  0  0  0  0  0  0
   64.2610   33.0190   48.8650 C   0  0  0  0  0  0  0  0  0  0  0  0
   63.3350   33.4420   49.8220 C   0  0  0  0  0  0  0  0  0  0  0  0
   62.0760   33.9030   49.4220 C   0  0  0  0  0  0  0  0  0  0  0  0
   59.5710   32.3320   46.7580 C   0  0  0  0  0  0  0  0  0  0  0  0
   58.6060   31.6810   45.9850 C   0  0  0  0  0  0  0  0  0  0  0  0
   57.4550   27.3830   45.0690 C   0  0  0  0  0  0  0  0  0  0  0  0
   57.8216   22.8907   47.3169 H   0  0  0  0  0  0  0  0  0  0  0  0
   56.8958   22.9101   45.7777 H   0  0  0  0  0  0  0  0  0  0  0  0
   58.6467   23.3113   45.7777 H   0  0  0  0  0  0  0  0  0  0  0  0
   57.7044   24.1806   43.8939 H   0  0  0  0  0  0  0  0  0  0  0  0
   57.9218   25.4179   41.7380 H   0  0  0  0  0  0  0  0  0  0  0  0
   57.8461   27.9106   41.7113 H   0  0  0  0  0  0  0  0  0  0  0  0
   58.2510   30.0590   43.3390 H   0  0  0  0  0  0  0  0  0  0  0  0
   56.6939   34.3767   45.1091 H   0  0  0  0  0  0  0  0  0  0  0  0
   58.4129   35.5366   46.4910 H   0  0  0  0  0  0  0  0  0  0  0  0
   62.4215   33.5643   46.0352 H   0  0  0  0  0  0  0  0  0  0  0  0
   64.6629   32.7313   46.7540 H   0  0  0  0  0  0  0  0  0  0  0  0
   65.2492   32.6528   49.1803 H   0  0  0  0  0  0  0  0  0  0  0  0
   63.5959   33.4126   50.8902 H   0  0  0  0  0  0  0  0  0  0  0  0
   61.3536   34.2448   50.1779 H   0  0  0  0  0  0  0  0  0  0  0  0
   60.3708   31.7502   47.2394 H   0  0  0  0  0  0  0  0  0  0  0  0
   58.6500   30.5886   45.8636 H   0  0  0  0  0  0  0  0  0  0  0  0
   57.3007   27.9346   46.0081 H   0  0  0  0  0  0  0  0  0  0  0  0
  1  2  1  0
  2  3  2  0
  2  4  2  0
  2  5  1  0
  5  6  2  0
  6  7  1  0
  7  8  2  0
  8  9  1  0
  9 10  1  0
 10 11  1  0
 11 12  2  0
 11 13  1  0
 13 14  1  0
 14 15  2  0
 15 16  1  0
 16 17  2  0
 17 18  1  0
 18 19  1  0
 19 20  2  0
 20 21  1  0
 21 22  2  0
 22 23  1  0
 23 24  2  0
 17 25  1  0
 25 26  2  0
  9 27  2  0
 27  5  1  0
 26 14  1  0
 24 19  1  0
  1 28  1  0
  1 29  1  0
  1 30  1  0
  6 31  1  0
  7 32  1  0
  8 33  1  0
 10 34  1  0
 15 35  1  0
 16 36  1  0
 20 37  1  0
 21 38  1  0
 22 39  1  0
 23 40  1  0
 24 41  1  0
 25 42  1  0
 26 43  1  0
 27 44  1  0
M  CHG  1  13  -1
M  END
>  <UniqueID>  (19) 
17

>  <SMILES>  (19) 
CS(=O)(=O)c1cccc(NC(=O)[N-]c2ccc(Oc3ccccc3)cc2)c1

>  <Energy>  (19) 
56.944156918246904

>  <Genealogy>  (19) 
CS(=O)(=O)c1cccc(NC(=O)[N-]c2ccc(Oc3ccccc3)cc2)c1 (protonated)
CS(=O)(=O)c1cccc(NC(=O)[N-]c2ccc(Oc3ccccc3)cc2)c1 (3D coordinates assigned)
CS(=O)(=O)c1cccc(NC(=O)[N-]c2ccc(Oc3ccccc3)cc2)c1 (optimized conformer: 56.944156918246904 kcal/mol)

>  <smiles>  (19) 
CS(=O)(=O)c1cccc(NC(=O)Nc2ccc(Oc3ccccc3)cc2)c1

>  <score_type>  (19) 
oracle

>  <origin>  (19) 
adg

>  <m_score__min__energy>  (19) 
-10.890000000000001

>  <m_primary>  (19) 
energy

$$$$
19:0
     RDKit          3D

 38 40  0  0  0  0  0  0  0  0999 V2000
   57.0140   29.4690   51.7790 O   0  0  0  0  0  0  0  0  0  0  0  0
   56.2420   30.4240   52.0540 C   0  0  0  0  0  0  0  0  0  0  0  0
   56.6730   31.8290   51.7080 C   0  0  0  0  0  0  0  0  0  0  0  0
   58.0890   32.0540   52.0260 N   0  0  0  0  0  0  0  0  0  0  0  0
   58.5540   32.4820   53.2170 C   0  0  0  0  0  0  0  0  0  0  0  0
   59.9310   32.5640   53.1870 C   0  0  0  0  0  0  0  0  0  0  0  0
   60.3220   32.1810   51.9210 C   0  0  0  0  0  0  0  0  0  0  0  0
   59.1650   31.8740   51.2250 C   0  0  0  0  0  0  0  0  0  0  0  0
   59.1170   31.4600   49.8050 C   0  0  0  0  0  0  0  0  0  0  0  0
   59.1030   30.2300   49.5300 O   0  0  0  0  0  0  0  0  0  0  0  0
   59.0610   32.4490   48.7000 C   0  0  0  0  0  0  0  0  0  0  0  0
   59.6490   33.7210   48.8340 C   0  0  0  0  0  0  0  0  0  0  0  0
   59.6060   34.6360   47.7780 C   0  0  0  0  0  0  0  0  0  0  0  0
   58.9840   34.2900   46.5760 C   0  0  0  0  0  0  0  0  0  0  0  0
   58.9440   35.1790   45.5530 F   0  0  0  0  0  0  0  0  0  0  0  0
   58.4090   33.0260   46.4270 C   0  0  0  0  0  0  0  0  0  0  0  0
   58.4500   32.1070   47.4800 C   0  0  0  0  0  0  0  0  0  0  0  0
   55.0070   30.1400   52.7260 N   0  0  0  0  0  0  0  0  0  0  0  0
   53.7600   30.8120   52.5180 C   0  0  0  0  0  0  0  0  0  0  0  0
   53.4060   31.3250   51.2600 C   0  0  0  0  0  0  0  0  0  0  0  0
   52.1820   31.9790   51.0860 C   0  0  0  0  0  0  0  0  0  0  0  0
   51.2970   32.1040   52.1620 C   0  0  0  0  0  0  0  0  0  0  0  0
   50.0830   32.7590   51.9890 O   0  0  0  0  0  0  0  0  0  0  0  0
   51.6310   31.5660   53.4080 C   0  0  0  0  0  0  0  0  0  0  0  0
   52.8540   30.9100   53.5820 C   0  0  0  0  0  0  0  0  0  0  0  0
   56.5181   31.9950   50.6317 H   0  0  0  0  0  0  0  0  0  0  0  0
   56.0709   32.5302   52.3044 H   0  0  0  0  0  0  0  0  0  0  0  0
   57.9269   32.7297   54.0861 H   0  0  0  0  0  0  0  0  0  0  0  0
   60.5889   32.8744   54.0121 H   0  0  0  0  0  0  0  0  0  0  0  0
   61.3522   32.1295   51.5387 H   0  0  0  0  0  0  0  0  0  0  0  0
   60.1456   33.9968   49.7760 H   0  0  0  0  0  0  0  0  0  0  0  0
   60.0627   35.6300   47.8937 H   0  0  0  0  0  0  0  0  0  0  0  0
   57.9227   32.7528   45.4789 H   0  0  0  0  0  0  0  0  0  0  0  0
   58.0017   31.1105   47.3536 H   0  0  0  0  0  0  0  0  0  0  0  0
   54.0934   31.2122   50.4086 H   0  0  0  0  0  0  0  0  0  0  0  0
   51.9154   32.3950   50.1032 H   0  0  0  0  0  0  0  0  0  0  0  0
   50.9318   31.6585   54.2521 H   0  0  0  0  0  0  0  0  0  0  0  0
   53.1054   30.4694   54.5580 H   0  0  0  0  0  0  0  0  0  0  0  0
  1  2  2  0
  2  3  1  0
  3  4  1  0
  4  5  1  0
  5  6  2  0
  6  7  1  0
  7  8  2  0
  8  9  1  0
  9 10  2  0
  9 11  1  0
 11 12  2  0
 12 13  1  0
 13 14  2  0
 14 15  1  0
 14 16  1  0
 16 17  2  0
  2 18  1  0
 18 19  1  0
 19 20  2  0
 20 21  1  0
 21 22  2  0
 22 23  1  0
 22 24  1  0
 24 25  2  0
  8  4  1  0
 17 11  1  0
 25 19  1  0
  3 26  1  0
  3 27  1  0
  5 28  1  0
  6 29  1  0
  7 30  1  0
 12 31  1  0
 13 32  1  0
 16 33  1  0
 17 34  1  0
 20 35  1  0
 21 36  1  0
 24 37  1  0
 25 38  1  0
M  CHG  2  18  -1  23  -1
M  END
>  <UniqueID>  (20) 
18

>  <SMILES>  (20) 
O=C(Cn1cccc1C(=O)c1ccc(F)cc1)[N-]c1ccc([O-])cc1

>  <Energy>  (20) 
74.0806263563888

>  <Genealogy>  (20) 
O=C(Cn1cccc1C(=O)c1ccc(F)cc1)[N-]c1ccc([O-])cc1 (protonated)
O=C(Cn1cccc1C(=O)c1ccc(F)cc1)[N-]c1ccc([O-])cc1 (3D coordinates assigned)
O=C(Cn1cccc1C(=O)c1ccc(F)cc1)[N-]c1ccc([O-])cc1 (optimized conformer: 74.0806263563888 kcal/mol)

>  <smiles>  (20) 
O=C(Cn1cccc1C(=O)c1ccc(F)cc1)Nc1ccc(O)cc1

>  <score_type>  (20) 
oracle

>  <origin>  (20) 
adg

>  <m_score__min__energy>  (20) 
-12.27

>  <m_primary>  (20) 
energy

$$$$
20:0
     RDKit          3D

 31 32  0  0  0  0  0  0  0  0999 V2000
   56.6110   30.8650   43.2850 C   0  0  0  0  0  0  0  0  0  0  0  0
   57.4860   30.0180   44.1680 C   0  0  0  0  0  0  0  0  0  0  0  0
   58.8780   30.2080   44.1430 C   0  0  0  0  0  0  0  0  0  0  0  0
   59.7110   29.4310   44.9460 C   0  0  0  0  0  0  0  0  0  0  0  0
   59.1700   28.4590   45.7860 C   0  0  0  0  0  0  0  0  0  0  0  0
   57.7820   28.2570   45.8390 C   0  0  0  0  0  0  0  0  0  0  0  0
   57.2240   27.1760   46.7360 C   0  0  0  0  0  0  0  0  0  0  0  0
   57.5440   25.8050   46.1970 C   0  0  0  0  0  0  0  0  0  0  0  0
   58.7400   25.4050   46.2450 O   0  0  0  0  0  0  0  0  0  0  0  0
   56.4900   24.8810   45.6990 C   0  0  0  0  0  0  0  0  0  0  0  0
   56.8120   23.5710   45.2960 C   0  0  0  0  0  0  0  0  0  0  0  0
   55.8150   22.7010   44.8430 C   0  0  0  0  0  0  0  0  0  0  0  0
   54.4870   23.1240   44.7880 C   0  0  0  0  0  0  0  0  0  0  0  0
   54.1510   24.4180   45.1880 C   0  0  0  0  0  0  0  0  0  0  0  0
   55.1400   25.2970   45.6420 C   0  0  0  0  0  0  0  0  0  0  0  0
   54.7720   26.5850   46.0180 O   0  0  0  0  0  0  0  0  0  0  0  0
   56.9330   29.0310   45.0190 C   0  0  0  0  0  0  0  0  0  0  0  0
   55.5550   28.8060   45.0650 O   0  0  0  0  0  0  0  0  0  0  0  0
   55.9603   31.4949   43.9094 H   0  0  0  0  0  0  0  0  0  0  0  0
   57.2411   31.5051   42.6500 H   0  0  0  0  0  0  0  0  0  0  0  0
   55.9917   30.2144   42.6500 H   0  0  0  0  0  0  0  0  0  0  0  0
   59.3131   30.9750   43.4854 H   0  0  0  0  0  0  0  0  0  0  0  0
   60.7997   29.5854   44.9168 H   0  0  0  0  0  0  0  0  0  0  0  0
   59.8354   27.8460   46.4117 H   0  0  0  0  0  0  0  0  0  0  0  0
   57.6634   27.2792   47.7391 H   0  0  0  0  0  0  0  0  0  0  0  0
   56.1306   27.2879   46.7795 H   0  0  0  0  0  0  0  0  0  0  0  0
   57.8566   23.2288   45.3378 H   0  0  0  0  0  0  0  0  0  0  0  0
   56.0789   21.6803   44.5292 H   0  0  0  0  0  0  0  0  0  0  0  0
   53.7052   22.4382   44.4296 H   0  0  0  0  0  0  0  0  0  0  0  0
   53.1027   24.7486   45.1461 H   0  0  0  0  0  0  0  0  0  0  0  0
   55.1440   27.8860   45.1480 H   0  0  0  0  0  0  0  0  0  0  0  0
  1  2  1  0
  2  3  2  0
  3  4  1  0
  4  5  2  0
  5  6  1  0
  6  7  1  0
  7  8  1  0
  8  9  2  0
  8 10  1  0
 10 11  2  0
 11 12  1  0
 12 13  2  0
 13 14  1  0
 14 15  2  0
 15 16  1  0
  6 17  2  0
 17 18  1  0
 17  2  1  0
 15 10  1  0
  1 19  1  0
  1 20  1  0
  1 21  1  0
  3 22  1  0
  4 23  1  0
  5 24  1  0
  7 25  1  0
  7 26  1  0
 11 27  1  0
 12 28  1  0
 13 29  1  0
 14 30  1  0
 18 31  1  0
M  CHG  1  16  -1
M  END
>  <UniqueID>  (21) 
19

>  <SMILES>  (21) 
Cc1cccc(CC(=O)c2ccccc2[O-])c1O

>  <Energy>  (21) 
37.079231369794535

>  <Genealogy>  (21) 
Cc1cccc(CC(=O)c2ccccc2[O-])c1O (protonated)
Cc1cccc(CC(=O)c2ccccc2[O-])c1O (3D coordinates assigned)
Cc1cccc(CC(=O)c2ccccc2[O-])c1O (optimized conformer: 37.079231369794535 kcal/mol)

>  <smiles>  (21) 
Cc1cccc(CC(=O)c2ccccc2O)c1O

>  <score_type>  (21) 
oracle

>  <origin>  (21) 
adg

>  <m_score__min__energy>  (21) 
-11.210000000000001

>  <m_primary>  (21) 
energy

$$$$
21:0
     RDKit          3D

 32 34  0  0  0  0  0  0  0  0999 V2000
   61.9010   30.3380   48.6430 O   0  0  0  0  0  0  0  0  0  0  0  0
   61.7740   31.1600   47.6960 C   0  0  0  0  0  0  0  0  0  0  0  0
   62.5350   32.3740   47.6840 N   0  0  0  0  0  0  0  0  0  0  0  0
   63.1540   33.0060   48.8160 C   0  0  0  0  0  0  0  0  0  0  0  0
   64.4940   32.7490   49.1620 C   0  0  0  0  0  0  0  0  0  0  0  0
   65.0630   33.3600   50.2820 C   0  0  0  0  0  0  0  0  0  0  0  0
   64.3010   34.2230   51.0750 C   0  0  0  0  0  0  0  0  0  0  0  0
   65.0180   34.9870   52.4820 Cl  0  0  0  0  0  0  0  0  0  0  0  0
   62.9630   34.4660   50.7520 C   0  0  0  0  0  0  0  0  0  0  0  0
   62.3860   33.8550   49.6320 C   0  0  0  0  0  0  0  0  0  0  0  0
   60.6980   34.1790   49.2580 Cl  0  0  0  0  0  0  0  0  0  0  0  0
   60.9390   30.8500   46.5720 N   0  0  0  0  0  0  0  0  0  0  0  0
   59.9950   29.7660   46.5410 C   0  0  0  0  0  0  0  0  0  0  0  0
   60.2680   28.5400   47.1690 C   0  0  0  0  0  0  0  0  0  0  0  0
   59.3290   27.5060   47.1460 C   0  0  0  0  0  0  0  0  0  0  0  0
   58.0890   27.6800   46.5070 C   0  0  0  0  0  0  0  0  0  0  0  0
   57.1210   26.6580   46.4650 C   0  0  0  0  0  0  0  0  0  0  0  0
   57.3890   25.0760   47.2020 Cl  0  0  0  0  0  0  0  0  0  0  0  0
   55.9060   26.9090   45.8140 C   0  0  0  0  0  0  0  0  0  0  0  0
   54.9280   25.9240   45.7540 O   0  0  0  0  0  0  0  0  0  0  0  0
   55.6710   28.0880   45.2510 O   0  0  0  0  0  0  0  0  0  0  0  0
   56.5510   29.0840   45.2620 C   0  0  0  0  0  0  0  0  0  0  0  0
   56.2470   30.1720   44.7020 O   0  0  0  0  0  0  0  0  0  0  0  0
   57.7990   28.9210   45.8920 C   0  0  0  0  0  0  0  0  0  0  0  0
   58.7520   29.9570   45.9220 C   0  0  0  0  0  0  0  0  0  0  0  0
   65.0961   32.0636   48.5474 H   0  0  0  0  0  0  0  0  0  0  0  0
   66.1136   33.1615   50.5407 H   0  0  0  0  0  0  0  0  0  0  0  0
   62.3612   35.1396   51.3798 H   0  0  0  0  0  0  0  0  0  0  0  0
   61.0850   31.4050   45.6980 H   0  0  0  0  0  0  0  0  0  0  0  0
   61.2292   28.3927   47.6833 H   0  0  0  0  0  0  0  0  0  0  0  0
   59.5619   26.5472   47.6322 H   0  0  0  0  0  0  0  0  0  0  0  0
   58.5189   30.9254   45.4553 H   0  0  0  0  0  0  0  0  0  0  0  0
  1  2  2  0
  2  3  1  0
  3  4  1  0
  4  5  2  0
  5  6  1  0
  6  7  2  0
  7  8  1  0
  7  9  1  0
  9 10  2  0
 10 11  1  0
  2 12  1  0
 12 13  1  0
 13 14  2  0
 14 15  1  0
 15 16  2  0
 16 17  1  0
 17 18  1  0
 17 19  2  0
 19 20  1  0
 19 21  1  0
 21 22  1  0
 22 23  2  0
 22 24  1  0
 24 25  2  0
 10  4  1  0
 25 13  1  0
 24 16  1  0
  5 26  1  0
  6 27  1  0
  9 28  1  0
 12 29  1  0
 14 30  1  0
 15 31  1  0
 25 32  1  0
M  CHG  2   3  -1  20  -1
M  END
>  <UniqueID>  (22) 
20

>  <SMILES>  (22) 
O=C([N-]c1ccc(Cl)cc1Cl)Nc1ccc2c(Cl)c([O-])oc(=O)c2c1

>  <Energy>  (22) 
50.19003688071602

>  <Genealogy>  (22) 
O=C([N-]c1ccc(Cl)cc1Cl)Nc1ccc2c(Cl)c([O-])oc(=O)c2c1 (protonated)
O=C([N-]c1ccc(Cl)cc1Cl)Nc1ccc2c(Cl)c([O-])oc(=O)c2c1 (3D coordinates assigned)
O=C([N-]c1ccc(Cl)cc1Cl)Nc1ccc2c(Cl)c([O-])oc(=O)c2c1 (optimized conformer: 50.19003688071602 kcal/mol)

>  <smiles>  (22) 
O=C(Nc1ccc2c(Cl)c(O)oc(=O)c2c1)Nc1ccc(Cl)cc1Cl

>  <score_type>  (22) 
oracle

>  <origin>  (22) 
adg

>  <m_score__min__energy>  (22) 
-11.42

>  <m_primary>  (22) 
energy

$$$$
22:0
     RDKit          3D

 60 63  0  0  0  0  0  0  0  0999 V2000
   62.4540   31.6530   53.4230 C   0  0  0  0  0  0  0  0  0  0  0  0
   62.9130   32.7980   52.7120 O   0  0  0  0  0  0  0  0  0  0  0  0
   62.5840   33.0880   51.3770 C   0  0  0  0  0  0  0  0  0  0  0  0
   63.5240   32.9640   50.3360 C   0  0  0  0  0  0  0  0  0  0  0  0
   63.1650   33.2520   49.0110 C   0  0  0  0  0  0  0  0  0  0  0  0
   64.0820   33.1190   48.0070 N   0  0  0  0  0  0  0  0  0  0  0  0
   63.7640   33.3910   46.7150 C   0  0  0  0  0  0  0  0  0  0  0  0
   62.4760   33.8070   46.3790 C   0  0  0  0  0  0  0  0  0  0  0  0
   61.5000   33.9380   47.3770 C   0  0  0  0  0  0  0  0  0  0  0  0
   60.2010   34.3660   47.0590 O   0  0  0  0  0  0  0  0  0  0  0  0
   59.2550   33.6010   46.3580 C   0  0  0  0  0  0  0  0  0  0  0  0
   58.8780   33.9040   45.0420 C   0  0  0  0  0  0  0  0  0  0  0  0
   57.9380   33.1140   44.3800 C   0  0  0  0  0  0  0  0  0  0  0  0
   57.3850   31.9940   45.0380 C   0  0  0  0  0  0  0  0  0  0  0  0
   56.4780   31.2320   44.4980 N   0  0  0  0  0  0  0  0  0  0  0  0
   56.2730   29.8140   44.6470 C   0  0  0  0  0  0  0  0  0  0  0  0
   55.1270   29.3190   44.4680 O   0  0  0  0  0  0  0  0  0  0  0  0
   57.4330   28.9300   44.9570 C   0  0  0  0  0  0  0  0  0  0  0  0
   58.7370   29.4040   44.7100 C   0  0  0  0  0  0  0  0  0  0  0  0
   59.8550   28.6360   45.0430 C   0  0  0  0  0  0  0  0  0  0  0  0
   59.6920   27.3820   45.6270 C   0  0  0  0  0  0  0  0  0  0  0  0
   58.4110   26.8860   45.8720 C   0  0  0  0  0  0  0  0  0  0  0  0
   57.2750   27.6430   45.5420 C   0  0  0  0  0  0  0  0  0  0  0  0
   55.9750   27.0690   45.7390 N   0  0  0  0  0  0  0  0  0  0  0  0
   55.7500   25.6490   45.7180 C   0  0  0  0  0  0  0  0  0  0  0  0
   56.7200   24.8620   45.5480 O   0  0  0  0  0  0  0  0  0  0  0  0
   54.4450   25.0940   45.9070 N   0  0  0  0  0  0  0  0  0  0  0  0
   53.9970   23.4510   45.5990 S   0  0  0  0  0  0  0  0  0  0  0  0
   53.9100   22.5460   47.1260 C   0  0  0  0  0  0  0  0  0  0  0  0
   52.6420   23.4340   44.9490 O   0  0  0  0  0  0  0  0  0  0  0  0
   54.9850   22.8110   44.6700 O   0  0  0  0  0  0  0  0  0  0  0  0
   57.7770   31.7250   46.3140 N   0  0  0  0  0  0  0  0  0  0  0  0
   58.6940   32.4790   46.9730 C   0  0  0  0  0  0  0  0  0  0  0  0
   61.8500   33.6740   48.7160 C   0  0  0  0  0  0  0  0  0  0  0  0
   60.9130   33.8010   49.7570 C   0  0  0  0  0  0  0  0  0  0  0  0
   61.2760   33.5090   51.0870 C   0  0  0  0  0  0  0  0  0  0  0  0
   60.3640   33.6230   52.1500 O   0  0  0  0  0  0  0  0  0  0  0  0
   58.9550   33.7540   51.9970 C   0  0  0  0  0  0  0  0  0  0  0  0
   62.5285   31.8388   54.5046 H   0  0  0  0  0  0  0  0  0  0  0  0
   61.4058   31.4520   53.1568 H   0  0  0  0  0  0  0  0  0  0  0  0
   63.0731   30.7836   53.1568 H   0  0  0  0  0  0  0  0  0  0  0  0
   64.5496   32.6382   50.5640 H   0  0  0  0  0  0  0  0  0  0  0  0
   65.0540   32.8030   48.2200 H   0  0  0  0  0  0  0  0  0  0  0  0
   64.5263   33.2826   45.9294 H   0  0  0  0  0  0  0  0  0  0  0  0
   62.2260   34.0322   45.3317 H   0  0  0  0  0  0  0  0  0  0  0  0
   59.3254   34.7683   44.5294 H   0  0  0  0  0  0  0  0  0  0  0  0
   57.6301   33.3617   43.3534 H   0  0  0  0  0  0  0  0  0  0  0  0
   58.8762   30.3927   44.2485 H   0  0  0  0  0  0  0  0  0  0  0  0
   60.8656   29.0220   44.8438 H   0  0  0  0  0  0  0  0  0  0  0  0
   60.5741   26.7821   45.8953 H   0  0  0  0  0  0  0  0  0  0  0  0
   58.2897   25.8924   46.3281 H   0  0  0  0  0  0  0  0  0  0  0  0
   55.1860   27.7200   45.9340 H   0  0  0  0  0  0  0  0  0  0  0  0
   53.9773   23.2463   47.9716 H   0  0  0  0  0  0  0  0  0  0  0  0
   52.9554   22.0017   47.1758 H   0  0  0  0  0  0  0  0  0  0  0  0
   54.7434   21.8298   47.1758 H   0  0  0  0  0  0  0  0  0  0  0  0
   58.9962   32.2055   47.9947 H   0  0  0  0  0  0  0  0  0  0  0  0
   59.8882   34.1310   49.5312 H   0  0  0  0  0  0  0  0  0  0  0  0
   58.4810   33.7981   52.9887 H   0  0  0  0  0  0  0  0  0  0  0  0
   58.7307   34.6769   51.4420 H   0  0  0  0  0  0  0  0  0  0  0  0
   58.5644   32.8883   51.4420 H   0  0  0  0  0  0  0  0  0  0  0  0
  1  2  1  0
  2  3  1  0
  3  4  2  0
  4  5  1  0
  5  6  2  0
  6  7  1  0
  7  8  2  0
  8  9  1  0
  9 10  1  0
 10 11  1  0
 11 12  1  0
 12 13  2  0
 13 14  1  0
 14 15  2  3
 15 16  1  0
 16 17  2  0
 16 18  1  0
 18 19  2  0
 19 20  1  0
 20 21  2  0
 21 22  1  0
 22 23  2  0
 23 24  1  0
 24 25  1  0
 25 26  2  0
 25 27  1  0
 27 28  1  0
 28 29  1  0
 28 30  2  0
 28 31  2  0
 14 32  1  0
 32 33  1  0
  9 34  2  0
 34 35  1  0
 35 36  2  0
 36 37  1  0
 37 38  1  0
 36  3  1  0
 34  5  1  0
 33 11  2  0
 23 18  1  0
  1 39  1  0
  1 40  1  0
  1 41  1  0
  4 42  1  0
  6 43  1  0
  7 44  1  0
  8 45  1  0
 12 46  1  0
 13 47  1  0
 19 48  1  0
 20 49  1  0
 21 50  1  0
 22 51  1  0
 24 52  1  0
 29 53  1  0
 29 54  1  0
 29 55  1  0
 33 56  1  0
 35 57  1  0
 38 58  1  0
 38 59  1  0
 38 60  1  0
M  CHG  3   6   1  27  -1  32  -1
M  END
>  <UniqueID>  (23) 
21

>  <SMILES>  (23) 
COc1cc2[nH+]ccc(Oc3ccc(=NC(=O)c4ccccc4NC(=O)[N-]S(C)(=O)=O)[n-]c3)c2cc1OC

>  <Energy>  (23) 
88.62133298780499

>  <Genealogy>  (23) 
COc1cc2[nH+]ccc(Oc3ccc(=NC(=O)c4ccccc4NC(=O)[N-]S(C)(=O)=O)[n-]c3)c2cc1OC (protonated)
COc1cc2[nH+]ccc(Oc3ccc(=NC(=O)c4ccccc4NC(=O)[N-]S(C)(=O)=O)[n-]c3)c2cc1OC (3D coordinates assigned)
COc1cc2[nH+]ccc(Oc3ccc(=NC(=O)c4ccccc4NC(=O)[N-]S(C)(=O)=O)[n-]c3)c2cc1OC (optimized conformer: 88.62133298780499 kcal/mol)

>  <smiles>  (23) 
COc1cc2nccc(Oc3ccc(=NC(=O)c4ccccc4NC(=O)NS(C)(=O)=O)[nH]c3)c2cc1OC

>  <score_type>  (23) 
oracle

>  <origin>  (23) 
adg

>  <m_score__min__energy>  (23) 
-13.19

>  <m_primary>  (23) 
energy

$$$$
23:0
     RDKit          3D

 56 59  0  0  0  0  0  0  0  0999 V2000
   60.2060   26.7290   48.4670 C   0  0  0  0  0  0  0  0  0  0  0  0
   59.1560   26.9130   47.6550 C   0  0  0  0  0  0  0  0  0  0  0  0
   58.2540   25.7710   47.3910 C   0  0  0  0  0  0  0  0  0  0  0  0
   57.2200   25.8820   46.5430 C   0  0  0  0  0  0  0  0  0  0  0  0
   56.3290   24.7230   46.2940 C   0  0  0  0  0  0  0  0  0  0  0  0
   56.8300   23.4120   46.3650 C   0  0  0  0  0  0  0  0  0  0  0  0
   55.9920   22.3250   46.1130 C   0  0  0  0  0  0  0  0  0  0  0  0
   54.6530   22.5540   45.7890 C   0  0  0  0  0  0  0  0  0  0  0  0
   53.8840   21.5860   45.5550 O   0  0  0  0  0  0  0  0  0  0  0  0
   54.1780   23.8260   45.7290 N   0  0  0  0  0  0  0  0  0  0  0  0
   54.9700   24.9060   45.9720 C   0  0  0  0  0  0  0  0  0  0  0  0
   54.4190   26.1840   45.9200 O   0  0  0  0  0  0  0  0  0  0  0  0
   56.9740   27.1230   45.8630 N   0  0  0  0  0  0  0  0  0  0  0  0
   57.7850   28.2780   46.1010 C   0  0  0  0  0  0  0  0  0  0  0  0
   57.4080   29.6870   45.3440 S   0  0  0  0  0  0  0  0  0  0  0  0
   58.8950   28.1870   47.0190 N   0  0  0  0  0  0  0  0  0  0  0  0
   59.6990   29.3450   47.3040 C   0  0  0  0  0  0  0  0  0  0  0  0
   60.8160   29.6400   46.5130 C   0  0  0  0  0  0  0  0  0  0  0  0
   61.6000   30.7630   46.7920 C   0  0  0  0  0  0  0  0  0  0  0  0
   61.2750   31.6060   47.8750 C   0  0  0  0  0  0  0  0  0  0  0  0
   62.0260   32.7450   48.2030 O   0  0  0  0  0  0  0  0  0  0  0  0
   62.0280   33.9740   47.4770 C   0  0  0  0  0  0  0  0  0  0  0  0
   61.1260   33.8710   46.2420 C   0  0  0  0  0  0  0  0  0  0  0  0
   59.9260   34.7210   46.4120 N   0  0  0  0  0  0  0  0  0  0  0  0
   59.2480   34.9930   45.1280 C   0  0  0  0  0  0  0  0  0  0  0  0
   58.5900   33.7320   44.5360 C   0  0  0  0  0  0  0  0  0  0  0  0
   57.9800   32.8160   45.6110 C   0  0  0  0  0  0  0  0  0  0  0  0
   57.7090   33.5720   46.9110 C   0  0  0  0  0  0  0  0  0  0  0  0
   59.0010   34.2130   47.4620 C   0  0  0  0  0  0  0  0  0  0  0  0
   60.1520   31.3060   48.6580 C   0  0  0  0  0  0  0  0  0  0  0  0
   59.3690   30.1830   48.3770 C   0  0  0  0  0  0  0  0  0  0  0  0
   60.8908   27.5635   48.6783 H   0  0  0  0  0  0  0  0  0  0  0  0
   60.3831   25.7434   48.9223 H   0  0  0  0  0  0  0  0  0  0  0  0
   58.4342   24.8124   47.8995 H   0  0  0  0  0  0  0  0  0  0  0  0
   57.8864   23.2420   46.6201 H   0  0  0  0  0  0  0  0  0  0  0  0
   56.3822   21.2981   46.1690 H   0  0  0  0  0  0  0  0  0  0  0  0
   54.2280   26.7040   46.7680 H   0  0  0  0  0  0  0  0  0  0  0  0
   56.2050   27.1800   45.1580 H   0  0  0  0  0  0  0  0  0  0  0  0
   61.0776   28.9853   45.6686 H   0  0  0  0  0  0  0  0  0  0  0  0
   62.4742   30.9903   46.1642 H   0  0  0  0  0  0  0  0  0  0  0  0
   61.6586   34.7796   48.1286 H   0  0  0  0  0  0  0  0  0  0  0  0
   63.0553   34.1913   47.1494 H   0  0  0  0  0  0  0  0  0  0  0  0
   61.6848   34.2048   45.3553 H   0  0  0  0  0  0  0  0  0  0  0  0
   60.8096   32.8251   46.1153 H   0  0  0  0  0  0  0  0  0  0  0  0
   58.4706   35.7536   45.2926 H   0  0  0  0  0  0  0  0  0  0  0  0
   60.0077   35.3432   44.4137 H   0  0  0  0  0  0  0  0  0  0  0  0
   57.7921   34.0433   43.8458 H   0  0  0  0  0  0  0  0  0  0  0  0
   59.3756   33.1598   44.0209 H   0  0  0  0  0  0  0  0  0  0  0  0
   57.0320   32.4054   45.2332 H   0  0  0  0  0  0  0  0  0  0  0  0
   58.7002   32.0127   45.8255 H   0  0  0  0  0  0  0  0  0  0  0  0
   56.9693   34.3632   46.7188 H   0  0  0  0  0  0  0  0  0  0  0  0
   57.3279   32.8587   47.6566 H   0  0  0  0  0  0  0  0  0  0  0  0
   58.7187   35.0558   48.1101 H   0  0  0  0  0  0  0  0  0  0  0  0
   59.5407   33.4216   48.0028 H   0  0  0  0  0  0  0  0  0  0  0  0
   59.8846   31.9601   49.5010 H   0  0  0  0  0  0  0  0  0  0  0  0
   58.4912   29.9565   49.0001 H   0  0  0  0  0  0  0  0  0  0  0  0
  1  2  2  0
  2  3  1  0
  3  4  2  0
  4  5  1  0
  5  6  1  0
  6  7  2  0
  7  8  1  0
  8  9  2  0
  8 10  1  0
 10 11  1  0
 11 12  1  0
  4 13  1  0
 13 14  1  0
 14 15  2  0
 14 16  1  0
 16 17  1  0
 17 18  2  0
 18 19  1  0
 19 20  2  0
 20 21  1  0
 21 22  1  0
 22 23  1  0
 23 24  1  0
 24 25  1  0
 25 26  1  0
 26 27  1  0
 27 28  1  0
 28 29  1  0
 20 30  1  0
 30 31  2  0
 16  2  1  0
 31 17  1  0
 11  5  2  0
 29 24  1  0
  1 32  1  0
  1 33  1  0
  3 34  1  0
  6 35  1  0
  7 36  1  0
 12 37  1  0
 13 38  1  0
 18 39  1  0
 19 40  1  0
 22 41  1  0
 22 42  1  0
 23 43  1  0
 23 44  1  0
 25 45  1  0
 25 46  1  0
 26 47  1  0
 26 48  1  0
 27 49  1  0
 27 50  1  0
 28 51  1  0
 28 52  1  0
 29 53  1  0
 29 54  1  0
 30 55  1  0
 31 56  1  0
M  CHG  1  10  -1
M  END
>  <UniqueID>  (24) 
22

>  <SMILES>  (24) 
C=C1C=C(c2ccc(=O)[n-]c2O)NC(=S)N1c1ccc(OCCN2CCCCC2)cc1

>  <Energy>  (24) 
78.84489841020404

>  <Genealogy>  (24) 
C=C1C=C(c2ccc(=O)[n-]c2O)NC(=S)N1c1ccc(OCCN2CCCCC2)cc1 (protonated)
C=C1C=C(c2ccc(=O)[n-]c2O)NC(=S)N1c1ccc(OCCN2CCCCC2)cc1 (3D coordinates assigned)
C=C1C=C(c2ccc(=O)[n-]c2O)NC(=S)N1c1ccc(OCCN2CCCCC2)cc1 (nonaromatic ring conformer: 78.84489841020404 kcal/mol)

>  <smiles>  (24) 
C=C1C=C(c2ccc(=O)[nH]c2O)NC(=S)N1c1ccc(OCCN2CCCCC2)cc1

>  <score_type>  (24) 
oracle

>  <origin>  (24) 
adg

>  <m_score__min__energy>  (24) 
-11.67

>  <m_primary>  (24) 
energy

$$$$
24:0
     RDKit          3D

 60 62  0  0  0  0  0  0  0  0999 V2000
   56.2350   22.0270   48.1160 C   0  0  0  0  0  0  0  0  0  0  0  0
   57.2420   22.3220   47.1520 O   0  0  0  0  0  0  0  0  0  0  0  0
   57.0440   22.3070   45.7610 C   0  0  0  0  0  0  0  0  0  0  0  0
   57.5170   21.2470   44.9580 C   0  0  0  0  0  0  0  0  0  0  0  0
   57.3160   21.2630   43.5750 C   0  0  0  0  0  0  0  0  0  0  0  0
   56.6260   22.3160   42.9790 C   0  0  0  0  0  0  0  0  0  0  0  0
   56.1490   23.3700   43.7610 C   0  0  0  0  0  0  0  0  0  0  0  0
   56.3640   23.3830   45.1500 C   0  0  0  0  0  0  0  0  0  0  0  0
   55.8370   24.5420   45.9590 C   0  0  0  0  0  0  0  0  0  0  0  0
   56.5970   25.7540   45.6640 N   0  0  0  0  0  0  0  0  0  0  0  0
   57.9290   25.9680   46.1450 C   0  0  0  0  0  0  0  0  0  0  0  0
   58.3890   25.2500   47.0750 O   0  0  0  0  0  0  0  0  0  0  0  0
   58.7870   27.0550   45.5600 C   0  0  0  0  0  0  0  0  0  0  0  0
   58.2790   28.3860   45.9330 N   0  0  0  0  0  0  0  0  0  0  0  0
   58.4600   28.8610   47.2820 C   0  0  0  0  0  0  0  0  0  0  0  0
   58.3990   30.0980   47.5320 O   0  0  0  0  0  0  0  0  0  0  0  0
   58.6570   27.9640   48.3270 O   0  0  0  0  0  0  0  0  0  0  0  0
   57.5970   29.2090   44.9550 C   0  0  0  0  0  0  0  0  0  0  0  0
   58.2590   30.3010   44.3640 C   0  0  0  0  0  0  0  0  0  0  0  0
   57.5880   31.1520   43.4740 C   0  0  0  0  0  0  0  0  0  0  0  0
   58.2760   32.3750   42.9210 C   0  0  0  0  0  0  0  0  0  0  0  0
   58.0880   33.4940   43.7930 O   0  0  0  0  0  0  0  0  0  0  0  0
   58.4700   33.5360   45.1440 C   0  0  0  0  0  0  0  0  0  0  0  0
   57.5100   33.2240   46.1130 C   0  0  0  0  0  0  0  0  0  0  0  0
   57.8480   33.2110   47.4680 C   0  0  0  0  0  0  0  0  0  0  0  0
   59.1520   33.5140   47.8690 C   0  0  0  0  0  0  0  0  0  0  0  0
   60.1280   33.8330   46.9100 C   0  0  0  0  0  0  0  0  0  0  0  0
   61.4600   34.1970   47.2980 N   0  0  0  0  0  0  0  0  0  0  0  0
   62.6550   33.5170   46.8960 C   0  0  0  0  0  0  0  0  0  0  0  0
   63.0400   32.1950   47.4830 C   0  0  0  0  0  0  0  0  0  0  0  0
   63.3770   34.0240   45.9960 O   0  0  0  0  0  0  0  0  0  0  0  0
   59.7780   33.8660   45.5530 C   0  0  0  0  0  0  0  0  0  0  0  0
   56.2630   30.8690   43.1190 C   0  0  0  0  0  0  0  0  0  0  0  0
   55.5920   29.7940   43.6990 C   0  0  0  0  0  0  0  0  0  0  0  0
   56.2410   28.9820   44.6330 C   0  0  0  0  0  0  0  0  0  0  0  0
   55.5190   27.9730   45.2590 O   0  0  0  0  0  0  0  0  0  0  0  0
   56.6492   22.1483   49.1278 H   0  0  0  0  0  0  0  0  0  0  0  0
   55.3867   22.7144   47.9822 H   0  0  0  0  0  0  0  0  0  0  0  0
   55.8917   20.9905   47.9822 H   0  0  0  0  0  0  0  0  0  0  0  0
   58.0471   20.4031   45.4236 H   0  0  0  0  0  0  0  0  0  0  0  0
   57.7040   20.4413   42.9551 H   0  0  0  0  0  0  0  0  0  0  0  0
   56.4568   22.3173   41.8921 H   0  0  0  0  0  0  0  0  0  0  0  0
   55.6005   24.1968   43.2861 H   0  0  0  0  0  0  0  0  0  0  0  0
   54.7787   24.7075   45.7089 H   0  0  0  0  0  0  0  0  0  0  0  0
   55.9394   24.3072   47.0288 H   0  0  0  0  0  0  0  0  0  0  0  0
   56.1550   26.4700   45.0470 H   0  0  0  0  0  0  0  0  0  0  0  0
   59.8147   26.9438   45.9360 H   0  0  0  0  0  0  0  0  0  0  0  0
   58.7663   26.9663   44.4638 H   0  0  0  0  0  0  0  0  0  0  0  0
   59.3160   30.4895   44.6031 H   0  0  0  0  0  0  0  0  0  0  0  0
   59.3523   32.1707   42.8213 H   0  0  0  0  0  0  0  0  0  0  0  0
   57.8423   32.6131   41.9386 H   0  0  0  0  0  0  0  0  0  0  0  0
   56.4809   32.9871   45.8051 H   0  0  0  0  0  0  0  0  0  0  0  0
   57.0861   32.9617   48.2213 H   0  0  0  0  0  0  0  0  0  0  0  0
   59.4147   33.5027   48.9371 H   0  0  0  0  0  0  0  0  0  0  0  0
   63.0206   32.2617   48.5808 H   0  0  0  0  0  0  0  0  0  0  0  0
   62.3289   31.4248   47.1498 H   0  0  0  0  0  0  0  0  0  0  0  0
   64.0535   31.9270   47.1498 H   0  0  0  0  0  0  0  0  0  0  0  0
   60.5294   34.1514   44.8020 H   0  0  0  0  0  0  0  0  0  0  0  0
   55.7490   31.4989   42.3781 H   0  0  0  0  0  0  0  0  0  0  0  0
   54.5487   29.5841   43.4208 H   0  0  0  0  0  0  0  0  0  0  0  0
  1  2  1  0
  2  3  1  0
  3  4  2  0
  4  5  1  0
  5  6  2  0
  6  7  1  0
  7  8  2  0
  8  9  1  0
  9 10  1  0
 10 11  1  0
 11 12  2  0
 11 13  1  0
 13 14  1  0
 14 15  1  0
 15 16  2  0
 15 17  1  0
 14 18  1  0
 18 19  2  0
 19 20  1  0
 20 21  1  0
 21 22  1  0
 22 23  1  0
 23 24  2  0
 24 25  1  0
 25 26  2  0
 26 27  1  0
 27 28  1  0
 28 29  1  0
 29 30  1  0
 29 31  2  0
 27 32  2  0
 20 33  2  0
 33 34  1  0
 34 35  2  0
 35 36  1  0
  8  3  1  0
 35 18  1  0
 32 23  1  0
  1 37  1  0
  1 38  1  0
  1 39  1  0
  4 40  1  0
  5 41  1  0
  6 42  1  0
  7 43  1  0
  9 44  1  0
  9 45  1  0
 10 46  1  0
 13 47  1  0
 13 48  1  0
 19 49  1  0
 21 50  1  0
 21 51  1  0
 24 52  1  0
 25 53  1  0
 26 54  1  0
 30 55  1  0
 30 56  1  0
 30 57  1  0
 32 58  1  0
 33 59  1  0
 34 60  1  0
M  CHG  3  17  -1  28  -1  36  -1
M  END
>  <UniqueID>  (25) 
23

>  <SMILES>  (25) 
COc1ccccc1CNC(=O)CN(C(=O)[O-])c1cc(COc2cccc([N-]C(C)=O)c2)ccc1[O-]

>  <Energy>  (25) 
70.27591641172998

>  <Genealogy>  (25) 
COc1ccccc1CNC(=O)CN(C(=O)[O-])c1cc(COc2cccc([N-]C(C)=O)c2)ccc1[O-] (protonated)
COc1ccccc1CNC(=O)CN(C(=O)[O-])c1cc(COc2cccc([N-]C(C)=O)c2)ccc1[O-] (3D coordinates assigned)
COc1ccccc1CNC(=O)CN(C(=O)[O-])c1cc(COc2cccc([N-]C(C)=O)c2)ccc1[O-] (optimized conformer: 70.27591641172998 kcal/mol)

>  <smiles>  (25) 
COc1ccccc1CNC(=O)CN(C(=O)O)c1cc(COc2cccc(NC(C)=O)c2)ccc1O

>  <score_type>  (25) 
oracle

>  <origin>  (25) 
adg

>  <m_score__min__energy>  (25) 
-14.289999999999999

>  <m_primary>  (25) 
energy

$$$$
25:0
     RDKit          3D

 39 41  0  0  0  0  0  0  0  0999 V2000
   54.3550   28.9150   44.5030 H   0  0  0  0  0  0  0  0  0  0  0  0
   55.1130   29.5170   44.8020 O   0  0  0  0  0  0  0  0  0  0  0  0
   56.3790   28.9980   45.0610 C   0  0  0  0  0  0  0  0  0  0  0  0
   56.5010   27.7780   45.6380 N   0  0  0  0  0  0  0  0  0  0  0  0
   57.7130   27.2320   45.9020 C   0  0  0  0  0  0  0  0  0  0  0  0
   57.7600   26.0860   46.4260 O   0  0  0  0  0  0  0  0  0  0  0  0
   58.8640   27.9180   45.6000 N   0  0  0  0  0  0  0  0  0  0  0  0
   60.1900   27.3240   45.8720 C   0  0  0  0  0  0  0  0  0  0  0  0
   60.9675   27.9993   45.4853 H   0  0  0  0  0  0  0  0  0  0  0  0
   60.2308   26.3434   45.3753 H   0  0  0  0  0  0  0  0  0  0  0  0
   60.4270   27.1040   47.3770 C   0  0  0  0  0  0  0  0  0  0  0  0
   61.3991   26.6056   47.5064 H   0  0  0  0  0  0  0  0  0  0  0  0
   59.5903   26.4942   47.7487 H   0  0  0  0  0  0  0  0  0  0  0  0
   60.4350   28.4070   48.1990 C   0  0  0  0  0  0  0  0  0  0  0  0
   60.8751   29.2074   47.5861 H   0  0  0  0  0  0  0  0  0  0  0  0
   61.0239   28.2227   49.1096 H   0  0  0  0  0  0  0  0  0  0  0  0
   59.0340   28.8370   48.6330 C   0  0  0  0  0  0  0  0  0  0  0  0
   58.9794   28.8537   49.7315 H   0  0  0  0  0  0  0  0  0  0  0  0
   58.8207   29.8420   48.2399 H   0  0  0  0  0  0  0  0  0  0  0  0
   58.2936   28.1247   48.2399 H   0  0  0  0  0  0  0  0  0  0  0  0
   58.7790   29.1680   45.0360 C   0  0  0  0  0  0  0  0  0  0  0  0
   59.8270   29.8370   44.8140 O   0  0  0  0  0  0  0  0  0  0  0  0
   57.5250   29.7210   44.7180 C   0  0  0  0  0  0  0  0  0  0  0  0
   57.3930   31.0500   44.0860 C   0  0  0  0  0  0  0  0  0  0  0  0
   56.7337   31.1520   43.2114 H   0  0  0  0  0  0  0  0  0  0  0  0
   58.0390   32.1360   44.5290 C   0  0  0  0  0  0  0  0  0  0  0  0
   58.4810   33.3210   43.7700 C   0  0  0  0  0  0  0  0  0  0  0  0
   58.3607   33.4358   42.6826 H   0  0  0  0  0  0  0  0  0  0  0  0
   59.0300   34.2140   44.5400 N   0  0  0  0  0  0  0  0  0  0  0  0
   58.9880   33.6860   45.8620 C   0  0  0  0  0  0  0  0  0  0  0  0
   59.4620   34.3000   47.0210 C   0  0  0  0  0  0  0  0  0  0  0  0
   59.9331   35.2933   46.9822 H   0  0  0  0  0  0  0  0  0  0  0  0
   59.3210   33.6140   48.2410 C   0  0  0  0  0  0  0  0  0  0  0  0
   59.6854   34.0729   49.1719 H   0  0  0  0  0  0  0  0  0  0  0  0
   58.7140   32.3390   48.2770 C   0  0  0  0  0  0  0  0  0  0  0  0
   58.6083   31.8102   49.2357 H   0  0  0  0  0  0  0  0  0  0  0  0
   58.2440   31.7420   47.0930 C   0  0  0  0  0  0  0  0  0  0  0  0
   57.7700   30.7495   47.1074 H   0  0  0  0  0  0  0  0  0  0  0  0
   58.3980   32.4480   45.9010 C   0  0  0  0  0  0  0  0  0  0  0  0
  1  2  1  0
  2  3  1  0
  3  4  1  0
  4  5  1  0
  5  6  2  0
  5  7  1  0
  7  8  1  0
  8  9  1  0
  8 10  1  0
  8 11  1  0
 11 12  1  0
 11 13  1  0
 11 14  1  0
 14 15  1  0
 14 16  1  0
 14 17  1  0
 17 18  1  0
 17 19  1  0
 17 20  1  0
  7 21  1  0
 21 22  2  0
 21 23  1  0
 23 24  1  0
 24 25  1  0
 24 26  2  0
 26 27  1  0
 27 28  1  0
 27 29  2  0
 29 30  1  0
 30 31  2  0
 31 32  1  0
 31 33  1  0
 33 34  1  0
 33 35  2  0
 35 36  1  0
 35 37  1  0
 37 38  1  0
 37 39  2  0
 23  3  2  0
 39 26  1  0
 39 30  1  0
M  CHG  1   4  -1
M  END
>  <UniqueID>  (26) 
24

>  <SMILES>  (26) 
CCCCn1c(=O)[n-]c(O)c(/C=C2\C=Nc3ccccc32)c1=O

>  <Energy>  (26) 
77.61329439510597

>  <Genealogy>  (26) 
CCCCn1c(=O)[n-]c(O)c(C=C2C=Nc3ccccc32)c1=O (protonated)
CCCCn1c(=O)[n-]c(O)c(/C=C2\C=Nc3ccccc32)c1=O (cis-trans isomerization)
CCCCn1c(=O)[n-]c(O)c(/C=C2\C=Nc3ccccc32)c1=O (3D coordinates assigned)
CCCCn1c(=O)[n-]c(O)c(/C=C2\C=Nc3ccccc32)c1=O (nonaromatic ring conformer: 77.61329439510597 kcal/mol)

>  <smiles>  (26) 
CCCCn1c(=O)[nH]c(O)c(C=C2C=Nc3ccccc32)c1=O

>  <score_type>  (26) 
oracle

>  <origin>  (26) 
adg

>  <m_score__min__energy>  (26) 
-10.19

>  <m_primary>  (26) 
energy

$$$$
26:0
     RDKit          3D

 43 45  0  0  0  0  0  0  0  0999 V2000
   50.4531   21.4426   45.5847 H   0  0  0  0  0  0  0  0  0  0  0  0
   51.1860   22.2390   45.3880 C   0  0  0  0  0  0  0  0  0  0  0  0
   52.5060   22.0240   45.6340 N   0  0  0  0  0  0  0  0  0  0  0  0
   53.4530   22.9760   45.4090 C   0  0  0  0  0  0  0  0  0  0  0  0
   54.6960   22.6880   45.6720 N   0  0  0  0  0  0  0  0  0  0  0  0
   56.0250   22.7270   44.5550 S   0  0  0  0  0  0  0  0  0  0  0  0
   57.0910   21.7590   44.9880 O   0  0  0  0  0  0  0  0  0  0  0  0
   55.5500   22.3610   43.1760 O   0  0  0  0  0  0  0  0  0  0  0  0
   56.6910   24.3570   44.5300 C   0  0  0  0  0  0  0  0  0  0  0  0
   56.6230   25.1630   45.6730 C   0  0  0  0  0  0  0  0  0  0  0  0
   56.1438   24.7799   46.5860 H   0  0  0  0  0  0  0  0  0  0  0  0
   57.1620   26.4530   45.6580 C   0  0  0  0  0  0  0  0  0  0  0  0
   57.0899   27.0856   46.5550 H   0  0  0  0  0  0  0  0  0  0  0  0
   57.7940   26.9460   44.5070 C   0  0  0  0  0  0  0  0  0  0  0  0
   58.3220   28.2840   44.5110 N   0  0  0  0  0  0  0  0  0  0  0  0
   59.3020   28.4260   44.1800 H   0  0  0  0  0  0  0  0  0  0  0  0
   57.5500   29.4540   44.8270 C   0  0  0  0  0  0  0  0  0  0  0  0
   56.2940   29.3830   44.9060 O   0  0  0  0  0  0  0  0  0  0  0  0
   58.2200   30.7080   45.0240 N   0  0  0  0  0  0  0  0  0  0  0  0
   59.2640   30.7120   44.9880 H   0  0  0  0  0  0  0  0  0  0  0  0
   57.5360   31.9580   45.2200 C   0  0  0  0  0  0  0  0  0  0  0  0
   56.3080   32.0550   44.9430 O   0  0  0  0  0  0  0  0  0  0  0  0
   58.2640   33.1540   45.6990 C   0  0  0  0  0  0  0  0  0  0  0  0
   58.6740   34.1340   44.7750 C   0  0  0  0  0  0  0  0  0  0  0  0
   58.4489   34.0047   43.7061 H   0  0  0  0  0  0  0  0  0  0  0  0
   59.3650   35.2700   45.2060 C   0  0  0  0  0  0  0  0  0  0  0  0
   59.6879   36.0265   44.4756 H   0  0  0  0  0  0  0  0  0  0  0  0
   59.6460   35.4460   46.5620 C   0  0  0  0  0  0  0  0  0  0  0  0
   60.1954   36.3376   46.8985 H   0  0  0  0  0  0  0  0  0  0  0  0
   59.2300   34.4910   47.4910 C   0  0  0  0  0  0  0  0  0  0  0  0
   59.4468   34.6355   48.5597 H   0  0  0  0  0  0  0  0  0  0  0  0
   58.5380   33.3500   47.0680 C   0  0  0  0  0  0  0  0  0  0  0  0
   58.0980   32.4700   48.0040 F   0  0  0  0  0  0  0  0  0  0  0  0
   57.8470   26.1390   43.3560 C   0  0  0  0  0  0  0  0  0  0  0  0
   58.3165   26.5241   42.4388 H   0  0  0  0  0  0  0  0  0  0  0  0
   57.3060   24.8500   43.3720 C   0  0  0  0  0  0  0  0  0  0  0  0
   57.3635   24.2205   42.4718 H   0  0  0  0  0  0  0  0  0  0  0  0
   53.0550   24.2310   44.9020 C   0  0  0  0  0  0  0  0  0  0  0  0
   53.8024   25.0153   44.7117 H   0  0  0  0  0  0  0  0  0  0  0  0
   51.7030   24.4680   44.6440 C   0  0  0  0  0  0  0  0  0  0  0  0
   51.3815   25.4432   44.2495 H   0  0  0  0  0  0  0  0  0  0  0  0
   50.7610   23.4700   44.8860 C   0  0  0  0  0  0  0  0  0  0  0  0
   49.6949   23.6503   44.6837 H   0  0  0  0  0  0  0  0  0  0  0  0
  1  2  1  0
  2  3  1  0
  3  4  1  0
  4  5  2  0
  5  6  1  0
  6  7  2  0
  6  8  2  0
  6  9  1  0
  9 10  2  0
 10 11  1  0
 10 12  1  0
 12 13  1  0
 12 14  2  0
 14 15  1  0
 15 16  1  0
 15 17  1  0
 17 18  2  0
 17 19  1  0
 19 20  1  0
 19 21  1  0
 21 22  2  0
 21 23  1  0
 23 24  2  0
 24 25  1  0
 24 26  1  0
 26 27  1  0
 26 28  2  0
 28 29  1  0
 28 30  1  0
 30 31  1  0
 30 32  2  0
 32 33  1  0
 14 34  1  0
 34 35  1  0
 34 36  2  0
 36 37  1  0
  4 38  1  0
 38 39  1  0
 38 40  2  0
 40 41  1  0
 40 42  1  0
 42 43  1  0
 42  2  2  0
 36  9  1  0
 32 23  1  0
M  CHG  1   3  -1
M  END
>  <UniqueID>  (27) 
25

>  <SMILES>  (27) 
O=C(NC(=O)c1ccccc1F)Nc1ccc(S(=O)(=O)/N=c2\cccc[n-]2)cc1

>  <Energy>  (27) 
60.343038374683644

>  <Genealogy>  (27) 
O=C(NC(=O)c1ccccc1F)Nc1ccc(S(=O)(=O)N=c2cccc[n-]2)cc1 (protonated)
O=C(NC(=O)c1ccccc1F)Nc1ccc(S(=O)(=O)/N=c2\cccc[n-]2)cc1 (cis-trans isomerization)
O=C(NC(=O)c1ccccc1F)Nc1ccc(S(=O)(=O)/N=c2\cccc[n-]2)cc1 (3D coordinates assigned)
O=C(NC(=O)c1ccccc1F)Nc1ccc(S(=O)(=O)/N=c2\cccc[n-]2)cc1 (optimized conformer: 60.343038374683644 kcal/mol)

>  <smiles>  (27) 
O=C(NC(=O)c1ccccc1F)Nc1ccc(S(=O)(=O)N=c2cccc[nH]2)cc1

>  <score_type>  (27) 
oracle

>  <origin>  (27) 
adg

>  <m_score__min__energy>  (27) 
-10.41

>  <m_primary>  (27) 
energy

$$$$
27:0
     RDKit          3D

 82 86  0  0  0  0  0  0  0  0999 V2000
   56.2930   30.1310   52.7920 C   0  0  0  0  0  0  0  0  0  0  0  0
   57.6000   30.8820   52.5550 C   0  0  0  0  0  0  0  0  0  0  0  0
   57.4110   31.9780   51.5080 C   0  0  0  0  0  0  0  0  0  0  0  0
   58.5900   29.9600   52.0950 O   0  0  0  0  0  0  0  0  0  0  0  0
   59.9580   30.2390   51.9570 C   0  0  0  0  0  0  0  0  0  0  0  0
   60.6350   31.0530   52.8870 C   0  0  0  0  0  0  0  0  0  0  0  0
   61.9980   31.3140   52.7370 C   0  0  0  0  0  0  0  0  0  0  0  0
   62.7000   30.7760   51.6590 C   0  0  0  0  0  0  0  0  0  0  0  0
   62.0390   29.9840   50.7220 C   0  0  0  0  0  0  0  0  0  0  0  0
   60.6630   29.7150   50.8510 C   0  0  0  0  0  0  0  0  0  0  0  0
   59.9980   28.8940   49.8660 N   0  0  0  0  0  0  0  0  0  0  0  0
   58.6640   29.2510   49.3680 C   0  0  0  0  0  0  0  0  0  0  0  0
   58.5370   28.8350   47.9010 C   0  0  0  0  0  0  0  0  0  0  0  0
   58.7330   27.3780   47.7180 N   0  0  0  0  0  0  0  0  0  0  0  0
   59.0520   27.0610   46.3100 C   0  0  0  0  0  0  0  0  0  0  0  0
   58.1420   25.9490   45.7730 C   0  0  0  0  0  0  0  0  0  0  0  0
   57.0210   26.5090   44.8900 C   0  0  0  0  0  0  0  0  0  0  0  0
   57.3330   27.8790   44.4860 N   0  0  0  0  0  0  0  0  0  0  0  0
   56.5820   28.9750   44.6710 C   0  0  0  0  0  0  0  0  0  0  0  0
   55.3110   28.9780   45.2330 O   0  0  0  0  0  0  0  0  0  0  0  0
   57.2840   30.0780   44.2350 C   0  0  0  0  0  0  0  0  0  0  0  0
   56.8420   31.5070   44.3290 C   0  0  0  0  0  0  0  0  0  0  0  0
   57.6610   32.2350   45.3600 C   0  0  0  0  0  0  0  0  0  0  0  0
   58.7830   31.6230   45.9370 C   0  0  0  0  0  0  0  0  0  0  0  0
   59.5170   32.2840   46.9270 C   0  0  0  0  0  0  0  0  0  0  0  0
   59.1460   33.5660   47.3520 C   0  0  0  0  0  0  0  0  0  0  0  0
   59.8970   34.2070   48.3990 N   0  0  0  0  0  0  0  0  0  0  0  0
   60.3220   33.5520   49.6050 C   0  0  0  0  0  0  0  0  0  0  0  0
   59.8020   32.4570   49.9570 O   0  0  0  0  0  0  0  0  0  0  0  0
   61.3230   34.2120   50.5030 C   0  0  0  0  0  0  0  0  0  0  0  0
   62.7100   33.7180   50.1910 C   0  0  0  0  0  0  0  0  0  0  0  0
   63.7640   33.9510   51.0930 C   0  0  0  0  0  0  0  0  0  0  0  0
   65.0470   33.4670   50.8160 C   0  0  0  0  0  0  0  0  0  0  0  0
   65.2830   32.7440   49.6430 C   0  0  0  0  0  0  0  0  0  0  0  0
   64.2380   32.4980   48.7470 C   0  0  0  0  0  0  0  0  0  0  0  0
   62.9550   32.9780   49.0220 C   0  0  0  0  0  0  0  0  0  0  0  0
   58.0020   34.1650   46.7970 C   0  0  0  0  0  0  0  0  0  0  0  0
   57.2690   33.5050   45.8080 C   0  0  0  0  0  0  0  0  0  0  0  0
   58.5020   29.6910   43.8000 N   0  0  0  0  0  0  0  0  0  0  0  0
   58.4880   28.3490   43.9690 C   0  0  0  0  0  0  0  0  0  0  0  0
   59.4720   27.6140   43.6870 O   0  0  0  0  0  0  0  0  0  0  0  0
   59.6920   26.7560   48.6720 C   0  0  0  0  0  0  0  0  0  0  0  0
   60.6990   27.7550   49.2580 C   0  0  0  0  0  0  0  0  0  0  0  0
   56.1186   30.0308   53.8735 H   0  0  0  0  0  0  0  0  0  0  0  0
   55.4616   30.6892   52.3367 H   0  0  0  0  0  0  0  0  0  0  0  0
   56.3566   29.1317   52.3367 H   0  0  0  0  0  0  0  0  0  0  0  0
   57.9186   31.3474   53.4994 H   0  0  0  0  0  0  0  0  0  0  0  0
   57.2448   32.9416   52.0118 H   0  0  0  0  0  0  0  0  0  0  0  0
   58.3111   32.0435   50.8791 H   0  0  0  0  0  0  0  0  0  0  0  0
   56.5410   31.7382   50.8791 H   0  0  0  0  0  0  0  0  0  0  0  0
   60.0859   31.4854   53.7364 H   0  0  0  0  0  0  0  0  0  0  0  0
   62.5196   31.9457   53.4711 H   0  0  0  0  0  0  0  0  0  0  0  0
   63.7758   30.9768   51.5482 H   0  0  0  0  0  0  0  0  0  0  0  0
   62.5982   29.5646   49.8727 H   0  0  0  0  0  0  0  0  0  0  0  0
   57.8993   28.7310   49.9637 H   0  0  0  0  0  0  0  0  0  0  0  0
   58.5203   30.3382   49.4538 H   0  0  0  0  0  0  0  0  0  0  0  0
   57.5338   29.1063   47.5406 H   0  0  0  0  0  0  0  0  0  0  0  0
   59.3195   29.3572   47.3309 H   0  0  0  0  0  0  0  0  0  0  0  0
   58.9137   27.9647   45.6983 H   0  0  0  0  0  0  0  0  0  0  0  0
   60.0945   26.7140   46.2582 H   0  0  0  0  0  0  0  0  0  0  0  0
   58.7476   25.2490   45.1787 H   0  0  0  0  0  0  0  0  0  0  0  0
   57.6797   25.4403   46.6318 H   0  0  0  0  0  0  0  0  0  0  0  0
   56.9166   25.8806   43.9932 H   0  0  0  0  0  0  0  0  0  0  0  0
   56.0806   26.5085   45.4606 H   0  0  0  0  0  0  0  0  0  0  0  0
   56.9726   31.9933   43.3510 H   0  0  0  0  0  0  0  0  0  0  0  0
   55.7827   31.5374   44.6237 H   0  0  0  0  0  0  0  0  0  0  0  0
   59.0873   30.6180   45.6093 H   0  0  0  0  0  0  0  0  0  0  0  0
   60.3931   31.7930   47.3757 H   0  0  0  0  0  0  0  0  0  0  0  0
   60.1030   35.2270   48.2980 H   0  0  0  0  0  0  0  0  0  0  0  0
   61.2832   35.3009   50.3525 H   0  0  0  0  0  0  0  0  0  0  0  0
   61.0825   33.9671   51.5481 H   0  0  0  0  0  0  0  0  0  0  0  0
   63.5788   34.5154   52.0188 H   0  0  0  0  0  0  0  0  0  0  0  0
   65.8700   33.6553   51.5211 H   0  0  0  0  0  0  0  0  0  0  0  0
   66.2932   32.3677   49.4243 H   0  0  0  0  0  0  0  0  0  0  0  0
   64.4260   31.9268   47.8259 H   0  0  0  0  0  0  0  0  0  0  0  0
   62.1327   32.7756   48.3199 H   0  0  0  0  0  0  0  0  0  0  0  0
   57.6822   35.1589   47.1434 H   0  0  0  0  0  0  0  0  0  0  0  0
   56.3778   33.9848   45.3773 H   0  0  0  0  0  0  0  0  0  0  0  0
   59.1213   26.3094   49.4995 H   0  0  0  0  0  0  0  0  0  0  0  0
   60.2672   26.0039   48.1121 H   0  0  0  0  0  0  0  0  0  0  0  0
   61.3045   27.2508   50.0255 H   0  0  0  0  0  0  0  0  0  0  0  0
   61.3453   28.1254   48.4487 H   0  0  0  0  0  0  0  0  0  0  0  0
  1  2  1  0
  2  3  1  0
  2  4  1  0
  4  5  1  0
  5  6  2  0
  6  7  1  0
  7  8  2  0
  8  9  1  0
  9 10  2  0
 10 11  1  0
 11 12  1  0
 12 13  1  0
 13 14  1  0
 14 15  1  0
 15 16  1  0
 16 17  1  0
 17 18  1  0
 18 19  1  0
 19 20  1  0
 19 21  2  0
 21 22  1  0
 22 23  1  0
 23 24  2  0
 24 25  1  0
 25 26  2  0
 26 27  1  0
 27 28  1  0
 28 29  2  0
 28 30  1  0
 30 31  1  0
 31 32  2  0
 32 33  1  0
 33 34  2  0
 34 35  1  0
 35 36  2  0
 26 37  1  0
 37 38  2  0
 21 39  1  0
 39 40  1  0
 40 41  2  0
 14 42  1  0
 42 43  1  0
 10  5  1  0
 43 11  1  0
 40 18  1  0
 38 23  1  0
 36 31  1  0
  1 44  1  0
  1 45  1  0
  1 46  1  0
  2 47  1  0
  3 48  1  0
  3 49  1  0
  3 50  1  0
  6 51  1  0
  7 52  1  0
  8 53  1  0
  9 54  1  0
 12 55  1  0
 12 56  1  0
 13 57  1  0
 13 58  1  0
 15 59  1  0
 15 60  1  0
 16 61  1  0
 16 62  1  0
 17 63  1  0
 17 64  1  0
 22 65  1  0
 22 66  1  0
 24 67  1  0
 25 68  1  0
 27 69  1  0
 30 70  1  0
 30 71  1  0
 32 72  1  0
 33 73  1  0
 34 74  1  0
 35 75  1  0
 36 76  1  0
 37 77  1  0
 38 78  1  0
 42 79  1  0
 42 80  1  0
 43 81  1  0
 43 82  1  0
M  CHG  2  20  -1  39  -1
M  END
>  <UniqueID>  (28) 
26

>  <SMILES>  (28) 
CC(C)Oc1ccccc1N1CCN(CCCn2c([O-])c(Cc3ccc(NC(=O)Cc4ccccc4)cc3)[n-]c2=O)CC1

>  <Energy>  (28) 
125.65345847462805

>  <Genealogy>  (28) 
CC(C)Oc1ccccc1N1CCN(CCCn2c([O-])c(Cc3ccc(NC(=O)Cc4ccccc4)cc3)[n-]c2=O)CC1 (protonated)
CC(C)Oc1ccccc1N1CCN(CCCn2c([O-])c(Cc3ccc(NC(=O)Cc4ccccc4)cc3)[n-]c2=O)CC1 (3D coordinates assigned)
CC(C)Oc1ccccc1N1CCN(CCCn2c([O-])c(Cc3ccc(NC(=O)Cc4ccccc4)cc3)[n-]c2=O)CC1 (nonaromatic ring conformer: 125.65345847462805 kcal/mol)

>  <smiles>  (28) 
CC(C)Oc1ccccc1N1CCN(CCCn2c(O)c(Cc3ccc(NC(=O)Cc4ccccc4)cc3)[nH]c2=O)CC1

>  <score_type>  (28) 
oracle

>  <origin>  (28) 
adg

>  <m_score__min__energy>  (28) 
-12.66

>  <m_primary>  (28) 
energy

$$$$
28:0
     RDKit          3D

 52 55  0  0  1  0  0  0  0  0999 V2000
   57.5390   28.1780   43.6380 N   0  0  0  0  0  0  0  0  0  0  0  0
   56.9670   28.4250   45.2510 S   0  0  0  0  0  0  0  0  0  0  0  0
   56.1380   27.2380   45.6190 O   0  0  0  0  0  0  0  0  0  0  0  0
   56.1850   29.7010   45.2680 O   0  0  0  0  0  0  0  0  0  0  0  0
   58.3430   28.5750   46.3250 C   0  0  0  0  0  0  0  0  0  0  0  0
   58.5520   27.7030   47.3840 C   0  0  0  0  0  0  0  0  0  0  0  0
   59.6530   27.8500   48.2160 C   0  0  0  0  0  0  0  0  0  0  0  0
   60.5250   28.8890   47.9510 C   0  0  0  0  0  0  0  0  0  0  0  0
   60.3290   29.7650   46.8980 C   0  0  0  0  0  0  0  0  0  0  0  0
   59.2290   29.6090   46.0770 C   0  0  0  0  0  0  0  0  0  0  0  0
   58.9960   30.5040   44.9720 N   0  0  0  0  0  0  0  0  0  0  0  0
   58.6080   31.7110   45.2260 C   0  0  0  0  0  0  0  0  0  0  0  0
   58.9300   32.3480   46.3670 N   0  0  0  0  0  0  0  0  0  0  0  0
   58.4970   33.6070   46.5770 C   0  0  0  0  0  0  0  0  0  0  0  0
   58.7780   34.2610   47.6530 N   0  0  0  0  0  0  0  0  0  0  0  0
   60.0720   34.0520   48.2110 C   0  0  0  0  0  0  0  0  0  0  0  0
   61.2240   34.0350   47.4560 C   0  0  0  0  0  0  0  0  0  0  0  0
   62.4580   33.8240   48.0800 C   0  0  0  0  0  0  0  0  0  0  0  0
   62.5640   33.6280   49.4400 C   0  0  0  0  0  0  0  0  0  0  0  0
   63.8160   33.4140   50.0780 N   0  0  0  0  0  0  0  0  0  0  0  0
   64.2600   34.1750   51.2290 C   0  0  0  0  0  0  0  0  0  0  0  0
   65.0740   33.2470   52.1180 C   0  0  0  0  0  0  0  0  0  0  0  0
   66.1340   32.6540   51.4830 O   0  0  0  0  0  0  0  0  0  0  0  0
   66.0980   32.7270   50.1140 C   0  0  0  0  0  0  0  0  0  0  0  0
   64.7180   32.3950   49.5770 C   0  0  0  0  0  0  0  0  0  0  0  0
   61.4090   33.6470   50.1800 C   0  0  0  0  0  0  0  0  0  0  0  0
   60.1660   33.8550   49.5860 C   0  0  0  0  0  0  0  0  0  0  0  0
   57.7500   34.2120   45.6490 N   0  0  0  0  0  0  0  0  0  0  0  0
   57.3990   33.6130   44.4840 C   0  0  0  0  0  0  0  0  0  0  0  0
   57.8330   32.3190   44.2470 C   0  0  0  0  0  0  0  0  0  0  0  0
   57.4170   31.4850   42.7620 Cl  0  0  0  0  0  0  0  0  0  0  0  0
   58.1270   28.9830   43.3430 H   0  0  0  0  0  0  0  0  0  0  0  0
   56.7990   27.9300   42.9710 H   0  0  0  0  0  0  0  0  0  0  0  0
   57.8375   26.8867   47.5659 H   0  0  0  0  0  0  0  0  0  0  0  0
   59.8257   27.1631   49.0576 H   0  0  0  0  0  0  0  0  0  0  0  0
   61.4039   29.0240   48.5986 H   0  0  0  0  0  0  0  0  0  0  0  0
   61.0445   30.5804   46.7158 H   0  0  0  0  0  0  0  0  0  0  0  0
   59.5150   31.8550   47.0780 H   0  0  0  0  0  0  0  0  0  0  0  0
   61.1738   34.1866   46.3677 H   0  0  0  0  0  0  0  0  0  0  0  0
   63.3712   33.8142   47.4668 H   0  0  0  0  0  0  0  0  0  0  0  0
   64.8834   35.0197   50.9006 H   0  0  0  0  0  0  0  0  0  0  0  0
   63.3961   34.5737   51.7809 H   0  0  0  0  0  0  0  0  0  0  0  0
   65.4616   33.8318   52.9653 H   0  0  0  0  0  0  0  0  0  0  0  0
   64.3997   32.4377   52.4348 H   0  0  0  0  0  0  0  0  0  0  0  0
   66.3670   33.7473   49.8030 H   0  0  0  0  0  0  0  0  0  0  0  0
   66.8119   31.9942   49.7097 H   0  0  0  0  0  0  0  0  0  0  0  0
   64.7273   32.4054   48.4771 H   0  0  0  0  0  0  0  0  0  0  0  0
   64.3996   31.3930   49.9005 H   0  0  0  0  0  0  0  0  0  0  0  0
   61.4656   33.4944   51.2679 H   0  0  0  0  0  0  0  0  0  0  0  0
   59.2567   33.8636   50.2049 H   0  0  0  0  0  0  0  0  0  0  0  0
   57.4140   35.1880   45.8120 H   0  0  0  0  0  0  0  0  0  0  0  0
   56.7828   34.1434   43.7431 H   0  0  0  0  0  0  0  0  0  0  0  0
  1  2  1  0
  2  3  2  0
  2  4  2  0
  2  5  1  0
  5  6  2  0
  6  7  1  0
  7  8  2  0
  8  9  1  0
  9 10  2  0
 10 11  1  0
 11 12  2  0
 12 13  1  0
 13 14  1  0
 14 15  2  0
 15 16  1  0
 16 17  2  0
 17 18  1  0
 18 19  2  0
 19 20  1  0
 20 21  1  0
 21 22  1  0
 22 23  1  0
 23 24  1  0
 24 25  1  0
 19 26  1  0
 26 27  2  0
 14 28  1  0
 28 29  1  0
 29 30  2  0
 30 31  1  0
 10  5  1  0
 30 12  1  0
 27 16  1  0
 25 20  1  0
  1 32  1  0
  1 33  1  0
  6 34  1  0
  7 35  1  0
  8 36  1  0
  9 37  1  0
 13 38  1  0
 17 39  1  0
 18 40  1  0
 21 41  1  0
 21 42  1  0
 22 43  1  0
 22 44  1  0
 24 45  1  0
 24 46  1  0
 25 47  1  0
 25 48  1  0
 26 49  1  0
 27 50  1  0
 28 51  1  0
 29 52  1  0
M  END
>  <smiles>  (29) 
NS(=O)(=O)c1ccccc1N=c1[nH]c(=Nc2ccc(N3CCOCC3)cc2)[nH]cc1Cl

>  <score_type>  (29) 
oracle

>  <origin>  (29) 
adg

>  <m_score__min__energy>  (29) 
-10.17

>  <m_primary>  (29) 
energy

$$$$
29:0
     RDKit          3D

 47 50  0  0  0  0  0  0  0  0999 V2000
   50.9745   31.0550   53.9784 H   0  0  0  0  0  0  0  0  0  0  0  0
   51.8110   30.8540   53.2930 C   0  0  0  0  0  0  0  0  0  0  0  0
   52.9390   30.3580   53.8210 C   0  0  0  0  0  0  0  0  0  0  0  0
   53.1347   30.5660   54.8833 H   0  0  0  0  0  0  0  0  0  0  0  0
   53.9580   29.5400   53.0770 C   0  0  0  0  0  0  0  0  0  0  0  0
   54.1168   28.5873   53.6035 H   0  0  0  0  0  0  0  0  0  0  0  0
   53.5929   29.3434   52.0582 H   0  0  0  0  0  0  0  0  0  0  0  0
   55.2190   30.2700   53.0050 N   0  0  0  0  0  0  0  0  0  0  0  0
   55.9650   30.5850   54.0510 N   0  0  0  0  0  0  0  0  0  0  0  0
   57.0760   31.1890   53.6570 N   0  0  0  0  0  0  0  0  0  0  0  0
   57.0370   31.2510   52.3080 C   0  0  0  0  0  0  0  0  0  0  0  0
   58.1000   31.8500   51.4680 C   0  0  0  0  0  0  0  0  0  0  0  0
   58.5480   33.1660   51.6890 C   0  0  0  0  0  0  0  0  0  0  0  0
   58.1005   33.7672   52.4941 H   0  0  0  0  0  0  0  0  0  0  0  0
   59.5570   33.7140   50.8930 C   0  0  0  0  0  0  0  0  0  0  0  0
   59.9048   34.7401   51.0832 H   0  0  0  0  0  0  0  0  0  0  0  0
   60.1310   32.9660   49.8520 C   0  0  0  0  0  0  0  0  0  0  0  0
   61.1920   33.5230   49.0510 N   0  0  0  0  0  0  0  0  0  0  0  0
   62.1020   33.4420   49.5640 H   0  0  0  0  0  0  0  0  0  0  0  0
   61.0080   34.5400   48.8780 H   0  0  0  0  0  0  0  0  0  0  0  0
   61.2830   32.8100   47.7700 C   0  0  0  0  0  0  0  0  0  0  0  0
   62.2691   32.9978   47.3203 H   0  0  0  0  0  0  0  0  0  0  0  0
   61.1482   31.7334   47.9512 H   0  0  0  0  0  0  0  0  0  0  0  0
   60.2090   33.2840   46.8260 C   0  0  0  0  0  0  0  0  0  0  0  0
   60.2670   34.5780   46.2810 C   0  0  0  0  0  0  0  0  0  0  0  0
   61.1129   35.2379   46.5236 H   0  0  0  0  0  0  0  0  0  0  0  0
   59.2520   35.0290   45.4310 C   0  0  0  0  0  0  0  0  0  0  0  0
   59.3037   36.0408   45.0026 H   0  0  0  0  0  0  0  0  0  0  0  0
   58.1720   34.1960   45.1250 C   0  0  0  0  0  0  0  0  0  0  0  0
   57.3770   34.5510   44.4528 H   0  0  0  0  0  0  0  0  0  0  0  0
   58.1020   32.9120   45.6730 C   0  0  0  0  0  0  0  0  0  0  0  0
   57.2508   32.2579   45.4331 H   0  0  0  0  0  0  0  0  0  0  0  0
   59.1130   32.4580   46.5260 C   0  0  0  0  0  0  0  0  0  0  0  0
   59.0498   31.4507   46.9635 H   0  0  0  0  0  0  0  0  0  0  0  0
   59.6920   31.6490   49.6360 C   0  0  0  0  0  0  0  0  0  0  0  0
   60.1432   31.0470   48.8335 H   0  0  0  0  0  0  0  0  0  0  0  0
   58.6850   31.0990   50.4350 C   0  0  0  0  0  0  0  0  0  0  0  0
   58.3475   30.0680   50.2529 H   0  0  0  0  0  0  0  0  0  0  0  0
   55.8580   30.6610   51.8890 C   0  0  0  0  0  0  0  0  0  0  0  0
   55.5131   30.5369   50.8519 H   0  0  0  0  0  0  0  0  0  0  0  0
   51.6070   31.1500   51.8660 C   0  0  0  0  0  0  0  0  0  0  0  0
   51.7650   30.2370   50.8910 N   0  0  0  0  0  0  0  0  0  0  0  0
   51.3850   30.8990   49.7770 C   0  0  0  0  0  0  0  0  0  0  0  0
   51.4060   30.3710   48.6350 O   0  0  0  0  0  0  0  0  0  0  0  0
   50.9670   32.1660   49.9850 N   0  0  0  0  0  0  0  0  0  0  0  0
   51.1020   32.3060   51.3140 C   0  0  0  0  0  0  0  0  0  0  0  0
   50.7310   33.4490   52.0090 O   0  0  0  0  0  0  0  0  0  0  0  0
  1  2  1  0
  2  3  2  0
  3  4  1  0
  3  5  1  0
  5  6  1  0
  5  7  1  0
  5  8  1  0
  8  9  1  0
  9 10  2  0
 10 11  1  0
 11 12  1  0
 12 13  2  0
 13 14  1  0
 13 15  1  0
 15 16  1  0
 15 17  2  0
 17 18  1  0
 18 19  1  0
 18 20  1  0
 18 21  1  0
 21 22  1  0
 21 23  1  0
 21 24  1  0
 24 25  2  0
 25 26  1  0
 25 27  1  0
 27 28  1  0
 27 29  2  0
 29 30  1  0
 29 31  1  0
 31 32  1  0
 31 33  2  0
 33 34  1  0
 17 35  1  0
 35 36  1  0
 35 37  2  0
 37 38  1  0
 11 39  2  0
 39 40  1  0
  2 41  1  0
 41 42  1  0
 42 43  1  0
 43 44  2  0
 43 45  1  0
 45 46  1  0
 46 47  1  0
 39  8  1  0
 46 41  2  0
 37 12  1  0
 33 24  1  0
M  CHG  4  18   1  42  -1  45  -1  47  -1
M  END
>  <UniqueID>  (30) 
27

>  <SMILES>  (30) 
O=c1[n-]c([O-])c(/C=C\Cn2cc(-c3ccc([NH2+]Cc4ccccc4)cc3)nn2)[n-]1

>  <Energy>  (30) 
122.54095236133085

>  <Genealogy>  (30) 
O=c1[n-]c([O-])c(C=CCn2cc(-c3ccc([NH2+]Cc4ccccc4)cc3)nn2)[n-]1 (protonated)
O=c1[n-]c([O-])c(/C=C\Cn2cc(-c3ccc([NH2+]Cc4ccccc4)cc3)nn2)[n-]1 (cis-trans isomerization)
O=c1[n-]c([O-])c(/C=C\Cn2cc(-c3ccc([NH2+]Cc4ccccc4)cc3)nn2)[n-]1 (3D coordinates assigned)
O=c1[n-]c([O-])c(/C=C\Cn2cc(-c3ccc([NH2+]Cc4ccccc4)cc3)nn2)[n-]1 (optimized conformer: 122.54095236133085 kcal/mol)

>  <smiles>  (30) 
O=c1[nH]c(O)c(C=CCn2cc(-c3ccc(NCc4ccccc4)cc3)nn2)[nH]1

>  <score_type>  (30) 
oracle

>  <origin>  (30) 
adg

>  <m_score__min__energy>  (30) 
-17.469999999999999

>  <m_primary>  (30) 
energy

$$$$
30:0
     RDKit          3D

 63 66  0  0  0  0  0  0  0  0999 V2000
   54.5150   24.1150   45.9510 C   0  0  0  0  0  0  0  0  0  0  0  0
   55.5750   25.2110   45.9590 C   0  0  0  0  0  0  0  0  0  0  0  0
   56.8880   24.6600   45.6090 N   0  0  0  0  0  0  0  0  0  0  0  0
   56.9960   23.5050   44.7600 C   0  0  0  0  0  0  0  0  0  0  0  0
   57.5540   22.3100   45.2470 C   0  0  0  0  0  0  0  0  0  0  0  0
   57.6460   21.1870   44.4200 C   0  0  0  0  0  0  0  0  0  0  0  0
   57.1760   21.2450   43.1050 C   0  0  0  0  0  0  0  0  0  0  0  0
   56.6160   22.4280   42.6140 C   0  0  0  0  0  0  0  0  0  0  0  0
   56.5250   23.5540   43.4380 C   0  0  0  0  0  0  0  0  0  0  0  0
   58.3160   25.3550   46.3160 S   0  0  0  0  0  0  0  0  0  0  0  0
   59.5310   24.5420   45.9630 O   0  0  0  0  0  0  0  0  0  0  0  0
   58.1620   25.3600   47.8120 O   0  0  0  0  0  0  0  0  0  0  0  0
   58.5360   26.9950   45.7100 C   0  0  0  0  0  0  0  0  0  0  0  0
   59.8240   27.4590   45.4160 C   0  0  0  0  0  0  0  0  0  0  0  0
   60.0100   28.7510   44.9250 C   0  0  0  0  0  0  0  0  0  0  0  0
   58.9110   29.5920   44.7270 C   0  0  0  0  0  0  0  0  0  0  0  0
   57.6090   29.1430   45.0140 C   0  0  0  0  0  0  0  0  0  0  0  0
   56.4400   30.0260   44.7870 C   0  0  0  0  0  0  0  0  0  0  0  0
   55.2730   29.5750   44.9360 O   0  0  0  0  0  0  0  0  0  0  0  0
   56.6360   31.4060   44.4490 N   0  0  0  0  0  0  0  0  0  0  0  0
   57.4700   32.3340   45.1580 C   0  0  0  0  0  0  0  0  0  0  0  0
   57.7540   33.5730   44.5690 C   0  0  0  0  0  0  0  0  0  0  0  0
   58.5580   34.5020   45.2350 C   0  0  0  0  0  0  0  0  0  0  0  0
   59.0700   34.2090   46.5030 C   0  0  0  0  0  0  0  0  0  0  0  0
   58.7650   32.9850   47.1170 C   0  0  0  0  0  0  0  0  0  0  0  0
   59.4080   32.5880   48.7080 S   0  0  0  0  0  0  0  0  0  0  0  0
   58.6150   31.4440   49.2760 O   0  0  0  0  0  0  0  0  0  0  0  0
   59.2780   33.7690   49.6300 O   0  0  0  0  0  0  0  0  0  0  0  0
   61.0890   32.1350   48.5590 N   0  0  0  0  0  0  0  0  0  0  0  0
   61.5230   32.1530   47.1380 C   0  0  0  0  0  0  0  0  0  0  0  0
   62.3840   33.3870   46.8130 C   0  0  0  0  0  0  0  0  0  0  0  0
   63.5550   33.4770   47.6110 O   0  0  0  0  0  0  0  0  0  0  0  0
   63.3820   33.0010   48.9400 C   0  0  0  0  0  0  0  0  0  0  0  0
   61.9210   33.0000   49.4220 C   0  0  0  0  0  0  0  0  0  0  0  0
   57.9630   32.0530   46.4450 C   0  0  0  0  0  0  0  0  0  0  0  0
   57.4330   27.8370   45.5080 C   0  0  0  0  0  0  0  0  0  0  0  0
   54.2563   23.8475   46.9862 H   0  0  0  0  0  0  0  0  0  0  0  0
   53.6164   24.4778   45.4305 H   0  0  0  0  0  0  0  0  0  0  0  0
   54.9076   23.2290   45.4305 H   0  0  0  0  0  0  0  0  0  0  0  0
   55.3007   25.9849   45.2270 H   0  0  0  0  0  0  0  0  0  0  0  0
   55.6295   25.6450   46.9683 H   0  0  0  0  0  0  0  0  0  0  0  0
   57.9197   22.2586   46.2832 H   0  0  0  0  0  0  0  0  0  0  0  0
   58.0888   20.2564   44.8045 H   0  0  0  0  0  0  0  0  0  0  0  0
   57.2468   20.3595   42.4562 H   0  0  0  0  0  0  0  0  0  0  0  0
   56.2467   22.4731   41.5788 H   0  0  0  0  0  0  0  0  0  0  0  0
   56.0823   24.4827   43.0488 H   0  0  0  0  0  0  0  0  0  0  0  0
   60.6922   26.8021   45.5729 H   0  0  0  0  0  0  0  0  0  0  0  0
   61.0238   29.1092   44.6930 H   0  0  0  0  0  0  0  0  0  0  0  0
   59.0653   30.6116   44.3442 H   0  0  0  0  0  0  0  0  0  0  0  0
   57.3424   33.8156   43.5782 H   0  0  0  0  0  0  0  0  0  0  0  0
   58.7889   35.4670   44.7602 H   0  0  0  0  0  0  0  0  0  0  0  0
   59.7119   34.9383   47.0189 H   0  0  0  0  0  0  0  0  0  0  0  0
   61.1690   31.1520   48.9110 H   0  0  0  0  0  0  0  0  0  0  0  0
   62.1114   31.2461   46.9350 H   0  0  0  0  0  0  0  0  0  0  0  0
   60.6219   32.1923   46.5083 H   0  0  0  0  0  0  0  0  0  0  0  0
   62.6842   33.3355   45.7560 H   0  0  0  0  0  0  0  0  0  0  0  0
   61.7737   34.2771   47.0259 H   0  0  0  0  0  0  0  0  0  0  0  0
   63.7629   31.9703   48.9900 H   0  0  0  0  0  0  0  0  0  0  0  0
   63.9324   33.6899   49.5977 H   0  0  0  0  0  0  0  0  0  0  0  0
   61.8815   32.6249   50.4553 H   0  0  0  0  0  0  0  0  0  0  0  0
   61.5314   34.0276   49.3751 H   0  0  0  0  0  0  0  0  0  0  0  0
   57.7173   31.0953   46.9271 H   0  0  0  0  0  0  0  0  0  0  0  0
   56.4206   27.4733   45.7378 H   0  0  0  0  0  0  0  0  0  0  0  0
  1  2  1  0
  2  3  1  0
  3  4  1  0
  4  5  2  0
  5  6  1  0
  6  7  2  0
  7  8  1  0
  8  9  2  0
  3 10  1  0
 10 11  2  0
 10 12  2  0
 10 13  1  0
 13 14  2  0
 14 15  1  0
 15 16  2  0
 16 17  1  0
 17 18  1  0
 18 19  2  0
 18 20  1  0
 20 21  1  0
 21 22  2  0
 22 23  1  0
 23 24  2  0
 24 25  1  0
 25 26  1  0
 26 27  2  0
 26 28  2  0
 26 29  1  0
 29 30  1  0
 30 31  1  0
 31 32  1  0
 32 33  1  0
 33 34  1  0
 25 35  2  0
 17 36  2  0
  9  4  1  0
 36 13  1  0
 35 21  1  0
 34 29  1  0
  1 37  1  0
  1 38  1  0
  1 39  1  0
  2 40  1  0
  2 41  1  0
  5 42  1  0
  6 43  1  0
  7 44  1  0
  8 45  1  0
  9 46  1  0
 14 47  1  0
 15 48  1  0
 16 49  1  0
 22 50  1  0
 23 51  1  0
 24 52  1  0
 29 53  1  0
 30 54  1  0
 30 55  1  0
 31 56  1  0
 31 57  1  0
 33 58  1  0
 33 59  1  0
 34 60  1  0
 34 61  1  0
 35 62  1  0
 36 63  1  0
M  CHG  2  20  -1  29   1
M  END
>  <UniqueID>  (31) 
28

>  <SMILES>  (31) 
CCN(c1ccccc1)S(=O)(=O)c1cccc(C(=O)[N-]c2cccc(S(=O)(=O)[NH+]3CCOCC3)c2)c1

>  <Energy>  (31) 
84.7765969537066

>  <Genealogy>  (31) 
CCN(c1ccccc1)S(=O)(=O)c1cccc(C(=O)[N-]c2cccc(S(=O)(=O)[NH+]3CCOCC3)c2)c1 (protonated)
CCN(c1ccccc1)S(=O)(=O)c1cccc(C(=O)[N-]c2cccc(S(=O)(=O)[NH+]3CCOCC3)c2)c1 (3D coordinates assigned)
CCN(c1ccccc1)S(=O)(=O)c1cccc(C(=O)[N-]c2cccc(S(=O)(=O)[NH+]3CCOCC3)c2)c1 (nonaromatic ring conformer: 84.7765969537066 kcal/mol)

>  <smiles>  (31) 
CCN(c1ccccc1)S(=O)(=O)c1cccc(C(=O)Nc2cccc(S(=O)(=O)N3CCOCC3)c2)c1

>  <score_type>  (31) 
oracle

>  <origin>  (31) 
adg

>  <m_score__min__energy>  (31) 
-12.27

>  <m_primary>  (31) 
energy

$$$$
31:0
     RDKit          3D

 41 43  0  0  0  0  0  0  0  0999 V2000
   57.3750   21.9340   48.4530 N   0  0  0  0  0  0  0  0  0  0  0  0
   56.6280   23.3620   47.8230 S   0  0  0  0  0  0  0  0  0  0  0  0
   55.1910   23.3600   48.2630 O   0  0  0  0  0  0  0  0  0  0  0  0
   57.3280   24.5680   48.3830 O   0  0  0  0  0  0  0  0  0  0  0  0
   56.7430   23.3770   46.0570 C   0  0  0  0  0  0  0  0  0  0  0  0
   56.9980   22.1600   45.4020 C   0  0  0  0  0  0  0  0  0  0  0  0
   57.0610   22.0980   44.0090 C   0  0  0  0  0  0  0  0  0  0  0  0
   56.8660   23.2490   43.2500 C   0  0  0  0  0  0  0  0  0  0  0  0
   56.6340   24.4710   43.8840 C   0  0  0  0  0  0  0  0  0  0  0  0
   56.5980   24.5570   45.2840 C   0  0  0  0  0  0  0  0  0  0  0  0
   56.2590   26.1820   45.9900 S   0  0  0  0  0  0  0  0  0  0  0  0
   57.9230   26.8600   45.8080 C   0  0  0  0  0  0  0  0  0  0  0  0
   58.9550   26.2860   46.5630 C   0  0  0  0  0  0  0  0  0  0  0  0
   60.2360   26.8390   46.5500 C   0  0  0  0  0  0  0  0  0  0  0  0
   60.4890   27.9960   45.8150 C   0  0  0  0  0  0  0  0  0  0  0  0
   59.4650   28.5910   45.0760 C   0  0  0  0  0  0  0  0  0  0  0  0
   58.1830   28.0090   45.0320 C   0  0  0  0  0  0  0  0  0  0  0  0
   57.1350   28.5870   44.2390 N   0  0  0  0  0  0  0  0  0  0  0  0
   56.2410   29.6430   44.6240 C   0  0  0  0  0  0  0  0  0  0  0  0
   55.1490   29.3400   45.1690 O   0  0  0  0  0  0  0  0  0  0  0  0
   56.5480   31.0320   44.4200 N   0  0  0  0  0  0  0  0  0  0  0  0
   57.3820   31.8580   45.2450 C   0  0  0  0  0  0  0  0  0  0  0  0
   57.4430   33.2340   44.9900 C   0  0  0  0  0  0  0  0  0  0  0  0
   58.2260   34.0680   45.7930 C   0  0  0  0  0  0  0  0  0  0  0  0
   58.9670   33.5280   46.8500 C   0  0  0  0  0  0  0  0  0  0  0  0
   59.9430   34.5740   47.8650 Cl  0  0  0  0  0  0  0  0  0  0  0  0
   58.9340   32.1510   47.0920 C   0  0  0  0  0  0  0  0  0  0  0  0
   58.1540   31.3180   46.2860 C   0  0  0  0  0  0  0  0  0  0  0  0
   57.8290   22.1930   49.3560 H   0  0  0  0  0  0  0  0  0  0  0  0
   57.1497   21.2455   45.9941 H   0  0  0  0  0  0  0  0  0  0  0  0
   57.2649   21.1390   43.5103 H   0  0  0  0  0  0  0  0  0  0  0  0
   56.8947   23.1955   42.1517 H   0  0  0  0  0  0  0  0  0  0  0  0
   56.4777   25.3765   43.2793 H   0  0  0  0  0  0  0  0  0  0  0  0
   58.7533   25.3918   47.1711 H   0  0  0  0  0  0  0  0  0  0  0  0
   61.0466   26.3616   47.1201 H   0  0  0  0  0  0  0  0  0  0  0  0
   61.4954   28.4401   45.8173 H   0  0  0  0  0  0  0  0  0  0  0  0
   59.6608   29.5219   44.5236 H   0  0  0  0  0  0  0  0  0  0  0  0
   56.8712   33.6607   44.1528 H   0  0  0  0  0  0  0  0  0  0  0  0
   58.2597   35.1493   45.5940 H   0  0  0  0  0  0  0  0  0  0  0  0
   59.5224   31.7236   47.9173 H   0  0  0  0  0  0  0  0  0  0  0  0
   58.1447   30.2332   46.4680 H   0  0  0  0  0  0  0  0  0  0  0  0
  1  2  1  0
  2  3  2  0
  2  4  2  0
  2  5  1  0
  5  6  2  0
  6  7  1  0
  7  8  2  0
  8  9  1  0
  9 10  2  0
 10 11  1  0
 11 12  1  0
 12 13  2  0
 13 14  1  0
 14 15  2  0
 15 16  1  0
 16 17  2  0
 17 18  1  0
 18 19  1  0
 19 20  2  0
 19 21  1  0
 21 22  1  0
 22 23  2  0
 23 24  1  0
 24 25  2  0
 25 26  1  0
 25 27  1  0
 27 28  2  0
 10  5  1  0
 17 12  1  0
 28 22  1  0
  1 29  1  0
  6 30  1  0
  7 31  1  0
  8 32  1  0
  9 33  1  0
 13 34  1  0
 14 35  1  0
 15 36  1  0
 16 37  1  0
 23 38  1  0
 24 39  1  0
 27 40  1  0
 28 41  1  0
M  CHG  3   1  -1  18  -1  21  -1
M  END
>  <UniqueID>  (32) 
29

>  <SMILES>  (32) 
[NH-]S(=O)(=O)c1ccccc1Sc1ccccc1[N-]C(=O)[N-]c1ccc(Cl)cc1

>  <Energy>  (32) 
49.3594136344445

>  <Genealogy>  (32) 
[NH-]S(=O)(=O)c1ccccc1Sc1ccccc1[N-]C(=O)[N-]c1ccc(Cl)cc1 (protonated)
[NH-]S(=O)(=O)c1ccccc1Sc1ccccc1[N-]C(=O)[N-]c1ccc(Cl)cc1 (3D coordinates assigned)
[NH-]S(=O)(=O)c1ccccc1Sc1ccccc1[N-]C(=O)[N-]c1ccc(Cl)cc1 (optimized conformer: 49.3594136344445 kcal/mol)

>  <smiles>  (32) 
NS(=O)(=O)c1ccccc1Sc1ccccc1NC(=O)Nc1ccc(Cl)cc1

>  <score_type>  (32) 
oracle

>  <origin>  (32) 
adg

>  <m_score__min__energy>  (32) 
-15.02

>  <m_primary>  (32) 
energy

$$$$
32:0
     RDKit          3D

 29 31  0  0  0  0  0  0  0  0999 V2000
   58.0260   31.8780   42.6020 O   0  0  0  0  0  0  0  0  0  0  0  0
   57.4280   31.9490   43.7080 C   0  0  0  0  0  0  0  0  0  0  0  0
   57.3920   33.2070   44.3950 N   0  0  0  0  0  0  0  0  0  0  0  0
   58.1930   33.5730   45.5270 C   0  0  0  0  0  0  0  0  0  0  0  0
   59.1480   34.5890   45.3820 C   0  0  0  0  0  0  0  0  0  0  0  0
   59.9310   34.9810   46.4720 C   0  0  0  0  0  0  0  0  0  0  0  0
   59.7550   34.3710   47.7170 C   0  0  0  0  0  0  0  0  0  0  0  0
   58.7890   33.3740   47.8750 C   0  0  0  0  0  0  0  0  0  0  0  0
   58.0030   32.9800   46.7890 C   0  0  0  0  0  0  0  0  0  0  0  0
   56.8420   30.7250   44.2840 C   0  0  0  0  0  0  0  0  0  0  0  0
   57.5190   29.5830   44.6680 C   0  0  0  0  0  0  0  0  0  0  0  0
   56.5150   28.7440   45.0960 C   0  0  0  0  0  0  0  0  0  0  0  0
   56.6850   27.3880   45.6210 C   0  0  0  0  0  0  0  0  0  0  0  0
   57.8380   26.8380   45.7690 N   0  0  0  0  0  0  0  0  0  0  0  0
   57.6560   25.4970   46.3060 C   0  0  0  0  0  0  0  0  0  0  0  0
   56.1360   25.3420   46.4570 C   0  0  0  0  0  0  0  0  0  0  0  0
   55.6300   26.5830   46.0000 O   0  0  0  0  0  0  0  0  0  0  0  0
   55.3600   29.3520   44.9590 O   0  0  0  0  0  0  0  0  0  0  0  0
   55.5180   30.5470   44.4670 N   0  0  0  0  0  0  0  0  0  0  0  0
   59.2819   35.0798   44.4067 H   0  0  0  0  0  0  0  0  0  0  0  0
   60.6868   35.7708   46.3494 H   0  0  0  0  0  0  0  0  0  0  0  0
   60.3766   34.6756   48.5719 H   0  0  0  0  0  0  0  0  0  0  0  0
   58.6469   32.8982   48.8565 H   0  0  0  0  0  0  0  0  0  0  0  0
   57.2340   32.2046   46.9208 H   0  0  0  0  0  0  0  0  0  0  0  0
   58.6016   29.3904   44.6387 H   0  0  0  0  0  0  0  0  0  0  0  0
   58.0559   24.7433   45.6117 H   0  0  0  0  0  0  0  0  0  0  0  0
   58.1861   25.3544   47.2592 H   0  0  0  0  0  0  0  0  0  0  0  0
   55.7619   24.5130   45.8382 H   0  0  0  0  0  0  0  0  0  0  0  0
   55.8296   25.1076   47.4871 H   0  0  0  0  0  0  0  0  0  0  0  0
  1  2  2  0
  2  3  1  0
  3  4  1  0
  4  5  2  0
  5  6  1  0
  6  7  2  0
  7  8  1  0
  8  9  2  0
  2 10  1  0
 10 11  1  0
 11 12  2  0
 12 13  1  0
 13 14  2  0
 14 15  1  0
 15 16  1  0
 16 17  1  0
 12 18  1  0
 18 19  1  0
  9  4  1  0
 19 10  2  0
 17 13  1  0
  5 20  1  0
  6 21  1  0
  7 22  1  0
  8 23  1  0
  9 24  1  0
 11 25  1  0
 15 26  1  0
 15 27  1  0
 16 28  1  0
 16 29  1  0
M  CHG  1   3  -1
M  END
>  <UniqueID>  (33) 
30

>  <SMILES>  (33) 
O=C([N-]c1ccccc1)c1cc(C2=NCCO2)on1

>  <Energy>  (33) 
78.1154942444832

>  <Genealogy>  (33) 
O=C([N-]c1ccccc1)c1cc(C2=NCCO2)on1 (protonated)
O=C([N-]c1ccccc1)c1cc(C2=NCCO2)on1 (3D coordinates assigned)
O=C([N-]c1ccccc1)c1cc(C2=NCCO2)on1 (nonaromatic ring conformer: 78.1154942444832 kcal/mol)

>  <smiles>  (33) 
O=C(Nc1ccccc1)c1cc(C2=NCCO2)on1

>  <score_type>  (33) 
oracle

>  <origin>  (33) 
adg

>  <m_score__min__energy>  (33) 
-8.7599999999999998

>  <m_primary>  (33) 
energy

$$$$
33:0
     RDKit          3D

 62 66  0  0  0  0  0  0  0  0999 V2000
   56.4380   21.9210   49.2510 C   0  0  0  0  0  0  0  0  0  0  0  0
   57.3750   21.8140   48.1830 O   0  0  0  0  0  0  0  0  0  0  0  0
   57.0280   21.5760   46.8460 C   0  0  0  0  0  0  0  0  0  0  0  0
   56.9910   20.2810   46.2950 C   0  0  0  0  0  0  0  0  0  0  0  0
   56.6330   20.0950   44.9580 C   0  0  0  0  0  0  0  0  0  0  0  0
   56.3050   21.1920   44.1600 C   0  0  0  0  0  0  0  0  0  0  0  0
   56.3360   22.4880   44.6950 C   0  0  0  0  0  0  0  0  0  0  0  0
   55.9810   23.6650   43.8280 C   0  0  0  0  0  0  0  0  0  0  0  0
   56.7870   24.8260   44.1960 N   0  0  0  0  0  0  0  0  0  0  0  0
   56.4900   25.6340   45.3460 C   0  0  0  0  0  0  0  0  0  0  0  0
   55.4340   25.4290   46.0020 O   0  0  0  0  0  0  0  0  0  0  0  0
   57.3980   26.7280   45.7530 C   0  0  0  0  0  0  0  0  0  0  0  0
   58.0230   26.7130   47.0100 C   0  0  0  0  0  0  0  0  0  0  0  0
   58.8950   27.7420   47.3780 C   0  0  0  0  0  0  0  0  0  0  0  0
   59.1560   28.8000   46.4950 C   0  0  0  0  0  0  0  0  0  0  0  0
   60.1320   29.8790   46.8710 C   0  0  0  0  0  0  0  0  0  0  0  0
   59.4410   31.1360   47.1670 N   0  0  0  0  0  0  0  0  0  0  0  0
   59.0730   31.6380   48.3790 C   0  0  0  0  0  0  0  0  0  0  0  0
   59.6040   30.9560   49.9550 S   0  0  0  0  0  0  0  0  0  0  0  0
   60.8830   32.2230   50.2710 C   0  0  0  0  0  0  0  0  0  0  0  0
   61.6060   32.6280   49.0140 C   0  0  0  0  0  0  0  0  0  0  0  0
   62.6730   31.8510   48.5320 C   0  0  0  0  0  0  0  0  0  0  0  0
   63.3950   32.2640   47.4070 C   0  0  0  0  0  0  0  0  0  0  0  0
   63.0470   33.4430   46.7460 C   0  0  0  0  0  0  0  0  0  0  0  0
   63.7480   33.8380   45.6540 F   0  0  0  0  0  0  0  0  0  0  0  0
   61.9660   34.2050   47.2000 C   0  0  0  0  0  0  0  0  0  0  0  0
   61.2500   33.8030   48.3320 C   0  0  0  0  0  0  0  0  0  0  0  0
   58.2500   32.7190   48.2930 N   0  0  0  0  0  0  0  0  0  0  0  0
   58.1290   32.8990   46.9660 C   0  0  0  0  0  0  0  0  0  0  0  0
   57.3870   33.8590   46.2880 C   0  0  0  0  0  0  0  0  0  0  0  0
   57.4030   33.8090   44.8810 C   0  0  0  0  0  0  0  0  0  0  0  0
   58.1480   32.8030   44.2220 C   0  0  0  0  0  0  0  0  0  0  0  0
   58.8540   31.8780   44.9400 N   0  0  0  0  0  0  0  0  0  0  0  0
   58.8350   31.9540   46.2960 C   0  0  0  0  0  0  0  0  0  0  0  0
   58.5150   28.8290   45.2490 C   0  0  0  0  0  0  0  0  0  0  0  0
   57.6440   27.8000   44.8790 C   0  0  0  0  0  0  0  0  0  0  0  0
   56.7040   22.6730   46.0370 C   0  0  0  0  0  0  0  0  0  0  0  0
   56.9692   21.8603   50.2123 H   0  0  0  0  0  0  0  0  0  0  0  0
   55.9126   22.8850   49.1826 H   0  0  0  0  0  0  0  0  0  0  0  0
   55.7088   21.1003   49.1826 H   0  0  0  0  0  0  0  0  0  0  0  0
   57.2451   19.4122   46.9200 H   0  0  0  0  0  0  0  0  0  0  0  0
   56.6095   19.0809   44.5326 H   0  0  0  0  0  0  0  0  0  0  0  0
   56.0213   21.0396   43.1082 H   0  0  0  0  0  0  0  0  0  0  0  0
   56.1708   23.4104   42.7748 H   0  0  0  0  0  0  0  0  0  0  0  0
   54.9176   23.9074   43.9710 H   0  0  0  0  0  0  0  0  0  0  0  0
   57.5620   25.1080   43.5560 H   0  0  0  0  0  0  0  0  0  0  0  0
   57.8255   25.8871   47.7092 H   0  0  0  0  0  0  0  0  0  0  0  0
   59.3791   27.7217   48.3655 H   0  0  0  0  0  0  0  0  0  0  0  0
   60.6946   29.5602   47.7609 H   0  0  0  0  0  0  0  0  0  0  0  0
   60.8120   30.0458   46.0226 H   0  0  0  0  0  0  0  0  0  0  0  0
   60.4014   33.1119   50.7046 H   0  0  0  0  0  0  0  0  0  0  0  0
   61.6225   31.7911   50.9613 H   0  0  0  0  0  0  0  0  0  0  0  0
   62.9418   30.9139   49.0414 H   0  0  0  0  0  0  0  0  0  0  0  0
   64.2382   31.6586   47.0429 H   0  0  0  0  0  0  0  0  0  0  0  0
   61.6783   35.1224   46.6657 H   0  0  0  0  0  0  0  0  0  0  0  0
   60.4048   34.4094   48.6896 H   0  0  0  0  0  0  0  0  0  0  0  0
   56.8116   34.6255   46.8278 H   0  0  0  0  0  0  0  0  0  0  0  0
   56.8381   34.5497   44.2961 H   0  0  0  0  0  0  0  0  0  0  0  0
   58.1594   32.7646   43.1227 H   0  0  0  0  0  0  0  0  0  0  0  0
   58.6982   29.6656   44.5587 H   0  0  0  0  0  0  0  0  0  0  0  0
   57.1482   27.8299   43.8975 H   0  0  0  0  0  0  0  0  0  0  0  0
   56.7383   23.6889   46.4574 H   0  0  0  0  0  0  0  0  0  0  0  0
  1  2  1  0
  2  3  1  0
  3  4  2  0
  4  5  1  0
  5  6  2  0
  6  7  1  0
  7  8  1  0
  8  9  1  0
  9 10  1  0
 10 11  2  0
 10 12  1  0
 12 13  2  0
 13 14  1  0
 14 15  2  0
 15 16  1  0
 16 17  1  0
 17 18  1  0
 18 19  1  0
 19 20  1  0
 20 21  1  0
 21 22  2  0
 22 23  1  0
 23 24  2  0
 24 25  1  0
 24 26  1  0
 26 27  2  0
 18 28  2  0
 28 29  1  0
 29 30  2  0
 30 31  1  0
 31 32  2  0
 32 33  1  0
 33 34  2  0
 15 35  1  0
 35 36  2  0
  7 37  2  0
 37  3  1  0
 36 12  1  0
 34 17  1  0
 27 21  1  0
 34 29  1  0
  1 38  1  0
  1 39  1  0
  1 40  1  0
  4 41  1  0
  5 42  1  0
  6 43  1  0
  8 44  1  0
  8 45  1  0
  9 46  1  0
 13 47  1  0
 14 48  1  0
 16 49  1  0
 16 50  1  0
 20 51  1  0
 20 52  1  0
 22 53  1  0
 23 54  1  0
 26 55  1  0
 27 56  1  0
 30 57  1  0
 31 58  1  0
 32 59  1  0
 35 60  1  0
 36 61  1  0
 37 62  1  0
M  END
>  <UniqueID>  (34) 
31

>  <SMILES>  (34) 
COc1cccc(CNC(=O)c2ccc(Cn3c(SCc4ccc(F)cc4)nc4cccnc43)cc2)c1

>  <Energy>  (34) 
100.94993295195593

>  <Genealogy>  (34) 
COc1cccc(CNC(=O)c2ccc(Cn3c(SCc4ccc(F)cc4)nc4cccnc43)cc2)c1 (3D coordinates assigned)
COc1cccc(CNC(=O)c2ccc(Cn3c(SCc4ccc(F)cc4)nc4cccnc43)cc2)c1 (optimized conformer: 100.94993295195593 kcal/mol)

>  <smiles>  (34) 
COc1cccc(CNC(=O)c2ccc(Cn3c(SCc4ccc(F)cc4)nc4cccnc43)cc2)c1

>  <score_type>  (34) 
oracle

>  <origin>  (34) 
adg

>  <m_score__min__energy>  (34) 
-9.8100000000000005

>  <m_primary>  (34) 
energy

$$$$
34:0
     RDKit          3D

 49 51  0  0  0  0  0  0  0  0999 V2000
   59.9190   34.6070   47.5450 C   0  0  0  0  0  0  0  0  0  0  0  0
   60.3160   34.5210   46.2700 C   0  0  0  0  0  0  0  0  0  0  0  0
   59.3700   34.7660   45.1290 C   0  0  0  0  0  0  0  0  0  0  0  0
   58.5710   33.5280   44.8330 C   0  0  0  0  0  0  0  0  0  0  0  0
   58.4150   33.0930   43.5080 C   0  0  0  0  0  0  0  0  0  0  0  0
   57.7790   31.8810   43.2360 C   0  0  0  0  0  0  0  0  0  0  0  0
   57.3010   31.0830   44.2860 C   0  0  0  0  0  0  0  0  0  0  0  0
   56.6760   29.4650   43.9590 S   0  0  0  0  0  0  0  0  0  0  0  0
   56.5660   29.2680   42.4710 O   0  0  0  0  0  0  0  0  0  0  0  0
   55.2990   29.3330   44.5500 O   0  0  0  0  0  0  0  0  0  0  0  0
   57.7210   28.2370   44.6430 N   0  0  0  0  0  0  0  0  0  0  0  0
   57.4090   27.9710   46.0680 C   0  0  0  0  0  0  0  0  0  0  0  0
   58.2740   28.7800   47.0530 C   0  0  0  0  0  0  0  0  0  0  0  0
   59.6910   28.7400   46.6830 N   0  0  0  0  0  0  0  0  0  0  0  0
   60.5930   29.6560   47.3170 C   0  0  0  0  0  0  0  0  0  0  0  0
   61.3710   30.4550   46.5400 N   0  0  0  0  0  0  0  0  0  0  0  0
   62.2000   31.3580   47.0630 N   0  0  0  0  0  0  0  0  0  0  0  0
   62.3090   31.5300   48.4040 C   0  0  0  0  0  0  0  0  0  0  0  0
   63.2660   32.5440   48.9540 C   0  0  0  0  0  0  0  0  0  0  0  0
   63.5900   33.8130   47.7400 Cl  0  0  0  0  0  0  0  0  0  0  0  0
   61.5190   30.7540   49.2550 C   0  0  0  0  0  0  0  0  0  0  0  0
   60.6570   29.7860   48.7200 C   0  0  0  0  0  0  0  0  0  0  0  0
   59.8870   28.9060   49.6300 C   0  0  0  0  0  0  0  0  0  0  0  0
   58.7870   29.2910   50.1050 O   0  0  0  0  0  0  0  0  0  0  0  0
   60.3760   27.6620   50.0070 O   0  0  0  0  0  0  0  0  0  0  0  0
   60.0880   28.0600   45.4490 C   0  0  0  0  0  0  0  0  0  0  0  0
   59.1470   28.5010   44.3290 C   0  0  0  0  0  0  0  0  0  0  0  0
   57.4090   31.5410   45.6060 C   0  0  0  0  0  0  0  0  0  0  0  0
   58.0500   32.7520   45.8800 C   0  0  0  0  0  0  0  0  0  0  0  0
   60.6363   34.4217   48.3581 H   0  0  0  0  0  0  0  0  0  0  0  0
   58.8753   34.8630   47.7800 H   0  0  0  0  0  0  0  0  0  0  0  0
   61.3630   34.2640   46.0515 H   0  0  0  0  0  0  0  0  0  0  0  0
   58.6847   35.5839   45.3961 H   0  0  0  0  0  0  0  0  0  0  0  0
   59.9523   35.0358   44.2356 H   0  0  0  0  0  0  0  0  0  0  0  0
   58.7955   33.7098   42.6805 H   0  0  0  0  0  0  0  0  0  0  0  0
   57.6521   31.5503   42.1946 H   0  0  0  0  0  0  0  0  0  0  0  0
   56.3531   28.2231   46.2452 H   0  0  0  0  0  0  0  0  0  0  0  0
   57.6231   26.9076   46.2508 H   0  0  0  0  0  0  0  0  0  0  0  0
   57.9338   29.8261   47.0513 H   0  0  0  0  0  0  0  0  0  0  0  0
   58.1662   28.3341   48.0528 H   0  0  0  0  0  0  0  0  0  0  0  0
   62.8299   33.0045   49.8527 H   0  0  0  0  0  0  0  0  0  0  0  0
   64.2114   32.0426   49.2084 H   0  0  0  0  0  0  0  0  0  0  0  0
   61.5729   30.9020   50.3437 H   0  0  0  0  0  0  0  0  0  0  0  0
   61.1229   28.3307   45.1925 H   0  0  0  0  0  0  0  0  0  0  0  0
   60.0294   26.9698   45.5835 H   0  0  0  0  0  0  0  0  0  0  0  0
   59.2772   29.5808   44.1645 H   0  0  0  0  0  0  0  0  0  0  0  0
   59.4031   27.9194   43.4311 H   0  0  0  0  0  0  0  0  0  0  0  0
   56.9878   30.9452   46.4292 H   0  0  0  0  0  0  0  0  0  0  0  0
   58.1466   33.0982   46.9196 H   0  0  0  0  0  0  0  0  0  0  0  0
  1  2  2  0
  2  3  1  0
  3  4  1  0
  4  5  2  0
  5  6  1  0
  6  7  2  0
  7  8  1  0
  8  9  2  0
  8 10  2  0
  8 11  1  0
 11 12  1  0
 12 13  1  0
 13 14  1  0
 14 15  1  0
 15 16  2  0
 16 17  1  0
 17 18  2  0
 18 19  1  0
 19 20  1  0
 18 21  1  0
 21 22  2  0
 22 23  1  0
 23 24  2  0
 23 25  1  0
 14 26  1  0
 26 27  1  0
  7 28  1  0
 28 29  2  0
 29  4  1  0
 27 11  1  0
 22 15  1  0
  1 30  1  0
  1 31  1  0
  2 32  1  0
  3 33  1  0
  3 34  1  0
  5 35  1  0
  6 36  1  0
 12 37  1  0
 12 38  1  0
 13 39  1  0
 13 40  1  0
 19 41  1  0
 19 42  1  0
 21 43  1  0
 26 44  1  0
 26 45  1  0
 27 46  1  0
 27 47  1  0
 28 48  1  0
 29 49  1  0
M  CHG  1  25  -1
M  END
>  <UniqueID>  (35) 
32

>  <SMILES>  (35) 
C=CCc1ccc(S(=O)(=O)N2CCN(c3nnc(CCl)cc3C(=O)[O-])CC2)cc1

>  <Energy>  (35) 
58.50586354996642

>  <Genealogy>  (35) 
C=CCc1ccc(S(=O)(=O)N2CCN(c3nnc(CCl)cc3C(=O)[O-])CC2)cc1 (protonated)
C=CCc1ccc(S(=O)(=O)N2CCN(c3nnc(CCl)cc3C(=O)[O-])CC2)cc1 (3D coordinates assigned)
C=CCc1ccc(S(=O)(=O)N2CCN(c3nnc(CCl)cc3C(=O)[O-])CC2)cc1 (nonaromatic ring conformer: 58.50586354996642 kcal/mol)

>  <smiles>  (35) 
C=CCc1ccc(S(=O)(=O)N2CCN(c3nnc(CCl)cc3C(=O)O)CC2)cc1

>  <score_type>  (35) 
oracle

>  <origin>  (35) 
adg

>  <m_score__min__energy>  (35) 
-11.52

>  <m_primary>  (35) 
energy

$$$$
35:0
     RDKit          3D

 47 50  0  0  0  0  0  0  0  0999 V2000
   55.7810   25.5250   45.9340 C   0  0  0  0  0  0  0  0  0  0  0  0
   56.5870   26.6880   46.0970 O   0  0  0  0  0  0  0  0  0  0  0  0
   57.9870   26.6820   46.2110 C   0  0  0  0  0  0  0  0  0  0  0  0
   58.6990   25.4920   46.4720 C   0  0  0  0  0  0  0  0  0  0  0  0
   60.0890   25.5070   46.5730 C   0  0  0  0  0  0  0  0  0  0  0  0
   60.7890   26.7010   46.4160 C   0  0  0  0  0  0  0  0  0  0  0  0
   60.1010   27.8880   46.1570 C   0  0  0  0  0  0  0  0  0  0  0  0
   58.6940   27.8990   46.0580 C   0  0  0  0  0  0  0  0  0  0  0  0
   57.9240   29.1810   45.7390 C   0  0  2  0  0  0  0  0  0  0  0  0
   57.3970   29.2350   44.3050 C   0  0  0  0  0  0  0  0  0  0  0  0
   56.2700   30.1930   44.1990 C   0  0  0  0  0  0  0  0  0  0  0  0
   55.1260   29.7640   43.8930 O   0  0  0  0  0  0  0  0  0  0  0  0
   56.4280   31.5810   44.4920 N   0  0  0  0  0  0  0  0  0  0  0  0
   57.3430   32.2390   45.1500 C   0  0  0  0  0  0  0  0  0  0  0  0
   57.2790   33.6370   45.0320 C   0  0  0  0  0  0  0  0  0  0  0  0
   58.1400   34.4700   45.7400 C   0  0  0  0  0  0  0  0  0  0  0  0
   59.1130   33.9270   46.5820 C   0  0  0  0  0  0  0  0  0  0  0  0
   59.9770   34.7880   47.3520 N   0  0  0  0  0  0  0  0  0  0  0  0
   61.2110   34.1010   47.6370 C   0  0  0  0  0  0  0  0  0  0  0  0
   62.1100   33.7890   46.6010 C   0  0  0  0  0  0  0  0  0  0  0  0
   63.2920   33.0940   46.8760 C   0  0  0  0  0  0  0  0  0  0  0  0
   63.5840   32.7000   48.1850 C   0  0  0  0  0  0  0  0  0  0  0  0
   62.6950   32.9960   49.2200 C   0  0  0  0  0  0  0  0  0  0  0  0
   61.5110   33.6910   48.9500 C   0  0  0  0  0  0  0  0  0  0  0  0
   59.2150   32.5340   46.6930 C   0  0  0  0  0  0  0  0  0  0  0  0
   58.3750   31.6680   45.9720 C   0  0  0  0  0  0  0  0  0  0  0  0
   58.6600   30.3970   46.0790 N   0  0  0  0  0  0  0  0  0  0  0  0
   55.5059   25.1281   46.9223 H   0  0  0  0  0  0  0  0  0  0  0  0
   54.8691   25.7860   45.3769 H   0  0  0  0  0  0  0  0  0  0  0  0
   56.3455   24.7628   45.3769 H   0  0  0  0  0  0  0  0  0  0  0  0
   58.1529   24.5453   46.5967 H   0  0  0  0  0  0  0  0  0  0  0  0
   60.6345   24.5738   46.7772 H   0  0  0  0  0  0  0  0  0  0  0  0
   61.8860   26.7087   46.4962 H   0  0  0  0  0  0  0  0  0  0  0  0
   60.6625   28.8251   46.0287 H   0  0  0  0  0  0  0  0  0  0  0  0
   57.0445   29.1426   46.3986 H   0  0  0  0  0  0  0  0  0  0  0  0
   58.2076   29.5547   43.6337 H   0  0  0  0  0  0  0  0  0  0  0  0
   57.0398   28.2343   44.0205 H   0  0  0  0  0  0  0  0  0  0  0  0
   56.5294   34.0848   44.3630 H   0  0  0  0  0  0  0  0  0  0  0  0
   58.0538   35.5617   45.6360 H   0  0  0  0  0  0  0  0  0  0  0  0
   59.5070   35.0690   48.2440 H   0  0  0  0  0  0  0  0  0  0  0  0
   60.1710   35.6710   46.8230 H   0  0  0  0  0  0  0  0  0  0  0  0
   61.8820   34.0934   45.5688 H   0  0  0  0  0  0  0  0  0  0  0  0
   63.9925   32.8572   46.0616 H   0  0  0  0  0  0  0  0  0  0  0  0
   64.5156   32.1560   48.3999 H   0  0  0  0  0  0  0  0  0  0  0  0
   62.9256   32.6825   50.2488 H   0  0  0  0  0  0  0  0  0  0  0  0
   60.8111   33.9182   49.7677 H   0  0  0  0  0  0  0  0  0  0  0  0
   59.9744   32.1058   47.3638 H   0  0  0  0  0  0  0  0  0  0  0  0
  1  2  1  0
  2  3  1  0
  3  4  2  0
  4  5  1  0
  5  6  2  0
  6  7  1  0
  7  8  2  0
  8  9  1  0
  9 10  1  0
 10 11  1  0
 11 12  2  0
 11 13  1  0
 13 14  2  0
 14 15  1  0
 15 16  2  0
 16 17  1  0
 17 18  1  0
 18 19  1  0
 19 20  2  0
 20 21  1  0
 21 22  2  0
 22 23  1  0
 23 24  2  0
 17 25  2  0
 25 26  1  0
 26 27  2  0
  8  3  1  0
 27  9  1  0
 26 14  1  0
 24 19  1  0
  1 28  1  0
  1 29  1  0
  1 30  1  0
  4 31  1  0
  5 32  1  0
  6 33  1  0
  7 34  1  0
  9 35  1  1
 10 36  1  0
 10 37  1  0
 15 38  1  0
 16 39  1  0
 18 40  1  0
 18 41  1  0
 20 42  1  0
 21 43  1  0
 22 44  1  0
 23 45  1  0
 24 46  1  0
 25 47  1  0
M  CHG  1  18   1
M  END
>  <UniqueID>  (36) 
33

>  <SMILES>  (36) 
COc1ccccc1[C@@H]1CC(=O)N=c2ccc([NH2+]c3ccccc3)cc2=N1

>  <Energy>  (36) 
73.7770850931392

>  <Genealogy>  (36) 
COc1ccccc1C1CC(=O)N=c2ccc([NH2+]c3ccccc3)cc2=N1 (protonated)
COc1ccccc1[C@@H]1CC(=O)N=c2ccc([NH2+]c3ccccc3)cc2=N1 (chirality)
COc1ccccc1[C@@H]1CC(=O)N=c2ccc([NH2+]c3ccccc3)cc2=N1 (3D coordinates assigned)
COc1ccccc1[C@@H]1CC(=O)N=c2ccc([NH2+]c3ccccc3)cc2=N1 (nonaromatic ring conformer: 73.7770850931392 kcal/mol)

>  <smiles>  (36) 
COc1ccccc1C1CC(=O)N=c2ccc(Nc3ccccc3)cc2=N1

>  <score_type>  (36) 
oracle

>  <origin>  (36) 
adg

>  <m_score__min__energy>  (36) 
-5.1399999999999997

>  <m_primary>  (36) 
energy

$$$$
36:0
     RDKit          3D

 49 51  0  0  0  0  0  0  0  0999 V2000
   55.1830   26.4040   46.0460 N   0  0  0  0  0  0  0  0  0  0  0  0
   56.3000   25.7450   46.6380 C   0  0  0  0  0  0  0  0  0  0  0  0
   56.1280   24.6610   47.2590 O   0  0  0  0  0  0  0  0  0  0  0  0
   57.6640   26.3710   46.5560 C   0  0  1  0  0  0  0  0  0  0  0  0
   58.5300   25.6950   45.4740 C   0  0  0  0  0  0  0  0  0  0  0  0
   57.8450   24.5330   44.7970 C   0  0  0  0  0  0  0  0  0  0  0  0
   58.0270   23.2220   45.2700 C   0  0  0  0  0  0  0  0  0  0  0  0
   57.3820   22.1500   44.6440 C   0  0  0  0  0  0  0  0  0  0  0  0
   56.5580   22.3780   43.5380 C   0  0  0  0  0  0  0  0  0  0  0  0
   55.9180   21.3120   42.9170 O   0  0  0  0  0  0  0  0  0  0  0  0
   56.3800   23.6780   43.0560 C   0  0  0  0  0  0  0  0  0  0  0  0
   57.0210   24.7520   43.6810 C   0  0  0  0  0  0  0  0  0  0  0  0
   57.5340   27.8130   46.3400 N   0  0  0  0  0  0  0  0  0  0  0  0
   58.6360   28.7260   46.3580 C   0  0  0  0  0  0  0  0  0  0  0  0
   59.8100   28.3010   46.5260 O   0  0  0  0  0  0  0  0  0  0  0  0
   58.3810   30.1820   46.2960 C   0  0  0  0  0  0  0  0  0  0  0  0
   58.9990   31.0330   47.2460 C   0  0  0  0  0  0  0  0  0  0  0  0
   60.1040   30.4060   48.5260 S   0  0  0  0  0  0  0  0  0  0  0  0
   59.3430   31.3900   49.8180 C   0  0  0  0  0  0  0  0  0  0  0  0
   59.8900   32.6320   50.1670 C   0  0  0  0  0  0  0  0  0  0  0  0
   59.3000   33.3970   51.1780 C   0  0  0  0  0  0  0  0  0  0  0  0
   58.1590   32.9280   51.8360 C   0  0  0  0  0  0  0  0  0  0  0  0
   57.6040   31.6930   51.4820 C   0  0  0  0  0  0  0  0  0  0  0  0
   56.1700   31.1050   52.3040 Cl  0  0  0  0  0  0  0  0  0  0  0  0
   58.1930   30.9270   50.4700 C   0  0  0  0  0  0  0  0  0  0  0  0
   58.7770   32.4140   47.2000 C   0  0  0  0  0  0  0  0  0  0  0  0
   57.9680   32.9650   46.2120 C   0  0  0  0  0  0  0  0  0  0  0  0
   57.3590   32.1440   45.2680 C   0  0  0  0  0  0  0  0  0  0  0  0
   57.5500   30.7530   45.2940 C   0  0  0  0  0  0  0  0  0  0  0  0
   56.6420   29.7640   44.1360 S   0  0  0  0  0  0  0  0  0  0  0  0
   55.1510   29.2790   44.8580 N   0  0  0  0  0  0  0  0  0  0  0  0
   57.4370   28.5570   43.7300 O   0  0  0  0  0  0  0  0  0  0  0  0
   56.3360   30.5660   42.9010 O   0  0  0  0  0  0  0  0  0  0  0  0
   55.1330   27.4470   46.0110 H   0  0  0  0  0  0  0  0  0  0  0  0
   58.1865   26.2145   47.5113 H   0  0  0  0  0  0  0  0  0  0  0  0
   58.7812   26.4451   44.7096 H   0  0  0  0  0  0  0  0  0  0  0  0
   59.4243   25.2970   45.9759 H   0  0  0  0  0  0  0  0  0  0  0  0
   58.6795   23.0381   46.1363 H   0  0  0  0  0  0  0  0  0  0  0  0
   57.5233   21.1268   45.0224 H   0  0  0  0  0  0  0  0  0  0  0  0
   55.7345   23.8564   42.1834 H   0  0  0  0  0  0  0  0  0  0  0  0
   56.8793   25.7730   43.2969 H   0  0  0  0  0  0  0  0  0  0  0  0
   60.7837   33.0053   49.6456 H   0  0  0  0  0  0  0  0  0  0  0  0
   59.7340   34.3688   51.4559 H   0  0  0  0  0  0  0  0  0  0  0  0
   57.6973   33.5301   52.6324 H   0  0  0  0  0  0  0  0  0  0  0  0
   57.7524   29.9599   50.1861 H   0  0  0  0  0  0  0  0  0  0  0  0
   59.2455   33.0680   47.9502 H   0  0  0  0  0  0  0  0  0  0  0  0
   57.8091   34.0529   46.1768 H   0  0  0  0  0  0  0  0  0  0  0  0
   56.7200   32.5901   44.4917 H   0  0  0  0  0  0  0  0  0  0  0  0
   55.3850   28.6020   45.6170 H   0  0  0  0  0  0  0  0  0  0  0  0
  1  2  1  0
  2  3  2  0
  2  4  1  0
  4  5  1  0
  5  6  1  0
  6  7  2  0
  7  8  1  0
  8  9  2  0
  9 10  1  0
  9 11  1  0
 11 12  2  0
  4 13  1  0
 13 14  1  0
 14 15  2  0
 14 16  1  0
 16 17  1  0
 17 18  1  0
 18 19  1  0
 19 20  2  0
 20 21  1  0
 21 22  2  0
 22 23  1  0
 23 24  1  0
 23 25  2  0
 17 26  2  0
 26 27  1  0
 27 28  2  0
 28 29  1  0
 29 30  1  0
 30 31  1  0
 30 32  2  0
 30 33  2  0
 12  6  1  0
 29 16  2  0
 25 19  1  0
  1 34  1  0
  4 35  1  1
  5 36  1  0
  5 37  1  0
  7 38  1  0
  8 39  1  0
 11 40  1  0
 12 41  1  0
 20 42  1  0
 21 43  1  0
 22 44  1  0
 25 45  1  0
 26 46  1  0
 27 47  1  0
 28 48  1  0
 31 49  1  0
M  CHG  4   1  -1  10  -1  13  -1  31  -1
M  END
>  <UniqueID>  (37) 
34

>  <SMILES>  (37) 
[NH-]C(=O)[C@@H](Cc1ccc([O-])cc1)[N-]C(=O)c1c(Sc2cccc(Cl)c2)cccc1S([NH-])(=O)=O

>  <Energy>  (37) 
51.96887149636991

>  <Genealogy>  (37) 
[NH-]C(=O)C(Cc1ccc([O-])cc1)[N-]C(=O)c1c(Sc2cccc(Cl)c2)cccc1S([NH-])(=O)=O (protonated)
[NH-]C(=O)[C@@H](Cc1ccc([O-])cc1)[N-]C(=O)c1c(Sc2cccc(Cl)c2)cccc1S([NH-])(=O)=O (chirality)
[NH-]C(=O)[C@@H](Cc1ccc([O-])cc1)[N-]C(=O)c1c(Sc2cccc(Cl)c2)cccc1S([NH-])(=O)=O (3D coordinates assigned)
[NH-]C(=O)[C@@H](Cc1ccc([O-])cc1)[N-]C(=O)c1c(Sc2cccc(Cl)c2)cccc1S([NH-])(=O)=O (optimized conformer: 51.96887149636991 kcal/mol)

>  <smiles>  (37) 
NC(=O)C(Cc1ccc(O)cc1)NC(=O)c1c(Sc2cccc(Cl)c2)cccc1S(N)(=O)=O

>  <score_type>  (37) 
oracle

>  <origin>  (37) 
adg

>  <m_score__min__energy>  (37) 
-19.859999999999999

>  <m_primary>  (37) 
energy

$$$$
37:0
     RDKit          3D

 46 48  0  0  0  0  0  0  0  0999 V2000
   52.1730   24.4730   44.7230 C   0  0  0  0  0  0  0  0  0  0  0  0
   53.5220   24.0630   45.2150 C   0  0  0  0  0  0  0  0  0  0  0  0
   53.9870   22.7960   45.1790 N   0  0  0  0  0  0  0  0  0  0  0  0
   55.2470   22.9070   45.6560 C   0  0  0  0  0  0  0  0  0  0  0  0
   56.0190   21.9180   45.7750 O   0  0  0  0  0  0  0  0  0  0  0  0
   55.5980   24.1700   45.9780 N   0  0  0  0  0  0  0  0  0  0  0  0
   56.8940   24.6400   46.4750 C   0  0  0  0  0  0  0  0  0  0  0  0
   57.9250   24.7420   45.3420 C   0  0  0  0  0  0  0  0  0  0  0  0
   57.9930   26.1570   44.7420 C   0  0  0  0  0  0  0  0  0  0  0  0
   57.7520   27.1930   45.7710 N   0  0  0  0  0  0  0  0  0  0  0  0
   59.0070   27.8990   46.1480 C   0  0  0  0  0  0  0  0  0  0  0  0
   58.7720   29.3420   46.6100 C   0  0  0  0  0  0  0  0  0  0  0  0
   58.0740   30.0930   45.5600 N   0  0  0  0  0  0  0  0  0  0  0  0
   58.2740   31.5160   45.4090 C   0  0  0  0  0  0  0  0  0  0  0  0
   57.9750   32.1580   44.1930 C   0  0  0  0  0  0  0  0  0  0  0  0
   58.1720   33.5340   44.0500 C   0  0  0  0  0  0  0  0  0  0  0  0
   58.6690   34.2860   45.1160 C   0  0  0  0  0  0  0  0  0  0  0  0
   58.9720   33.6630   46.3300 C   0  0  0  0  0  0  0  0  0  0  0  0
   59.5950   34.6080   47.6700 Cl  0  0  0  0  0  0  0  0  0  0  0  0
   58.7770   32.2850   46.4770 C   0  0  0  0  0  0  0  0  0  0  0  0
   57.1280   29.3770   44.6920 C   0  0  0  0  0  0  0  0  0  0  0  0
   56.6390   28.0980   45.3810 C   0  0  0  0  0  0  0  0  0  0  0  0
   54.5060   24.9020   45.6880 C   0  0  0  0  0  0  0  0  0  0  0  0
   54.3940   26.2820   45.8390 O   0  0  0  0  0  0  0  0  0  0  0  0
   51.5148   24.6730   45.5814 H   0  0  0  0  0  0  0  0  0  0  0  0
   52.2664   25.3833   44.1126 H   0  0  0  0  0  0  0  0  0  0  0  0
   51.7441   23.6647   44.1126 H   0  0  0  0  0  0  0  0  0  0  0  0
   56.7639   25.6326   46.9309 H   0  0  0  0  0  0  0  0  0  0  0  0
   57.2641   23.9157   47.2156 H   0  0  0  0  0  0  0  0  0  0  0  0
   58.9159   24.4784   45.7403 H   0  0  0  0  0  0  0  0  0  0  0  0
   57.6173   24.0515   44.5430 H   0  0  0  0  0  0  0  0  0  0  0  0
   58.9902   26.3125   44.3045 H   0  0  0  0  0  0  0  0  0  0  0  0
   57.2110   26.2446   43.9733 H   0  0  0  0  0  0  0  0  0  0  0  0
   59.4883   27.3437   46.9665 H   0  0  0  0  0  0  0  0  0  0  0  0
   59.6406   27.9421   45.2499 H   0  0  0  0  0  0  0  0  0  0  0  0
   58.1600   29.3377   47.5240 H   0  0  0  0  0  0  0  0  0  0  0  0
   59.7413   29.8200   46.8150 H   0  0  0  0  0  0  0  0  0  0  0  0
   57.5832   31.5721   43.3485 H   0  0  0  0  0  0  0  0  0  0  0  0
   57.9349   34.0259   43.0951 H   0  0  0  0  0  0  0  0  0  0  0  0
   58.8222   35.3691   45.0005 H   0  0  0  0  0  0  0  0  0  0  0  0
   59.0183   31.7986   47.4337 H   0  0  0  0  0  0  0  0  0  0  0  0
   56.2665   30.0272   44.4797 H   0  0  0  0  0  0  0  0  0  0  0  0
   57.6358   29.1071   43.7543 H   0  0  0  0  0  0  0  0  0  0  0  0
   56.0799   28.3779   46.2860 H   0  0  0  0  0  0  0  0  0  0  0  0
   56.0068   27.5555   44.6627 H   0  0  0  0  0  0  0  0  0  0  0  0
   54.3620   26.7150   46.7520 H   0  0  0  0  0  0  0  0  0  0  0  0
  1  2  1  0
  2  3  1  0
  3  4  1  0
  4  5  2  0
  4  6  1  0
  6  7  1  0
  7  8  1  0
  8  9  1  0
  9 10  1  0
 10 11  1  0
 11 12  1  0
 12 13  1  0
 13 14  1  0
 14 15  2  0
 15 16  1  0
 16 17  2  0
 17 18  1  0
 18 19  1  0
 18 20  2  0
 13 21  1  0
 21 22  1  0
  6 23  1  0
 23 24  1  0
 23  2  2  0
 22 10  1  0
 20 14  1  0
  1 25  1  0
  1 26  1  0
  1 27  1  0
  7 28  1  0
  7 29  1  0
  8 30  1  0
  8 31  1  0
  9 32  1  0
  9 33  1  0
 11 34  1  0
 11 35  1  0
 12 36  1  0
 12 37  1  0
 15 38  1  0
 16 39  1  0
 17 40  1  0
 20 41  1  0
 21 42  1  0
 21 43  1  0
 22 44  1  0
 22 45  1  0
 24 46  1  0
M  CHG  1   3  -1
M  END
>  <UniqueID>  (38) 
35

>  <SMILES>  (38) 
Cc1[n-]c(=O)n(CCCN2CCN(c3cccc(Cl)c3)CC2)c1O

>  <Energy>  (38) 
84.51782940648273

>  <Genealogy>  (38) 
Cc1[n-]c(=O)n(CCCN2CCN(c3cccc(Cl)c3)CC2)c1O (protonated)
Cc1[n-]c(=O)n(CCCN2CCN(c3cccc(Cl)c3)CC2)c1O (3D coordinates assigned)
Cc1[n-]c(=O)n(CCCN2CCN(c3cccc(Cl)c3)CC2)c1O (nonaromatic ring conformer: 84.51782940648273 kcal/mol)

>  <smiles>  (38) 
Cc1[nH]c(=O)n(CCCN2CCN(c3cccc(Cl)c3)CC2)c1O

>  <score_type>  (38) 
oracle

>  <origin>  (38) 
adg

>  <m_score__min__energy>  (38) 
-9.9900000000000002

>  <m_primary>  (38) 
energy

$$$$
38:0
     RDKit          3D

 38 40  0  0  0  0  0  0  0  0999 V2000
   55.1690   26.7000   45.9950 N   0  0  0  0  0  0  0  0  0  0  0  0
   56.0950   25.2440   45.9220 S   0  0  0  0  0  0  0  0  0  0  0  0
   55.6860   24.3270   47.0410 O   0  0  0  0  0  0  0  0  0  0  0  0
   55.8130   24.5590   44.6130 O   0  0  0  0  0  0  0  0  0  0  0  0
   57.8180   25.6190   46.0610 C   0  0  0  0  0  0  0  0  0  0  0  0
   58.7570   24.5870   45.9180 C   0  0  0  0  0  0  0  0  0  0  0  0
   60.1210   24.8580   45.9990 C   0  0  0  0  0  0  0  0  0  0  0  0
   60.5660   26.1550   46.2470 C   0  0  0  0  0  0  0  0  0  0  0  0
   59.6490   27.2050   46.4130 C   0  0  0  0  0  0  0  0  0  0  0  0
   60.1590   28.5460   46.7710 C   0  0  0  0  0  0  0  0  0  0  0  0
   60.2750   29.0660   48.0560 C   0  0  0  0  0  0  0  0  0  0  0  0
   60.8630   30.3350   48.0920 C   0  0  0  0  0  0  0  0  0  0  0  0
   61.2220   30.8190   46.8410 C   0  0  0  0  0  0  0  0  0  0  0  0
   60.8160   29.6610   45.6930 S   0  0  0  0  0  0  0  0  0  0  0  0
   58.2620   26.9420   46.2850 C   0  0  0  0  0  0  0  0  0  0  0  0
   57.3170   28.0180   46.3140 N   0  0  0  0  0  0  0  0  0  0  0  0
   57.0080   28.9560   44.8890 S   0  0  0  0  0  0  0  0  0  0  0  0
   55.5280   29.0070   44.6360 O   0  0  0  0  0  0  0  0  0  0  0  0
   57.6700   28.3020   43.7070 O   0  0  0  0  0  0  0  0  0  0  0  0
   57.6160   30.5930   45.0990 C   0  0  0  0  0  0  0  0  0  0  0  0
   57.9530   31.0460   46.3820 C   0  0  0  0  0  0  0  0  0  0  0  0
   58.4580   32.3380   46.5600 C   0  0  0  0  0  0  0  0  0  0  0  0
   58.6280   33.1820   45.4580 C   0  0  0  0  0  0  0  0  0  0  0  0
   59.2790   34.7960   45.6800 Cl  0  0  0  0  0  0  0  0  0  0  0  0
   58.2870   32.7360   44.1770 C   0  0  0  0  0  0  0  0  0  0  0  0
   57.7820   31.4450   43.9970 C   0  0  0  0  0  0  0  0  0  0  0  0
   55.1740   27.1130   45.0350 H   0  0  0  0  0  0  0  0  0  0  0  0
   58.4141   23.5569   45.7407 H   0  0  0  0  0  0  0  0  0  0  0  0
   60.8498   24.0448   45.8666 H   0  0  0  0  0  0  0  0  0  0  0  0
   61.6451   26.3579   46.3133 H   0  0  0  0  0  0  0  0  0  0  0  0
   59.9373   28.5315   48.9562 H   0  0  0  0  0  0  0  0  0  0  0  0
   61.0256   30.8966   49.0238 H   0  0  0  0  0  0  0  0  0  0  0  0
   61.6913   31.7927   46.6367 H   0  0  0  0  0  0  0  0  0  0  0  0
   56.6260   28.0700   47.0940 H   0  0  0  0  0  0  0  0  0  0  0  0
   57.8200   30.3841   47.2504 H   0  0  0  0  0  0  0  0  0  0  0  0
   58.7218   32.6907   47.5680 H   0  0  0  0  0  0  0  0  0  0  0  0
   58.4163   33.4015   43.3107 H   0  0  0  0  0  0  0  0  0  0  0  0
   57.5141   31.0963   42.9887 H   0  0  0  0  0  0  0  0  0  0  0  0
  1  2  1  0
  2  3  2  0
  2  4  2  0
  2  5  1  0
  5  6  2  0
  6  7  1  0
  7  8  2  0
  8  9  1  0
  9 10  1  0
 10 11  2  0
 11 12  1  0
 12 13  2  0
 13 14  1  0
  9 15  2  0
 15 16  1  0
 16 17  1  0
 17 18  2  0
 17 19  2  0
 17 20  1  0
 20 21  2  0
 21 22  1  0
 22 23  2  0
 23 24  1  0
 23 25  1  0
 25 26  2  0
 15  5  1  0
 26 20  1  0
 14 10  1  0
  1 27  1  0
  6 28  1  0
  7 29  1  0
  8 30  1  0
 11 31  1  0
 12 32  1  0
 13 33  1  0
 16 34  1  0
 21 35  1  0
 22 36  1  0
 25 37  1  0
 26 38  1  0
M  CHG  1   1  -1
M  END
>  <UniqueID>  (39) 
36

>  <SMILES>  (39) 
[NH-]S(=O)(=O)c1cccc(-c2cccs2)c1NS(=O)(=O)c1ccc(Cl)cc1

>  <Energy>  (39) 
75.80934456198479

>  <Genealogy>  (39) 
[NH-]S(=O)(=O)c1cccc(-c2cccs2)c1NS(=O)(=O)c1ccc(Cl)cc1 (protonated)
[NH-]S(=O)(=O)c1cccc(-c2cccs2)c1NS(=O)(=O)c1ccc(Cl)cc1 (3D coordinates assigned)
[NH-]S(=O)(=O)c1cccc(-c2cccs2)c1NS(=O)(=O)c1ccc(Cl)cc1 (optimized conformer: 75.80934456198479 kcal/mol)

>  <smiles>  (39) 
NS(=O)(=O)c1cccc(-c2cccs2)c1NS(=O)(=O)c1ccc(Cl)cc1

>  <score_type>  (39) 
oracle

>  <origin>  (39) 
adg

>  <m_score__min__energy>  (39) 
-11.65

>  <m_primary>  (39) 
energy

$$$$
39:0
     RDKit          3D

 62 65  0  0  0  0  0  0  0  0999 V2000
   53.8370   26.5900   46.3090 H   0  0  0  0  0  0  0  0  0  0  0  0
   58.9060   26.4390   46.8240 N   0  0  0  0  0  0  0  0  0  0  0  0
   57.8240   25.7190   46.8570 C   0  0  0  0  0  0  0  0  0  0  0  0
   57.8150   24.4920   47.4440 N   0  0  0  0  0  0  0  0  0  0  0  0
   56.6790   23.7510   47.4730 C   0  0  0  0  0  0  0  0  0  0  0  0
   56.6960   22.5790   48.0350 N   0  0  0  0  0  0  0  0  0  0  0  0
   57.0660   21.3360   47.3590 C   0  0  0  0  0  0  0  0  0  0  0  0
   57.9990   21.4930   46.7979 H   0  0  0  0  0  0  0  0  0  0  0  0
   57.2053   20.5484   48.1142 H   0  0  0  0  0  0  0  0  0  0  0  0
   55.9600   20.9020   46.3880 C   0  0  0  0  0  0  0  0  0  0  0  0
   55.5617   19.9301   46.7148 H   0  0  0  0  0  0  0  0  0  0  0  0
   55.1778   21.6754   46.3961 H   0  0  0  0  0  0  0  0  0  0  0  0
   56.4780   20.7670   44.9510 C   0  0  0  0  0  0  0  0  0  0  0  0
   57.4670   20.2858   44.9682 H   0  0  0  0  0  0  0  0  0  0  0  0
   55.7651   20.1582   44.3757 H   0  0  0  0  0  0  0  0  0  0  0  0
   56.5940   22.0760   44.3150 N   0  0  0  0  0  0  0  0  0  0  0  0
   55.7630   22.5250   43.3870 N   0  0  0  0  0  0  0  0  0  0  0  0
   56.2040   23.7370   43.0020 C   0  0  0  0  0  0  0  0  0  0  0  0
   55.7255   24.3741   42.2436 H   0  0  0  0  0  0  0  0  0  0  0  0
   57.3500   24.0590   43.7050 C   0  0  0  0  0  0  0  0  0  0  0  0
   57.9523   24.9758   43.6236 H   0  0  0  0  0  0  0  0  0  0  0  0
   57.5710   22.9780   44.5300 C   0  0  0  0  0  0  0  0  0  0  0  0
   58.4025   22.8700   45.2420 H   0  0  0  0  0  0  0  0  0  0  0  0
   55.5440   24.2430   46.9080 N   0  0  0  0  0  0  0  0  0  0  0  0
   55.5450   25.4690   46.3230 C   0  0  0  0  0  0  0  0  0  0  0  0
   54.4660   25.9380   45.7880 N   0  0  0  0  0  0  0  0  0  0  0  0
   59.6450   26.7980   45.6080 C   0  0  0  0  0  0  0  0  0  0  0  0
   60.1671   25.9120   45.2177 H   0  0  0  0  0  0  0  0  0  0  0  0
   58.6750   27.2800   44.5150 C   0  0  0  0  0  0  0  0  0  0  0  0
   59.2244   27.3913   43.5685 H   0  0  0  0  0  0  0  0  0  0  0  0
   57.8702   26.5382   44.4050 H   0  0  0  0  0  0  0  0  0  0  0  0
   58.0510   28.6320   44.8980 C   0  0  0  0  0  0  0  0  0  0  0  0
   57.4988   29.0170   44.0280 H   0  0  0  0  0  0  0  0  0  0  0  0
   57.3999   28.4478   45.7652 H   0  0  0  0  0  0  0  0  0  0  0  0
   59.0430   29.6600   45.3150 N   0  0  0  0  0  0  0  0  0  0  0  0
   58.7050   30.2640   46.6220 C   0  0  0  0  0  0  0  0  0  0  0  0
   57.6144   30.3911   46.6889 H   0  0  0  0  0  0  0  0  0  0  0  0
   59.0635   29.5979   47.4206 H   0  0  0  0  0  0  0  0  0  0  0  0
   59.3670   31.6030   46.7800 C   0  0  0  0  0  0  0  0  0  0  0  0
   58.8300   32.8590   46.5380 C   0  0  0  0  0  0  0  0  0  0  0  0
   57.4520   33.1690   46.0320 C   0  0  0  0  0  0  0  0  0  0  0  0
   56.9704   32.2364   45.7027 H   0  0  0  0  0  0  0  0  0  0  0  0
   56.8737   33.6321   46.8451 H   0  0  0  0  0  0  0  0  0  0  0  0
   57.5120   34.1420   44.8590 C   0  0  0  0  0  0  0  0  0  0  0  0
   57.5755   35.1720   45.2399 H   0  0  0  0  0  0  0  0  0  0  0  0
   58.3983   33.9226   44.2456 H   0  0  0  0  0  0  0  0  0  0  0  0
   56.6054   34.0331   44.2456 H   0  0  0  0  0  0  0  0  0  0  0  0
   59.7780   33.7960   46.7380 N   0  0  0  0  0  0  0  0  0  0  0  0
   60.8790   33.1700   47.1230 N   0  0  0  0  0  0  0  0  0  0  0  0
   62.1500   33.8400   47.3590 C   0  0  0  0  0  0  0  0  0  0  0  0
   62.3214   33.9303   48.4418 H   0  0  0  0  0  0  0  0  0  0  0  0
   62.9632   33.2534   46.9067 H   0  0  0  0  0  0  0  0  0  0  0  0
   62.1256   34.8424   46.9067 H   0  0  0  0  0  0  0  0  0  0  0  0
   60.6750   31.8390   47.1460 C   0  0  0  0  0  0  0  0  0  0  0  0
   61.4207   31.0748   47.4103 H   0  0  0  0  0  0  0  0  0  0  0  0
   60.4560   29.2180   45.2340 C   0  0  0  0  0  0  0  0  0  0  0  0
   60.7299   29.1083   44.1743 H   0  0  0  0  0  0  0  0  0  0  0  0
   61.0708   29.9788   45.7372 H   0  0  0  0  0  0  0  0  0  0  0  0
   60.7020   27.8770   45.9470 C   0  0  0  0  0  0  0  0  0  0  0  0
   61.6921   27.5007   45.6502 H   0  0  0  0  0  0  0  0  0  0  0  0
   60.6368   28.0673   47.0285 H   0  0  0  0  0  0  0  0  0  0  0  0
   56.6860   26.2040   46.2990 N   0  0  0  0  0  0  0  0  0  0  0  0
  1  2  1  0
  2  3  2  0
  3  4  1  0
  4  5  1  0
  5  6  2  3
  6  7  1  0
  7  8  1  0
  7  9  1  0
  7 10  1  0
 10 11  1  0
 10 12  1  0
 10 13  1  0
 13 14  1  0
 13 15  1  0
 13 16  1  0
 16 17  1  0
 17 18  2  0
 18 19  1  0
 18 20  1  0
 20 21  1  0
 20 22  2  0
 22 23  1  0
  5 24  1  0
 24 25  1  0
 25 26  2  0
 26 27  1  0
 27 28  1  0
 27 29  1  0
 29 30  1  0
 29 31  1  0
 29 32  1  0
 32 33  1  0
 32 34  1  0
 32 35  1  0
 35 36  1  0
 36 37  1  0
 36 38  1  0
 36 39  1  0
 39 40  1  0
 40 41  1  0
 41 42  1  0
 41 43  1  0
 41 44  1  0
 44 45  1  0
 44 46  1  0
 44 47  1  0
 40 48  2  0
 48 49  1  0
 49 50  1  0
 50 51  1  0
 50 52  1  0
 50 53  1  0
 49 54  1  0
 54 55  1  0
 35 56  1  0
 56 57  1  0
 56 58  1  0
 56 59  1  0
 59 60  1  0
 59 61  1  0
 25 62  1  0
 62  3  1  0
 22 16  1  0
 59 27  1  0
 54 39  2  0
M  CHG  3   4  -1  24  -1  62  -1
M  END
>  <UniqueID>  (40) 
37

>  <SMILES>  (40) 
[H]/N=c1\[n-]c(=NCCCn2cccn2)[n-]/c(=N\C2CCN(Cc3cn(C)nc3CC)CC2)[n-]1

>  <Energy>  (40) 
122.38822331500988

>  <Genealogy>  (40) 
CCc1nn(C)cc1CN1CCC(N=c2[n-]c(=N)[n-]c(=NCCCn3cccn3)[n-]2)CC1 (protonated)
[H]/N=c1\[n-]c(=NCCCn2cccn2)[n-]/c(=N\C2CCN(Cc3cn(C)nc3CC)CC2)[n-]1 (cis-trans isomerization)
[H]/N=c1\[n-]c(=NCCCn2cccn2)[n-]/c(=N\C2CCN(Cc3cn(C)nc3CC)CC2)[n-]1 (3D coordinates assigned)
[H]/N=c1\[n-]c(=NCCCn2cccn2)[n-]/c(=N\C2CCN(Cc3cn(C)nc3CC)CC2)[n-]1 (nonaromatic ring conformer: 122.38822331500988 kcal/mol)

>  <smiles>  (40) 
CCc1nn(C)cc1CN1CCC(N=c2[nH]c(=N)[nH]c(=NCCCn3cccn3)[nH]2)CC1

>  <score_type>  (40) 
oracle

>  <origin>  (40) 
adg

>  <m_score__min__energy>  (40) 
-13.76

>  <m_primary>  (40) 
energy

$$$$
40:0
     RDKit          3D

 35 37  0  0  0  0  0  0  0  0999 V2000
   54.7760   29.3540   44.0570 O   0  0  0  0  0  0  0  0  0  0  0  0
   55.9310   29.4830   44.5380 C   0  0  0  0  0  0  0  0  0  0  0  0
   56.5340   30.6900   44.5270 N   0  0  0  0  0  0  0  0  0  0  0  0
   57.7760   30.8640   45.0430 C   0  0  0  0  0  0  0  0  0  0  0  0
   58.1880   32.0990   45.1600 N   0  0  0  0  0  0  0  0  0  0  0  0
   58.6530   32.8150   46.3090 C   0  0  0  0  0  0  0  0  0  0  0  0
   59.4520   33.9630   46.1670 C   0  0  0  0  0  0  0  0  0  0  0  0
   59.9430   34.6200   47.2990 C   0  0  0  0  0  0  0  0  0  0  0  0
   59.6610   34.1220   48.5750 C   0  0  0  0  0  0  0  0  0  0  0  0
   58.8960   32.9600   48.7200 C   0  0  0  0  0  0  0  0  0  0  0  0
   58.5280   32.2690   50.4620 Br  0  0  0  0  0  0  0  0  0  0  0  0
   58.4040   32.3000   47.5870 C   0  0  0  0  0  0  0  0  0  0  0  0
   58.5000   29.7550   45.4600 N   0  0  0  0  0  0  0  0  0  0  0  0
   59.9840   29.7060   45.4640 C   0  0  0  0  0  0  0  0  0  0  0  0
   60.5070   29.9530   46.8550 C   0  0  0  0  0  0  0  0  0  0  0  0
   60.0120   29.2030   47.9360 C   0  0  0  0  0  0  0  0  0  0  0  0
   60.4720   29.4480   49.2330 C   0  0  0  0  0  0  0  0  0  0  0  0
   61.4250   30.4450   49.4610 C   0  0  0  0  0  0  0  0  0  0  0  0
   61.9180   31.1990   48.3930 C   0  0  0  0  0  0  0  0  0  0  0  0
   61.4600   30.9570   47.0940 C   0  0  0  0  0  0  0  0  0  0  0  0
   57.8400   28.5480   45.5400 C   0  0  0  0  0  0  0  0  0  0  0  0
   58.4230   27.5250   45.9950 O   0  0  0  0  0  0  0  0  0  0  0  0
   56.5640   28.4260   45.0930 N   0  0  0  0  0  0  0  0  0  0  0  0
   59.6912   34.3449   45.1635 H   0  0  0  0  0  0  0  0  0  0  0  0
   60.5516   35.5293   47.1860 H   0  0  0  0  0  0  0  0  0  0  0  0
   60.0411   34.6445   49.4653 H   0  0  0  0  0  0  0  0  0  0  0  0
   57.8204   31.3746   47.7014 H   0  0  0  0  0  0  0  0  0  0  0  0
   60.3161   28.7149   45.1212 H   0  0  0  0  0  0  0  0  0  0  0  0
   60.3715   30.4846   44.7904 H   0  0  0  0  0  0  0  0  0  0  0  0
   59.2595   28.4201   47.7605 H   0  0  0  0  0  0  0  0  0  0  0  0
   60.0838   28.8559   50.0749 H   0  0  0  0  0  0  0  0  0  0  0  0
   61.7870   30.6360   50.4820 H   0  0  0  0  0  0  0  0  0  0  0  0
   62.6672   31.9838   48.5741 H   0  0  0  0  0  0  0  0  0  0  0  0
   61.8475   31.5552   46.2561 H   0  0  0  0  0  0  0  0  0  0  0  0
   56.0840   27.4970   45.1350 H   0  0  0  0  0  0  0  0  0  0  0  0
  1  2  2  0
  2  3  1  0
  3  4  1  0
  4  5  2  3
  5  6  1  0
  6  7  2  0
  7  8  1  0
  8  9  2  0
  9 10  1  0
 10 11  1  0
 10 12  2  0
  4 13  1  0
 13 14  1  0
 14 15  1  0
 15 16  2  0
 16 17  1  0
 17 18  2  0
 18 19  1  0
 19 20  2  0
 13 21  1  0
 21 22  2  0
 21 23  1  0
 23  2  1  0
 12  6  1  0
 20 15  1  0
  7 24  1  0
  8 25  1  0
  9 26  1  0
 12 27  1  0
 14 28  1  0
 14 29  1  0
 16 30  1  0
 17 31  1  0
 18 32  1  0
 19 33  1  0
 20 34  1  0
 23 35  1  0
M  CHG  1   3  -1
M  END
>  <UniqueID>  (41) 
38

>  <SMILES>  (41) 
O=c1[n-]c(=Nc2cccc(Br)c2)n(Cc2ccccc2)c(=O)[nH]1

>  <Energy>  (41) 
64.270208765495

>  <Genealogy>  (41) 
O=c1[n-]c(=Nc2cccc(Br)c2)n(Cc2ccccc2)c(=O)[nH]1 (protonated)
O=c1[n-]c(=Nc2cccc(Br)c2)n(Cc2ccccc2)c(=O)[nH]1 (3D coordinates assigned)
O=c1[n-]c(=Nc2cccc(Br)c2)n(Cc2ccccc2)c(=O)[nH]1 (optimized conformer: 64.270208765495 kcal/mol)

>  <smiles>  (41) 
O=c1[nH]c(=O)n(Cc2ccccc2)c(=Nc2cccc(Br)c2)[nH]1

>  <score_type>  (41) 
oracle

>  <origin>  (41) 
adg

>  <m_score__min__energy>  (41) 
-9.6699999999999999

>  <m_primary>  (41) 
energy

$$$$
41:0
     RDKit          3D

 55 59  0  0  0  0  0  0  0  0999 V2000
   60.2940   30.3120   48.9820 O   0  0  0  0  0  0  0  0  0  0  0  0
   59.9970   31.2610   49.7590 C   0  0  0  0  0  0  0  0  0  0  0  0
   60.7810   32.4650   49.7640 N   0  0  0  0  0  0  0  0  0  0  0  0
   62.2030   32.5880   49.6270 C   0  0  0  0  0  0  0  0  0  0  0  0
   63.0680   32.3780   50.7170 C   0  0  0  0  0  0  0  0  0  0  0  0
   64.4480   32.5540   50.5700 C   0  0  0  0  0  0  0  0  0  0  0  0
   64.9810   32.9310   49.3340 C   0  0  0  0  0  0  0  0  0  0  0  0
   64.1370   33.1220   48.2380 C   0  0  0  0  0  0  0  0  0  0  0  0
   62.7480   32.9300   48.3670 C   0  0  0  0  0  0  0  0  0  0  0  0
   61.8750   33.1210   47.1890 C   0  0  0  0  0  0  0  0  0  0  0  0
   62.1290   34.0400   46.3620 O   0  0  0  0  0  0  0  0  0  0  0  0
   60.7690   32.2370   46.9600 N   0  0  0  0  0  0  0  0  0  0  0  0
   59.5410   32.6530   46.3380 C   0  0  0  0  0  0  0  0  0  0  0  0
   58.9300   33.8720   46.6860 C   0  0  0  0  0  0  0  0  0  0  0  0
   57.6900   34.2170   46.1420 C   0  0  0  0  0  0  0  0  0  0  0  0
   57.0480   33.3530   45.2520 C   0  0  0  0  0  0  0  0  0  0  0  0
   57.6320   32.1230   44.9130 C   0  0  0  0  0  0  0  0  0  0  0  0
   56.9630   31.2230   43.9030 C   0  0  0  0  0  0  0  0  0  0  0  0
   56.1280   30.2120   44.5540 N   0  0  0  0  0  0  0  0  0  0  0  0
   56.5900   29.1510   45.1490 C   0  0  0  0  0  0  0  0  0  0  0  0
   55.8910   27.9860   45.2460 N   0  0  0  0  0  0  0  0  0  0  0  0
   56.7450   27.2000   45.9210 C   0  0  0  0  0  0  0  0  0  0  0  0
   56.5580   25.8750   46.3130 C   0  0  0  0  0  0  0  0  0  0  0  0
   57.6020   25.2490   47.0220 C   0  0  0  0  0  0  0  0  0  0  0  0
   58.7930   25.9550   47.3140 C   0  0  0  0  0  0  0  0  0  0  0  0
   58.9450   27.2930   46.8990 C   0  0  0  0  0  0  0  0  0  0  0  0
   57.8920   27.8800   46.2030 C   0  0  0  0  0  0  0  0  0  0  0  0
   57.8220   29.1310   45.7200 N   0  0  0  0  0  0  0  0  0  0  0  0
   58.8840   31.7820   45.4540 C   0  0  0  0  0  0  0  0  0  0  0  0
   58.8890   31.1030   50.7310 C   0  0  0  0  0  0  0  0  0  0  0  0
   58.5910   29.8390   51.2760 C   0  0  0  0  0  0  0  0  0  0  0  0
   57.4930   29.6730   52.1230 C   0  0  0  0  0  0  0  0  0  0  0  0
   56.6940   30.7710   52.4600 C   0  0  0  0  0  0  0  0  0  0  0  0
   56.9860   32.0340   51.9430 C   0  0  0  0  0  0  0  0  0  0  0  0
   58.0770   32.2030   51.0800 C   0  0  0  0  0  0  0  0  0  0  0  0
   62.6565   32.0736   51.6906 H   0  0  0  0  0  0  0  0  0  0  0  0
   65.1157   32.3952   51.4296 H   0  0  0  0  0  0  0  0  0  0  0  0
   66.0657   33.0773   49.2246 H   0  0  0  0  0  0  0  0  0  0  0  0
   64.5596   33.4242   47.2684 H   0  0  0  0  0  0  0  0  0  0  0  0
   60.8670   31.2400   47.2540 H   0  0  0  0  0  0  0  0  0  0  0  0
   59.4300   34.5552   47.3883 H   0  0  0  0  0  0  0  0  0  0  0  0
   57.2179   35.1722   46.4156 H   0  0  0  0  0  0  0  0  0  0  0  0
   56.0798   33.6382   44.8147 H   0  0  0  0  0  0  0  0  0  0  0  0
   56.3324   31.8351   43.2414 H   0  0  0  0  0  0  0  0  0  0  0  0
   57.7465   30.7059   43.3297 H   0  0  0  0  0  0  0  0  0  0  0  0
   55.6278   25.3374   46.0769 H   0  0  0  0  0  0  0  0  0  0  0  0
   57.4907   24.2051   47.3506 H   0  0  0  0  0  0  0  0  0  0  0  0
   59.6033   25.4575   47.8671 H   0  0  0  0  0  0  0  0  0  0  0  0
   59.8650   27.8549   47.1177 H   0  0  0  0  0  0  0  0  0  0  0  0
   59.3529   30.8247   45.1825 H   0  0  0  0  0  0  0  0  0  0  0  0
   59.2280   28.9758   51.0327 H   0  0  0  0  0  0  0  0  0  0  0  0
   57.2560   28.6773   52.5259 H   0  0  0  0  0  0  0  0  0  0  0  0
   55.8344   30.6386   53.1334 H   0  0  0  0  0  0  0  0  0  0  0  0
   56.3596   32.8970   52.2130 H   0  0  0  0  0  0  0  0  0  0  0  0
   58.3019   33.1995   50.6720 H   0  0  0  0  0  0  0  0  0  0  0  0
  1  2  2  0
  2  3  1  0
  3  4  1  0
  4  5  2  0
  5  6  1  0
  6  7  2  0
  7  8  1  0
  8  9  2  0
  9 10  1  0
 10 11  2  0
 10 12  1  0
 12 13  1  0
 13 14  2  0
 14 15  1  0
 15 16  2  0
 16 17  1  0
 17 18  1  0
 18 19  1  0
 19 20  2  3
 20 21  1  0
 21 22  1  0
 22 23  2  0
 23 24  1  0
 24 25  2  0
 25 26  1  0
 26 27  2  0
 27 28  1  0
 17 29  2  0
  2 30  1  0
 30 31  2  0
 31 32  1  0
 32 33  2  0
 33 34  1  0
 34 35  2  0
  9  4  1  0
 29 13  1  0
 35 30  1  0
 28 20  1  0
 27 22  1  0
  5 36  1  0
  6 37  1  0
  7 38  1  0
  8 39  1  0
 12 40  1  0
 14 41  1  0
 15 42  1  0
 16 43  1  0
 18 44  1  0
 18 45  1  0
 23 46  1  0
 24 47  1  0
 25 48  1  0
 26 49  1  0
 29 50  1  0
 31 51  1  0
 32 52  1  0
 33 53  1  0
 34 54  1  0
 35 55  1  0
M  CHG  3   3  -1  21  -1  28  -1
M  END
>  <UniqueID>  (42) 
39

>  <SMILES>  (42) 
O=C([N-]c1ccccc1C(=O)Nc1cccc(CN=c2[n-]c3ccccc3[n-]2)c1)c1ccccc1

>  <Energy>  (42) 
105.792975224692

>  <Genealogy>  (42) 
O=C([N-]c1ccccc1C(=O)Nc1cccc(CN=c2[n-]c3ccccc3[n-]2)c1)c1ccccc1 (protonated)
O=C([N-]c1ccccc1C(=O)Nc1cccc(CN=c2[n-]c3ccccc3[n-]2)c1)c1ccccc1 (3D coordinates assigned)
O=C([N-]c1ccccc1C(=O)Nc1cccc(CN=c2[n-]c3ccccc3[n-]2)c1)c1ccccc1 (optimized conformer: 105.792975224692 kcal/mol)

>  <smiles>  (42) 
O=C(Nc1ccccc1C(=O)Nc1cccc(CN=c2[nH]c3ccccc3[nH]2)c1)c1ccccc1

>  <score_type>  (42) 
oracle

>  <origin>  (42) 
adg

>  <m_score__min__energy>  (42) 
-13.710000000000001

>  <m_primary>  (42) 
energy

$$$$
42:0
     RDKit          3D

 45 47  0  0  0  0  0  0  0  0999 V2000
   60.2360   34.5880   48.1470 C   0  0  0  0  0  0  0  0  0  0  0  0
   59.5760   34.7580   46.8980 O   0  0  0  0  0  0  0  0  0  0  0  0
   58.9120   33.7340   46.2070 C   0  0  0  0  0  0  0  0  0  0  0  0
   58.7960   32.4810   46.8230 C   0  0  0  0  0  0  0  0  0  0  0  0
   58.1500   31.4270   46.1710 C   0  0  0  0  0  0  0  0  0  0  0  0
   57.6290   31.6080   44.8830 C   0  0  0  0  0  0  0  0  0  0  0  0
   56.8250   30.2920   44.0310 S   0  0  0  0  0  0  0  0  0  0  0  0
   55.6560   29.8290   44.8540 O   0  0  0  0  0  0  0  0  0  0  0  0
   56.3220   30.7740   42.6990 O   0  0  0  0  0  0  0  0  0  0  0  0
   57.8940   28.9440   43.7860 N   0  0  0  0  0  0  0  0  0  0  0  0
   58.4390   28.1440   44.8520 C   0  0  0  0  0  0  0  0  0  0  0  0
   59.7170   28.4410   45.3490 C   0  0  0  0  0  0  0  0  0  0  0  0
   60.2740   27.6730   46.3730 C   0  0  0  0  0  0  0  0  0  0  0  0
   59.5630   26.5980   46.9110 C   0  0  0  0  0  0  0  0  0  0  0  0
   58.2890   26.2800   46.4200 C   0  0  0  0  0  0  0  0  0  0  0  0
   57.3870   24.9200   47.0900 S   0  0  0  0  0  0  0  0  0  0  0  0
   57.6570   24.8200   48.5670 O   0  0  0  0  0  0  0  0  0  0  0  0
   55.9100   25.1310   46.9040 O   0  0  0  0  0  0  0  0  0  0  0  0
   57.9020   23.4290   46.3590 N   0  0  0  0  0  0  0  0  0  0  0  0
   57.4760   22.8800   45.1020 C   0  0  0  0  0  0  0  0  0  0  0  0
   57.8710   21.6050   44.6510 C   0  0  0  0  0  0  0  0  0  0  0  0
   57.4380   21.1300   43.4090 C   0  0  0  0  0  0  0  0  0  0  0  0
   56.6150   21.9200   42.6040 C   0  0  0  0  0  0  0  0  0  0  0  0
   56.2120   23.1830   43.0460 C   0  0  0  0  0  0  0  0  0  0  0  0
   56.6360   23.6570   44.2920 C   0  0  0  0  0  0  0  0  0  0  0  0
   57.7320   27.0550   45.3950 C   0  0  0  0  0  0  0  0  0  0  0  0
   57.7440   32.8580   44.2610 C   0  0  0  0  0  0  0  0  0  0  0  0
   58.3710   33.9200   44.9210 C   0  0  0  0  0  0  0  0  0  0  0  0
   59.5245   34.7713   48.9656 H   0  0  0  0  0  0  0  0  0  0  0  0
   60.6229   33.5609   48.2205 H   0  0  0  0  0  0  0  0  0  0  0  0
   61.0709   35.3004   48.2205 H   0  0  0  0  0  0  0  0  0  0  0  0
   59.2166   32.3256   47.8275 H   0  0  0  0  0  0  0  0  0  0  0  0
   58.0503   30.4521   46.6707 H   0  0  0  0  0  0  0  0  0  0  0  0
   58.2130   28.7660   42.8070 H   0  0  0  0  0  0  0  0  0  0  0  0
   60.2839   29.2848   44.9289 H   0  0  0  0  0  0  0  0  0  0  0  0
   61.2758   27.9152   46.7573 H   0  0  0  0  0  0  0  0  0  0  0  0
   60.0037   25.9995   47.7219 H   0  0  0  0  0  0  0  0  0  0  0  0
   58.5232   20.9801   45.2789 H   0  0  0  0  0  0  0  0  0  0  0  0
   57.7465   20.1316   43.0655 H   0  0  0  0  0  0  0  0  0  0  0  0
   56.2842   21.5486   41.6229 H   0  0  0  0  0  0  0  0  0  0  0  0
   55.5610   23.8048   42.4138 H   0  0  0  0  0  0  0  0  0  0  0  0
   56.3075   24.6478   44.6391 H   0  0  0  0  0  0  0  0  0  0  0  0
   56.7311   26.8099   45.0102 H   0  0  0  0  0  0  0  0  0  0  0  0
   57.3393   33.0050   43.2488 H   0  0  0  0  0  0  0  0  0  0  0  0
   58.4415   34.9035   44.4335 H   0  0  0  0  0  0  0  0  0  0  0  0
  1  2  1  0
  2  3  1  0
  3  4  2  0
  4  5  1  0
  5  6  2  0
  6  7  1  0
  7  8  2  0
  7  9  2  0
  7 10  1  0
 10 11  1  0
 11 12  2  0
 12 13  1  0
 13 14  2  0
 14 15  1  0
 15 16  1  0
 16 17  2  0
 16 18  2  0
 16 19  1  0
 19 20  1  0
 20 21  2  0
 21 22  1  0
 22 23  2  0
 23 24  1  0
 24 25  2  0
 15 26  2  0
  6 27  1  0
 27 28  2  0
 28  3  1  0
 26 11  1  0
 25 20  1  0
  1 29  1  0
  1 30  1  0
  1 31  1  0
  4 32  1  0
  5 33  1  0
 10 34  1  0
 12 35  1  0
 13 36  1  0
 14 37  1  0
 21 38  1  0
 22 39  1  0
 23 40  1  0
 24 41  1  0
 25 42  1  0
 26 43  1  0
 27 44  1  0
 28 45  1  0
M  CHG  1  19  -1
M  END
>  <UniqueID>  (43) 
40

>  <SMILES>  (43) 
COc1ccc(S(=O)(=O)Nc2cccc(S(=O)(=O)[N-]c3ccccc3)c2)cc1

>  <Energy>  (43) 
49.631402934243646

>  <Genealogy>  (43) 
COc1ccc(S(=O)(=O)Nc2cccc(S(=O)(=O)[N-]c3ccccc3)c2)cc1 (protonated)
COc1ccc(S(=O)(=O)Nc2cccc(S(=O)(=O)[N-]c3ccccc3)c2)cc1 (3D coordinates assigned)
COc1ccc(S(=O)(=O)Nc2cccc(S(=O)(=O)[N-]c3ccccc3)c2)cc1 (optimized conformer: 49.631402934243646 kcal/mol)

>  <smiles>  (43) 
COc1ccc(S(=O)(=O)Nc2cccc(S(=O)(=O)Nc3ccccc3)c2)cc1

>  <score_type>  (43) 
oracle

>  <origin>  (43) 
adg

>  <m_score__min__energy>  (43) 
-10.93

>  <m_primary>  (43) 
energy

$$$$
43:0
     RDKit          3D

 37 39  0  0  0  0  0  0  0  0999 V2000
   59.9436   26.7010   45.1006 H   0  0  0  0  0  0  0  0  0  0  0  0
   58.8700   26.7110   45.3400 C   0  0  0  0  0  0  0  0  0  0  0  0
   58.1430   27.8440   45.1560 N   0  0  0  0  0  0  0  0  0  0  0  0
   56.8130   27.9200   45.4380 C   0  0  0  0  0  0  0  0  0  0  0  0
   56.2170   29.0620   45.2340 N   0  0  0  0  0  0  0  0  0  0  0  0
   56.6730   30.2010   44.4880 C   0  0  0  0  0  0  0  0  0  0  0  0
   56.0960   30.5190   43.4120 O   0  0  0  0  0  0  0  0  0  0  0  0
   57.7380   31.0710   45.0380 C   0  0  0  0  0  0  0  0  0  0  0  0
   57.7430   32.4680   44.7650 C   0  0  0  0  0  0  0  0  0  0  0  0
   56.9500   32.9013   44.1377 H   0  0  0  0  0  0  0  0  0  0  0  0
   58.7490   33.3020   45.2870 C   0  0  0  0  0  0  0  0  0  0  0  0
   58.7586   34.3821   45.0788 H   0  0  0  0  0  0  0  0  0  0  0  0
   59.7300   32.7120   46.0750 C   0  0  0  0  0  0  0  0  0  0  0  0
   59.7390   31.3770   46.3460 C   0  0  0  0  0  0  0  0  0  0  0  0
   60.7880   31.0630   47.1290 N   0  0  0  0  0  0  0  0  0  0  0  0
   61.3950   32.2680   47.3040 C   0  0  0  0  0  0  0  0  0  0  0  0
   62.4750   32.4400   48.0100 N   0  0  0  0  0  0  0  0  0  0  0  0
   63.4730   33.4500   47.8010 C   0  0  0  0  0  0  0  0  0  0  0  0
   63.3670   34.2860   46.8610 O   0  0  0  0  0  0  0  0  0  0  0  0
   64.5730   33.4940   48.6610 O   0  0  0  0  0  0  0  0  0  0  0  0
   64.7570   32.5620   49.7220 C   0  0  0  0  0  0  0  0  0  0  0  0
   64.4719   31.5563   49.3796 H   0  0  0  0  0  0  0  0  0  0  0  0
   64.1277   32.8517   50.5765 H   0  0  0  0  0  0  0  0  0  0  0  0
   66.2170   32.5570   50.1480 C   0  0  0  0  0  0  0  0  0  0  0  0
   66.2785   32.5568   51.2463 H   0  0  0  0  0  0  0  0  0  0  0  0
   66.7112   31.6572   49.7529 H   0  0  0  0  0  0  0  0  0  0  0  0
   66.7173   33.4534   49.7529 H   0  0  0  0  0  0  0  0  0  0  0  0
   60.7750   33.2950   46.6750 N   0  0  0  0  0  0  0  0  0  0  0  0
   61.0470   34.3030   46.6610 H   0  0  0  0  0  0  0  0  0  0  0  0
   58.7610   30.5200   45.8500 C   0  0  0  0  0  0  0  0  0  0  0  0
   58.7813   29.4449   46.0817 H   0  0  0  0  0  0  0  0  0  0  0  0
   56.1480   26.7510   45.8970 C   0  0  0  0  0  0  0  0  0  0  0  0
   54.7740   26.7040   46.0960 O   0  0  0  0  0  0  0  0  0  0  0  0
   56.8890   25.5850   46.1070 C   0  0  0  0  0  0  0  0  0  0  0  0
   56.3921   24.6818   46.4909 H   0  0  0  0  0  0  0  0  0  0  0  0
   58.2550   25.5620   45.8320 C   0  0  0  0  0  0  0  0  0  0  0  0
   58.8411   24.6467   46.0016 H   0  0  0  0  0  0  0  0  0  0  0  0
  1  2  1  0
  2  3  1  0
  3  4  1  0
  4  5  2  3
  5  6  1  0
  6  7  2  0
  6  8  1  0
  8  9  2  0
  9 10  1  0
  9 11  1  0
 11 12  1  0
 11 13  2  0
 13 14  1  0
 14 15  1  0
 15 16  1  0
 16 17  2  0
 17 18  1  0
 18 19  2  0
 18 20  1  0
 20 21  1  0
 21 22  1  0
 21 23  1  0
 21 24  1  0
 24 25  1  0
 24 26  1  0
 24 27  1  0
 16 28  1  0
 28 29  1  0
 14 30  2  0
 30 31  1  0
  4 32  1  0
 32 33  1  0
 32 34  2  0
 34 35  1  0
 34 36  1  0
 36 37  1  0
 36  2  2  0
 30  8  1  0
 28 13  1  0
M  CHG  3   3  -1  15  -1  33  -1
M  END
>  <UniqueID>  (44) 
41

>  <SMILES>  (44) 
CCOC(=O)/N=c1\[n-]c2cc(C(=O)N=c3[n-]cccc3[O-])ccc2[nH]1

>  <Energy>  (44) 
86.65928622685145

>  <Genealogy>  (44) 
CCOC(=O)N=c1[n-]c2cc(C(=O)N=c3[n-]cccc3[O-])ccc2[nH]1 (protonated)
CCOC(=O)/N=c1\[n-]c2cc(C(=O)N=c3[n-]cccc3[O-])ccc2[nH]1 (cis-trans isomerization)
CCOC(=O)/N=c1\[n-]c2cc(C(=O)N=c3[n-]cccc3[O-])ccc2[nH]1 (3D coordinates assigned)
CCOC(=O)/N=c1\[n-]c2cc(C(=O)N=c3[n-]cccc3[O-])ccc2[nH]1 (optimized conformer: 86.65928622685145 kcal/mol)

>  <smiles>  (44) 
CCOC(=O)N=c1[nH]c2ccc(C(=O)N=c3[nH]cccc3O)cc2[nH]1

>  <score_type>  (44) 
oracle

>  <origin>  (44) 
adg

>  <m_score__min__energy>  (44) 
-13.57

>  <m_primary>  (44) 
energy

$$$$
44:0
     RDKit          3D

 43 44  0  0  0  0  0  0  0  0999 V2000
   54.9660   26.3370   45.9830 N   0  0  0  0  0  0  0  0  0  0  0  0
   56.0440   25.6010   46.5550 C   0  0  0  0  0  0  0  0  0  0  0  0
   55.8200   24.4940   47.1130 O   0  0  0  0  0  0  0  0  0  0  0  0
   57.4370   26.1500   46.5080 C   0  0  0  0  0  0  0  0  0  0  0  0
   57.4300   27.6140   46.1510 C   0  0  0  0  0  0  0  0  0  0  0  0
   58.4530   28.4690   46.3620 C   0  0  0  0  0  0  0  0  0  0  0  0
   58.5620   29.7020   45.6860 C   0  0  0  0  0  0  0  0  0  0  0  0
   59.6390   30.5590   45.9300 C   0  0  0  0  0  0  0  0  0  0  0  0
   60.6430   30.2120   46.8590 C   0  0  0  0  0  0  0  0  0  0  0  0
   61.7060   31.0060   47.1220 C   0  0  0  0  0  0  0  0  0  0  0  0
   61.6580   32.4060   47.6950 C   0  0  1  0  0  0  0  0  0  0  0  0
   60.9780   32.4280   48.9910 N   0  0  0  0  0  0  0  0  0  0  0  0
   59.9390   33.3350   49.3800 C   0  0  0  0  0  0  0  0  0  0  0  0
   59.2170   33.0330   50.3660 O   0  0  0  0  0  0  0  0  0  0  0  0
   59.6440   34.5890   48.5940 C   0  0  0  0  0  0  0  0  0  0  0  0
   59.0400   34.2760   47.2500 C   0  0  0  0  0  0  0  0  0  0  0  0
   59.5780   34.8460   46.0830 C   0  0  0  0  0  0  0  0  0  0  0  0
   58.9990   34.5790   44.8390 C   0  0  0  0  0  0  0  0  0  0  0  0
   57.8790   33.7480   44.7500 C   0  0  0  0  0  0  0  0  0  0  0  0
   57.3320   33.1870   45.9070 C   0  0  0  0  0  0  0  0  0  0  0  0
   57.9060   33.4520   47.1550 C   0  0  0  0  0  0  0  0  0  0  0  0
   63.0390   32.9910   47.8080 C   0  0  0  0  0  0  0  0  0  0  0  0
   63.8960   32.4400   48.5490 O   0  0  0  0  0  0  0  0  0  0  0  0
   63.3960   34.1180   47.0760 O   0  0  0  0  0  0  0  0  0  0  0  0
   60.5270   28.9850   47.5360 C   0  0  0  0  0  0  0  0  0  0  0  0
   59.4510   28.1280   47.2930 C   0  0  0  0  0  0  0  0  0  0  0  0
   55.1420   27.0760   45.2670 H   0  0  0  0  0  0  0  0  0  0  0  0
   57.9070   26.0227   47.4943 H   0  0  0  0  0  0  0  0  0  0  0  0
   58.0022   25.6047   45.7378 H   0  0  0  0  0  0  0  0  0  0  0  0
   56.5204   28.0173   45.6819 H   0  0  0  0  0  0  0  0  0  0  0  0
   57.7903   29.9927   44.9581 H   0  0  0  0  0  0  0  0  0  0  0  0
   59.7047   31.5157   45.3912 H   0  0  0  0  0  0  0  0  0  0  0  0
   62.7012   30.5946   46.8978 H   0  0  0  0  0  0  0  0  0  0  0  0
   61.0775   33.0292   46.9989 H   0  0  0  0  0  0  0  0  0  0  0  0
   58.9388   35.2102   49.1656 H   0  0  0  0  0  0  0  0  0  0  0  0
   60.5928   35.1202   48.4278 H   0  0  0  0  0  0  0  0  0  0  0  0
   60.4571   35.5040   46.1489 H   0  0  0  0  0  0  0  0  0  0  0  0
   59.4259   35.0240   43.9281 H   0  0  0  0  0  0  0  0  0  0  0  0
   57.4281   33.5356   43.7694 H   0  0  0  0  0  0  0  0  0  0  0  0
   56.4483   32.5357   45.8364 H   0  0  0  0  0  0  0  0  0  0  0  0
   57.4683   33.0141   48.0642 H   0  0  0  0  0  0  0  0  0  0  0  0
   61.2953   28.6956   48.2681 H   0  0  0  0  0  0  0  0  0  0  0  0
   59.3832   27.1741   47.8367 H   0  0  0  0  0  0  0  0  0  0  0  0
  1  2  1  0
  2  3  2  0
  2  4  1  0
  4  5  1  0
  5  6  2  3
  6  7  1  0
  7  8  2  0
  8  9  1  0
  9 10  2  3
 10 11  1  0
 11 12  1  0
 12 13  1  0
 13 14  2  0
 13 15  1  0
 15 16  1  0
 16 17  2  0
 17 18  1  0
 18 19  2  0
 19 20  1  0
 20 21  2  0
 11 22  1  0
 22 23  2  0
 22 24  1  0
  9 25  1  0
 25 26  2  0
 26  6  1  0
 21 16  1  0
  1 27  1  0
  4 28  1  0
  4 29  1  0
  5 30  1  0
  7 31  1  0
  8 32  1  0
 10 33  1  0
 11 34  1  6
 15 35  1  0
 15 36  1  0
 17 37  1  0
 18 38  1  0
 19 39  1  0
 20 40  1  0
 21 41  1  0
 25 42  1  0
 26 43  1  0
M  CHG  3   1  -1  12  -1  24  -1
M  END
>  <UniqueID>  (45) 
42

>  <SMILES>  (45) 
[NH-]C(=O)CC=c1ccc(=C[C@@H]([N-]C(=O)Cc2ccccc2)C(=O)[O-])cc1

>  <Energy>  (45) 
45.60458373026111

>  <Genealogy>  (45) 
[NH-]C(=O)CC=c1ccc(=CC([N-]C(=O)Cc2ccccc2)C(=O)[O-])cc1 (protonated)
[NH-]C(=O)CC=c1ccc(=C[C@@H]([N-]C(=O)Cc2ccccc2)C(=O)[O-])cc1 (chirality)
[NH-]C(=O)CC=c1ccc(=C[C@@H]([N-]C(=O)Cc2ccccc2)C(=O)[O-])cc1 (3D coordinates assigned)
[NH-]C(=O)CC=c1ccc(=C[C@@H]([N-]C(=O)Cc2ccccc2)C(=O)[O-])cc1 (optimized conformer: 45.60458373026111 kcal/mol)

>  <smiles>  (45) 
NC(=O)CC=c1ccc(=CC(NC(=O)Cc2ccccc2)C(=O)O)cc1

>  <score_type>  (45) 
oracle

>  <origin>  (45) 
adg

>  <m_score__min__energy>  (45) 
-13.69

>  <m_primary>  (45) 
energy

$$$$
45:0
     RDKit          3D

 41 44  0  0  0  0  0  0  0  0999 V2000
   56.3856   31.5750   43.9679 H   0  0  0  0  0  0  0  0  0  0  0  0
   56.6470   30.6230   44.4530 C   0  0  0  0  0  0  0  0  0  0  0  0
   55.7850   29.6060   44.6360 N   0  0  0  0  0  0  0  0  0  0  0  0
   56.4770   28.6320   45.2540 C   0  0  0  0  0  0  0  0  0  0  0  0
   55.8940   27.4720   45.6030 N   0  0  0  0  0  0  0  0  0  0  0  0
   56.4080   26.3980   46.2390 C   0  0  0  0  0  0  0  0  0  0  0  0
   55.6390   25.4250   46.4530 O   0  0  0  0  0  0  0  0  0  0  0  0
   57.6920   26.2890   46.6650 N   0  0  0  0  0  0  0  0  0  0  0  0
   58.8080   27.0620   46.6350 C   0  0  0  0  0  0  0  0  0  0  0  0
   59.8440   26.5620   47.1520 O   0  0  0  0  0  0  0  0  0  0  0  0
   58.9110   28.3480   46.0690 C   0  0  0  0  0  0  0  0  0  0  0  0
   60.2400   29.0170   46.1190 C   0  0  0  0  0  0  0  0  0  0  0  0
   60.9790   28.9700   45.1000 O   0  0  0  0  0  0  0  0  0  0  0  0
   60.7330   29.6780   47.2970 N   0  0  0  0  0  0  0  0  0  0  0  0
   60.4210   29.4290   48.5380 C   0  0  0  0  0  0  0  0  0  0  0  0
   61.1320   28.5300   49.2770 N   0  0  0  0  0  0  0  0  0  0  0  0
   60.8230   28.2480   50.5690 C   0  0  0  0  0  0  0  0  0  0  0  0
   61.4259   27.5210   51.1329 H   0  0  0  0  0  0  0  0  0  0  0  0
   59.7420   28.8800   51.1800 C   0  0  0  0  0  0  0  0  0  0  0  0
   59.4871   28.6564   52.2264 H   0  0  0  0  0  0  0  0  0  0  0  0
   58.9860   29.7990   50.4520 C   0  0  0  0  0  0  0  0  0  0  0  0
   58.1286   30.3014   50.9237 H   0  0  0  0  0  0  0  0  0  0  0  0
   59.3190   30.0840   49.1150 C   0  0  0  0  0  0  0  0  0  0  0  0
   58.5890   31.0000   48.3410 O   0  0  0  0  0  0  0  0  0  0  0  0
   58.5190   32.4000   48.5960 C   0  0  0  0  0  0  0  0  0  0  0  0
   57.5763   32.6333   49.1127 H   0  0  0  0  0  0  0  0  0  0  0  0
   59.3652   32.7032   49.2300 H   0  0  0  0  0  0  0  0  0  0  0  0
   58.5740   33.1420   47.2920 C   0  0  0  0  0  0  0  0  0  0  0  0
   57.4180   33.2710   46.5040 C   0  0  0  0  0  0  0  0  0  0  0  0
   56.4776   32.8031   46.8305 H   0  0  0  0  0  0  0  0  0  0  0  0
   57.4580   33.9920   45.3060 C   0  0  0  0  0  0  0  0  0  0  0  0
   56.5522   34.0808   44.6882 H   0  0  0  0  0  0  0  0  0  0  0  0
   58.6450   34.5990   44.8930 C   0  0  0  0  0  0  0  0  0  0  0  0
   58.6748   35.1625   43.9488 H   0  0  0  0  0  0  0  0  0  0  0  0
   59.7960   34.4910   45.6790 C   0  0  0  0  0  0  0  0  0  0  0  0
   60.7297   34.9732   45.3540 H   0  0  0  0  0  0  0  0  0  0  0  0
   59.7630   33.7710   46.8780 C   0  0  0  0  0  0  0  0  0  0  0  0
   60.8860   33.6920   47.6360 F   0  0  0  0  0  0  0  0  0  0  0  0
   57.8510   29.0400   45.4750 C   0  0  0  0  0  0  0  0  0  0  0  0
   57.8990   30.3240   44.9490 C   0  0  0  0  0  0  0  0  0  0  0  0
   58.7782   30.9848   44.9310 H   0  0  0  0  0  0  0  0  0  0  0  0
  1  2  1  0
  2  3  1  0
  3  4  2  0
  4  5  1  0
  5  6  1  0
  6  7  2  0
  6  8  1  0
  8  9  1  0
  9 10  2  0
  9 11  1  0
 11 12  1  0
 12 13  2  0
 12 14  1  0
 14 15  2  0
 15 16  1  0
 16 17  1  0
 17 18  1  0
 17 19  2  0
 19 20  1  0
 19 21  1  0
 21 22  1  0
 21 23  2  0
 23 24  1  0
 24 25  1  0
 25 26  1  0
 25 27  1  0
 25 28  1  0
 28 29  2  0
 29 30  1  0
 29 31  1  0
 31 32  1  0
 31 33  2  0
 33 34  1  0
 33 35  1  0
 35 36  1  0
 35 37  2  0
 37 38  1  0
 11 39  2  0
 39 40  1  0
 40 41  1  0
 40  2  2  0
 39  4  1  0
 23 15  1  0
 37 28  1  0
M  CHG  3   5  -1   8  -1  16  -1
M  END
>  <UniqueID>  (46) 
43

>  <SMILES>  (46) 
O=C(/N=c1\[n-]cccc1OCc1ccccc1F)c1c2ccnc-2[n-]c(=O)[n-]c1=O

>  <Energy>  (46) 
100.93391957937749

>  <Genealogy>  (46) 
O=C(N=c1[n-]cccc1OCc1ccccc1F)c1c2ccnc-2[n-]c(=O)[n-]c1=O (protonated)
O=C(/N=c1\[n-]cccc1OCc1ccccc1F)c1c2ccnc-2[n-]c(=O)[n-]c1=O (cis-trans isomerization)
O=C(/N=c1\[n-]cccc1OCc1ccccc1F)c1c2ccnc-2[n-]c(=O)[n-]c1=O (3D coordinates assigned)
O=C(/N=c1\[n-]cccc1OCc1ccccc1F)c1c2ccnc-2[n-]c(=O)[n-]c1=O (optimized conformer: 100.93391957937749 kcal/mol)

>  <smiles>  (46) 
O=C(N=c1[nH]cccc1OCc1ccccc1F)c1c2ccnc-2[nH]c(=O)[nH]c1=O

>  <score_type>  (46) 
oracle

>  <origin>  (46) 
adg

>  <m_score__min__energy>  (46) 
-12.960000000000001

>  <m_primary>  (46) 
energy

$$$$
46:0
     RDKit          3D

 44 46  0  0  0  0  0  0  0  0999 V2000
   57.4120   31.7510   42.1660 C   0  0  0  0  0  0  0  0  0  0  0  0
   57.4580   31.3180   43.5630 N   0  0  0  0  0  0  0  0  0  0  0  0
   57.8340   32.2450   44.6000 C   0  0  0  0  0  0  0  0  0  0  0  0
   58.2120   33.5610   44.2800 C   0  0  0  0  0  0  0  0  0  0  0  0
   58.5760   34.4570   45.2890 C   0  0  0  0  0  0  0  0  0  0  0  0
   58.5620   34.0510   46.6260 C   0  0  0  0  0  0  0  0  0  0  0  0
   58.1810   32.7480   46.9550 C   0  0  0  0  0  0  0  0  0  0  0  0
   57.8180   31.8480   45.9490 C   0  0  0  0  0  0  0  0  0  0  0  0
   57.0520   29.6720   43.9540 S   0  0  0  0  0  0  0  0  0  0  0  0
   55.9190   29.6330   44.9390 O   0  0  0  0  0  0  0  0  0  0  0  0
   56.6160   28.9720   42.6970 O   0  0  0  0  0  0  0  0  0  0  0  0
   58.4600   28.8570   44.6620 C   0  0  0  0  0  0  0  0  0  0  0  0
   59.7170   29.4740   44.5440 C   0  0  0  0  0  0  0  0  0  0  0  0
   60.8500   28.9030   45.1230 C   0  0  0  0  0  0  0  0  0  0  0  0
   60.7460   27.7100   45.8350 C   0  0  0  0  0  0  0  0  0  0  0  0
   59.5080   27.0820   45.9670 C   0  0  0  0  0  0  0  0  0  0  0  0
   58.3520   27.6370   45.3840 C   0  0  0  0  0  0  0  0  0  0  0  0
   57.0490   26.8770   45.5270 C   0  0  0  0  0  0  0  0  0  0  0  0
   56.8810   26.2780   46.9320 C   0  0  0  0  0  0  0  0  0  0  0  0
   56.6650   24.7930   46.8900 C   0  0  0  0  0  0  0  0  0  0  0  0
   57.4970   23.9150   47.4830 N   0  0  0  0  0  0  0  0  0  0  0  0
   57.0090   22.6940   47.3170 N   0  0  0  0  0  0  0  0  0  0  0  0
   55.8580   22.7800   46.6240 C   0  0  0  0  0  0  0  0  0  0  0  0
   55.6000   24.1030   46.3330 C   0  0  0  0  0  0  0  0  0  0  0  0
   54.4320   24.6220   45.5980 C   0  0  0  0  0  0  0  0  0  0  0  0
   53.7240   23.8380   44.9120 O   0  0  0  0  0  0  0  0  0  0  0  0
   54.0990   25.9690   45.6430 O   0  0  0  0  0  0  0  0  0  0  0  0
   57.2959   32.8441   42.1246 H   0  0  0  0  0  0  0  0  0  0  0  0
   58.3459   31.4621   41.6616 H   0  0  0  0  0  0  0  0  0  0  0  0
   56.5597   31.2723   41.6616 H   0  0  0  0  0  0  0  0  0  0  0  0
   58.2213   33.8872   43.2295 H   0  0  0  0  0  0  0  0  0  0  0  0
   58.8741   35.4837   45.0302 H   0  0  0  0  0  0  0  0  0  0  0  0
   58.8508   34.7569   47.4187 H   0  0  0  0  0  0  0  0  0  0  0  0
   58.1666   32.4296   48.0078 H   0  0  0  0  0  0  0  0  0  0  0  0
   57.5181   30.8234   46.2140 H   0  0  0  0  0  0  0  0  0  0  0  0
   59.8084   30.4188   43.9882 H   0  0  0  0  0  0  0  0  0  0  0  0
   61.8278   29.3956   45.0173 H   0  0  0  0  0  0  0  0  0  0  0  0
   61.6407   27.2633   46.2932 H   0  0  0  0  0  0  0  0  0  0  0  0
   59.4332   26.1419   46.5332 H   0  0  0  0  0  0  0  0  0  0  0  0
   56.2135   27.5656   45.3327 H   0  0  0  0  0  0  0  0  0  0  0  0
   57.0591   26.0480   44.8041 H   0  0  0  0  0  0  0  0  0  0  0  0
   57.7878   26.4882   47.5181 H   0  0  0  0  0  0  0  0  0  0  0  0
   55.9935   26.7368   47.3922 H   0  0  0  0  0  0  0  0  0  0  0  0
   55.2234   21.9291   46.3354 H   0  0  0  0  0  0  0  0  0  0  0  0
  1  2  1  0
  2  3  1  0
  3  4  2  0
  4  5  1  0
  5  6  2  0
  6  7  1  0
  7  8  2  0
  2  9  1  0
  9 10  2  0
  9 11  2  0
  9 12  1  0
 12 13  2  0
 13 14  1  0
 14 15  2  0
 15 16  1  0
 16 17  2  0
 17 18  1  0
 18 19  1  0
 19 20  1  0
 20 21  1  0
 21 22  1  0
 22 23  2  0
 23 24  1  0
 24 25  1  0
 25 26  2  0
 25 27  1  0
  8  3  1  0
 17 12  1  0
 24 20  2  0
  1 28  1  0
  1 29  1  0
  1 30  1  0
  4 31  1  0
  5 32  1  0
  6 33  1  0
  7 34  1  0
  8 35  1  0
 13 36  1  0
 14 37  1  0
 15 38  1  0
 16 39  1  0
 18 40  1  0
 18 41  1  0
 19 42  1  0
 19 43  1  0
 23 44  1  0
M  CHG  2  21  -1  27  -1
M  END
>  <UniqueID>  (47) 
44

>  <SMILES>  (47) 
CN(c1ccccc1)S(=O)(=O)c1ccccc1CCc1[n-]ncc1C(=O)[O-]

>  <Energy>  (47) 
79.29544159802184

>  <Genealogy>  (47) 
CN(c1ccccc1)S(=O)(=O)c1ccccc1CCc1[n-]ncc1C(=O)[O-] (protonated)
CN(c1ccccc1)S(=O)(=O)c1ccccc1CCc1[n-]ncc1C(=O)[O-] (3D coordinates assigned)
CN(c1ccccc1)S(=O)(=O)c1ccccc1CCc1[n-]ncc1C(=O)[O-] (optimized conformer: 79.29544159802184 kcal/mol)

>  <smiles>  (47) 
CN(c1ccccc1)S(=O)(=O)c1ccccc1CCc1[nH]ncc1C(=O)O

>  <score_type>  (47) 
oracle

>  <origin>  (47) 
adg

>  <m_score__min__energy>  (47) 
-13.75

>  <m_primary>  (47) 
energy

$$$$
47:0
     RDKit          3D

 28 29  0  0  0  0  0  0  0  0999 V2000
   60.9780   27.0370   46.8280 O   0  0  0  0  0  0  0  0  0  0  0  0
   60.0420   26.4120   46.2620 C   0  0  0  0  0  0  0  0  0  0  0  0
   60.2150   25.0650   45.9650 O   0  0  0  0  0  0  0  0  0  0  0  0
   58.7780   27.1000   45.9180 C   0  0  0  0  0  0  0  0  0  0  0  0
   57.5380   26.5190   46.2340 C   0  0  0  0  0  0  0  0  0  0  0  0
   56.3430   27.1640   45.9030 C   0  0  0  0  0  0  0  0  0  0  0  0
   55.1330   26.5520   46.2300 O   0  0  0  0  0  0  0  0  0  0  0  0
   56.3740   28.4060   45.2500 C   0  0  0  0  0  0  0  0  0  0  0  0
   55.1800   29.0410   44.9170 O   0  0  0  0  0  0  0  0  0  0  0  0
   57.6080   29.0070   44.9350 C   0  0  0  0  0  0  0  0  0  0  0  0
   57.6690   30.3230   44.2010 C   0  0  0  0  0  0  0  0  0  0  0  0
   57.9720   31.4450   45.1580 C   0  0  0  0  0  0  0  0  0  0  0  0
   57.7650   32.7810   44.7780 C   0  0  0  0  0  0  0  0  0  0  0  0
   58.0790   33.8210   45.6590 C   0  0  0  0  0  0  0  0  0  0  0  0
   58.6080   33.5350   46.9220 C   0  0  0  0  0  0  0  0  0  0  0  0
   58.9190   34.5700   47.7940 O   0  0  0  0  0  0  0  0  0  0  0  0
   58.8230   32.2080   47.3030 C   0  0  0  0  0  0  0  0  0  0  0  0
   58.5110   31.1660   46.4250 C   0  0  0  0  0  0  0  0  0  0  0  0
   58.8010   28.3430   45.2650 C   0  0  0  0  0  0  0  0  0  0  0  0
   57.5076   25.5465   46.7472 H   0  0  0  0  0  0  0  0  0  0  0  0
   54.2820   27.0820   46.3740 H   0  0  0  0  0  0  0  0  0  0  0  0
   58.4588   30.2754   43.4368 H   0  0  0  0  0  0  0  0  0  0  0  0
   56.6946   30.5122   43.7268 H   0  0  0  0  0  0  0  0  0  0  0  0
   57.3543   33.0105   43.7837 H   0  0  0  0  0  0  0  0  0  0  0  0
   57.9097   34.8654   45.3582 H   0  0  0  0  0  0  0  0  0  0  0  0
   59.2388   31.9828   48.2962 H   0  0  0  0  0  0  0  0  0  0  0  0
   58.6882   30.1233   46.7274 H   0  0  0  0  0  0  0  0  0  0  0  0
   59.7666   28.8031   45.0084 H   0  0  0  0  0  0  0  0  0  0  0  0
  1  2  2  0
  2  3  1  0
  2  4  1  0
  4  5  2  0
  5  6  1  0
  6  7  1  0
  6  8  2  0
  8  9  1  0
  8 10  1  0
 10 11  1  0
 11 12  1  0
 12 13  2  0
 13 14  1  0
 14 15  2  0
 15 16  1  0
 15 17  1  0
 17 18  2  0
 10 19  2  0
 19  4  1  0
 18 12  1  0
  5 20  1  0
  7 21  1  0
 11 22  1  0
 11 23  1  0
 13 24  1  0
 14 25  1  0
 17 26  1  0
 18 27  1  0
 19 28  1  0
M  CHG  3   3  -1   9  -1  16  -1
M  END
>  <UniqueID>  (48) 
45

>  <SMILES>  (48) 
O=C([O-])c1cc(O)c([O-])c(Cc2ccc([O-])cc2)c1

>  <Energy>  (48) 
29.166533747802767

>  <Genealogy>  (48) 
O=C([O-])c1cc(O)c([O-])c(Cc2ccc([O-])cc2)c1 (protonated)
O=C([O-])c1cc(O)c([O-])c(Cc2ccc([O-])cc2)c1 (3D coordinates assigned)
O=C([O-])c1cc(O)c([O-])c(Cc2ccc([O-])cc2)c1 (optimized conformer: 29.166533747802767 kcal/mol)

>  <smiles>  (48) 
O=C(O)c1cc(O)c(O)c(Cc2ccc(O)cc2)c1

>  <score_type>  (48) 
oracle

>  <origin>  (48) 
adg

>  <m_score__min__energy>  (48) 
-13.19

>  <m_primary>  (48) 
energy

$$$$
48:0
     RDKit          3D

 57 59  0  0  0  0  0  0  0  0999 V2000
   63.0320   33.0030   47.7530 C   0  0  0  0  0  0  0  0  0  0  0  0
   62.3650   33.8360   46.6720 C   0  0  0  0  0  0  0  0  0  0  0  0
   60.9990   34.0550   47.0160 O   0  0  0  0  0  0  0  0  0  0  0  0
   59.9230   33.3220   46.4920 C   0  0  0  0  0  0  0  0  0  0  0  0
   58.9370   34.0100   45.7800 C   0  0  0  0  0  0  0  0  0  0  0  0
   57.8530   33.3250   45.2250 C   0  0  0  0  0  0  0  0  0  0  0  0
   57.7190   31.9430   45.4060 C   0  0  0  0  0  0  0  0  0  0  0  0
   56.6140   31.2640   44.7970 N   0  0  0  0  0  0  0  0  0  0  0  0
   56.7140   30.1970   43.8490 C   0  0  0  0  0  0  0  0  0  0  0  0
   56.5780   30.4330   42.6160 O   0  0  0  0  0  0  0  0  0  0  0  0
   57.0730   28.8350   44.3030 C   0  0  0  0  0  0  0  0  0  0  0  0
   56.6800   28.3760   45.5690 C   0  0  0  0  0  0  0  0  0  0  0  0
   56.9910   27.0770   45.9850 C   0  0  0  0  0  0  0  0  0  0  0  0
   57.7320   26.2280   45.1540 C   0  0  0  0  0  0  0  0  0  0  0  0
   58.0120   24.8950   45.5990 N   0  0  0  0  0  0  0  0  0  0  0  0
   57.7910   24.3920   46.9230 C   0  0  0  0  0  0  0  0  0  0  0  0
   57.9260   25.1480   47.9250 O   0  0  0  0  0  0  0  0  0  0  0  0
   57.3350   23.0540   47.1180 N   0  0  0  0  0  0  0  0  0  0  0  0
   55.9320   22.6690   47.0060 C   0  0  0  0  0  0  0  0  0  0  0  0
   55.1120   23.8460   46.4860 C   0  0  0  0  0  0  0  0  0  0  0  0
   54.8540   23.6820   44.6830 S   0  0  0  0  0  0  0  0  0  0  0  0
   53.0810   23.5040   44.8230 C   0  0  0  0  0  0  0  0  0  0  0  0
   52.5610   22.5340   45.6230 N   0  0  0  0  0  0  0  0  0  0  0  0
   51.2160   22.3960   45.7730 C   0  0  0  0  0  0  0  0  0  0  0  0
   50.6740   21.3670   46.7130 C   0  0  0  0  0  0  0  0  0  0  0  0
   50.3520   23.2600   45.0850 C   0  0  0  0  0  0  0  0  0  0  0  0
   50.9040   24.2450   44.2570 C   0  0  0  0  0  0  0  0  0  0  0  0
   50.0230   25.2200   43.5420 C   0  0  0  0  0  0  0  0  0  0  0  0
   52.2550   24.3610   44.1580 N   0  0  0  0  0  0  0  0  0  0  0  0
   58.1320   26.6820   43.8860 C   0  0  0  0  0  0  0  0  0  0  0  0
   57.8030   27.9730   43.4630 C   0  0  0  0  0  0  0  0  0  0  0  0
   58.7100   31.2420   46.1150 C   0  0  0  0  0  0  0  0  0  0  0  0
   59.8070   31.9240   46.6540 C   0  0  0  0  0  0  0  0  0  0  0  0
   62.7317   33.3780   48.7425 H   0  0  0  0  0  0  0  0  0  0  0  0
   62.7226   31.9525   47.6496 H   0  0  0  0  0  0  0  0  0  0  0  0
   64.1248   33.0752   47.6496 H   0  0  0  0  0  0  0  0  0  0  0  0
   62.8807   34.8036   46.5842 H   0  0  0  0  0  0  0  0  0  0  0  0
   62.4203   33.3026   45.7116 H   0  0  0  0  0  0  0  0  0  0  0  0
   59.0148   35.1001   45.6554 H   0  0  0  0  0  0  0  0  0  0  0  0
   57.0998   33.8751   44.6419 H   0  0  0  0  0  0  0  0  0  0  0  0
   56.1217   29.0441   46.2413 H   0  0  0  0  0  0  0  0  0  0  0  0
   56.6520   26.7211   46.9691 H   0  0  0  0  0  0  0  0  0  0  0  0
   55.8401   21.8235   46.3083 H   0  0  0  0  0  0  0  0  0  0  0  0
   55.5563   22.3748   47.9971 H   0  0  0  0  0  0  0  0  0  0  0  0
   54.1362   23.8623   46.9934 H   0  0  0  0  0  0  0  0  0  0  0  0
   55.6544   24.7812   46.6891 H   0  0  0  0  0  0  0  0  0  0  0  0
   50.8449   21.6915   47.7501 H   0  0  0  0  0  0  0  0  0  0  0  0
   49.5945   21.2449   46.5402 H   0  0  0  0  0  0  0  0  0  0  0  0
   51.1838   20.4077   46.5402 H   0  0  0  0  0  0  0  0  0  0  0  0
   49.2615   23.1657   45.1937 H   0  0  0  0  0  0  0  0  0  0  0  0
   49.4748   25.8267   44.2777 H   0  0  0  0  0  0  0  0  0  0  0  0
   50.6396   25.8772   42.9113 H   0  0  0  0  0  0  0  0  0  0  0  0
   49.3068   24.6729   42.9113 H   0  0  0  0  0  0  0  0  0  0  0  0
   58.7067   26.0185   43.2231 H   0  0  0  0  0  0  0  0  0  0  0  0
   58.1168   28.3178   42.4667 H   0  0  0  0  0  0  0  0  0  0  0  0
   58.6230   30.1534   46.2467 H   0  0  0  0  0  0  0  0  0  0  0  0
   60.5808   31.3696   47.2052 H   0  0  0  0  0  0  0  0  0  0  0  0
  1  2  1  0
  2  3  1  0
  3  4  1  0
  4  5  2  0
  5  6  1  0
  6  7  2  0
  7  8  1  0
  8  9  1  0
  9 10  2  0
  9 11  1  0
 11 12  2  0
 12 13  1  0
 13 14  2  0
 14 15  1  0
 15 16  1  0
 16 17  2  0
 16 18  1  0
 18 19  1  0
 19 20  1  0
 20 21  1  0
 21 22  1  0
 22 23  2  0
 23 24  1  0
 24 25  1  0
 24 26  2  0
 26 27  1  0
 27 28  1  0
 27 29  2  0
 14 30  1  0
 30 31  2  0
  7 32  1  0
 32 33  2  0
 33  4  1  0
 31 11  1  0
 29 22  1  0
  1 34  1  0
  1 35  1  0
  1 36  1  0
  2 37  1  0
  2 38  1  0
  5 39  1  0
  6 40  1  0
 12 41  1  0
 13 42  1  0
 19 43  1  0
 19 44  1  0
 20 45  1  0
 20 46  1  0
 25 47  1  0
 25 48  1  0
 25 49  1  0
 26 50  1  0
 28 51  1  0
 28 52  1  0
 28 53  1  0
 30 54  1  0
 31 55  1  0
 32 56  1  0
 33 57  1  0
M  CHG  3   8  -1  15  -1  18  -1
M  END
>  <UniqueID>  (49) 
46

>  <SMILES>  (49) 
CCOc1ccc([N-]C(=O)c2ccc([N-]C(=O)[N-]CCSc3nc(C)cc(C)n3)cc2)cc1

>  <Energy>  (49) 
55.03625430970557

>  <Genealogy>  (49) 
CCOc1ccc([N-]C(=O)c2ccc([N-]C(=O)[N-]CCSc3nc(C)cc(C)n3)cc2)cc1 (protonated)
CCOc1ccc([N-]C(=O)c2ccc([N-]C(=O)[N-]CCSc3nc(C)cc(C)n3)cc2)cc1 (3D coordinates assigned)
CCOc1ccc([N-]C(=O)c2ccc([N-]C(=O)[N-]CCSc3nc(C)cc(C)n3)cc2)cc1 (optimized conformer: 55.03625430970557 kcal/mol)

>  <smiles>  (49) 
CCOc1ccc(NC(=O)c2ccc(NC(=O)NCCSc3nc(C)cc(C)n3)cc2)cc1

>  <score_type>  (49) 
oracle

>  <origin>  (49) 
adg

>  <m_score__min__energy>  (49) 
-12.289999999999999

>  <m_primary>  (49) 
energy

$$$$
49:0
     RDKit          3D

 78 83  0  0  0  0  0  0  0  0999 V2000
   63.8890   33.8420   47.7830 O   0  0  0  0  0  0  0  0  0  0  0  0
   63.0450   33.0920   48.3440 C   0  0  0  0  0  0  0  0  0  0  0  0
   63.2080   31.6020   48.2340 C   0  0  0  0  0  0  0  0  0  0  0  0
   63.0810   30.9790   49.5700 N   0  0  0  0  0  0  0  0  0  0  0  0
   62.0550   30.0850   49.7900 C   0  0  0  0  0  0  0  0  0  0  0  0
   61.2350   29.8120   48.8670 O   0  0  0  0  0  0  0  0  0  0  0  0
   61.9030   29.4700   51.0460 C   0  0  0  0  0  0  0  0  0  0  0  0
   60.7920   28.4760   51.2970 C   0  0  0  0  0  0  0  0  0  0  0  0
   59.4650   29.1770   51.4190 C   0  0  0  0  0  0  0  0  0  0  0  0
   58.6620   28.9900   52.5530 C   0  0  0  0  0  0  0  0  0  0  0  0
   57.4360   29.6540   52.6450 C   0  0  0  0  0  0  0  0  0  0  0  0
   57.0280   30.4780   51.6430 N   0  0  0  0  0  0  0  0  0  0  0  0
   57.7890   30.6830   50.5360 C   0  0  0  0  0  0  0  0  0  0  0  0
   59.0220   30.0370   50.4030 C   0  0  0  0  0  0  0  0  0  0  0  0
   62.7740   29.7690   52.0450 N   0  0  0  0  0  0  0  0  0  0  0  0
   63.7660   30.6810   51.8700 C   0  0  0  0  0  0  0  0  0  0  0  0
   64.6160   31.0030   52.9400 C   0  0  0  0  0  0  0  0  0  0  0  0
   65.6200   31.9560   52.7810 C   0  0  0  0  0  0  0  0  0  0  0  0
   65.7900   32.5920   51.5540 C   0  0  0  0  0  0  0  0  0  0  0  0
   64.9610   32.2770   50.4760 C   0  0  0  0  0  0  0  0  0  0  0  0
   63.9290   31.3130   50.6110 C   0  0  0  0  0  0  0  0  0  0  0  0
   61.9090   33.6710   49.0090 N   0  0  0  0  0  0  0  0  0  0  0  0
   62.0880   34.2200   50.3670 C   0  0  0  0  0  0  0  0  0  0  0  0
   61.1090   33.6060   51.3360 C   0  0  0  0  0  0  0  0  0  0  0  0
   61.5640   32.7610   52.3620 C   0  0  0  0  0  0  0  0  0  0  0  0
   60.6530   32.1640   53.2400 C   0  0  0  0  0  0  0  0  0  0  0  0
   59.2840   32.4140   53.1070 C   0  0  0  0  0  0  0  0  0  0  0  0
   58.8230   33.2610   52.0970 C   0  0  0  0  0  0  0  0  0  0  0  0
   59.7270   33.8540   51.2100 C   0  0  0  0  0  0  0  0  0  0  0  0
   59.2550   34.6780   50.2400 F   0  0  0  0  0  0  0  0  0  0  0  0
   60.6720   33.8540   48.2120 C   0  0  0  0  0  0  0  0  0  0  0  0
   59.7670   32.5980   48.2770 C   0  0  0  0  0  0  0  0  0  0  0  0
   58.8390   32.4780   47.0570 C   0  0  0  0  0  0  0  0  0  0  0  0
   58.4750   33.8220   46.5730 N   0  0  0  0  0  0  0  0  0  0  0  0
   57.2780   33.8370   45.7040 C   0  0  0  0  0  0  0  0  0  0  0  0
   57.2880   32.7770   44.6220 C   0  0  0  0  0  0  0  0  0  0  0  0
   56.6460   31.5420   44.8280 C   0  0  0  0  0  0  0  0  0  0  0  0
   56.6690   30.5600   43.8320 C   0  0  0  0  0  0  0  0  0  0  0  0
   57.3360   30.7970   42.6280 C   0  0  0  0  0  0  0  0  0  0  0  0
   57.9890   32.0150   42.4190 C   0  0  0  0  0  0  0  0  0  0  0  0
   57.9700   32.9990   43.4120 C   0  0  0  0  0  0  0  0  0  0  0  0
   59.6310   34.5420   45.9870 C   0  0  0  0  0  0  0  0  0  0  0  0
   60.9450   34.2750   46.7540 C   0  0  0  0  0  0  0  0  0  0  0  0
   62.4305   31.1986   47.5686 H   0  0  0  0  0  0  0  0  0  0  0  0
   64.2036   31.3770   47.8239 H   0  0  0  0  0  0  0  0  0  0  0  0
   60.7484   27.7646   50.4591 H   0  0  0  0  0  0  0  0  0  0  0  0
   60.9989   27.9463   52.2386 H   0  0  0  0  0  0  0  0  0  0  0  0
   58.9946   28.3256   53.3641 H   0  0  0  0  0  0  0  0  0  0  0  0
   56.7992   29.5098   53.5303 H   0  0  0  0  0  0  0  0  0  0  0  0
   57.4345   31.3582   49.7433 H   0  0  0  0  0  0  0  0  0  0  0  0
   59.6401   30.2020   49.5082 H   0  0  0  0  0  0  0  0  0  0  0  0
   62.6630   29.3000   52.9750 H   0  0  0  0  0  0  0  0  0  0  0  0
   64.4886   30.4998   53.9098 H   0  0  0  0  0  0  0  0  0  0  0  0
   66.2789   32.2061   53.6255 H   0  0  0  0  0  0  0  0  0  0  0  0
   66.5815   33.3464   51.4336 H   0  0  0  0  0  0  0  0  0  0  0  0
   65.1097   32.7823   49.5103 H   0  0  0  0  0  0  0  0  0  0  0  0
   63.1119   34.0073   50.7081 H   0  0  0  0  0  0  0  0  0  0  0  0
   61.9091   35.3048   50.3309 H   0  0  0  0  0  0  0  0  0  0  0  0
   62.6410   32.5680   52.4755 H   0  0  0  0  0  0  0  0  0  0  0  0
   61.0145   31.4968   54.0363 H   0  0  0  0  0  0  0  0  0  0  0  0
   58.5695   31.9432   53.7983 H   0  0  0  0  0  0  0  0  0  0  0  0
   57.7460   33.4623   51.9989 H   0  0  0  0  0  0  0  0  0  0  0  0
   60.1307   34.6916   48.6760 H   0  0  0  0  0  0  0  0  0  0  0  0
   60.4066   31.7042   48.3232 H   0  0  0  0  0  0  0  0  0  0  0  0
   59.1334   32.6882   49.1717 H   0  0  0  0  0  0  0  0  0  0  0  0
   59.3570   31.9294   46.2566 H   0  0  0  0  0  0  0  0  0  0  0  0
   57.9263   31.9365   47.3465 H   0  0  0  0  0  0  0  0  0  0  0  0
   56.3908   33.6789   46.3348 H   0  0  0  0  0  0  0  0  0  0  0  0
   57.2674   34.8117   45.1942 H   0  0  0  0  0  0  0  0  0  0  0  0
   56.1237   31.3478   45.7764 H   0  0  0  0  0  0  0  0  0  0  0  0
   56.1605   29.5987   43.9975 H   0  0  0  0  0  0  0  0  0  0  0  0
   57.3474   30.0252   41.8443 H   0  0  0  0  0  0  0  0  0  0  0  0
   58.5183   32.1995   41.4725 H   0  0  0  0  0  0  0  0  0  0  0  0
   58.4918   33.9530   43.2459 H   0  0  0  0  0  0  0  0  0  0  0  0
   59.7585   34.2151   44.9444 H   0  0  0  0  0  0  0  0  0  0  0  0
   59.4203   35.6198   46.0502 H   0  0  0  0  0  0  0  0  0  0  0  0
   61.4978   33.4704   46.2470 H   0  0  0  0  0  0  0  0  0  0  0  0
   61.5323   35.2050   46.7672 H   0  0  0  0  0  0  0  0  0  0  0  0
  1  2  2  0
  2  3  1  0
  3  4  1  0
  4  5  1  0
  5  6  2  0
  5  7  1  0
  7  8  1  0
  8  9  1  0
  9 10  2  0
 10 11  1  0
 11 12  2  0
 12 13  1  0
 13 14  2  0
  7 15  2  0
 15 16  1  0
 16 17  2  0
 17 18  1  0
 18 19  2  0
 19 20  1  0
 20 21  2  0
  2 22  1  0
 22 23  1  0
 23 24  1  0
 24 25  2  0
 25 26  1  0
 26 27  2  0
 27 28  1  0
 28 29  2  0
 29 30  1  0
 22 31  1  0
 31 32  1  0
 32 33  1  0
 33 34  1  0
 34 35  1  0
 35 36  1  0
 36 37  2  0
 37 38  1  0
 38 39  2  0
 39 40  1  0
 40 41  2  0
 34 42  1  0
 42 43  1  0
 21  4  1  0
 29 24  1  0
 43 31  1  0
 14  9  1  0
 21 16  1  0
 41 36  1  0
  3 44  1  0
  3 45  1  0
  8 46  1  0
  8 47  1  0
 10 48  1  0
 11 49  1  0
 13 50  1  0
 14 51  1  0
 15 52  1  0
 17 53  1  0
 18 54  1  0
 19 55  1  0
 20 56  1  0
 23 57  1  0
 23 58  1  0
 25 59  1  0
 26 60  1  0
 27 61  1  0
 28 62  1  0
 31 63  1  0
 32 64  1  0
 32 65  1  0
 33 66  1  0
 33 67  1  0
 35 68  1  0
 35 69  1  0
 37 70  1  0
 38 71  1  0
 39 72  1  0
 40 73  1  0
 41 74  1  0
 42 75  1  0
 42 76  1  0
 43 77  1  0
 43 78  1  0
M  CHG  1  15   1
M  END
>  <UniqueID>  (50) 
47

>  <SMILES>  (50) 
O=C(Cn1c(=O)c(Cc2ccncc2)[nH+]c2ccccc21)N(Cc1ccccc1F)C1CCN(Cc2ccccc2)CC1

>  <Energy>  (50) 
107.75357942810308

>  <Genealogy>  (50) 
O=C(Cn1c(=O)c(Cc2ccncc2)[nH+]c2ccccc21)N(Cc1ccccc1F)C1CCN(Cc2ccccc2)CC1 (protonated)
O=C(Cn1c(=O)c(Cc2ccncc2)[nH+]c2ccccc21)N(Cc1ccccc1F)C1CCN(Cc2ccccc2)CC1 (3D coordinates assigned)
O=C(Cn1c(=O)c(Cc2ccncc2)[nH+]c2ccccc21)N(Cc1ccccc1F)C1CCN(Cc2ccccc2)CC1 (nonaromatic ring conformer: 107.75357942810308 kcal/mol)

>  <smiles>  (50) 
O=C(Cn1c(=O)c(Cc2ccncc2)nc2ccccc21)N(Cc1ccccc1F)C1CCN(Cc2ccccc2)CC1

>  <score_type>  (50) 
oracle

>  <origin>  (50) 
adg

>  <m_score__min__energy>  (50) 
-9.6699999999999999

>  <m_primary>  (50) 
energy

$$$$
50:0
     RDKit          3D

 39 41  0  0  0  0  0  0  0  0999 V2000
   58.3830   33.0860   43.0180 N   0  0  0  0  0  0  0  0  0  0  0  0
   58.4120   33.4160   44.4120 C   0  0  0  0  0  0  0  0  0  0  0  0
   59.2940   34.4090   44.8670 C   0  0  0  0  0  0  0  0  0  0  0  0
   59.3400   34.7490   46.2210 C   0  0  0  0  0  0  0  0  0  0  0  0
   58.5130   34.0940   47.1340 C   0  0  0  0  0  0  0  0  0  0  0  0
   57.6320   33.1020   46.6950 C   0  0  0  0  0  0  0  0  0  0  0  0
   57.5590   32.7680   45.3290 C   0  0  0  0  0  0  0  0  0  0  0  0
   56.6650   31.7420   44.8670 N   0  0  0  0  0  0  0  0  0  0  0  0
   57.0210   30.6150   44.0540 C   0  0  0  0  0  0  0  0  0  0  0  0
   57.0020   30.7460   42.8010 O   0  0  0  0  0  0  0  0  0  0  0  0
   57.3560   29.2970   44.6420 C   0  0  0  0  0  0  0  0  0  0  0  0
   57.4150   29.1420   46.0370 C   0  0  0  0  0  0  0  0  0  0  0  0
   57.7170   27.8980   46.5980 C   0  0  0  0  0  0  0  0  0  0  0  0
   57.9830   26.7930   45.7750 C   0  0  0  0  0  0  0  0  0  0  0  0
   58.2560   25.4400   46.3750 C   0  0  0  0  0  0  0  0  0  0  0  0
   57.6210   24.3880   45.5660 N   0  0  0  0  0  0  0  0  0  0  0  0
   58.4090   23.4770   44.9180 C   0  0  0  0  0  0  0  0  0  0  0  0
   57.8390   22.4900   44.1170 C   0  0  0  0  0  0  0  0  0  0  0  0
   56.4540   22.4570   43.9860 C   0  0  0  0  0  0  0  0  0  0  0  0
   55.9040   21.5800   43.2700 O   0  0  0  0  0  0  0  0  0  0  0  0
   55.6950   23.3770   44.6310 N   0  0  0  0  0  0  0  0  0  0  0  0
   56.2580   24.3370   45.4110 C   0  0  0  0  0  0  0  0  0  0  0  0
   55.5100   25.1730   45.9860 O   0  0  0  0  0  0  0  0  0  0  0  0
   57.9400   26.9500   44.3810 C   0  0  0  0  0  0  0  0  0  0  0  0
   57.6380   28.1930   43.8200 C   0  0  0  0  0  0  0  0  0  0  0  0
   59.0840   33.4930   42.3600 H   0  0  0  0  0  0  0  0  0  0  0  0
   57.6650   32.4380   42.6250 H   0  0  0  0  0  0  0  0  0  0  0  0
   59.9535   34.9229   44.1522 H   0  0  0  0  0  0  0  0  0  0  0  0
   60.0286   35.5336   46.5677 H   0  0  0  0  0  0  0  0  0  0  0  0
   58.5545   34.3588   48.2009 H   0  0  0  0  0  0  0  0  0  0  0  0
   56.9918   32.5790   47.4208 H   0  0  0  0  0  0  0  0  0  0  0  0
   57.2224   30.0048   46.6916 H   0  0  0  0  0  0  0  0  0  0  0  0
   57.7464   27.7844   47.6917 H   0  0  0  0  0  0  0  0  0  0  0  0
   59.3421   25.2687   46.4060 H   0  0  0  0  0  0  0  0  0  0  0  0
   57.8417   25.4088   47.3935 H   0  0  0  0  0  0  0  0  0  0  0  0
   59.5022   23.5241   45.0303 H   0  0  0  0  0  0  0  0  0  0  0  0
   58.4701   21.7527   43.5993 H   0  0  0  0  0  0  0  0  0  0  0  0
   58.1452   26.0898   43.7269 H   0  0  0  0  0  0  0  0  0  0  0  0
   57.6208   28.3084   42.7262 H   0  0  0  0  0  0  0  0  0  0  0  0
  1  2  1  0
  2  3  2  0
  3  4  1  0
  4  5  2  0
  5  6  1  0
  6  7  2  0
  7  8  1  0
  8  9  1  0
  9 10  2  0
  9 11  1  0
 11 12  2  0
 12 13  1  0
 13 14  2  0
 14 15  1  0
 15 16  1  0
 16 17  1  0
 17 18  2  0
 18 19  1  0
 19 20  2  0
 19 21  1  0
 21 22  1  0
 22 23  2  0
 14 24  1  0
 24 25  2  0
  7  2  1  0
 25 11  1  0
 22 16  1  0
  1 26  1  0
  1 27  1  0
  3 28  1  0
  4 29  1  0
  5 30  1  0
  6 31  1  0
 12 32  1  0
 13 33  1  0
 15 34  1  0
 15 35  1  0
 17 36  1  0
 18 37  1  0
 24 38  1  0
 25 39  1  0
M  CHG  2   8  -1  21  -1
M  END
>  <UniqueID>  (51) 
48

>  <SMILES>  (51) 
Nc1ccccc1[N-]C(=O)c1ccc(Cn2ccc(=O)[n-]c2=O)cc1

>  <Energy>  (51) 
50.24918282462405

>  <Genealogy>  (51) 
Nc1ccccc1[N-]C(=O)c1ccc(Cn2ccc(=O)[n-]c2=O)cc1 (protonated)
Nc1ccccc1[N-]C(=O)c1ccc(Cn2ccc(=O)[n-]c2=O)cc1 (3D coordinates assigned)
Nc1ccccc1[N-]C(=O)c1ccc(Cn2ccc(=O)[n-]c2=O)cc1 (optimized conformer: 50.24918282462405 kcal/mol)

>  <smiles>  (51) 
Nc1ccccc1NC(=O)c1ccc(Cn2ccc(=O)[nH]c2=O)cc1

>  <score_type>  (51) 
oracle

>  <origin>  (51) 
adg

>  <m_score__min__energy>  (51) 
-11.17

>  <m_primary>  (51) 
energy

$$$$
51:0
     RDKit          3D

 41 43  0  0  0  0  0  0  0  0999 V2000
   56.1340   29.7420   42.6020 N   0  0  0  0  0  0  0  0  0  0  0  0
   56.7810   30.8740   43.1890 C   0  0  0  0  0  0  0  0  0  0  0  0
   56.4610   31.2690   44.4970 C   0  0  0  0  0  0  0  0  0  0  0  0
   57.0920   32.3770   45.0700 C   0  0  0  0  0  0  0  0  0  0  0  0
   58.0450   33.0990   44.3410 C   0  0  0  0  0  0  0  0  0  0  0  0
   58.8430   34.5290   45.0710 S   0  0  0  0  0  0  0  0  0  0  0  0
   59.9260   33.5190   46.0810 C   0  0  0  0  0  0  0  0  0  0  0  0
   61.0580   34.0850   46.6760 C   0  0  0  0  0  0  0  0  0  0  0  0
   61.9110   33.2950   47.4490 C   0  0  0  0  0  0  0  0  0  0  0  0
   61.6390   31.9350   47.6270 C   0  0  0  0  0  0  0  0  0  0  0  0
   60.5020   31.3510   47.0350 C   0  0  0  0  0  0  0  0  0  0  0  0
   60.2250   29.9070   47.2040 C   0  0  0  0  0  0  0  0  0  0  0  0
   59.8710   29.4580   48.3280 O   0  0  0  0  0  0  0  0  0  0  0  0
   60.3630   29.0120   46.0930 N   0  0  0  0  0  0  0  0  0  0  0  0
   60.1680   27.5700   46.1870 C   0  0  0  0  0  0  0  0  0  0  0  0
   58.7000   27.2440   46.1600 C   0  0  0  0  0  0  0  0  0  0  0  0
   58.2370   25.9880   46.5840 C   0  0  0  0  0  0  0  0  0  0  0  0
   56.8730   25.6850   46.5290 C   0  0  0  0  0  0  0  0  0  0  0  0
   55.9630   26.6290   46.0450 C   0  0  0  0  0  0  0  0  0  0  0  0
   54.6080   26.3210   45.9920 O   0  0  0  0  0  0  0  0  0  0  0  0
   56.4180   27.8800   45.6120 C   0  0  0  0  0  0  0  0  0  0  0  0
   55.5180   28.8210   45.1250 O   0  0  0  0  0  0  0  0  0  0  0  0
   57.7820   28.1860   45.6670 C   0  0  0  0  0  0  0  0  0  0  0  0
   59.6450   32.1590   46.2660 C   0  0  0  0  0  0  0  0  0  0  0  0
   58.3690   32.7030   43.0380 C   0  0  0  0  0  0  0  0  0  0  0  0
   57.7390   31.5960   42.4630 C   0  0  0  0  0  0  0  0  0  0  0  0
   55.8200   29.7630   41.6060 H   0  0  0  0  0  0  0  0  0  0  0  0
   55.9670   28.8740   43.1580 H   0  0  0  0  0  0  0  0  0  0  0  0
   55.7120   30.7055   45.0727 H   0  0  0  0  0  0  0  0  0  0  0  0
   56.8393   32.6825   46.0961 H   0  0  0  0  0  0  0  0  0  0  0  0
   61.2766   35.1538   46.5348 H   0  0  0  0  0  0  0  0  0  0  0  0
   62.7988   33.7433   47.9189 H   0  0  0  0  0  0  0  0  0  0  0  0
   62.3175   31.3170   48.2334 H   0  0  0  0  0  0  0  0  0  0  0  0
   60.6653   27.0795   45.3372 H   0  0  0  0  0  0  0  0  0  0  0  0
   60.5995   27.2093   47.1323 H   0  0  0  0  0  0  0  0  0  0  0  0
   58.9498   25.2397   46.9608 H   0  0  0  0  0  0  0  0  0  0  0  0
   56.5154   24.7014   46.8675 H   0  0  0  0  0  0  0  0  0  0  0  0
   58.1371   29.1685   45.3227 H   0  0  0  0  0  0  0  0  0  0  0  0
   58.7474   31.7197   45.8064 H   0  0  0  0  0  0  0  0  0  0  0  0
   59.1215   33.2647   42.4651 H   0  0  0  0  0  0  0  0  0  0  0  0
   57.9954   31.2902   41.4379 H   0  0  0  0  0  0  0  0  0  0  0  0
  1  2  1  0
  2  3  2  0
  3  4  1  0
  4  5  2  0
  5  6  1  0
  6  7  1  0
  7  8  2  0
  8  9  1  0
  9 10  2  0
 10 11  1  0
 11 12  1  0
 12 13  2  0
 12 14  1  0
 14 15  1  0
 15 16  1  0
 16 17  2  0
 17 18  1  0
 18 19  2  0
 19 20  1  0
 19 21  1  0
 21 22  1  0
 21 23  2  0
 11 24  2  0
  5 25  1  0
 25 26  2  0
 26  2  1  0
 24  7  1  0
 23 16  1  0
  1 27  1  0
  1 28  1  0
  3 29  1  0
  4 30  1  0
  8 31  1  0
  9 32  1  0
 10 33  1  0
 15 34  1  0
 15 35  1  0
 17 36  1  0
 18 37  1  0
 23 38  1  0
 24 39  1  0
 25 40  1  0
 26 41  1  0
M  CHG  3  14  -1  20  -1  22  -1
M  END
>  <UniqueID>  (52) 
49

>  <SMILES>  (52) 
Nc1ccc(Sc2cccc(C(=O)[N-]Cc3ccc([O-])c([O-])c3)c2)cc1

>  <Energy>  (52) 
36.593220826282575

>  <Genealogy>  (52) 
Nc1ccc(Sc2cccc(C(=O)[N-]Cc3ccc([O-])c([O-])c3)c2)cc1 (protonated)
Nc1ccc(Sc2cccc(C(=O)[N-]Cc3ccc([O-])c([O-])c3)c2)cc1 (3D coordinates assigned)
Nc1ccc(Sc2cccc(C(=O)[N-]Cc3ccc([O-])c([O-])c3)c2)cc1 (optimized conformer: 36.593220826282575 kcal/mol)

>  <smiles>  (52) 
Nc1ccc(Sc2cccc(C(=O)NCc3ccc(O)c(O)c3)c2)cc1

>  <score_type>  (52) 
oracle

>  <origin>  (52) 
adg

>  <m_score__min__energy>  (52) 
-17.260000000000002

>  <m_primary>  (52) 
energy

$$$$
52:0
     RDKit          3D

 51 53  0  0  0  0  0  0  0  0999 V2000
   59.4040   30.5530   50.1260 C   0  0  0  0  0  0  0  0  0  0  0  0
   59.5460   29.0420   50.3100 C   0  0  0  0  0  0  0  0  0  0  0  0
   60.8980   28.5090   49.7970 C   0  0  0  0  0  0  0  0  0  0  0  0
   60.7720   27.5590   48.5920 C   0  0  0  0  0  0  0  0  0  0  0  0
   59.6970   27.9740   47.6670 N   0  0  0  0  0  0  0  0  0  0  0  0
   59.7410   29.2270   47.0580 C   0  0  0  0  0  0  0  0  0  0  0  0
   60.6980   30.0140   47.2820 O   0  0  0  0  0  0  0  0  0  0  0  0
   58.7480   29.6380   46.2100 N   0  0  0  0  0  0  0  0  0  0  0  0
   57.7200   28.7990   45.9730 C   0  0  0  0  0  0  0  0  0  0  0  0
   56.6490   28.9850   45.1840 N   0  0  0  0  0  0  0  0  0  0  0  0
   56.3360   30.1430   44.3940 C   0  0  0  0  0  0  0  0  0  0  0  0
   55.1400   30.5260   44.2790 O   0  0  0  0  0  0  0  0  0  0  0  0
   57.4250   30.9390   43.7360 C   0  0  0  0  0  0  0  0  0  0  0  0
   57.4250   32.3810   44.2580 C   0  0  0  0  0  0  0  0  0  0  0  0
   57.4960   32.4410   45.7870 C   0  0  0  0  0  0  0  0  0  0  0  0
   58.8800   32.3470   46.2520 N   0  0  0  0  0  0  0  0  0  0  0  0
   59.5860   33.4610   46.8230 C   0  0  0  0  0  0  0  0  0  0  0  0
   58.9780   34.5480   47.0260 O   0  0  0  0  0  0  0  0  0  0  0  0
   61.0150   33.3490   47.2010 C   0  0  0  0  0  0  0  0  0  0  0  0
   61.4030   32.7410   48.4110 C   0  0  0  0  0  0  0  0  0  0  0  0
   62.7570   32.6390   48.7490 C   0  0  0  0  0  0  0  0  0  0  0  0
   63.7350   33.1340   47.8850 C   0  0  0  0  0  0  0  0  0  0  0  0
   63.3640   33.7290   46.6780 C   0  0  0  0  0  0  0  0  0  0  0  0
   62.0120   33.8330   46.3330 C   0  0  0  0  0  0  0  0  0  0  0  0
   55.8950   27.8880   45.2430 N   0  0  0  0  0  0  0  0  0  0  0  0
   56.4770   26.9820   46.0750 C   0  0  0  0  0  0  0  0  0  0  0  0
   57.6470   27.5240   46.5640 C   0  0  0  0  0  0  0  0  0  0  0  0
   58.6510   27.1080   47.4170 C   0  0  0  0  0  0  0  0  0  0  0  0
   58.5980   25.9630   47.9460 O   0  0  0  0  0  0  0  0  0  0  0  0
   59.3583   31.0397   51.1114 H   0  0  0  0  0  0  0  0  0  0  0  0
   60.2700   30.9373   49.5671 H   0  0  0  0  0  0  0  0  0  0  0  0
   58.4816   30.7692   49.5671 H   0  0  0  0  0  0  0  0  0  0  0  0
   59.4579   28.8073   51.3811 H   0  0  0  0  0  0  0  0  0  0  0  0
   58.7516   28.5579   49.7229 H   0  0  0  0  0  0  0  0  0  0  0  0
   61.5191   29.3668   49.4995 H   0  0  0  0  0  0  0  0  0  0  0  0
   61.3472   27.9298   50.6172 H   0  0  0  0  0  0  0  0  0  0  0  0
   61.7266   27.5508   48.0455 H   0  0  0  0  0  0  0  0  0  0  0  0
   60.5223   26.5582   48.9743 H   0  0  0  0  0  0  0  0  0  0  0  0
   58.3972   30.4740   43.9564 H   0  0  0  0  0  0  0  0  0  0  0  0
   57.2495   30.9532   42.6502 H   0  0  0  0  0  0  0  0  0  0  0  0
   58.2957   32.9088   43.8416 H   0  0  0  0  0  0  0  0  0  0  0  0
   56.4831   32.8546   43.9441 H   0  0  0  0  0  0  0  0  0  0  0  0
   57.0652   33.3933   46.1300 H   0  0  0  0  0  0  0  0  0  0  0  0
   56.9301   31.5918   46.1976 H   0  0  0  0  0  0  0  0  0  0  0  0
   59.3110   31.3970   46.2780 H   0  0  0  0  0  0  0  0  0  0  0  0
   60.6374   32.3442   49.0939 H   0  0  0  0  0  0  0  0  0  0  0  0
   63.0514   32.1674   49.6982 H   0  0  0  0  0  0  0  0  0  0  0  0
   64.7984   33.0552   48.1553 H   0  0  0  0  0  0  0  0  0  0  0  0
   64.1359   34.1168   45.9969 H   0  0  0  0  0  0  0  0  0  0  0  0
   61.7262   34.2961   45.3770 H   0  0  0  0  0  0  0  0  0  0  0  0
   56.0807   25.9848   46.3169 H   0  0  0  0  0  0  0  0  0  0  0  0
  1  2  1  0
  2  3  1  0
  3  4  1  0
  4  5  1  0
  5  6  1  0
  6  7  2  0
  6  8  1  0
  8  9  2  0
  9 10  1  0
 10 11  1  0
 11 12  2  0
 11 13  1  0
 13 14  1  0
 14 15  1  0
 15 16  1  0
 16 17  1  0
 17 18  2  0
 17 19  1  0
 19 20  2  0
 20 21  1  0
 21 22  2  0
 22 23  1  0
 23 24  2  0
 10 25  1  0
 25 26  1  0
 26 27  2  0
 27 28  1  0
 28 29  2  0
 28  5  1  0
 27  9  1  0
 24 19  1  0
  1 30  1  0
  1 31  1  0
  1 32  1  0
  2 33  1  0
  2 34  1  0
  3 35  1  0
  3 36  1  0
  4 37  1  0
  4 38  1  0
 13 39  1  0
 13 40  1  0
 14 41  1  0
 14 42  1  0
 15 43  1  0
 15 44  1  0
 16 45  1  0
 20 46  1  0
 21 47  1  0
 22 48  1  0
 23 49  1  0
 24 50  1  0
 26 51  1  0
M  CHG  1  25  -1
M  END
>  <UniqueID>  (53) 
50

>  <SMILES>  (53) 
CCCCn1c(=O)nc2n(C(=O)CCCNC(=O)c3ccccc3)[n-]cc-2c1=O

>  <Energy>  (53) 
92.0639682845877

>  <Genealogy>  (53) 
CCCCn1c(=O)nc2n(C(=O)CCCNC(=O)c3ccccc3)[n-]cc-2c1=O (protonated)
CCCCn1c(=O)nc2n(C(=O)CCCNC(=O)c3ccccc3)[n-]cc-2c1=O (3D coordinates assigned)
CCCCn1c(=O)nc2n(C(=O)CCCNC(=O)c3ccccc3)[n-]cc-2c1=O (optimized conformer: 92.0639682845877 kcal/mol)

>  <smiles>  (53) 
CCCCn1c(=O)nc2n(C(=O)CCCNC(=O)c3ccccc3)[nH]cc-2c1=O

>  <score_type>  (53) 
oracle

>  <origin>  (53) 
adg

>  <m_score__min__energy>  (53) 
-9.4700000000000006

>  <m_primary>  (53) 
energy

$$$$
53:0
     RDKit          3D

 43 45  0  0  0  0  0  0  0  0999 V2000
   54.8020   26.3260   45.9560 N   0  0  0  0  0  0  0  0  0  0  0  0
   56.3650   25.6430   46.2380 S   0  0  0  0  0  0  0  0  0  0  0  0
   56.3080   24.8020   47.4830 O   0  0  0  0  0  0  0  0  0  0  0  0
   56.7520   24.7790   45.0710 O   0  0  0  0  0  0  0  0  0  0  0  0
   57.5510   26.9300   46.4310 C   0  0  0  0  0  0  0  0  0  0  0  0
   58.5190   26.8580   47.4430 C   0  0  0  0  0  0  0  0  0  0  0  0
   59.4510   27.8880   47.5960 C   0  0  0  0  0  0  0  0  0  0  0  0
   59.4310   28.9880   46.7340 C   0  0  0  0  0  0  0  0  0  0  0  0
   58.4850   29.0540   45.6950 C   0  0  0  0  0  0  0  0  0  0  0  0
   58.4140   30.1740   44.7990 N   0  0  0  0  0  0  0  0  0  0  0  0
   57.2540   30.9610   44.5010 C   0  0  0  0  0  0  0  0  0  0  0  0
   56.0950   30.4910   44.6620 O   0  0  0  0  0  0  0  0  0  0  0  0
   57.4230   32.3820   44.0660 C   0  0  0  0  0  0  0  0  0  0  0  0
   58.0730   33.1520   45.1210 N   0  0  0  0  0  0  0  0  0  0  0  0
   59.4020   33.2720   45.3060 C   0  0  0  0  0  0  0  0  0  0  0  0
   59.5980   34.1490   46.3440 C   0  0  0  0  0  0  0  0  0  0  0  0
   60.8740   34.5980   46.8170 N   0  0  0  0  0  0  0  0  0  0  0  0
   62.0230   33.7800   47.0730 C   0  0  0  0  0  0  0  0  0  0  0  0
   63.0870   33.9500   46.4180 O   0  0  0  0  0  0  0  0  0  0  0  0
   61.9950   32.7910   48.1700 C   0  0  0  0  0  0  0  0  0  0  0  0
   60.7480   32.3330   48.6330 C   0  0  0  0  0  0  0  0  0  0  0  0
   60.6730   31.3420   49.6160 C   0  0  0  0  0  0  0  0  0  0  0  0
   61.8410   30.7970   50.1490 C   0  0  0  0  0  0  0  0  0  0  0  0
   63.0860   31.2560   49.7160 C   0  0  0  0  0  0  0  0  0  0  0  0
   63.1780   32.2640   48.7480 C   0  0  0  0  0  0  0  0  0  0  0  0
   64.4500   32.7370   48.4160 O   0  0  0  0  0  0  0  0  0  0  0  0
   58.3360   34.5520   46.7460 C   0  0  0  0  0  0  0  0  0  0  0  0
   57.4220   33.9280   45.9740 N   0  0  0  0  0  0  0  0  0  0  0  0
   57.5380   28.0300   45.5630 C   0  0  0  0  0  0  0  0  0  0  0  0
   54.6730   27.0910   46.6560 H   0  0  0  0  0  0  0  0  0  0  0  0
   58.5448   25.9894   48.1175 H   0  0  0  0  0  0  0  0  0  0  0  0
   60.2026   27.8328   48.3973 H   0  0  0  0  0  0  0  0  0  0  0  0
   60.1565   29.8038   46.8683 H   0  0  0  0  0  0  0  0  0  0  0  0
   58.0422   32.4138   43.1574 H   0  0  0  0  0  0  0  0  0  0  0  0
   56.4340   32.8165   43.8584 H   0  0  0  0  0  0  0  0  0  0  0  0
   60.1873   32.7604   44.7302 H   0  0  0  0  0  0  0  0  0  0  0  0
   59.8229   32.7589   48.2174 H   0  0  0  0  0  0  0  0  0  0  0  0
   59.6920   30.9917   49.9695 H   0  0  0  0  0  0  0  0  0  0  0  0
   61.7810   30.0055   50.9105 H   0  0  0  0  0  0  0  0  0  0  0  0
   64.0038   30.8218   50.1391 H   0  0  0  0  0  0  0  0  0  0  0  0
   64.7260   32.9700   47.4720 H   0  0  0  0  0  0  0  0  0  0  0  0
   58.1156   35.2611   47.5576 H   0  0  0  0  0  0  0  0  0  0  0  0
   56.7773   28.0901   44.7707 H   0  0  0  0  0  0  0  0  0  0  0  0
  1  2  1  0
  2  3  2  0
  2  4  2  0
  2  5  1  0
  5  6  2  0
  6  7  1  0
  7  8  2  0
  8  9  1  0
  9 10  1  0
 10 11  1  0
 11 12  2  0
 11 13  1  0
 13 14  1  0
 14 15  1  0
 15 16  2  0
 16 17  1  0
 17 18  1  0
 18 19  2  0
 18 20  1  0
 20 21  2  0
 21 22  1  0
 22 23  2  0
 23 24  1  0
 24 25  2  0
 25 26  1  0
 16 27  1  0
 27 28  2  0
  9 29  2  0
 29  5  1  0
 28 14  1  0
 25 20  1  0
  1 30  1  0
  6 31  1  0
  7 32  1  0
  8 33  1  0
 13 34  1  0
 13 35  1  0
 15 36  1  0
 21 37  1  0
 22 38  1  0
 23 39  1  0
 24 40  1  0
 26 41  1  0
 27 42  1  0
 29 43  1  0
M  CHG  3   1  -1  10  -1  17  -1
M  END
>  <UniqueID>  (54) 
51

>  <SMILES>  (54) 
[NH-]S(=O)(=O)c1cccc([N-]C(=O)Cn2cc([N-]C(=O)c3ccccc3O)cn2)c1

>  <Energy>  (54) 
84.87568293898616

>  <Genealogy>  (54) 
[NH-]S(=O)(=O)c1cccc([N-]C(=O)Cn2cc([N-]C(=O)c3ccccc3O)cn2)c1 (protonated)
[NH-]S(=O)(=O)c1cccc([N-]C(=O)Cn2cc([N-]C(=O)c3ccccc3O)cn2)c1 (3D coordinates assigned)
[NH-]S(=O)(=O)c1cccc([N-]C(=O)Cn2cc([N-]C(=O)c3ccccc3O)cn2)c1 (optimized conformer: 84.87568293898616 kcal/mol)

>  <smiles>  (54) 
NS(=O)(=O)c1cccc(NC(=O)Cn2cc(NC(=O)c3ccccc3O)cn2)c1

>  <score_type>  (54) 
oracle

>  <origin>  (54) 
adg

>  <m_score__min__energy>  (54) 
-14.050000000000001

>  <m_primary>  (54) 
energy

$$$$
54:0
     RDKit          3D

 36 38  0  0  0  0  0  0  0  0999 V2000
   57.4360   30.9030   43.0320 O   0  0  0  0  0  0  0  0  0  0  0  0
   57.3970   30.5690   44.2480 C   0  0  0  0  0  0  0  0  0  0  0  0
   57.1300   31.5600   45.2490 N   0  0  0  0  0  0  0  0  0  0  0  0
   57.9760   32.6830   45.5200 C   0  0  0  0  0  0  0  0  0  0  0  0
   57.8840   33.8040   44.6860 C   0  0  0  0  0  0  0  0  0  0  0  0
   58.6910   34.9210   44.9110 C   0  0  0  0  0  0  0  0  0  0  0  0
   59.5850   34.9330   45.9820 C   0  0  0  0  0  0  0  0  0  0  0  0
   59.6650   33.8360   46.8460 C   0  0  0  0  0  0  0  0  0  0  0  0
   60.7790   33.9140   48.2050 Cl  0  0  0  0  0  0  0  0  0  0  0  0
   58.8530   32.7070   46.6280 C   0  0  0  0  0  0  0  0  0  0  0  0
   58.8750   31.3790   47.7900 Cl  0  0  0  0  0  0  0  0  0  0  0  0
   57.5960   29.1530   44.6350 C   0  0  0  0  0  0  0  0  0  0  0  0
   57.6200   28.7800   45.9910 C   0  0  0  0  0  0  0  0  0  0  0  0
   57.8030   27.4430   46.3580 C   0  0  0  0  0  0  0  0  0  0  0  0
   57.9490   26.4530   45.3730 C   0  0  0  0  0  0  0  0  0  0  0  0
   58.1490   25.0720   45.7120 N   0  0  0  0  0  0  0  0  0  0  0  0
   57.2460   24.2430   46.4580 C   0  0  0  0  0  0  0  0  0  0  0  0
   57.6550   23.7170   47.5270 O   0  0  0  0  0  0  0  0  0  0  0  0
   55.8670   23.9600   45.9940 C   0  0  0  0  0  0  0  0  0  0  0  0
   55.4940   22.6490   45.6700 C   0  0  0  0  0  0  0  0  0  0  0  0
   54.2300   22.3800   45.2530 N   0  0  0  0  0  0  0  0  0  0  0  0
   53.3100   23.3700   45.1300 C   0  0  0  0  0  0  0  0  0  0  0  0
   52.1430   23.0990   44.7450 O   0  0  0  0  0  0  0  0  0  0  0  0
   53.6500   24.6520   45.4140 N   0  0  0  0  0  0  0  0  0  0  0  0
   54.9010   24.9730   45.8350 C   0  0  0  0  0  0  0  0  0  0  0  0
   55.1840   26.1800   46.0560 O   0  0  0  0  0  0  0  0  0  0  0  0
   57.9500   26.8230   44.0240 C   0  0  0  0  0  0  0  0  0  0  0  0
   57.7670   28.1590   43.6550 C   0  0  0  0  0  0  0  0  0  0  0  0
   57.1713   33.8047   43.8481 H   0  0  0  0  0  0  0  0  0  0  0  0
   58.6218   35.7924   44.2432 H   0  0  0  0  0  0  0  0  0  0  0  0
   60.2296   35.8088   46.1476 H   0  0  0  0  0  0  0  0  0  0  0  0
   57.4937   29.5467   46.7696 H   0  0  0  0  0  0  0  0  0  0  0  0
   57.8327   27.1659   47.4221 H   0  0  0  0  0  0  0  0  0  0  0  0
   56.2282   21.8341   45.7538 H   0  0  0  0  0  0  0  0  0  0  0  0
   58.0958   26.0572   43.2479 H   0  0  0  0  0  0  0  0  0  0  0  0
   57.7567   28.4347   42.5902 H   0  0  0  0  0  0  0  0  0  0  0  0
  1  2  2  0
  2  3  1  0
  3  4  1  0
  4  5  2  0
  5  6  1  0
  6  7  2  0
  7  8  1  0
  8  9  1  0
  8 10  2  0
 10 11  1  0
  2 12  1  0
 12 13  2  0
 13 14  1  0
 14 15  2  0
 15 16  1  0
 16 17  1  0
 17 18  2  0
 17 19  1  0
 19 20  2  0
 20 21  1  0
 21 22  1  0
 22 23  2  0
 22 24  1  0
 24 25  1  0
 25 26  2  0
 15 27  1  0
 27 28  2  0
 10  4  1  0
 28 12  1  0
 25 19  1  0
  5 29  1  0
  6 30  1  0
  7 31  1  0
 13 32  1  0
 14 33  1  0
 20 34  1  0
 27 35  1  0
 28 36  1  0
M  CHG  4   3  -1  16  -1  21  -1  24  -1
M  END
>  <UniqueID>  (55) 
52

>  <SMILES>  (55) 
O=C([N-]c1cccc(Cl)c1Cl)c1ccc([N-]C(=O)c2c[n-]c(=O)[n-]c2=O)cc1

>  <Energy>  (55) 
58.214129688286036

>  <Genealogy>  (55) 
O=C([N-]c1cccc(Cl)c1Cl)c1ccc([N-]C(=O)c2c[n-]c(=O)[n-]c2=O)cc1 (protonated)
O=C([N-]c1cccc(Cl)c1Cl)c1ccc([N-]C(=O)c2c[n-]c(=O)[n-]c2=O)cc1 (3D coordinates assigned)
O=C([N-]c1cccc(Cl)c1Cl)c1ccc([N-]C(=O)c2c[n-]c(=O)[n-]c2=O)cc1 (optimized conformer: 58.214129688286036 kcal/mol)

>  <smiles>  (55) 
O=C(Nc1cccc(Cl)c1Cl)c1ccc(NC(=O)c2c[nH]c(=O)[nH]c2=O)cc1

>  <score_type>  (55) 
oracle

>  <origin>  (55) 
adg

>  <m_score__min__energy>  (55) 
-15.039999999999999

>  <m_primary>  (55) 
energy

$$$$
55:0
     RDKit          3D

 41 42  0  0  0  0  0  0  0  0999 V2000
   53.2730   23.7730   44.5260 C   0  0  0  0  0  0  0  0  0  0  0  0
   53.6450   23.6250   45.9920 C   0  0  0  0  0  0  0  0  0  0  0  0
   55.0270   24.0460   46.1940 N   0  0  0  0  0  0  0  0  0  0  0  0
   55.5010   25.3820   45.9970 C   0  0  0  0  0  0  0  0  0  0  0  0
   54.6690   26.3260   45.9540 O   0  0  0  0  0  0  0  0  0  0  0  0
   56.9410   25.6890   45.8860 C   0  0  0  0  0  0  0  0  0  0  0  0
   57.8740   24.6640   46.1000 C   0  0  0  0  0  0  0  0  0  0  0  0
   59.2420   24.9220   45.9990 C   0  0  0  0  0  0  0  0  0  0  0  0
   59.6890   26.2050   45.6820 C   0  0  0  0  0  0  0  0  0  0  0  0
   58.7700   27.2400   45.4870 C   0  0  0  0  0  0  0  0  0  0  0  0
   57.3890   26.9980   45.6120 C   0  0  0  0  0  0  0  0  0  0  0  0
   56.4270   28.0480   45.4370 N   0  0  0  0  0  0  0  0  0  0  0  0
   56.6910   29.4430   45.2220 C   0  0  0  0  0  0  0  0  0  0  0  0
   55.8390   30.1710   44.6430 O   0  0  0  0  0  0  0  0  0  0  0  0
   57.9870   30.0550   45.6830 C   0  0  2  0  0  0  0  0  0  0  0  0
   58.1380   29.8080   47.0710 O   0  0  0  0  0  0  0  0  0  0  0  0
   59.5050   29.7560   47.4170 C   0  0  0  0  0  0  0  0  0  0  0  0
   58.0090   31.5490   45.4150 C   0  0  0  0  0  0  0  0  0  0  0  0
   58.1360   32.0330   44.1020 C   0  0  0  0  0  0  0  0  0  0  0  0
   58.1330   33.4090   43.8540 C   0  0  0  0  0  0  0  0  0  0  0  0
   57.9950   34.3110   44.9120 C   0  0  0  0  0  0  0  0  0  0  0  0
   57.8570   33.8400   46.2190 C   0  0  0  0  0  0  0  0  0  0  0  0
   57.8630   32.4660   46.4730 C   0  0  0  0  0  0  0  0  0  0  0  0
   52.2537   24.1785   44.4455 H   0  0  0  0  0  0  0  0  0  0  0  0
   53.9801   24.4583   44.0357 H   0  0  0  0  0  0  0  0  0  0  0  0
   53.3160   22.7893   44.0357 H   0  0  0  0  0  0  0  0  0  0  0  0
   52.9789   24.2517   46.6032 H   0  0  0  0  0  0  0  0  0  0  0  0
   53.5380   22.5716   46.2902 H   0  0  0  0  0  0  0  0  0  0  0  0
   57.5256   23.6508   46.3489 H   0  0  0  0  0  0  0  0  0  0  0  0
   59.9680   24.1134   46.1694 H   0  0  0  0  0  0  0  0  0  0  0  0
   60.7668   26.4025   45.5853 H   0  0  0  0  0  0  0  0  0  0  0  0
   59.1279   28.2490   45.2345 H   0  0  0  0  0  0  0  0  0  0  0  0
   58.8192   29.6011   45.1249 H   0  0  0  0  0  0  0  0  0  0  0  0
   59.6061   29.7522   48.5123 H   0  0  0  0  0  0  0  0  0  0  0  0
   59.9531   28.8402   47.0042 H   0  0  0  0  0  0  0  0  0  0  0  0
   60.0214   30.6352   47.0042 H   0  0  0  0  0  0  0  0  0  0  0  0
   58.2383   31.3261   43.2654 H   0  0  0  0  0  0  0  0  0  0  0  0
   58.2394   33.7819   42.8246 H   0  0  0  0  0  0  0  0  0  0  0  0
   57.9951   35.3932   44.7150 H   0  0  0  0  0  0  0  0  0  0  0  0
   57.7434   34.5516   47.0501 H   0  0  0  0  0  0  0  0  0  0  0  0
   57.7532   32.0993   47.5042 H   0  0  0  0  0  0  0  0  0  0  0  0
  1  2  1  0
  2  3  1  0
  3  4  1  0
  4  5  2  0
  4  6  1  0
  6  7  2  0
  7  8  1  0
  8  9  2  0
  9 10  1  0
 10 11  2  0
 11 12  1  0
 12 13  1  0
 13 14  2  0
 13 15  1  0
 15 16  1  0
 16 17  1  0
 15 18  1  0
 18 19  2  0
 19 20  1  0
 20 21  2  0
 21 22  1  0
 22 23  2  0
 11  6  1  0
 23 18  1  0
  1 24  1  0
  1 25  1  0
  1 26  1  0
  2 27  1  0
  2 28  1  0
  7 29  1  0
  8 30  1  0
  9 31  1  0
 10 32  1  0
 15 33  1  6
 17 34  1  0
 17 35  1  0
 17 36  1  0
 19 37  1  0
 20 38  1  0
 21 39  1  0
 22 40  1  0
 23 41  1  0
M  CHG  2   3  -1  12  -1
M  END
>  <UniqueID>  (56) 
53

>  <SMILES>  (56) 
CC[N-]C(=O)c1ccccc1[N-]C(=O)[C@H](OC)c1ccccc1

>  <Energy>  (56) 
46.84270278018892

>  <Genealogy>  (56) 
CC[N-]C(=O)c1ccccc1[N-]C(=O)C(OC)c1ccccc1 (protonated)
CC[N-]C(=O)c1ccccc1[N-]C(=O)[C@H](OC)c1ccccc1 (chirality)
CC[N-]C(=O)c1ccccc1[N-]C(=O)[C@H](OC)c1ccccc1 (3D coordinates assigned)
CC[N-]C(=O)c1ccccc1[N-]C(=O)[C@H](OC)c1ccccc1 (optimized conformer: 46.84270278018892 kcal/mol)

>  <smiles>  (56) 
CCNC(=O)c1ccccc1NC(=O)C(OC)c1ccccc1

>  <score_type>  (56) 
oracle

>  <origin>  (56) 
adg

>  <m_score__min__energy>  (56) 
-10.9

>  <m_primary>  (56) 
energy

$$$$
56:0
     RDKit          3D

 39 40  0  0  0  0  0  0  0  0999 V2000
   56.2180   22.1210   48.7760 C   0  0  0  0  0  0  0  0  0  0  0  0
   57.3460   22.5810   48.0410 O   0  0  0  0  0  0  0  0  0  0  0  0
   57.2900   23.6870   47.1860 C   0  0  0  0  0  0  0  0  0  0  0  0
   57.4390   24.8500   47.6510 O   0  0  0  0  0  0  0  0  0  0  0  0
   57.1040   23.4940   45.7280 C   0  0  0  0  0  0  0  0  0  0  0  0
   56.8170   22.2030   45.2450 C   0  0  0  0  0  0  0  0  0  0  0  0
   56.5690   21.9880   43.8880 C   0  0  0  0  0  0  0  0  0  0  0  0
   56.6080   23.0550   42.9930 C   0  0  0  0  0  0  0  0  0  0  0  0
   56.9070   24.3400   43.4500 C   0  0  0  0  0  0  0  0  0  0  0  0
   57.1590   24.5750   44.8140 C   0  0  0  0  0  0  0  0  0  0  0  0
   57.5700   25.8850   45.2400 N   0  0  0  0  0  0  0  0  0  0  0  0
   56.6400   26.8920   45.6700 C   0  0  0  0  0  0  0  0  0  0  0  0
   55.4670   26.5680   45.9950 O   0  0  0  0  0  0  0  0  0  0  0  0
   57.0240   28.2680   45.7620 N   0  0  0  0  0  0  0  0  0  0  0  0
   56.6240   29.4720   44.5830 S   0  0  0  0  0  0  0  0  0  0  0  0
   57.0040   28.9720   43.2170 O   0  0  0  0  0  0  0  0  0  0  0  0
   55.1420   29.7170   44.6090 O   0  0  0  0  0  0  0  0  0  0  0  0
   57.4600   30.9770   44.9550 C   0  0  0  0  0  0  0  0  0  0  0  0
   57.4390   32.0280   44.0300 C   0  0  0  0  0  0  0  0  0  0  0  0
   58.1050   33.2240   44.3080 C   0  0  0  0  0  0  0  0  0  0  0  0
   58.7860   33.3880   45.5240 C   0  0  0  0  0  0  0  0  0  0  0  0
   59.5190   34.6640   45.8140 C   0  0  0  0  0  0  0  0  0  0  0  0
   58.8220   32.3270   46.4420 C   0  0  0  0  0  0  0  0  0  0  0  0
   58.1580   31.1310   46.1610 C   0  0  0  0  0  0  0  0  0  0  0  0
   56.4234   22.2048   49.8534 H   0  0  0  0  0  0  0  0  0  0  0  0
   55.3401   22.7329   48.5214 H   0  0  0  0  0  0  0  0  0  0  0  0
   56.0184   21.0696   48.5214 H   0  0  0  0  0  0  0  0  0  0  0  0
   56.7879   21.3545   45.9444 H   0  0  0  0  0  0  0  0  0  0  0  0
   56.3425   20.9747   43.5249 H   0  0  0  0  0  0  0  0  0  0  0  0
   56.4031   22.8850   41.9257 H   0  0  0  0  0  0  0  0  0  0  0  0
   56.9459   25.1765   42.7368 H   0  0  0  0  0  0  0  0  0  0  0  0
   58.5920   26.0970   45.2520 H   0  0  0  0  0  0  0  0  0  0  0  0
   56.8959   31.9114   43.0806 H   0  0  0  0  0  0  0  0  0  0  0  0
   58.0956   34.0404   43.5709 H   0  0  0  0  0  0  0  0  0  0  0  0
   59.5983   34.8021   46.9024 H   0  0  0  0  0  0  0  0  0  0  0  0
   60.5269   34.6155   45.3761 H   0  0  0  0  0  0  0  0  0  0  0  0
   58.9693   35.5103   45.3761 H   0  0  0  0  0  0  0  0  0  0  0  0
   59.3752   32.4379   47.3863 H   0  0  0  0  0  0  0  0  0  0  0  0
   58.1828   30.3066   46.8888 H   0  0  0  0  0  0  0  0  0  0  0  0
  1  2  1  0
  2  3  1  0
  3  4  2  0
  3  5  1  0
  5  6  2  0
  6  7  1  0
  7  8  2  0
  8  9  1  0
  9 10  2  0
 10 11  1  0
 11 12  1  0
 12 13  2  0
 12 14  1  0
 14 15  1  0
 15 16  2  0
 15 17  2  0
 15 18  1  0
 18 19  2  0
 19 20  1  0
 20 21  2  0
 21 22  1  0
 21 23  1  0
 23 24  2  0
 10  5  1  0
 24 18  1  0
  1 25  1  0
  1 26  1  0
  1 27  1  0
  6 28  1  0
  7 29  1  0
  8 30  1  0
  9 31  1  0
 11 32  1  0
 19 33  1  0
 20 34  1  0
 22 35  1  0
 22 36  1  0
 22 37  1  0
 23 38  1  0
 24 39  1  0
M  CHG  1  14  -1
M  END
>  <UniqueID>  (57) 
54

>  <SMILES>  (57) 
COC(=O)c1ccccc1NC(=O)[N-]S(=O)(=O)c1ccc(C)cc1

>  <Energy>  (57) 
43.71602043241468

>  <Genealogy>  (57) 
COC(=O)c1ccccc1NC(=O)[N-]S(=O)(=O)c1ccc(C)cc1 (protonated)
COC(=O)c1ccccc1NC(=O)[N-]S(=O)(=O)c1ccc(C)cc1 (3D coordinates assigned)
COC(=O)c1ccccc1NC(=O)[N-]S(=O)(=O)c1ccc(C)cc1 (optimized conformer: 43.71602043241468 kcal/mol)

>  <smiles>  (57) 
COC(=O)c1ccccc1NC(=O)NS(=O)(=O)c1ccc(C)cc1

>  <score_type>  (57) 
oracle

>  <origin>  (57) 
adg

>  <m_score__min__energy>  (57) 
-9.8900000000000006

>  <m_primary>  (57) 
energy

$$$$
57:0
     RDKit          3D

 52 54  0  0  0  0  0  0  0  0999 V2000
   55.4250   28.9740   44.8700 N   0  0  0  0  0  0  0  0  0  0  0  0
   56.6470   30.1140   44.4310 S   0  0  0  0  0  0  0  0  0  0  0  0
   56.1940   31.5010   44.7920 O   0  0  0  0  0  0  0  0  0  0  0  0
   56.8750   30.0530   42.9460 O   0  0  0  0  0  0  0  0  0  0  0  0
   58.1420   29.7300   45.2790 C   0  0  0  0  0  0  0  0  0  0  0  0
   59.3070   29.4370   44.5570 C   0  0  0  0  0  0  0  0  0  0  0  0
   60.4940   29.1350   45.2310 C   0  0  0  0  0  0  0  0  0  0  0  0
   60.5290   29.1400   46.6290 C   0  0  0  0  0  0  0  0  0  0  0  0
   59.3730   29.4640   47.3640 C   0  0  0  0  0  0  0  0  0  0  0  0
   59.3570   29.4580   48.7980 N   0  0  0  0  0  0  0  0  0  0  0  0
   60.1060   30.3280   49.6570 C   0  0  0  0  0  0  0  0  0  0  0  0
   61.3660   30.3620   49.5970 O   0  0  0  0  0  0  0  0  0  0  0  0
   59.3770   31.2780   50.5560 C   0  0  0  0  0  0  0  0  0  0  0  0
   58.8170   32.3540   49.8050 O   0  0  0  0  0  0  0  0  0  0  0  0
   59.5810   33.2320   49.0250 C   0  0  0  0  0  0  0  0  0  0  0  0
   60.6150   33.7720   49.5080 O   0  0  0  0  0  0  0  0  0  0  0  0
   59.1960   33.4800   47.6160 C   0  0  0  0  0  0  0  0  0  0  0  0
   57.8420   33.7320   47.3320 C   0  0  0  0  0  0  0  0  0  0  0  0
   57.4070   33.8950   46.0160 C   0  0  0  0  0  0  0  0  0  0  0  0
   58.3160   33.8120   44.9640 C   0  0  0  0  0  0  0  0  0  0  0  0
   59.6680   33.5810   45.2240 C   0  0  0  0  0  0  0  0  0  0  0  0
   60.1290   33.4250   46.5430 C   0  0  0  0  0  0  0  0  0  0  0  0
   61.5870   33.2850   46.7640 C   0  0  0  0  0  0  0  0  0  0  0  0
   62.3940   33.8840   46.0030 O   0  0  0  0  0  0  0  0  0  0  0  0
   62.0830   32.4510   47.8210 N   0  0  0  0  0  0  0  0  0  0  0  0
   63.5190   32.2720   48.0370 C   0  0  0  0  0  0  0  0  0  0  0  0
   63.9080   32.7280   49.4180 C   0  0  0  0  0  0  0  0  0  0  0  0
   62.9540   32.7470   50.4490 C   0  0  0  0  0  0  0  0  0  0  0  0
   63.3230   33.1360   51.7410 C   0  0  0  0  0  0  0  0  0  0  0  0
   64.6460   33.4950   52.0150 C   0  0  0  0  0  0  0  0  0  0  0  0
   65.6030   33.4610   50.9960 C   0  0  0  0  0  0  0  0  0  0  0  0
   65.2390   33.0720   49.7040 C   0  0  0  0  0  0  0  0  0  0  0  0
   58.1800   29.7400   46.6800 C   0  0  0  0  0  0  0  0  0  0  0  0
   54.6160   29.5230   45.2370 H   0  0  0  0  0  0  0  0  0  0  0  0
   59.2873   29.4447   43.4572 H   0  0  0  0  0  0  0  0  0  0  0  0
   61.4027   28.8929   44.6603 H   0  0  0  0  0  0  0  0  0  0  0  0
   61.4620   28.8902   47.1555 H   0  0  0  0  0  0  0  0  0  0  0  0
   58.5689   30.7388   51.0719 H   0  0  0  0  0  0  0  0  0  0  0  0
   60.0885   31.6896   51.2869 H   0  0  0  0  0  0  0  0  0  0  0  0
   57.1173   33.8014   48.1567 H   0  0  0  0  0  0  0  0  0  0  0  0
   56.3442   34.0894   45.8092 H   0  0  0  0  0  0  0  0  0  0  0  0
   57.9682   33.9286   43.9270 H   0  0  0  0  0  0  0  0  0  0  0  0
   60.3803   33.5204   44.3879 H   0  0  0  0  0  0  0  0  0  0  0  0
   61.4010   31.9960   48.4690 H   0  0  0  0  0  0  0  0  0  0  0  0
   63.7718   31.2075   47.9232 H   0  0  0  0  0  0  0  0  0  0  0  0
   64.0667   32.8743   47.2972 H   0  0  0  0  0  0  0  0  0  0  0  0
   61.9142   32.4553   50.2398 H   0  0  0  0  0  0  0  0  0  0  0  0
   62.5706   33.1595   52.5431 H   0  0  0  0  0  0  0  0  0  0  0  0
   64.9338   33.8038   53.0308 H   0  0  0  0  0  0  0  0  0  0  0  0
   66.6446   33.7411   51.2118 H   0  0  0  0  0  0  0  0  0  0  0  0
   65.9977   33.0352   48.9084 H   0  0  0  0  0  0  0  0  0  0  0  0
   57.2658   29.9664   47.2484 H   0  0  0  0  0  0  0  0  0  0  0  0
  1  2  1  0
  2  3  2  0
  2  4  2  0
  2  5  1  0
  5  6  2  0
  6  7  1  0
  7  8  2  0
  8  9  1  0
  9 10  1  0
 10 11  1  0
 11 12  2  0
 11 13  1  0
 13 14  1  0
 14 15  1  0
 15 16  2  0
 15 17  1  0
 17 18  2  0
 18 19  1  0
 19 20  2  0
 20 21  1  0
 21 22  2  0
 22 23  1  0
 23 24  2  0
 23 25  1  0
 25 26  1  0
 26 27  1  0
 27 28  2  0
 28 29  1  0
 29 30  2  0
 30 31  1  0
 31 32  2  0
  9 33  2  0
 33  5  1  0
 22 17  1  0
 32 27  1  0
  1 34  1  0
  6 35  1  0
  7 36  1  0
  8 37  1  0
 13 38  1  0
 13 39  1  0
 18 40  1  0
 19 41  1  0
 20 42  1  0
 21 43  1  0
 25 44  1  0
 26 45  1  0
 26 46  1  0
 28 47  1  0
 29 48  1  0
 30 49  1  0
 31 50  1  0
 32 51  1  0
 33 52  1  0
M  CHG  2   1  -1  10  -1
M  END
>  <UniqueID>  (58) 
55

>  <SMILES>  (58) 
[NH-]S(=O)(=O)c1cccc([N-]C(=O)COC(=O)c2ccccc2C(=O)NCc2ccccc2)c1

>  <Energy>  (58) 
62.848312391069534

>  <Genealogy>  (58) 
[NH-]S(=O)(=O)c1cccc([N-]C(=O)COC(=O)c2ccccc2C(=O)NCc2ccccc2)c1 (protonated)
[NH-]S(=O)(=O)c1cccc([N-]C(=O)COC(=O)c2ccccc2C(=O)NCc2ccccc2)c1 (3D coordinates assigned)
[NH-]S(=O)(=O)c1cccc([N-]C(=O)COC(=O)c2ccccc2C(=O)NCc2ccccc2)c1 (optimized conformer: 62.848312391069534 kcal/mol)

>  <smiles>  (58) 
NS(=O)(=O)c1cccc(NC(=O)COC(=O)c2ccccc2C(=O)NCc2ccccc2)c1

>  <score_type>  (58) 
oracle

>  <origin>  (58) 
adg

>  <m_score__min__energy>  (58) 
-12.93

>  <m_primary>  (58) 
energy

$$$$
58:0
     RDKit          3D

 43 44  0  0  0  0  0  0  0  0999 V2000
   63.2780   32.7080   47.4920 C   0  0  0  0  0  0  0  0  0  0  0  0
   62.0810   33.1900   48.0930 O   0  0  0  0  0  0  0  0  0  0  0  0
   60.8960   33.4650   47.3930 C   0  0  0  0  0  0  0  0  0  0  0  0
   60.7050   34.6700   46.6870 C   0  0  0  0  0  0  0  0  0  0  0  0
   59.5100   34.9080   46.0050 C   0  0  0  0  0  0  0  0  0  0  0  0
   58.4980   33.9450   46.0080 C   0  0  0  0  0  0  0  0  0  0  0  0
   57.0020   34.2400   45.1400 Cl  0  0  0  0  0  0  0  0  0  0  0  0
   58.6790   32.7440   46.6990 C   0  0  0  0  0  0  0  0  0  0  0  0
   59.8670   32.5080   47.4120 C   0  0  0  0  0  0  0  0  0  0  0  0
   60.0700   31.2790   48.1230 N   0  0  0  0  0  0  0  0  0  0  0  0
   59.7780   29.9630   47.6350 C   0  0  0  0  0  0  0  0  0  0  0  0
   59.3090   29.1080   48.4330 O   0  0  0  0  0  0  0  0  0  0  0  0
   59.9590   29.5910   46.1880 C   0  0  0  0  0  0  0  0  0  0  0  0
   58.7410   28.9530   45.6550 N   0  0  0  0  0  0  0  0  0  0  0  0
   58.9740   27.5820   45.1500 C   0  0  0  0  0  0  0  0  0  0  0  0
   57.9330   26.5700   45.5880 C   0  0  0  0  0  0  0  0  0  0  0  0
   58.3200   25.2920   46.0280 C   0  0  0  0  0  0  0  0  0  0  0  0
   57.3580   24.3590   46.4250 C   0  0  0  0  0  0  0  0  0  0  0  0
   56.0040   24.6970   46.4050 C   0  0  0  0  0  0  0  0  0  0  0  0
   55.6090   25.9750   45.9990 C   0  0  0  0  0  0  0  0  0  0  0  0
   54.2620   26.3150   45.9930 O   0  0  0  0  0  0  0  0  0  0  0  0
   56.5690   26.9110   45.5990 C   0  0  0  0  0  0  0  0  0  0  0  0
   57.8980   29.9790   44.5070 S   0  0  0  0  0  0  0  0  0  0  0  0
   57.0290   29.0530   43.2510 C   0  0  0  0  0  0  0  0  0  0  0  0
   56.9170   30.8630   45.2270 O   0  0  0  0  0  0  0  0  0  0  0  0
   58.9030   30.8600   43.8200 O   0  0  0  0  0  0  0  0  0  0  0  0
   63.9925   32.4203   48.2773 H   0  0  0  0  0  0  0  0  0  0  0  0
   63.0478   31.8325   46.8671 H   0  0  0  0  0  0  0  0  0  0  0  0
   63.7187   33.4988   46.8671 H   0  0  0  0  0  0  0  0  0  0  0  0
   61.5024   35.4276   46.6732 H   0  0  0  0  0  0  0  0  0  0  0  0
   59.3653   35.8551   45.4646 H   0  0  0  0  0  0  0  0  0  0  0  0
   57.8880   31.9797   46.6849 H   0  0  0  0  0  0  0  0  0  0  0  0
   60.1743   30.4994   45.6063 H   0  0  0  0  0  0  0  0  0  0  0  0
   60.7936   28.8788   46.1088 H   0  0  0  0  0  0  0  0  0  0  0  0
   58.9799   27.6163   44.0506 H   0  0  0  0  0  0  0  0  0  0  0  0
   59.9336   27.2496   45.5726 H   0  0  0  0  0  0  0  0  0  0  0  0
   59.3866   25.0247   46.0600 H   0  0  0  0  0  0  0  0  0  0  0  0
   57.6687   23.3563   46.7539 H   0  0  0  0  0  0  0  0  0  0  0  0
   55.2479   23.9580   46.7086 H   0  0  0  0  0  0  0  0  0  0  0  0
   56.2548   27.9193   45.2914 H   0  0  0  0  0  0  0  0  0  0  0  0
   56.3515   28.3311   43.7305 H   0  0  0  0  0  0  0  0  0  0  0  0
   56.4452   29.7434   42.6245 H   0  0  0  0  0  0  0  0  0  0  0  0
   57.7551   28.5142   42.6245 H   0  0  0  0  0  0  0  0  0  0  0  0
  1  2  1  0
  2  3  1  0
  3  4  2  0
  4  5  1  0
  5  6  2  0
  6  7  1  0
  6  8  1  0
  8  9  2  0
  9 10  1  0
 10 11  1  0
 11 12  2  0
 11 13  1  0
 13 14  1  0
 14 15  1  0
 15 16  1  0
 16 17  2  0
 17 18  1  0
 18 19  2  0
 19 20  1  0
 20 21  1  0
 20 22  2  0
 14 23  1  0
 23 24  1  0
 23 25  2  0
 23 26  2  0
  9  3  1  0
 22 16  1  0
  1 27  1  0
  1 28  1  0
  1 29  1  0
  4 30  1  0
  5 31  1  0
  8 32  1  0
 13 33  1  0
 13 34  1  0
 15 35  1  0
 15 36  1  0
 17 37  1  0
 18 38  1  0
 19 39  1  0
 22 40  1  0
 24 41  1  0
 24 42  1  0
 24 43  1  0
M  CHG  2  10  -1  21  -1
M  END
>  <UniqueID>  (59) 
56

>  <SMILES>  (59) 
COc1ccc(Cl)cc1[N-]C(=O)CN(Cc1cccc([O-])c1)S(C)(=O)=O

>  <Energy>  (59) 
44.46136927314648

>  <Genealogy>  (59) 
COc1ccc(Cl)cc1[N-]C(=O)CN(Cc1cccc([O-])c1)S(C)(=O)=O (protonated)
COc1ccc(Cl)cc1[N-]C(=O)CN(Cc1cccc([O-])c1)S(C)(=O)=O (3D coordinates assigned)
COc1ccc(Cl)cc1[N-]C(=O)CN(Cc1cccc([O-])c1)S(C)(=O)=O (optimized conformer: 44.46136927314648 kcal/mol)

>  <smiles>  (59) 
COc1ccc(Cl)cc1NC(=O)CN(Cc1cccc(O)c1)S(C)(=O)=O

>  <score_type>  (59) 
oracle

>  <origin>  (59) 
adg

>  <m_score__min__energy>  (59) 
-12.65

>  <m_primary>  (59) 
energy

$$$$
59:0
     RDKit          3D

 46 48  0  0  0  0  0  0  0  0999 V2000
   55.6840   20.9610   45.7650 C   0  0  0  0  0  0  0  0  0  0  0  0
   55.9120   22.0660   44.7820 C   0  0  0  0  0  0  0  0  0  0  0  0
   56.2250   21.8420   43.4890 N   0  0  0  0  0  0  0  0  0  0  0  0
   56.3500   23.0770   42.9600 C   0  0  0  0  0  0  0  0  0  0  0  0
   56.1130   24.0230   43.9300 C   0  0  0  0  0  0  0  0  0  0  0  0
   55.8270   23.3830   45.0770 N   0  0  0  0  0  0  0  0  0  0  0  0
   55.5750   24.0090   46.3740 C   0  0  0  0  0  0  0  0  0  0  0  0
   55.8730   25.4720   46.3050 C   0  0  0  0  0  0  0  0  0  0  0  0
   54.9540   26.2790   45.9970 O   0  0  0  0  0  0  0  0  0  0  0  0
   57.2200   25.9260   46.4840 N   0  0  0  0  0  0  0  0  0  0  0  0
   57.8450   27.0320   45.8180 C   0  0  0  0  0  0  0  0  0  0  0  0
   59.2310   27.0010   45.6250 C   0  0  0  0  0  0  0  0  0  0  0  0
   59.8820   28.0670   45.0000 C   0  0  0  0  0  0  0  0  0  0  0  0
   59.1540   29.1820   44.5770 C   0  0  0  0  0  0  0  0  0  0  0  0
   57.7700   29.2400   44.7870 C   0  0  0  0  0  0  0  0  0  0  0  0
   56.8580   30.6660   44.2850 S   0  0  0  0  0  0  0  0  0  0  0  0
   55.3890   30.4140   44.4890 O   0  0  0  0  0  0  0  0  0  0  0  0
   57.0890   30.9070   42.8200 O   0  0  0  0  0  0  0  0  0  0  0  0
   57.3350   32.0850   45.1850 N   0  0  0  0  0  0  0  0  0  0  0  0
   58.1610   31.6980   46.3480 C   0  0  0  0  0  0  0  0  0  0  0  0
   58.8370   32.9160   47.0200 C   0  0  0  0  0  0  0  0  0  0  0  0
   58.2150   34.2370   46.5620 C   0  0  0  0  0  0  0  0  0  0  0  0
   58.2640   34.3720   45.0300 C   0  0  0  0  0  0  0  0  0  0  0  0
   58.0610   33.0240   44.3140 C   0  0  0  0  0  0  0  0  0  0  0  0
   57.1180   28.1660   45.4120 C   0  0  0  0  0  0  0  0  0  0  0  0
   55.7658   21.3575   46.7878 H   0  0  0  0  0  0  0  0  0  0  0  0
   54.6797   20.5381   45.6149 H   0  0  0  0  0  0  0  0  0  0  0  0
   56.4389   20.1751   45.6149 H   0  0  0  0  0  0  0  0  0  0  0  0
   56.6031   23.2943   41.9118 H   0  0  0  0  0  0  0  0  0  0  0  0
   56.1509   25.1136   43.7913 H   0  0  0  0  0  0  0  0  0  0  0  0
   54.5195   23.8653   46.6484 H   0  0  0  0  0  0  0  0  0  0  0  0
   56.2250   23.5446   47.1302 H   0  0  0  0  0  0  0  0  0  0  0  0
   59.8112   26.1316   45.9677 H   0  0  0  0  0  0  0  0  0  0  0  0
   60.9697   28.0286   44.8405 H   0  0  0  0  0  0  0  0  0  0  0  0
   59.6687   30.0163   44.0779 H   0  0  0  0  0  0  0  0  0  0  0  0
   57.5183   31.1977   47.0874 H   0  0  0  0  0  0  0  0  0  0  0  0
   58.9560   31.0285   45.9879 H   0  0  0  0  0  0  0  0  0  0  0  0
   58.7241   32.8288   48.1107 H   0  0  0  0  0  0  0  0  0  0  0  0
   59.8983   32.9200   46.7309 H   0  0  0  0  0  0  0  0  0  0  0  0
   57.1664   34.2737   46.8923 H   0  0  0  0  0  0  0  0  0  0  0  0
   58.7893   35.0647   47.0037 H   0  0  0  0  0  0  0  0  0  0  0  0
   57.4708   35.0641   44.7110 H   0  0  0  0  0  0  0  0  0  0  0  0
   59.2613   34.7484   44.7587 H   0  0  0  0  0  0  0  0  0  0  0  0
   57.4816   33.1862   43.3932 H   0  0  0  0  0  0  0  0  0  0  0  0
   59.0452   32.5972   44.0707 H   0  0  0  0  0  0  0  0  0  0  0  0
   56.0327   28.2110   45.5854 H   0  0  0  0  0  0  0  0  0  0  0  0
  1  2  1  0
  2  3  2  0
  3  4  1  0
  4  5  2  0
  5  6  1  0
  6  7  1  0
  7  8  1  0
  8  9  2  0
  8 10  1  0
 10 11  1  0
 11 12  2  0
 12 13  1  0
 13 14  2  0
 14 15  1  0
 15 16  1  0
 16 17  2  0
 16 18  2  0
 16 19  1  0
 19 20  1  0
 20 21  1  0
 21 22  1  0
 22 23  1  0
 23 24  1  0
 15 25  2  0
  6  2  1  0
 25 11  1  0
 24 19  1  0
  1 26  1  0
  1 27  1  0
  1 28  1  0
  4 29  1  0
  5 30  1  0
  7 31  1  0
  7 32  1  0
 12 33  1  0
 13 34  1  0
 14 35  1  0
 20 36  1  0
 20 37  1  0
 21 38  1  0
 21 39  1  0
 22 40  1  0
 22 41  1  0
 23 42  1  0
 23 43  1  0
 24 44  1  0
 24 45  1  0
 25 46  1  0
M  CHG  1  10  -1
M  END
>  <UniqueID>  (60) 
57

>  <SMILES>  (60) 
Cc1nccn1CC(=O)[N-]c1cccc(S(=O)(=O)N2CCCCC2)c1

>  <Energy>  (60) 
78.21756260917448

>  <Genealogy>  (60) 
Cc1nccn1CC(=O)[N-]c1cccc(S(=O)(=O)N2CCCCC2)c1 (protonated)
Cc1nccn1CC(=O)[N-]c1cccc(S(=O)(=O)N2CCCCC2)c1 (3D coordinates assigned)
Cc1nccn1CC(=O)[N-]c1cccc(S(=O)(=O)N2CCCCC2)c1 (nonaromatic ring conformer: 78.21756260917448 kcal/mol)

>  <smiles>  (60) 
Cc1nccn1CC(=O)Nc1cccc(S(=O)(=O)N2CCCCC2)c1

>  <score_type>  (60) 
oracle

>  <origin>  (60) 
adg

>  <m_score__min__energy>  (60) 
-11.06

>  <m_primary>  (60) 
energy

$$$$
60:0
     RDKit          3D

 37 39  0  0  0  0  0  0  0  0999 V2000
   55.1710   26.2010   46.0110 O   0  0  0  0  0  0  0  0  0  0  0  0
   55.9230   25.2300   45.7360 C   0  0  0  0  0  0  0  0  0  0  0  0
   55.4230   24.1860   44.8910 N   0  0  0  0  0  0  0  0  0  0  0  0
   56.1220   23.2380   44.3390 C   0  0  0  0  0  0  0  0  0  0  0  0
   57.0920   22.5820   45.0080 N   0  0  0  0  0  0  0  0  0  0  0  0
   57.6530   21.6020   44.2510 C   0  0  0  0  0  0  0  0  0  0  0  0
   57.1220   21.4630   42.9730 C   0  0  0  0  0  0  0  0  0  0  0  0
   55.9050   22.6090   42.7880 S   0  0  0  0  0  0  0  0  0  0  0  0
   57.2270   25.1410   46.3320 N   0  0  0  0  0  0  0  0  0  0  0  0
   57.8140   26.2360   47.0990 C   0  0  0  0  0  0  0  0  0  0  0  0
   58.2420   27.3460   46.1770 C   0  0  0  0  0  0  0  0  0  0  0  0
   59.5890   27.4650   45.8010 C   0  0  0  0  0  0  0  0  0  0  0  0
   59.9970   28.5030   44.9590 C   0  0  0  0  0  0  0  0  0  0  0  0
   59.0650   29.4330   44.4930 C   0  0  0  0  0  0  0  0  0  0  0  0
   57.7190   29.3330   44.8710 C   0  0  0  0  0  0  0  0  0  0  0  0
   56.5330   30.4920   44.2780 S   0  0  0  0  0  0  0  0  0  0  0  0
   55.1420   29.9490   44.4560 O   0  0  0  0  0  0  0  0  0  0  0  0
   56.7670   30.7290   42.8120 O   0  0  0  0  0  0  0  0  0  0  0  0
   56.6880   31.9940   45.1310 N   0  0  0  0  0  0  0  0  0  0  0  0
   57.7500   32.7770   44.5110 C   0  0  0  0  0  0  0  0  0  0  0  0
   57.7640   34.2150   44.9970 C   0  0  0  0  0  0  0  0  0  0  0  0
   58.8230   33.2390   45.4810 C   0  0  0  0  0  0  0  0  0  0  0  0
   57.3100   28.2870   45.7090 C   0  0  0  0  0  0  0  0  0  0  0  0
   58.4687   20.9644   44.6227 H   0  0  0  0  0  0  0  0  0  0  0  0
   57.4419   20.7318   42.2160 H   0  0  0  0  0  0  0  0  0  0  0  0
   57.7500   24.2370   46.2890 H   0  0  0  0  0  0  0  0  0  0  0  0
   57.0688   26.6216   47.8103 H   0  0  0  0  0  0  0  0  0  0  0  0
   58.6940   25.8618   47.6427 H   0  0  0  0  0  0  0  0  0  0  0  0
   60.3269   26.7379   46.1708 H   0  0  0  0  0  0  0  0  0  0  0  0
   61.0530   28.5877   44.6630 H   0  0  0  0  0  0  0  0  0  0  0  0
   59.3884   30.2466   43.8271 H   0  0  0  0  0  0  0  0  0  0  0  0
   57.7589   32.2725   43.5336 H   0  0  0  0  0  0  0  0  0  0  0  0
   58.0381   35.0263   44.3066 H   0  0  0  0  0  0  0  0  0  0  0  0
   57.0352   34.8778   45.4864 H   0  0  0  0  0  0  0  0  0  0  0  0
   59.8639   33.3435   45.1410 H   0  0  0  0  0  0  0  0  0  0  0  0
   59.1787   32.9022   46.4659 H   0  0  0  0  0  0  0  0  0  0  0  0
   56.2531   28.2023   46.0020 H   0  0  0  0  0  0  0  0  0  0  0  0
  1  2  2  0
  2  3  1  0
  3  4  2  3
  4  5  1  0
  5  6  1  0
  6  7  2  0
  7  8  1  0
  2  9  1  0
  9 10  1  0
 10 11  1  0
 11 12  2  0
 12 13  1  0
 13 14  2  0
 14 15  1  0
 15 16  1  0
 16 17  2  0
 16 18  2  0
 16 19  1  0
 19 20  1  0
 20 21  1  0
 21 22  1  0
 15 23  2  0
  8  4  1  0
 23 11  1  0
 22 20  1  0
  6 24  1  0
  7 25  1  0
  9 26  1  0
 10 27  1  0
 10 28  1  0
 12 29  1  0
 13 30  1  0
 14 31  1  0
 20 32  1  0
 21 33  1  0
 21 34  1  0
 22 35  1  0
 22 36  1  0
 23 37  1  0
M  CHG  2   5  -1  19  -1
M  END
>  <UniqueID>  (61) 
58

>  <SMILES>  (61) 
O=C(N=c1[n-]ccs1)NCc1cccc(S(=O)(=O)[N-]C2CC2)c1

>  <Energy>  (61) 
333.71032148629035

>  <Genealogy>  (61) 
O=C(N=c1[n-]ccs1)NCc1cccc(S(=O)(=O)[N-]C2CC2)c1 (protonated)
O=C(N=c1[n-]ccs1)NCc1cccc(S(=O)(=O)[N-]C2CC2)c1 (3D coordinates assigned)
O=C(N=c1[n-]ccs1)NCc1cccc(S(=O)(=O)[N-]C2CC2)c1 (nonaromatic ring conformer: 333.71032148629035 kcal/mol)

>  <smiles>  (61) 
O=C(N=c1[nH]ccs1)NCc1cccc(S(=O)(=O)NC2CC2)c1

>  <score_type>  (61) 
oracle

>  <origin>  (61) 
adg

>  <m_score__min__energy>  (61) 
-11.26

>  <m_primary>  (61) 
energy

$$$$
61:0
     RDKit          3D

 41 43  0  0  0  0  0  0  0  0999 V2000
   58.9320   30.1730   48.8300 N   0  0  0  0  0  0  0  0  0  0  0  0
   58.7080   31.5800   48.9360 C   0  0  0  0  0  0  0  0  0  0  0  0
   58.0130   32.0260   49.8880 O   0  0  0  0  0  0  0  0  0  0  0  0
   59.3330   32.5200   47.9810 C   0  0  0  0  0  0  0  0  0  0  0  0
   58.8950   33.8550   47.9670 C   0  0  0  0  0  0  0  0  0  0  0  0
   59.5380   34.8040   47.1700 C   0  0  0  0  0  0  0  0  0  0  0  0
   60.6290   34.4330   46.3830 C   0  0  0  0  0  0  0  0  0  0  0  0
   61.0610   33.1060   46.3670 C   0  0  0  0  0  0  0  0  0  0  0  0
   60.4010   32.1340   47.1310 C   0  0  0  0  0  0  0  0  0  0  0  0
   60.8100   30.7660   46.9840 N   0  0  0  0  0  0  0  0  0  0  0  0
   60.3180   29.8460   45.9980 C   0  0  0  0  0  0  0  0  0  0  0  0
   61.1140   28.9860   45.5340 O   0  0  0  0  0  0  0  0  0  0  0  0
   58.9280   29.9200   45.4690 C   0  0  0  0  0  0  0  0  0  0  0  0
   58.5820   30.9740   44.6030 C   0  0  0  0  0  0  0  0  0  0  0  0
   57.2950   31.0680   44.0700 C   0  0  0  0  0  0  0  0  0  0  0  0
   56.3370   30.1060   44.3820 C   0  0  0  0  0  0  0  0  0  0  0  0
   55.0870   30.2020   43.8650 F   0  0  0  0  0  0  0  0  0  0  0  0
   56.6660   29.0380   45.2180 C   0  0  0  0  0  0  0  0  0  0  0  0
   57.9590   28.9240   45.7560 C   0  0  0  0  0  0  0  0  0  0  0  0
   58.2540   27.7680   46.6260 C   0  0  0  0  0  0  0  0  0  0  0  0
   58.5580   27.9650   47.8300 O   0  0  0  0  0  0  0  0  0  0  0  0
   58.2100   26.4220   46.1330 N   0  0  0  0  0  0  0  0  0  0  0  0
   57.4770   25.3220   46.7510 C   0  0  0  0  0  0  0  0  0  0  0  0
   56.0700   25.2770   46.2430 C   0  0  0  0  0  0  0  0  0  0  0  0
   55.3490   24.1410   45.9420 C   0  0  0  0  0  0  0  0  0  0  0  0
   54.1140   24.6190   45.5670 C   0  0  0  0  0  0  0  0  0  0  0  0
   54.1110   25.9630   45.6420 N   0  0  0  0  0  0  0  0  0  0  0  0
   55.3020   26.3660   46.0560 N   0  0  0  0  0  0  0  0  0  0  0  0
   59.5790   29.7830   48.1100 H   0  0  0  0  0  0  0  0  0  0  0  0
   58.5030   29.5200   49.5230 H   0  0  0  0  0  0  0  0  0  0  0  0
   58.0387   34.1548   48.5889 H   0  0  0  0  0  0  0  0  0  0  0  0
   59.1841   35.8455   47.1624 H   0  0  0  0  0  0  0  0  0  0  0  0
   61.1492   35.1874   45.7745 H   0  0  0  0  0  0  0  0  0  0  0  0
   61.9260   32.8209   45.7501 H   0  0  0  0  0  0  0  0  0  0  0  0
   59.3346   31.7329   44.3429 H   0  0  0  0  0  0  0  0  0  0  0  0
   57.0370   31.9033   43.4024 H   0  0  0  0  0  0  0  0  0  0  0  0
   55.9067   28.2791   45.4577 H   0  0  0  0  0  0  0  0  0  0  0  0
   57.9788   24.3730   46.5110 H   0  0  0  0  0  0  0  0  0  0  0  0
   57.4567   25.4762   47.8399 H   0  0  0  0  0  0  0  0  0  0  0  0
   55.6836   23.0942   45.9904 H   0  0  0  0  0  0  0  0  0  0  0  0
   53.2612   23.9986   45.2543 H   0  0  0  0  0  0  0  0  0  0  0  0
  1  2  1  0
  2  3  2  0
  2  4  1  0
  4  5  2  0
  5  6  1  0
  6  7  2  0
  7  8  1  0
  8  9  2  0
  9 10  1  0
 10 11  1  0
 11 12  2  0
 11 13  1  0
 13 14  2  0
 14 15  1  0
 15 16  2  0
 16 17  1  0
 16 18  1  0
 18 19  2  0
 19 20  1  0
 20 21  2  0
 20 22  1  0
 22 23  1  0
 23 24  1  0
 24 25  1  0
 25 26  2  0
 26 27  1  0
 27 28  1  0
  9  4  1  0
 19 13  1  0
 28 24  2  0
  1 29  1  0
  1 30  1  0
  5 31  1  0
  6 32  1  0
  7 33  1  0
  8 34  1  0
 14 35  1  0
 15 36  1  0
 18 37  1  0
 23 38  1  0
 23 39  1  0
 25 40  1  0
 26 41  1  0
M  CHG  3  10  -1  22  -1  27  -1
M  END
>  <UniqueID>  (62) 
59

>  <SMILES>  (62) 
NC(=O)c1ccccc1[N-]C(=O)c1ccc(F)cc1C(=O)[N-]Cc1cc[n-]n1

>  <Energy>  (62) 
88.52287474316432

>  <Genealogy>  (62) 
NC(=O)c1ccccc1[N-]C(=O)c1ccc(F)cc1C(=O)[N-]Cc1cc[n-]n1 (protonated)
NC(=O)c1ccccc1[N-]C(=O)c1ccc(F)cc1C(=O)[N-]Cc1cc[n-]n1 (3D coordinates assigned)
NC(=O)c1ccccc1[N-]C(=O)c1ccc(F)cc1C(=O)[N-]Cc1cc[n-]n1 (optimized conformer: 88.52287474316432 kcal/mol)

>  <smiles>  (62) 
NC(=O)c1ccccc1NC(=O)c1ccc(F)cc1C(=O)NCc1cc[nH]n1

>  <score_type>  (62) 
oracle

>  <origin>  (62) 
adg

>  <m_score__min__energy>  (62) 
-12.91

>  <m_primary>  (62) 
energy

$$$$
62:0
     RDKit          3D

 55 58  0  0  1  0  0  0  0  0999 V2000
   52.2510   23.8260   44.8680 C   0  0  0  0  0  0  0  0  0  0  0  0
   52.9440   22.6540   45.2670 O   0  0  0  0  0  0  0  0  0  0  0  0
   53.9160   22.7250   46.2720 C   0  0  0  0  0  0  0  0  0  0  0  0
   55.2470   22.6800   45.9200 C   0  0  0  0  0  0  0  0  0  0  0  0
   56.1690   22.7530   46.9340 C   0  0  0  0  0  0  0  0  0  0  0  0
   57.4180   22.7240   46.6970 N   0  0  0  0  0  0  0  0  0  0  0  0
   58.1520   23.3900   45.3130 S   0  0  0  0  0  0  0  0  0  0  0  0
   57.5520   22.9720   44.0100 O   0  0  0  0  0  0  0  0  0  0  0  0
   59.5500   22.7630   45.2700 O   0  0  0  0  0  0  0  0  0  0  0  0
   58.4070   25.1220   45.4210 C   0  0  0  0  0  0  0  0  0  0  0  0
   57.9310   25.9290   44.3880 C   0  0  0  0  0  0  0  0  0  0  0  0
   58.1340   27.2910   44.4830 C   0  0  0  0  0  0  0  0  0  0  0  0
   58.7800   27.8810   45.5420 C   0  0  0  0  0  0  0  0  0  0  0  0
   58.9390   29.2990   45.5150 N   0  0  0  0  0  0  0  0  0  0  0  0
   57.8670   30.2140   45.4590 C   0  0  0  0  0  0  0  0  0  0  0  0
   56.7030   29.7320   45.4300 O   0  0  0  0  0  0  0  0  0  0  0  0
   58.0500   31.6720   45.4340 C   0  0  0  0  0  0  0  0  0  0  0  0
   57.4030   32.4310   44.4830 C   0  0  0  0  0  0  0  0  0  0  0  0
   57.5920   33.7750   44.5030 C   0  0  0  0  0  0  0  0  0  0  0  0
   58.4240   34.3720   45.4650 C   0  0  0  0  0  0  0  0  0  0  0  0
   59.0770   33.6580   46.4190 C   0  0  0  0  0  0  0  0  0  0  0  0
   59.9130   34.1220   47.4840 C   0  0  0  0  0  0  0  0  0  0  0  0
   59.3140   34.9500   48.3060 O   0  0  0  0  0  0  0  0  0  0  0  0
   61.2830   33.8620   47.8210 C   0  0  0  0  0  0  0  0  0  0  0  0
   61.8740   33.8450   49.0480 C   0  0  0  0  0  0  0  0  0  0  0  0
   63.2190   33.5350   49.2280 C   0  0  0  0  0  0  0  0  0  0  0  0
   64.0280   33.2290   48.1740 C   0  0  0  0  0  0  0  0  0  0  0  0
   63.4670   33.2360   46.9170 C   0  0  0  0  0  0  0  0  0  0  0  0
   62.1400   33.5430   46.7500 C   0  0  0  0  0  0  0  0  0  0  0  0
   58.8510   32.2610   46.3600 C   0  0  0  0  0  0  0  0  0  0  0  0
   59.2530   27.0900   46.5670 C   0  0  0  0  0  0  0  0  0  0  0  0
   59.0520   25.7230   46.4770 C   0  0  0  0  0  0  0  0  0  0  0  0
   55.7900   22.8650   48.2290 N   0  0  0  0  0  0  0  0  0  0  0  0
   54.4800   22.9060   48.5360 C   0  0  0  0  0  0  0  0  0  0  0  0
   53.5600   22.8370   47.5630 N   0  0  0  0  0  0  0  0  0  0  0  0
   51.9235   24.3799   45.7601 H   0  0  0  0  0  0  0  0  0  0  0  0
   52.9192   24.4605   44.2673 H   0  0  0  0  0  0  0  0  0  0  0  0
   51.3730   23.5462   44.2673 H   0  0  0  0  0  0  0  0  0  0  0  0
   55.5583   22.5892   44.8689 H   0  0  0  0  0  0  0  0  0  0  0  0
   57.4093   25.4931   43.5232 H   0  0  0  0  0  0  0  0  0  0  0  0
   57.7609   27.9343   43.6725 H   0  0  0  0  0  0  0  0  0  0  0  0
   59.9330   29.6380   45.5390 H   0  0  0  0  0  0  0  0  0  0  0  0
   56.7527   31.9616   43.7301 H   0  0  0  0  0  0  0  0  0  0  0  0
   57.0870   34.4052   43.7561 H   0  0  0  0  0  0  0  0  0  0  0  0
   58.5523   35.4643   45.4450 H   0  0  0  0  0  0  0  0  0  0  0  0
   61.2644   34.0857   49.9315 H   0  0  0  0  0  0  0  0  0  0  0  0
   63.6391   33.5369   50.2446 H   0  0  0  0  0  0  0  0  0  0  0  0
   65.0903   32.9854   48.3227 H   0  0  0  0  0  0  0  0  0  0  0  0
   64.0864   32.9940   46.0408 H   0  0  0  0  0  0  0  0  0  0  0  0
   61.7259   33.5398   45.7309 H   0  0  0  0  0  0  0  0  0  0  0  0
   59.3496   31.6200   47.1020 H   0  0  0  0  0  0  0  0  0  0  0  0
   59.7739   27.5310   47.4296 H   0  0  0  0  0  0  0  0  0  0  0  0
   59.4270   25.0853   47.2911 H   0  0  0  0  0  0  0  0  0  0  0  0
   56.5190   22.9180   48.9850 H   0  0  0  0  0  0  0  0  0  0  0  0
   54.1640   22.9962   49.5858 H   0  0  0  0  0  0  0  0  0  0  0  0
  1  2  1  0
  2  3  1  0
  3  4  2  0
  4  5  1  0
  5  6  2  0
  6  7  1  0
  7  8  2  0
  7  9  2  0
  7 10  1  0
 10 11  2  0
 11 12  1  0
 12 13  2  0
 13 14  1  0
 14 15  1  0
 15 16  2  0
 15 17  1  0
 17 18  2  0
 18 19  1  0
 19 20  2  0
 20 21  1  0
 21 22  1  0
 22 23  2  0
 22 24  1  0
 24 25  2  0
 25 26  1  0
 26 27  2  0
 27 28  1  0
 28 29  2  0
 21 30  2  0
 13 31  1  0
 31 32  2  0
  5 33  1  0
 33 34  1  0
 34 35  2  0
 35  3  1  0
 32 10  1  0
 30 17  1  0
 29 24  1  0
  1 36  1  0
  1 37  1  0
  1 38  1  0
  4 39  1  0
 11 40  1  0
 12 41  1  0
 14 42  1  0
 18 43  1  0
 19 44  1  0
 20 45  1  0
 25 46  1  0
 26 47  1  0
 27 48  1  0
 28 49  1  0
 29 50  1  0
 30 51  1  0
 31 52  1  0
 32 53  1  0
 33 54  1  0
 34 55  1  0
M  END
>  <smiles>  (63) 
COc1cc(=NS(=O)(=O)c2ccc(NC(=O)c3cccc(C(=O)c4ccccc4)c3)cc2)[nH]cn1

>  <score_type>  (63) 
oracle

>  <origin>  (63) 
adg

>  <m_score__min__energy>  (63) 
-10.380000000000001

>  <m_primary>  (63) 
energy

$$$$
63:0
     RDKit          3D

 58 62  0  0  0  0  0  0  0  0999 V2000
   57.7700   32.0910   42.7010 C   0  0  0  0  0  0  0  0  0  0  0  0
   57.3340   30.9480   43.9970 S   0  0  0  0  0  0  0  0  0  0  0  0
   58.0320   29.6340   43.7760 O   0  0  0  0  0  0  0  0  0  0  0  0
   55.8470   30.7310   43.9490 O   0  0  0  0  0  0  0  0  0  0  0  0
   57.8010   31.6030   45.5650 C   0  0  0  0  0  0  0  0  0  0  0  0
   57.8100   32.9860   45.7820 C   0  0  0  0  0  0  0  0  0  0  0  0
   58.1850   33.4980   47.0250 C   0  0  0  0  0  0  0  0  0  0  0  0
   58.5630   32.6390   48.0600 C   0  0  0  0  0  0  0  0  0  0  0  0
   59.0510   33.3420   49.6460 S   0  0  0  0  0  0  0  0  0  0  0  0
   60.7140   32.6460   49.5650 C   0  0  0  0  0  0  0  0  0  0  0  0
   61.1090   31.7940   50.5540 N   0  0  0  0  0  0  0  0  0  0  0  0
   62.3610   31.2650   50.5940 C   0  0  0  0  0  0  0  0  0  0  0  0
   63.2870   31.5740   49.6010 C   0  0  0  0  0  0  0  0  0  0  0  0
   62.9160   32.4200   48.5490 C   0  0  0  0  0  0  0  0  0  0  0  0
   63.8320   32.7260   47.5310 C   0  0  0  0  0  0  0  0  0  0  0  0
   63.4540   33.5570   46.4740 C   0  0  0  0  0  0  0  0  0  0  0  0
   62.1610   34.0770   46.4190 C   0  0  0  0  0  0  0  0  0  0  0  0
   61.2380   33.7810   47.4260 C   0  0  0  0  0  0  0  0  0  0  0  0
   61.6070   32.9620   48.5140 C   0  0  0  0  0  0  0  0  0  0  0  0
   58.5360   31.2470   47.8600 C   0  0  0  0  0  0  0  0  0  0  0  0
   58.9010   30.3810   48.9410 N   0  0  0  0  0  0  0  0  0  0  0  0
   60.0990   29.1300   48.8850 S   0  0  0  0  0  0  0  0  0  0  0  0
   59.6380   28.0040   48.0030 O   0  0  0  0  0  0  0  0  0  0  0  0
   61.3850   29.7000   48.3490 O   0  0  0  0  0  0  0  0  0  0  0  0
   60.3630   28.5280   50.5180 C   0  0  0  0  0  0  0  0  0  0  0  0
   61.3220   27.5410   50.7960 C   0  0  0  0  0  0  0  0  0  0  0  0
   61.4510   27.2430   52.1540 C   0  0  0  0  0  0  0  0  0  0  0  0
   62.3830   26.2610   52.7610 C   0  0  0  0  0  0  0  0  0  0  0  0
   61.9170   25.0170   53.2270 C   0  0  0  0  0  0  0  0  0  0  0  0
   62.8000   24.1020   53.8070 C   0  0  0  0  0  0  0  0  0  0  0  0
   64.1540   24.4160   53.9270 C   0  0  0  0  0  0  0  0  0  0  0  0
   64.6290   25.6460   53.4690 C   0  0  0  0  0  0  0  0  0  0  0  0
   63.7500   26.5660   52.8910 C   0  0  0  0  0  0  0  0  0  0  0  0
   60.3700   28.2160   52.9990 S   0  0  0  0  0  0  0  0  0  0  0  0
   59.7220   29.0130   51.6640 C   0  0  0  0  0  0  0  0  0  0  0  0
   58.6720   30.0410   51.7630 C   0  0  0  0  0  0  0  0  0  0  0  0
   57.4680   29.7210   51.5910 O   0  0  0  0  0  0  0  0  0  0  0  0
   58.9850   31.3680   52.0170 O   0  0  0  0  0  0  0  0  0  0  0  0
   58.1490   30.7370   46.6080 C   0  0  0  0  0  0  0  0  0  0  0  0
   58.1285   33.0308   43.1462 H   0  0  0  0  0  0  0  0  0  0  0  0
   58.5645   31.6537   42.0784 H   0  0  0  0  0  0  0  0  0  0  0  0
   56.8861   32.2939   42.0784 H   0  0  0  0  0  0  0  0  0  0  0  0
   57.5209   33.6706   44.9710 H   0  0  0  0  0  0  0  0  0  0  0  0
   58.1829   34.5854   47.1910 H   0  0  0  0  0  0  0  0  0  0  0  0
   60.4400   31.5460   51.3150 H   0  0  0  0  0  0  0  0  0  0  0  0
   62.6437   30.5896   51.4149 H   0  0  0  0  0  0  0  0  0  0  0  0
   64.3036   31.1560   49.6429 H   0  0  0  0  0  0  0  0  0  0  0  0
   64.8499   32.3105   47.5655 H   0  0  0  0  0  0  0  0  0  0  0  0
   64.1779   33.8020   45.6829 H   0  0  0  0  0  0  0  0  0  0  0  0
   61.8662   34.7232   45.5790 H   0  0  0  0  0  0  0  0  0  0  0  0
   60.2180   34.1889   47.3699 H   0  0  0  0  0  0  0  0  0  0  0  0
   61.9180   27.0470   50.0145 H   0  0  0  0  0  0  0  0  0  0  0  0
   60.8507   24.7634   53.1340 H   0  0  0  0  0  0  0  0  0  0  0  0
   62.4268   23.1328   54.1694 H   0  0  0  0  0  0  0  0  0  0  0  0
   64.8475   23.6940   54.3827 H   0  0  0  0  0  0  0  0  0  0  0  0
   65.6971   25.8916   53.5632 H   0  0  0  0  0  0  0  0  0  0  0  0
   64.1297   27.5352   52.5353 H   0  0  0  0  0  0  0  0  0  0  0  0
   58.1195   29.6492   46.4471 H   0  0  0  0  0  0  0  0  0  0  0  0
  1  2  1  0
  2  3  2  0
  2  4  2  0
  2  5  1  0
  5  6  2  0
  6  7  1  0
  7  8  2  0
  8  9  1  0
  9 10  1  0
 10 11  2  0
 11 12  1  0
 12 13  2  0
 13 14  1  0
 14 15  2  0
 15 16  1  0
 16 17  2  0
 17 18  1  0
 18 19  2  0
  8 20  1  0
 20 21  1  0
 21 22  1  0
 22 23  2  0
 22 24  2  0
 22 25  1  0
 25 26  1  0
 26 27  2  0
 27 28  1  0
 28 29  2  0
 29 30  1  0
 30 31  2  0
 31 32  1  0
 32 33  2  0
 27 34  1  0
 34 35  1  0
 35 36  1  0
 36 37  2  0
 36 38  1  0
 20 39  2  0
 39  5  1  0
 19 10  1  0
 35 25  2  0
 19 14  1  0
 33 28  1  0
  1 40  1  0
  1 41  1  0
  1 42  1  0
  6 43  1  0
  7 44  1  0
 11 45  1  0
 12 46  1  0
 13 47  1  0
 15 48  1  0
 16 49  1  0
 17 50  1  0
 18 51  1  0
 26 52  1  0
 29 53  1  0
 30 54  1  0
 31 55  1  0
 32 56  1  0
 33 57  1  0
 39 58  1  0
M  CHG  3  11   1  21  -1  38  -1
M  END
>  <UniqueID>  (64) 
60

>  <SMILES>  (64) 
CS(=O)(=O)c1ccc(Sc2[nH+]ccc3ccccc23)c([N-]S(=O)(=O)c2cc(-c3ccccc3)sc2C(=O)[O-])c1

>  <Energy>  (64) 
93.13711355326318

>  <Genealogy>  (64) 
CS(=O)(=O)c1ccc(Sc2[nH+]ccc3ccccc23)c([N-]S(=O)(=O)c2cc(-c3ccccc3)sc2C(=O)[O-])c1 (protonated)
CS(=O)(=O)c1ccc(Sc2[nH+]ccc3ccccc23)c([N-]S(=O)(=O)c2cc(-c3ccccc3)sc2C(=O)[O-])c1 (3D coordinates assigned)
CS(=O)(=O)c1ccc(Sc2[nH+]ccc3ccccc23)c([N-]S(=O)(=O)c2cc(-c3ccccc3)sc2C(=O)[O-])c1 (optimized conformer: 93.13711355326318 kcal/mol)

>  <smiles>  (64) 
CS(=O)(=O)c1ccc(Sc2nccc3ccccc23)c(NS(=O)(=O)c2cc(-c3ccccc3)sc2C(=O)O)c1

>  <score_type>  (64) 
oracle

>  <origin>  (64) 
adg

>  <m_score__min__energy>  (64) 
-12.41

>  <m_primary>  (64) 
energy

$$$$
64:0
     RDKit          3D

 41 43  0  0  0  0  0  0  0  0999 V2000
   58.1240   32.3320   42.7050 C   0  0  0  0  0  0  0  0  0  0  0  0
   58.1170   32.8810   44.1060 C   0  0  0  0  0  0  0  0  0  0  0  0
   58.9780   33.9490   44.4140 C   0  0  0  0  0  0  0  0  0  0  0  0
   59.0550   34.4450   45.7180 C   0  0  0  0  0  0  0  0  0  0  0  0
   58.2810   33.8760   46.7300 C   0  0  0  0  0  0  0  0  0  0  0  0
   57.4100   32.8260   46.4350 C   0  0  0  0  0  0  0  0  0  0  0  0
   57.2830   32.3520   45.1220 C   0  0  0  0  0  0  0  0  0  0  0  0
   56.3270   31.3140   44.8720 N   0  0  0  0  0  0  0  0  0  0  0  0
   56.6510   29.9220   44.7690 C   0  0  0  0  0  0  0  0  0  0  0  0
   55.8790   29.0480   45.2440 O   0  0  0  0  0  0  0  0  0  0  0  0
   57.9330   29.5060   44.1240 C   0  0  0  0  0  0  0  0  0  0  0  0
   59.1460   28.9370   45.3710 S   0  0  0  0  0  0  0  0  0  0  0  0
   58.3390   29.6710   46.8430 C   0  0  0  0  0  0  0  0  0  0  0  0
   59.2920   30.5680   47.5860 C   0  0  0  0  0  0  0  0  0  0  0  0
   59.1660   30.7480   48.9640 C   0  0  0  0  0  0  0  0  0  0  0  0
   60.0280   31.6260   49.6160 C   0  0  0  0  0  0  0  0  0  0  0  0
   59.8900   31.8000   50.8590 O   0  0  0  0  0  0  0  0  0  0  0  0
   61.0040   32.2880   48.9130 N   0  0  0  0  0  0  0  0  0  0  0  0
   61.8460   33.1680   49.5490 C   0  0  0  0  0  0  0  0  0  0  0  0
   62.8390   33.8460   48.8390 C   0  0  0  0  0  0  0  0  0  0  0  0
   62.9810   33.6230   47.4750 C   0  0  0  0  0  0  0  0  0  0  0  0
   62.1320   32.7320   46.8280 C   0  0  0  0  0  0  0  0  0  0  0  0
   61.1330   32.0660   47.5580 C   0  0  0  0  0  0  0  0  0  0  0  0
   60.2820   31.2160   46.9150 N   0  0  0  0  0  0  0  0  0  0  0  0
   58.1380   31.2327   42.7420 H   0  0  0  0  0  0  0  0  0  0  0  0
   57.2215   32.6695   42.1744 H   0  0  0  0  0  0  0  0  0  0  0  0
   59.0176   32.6924   42.1744 H   0  0  0  0  0  0  0  0  0  0  0  0
   59.5959   34.3976   43.6222 H   0  0  0  0  0  0  0  0  0  0  0  0
   59.7268   35.2853   45.9471 H   0  0  0  0  0  0  0  0  0  0  0  0
   58.3572   34.2548   47.7599 H   0  0  0  0  0  0  0  0  0  0  0  0
   56.8179   32.3664   47.2401 H   0  0  0  0  0  0  0  0  0  0  0  0
   57.7308   28.6857   43.4195 H   0  0  0  0  0  0  0  0  0  0  0  0
   58.3559   30.3740   43.5969 H   0  0  0  0  0  0  0  0  0  0  0  0
   57.4677   30.2597   46.5201 H   0  0  0  0  0  0  0  0  0  0  0  0
   58.0256   28.8579   47.5143 H   0  0  0  0  0  0  0  0  0  0  0  0
   58.3951   30.2029   49.5284 H   0  0  0  0  0  0  0  0  0  0  0  0
   61.7366   33.3404   50.6299 H   0  0  0  0  0  0  0  0  0  0  0  0
   63.5048   34.5524   49.3565 H   0  0  0  0  0  0  0  0  0  0  0  0
   63.7630   34.1499   46.9085 H   0  0  0  0  0  0  0  0  0  0  0  0
   62.2420   32.5492   45.7489 H   0  0  0  0  0  0  0  0  0  0  0  0
   60.3800   31.0650   45.8850 H   0  0  0  0  0  0  0  0  0  0  0  0
  1  2  1  0
  2  3  2  0
  3  4  1  0
  4  5  2  0
  5  6  1  0
  6  7  2  0
  7  8  1  0
  8  9  1  0
  9 10  2  0
  9 11  1  0
 11 12  1  0
 12 13  1  0
 13 14  1  0
 14 15  2  0
 15 16  1  0
 16 17  2  0
 16 18  1  0
 18 19  1  0
 19 20  2  0
 20 21  1  0
 21 22  2  0
 22 23  1  0
 23 24  2  0
  7  2  1  0
 24 14  1  0
 23 18  1  0
  1 25  1  0
  1 26  1  0
  1 27  1  0
  3 28  1  0
  4 29  1  0
  5 30  1  0
  6 31  1  0
 11 32  1  0
 11 33  1  0
 13 34  1  0
 13 35  1  0
 15 36  1  0
 19 37  1  0
 20 38  1  0
 21 39  1  0
 22 40  1  0
 24 41  1  0
M  CHG  2   8  -1  24   1
M  END
>  <UniqueID>  (65) 
61

>  <SMILES>  (65) 
Cc1ccccc1[N-]C(=O)CSCc1cc(=O)n2ccccc2[nH+]1

>  <Energy>  (65) 
47.357960412670266

>  <Genealogy>  (65) 
Cc1ccccc1[N-]C(=O)CSCc1cc(=O)n2ccccc2[nH+]1 (protonated)
Cc1ccccc1[N-]C(=O)CSCc1cc(=O)n2ccccc2[nH+]1 (3D coordinates assigned)
Cc1ccccc1[N-]C(=O)CSCc1cc(=O)n2ccccc2[nH+]1 (optimized conformer: 47.357960412670266 kcal/mol)

>  <smiles>  (65) 
Cc1ccccc1NC(=O)CSCc1cc(=O)n2ccccc2n1

>  <score_type>  (65) 
oracle

>  <origin>  (65) 
adg

>  <m_score__min__energy>  (65) 
-7.9500000000000002

>  <m_primary>  (65) 
energy

$$$$
65:0
     RDKit          3D

 59 62  0  0  1  0  0  0  0  0999 V2000
   60.1460   27.0830   48.0990 C   0  0  0  0  0  0  0  0  0  0  0  0
   58.8650   27.0240   47.5430 O   0  0  0  0  0  0  0  0  0  0  0  0
   58.4040   27.8790   46.5720 C   0  0  0  0  0  0  0  0  0  0  0  0
   58.4990   29.2500   46.7330 C   0  0  0  0  0  0  0  0  0  0  0  0
   58.0260   30.0970   45.7370 C   0  0  0  0  0  0  0  0  0  0  0  0
   58.0970   31.4390   45.8500 N   0  0  0  0  0  0  0  0  0  0  0  0
   57.6380   32.2500   44.8840 C   0  0  0  0  0  0  0  0  0  0  0  0
   57.7240   33.5270   45.0280 N   0  0  0  0  0  0  0  0  0  0  0  0
   58.8810   34.1940   44.5070 C   0  0  0  0  0  0  0  0  0  0  0  0
   59.3320   35.1860   45.5800 C   0  0  0  0  0  0  0  0  0  0  0  0
   59.2460   34.5730   46.9500 C   0  0  0  0  0  0  0  0  0  0  0  0
   60.5470   34.1830   47.5020 C   0  0  0  0  0  0  0  0  0  0  0  0
   60.7050   34.1930   48.8750 C   0  0  0  0  0  0  0  0  0  0  0  0
   61.9280   33.8280   49.4430 C   0  0  0  0  0  0  0  0  0  0  0  0
   62.9890   33.4560   48.6460 C   0  0  0  0  0  0  0  0  0  0  0  0
   64.5410   32.9930   49.3550 Cl  0  0  0  0  0  0  0  0  0  0  0  0
   62.8120   33.4540   47.2990 C   0  0  0  0  0  0  0  0  0  0  0  0
   61.6140   33.8090   46.7220 C   0  0  0  0  0  0  0  0  0  0  0  0
   57.0890   31.7280   43.7710 N   0  0  0  0  0  0  0  0  0  0  0  0
   56.9750   30.3930   43.5700 C   0  0  0  0  0  0  0  0  0  0  0  0
   56.4440   30.0030   42.4900 N   0  0  0  0  0  0  0  0  0  0  0  0
   57.4540   29.5830   44.5760 C   0  0  0  0  0  0  0  0  0  0  0  0
   57.3610   28.2170   44.4210 C   0  0  0  0  0  0  0  0  0  0  0  0
   57.8390   27.3990   45.4250 C   0  0  0  0  0  0  0  0  0  0  0  0
   57.7220   26.0120   45.2190 O   0  0  0  0  0  0  0  0  0  0  0  0
   56.6750   25.2900   45.7800 C   0  0  0  0  0  0  0  0  0  0  0  0
   55.7930   25.9830   46.3820 O   0  0  0  0  0  0  0  0  0  0  0  0
   56.5990   23.8740   45.6870 N   0  0  0  0  0  0  0  0  0  0  0  0
   57.5700   23.0540   45.0180 C   0  0  0  0  0  0  0  0  0  0  0  0
   57.9440   21.9110   45.9100 C   0  0  0  0  0  0  0  0  0  0  0  0
   57.3870   22.0700   47.1950 O   0  0  0  0  0  0  0  0  0  0  0  0
   55.9950   22.0430   47.1000 C   0  0  0  0  0  0  0  0  0  0  0  0
   55.4630   23.2170   46.3070 C   0  0  0  0  0  0  0  0  0  0  0  0
   60.0699   27.0795   49.1964 H   0  0  0  0  0  0  0  0  0  0  0  0
   60.7294   26.2108   47.7691 H   0  0  0  0  0  0  0  0  0  0  0  0
   60.6468   28.0052   47.7691 H   0  0  0  0  0  0  0  0  0  0  0  0
   58.9473   29.6685   47.6461 H   0  0  0  0  0  0  0  0  0  0  0  0
   58.5320   31.8150   46.7340 H   0  0  0  0  0  0  0  0  0  0  0  0
   59.6798   33.4656   44.3034 H   0  0  0  0  0  0  0  0  0  0  0  0
   58.6513   34.7081   43.5621 H   0  0  0  0  0  0  0  0  0  0  0  0
   60.3731   35.4810   45.3825 H   0  0  0  0  0  0  0  0  0  0  0  0
   58.6700   36.0639   45.5464 H   0  0  0  0  0  0  0  0  0  0  0  0
   58.7851   35.3047   47.6299 H   0  0  0  0  0  0  0  0  0  0  0  0
   58.6478   33.6547   46.8552 H   0  0  0  0  0  0  0  0  0  0  0  0
   59.8660   34.4890   49.5219 H   0  0  0  0  0  0  0  0  0  0  0  0
   62.0452   33.8376   50.5367 H   0  0  0  0  0  0  0  0  0  0  0  0
   63.6506   33.1601   46.6507 H   0  0  0  0  0  0  0  0  0  0  0  0
   61.5101   33.7931   45.6270 H   0  0  0  0  0  0  0  0  0  0  0  0
   56.7420   32.3840   43.0400 H   0  0  0  0  0  0  0  0  0  0  0  0
   55.5080   29.6550   42.2920 H   0  0  0  0  0  0  0  0  0  0  0  0
   56.9137   27.7859   43.5132 H   0  0  0  0  0  0  0  0  0  0  0  0
   57.1422   22.6660   44.0818 H   0  0  0  0  0  0  0  0  0  0  0  0
   58.4640   23.6519   44.7872 H   0  0  0  0  0  0  0  0  0  0  0  0
   57.5714   20.9743   45.4698 H   0  0  0  0  0  0  0  0  0  0  0  0
   59.0396   21.8836   46.0038 H   0  0  0  0  0  0  0  0  0  0  0  0
   55.6900   21.1102   46.6031 H   0  0  0  0  0  0  0  0  0  0  0  0
   55.5816   22.1023   48.1176 H   0  0  0  0  0  0  0  0  0  0  0  0
   54.7656   22.8629   45.5336 H   0  0  0  0  0  0  0  0  0  0  0  0
   54.9218   23.9148   46.9629 H   0  0  0  0  0  0  0  0  0  0  0  0
  1  2  1  0
  2  3  1  0
  3  4  2  0
  4  5  1  0
  5  6  1  0
  6  7  1  0
  7  8  2  0
  8  9  1  0
  9 10  1  0
 10 11  1  0
 11 12  1  0
 12 13  2  0
 13 14  1  0
 14 15  2  0
 15 16  1  0
 15 17  1  0
 17 18  2  0
  7 19  1  0
 19 20  1  0
 20 21  2  3
 20 22  1  0
 22 23  1  0
 23 24  2  0
 24 25  1  0
 25 26  1  0
 26 27  2  0
 26 28  1  0
 28 29  1  0
 29 30  1  0
 30 31  1  0
 31 32  1  0
 32 33  1  0
 24  3  1  0
 33 28  1  0
 22  5  2  0
 18 12  1  0
  1 34  1  0
  1 35  1  0
  1 36  1  0
  4 37  1  0
  6 38  1  0
  9 39  1  0
  9 40  1  0
 10 41  1  0
 10 42  1  0
 11 43  1  0
 11 44  1  0
 13 45  1  0
 14 46  1  0
 17 47  1  0
 18 48  1  0
 19 49  1  0
 21 50  1  0
 23 51  1  0
 29 52  1  0
 29 53  1  0
 30 54  1  0
 30 55  1  0
 32 56  1  0
 32 57  1  0
 33 58  1  0
 33 59  1  0
M  END
>  <smiles>  (66) 
COc1cc2[nH]c(=NCCCc3ccc(Cl)cc3)[nH]c(=N)c2cc1OC(=O)N1CCOCC1

>  <score_type>  (66) 
oracle

>  <origin>  (66) 
adg

>  <m_score__min__energy>  (66) 
-9.3800000000000008

>  <m_primary>  (66) 
energy

$$$$
66:0
     RDKit          3D

 49 52  0  0  0  0  0  0  0  0999 V2000
   57.4310   22.5540   47.1100 O   0  0  0  0  0  0  0  0  0  0  0  0
   57.2600   23.7850   46.9110 C   0  0  0  0  0  0  0  0  0  0  0  0
   55.8910   24.3890   47.0490 C   0  0  0  0  0  0  0  0  0  0  0  0
   55.7850   25.6280   46.3380 O   0  0  0  0  0  0  0  0  0  0  0  0
   56.8770   26.4750   46.1100 C   0  0  0  0  0  0  0  0  0  0  0  0
   56.6690   27.7930   45.6940 C   0  0  0  0  0  0  0  0  0  0  0  0
   57.7640   28.6350   45.4510 C   0  0  0  0  0  0  0  0  0  0  0  0
   57.5150   30.2910   44.9040 S   0  0  0  0  0  0  0  0  0  0  0  0
   58.4140   30.6120   43.7430 O   0  0  0  0  0  0  0  0  0  0  0  0
   56.0840   30.4460   44.4710 O   0  0  0  0  0  0  0  0  0  0  0  0
   57.8440   31.3970   46.2000 N   0  0  0  0  0  0  0  0  0  0  0  0
   59.1700   31.7660   46.6230 C   0  0  0  0  0  0  0  0  0  0  0  0
   59.9600   30.8220   47.2960 C   0  0  0  0  0  0  0  0  0  0  0  0
   61.2530   31.1440   47.7140 C   0  0  0  0  0  0  0  0  0  0  0  0
   61.7770   32.4240   47.4820 C   0  0  0  0  0  0  0  0  0  0  0  0
   63.1520   32.7670   47.9060 C   0  0  0  0  0  0  0  0  0  0  0  0
   64.0000   33.1020   47.0330 O   0  0  0  0  0  0  0  0  0  0  0  0
   63.5390   32.7360   49.2930 N   0  0  0  0  0  0  0  0  0  0  0  0
   62.6590   33.3390   50.3090 C   0  0  0  0  0  0  0  0  0  0  0  0
   63.4040   33.5750   51.6310 C   0  0  0  0  0  0  0  0  0  0  0  0
   64.7690   34.2250   51.3710 C   0  0  0  0  0  0  0  0  0  0  0  0
   65.6430   33.4290   50.3750 C   0  0  0  0  0  0  0  0  0  0  0  0
   64.8860   32.2930   49.6710 C   0  0  0  0  0  0  0  0  0  0  0  0
   60.9930   33.3680   46.8000 C   0  0  0  0  0  0  0  0  0  0  0  0
   59.6990   33.0470   46.3810 C   0  0  0  0  0  0  0  0  0  0  0  0
   59.0670   28.1500   45.6290 C   0  0  0  0  0  0  0  0  0  0  0  0
   59.2770   26.8280   46.0340 C   0  0  0  0  0  0  0  0  0  0  0  0
   58.1830   25.9900   46.2730 C   0  0  0  0  0  0  0  0  0  0  0  0
   58.3830   24.6220   46.6290 N   0  0  0  0  0  0  0  0  0  0  0  0
   55.1480   23.6835   46.6487 H   0  0  0  0  0  0  0  0  0  0  0  0
   55.7100   24.5888   48.1155 H   0  0  0  0  0  0  0  0  0  0  0  0
   55.6449   28.1705   45.5570 H   0  0  0  0  0  0  0  0  0  0  0  0
   57.0240   31.7430   46.7450 H   0  0  0  0  0  0  0  0  0  0  0  0
   59.5570   29.8183   47.4964 H   0  0  0  0  0  0  0  0  0  0  0  0
   61.8647   30.3884   48.2288 H   0  0  0  0  0  0  0  0  0  0  0  0
   62.2860   34.3027   49.9321 H   0  0  0  0  0  0  0  0  0  0  0  0
   61.8275   32.6449   50.5008 H   0  0  0  0  0  0  0  0  0  0  0  0
   62.8036   34.2380   52.2713 H   0  0  0  0  0  0  0  0  0  0  0  0
   63.5606   32.6065   52.1284 H   0  0  0  0  0  0  0  0  0  0  0  0
   64.6041   35.2332   50.9631 H   0  0  0  0  0  0  0  0  0  0  0  0
   65.3070   34.2501   52.3301 H   0  0  0  0  0  0  0  0  0  0  0  0
   66.0198   34.1235   49.6097 H   0  0  0  0  0  0  0  0  0  0  0  0
   66.4561   32.9670   50.9542 H   0  0  0  0  0  0  0  0  0  0  0  0
   65.4372   31.9955   48.7668 H   0  0  0  0  0  0  0  0  0  0  0  0
   64.8018   31.4390   50.3592 H   0  0  0  0  0  0  0  0  0  0  0  0
   61.4006   34.3686   46.5937 H   0  0  0  0  0  0  0  0  0  0  0  0
   59.0906   33.8002   45.8590 H   0  0  0  0  0  0  0  0  0  0  0  0
   59.9274   28.8115   45.4495 H   0  0  0  0  0  0  0  0  0  0  0  0
   60.3010   26.4478   46.1644 H   0  0  0  0  0  0  0  0  0  0  0  0
  1  2  2  0
  2  3  1  0
  3  4  1  0
  4  5  1  0
  5  6  2  0
  6  7  1  0
  7  8  1  0
  8  9  2  0
  8 10  2  0
  8 11  1  0
 11 12  1  0
 12 13  2  0
 13 14  1  0
 14 15  2  0
 15 16  1  0
 16 17  2  0
 16 18  1  0
 18 19  1  0
 19 20  1  0
 20 21  1  0
 21 22  1  0
 22 23  1  0
 15 24  1  0
 24 25  2  0
  7 26  2  0
 26 27  1  0
 27 28  2  0
 28 29  1  0
 29  2  1  0
 28  5  1  0
 25 12  1  0
 23 18  1  0
  3 30  1  0
  3 31  1  0
  6 32  1  0
 11 33  1  0
 13 34  1  0
 14 35  1  0
 19 36  1  0
 19 37  1  0
 20 38  1  0
 20 39  1  0
 21 40  1  0
 21 41  1  0
 22 42  1  0
 22 43  1  0
 23 44  1  0
 23 45  1  0
 24 46  1  0
 25 47  1  0
 26 48  1  0
 27 49  1  0
M  CHG  1  29  -1
M  END
>  <UniqueID>  (67) 
62

>  <SMILES>  (67) 
O=C1COc2cc(S(=O)(=O)Nc3ccc(C(=O)N4CCCCC4)cc3)ccc2[N-]1

>  <Energy>  (67) 
62.938846184526

>  <Genealogy>  (67) 
O=C1COc2cc(S(=O)(=O)Nc3ccc(C(=O)N4CCCCC4)cc3)ccc2[N-]1 (protonated)
O=C1COc2cc(S(=O)(=O)Nc3ccc(C(=O)N4CCCCC4)cc3)ccc2[N-]1 (3D coordinates assigned)
O=C1COc2cc(S(=O)(=O)Nc3ccc(C(=O)N4CCCCC4)cc3)ccc2[N-]1 (nonaromatic ring conformer: 62.938846184526 kcal/mol)

>  <smiles>  (67) 
O=C1COc2cc(S(=O)(=O)Nc3ccc(C(=O)N4CCCCC4)cc3)ccc2N1

>  <score_type>  (67) 
oracle

>  <origin>  (67) 
adg

>  <m_score__min__energy>  (67) 
-10.67

>  <m_primary>  (67) 
energy

$$$$
67:0
     RDKit          3D

 61 64  0  0  0  0  0  0  0  0999 V2000
   58.2804   33.8734   54.0853 H   0  0  0  0  0  0  0  0  0  0  0  0
   58.8120   33.3560   53.2730 C   0  0  0  0  0  0  0  0  0  0  0  0
   59.7680   32.3820   53.5720 C   0  0  0  0  0  0  0  0  0  0  0  0
   59.9862   32.1307   54.6204 H   0  0  0  0  0  0  0  0  0  0  0  0
   60.4480   31.7260   52.5410 C   0  0  0  0  0  0  0  0  0  0  0  0
   61.1984   30.9592   52.7839 H   0  0  0  0  0  0  0  0  0  0  0  0
   60.1800   32.0390   51.1940 C   0  0  0  0  0  0  0  0  0  0  0  0
   60.8990   31.3620   50.1330 N   0  0  0  0  0  0  0  0  0  0  0  0
   61.7670   32.1130   49.2580 C   0  0  0  0  0  0  0  0  0  0  0  0
   62.1900   31.5730   48.0300 C   0  0  0  0  0  0  0  0  0  0  0  0
   61.8622   30.5662   47.7318 H   0  0  0  0  0  0  0  0  0  0  0  0
   63.0270   32.3130   47.1860 C   0  0  0  0  0  0  0  0  0  0  0  0
   63.3591   31.8845   46.2289 H   0  0  0  0  0  0  0  0  0  0  0  0
   63.4410   33.5940   47.5570 C   0  0  0  0  0  0  0  0  0  0  0  0
   64.0956   34.1751   46.8908 H   0  0  0  0  0  0  0  0  0  0  0  0
   63.0230   34.1380   48.7760 C   0  0  0  0  0  0  0  0  0  0  0  0
   63.3482   35.1478   49.0669 H   0  0  0  0  0  0  0  0  0  0  0  0
   62.1920   33.4000   49.6260 C   0  0  0  0  0  0  0  0  0  0  0  0
   61.8703   33.8295   50.5862 H   0  0  0  0  0  0  0  0  0  0  0  0
   60.6480   29.9430   49.8320 C   0  0  0  0  0  0  0  0  0  0  0  0
   60.5494   29.3873   50.7762 H   0  0  0  0  0  0  0  0  0  0  0  0
   61.4921   29.5558   49.2424 H   0  0  0  0  0  0  0  0  0  0  0  0
   59.3900   29.7760   49.0310 C   0  0  0  0  0  0  0  0  0  0  0  0
   58.5740   30.7350   48.9640 O   0  0  0  0  0  0  0  0  0  0  0  0
   59.1750   28.5770   48.2710 N   0  0  0  0  0  0  0  0  0  0  0  0
   58.8310   28.4890   46.8810 C   0  0  0  0  0  0  0  0  0  0  0  0
   58.9500   27.2510   46.2380 C   0  0  0  0  0  0  0  0  0  0  0  0
   59.3109   26.3762   46.7987 H   0  0  0  0  0  0  0  0  0  0  0  0
   58.6130   27.1200   44.8880 C   0  0  0  0  0  0  0  0  0  0  0  0
   58.7243   26.1475   44.3861 H   0  0  0  0  0  0  0  0  0  0  0  0
   58.1350   28.2220   44.1750 C   0  0  0  0  0  0  0  0  0  0  0  0
   57.8799   28.1183   43.1100 H   0  0  0  0  0  0  0  0  0  0  0  0
   57.9800   29.4590   44.8140 C   0  0  0  0  0  0  0  0  0  0  0  0
   57.3640   30.8530   43.9330 S   0  0  0  0  0  0  0  0  0  0  0  0
   58.4950   31.4720   43.1580 O   0  0  0  0  0  0  0  0  0  0  0  0
   56.2710   30.4230   42.9930 O   0  0  0  0  0  0  0  0  0  0  0  0
   56.7250   31.9930   45.0750 N   0  0  0  0  0  0  0  0  0  0  0  0
   57.4070   32.9020   45.7090 C   0  0  0  0  0  0  0  0  0  0  0  0
   57.9370   32.6770   47.0310 N   0  0  0  0  0  0  0  0  0  0  0  0
   57.8540   31.7440   47.4900 H   0  0  0  0  0  0  0  0  0  0  0  0
   58.5470   33.7570   47.8090 C   0  0  0  0  0  0  0  0  0  0  0  0
   58.7874   33.3724   48.8112 H   0  0  0  0  0  0  0  0  0  0  0  0
   57.8210   34.5826   47.8446 H   0  0  0  0  0  0  0  0  0  0  0  0
   59.8430   34.3140   47.1730 C   0  0  0  0  0  0  0  0  0  0  0  0
   60.6854   34.0283   47.8202 H   0  0  0  0  0  0  0  0  0  0  0  0
   59.6891   35.3999   47.0882 H   0  0  0  0  0  0  0  0  0  0  0  0
   60.1580   33.8260   45.7460 C   0  0  0  0  0  0  0  0  0  0  0  0
   60.1131   32.7269   45.7384 H   0  0  0  0  0  0  0  0  0  0  0  0
   61.1565   34.2107   45.4910 H   0  0  0  0  0  0  0  0  0  0  0  0
   59.1880   34.3580   44.6740 C   0  0  0  0  0  0  0  0  0  0  0  0
   59.3845   33.8159   43.7372 H   0  0  0  0  0  0  0  0  0  0  0  0
   59.3746   35.4396   44.6011 H   0  0  0  0  0  0  0  0  0  0  0  0
   57.6950   34.2020   45.0110 C   0  0  0  0  0  0  0  0  0  0  0  0
   57.1146   34.2398   44.0774 H   0  0  0  0  0  0  0  0  0  0  0  0
   57.4128   35.0210   45.6890 H   0  0  0  0  0  0  0  0  0  0  0  0
   58.3250   29.5910   46.1660 C   0  0  0  0  0  0  0  0  0  0  0  0
   58.1998   30.5603   46.6708 H   0  0  0  0  0  0  0  0  0  0  0  0
   59.2110   33.0220   50.9070 C   0  0  0  0  0  0  0  0  0  0  0  0
   58.9875   33.2794   49.8612 H   0  0  0  0  0  0  0  0  0  0  0  0
   58.5320   33.6720   51.9420 C   0  0  0  0  0  0  0  0  0  0  0  0
   57.7749   34.4347   51.7071 H   0  0  0  0  0  0  0  0  0  0  0  0
  1  2  1  0
  2  3  2  0
  3  4  1  0
  3  5  1  0
  5  6  1  0
  5  7  2  0
  7  8  1  0
  8  9  1  0
  9 10  2  0
 10 11  1  0
 10 12  1  0
 12 13  1  0
 12 14  2  0
 14 15  1  0
 14 16  1  0
 16 17  1  0
 16 18  2  0
 18 19  1  0
  8 20  1  0
 20 21  1  0
 20 22  1  0
 20 23  1  0
 23 24  2  0
 23 25  1  0
 25 26  1  0
 26 27  2  0
 27 28  1  0
 27 29  1  0
 29 30  1  0
 29 31  2  0
 31 32  1  0
 31 33  1  0
 33 34  1  0
 34 35  2  0
 34 36  2  0
 34 37  1  0
 37 38  2  0
 38 39  1  0
 39 40  1  0
 39 41  1  0
 41 42  1  0
 41 43  1  0
 41 44  1  0
 44 45  1  0
 44 46  1  0
 44 47  1  0
 47 48  1  0
 47 49  1  0
 47 50  1  0
 50 51  1  0
 50 52  1  0
 50 53  1  0
 53 54  1  0
 53 55  1  0
 33 56  2  0
 56 57  1  0
  7 58  1  0
 58 59  1  0
 58 60  2  0
 60 61  1  0
 60  2  1  0
 18  9  1  0
 56 26  1  0
 53 38  1  0
M  CHG  1  25  -1
M  END
>  <UniqueID>  (68) 
63

>  <SMILES>  (68) 
O=C(CN(c1ccccc1)c1ccccc1)[N-]c1cccc(S(=O)(=O)/N=C2/CCCCCN2)c1

>  <Energy>  (68) 
81.74878157957839

>  <Genealogy>  (68) 
O=C(CN(c1ccccc1)c1ccccc1)[N-]c1cccc(S(=O)(=O)N=C2CCCCCN2)c1 (protonated)
O=C(CN(c1ccccc1)c1ccccc1)[N-]c1cccc(S(=O)(=O)/N=C2/CCCCCN2)c1 (cis-trans isomerization)
O=C(CN(c1ccccc1)c1ccccc1)[N-]c1cccc(S(=O)(=O)/N=C2/CCCCCN2)c1 (3D coordinates assigned)
O=C(CN(c1ccccc1)c1ccccc1)[N-]c1cccc(S(=O)(=O)/N=C2/CCCCCN2)c1 (nonaromatic ring conformer: 81.74878157957839 kcal/mol)

>  <smiles>  (68) 
O=C(CN(c1ccccc1)c1ccccc1)Nc1cccc(S(=O)(=O)N=C2CCCCCN2)c1

>  <score_type>  (68) 
oracle

>  <origin>  (68) 
adg

>  <m_score__min__energy>  (68) 
-8.7699999999999996

>  <m_primary>  (68) 
energy

$$$$
68:0
     RDKit          3D

 47 49  0  0  0  0  0  0  0  0999 V2000
   55.8910   25.3450   45.9890 C   0  0  0  0  0  0  0  0  0  0  0  0
   56.9280   26.1710   45.3620 N   0  0  0  0  0  0  0  0  0  0  0  0
   57.9390   25.5590   44.4900 C   0  0  0  0  0  0  0  0  0  0  0  0
   57.5470   24.1420   44.1720 C   0  0  0  0  0  0  0  0  0  0  0  0
   56.5650   23.8720   43.2040 C   0  0  0  0  0  0  0  0  0  0  0  0
   56.2390   22.5500   42.8840 C   0  0  0  0  0  0  0  0  0  0  0  0
   56.8950   21.4920   43.5190 C   0  0  0  0  0  0  0  0  0  0  0  0
   57.8800   21.7550   44.4760 C   0  0  0  0  0  0  0  0  0  0  0  0
   58.2090   23.0750   44.7990 C   0  0  0  0  0  0  0  0  0  0  0  0
   56.9290   27.5990   45.5650 C   0  0  0  0  0  0  0  0  0  0  0  0
   55.9130   28.2770   45.2480 O   0  0  0  0  0  0  0  0  0  0  0  0
   58.1130   28.2950   46.1060 C   0  0  0  0  0  0  0  0  0  0  0  0
   58.6180   27.8900   47.3530 C   0  0  0  0  0  0  0  0  0  0  0  0
   59.7630   28.4850   47.8810 C   0  0  0  0  0  0  0  0  0  0  0  0
   60.4190   29.4890   47.1700 C   0  0  0  0  0  0  0  0  0  0  0  0
   59.9350   29.8990   45.9260 C   0  0  0  0  0  0  0  0  0  0  0  0
   58.7810   29.3080   45.3740 C   0  0  0  0  0  0  0  0  0  0  0  0
   58.2540   29.7670   44.1140 N   0  0  0  0  0  0  0  0  0  0  0  0
   57.2190   31.1500   43.9580 S   0  0  0  0  0  0  0  0  0  0  0  0
   57.0860   31.5090   42.5050 O   0  0  0  0  0  0  0  0  0  0  0  0
   55.8580   30.8140   44.4960 O   0  0  0  0  0  0  0  0  0  0  0  0
   57.8860   32.4970   44.8750 C   0  0  0  0  0  0  0  0  0  0  0  0
   57.7610   32.5450   46.2720 C   0  0  0  0  0  0  0  0  0  0  0  0
   58.2970   33.6210   46.9870 C   0  0  0  0  0  0  0  0  0  0  0  0
   58.9610   34.6500   46.3130 C   0  0  0  0  0  0  0  0  0  0  0  0
   59.0880   34.6050   44.9210 C   0  0  0  0  0  0  0  0  0  0  0  0
   58.5510   33.5320   44.2030 C   0  0  0  0  0  0  0  0  0  0  0  0
   55.9785   25.4147   47.0833 H   0  0  0  0  0  0  0  0  0  0  0  0
   54.8987   25.7029   45.6770 H   0  0  0  0  0  0  0  0  0  0  0  0
   56.0179   24.2978   45.6770 H   0  0  0  0  0  0  0  0  0  0  0  0
   58.0132   26.1357   43.5562 H   0  0  0  0  0  0  0  0  0  0  0  0
   58.9112   25.5602   45.0046 H   0  0  0  0  0  0  0  0  0  0  0  0
   56.0515   24.7021   42.6968 H   0  0  0  0  0  0  0  0  0  0  0  0
   55.4646   22.3427   42.1308 H   0  0  0  0  0  0  0  0  0  0  0  0
   56.6367   20.4531   43.2662 H   0  0  0  0  0  0  0  0  0  0  0  0
   58.3968   20.9222   44.9754 H   0  0  0  0  0  0  0  0  0  0  0  0
   58.9894   23.2779   45.5472 H   0  0  0  0  0  0  0  0  0  0  0  0
   58.1057   27.0969   47.9174 H   0  0  0  0  0  0  0  0  0  0  0  0
   60.1490   28.1621   48.8591 H   0  0  0  0  0  0  0  0  0  0  0  0
   61.3202   29.9594   47.5901 H   0  0  0  0  0  0  0  0  0  0  0  0
   60.4597   30.6910   45.3715 H   0  0  0  0  0  0  0  0  0  0  0  0
   58.5210   29.2800   43.2300 H   0  0  0  0  0  0  0  0  0  0  0  0
   57.2409   31.7355   46.8052 H   0  0  0  0  0  0  0  0  0  0  0  0
   58.1958   33.6576   48.0817 H   0  0  0  0  0  0  0  0  0  0  0  0
   59.3833   35.4946   46.8771 H   0  0  0  0  0  0  0  0  0  0  0  0
   59.6108   35.4144   44.3905 H   0  0  0  0  0  0  0  0  0  0  0  0
   58.6506   33.5000   43.1080 H   0  0  0  0  0  0  0  0  0  0  0  0
  1  2  1  0
  2  3  1  0
  3  4  1  0
  4  5  2  0
  5  6  1  0
  6  7  2  0
  7  8  1  0
  8  9  2  0
  2 10  1  0
 10 11  2  0
 10 12  1  0
 12 13  2  0
 13 14  1  0
 14 15  2  0
 15 16  1  0
 16 17  2  0
 17 18  1  0
 18 19  1  0
 19 20  2  0
 19 21  2  0
 19 22  1  0
 22 23  2  0
 23 24  1  0
 24 25  2  0
 25 26  1  0
 26 27  2  0
  9  4  1  0
 17 12  1  0
 27 22  1  0
  1 28  1  0
  1 29  1  0
  1 30  1  0
  3 31  1  0
  3 32  1  0
  5 33  1  0
  6 34  1  0
  7 35  1  0
  8 36  1  0
  9 37  1  0
 13 38  1  0
 14 39  1  0
 15 40  1  0
 16 41  1  0
 18 42  1  0
 23 43  1  0
 24 44  1  0
 25 45  1  0
 26 46  1  0
 27 47  1  0
M  END
>  <UniqueID>  (69) 
64

>  <SMILES>  (69) 
CN(Cc1ccccc1)C(=O)c1ccccc1NS(=O)(=O)c1ccccc1

>  <Energy>  (69) 
57.439956159959785

>  <Genealogy>  (69) 
CN(Cc1ccccc1)C(=O)c1ccccc1NS(=O)(=O)c1ccccc1 (3D coordinates assigned)
CN(Cc1ccccc1)C(=O)c1ccccc1NS(=O)(=O)c1ccccc1 (optimized conformer: 57.439956159959785 kcal/mol)

>  <smiles>  (69) 
CN(Cc1ccccc1)C(=O)c1ccccc1NS(=O)(=O)c1ccccc1

>  <score_type>  (69) 
oracle

>  <origin>  (69) 
adg

>  <m_score__min__energy>  (69) 
-10.18

>  <m_primary>  (69) 
energy

$$$$
69:0
     RDKit          3D

 76 80  0  0  0  0  0  0  0  0999 V2000
   63.7940   30.4000   52.3140 C   0  0  0  0  0  0  0  0  0  0  0  0
   62.6820   30.9010   51.5100 N   0  0  0  0  0  0  0  0  0  0  0  0
   62.0600   30.2080   50.5350 C   0  0  0  0  0  0  0  0  0  0  0  0
   61.0050   30.9530   50.0470 C   0  0  0  0  0  0  0  0  0  0  0  0
   60.0810   30.5190   49.0390 N   0  0  0  0  0  0  0  0  0  0  0  0
   59.7100   29.1420   48.8600 C   0  0  0  0  0  0  0  0  0  0  0  0
   59.7600   28.3560   49.8450 O   0  0  0  0  0  0  0  0  0  0  0  0
   59.2450   28.6270   47.5430 C   0  0  0  0  0  0  0  0  0  0  0  0
   60.0250   27.6840   46.8480 C   0  0  0  0  0  0  0  0  0  0  0  0
   59.6470   27.2460   45.5790 C   0  0  0  0  0  0  0  0  0  0  0  0
   58.4780   27.7230   44.9820 C   0  0  0  0  0  0  0  0  0  0  0  0
   58.1530   27.2520   43.3190 Cl  0  0  0  0  0  0  0  0  0  0  0  0
   57.6540   28.6270   45.6870 C   0  0  0  0  0  0  0  0  0  0  0  0
   56.4300   29.1320   45.1310 N   0  0  0  0  0  0  0  0  0  0  0  0
   56.3450   30.1950   44.1730 C   0  0  0  0  0  0  0  0  0  0  0  0
   55.5690   30.0930   43.1860 O   0  0  0  0  0  0  0  0  0  0  0  0
   57.1400   31.4230   44.3720 C   0  0  0  0  0  0  0  0  0  0  0  0
   57.4820   31.9430   45.6100 C   0  0  0  0  0  0  0  0  0  0  0  0
   58.2220   33.0750   45.3510 C   0  0  0  0  0  0  0  0  0  0  0  0
   58.8250   33.9000   46.3570 N   0  0  0  0  0  0  0  0  0  0  0  0
   59.4720   33.4460   47.5540 C   0  0  0  0  0  0  0  0  0  0  0  0
   58.7710   33.2620   48.5840 O   0  0  0  0  0  0  0  0  0  0  0  0
   60.9320   33.2180   47.6300 C   0  0  0  0  0  0  0  0  0  0  0  0
   61.7560   34.2160   48.1750 C   0  0  0  0  0  0  0  0  0  0  0  0
   63.1390   34.0230   48.2630 C   0  0  0  0  0  0  0  0  0  0  0  0
   63.7120   32.8370   47.7980 C   0  0  0  0  0  0  0  0  0  0  0  0
   62.9050   31.8460   47.2340 C   0  0  0  0  0  0  0  0  0  0  0  0
   61.5200   32.0330   47.1380 C   0  0  0  0  0  0  0  0  0  0  0  0
   60.7450   31.0470   46.5370 O   0  0  0  0  0  0  0  0  0  0  0  0
   58.3400   33.1990   43.9790 C   0  0  0  0  0  0  0  0  0  0  0  0
   57.6710   32.1900   43.3860 N   0  0  0  0  0  0  0  0  0  0  0  0
   57.5650   31.9890   41.9420 C   0  0  0  0  0  0  0  0  0  0  0  0
   58.0610   29.0990   46.9420 C   0  0  0  0  0  0  0  0  0  0  0  0
   60.9600   32.1360   50.7630 C   0  0  0  0  0  0  0  0  0  0  0  0
   62.0240   32.0770   51.6440 C   0  0  0  0  0  0  0  0  0  0  0  0
   62.3440   33.1290   52.6190 C   0  0  0  0  0  0  0  0  0  0  0  0
   63.4730   33.6850   52.5670 O   0  0  0  0  0  0  0  0  0  0  0  0
   61.4310   33.5050   53.6580 N   0  0  0  0  0  0  0  0  0  0  0  0
   60.0400   33.9030   53.4630 C   0  0  0  0  0  0  0  0  0  0  0  0
   59.0400   32.8970   54.0750 C   0  0  0  0  0  0  0  0  0  0  0  0
   58.3850   31.9690   53.1230 N   0  0  0  0  0  0  0  0  0  0  0  0
   58.0300   32.5830   51.8310 C   0  0  0  0  0  0  0  0  0  0  0  0
   57.3970   31.5370   50.8920 C   0  0  0  0  0  0  0  0  0  0  0  0
   57.0090   30.3820   51.6110 O   0  0  0  0  0  0  0  0  0  0  0  0
   58.1580   29.7260   52.1200 C   0  0  0  0  0  0  0  0  0  0  0  0
   59.0600   30.6720   52.9430 C   0  0  0  0  0  0  0  0  0  0  0  0
   63.5527   30.5087   53.3817 H   0  0  0  0  0  0  0  0  0  0  0  0
   63.9644   29.3381   52.0829 H   0  0  0  0  0  0  0  0  0  0  0  0
   64.7023   30.9759   52.0829 H   0  0  0  0  0  0  0  0  0  0  0  0
   62.3479   29.2062   50.1835 H   0  0  0  0  0  0  0  0  0  0  0  0
   59.6170   31.2520   48.4590 H   0  0  0  0  0  0  0  0  0  0  0  0
   60.9416   27.2886   47.3101 H   0  0  0  0  0  0  0  0  0  0  0  0
   60.2750   26.5186   45.0437 H   0  0  0  0  0  0  0  0  0  0  0  0
   57.2169   31.5354   46.5967 H   0  0  0  0  0  0  0  0  0  0  0  0
   61.3113   35.1555   48.5350 H   0  0  0  0  0  0  0  0  0  0  0  0
   63.7761   34.8065   48.6991 H   0  0  0  0  0  0  0  0  0  0  0  0
   64.7984   32.6834   47.8759 H   0  0  0  0  0  0  0  0  0  0  0  0
   63.3590   30.9150   46.8637 H   0  0  0  0  0  0  0  0  0  0  0  0
   58.8915   33.9937   43.4552 H   0  0  0  0  0  0  0  0  0  0  0  0
   57.0605   31.0324   41.7410 H   0  0  0  0  0  0  0  0  0  0  0  0
   56.9829   32.8106   41.4992 H   0  0  0  0  0  0  0  0  0  0  0  0
   58.5718   31.9727   41.4992 H   0  0  0  0  0  0  0  0  0  0  0  0
   57.4482   29.8479   47.4650 H   0  0  0  0  0  0  0  0  0  0  0  0
   60.2307   32.9523   50.6542 H   0  0  0  0  0  0  0  0  0  0  0  0
   59.8853   34.8843   53.9353 H   0  0  0  0  0  0  0  0  0  0  0  0
   59.8537   33.9388   52.3795 H   0  0  0  0  0  0  0  0  0  0  0  0
   59.5831   32.2912   54.8153 H   0  0  0  0  0  0  0  0  0  0  0  0
   58.2288   33.5070   54.4991 H   0  0  0  0  0  0  0  0  0  0  0  0
   57.3109   33.3975   52.0027 H   0  0  0  0  0  0  0  0  0  0  0  0
   58.9435   32.9764   51.3611 H   0  0  0  0  0  0  0  0  0  0  0  0
   56.5109   31.9755   50.4097 H   0  0  0  0  0  0  0  0  0  0  0  0
   58.1418   31.2468   50.1364 H   0  0  0  0  0  0  0  0  0  0  0  0
   57.8342   28.8963   52.7656 H   0  0  0  0  0  0  0  0  0  0  0  0
   58.7450   29.3643   51.2629 H   0  0  0  0  0  0  0  0  0  0  0  0
   59.2586   30.2233   53.9275 H   0  0  0  0  0  0  0  0  0  0  0  0
   60.0094   30.8262   52.4093 H   0  0  0  0  0  0  0  0  0  0  0  0
  1  2  1  0
  2  3  1  0
  3  4  2  0
  4  5  1  0
  5  6  1  0
  6  7  2  0
  6  8  1  0
  8  9  2  0
  9 10  1  0
 10 11  2  0
 11 12  1  0
 11 13  1  0
 13 14  1  0
 14 15  1  0
 15 16  2  0
 15 17  1  0
 17 18  2  0
 18 19  1  0
 19 20  1  0
 20 21  1  0
 21 22  2  0
 21 23  1  0
 23 24  2  0
 24 25  1  0
 25 26  2  0
 26 27  1  0
 27 28  2  0
 28 29  1  0
 19 30  2  0
 30 31  1  0
 31 32  1  0
 13 33  2  0
  4 34  1  0
 34 35  2  0
 35 36  1  0
 36 37  2  0
 36 38  1  0
 38 39  1  0
 39 40  1  0
 40 41  1  0
 41 42  1  0
 42 43  1  0
 43 44  1  0
 44 45  1  0
 45 46  1  0
 35  2  1  0
 46 41  1  0
 33  8  1  0
 31 17  1  0
 28 23  1  0
  1 47  1  0
  1 48  1  0
  1 49  1  0
  3 50  1  0
  5 51  1  0
  9 52  1  0
 10 53  1  0
 18 54  1  0
 24 55  1  0
 25 56  1  0
 26 57  1  0
 27 58  1  0
 30 59  1  0
 32 60  1  0
 32 61  1  0
 32 62  1  0
 33 63  1  0
 34 64  1  0
 39 65  1  0
 39 66  1  0
 40 67  1  0
 40 68  1  0
 42 69  1  0
 42 70  1  0
 43 71  1  0
 43 72  1  0
 45 73  1  0
 45 74  1  0
 46 75  1  0
 46 76  1  0
M  CHG  4  14  -1  20  -1  29  -1  38  -1
M  END
>  <UniqueID>  (70) 
65

>  <SMILES>  (70) 
Cn1cc(NC(=O)c2ccc(Cl)c([N-]C(=O)c3cc([N-]C(=O)c4ccccc4[O-])cn3C)c2)cc1C(=O)[N-]CCN1CCOCC1

>  <Energy>  (70) 
170.83281369084222

>  <Genealogy>  (70) 
Cn1cc(NC(=O)c2ccc(Cl)c([N-]C(=O)c3cc([N-]C(=O)c4ccccc4[O-])cn3C)c2)cc1C(=O)[N-]CCN1CCOCC1 (protonated)
Cn1cc(NC(=O)c2ccc(Cl)c([N-]C(=O)c3cc([N-]C(=O)c4ccccc4[O-])cn3C)c2)cc1C(=O)[N-]CCN1CCOCC1 (3D coordinates assigned)
Cn1cc(NC(=O)c2ccc(Cl)c([N-]C(=O)c3cc([N-]C(=O)c4ccccc4[O-])cn3C)c2)cc1C(=O)[N-]CCN1CCOCC1 (nonaromatic ring conformer: 170.83281369084222 kcal/mol)

>  <smiles>  (70) 
Cn1cc(NC(=O)c2ccc(Cl)c(NC(=O)c3cc(NC(=O)c4ccccc4O)cn3C)c2)cc1C(=O)NCCN1CCOCC1

>  <score_type>  (70) 
oracle

>  <origin>  (70) 
adg

>  <m_score__min__energy>  (70) 
-18.32

>  <m_primary>  (70) 
energy

$$$$
70:0
     RDKit          3D

 36 37  0  0  0  0  0  0  0  0999 V2000
   57.4630   32.0110   41.6190 C   0  0  0  0  0  0  0  0  0  0  0  0
   58.1460   32.2540   42.9630 C   0  0  0  0  0  0  0  0  0  0  0  0
   57.3010   31.7880   44.0740 N   0  0  0  0  0  0  0  0  0  0  0  0
   56.8520   30.4240   44.1310 C   0  0  0  0  0  0  0  0  0  0  0  0
   55.8680   30.0930   44.8470 O   0  0  0  0  0  0  0  0  0  0  0  0
   56.9560   32.6930   45.1770 C   0  0  0  0  0  0  0  0  0  0  0  0
   58.2080   33.2230   45.8280 C   0  0  0  0  0  0  0  0  0  0  0  0
   58.6980   34.4900   45.4650 C   0  0  0  0  0  0  0  0  0  0  0  0
   59.8750   34.9820   46.0300 C   0  0  0  0  0  0  0  0  0  0  0  0
   60.5840   34.2110   46.9520 C   0  0  0  0  0  0  0  0  0  0  0  0
   60.1150   32.9480   47.3160 C   0  0  0  0  0  0  0  0  0  0  0  0
   58.9180   32.4480   46.7700 C   0  0  0  0  0  0  0  0  0  0  0  0
   58.4420   31.1690   47.1040 O   0  0  0  0  0  0  0  0  0  0  0  0
   59.0620   29.9550   46.7820 C   0  0  0  0  0  0  0  0  0  0  0  0
   58.9180   28.8090   47.5860 C   0  0  0  0  0  0  0  0  0  0  0  0
   59.5390   27.6100   47.2190 C   0  0  0  0  0  0  0  0  0  0  0  0
   60.2930   27.5440   46.0440 C   0  0  0  0  0  0  0  0  0  0  0  0
   60.4220   28.6740   45.2310 C   0  0  0  0  0  0  0  0  0  0  0  0
   59.8030   29.8730   45.5970 C   0  0  0  0  0  0  0  0  0  0  0  0
   56.4390   31.6467   41.7886 H   0  0  0  0  0  0  0  0  0  0  0  0
   57.4279   32.9518   41.0501 H   0  0  0  0  0  0  0  0  0  0  0  0
   58.0300   31.2595   41.0501 H   0  0  0  0  0  0  0  0  0  0  0  0
   59.1017   31.7098   42.9848 H   0  0  0  0  0  0  0  0  0  0  0  0
   58.3159   33.3344   43.0803 H   0  0  0  0  0  0  0  0  0  0  0  0
   57.3747   29.6568   43.5410 H   0  0  0  0  0  0  0  0  0  0  0  0
   56.3662   33.5348   44.7851 H   0  0  0  0  0  0  0  0  0  0  0  0
   56.3699   32.1391   45.9251 H   0  0  0  0  0  0  0  0  0  0  0  0
   58.1494   35.0977   44.7303 H   0  0  0  0  0  0  0  0  0  0  0  0
   60.2446   35.9790   45.7483 H   0  0  0  0  0  0  0  0  0  0  0  0
   61.5141   34.5994   47.3926 H   0  0  0  0  0  0  0  0  0  0  0  0
   60.6844   32.3395   48.0341 H   0  0  0  0  0  0  0  0  0  0  0  0
   58.3157   28.8559   48.5053 H   0  0  0  0  0  0  0  0  0  0  0  0
   59.4337   26.7190   47.8555 H   0  0  0  0  0  0  0  0  0  0  0  0
   60.7852   26.6025   45.7588 H   0  0  0  0  0  0  0  0  0  0  0  0
   61.0106   28.6198   44.3033 H   0  0  0  0  0  0  0  0  0  0  0  0
   59.8988   30.7574   44.9499 H   0  0  0  0  0  0  0  0  0  0  0  0
  1  2  1  0
  2  3  1  0
  3  4  1  0
  4  5  2  0
  3  6  1  0
  6  7  1  0
  7  8  2  0
  8  9  1  0
  9 10  2  0
 10 11  1  0
 11 12  2  0
 12 13  1  0
 13 14  1  0
 14 15  2  0
 15 16  1  0
 16 17  2  0
 17 18  1  0
 18 19  2  0
 12  7  1  0
 19 14  1  0
  1 20  1  0
  1 21  1  0
  1 22  1  0
  2 23  1  0
  2 24  1  0
  4 25  1  0
  6 26  1  0
  6 27  1  0
  8 28  1  0
  9 29  1  0
 10 30  1  0
 11 31  1  0
 15 32  1  0
 16 33  1  0
 17 34  1  0
 18 35  1  0
 19 36  1  0
M  END
>  <UniqueID>  (71) 
66

>  <SMILES>  (71) 
CCN(C=O)Cc1ccccc1Oc1ccccc1

>  <Energy>  (71) 
36.30557589656144

>  <Genealogy>  (71) 
CCN(C=O)Cc1ccccc1Oc1ccccc1 (3D coordinates assigned)
CCN(C=O)Cc1ccccc1Oc1ccccc1 (optimized conformer: 36.30557589656144 kcal/mol)

>  <smiles>  (71) 
CCN(C=O)Cc1ccccc1Oc1ccccc1

>  <score_type>  (71) 
oracle

>  <origin>  (71) 
adg

>  <m_score__min__energy>  (71) 
-6.3399999999999999

>  <m_primary>  (71) 
energy

$$$$
71:0
     RDKit          3D

 38 39  0  0  0  0  0  0  0  0999 V2000
   57.4610   32.4130   45.1750 C   0  0  0  0  0  0  0  0  0  0  0  0
   58.3910   32.4960   46.2500 O   0  0  0  0  0  0  0  0  0  0  0  0
   58.4910   31.5570   47.2890 C   0  0  0  0  0  0  0  0  0  0  0  0
   58.4610   31.9330   48.6480 C   0  0  0  0  0  0  0  0  0  0  0  0
   58.5720   30.9620   49.6560 C   0  0  0  0  0  0  0  0  0  0  0  0
   58.5040   31.3610   51.1020 C   0  0  0  0  0  0  0  0  0  0  0  0
   57.6420   30.4300   51.8180 N   0  0  0  0  0  0  0  0  0  0  0  0
   56.6140   30.8120   52.7390 C   0  0  0  0  0  0  0  0  0  0  0  0
   56.6630   31.9560   53.2630 O   0  0  0  0  0  0  0  0  0  0  0  0
   55.4530   29.9080   53.0640 C   0  0  0  0  0  0  0  0  0  0  0  0
   54.5010   29.7500   51.8710 C   0  0  0  0  0  0  0  0  0  0  0  0
   53.2990   30.6530   51.9890 C   0  0  0  0  0  0  0  0  0  0  0  0
   52.6010   30.7450   53.2030 C   0  0  0  0  0  0  0  0  0  0  0  0
   51.5040   31.6040   53.3230 C   0  0  0  0  0  0  0  0  0  0  0  0
   51.0980   32.3790   52.2330 C   0  0  0  0  0  0  0  0  0  0  0  0
   50.0060   33.2300   52.3580 O   0  0  0  0  0  0  0  0  0  0  0  0
   51.7940   32.3000   51.0210 C   0  0  0  0  0  0  0  0  0  0  0  0
   51.3990   33.0730   49.9350 O   0  0  0  0  0  0  0  0  0  0  0  0
   52.8930   31.4410   50.9000 C   0  0  0  0  0  0  0  0  0  0  0  0
   58.6860   29.6090   49.3030 C   0  0  0  0  0  0  0  0  0  0  0  0
   58.7160   29.2330   47.9590 C   0  0  0  0  0  0  0  0  0  0  0  0
   58.6210   30.2020   46.9560 C   0  0  0  0  0  0  0  0  0  0  0  0
   58.6540   29.8130   45.6210 O   0  0  0  0  0  0  0  0  0  0  0  0
   56.4416   32.3220   45.5782 H   0  0  0  0  0  0  0  0  0  0  0  0
   57.5316   33.3210   44.5581 H   0  0  0  0  0  0  0  0  0  0  0  0
   57.6913   31.5318   44.5581 H   0  0  0  0  0  0  0  0  0  0  0  0
   58.3500   32.9931   48.9198 H   0  0  0  0  0  0  0  0  0  0  0  0
   59.5137   31.3365   51.5379 H   0  0  0  0  0  0  0  0  0  0  0  0
   58.0960   32.3792   51.1847 H   0  0  0  0  0  0  0  0  0  0  0  0
   55.8408   28.9173   53.3435 H   0  0  0  0  0  0  0  0  0  0  0  0
   54.8893   30.3608   53.8930 H   0  0  0  0  0  0  0  0  0  0  0  0
   55.0438   29.9989   50.9472 H   0  0  0  0  0  0  0  0  0  0  0  0
   54.1457   28.7091   51.8532 H   0  0  0  0  0  0  0  0  0  0  0  0
   52.9183   30.1386   54.0642 H   0  0  0  0  0  0  0  0  0  0  0  0
   50.9598   31.6698   54.2767 H   0  0  0  0  0  0  0  0  0  0  0  0
   53.4407   31.3832   49.9478 H   0  0  0  0  0  0  0  0  0  0  0  0
   58.7520   28.8415   50.0883 H   0  0  0  0  0  0  0  0  0  0  0  0
   58.8147   28.1714   47.6885 H   0  0  0  0  0  0  0  0  0  0  0  0
  1  2  1  0
  2  3  1  0
  3  4  2  0
  4  5  1  0
  5  6  1  0
  6  7  1  0
  7  8  1  0
  8  9  2  0
  8 10  1  0
 10 11  1  0
 11 12  1  0
 12 13  2  0
 13 14  1  0
 14 15  2  0
 15 16  1  0
 15 17  1  0
 17 18  1  0
 17 19  2  0
  5 20  2  0
 20 21  1  0
 21 22  2  0
 22 23  1  0
 22  3  1  0
 19 12  1  0
  1 24  1  0
  1 25  1  0
  1 26  1  0
  4 27  1  0
  6 28  1  0
  6 29  1  0
 10 30  1  0
 10 31  1  0
 11 32  1  0
 11 33  1  0
 13 34  1  0
 14 35  1  0
 19 36  1  0
 20 37  1  0
 21 38  1  0
M  CHG  4   7  -1  16  -1  18  -1  23  -1
M  END
>  <UniqueID>  (72) 
67

>  <SMILES>  (72) 
COc1cc(C[N-]C(=O)CCc2ccc([O-])c([O-])c2)ccc1[O-]

>  <Energy>  (72) 
32.51904599120619

>  <Genealogy>  (72) 
COc1cc(C[N-]C(=O)CCc2ccc([O-])c([O-])c2)ccc1[O-] (protonated)
COc1cc(C[N-]C(=O)CCc2ccc([O-])c([O-])c2)ccc1[O-] (3D coordinates assigned)
COc1cc(C[N-]C(=O)CCc2ccc([O-])c([O-])c2)ccc1[O-] (optimized conformer: 32.51904599120619 kcal/mol)

>  <smiles>  (72) 
COc1cc(CNC(=O)CCc2ccc(O)c(O)c2)ccc1O

>  <score_type>  (72) 
oracle

>  <origin>  (72) 
adg

>  <m_score__min__energy>  (72) 
-16.640000000000001

>  <m_primary>  (72) 
energy

$$$$
72:0
     RDKit          3D

 46 48  0  0  0  0  0  0  0  0999 V2000
   59.4650   27.5310   48.5260 H   0  0  0  0  0  0  0  0  0  0  0  0
   60.3700   27.9630   48.3870 O   0  0  0  0  0  0  0  0  0  0  0  0
   60.5450   29.3340   48.5580 C   0  0  0  0  0  0  0  0  0  0  0  0
   60.4550   29.8670   49.8000 N   0  0  0  0  0  0  0  0  0  0  0  0
   60.6550   31.1900   50.0250 C   0  0  0  0  0  0  0  0  0  0  0  0
   60.5600   31.6250   51.2050 O   0  0  0  0  0  0  0  0  0  0  0  0
   60.9650   32.0310   48.9860 N   0  0  0  0  0  0  0  0  0  0  0  0
   61.2350   33.4630   49.2340 C   0  0  0  0  0  0  0  0  0  0  0  0
   61.9788   33.8185   48.5057 H   0  0  0  0  0  0  0  0  0  0  0  0
   61.6126   33.5717   50.2614 H   0  0  0  0  0  0  0  0  0  0  0  0
   59.9580   34.3050   49.0960 C   0  0  0  0  0  0  0  0  0  0  0  0
   60.2174   35.3675   49.2131 H   0  0  0  0  0  0  0  0  0  0  0  0
   59.2501   33.9835   49.8741 H   0  0  0  0  0  0  0  0  0  0  0  0
   59.3020   34.1080   47.7550 C   0  0  0  0  0  0  0  0  0  0  0  0
   59.7180   34.8600   46.6460 C   0  0  0  0  0  0  0  0  0  0  0  0
   60.5011   35.6232   46.7655 H   0  0  0  0  0  0  0  0  0  0  0  0
   59.1430   34.6450   45.3900 C   0  0  0  0  0  0  0  0  0  0  0  0
   59.4701   35.2448   44.5279 H   0  0  0  0  0  0  0  0  0  0  0  0
   58.1470   33.6640   45.2240 C   0  0  0  0  0  0  0  0  0  0  0  0
   57.5430   33.4090   43.9840 O   0  0  0  0  0  0  0  0  0  0  0  0
   57.7550   32.2310   43.2140 C   0  0  0  0  0  0  0  0  0  0  0  0
   57.9090   31.3753   43.8878 H   0  0  0  0  0  0  0  0  0  0  0  0
   56.8760   32.0445   42.5795 H   0  0  0  0  0  0  0  0  0  0  0  0
   58.6439   32.3627   42.5795 H   0  0  0  0  0  0  0  0  0  0  0  0
   57.7400   32.9100   46.3310 C   0  0  0  0  0  0  0  0  0  0  0  0
   56.9626   32.1410   46.2111 H   0  0  0  0  0  0  0  0  0  0  0  0
   58.3130   33.1260   47.5870 C   0  0  0  0  0  0  0  0  0  0  0  0
   57.9876   32.5238   48.4481 H   0  0  0  0  0  0  0  0  0  0  0  0
   61.0660   31.5260   47.7120 C   0  0  0  0  0  0  0  0  0  0  0  0
   61.3590   32.2870   46.7470 O   0  0  0  0  0  0  0  0  0  0  0  0
   60.8310   30.1630   47.4650 C   0  0  0  0  0  0  0  0  0  0  0  0
   60.9490   29.6210   46.0920 C   0  0  0  0  0  0  0  0  0  0  0  0
   61.9347   29.2506   45.7739 H   0  0  0  0  0  0  0  0  0  0  0  0
   59.9420   29.5480   45.2060 C   0  0  0  0  0  0  0  0  0  0  0  0
   60.0563   30.1030   44.2632 H   0  0  0  0  0  0  0  0  0  0  0  0
   58.6900   28.7800   45.3970 C   0  0  0  0  0  0  0  0  0  0  0  0
   57.4690   29.3740   45.0450 C   0  0  0  0  0  0  0  0  0  0  0  0
   57.4557   30.3893   44.6218 H   0  0  0  0  0  0  0  0  0  0  0  0
   56.2670   28.6800   45.2300 C   0  0  0  0  0  0  0  0  0  0  0  0
   55.3138   29.1458   44.9394 H   0  0  0  0  0  0  0  0  0  0  0  0
   56.2760   27.3970   45.7830 C   0  0  0  0  0  0  0  0  0  0  0  0
   55.0830   26.7090   45.9640 O   0  0  0  0  0  0  0  0  0  0  0  0
   57.4870   26.8100   46.1620 C   0  0  0  0  0  0  0  0  0  0  0  0
   57.4936   25.8030   46.6047 H   0  0  0  0  0  0  0  0  0  0  0  0
   58.6890   27.4990   45.9800 C   0  0  0  0  0  0  0  0  0  0  0  0
   59.6376   27.0386   46.2934 H   0  0  0  0  0  0  0  0  0  0  0  0
  1  2  1  0
  2  3  1  0
  3  4  1  0
  4  5  1  0
  5  6  2  0
  5  7  1  0
  7  8  1  0
  8  9  1  0
  8 10  1  0
  8 11  1  0
 11 12  1  0
 11 13  1  0
 11 14  1  0
 14 15  2  0
 15 16  1  0
 15 17  1  0
 17 18  1  0
 17 19  2  0
 19 20  1  0
 20 21  1  0
 21 22  1  0
 21 23  1  0
 21 24  1  0
 19 25  1  0
 25 26  1  0
 25 27  2  0
 27 28  1  0
  7 29  1  0
 29 30  2  0
 29 31  1  0
 31 32  1  0
 32 33  1  0
 32 34  2  0
 34 35  1  0
 34 36  1  0
 36 37  2  0
 37 38  1  0
 37 39  1  0
 39 40  1  0
 39 41  2  0
 41 42  1  0
 41 43  1  0
 43 44  1  0
 43 45  2  0
 45 46  1  0
 31  3  2  0
 45 36  1  0
 27 14  1  0
M  CHG  2   4  -1  42  -1
M  END
>  <UniqueID>  (73) 
68

>  <SMILES>  (73) 
COc1ccc(CCn2c(=O)[n-]c(O)c(/C=C\c3ccc([O-])cc3)c2=O)cc1

>  <Energy>  (73) 
59.637069629021404

>  <Genealogy>  (73) 
COc1ccc(CCn2c(=O)[n-]c(O)c(C=Cc3ccc([O-])cc3)c2=O)cc1 (protonated)
COc1ccc(CCn2c(=O)[n-]c(O)c(/C=C\c3ccc([O-])cc3)c2=O)cc1 (cis-trans isomerization)
COc1ccc(CCn2c(=O)[n-]c(O)c(/C=C\c3ccc([O-])cc3)c2=O)cc1 (3D coordinates assigned)
COc1ccc(CCn2c(=O)[n-]c(O)c(/C=C\c3ccc([O-])cc3)c2=O)cc1 (optimized conformer: 59.637069629021404 kcal/mol)

>  <smiles>  (73) 
COc1ccc(CCn2c(=O)[nH]c(O)c(C=Cc3ccc(O)cc3)c2=O)cc1

>  <score_type>  (73) 
oracle

>  <origin>  (73) 
adg

>  <m_score__min__energy>  (73) 
-12.31

>  <m_primary>  (73) 
energy

$$$$
73:0
     RDKit          3D

 37 38  0  0  1  0  0  0  0  0999 V2000
   59.3930   32.8540   45.3510 O   0  0  0  0  0  0  0  0  0  0  0  0
   58.4800   32.0810   45.0130 C   0  0  0  0  0  0  0  0  0  0  0  0
   57.6140   32.5120   43.8780 C   0  0  0  0  0  0  0  0  0  0  0  0
   57.3800   31.4750   42.9280 N   0  0  0  0  0  0  0  0  0  0  0  0
   56.4320   30.4530   43.2240 C   0  0  0  0  0  0  0  0  0  0  0  0
   56.3850   29.2890   42.4370 O   0  0  0  0  0  0  0  0  0  0  0  0
   55.5870   30.5190   44.1900 N   0  0  0  0  0  0  0  0  0  0  0  0
   55.5220   29.4800   45.0920 O   0  0  0  0  0  0  0  0  0  0  0  0
   58.2570   30.8530   45.6570 N   0  0  0  0  0  0  0  0  0  0  0  0
   58.9900   30.3190   46.7350 C   0  0  0  0  0  0  0  0  0  0  0  0
   60.0920   30.8940   47.3170 C   0  0  0  0  0  0  0  0  0  0  0  0
   60.7530   30.2790   48.3650 C   0  0  0  0  0  0  0  0  0  0  0  0
   60.3420   29.0790   48.8640 C   0  0  0  0  0  0  0  0  0  0  0  0
   59.2380   28.4860   48.2930 C   0  0  0  0  0  0  0  0  0  0  0  0
   58.5850   29.1050   47.2500 C   0  0  0  0  0  0  0  0  0  0  0  0
   57.4660   28.4180   46.7340 O   0  0  0  0  0  0  0  0  0  0  0  0
   57.5710   27.5520   45.6810 C   0  0  0  0  0  0  0  0  0  0  0  0
   57.0770   26.2550   45.8590 C   0  0  0  0  0  0  0  0  0  0  0  0
   57.1310   25.3150   44.8760 C   0  0  0  0  0  0  0  0  0  0  0  0
   57.6860   25.5980   43.6300 C   0  0  0  0  0  0  0  0  0  0  0  0
   58.1710   26.8890   43.4750 C   0  0  0  0  0  0  0  0  0  0  0  0
   58.1190   27.8370   44.4580 C   0  0  0  0  0  0  0  0  0  0  0  0
   56.6455   32.8416   44.2821 H   0  0  0  0  0  0  0  0  0  0  0  0
   58.1396   33.3241   43.3543 H   0  0  0  0  0  0  0  0  0  0  0  0
   57.8590   31.3840   41.9900 H   0  0  0  0  0  0  0  0  0  0  0  0
   56.1790   28.3880   42.8980 H   0  0  0  0  0  0  0  0  0  0  0  0
   55.8310   29.7050   46.0380 H   0  0  0  0  0  0  0  0  0  0  0  0
   57.4430   30.2780   45.2770 H   0  0  0  0  0  0  0  0  0  0  0  0
   60.4564   31.8621   46.9430 H   0  0  0  0  0  0  0  0  0  0  0  0
   61.6323   30.7706   48.8067 H   0  0  0  0  0  0  0  0  0  0  0  0
   60.8759   28.5989   49.6974 H   0  0  0  0  0  0  0  0  0  0  0  0
   58.8775   27.5176   48.6700 H   0  0  0  0  0  0  0  0  0  0  0  0
   56.6294   25.9856   46.8270 H   0  0  0  0  0  0  0  0  0  0  0  0
   56.7277   24.3101   45.0697 H   0  0  0  0  0  0  0  0  0  0  0  0
   57.7363   24.8501   42.8249 H   0  0  0  0  0  0  0  0  0  0  0  0
   58.6212   27.1638   42.5097 H   0  0  0  0  0  0  0  0  0  0  0  0
   58.5224   28.8420   44.2648 H   0  0  0  0  0  0  0  0  0  0  0  0
  1  2  2  0
  2  3  1  0
  3  4  1  0
  4  5  1  0
  5  6  1  0
  5  7  2  0
  7  8  1  0
  2  9  1  0
  9 10  1  0
 10 11  2  0
 11 12  1  0
 12 13  2  0
 13 14  1  0
 14 15  2  0
 15 16  1  0
 16 17  1  0
 17 18  2  0
 18 19  1  0
 19 20  2  0
 20 21  1  0
 21 22  2  0
 15 10  1  0
 22 17  1  0
  3 23  1  0
  3 24  1  0
  4 25  1  0
  6 26  1  0
  8 27  1  0
  9 28  1  0
 11 29  1  0
 12 30  1  0
 13 31  1  0
 14 32  1  0
 18 33  1  0
 19 34  1  0
 20 35  1  0
 21 36  1  0
 22 37  1  0
M  END
>  <smiles>  (74) 
O=C(CNC(O)=NO)Nc1ccccc1Oc1ccccc1

>  <score_type>  (74) 
oracle

>  <origin>  (74) 
adg

>  <m_score__min__energy>  (74) 
-7.9500000000000002

>  <m_primary>  (74) 
energy

$$$$
74:0
     RDKit          3D

 52 54  0  0  0  0  0  0  0  0999 V2000
   60.7630   26.6230   46.3460 C   0  0  0  0  0  0  0  0  0  0  0  0
   59.4050   26.9410   46.6410 O   0  0  0  0  0  0  0  0  0  0  0  0
   58.7390   28.0840   46.1720 C   0  0  0  0  0  0  0  0  0  0  0  0
   59.4180   29.3060   46.2070 C   0  0  0  0  0  0  0  0  0  0  0  0
   58.7950   30.4740   45.7660 C   0  0  0  0  0  0  0  0  0  0  0  0
   57.4760   30.4430   45.2990 C   0  0  0  0  0  0  0  0  0  0  0  0
   56.8730   31.6640   44.8520 N   0  0  0  0  0  0  0  0  0  0  0  0
   57.5820   32.8170   44.3850 C   0  0  0  0  0  0  0  0  0  0  0  0
   58.1390   32.7730   43.2590 O   0  0  0  0  0  0  0  0  0  0  0  0
   57.7920   34.0280   45.2540 C   0  0  0  0  0  0  0  0  0  0  0  0
   58.9590   33.8210   46.1250 N   0  0  0  0  0  0  0  0  0  0  0  0
   60.1950   34.1730   45.6640 C   0  0  0  0  0  0  0  0  0  0  0  0
   61.3180   34.0160   46.4740 C   0  0  0  0  0  0  0  0  0  0  0  0
   61.1900   33.5170   47.7380 N   0  0  0  0  0  0  0  0  0  0  0  0
   62.3690   33.3690   48.5570 C   0  0  0  0  0  0  0  0  0  0  0  0
   63.3460   32.4200   48.2310 C   0  0  0  0  0  0  0  0  0  0  0  0
   64.4960   32.2930   49.0120 C   0  0  0  0  0  0  0  0  0  0  0  0
   64.6920   33.1090   50.1370 C   0  0  0  0  0  0  0  0  0  0  0  0
   65.9500   32.9510   50.9510 C   0  0  0  0  0  0  0  0  0  0  0  0
   63.6890   34.0410   50.5010 C   0  0  0  0  0  0  0  0  0  0  0  0
   63.8460   34.9400   51.6990 C   0  0  0  0  0  0  0  0  0  0  0  0
   62.5470   34.1730   49.6930 C   0  0  0  0  0  0  0  0  0  0  0  0
   59.9510   33.1660   48.2110 C   0  0  0  0  0  0  0  0  0  0  0  0
   59.8170   32.6800   49.3700 O   0  0  0  0  0  0  0  0  0  0  0  0
   58.8190   33.3330   47.3980 C   0  0  0  0  0  0  0  0  0  0  0  0
   57.6800   33.0290   47.8490 O   0  0  0  0  0  0  0  0  0  0  0  0
   56.7890   29.2150   45.2160 C   0  0  0  0  0  0  0  0  0  0  0  0
   55.4950   29.1960   44.6670 O   0  0  0  0  0  0  0  0  0  0  0  0
   55.1490   29.7110   43.3850 C   0  0  0  0  0  0  0  0  0  0  0  0
   57.4220   28.0400   45.6690 C   0  0  0  0  0  0  0  0  0  0  0  0
   61.3212   26.4923   47.2848 H   0  0  0  0  0  0  0  0  0  0  0  0
   60.8030   25.6912   45.7628 H   0  0  0  0  0  0  0  0  0  0  0  0
   61.2126   27.4402   45.7628 H   0  0  0  0  0  0  0  0  0  0  0  0
   60.4503   29.3467   46.5848 H   0  0  0  0  0  0  0  0  0  0  0  0
   59.3448   31.4266   45.7855 H   0  0  0  0  0  0  0  0  0  0  0  0
   57.9632   34.9087   44.6176 H   0  0  0  0  0  0  0  0  0  0  0  0
   56.8988   34.1875   45.8759 H   0  0  0  0  0  0  0  0  0  0  0  0
   60.3048   34.5823   44.6489 H   0  0  0  0  0  0  0  0  0  0  0  0
   62.3115   34.2953   46.0933 H   0  0  0  0  0  0  0  0  0  0  0  0
   63.2063   31.7707   47.3541 H   0  0  0  0  0  0  0  0  0  0  0  0
   65.2567   31.5454   48.7429 H   0  0  0  0  0  0  0  0  0  0  0  0
   65.7002   32.9824   52.0218 H   0  0  0  0  0  0  0  0  0  0  0  0
   66.4222   31.9865   50.7127 H   0  0  0  0  0  0  0  0  0  0  0  0
   66.6460   33.7688   50.7127 H   0  0  0  0  0  0  0  0  0  0  0  0
   63.7423   34.3462   52.6191 H   0  0  0  0  0  0  0  0  0  0  0  0
   64.8399   35.4107   51.6765 H   0  0  0  0  0  0  0  0  0  0  0  0
   63.0704   35.7197   51.6765 H   0  0  0  0  0  0  0  0  0  0  0  0
   61.7811   34.9178   49.9550 H   0  0  0  0  0  0  0  0  0  0  0  0
   54.5393   30.6185   43.5067 H   0  0  0  0  0  0  0  0  0  0  0  0
   56.0657   29.9570   42.8291 H   0  0  0  0  0  0  0  0  0  0  0  0
   54.5747   28.9553   42.8291 H   0  0  0  0  0  0  0  0  0  0  0  0
   56.8846   27.0810   45.6299 H   0  0  0  0  0  0  0  0  0  0  0  0
  1  2  1  0
  2  3  1  0
  3  4  2  0
  4  5  1  0
  5  6  2  0
  6  7  1  0
  7  8  1  0
  8  9  2  0
  8 10  1  0
 10 11  1  0
 11 12  1  0
 12 13  2  0
 13 14  1  0
 14 15  1  0
 15 16  2  0
 16 17  1  0
 17 18  2  0
 18 19  1  0
 18 20  1  0
 20 21  1  0
 20 22  2  0
 14 23  1  0
 23 24  2  0
 23 25  1  0
 25 26  2  0
  6 27  1  0
 27 28  1  0
 28 29  1  0
 27 30  2  0
 30  3  1  0
 25 11  1  0
 22 15  1  0
  1 31  1  0
  1 32  1  0
  1 33  1  0
  4 34  1  0
  5 35  1  0
 10 36  1  0
 10 37  1  0
 12 38  1  0
 13 39  1  0
 16 40  1  0
 17 41  1  0
 19 42  1  0
 19 43  1  0
 19 44  1  0
 21 45  1  0
 21 46  1  0
 21 47  1  0
 22 48  1  0
 29 49  1  0
 29 50  1  0
 29 51  1  0
 30 52  1  0
M  CHG  1   7  -1
M  END
>  <UniqueID>  (75) 
69

>  <SMILES>  (75) 
COc1ccc([N-]C(=O)Cn2ccn(-c3ccc(C)c(C)c3)c(=O)c2=O)c(OC)c1

>  <Energy>  (75) 
70.24565504809182

>  <Genealogy>  (75) 
COc1ccc([N-]C(=O)Cn2ccn(-c3ccc(C)c(C)c3)c(=O)c2=O)c(OC)c1 (protonated)
COc1ccc([N-]C(=O)Cn2ccn(-c3ccc(C)c(C)c3)c(=O)c2=O)c(OC)c1 (3D coordinates assigned)
COc1ccc([N-]C(=O)Cn2ccn(-c3ccc(C)c(C)c3)c(=O)c2=O)c(OC)c1 (optimized conformer: 70.24565504809182 kcal/mol)

>  <smiles>  (75) 
COc1ccc(NC(=O)Cn2ccn(-c3ccc(C)c(C)c3)c(=O)c2=O)c(OC)c1

>  <score_type>  (75) 
oracle

>  <origin>  (75) 
adg

>  <m_score__min__energy>  (75) 
-10.800000000000001

>  <m_primary>  (75) 
energy

$$$$
75:0
     RDKit          3D

 48 50  0  0  0  0  0  0  0  0999 V2000
   52.9440   22.5950   44.5090 H   0  0  0  0  0  0  0  0  0  0  0  0
   53.5280   23.3250   44.1170 O   0  0  0  0  0  0  0  0  0  0  0  0
   54.8350   23.5260   44.5570 C   0  0  0  0  0  0  0  0  0  0  0  0
   55.8640   23.6720   43.6210 C   0  0  0  0  0  0  0  0  0  0  0  0
   55.6373   23.6270   42.5455 H   0  0  0  0  0  0  0  0  0  0  0  0
   57.1800   23.8750   44.0480 C   0  0  0  0  0  0  0  0  0  0  0  0
   57.9835   24.0006   43.3073 H   0  0  0  0  0  0  0  0  0  0  0  0
   57.4790   23.9190   45.4190 C   0  0  0  0  0  0  0  0  0  0  0  0
   58.8870   24.1710   45.8780 C   0  0  0  0  0  0  0  0  0  0  0  0
   59.4983   24.5020   45.0255 H   0  0  0  0  0  0  0  0  0  0  0  0
   59.3124   23.2449   46.2919 H   0  0  0  0  0  0  0  0  0  0  0  0
   58.8780   25.2070   46.9030 N   0  0  0  0  0  0  0  0  0  0  0  0
   59.4480   26.5210   46.7990 C   0  0  0  0  0  0  0  0  0  0  0  0
   60.5530   26.7350   47.3620 O   0  0  0  0  0  0  0  0  0  0  0  0
   58.7590   27.6790   46.1050 C   0  0  1  0  0  0  0  0  0  0  0  0
   59.5071   28.1399   45.4432 H   0  0  0  0  0  0  0  0  0  0  0  0
   57.6330   27.2190   45.2970 N   0  0  0  0  0  0  0  0  0  0  0  0
   56.2680   27.5240   45.5950 C   0  0  0  0  0  0  0  0  0  0  0  0
   55.5600   26.6540   46.1660 O   0  0  0  0  0  0  0  0  0  0  0  0
   55.7240   28.8070   45.2370 N   0  0  0  0  0  0  0  0  0  0  0  0
   56.3190   29.7500   44.5670 C   0  0  0  0  0  0  0  0  0  0  0  0
   57.0060   30.7460   45.1970 N   0  0  0  0  0  0  0  0  0  0  0  0
   57.6300   31.7390   44.5070 C   0  0  0  0  0  0  0  0  0  0  0  0
   58.1748   32.5263   45.0486 H   0  0  0  0  0  0  0  0  0  0  0  0
   57.5790   31.7590   43.1110 C   0  0  0  0  0  0  0  0  0  0  0  0
   58.0789   32.5602   42.5470 H   0  0  0  0  0  0  0  0  0  0  0  0
   56.8860   30.7500   42.4410 C   0  0  0  0  0  0  0  0  0  0  0  0
   56.8396   30.7500   41.3420 H   0  0  0  0  0  0  0  0  0  0  0  0
   56.2520   29.7410   43.1670 C   0  0  0  0  0  0  0  0  0  0  0  0
   55.7033   28.9438   42.6441 H   0  0  0  0  0  0  0  0  0  0  0  0
   58.2800   28.7430   47.1060 C   0  0  0  0  0  0  0  0  0  0  0  0
   57.3025   29.1259   46.7775 H   0  0  0  0  0  0  0  0  0  0  0  0
   58.2081   28.2711   48.0970 H   0  0  0  0  0  0  0  0  0  0  0  0
   59.2460   29.8950   47.2060 C   0  0  0  0  0  0  0  0  0  0  0  0
   58.8230   31.1310   47.7230 C   0  0  0  0  0  0  0  0  0  0  0  0
   57.7879   31.2517   48.0752 H   0  0  0  0  0  0  0  0  0  0  0  0
   59.7120   32.2090   47.7920 C   0  0  0  0  0  0  0  0  0  0  0  0
   59.3767   33.1731   48.2020 H   0  0  0  0  0  0  0  0  0  0  0  0
   61.0260   32.0610   47.3400 C   0  0  0  0  0  0  0  0  0  0  0  0
   61.7252   32.9083   47.3965 H   0  0  0  0  0  0  0  0  0  0  0  0
   61.4530   30.8370   46.8160 C   0  0  0  0  0  0  0  0  0  0  0  0
   62.4870   30.7230   46.4585 H   0  0  0  0  0  0  0  0  0  0  0  0
   60.5670   29.7580   46.7460 C   0  0  0  0  0  0  0  0  0  0  0  0
   60.9051   28.7978   46.3292 H   0  0  0  0  0  0  0  0  0  0  0  0
   56.4420   23.7880   46.3560 C   0  0  0  0  0  0  0  0  0  0  0  0
   56.6652   23.8436   47.4317 H   0  0  0  0  0  0  0  0  0  0  0  0
   55.1260   23.5870   45.9270 C   0  0  0  0  0  0  0  0  0  0  0  0
   54.3183   23.4766   46.6655 H   0  0  0  0  0  0  0  0  0  0  0  0
  1  2  1  0
  2  3  1  0
  3  4  2  0
  4  5  1  0
  4  6  1  0
  6  7  1  0
  6  8  2  0
  8  9  1  0
  9 10  1  0
  9 11  1  0
  9 12  1  0
 12 13  1  0
 13 14  2  0
 13 15  1  0
 15 16  1  6
 15 17  1  0
 17 18  1  0
 18 19  2  0
 18 20  1  0
 20 21  2  0
 21 22  1  0
 22 23  1  0
 23 24  1  0
 23 25  2  0
 25 26  1  0
 25 27  1  0
 27 28  1  0
 27 29  2  0
 29 30  1  0
 15 31  1  0
 31 32  1  0
 31 33  1  0
 31 34  1  0
 34 35  2  0
 35 36  1  0
 35 37  1  0
 37 38  1  0
 37 39  2  0
 39 40  1  0
 39 41  1  0
 41 42  1  0
 41 43  2  0
 43 44  1  0
  8 45  1  0
 45 46  1  0
 45 47  2  0
 47 48  1  0
 47  3  1  0
 29 21  1  0
 43 34  1  0
M  CHG  3  12  -1  17  -1  22  -1
M  END
>  <UniqueID>  (76) 
70

>  <SMILES>  (76) 
O=C(/N=c1/cccc[n-]1)[N-][C@@H](Cc1ccccc1)C(=O)[N-]Cc1ccc(O)cc1

>  <Energy>  (76) 
47.5297609266433

>  <Genealogy>  (76) 
O=C(N=c1cccc[n-]1)[N-]C(Cc1ccccc1)C(=O)[N-]Cc1ccc(O)cc1 (protonated)
O=C(N=c1cccc[n-]1)[N-][C@@H](Cc1ccccc1)C(=O)[N-]Cc1ccc(O)cc1 (chirality)
O=C(/N=c1/cccc[n-]1)[N-][C@@H](Cc1ccccc1)C(=O)[N-]Cc1ccc(O)cc1 (cis-trans isomerization)
O=C(/N=c1/cccc[n-]1)[N-][C@@H](Cc1ccccc1)C(=O)[N-]Cc1ccc(O)cc1 (3D coordinates assigned)
O=C(/N=c1/cccc[n-]1)[N-][C@@H](Cc1ccccc1)C(=O)[N-]Cc1ccc(O)cc1 (optimized conformer: 47.5297609266433 kcal/mol)

>  <smiles>  (76) 
O=C(N=c1cccc[nH]1)NC(Cc1ccccc1)C(=O)NCc1ccc(O)cc1

>  <score_type>  (76) 
oracle

>  <origin>  (76) 
adg

>  <m_score__min__energy>  (76) 
-12.98

>  <m_primary>  (76) 
energy

$$$$
76:0
     RDKit          3D

 64 67  0  0  0  0  0  0  0  0999 V2000
   55.2670   26.7140   45.9810 N   0  0  0  0  0  0  0  0  0  0  0  0
   56.6550   25.7020   46.1520 S   0  0  0  0  0  0  0  0  0  0  0  0
   56.5170   24.8760   47.4010 O   0  0  0  0  0  0  0  0  0  0  0  0
   56.7590   24.7760   44.9700 O   0  0  0  0  0  0  0  0  0  0  0  0
   58.1050   26.7100   46.2350 C   0  0  0  0  0  0  0  0  0  0  0  0
   59.0750   26.4490   47.2150 C   0  0  0  0  0  0  0  0  0  0  0  0
   60.2180   27.2500   47.3100 C   0  0  0  0  0  0  0  0  0  0  0  0
   60.4040   28.3080   46.4200 C   0  0  0  0  0  0  0  0  0  0  0  0
   59.4510   28.5720   45.4340 C   0  0  0  0  0  0  0  0  0  0  0  0
   58.2930   27.7790   45.3320 C   0  0  0  0  0  0  0  0  0  0  0  0
   57.3030   28.0310   44.3210 N   0  0  0  0  0  0  0  0  0  0  0  0
   56.4370   29.5180   44.1080 S   0  0  0  0  0  0  0  0  0  0  0  0
   55.1940   29.4880   44.9500 O   0  0  0  0  0  0  0  0  0  0  0  0
   56.0320   29.6490   42.6670 O   0  0  0  0  0  0  0  0  0  0  0  0
   57.4340   30.8790   44.6030 C   0  0  0  0  0  0  0  0  0  0  0  0
   57.8870   30.9850   45.9250 C   0  0  0  0  0  0  0  0  0  0  0  0
   58.6320   32.0970   46.3250 C   0  0  0  0  0  0  0  0  0  0  0  0
   58.9330   33.1170   45.4090 C   0  0  0  0  0  0  0  0  0  0  0  0
   59.6720   34.3200   45.8480 C   0  0  0  0  0  0  0  0  0  0  0  0
   59.2910   35.4570   45.4680 O   0  0  0  0  0  0  0  0  0  0  0  0
   60.8400   34.2170   46.6730 N   0  0  0  0  0  0  0  0  0  0  0  0
   60.8190   33.9800   48.0900 C   0  0  0  0  0  0  0  0  0  0  0  0
   59.6530   34.2300   48.8370 C   0  0  0  0  0  0  0  0  0  0  0  0
   59.6230   33.9710   50.2090 C   0  0  0  0  0  0  0  0  0  0  0  0
   60.7590   33.4760   50.8520 C   0  0  0  0  0  0  0  0  0  0  0  0
   61.9290   33.2430   50.1260 C   0  0  0  0  0  0  0  0  0  0  0  0
   61.9700   33.4960   48.7440 C   0  0  0  0  0  0  0  0  0  0  0  0
   63.4340   33.1210   47.8300 S   0  0  0  0  0  0  0  0  0  0  0  0
   63.4430   31.6620   47.4640 O   0  0  0  0  0  0  0  0  0  0  0  0
   63.4530   33.9540   46.5800 O   0  0  0  0  0  0  0  0  0  0  0  0
   64.8270   33.4740   48.8040 N   0  0  0  0  0  0  0  0  0  0  0  0
   65.2340   32.7830   49.8310 C   0  0  0  0  0  0  0  0  0  0  0  0
   66.2930   33.3880   50.7140 C   0  0  0  0  0  0  0  0  0  0  0  0
   65.7530   33.6740   52.1230 C   0  0  0  0  0  0  0  0  0  0  0  0
   64.5030   32.8490   52.4660 C   0  0  0  0  0  0  0  0  0  0  0  0
   64.7730   31.3470   52.6030 C   0  0  0  0  0  0  0  0  0  0  0  0
   65.1280   30.6780   51.2680 C   0  0  0  0  0  0  0  0  0  0  0  0
   64.6800   31.4890   50.1370 N   0  0  0  0  0  0  0  0  0  0  0  0
   58.5130   32.9870   44.0750 C   0  0  0  0  0  0  0  0  0  0  0  0
   57.7560   31.8790   43.6780 C   0  0  0  0  0  0  0  0  0  0  0  0
   55.5490   27.5180   45.3750 H   0  0  0  0  0  0  0  0  0  0  0  0
   58.9358   25.6098   47.9124 H   0  0  0  0  0  0  0  0  0  0  0  0
   60.9700   27.0456   48.0864 H   0  0  0  0  0  0  0  0  0  0  0  0
   61.3039   28.9361   46.4951 H   0  0  0  0  0  0  0  0  0  0  0  0
   59.6065   29.4050   44.7327 H   0  0  0  0  0  0  0  0  0  0  0  0
   57.6553   30.1905   46.6496 H   0  0  0  0  0  0  0  0  0  0  0  0
   58.9848   32.1737   47.3641 H   0  0  0  0  0  0  0  0  0  0  0  0
   58.7594   34.6320   48.3371 H   0  0  0  0  0  0  0  0  0  0  0  0
   58.7036   34.1572   50.7835 H   0  0  0  0  0  0  0  0  0  0  0  0
   60.7325   33.2692   51.9321 H   0  0  0  0  0  0  0  0  0  0  0  0
   62.8235   32.8593   50.6386 H   0  0  0  0  0  0  0  0  0  0  0  0
   67.1381   32.6880   50.7901 H   0  0  0  0  0  0  0  0  0  0  0  0
   66.6135   34.3404   50.2666 H   0  0  0  0  0  0  0  0  0  0  0  0
   66.5400   33.4384   52.8545 H   0  0  0  0  0  0  0  0  0  0  0  0
   65.4659   34.7354   52.1561 H   0  0  0  0  0  0  0  0  0  0  0  0
   64.0954   33.2167   53.4193 H   0  0  0  0  0  0  0  0  0  0  0  0
   63.7976   32.9733   51.6312 H   0  0  0  0  0  0  0  0  0  0  0  0
   65.6111   31.2036   53.3009 H   0  0  0  0  0  0  0  0  0  0  0  0
   63.8482   30.8783   52.9706 H   0  0  0  0  0  0  0  0  0  0  0  0
   66.2190   30.5507   51.2089 H   0  0  0  0  0  0  0  0  0  0  0  0
   64.6217   29.7026   51.2206 H   0  0  0  0  0  0  0  0  0  0  0  0
   63.9480   31.0660   49.5270 H   0  0  0  0  0  0  0  0  0  0  0  0
   58.7803   33.7596   43.3390 H   0  0  0  0  0  0  0  0  0  0  0  0
   57.4131   31.7937   42.6363 H   0  0  0  0  0  0  0  0  0  0  0  0
  1  2  1  0
  2  3  2  0
  2  4  2  0
  2  5  1  0
  5  6  2  0
  6  7  1  0
  7  8  2  0
  8  9  1  0
  9 10  2  0
 10 11  1  0
 11 12  1  0
 12 13  2  0
 12 14  2  0
 12 15  1  0
 15 16  2  0
 16 17  1  0
 17 18  2  0
 18 19  1  0
 19 20  2  0
 19 21  1  0
 21 22  1  0
 22 23  2  0
 23 24  1  0
 24 25  2  0
 25 26  1  0
 26 27  2  0
 27 28  1  0
 28 29  2  0
 28 30  2  0
 28 31  1  0
 31 32  2  3
 32 33  1  0
 33 34  1  0
 34 35  1  0
 35 36  1  0
 36 37  1  0
 37 38  1  0
 18 39  1  0
 39 40  2  0
 10  5  1  0
 40 15  1  0
 27 22  1  0
 38 32  1  0
  1 41  1  0
  6 42  1  0
  7 43  1  0
  8 44  1  0
  9 45  1  0
 16 46  1  0
 17 47  1  0
 23 48  1  0
 24 49  1  0
 25 50  1  0
 26 51  1  0
 33 52  1  0
 33 53  1  0
 34 54  1  0
 34 55  1  0
 35 56  1  0
 35 57  1  0
 36 58  1  0
 36 59  1  0
 37 60  1  0
 37 61  1  0
 38 62  1  0
 39 63  1  0
 40 64  1  0
M  CHG  3   1  -1  11  -1  21  -1
M  END
>  <UniqueID>  (77) 
71

>  <SMILES>  (77) 
[NH-]S(=O)(=O)c1ccccc1[N-]S(=O)(=O)c1ccc(C(=O)[N-]c2ccccc2S(=O)(=O)N=C2CCCCCN2)cc1

>  <Energy>  (77) 
78.94535292334801

>  <Genealogy>  (77) 
[NH-]S(=O)(=O)c1ccccc1[N-]S(=O)(=O)c1ccc(C(=O)[N-]c2ccccc2S(=O)(=O)N=C2CCCCCN2)cc1 (protonated)
[NH-]S(=O)(=O)c1ccccc1[N-]S(=O)(=O)c1ccc(C(=O)[N-]c2ccccc2S(=O)(=O)N=C2CCCCCN2)cc1 (3D coordinates assigned)
[NH-]S(=O)(=O)c1ccccc1[N-]S(=O)(=O)c1ccc(C(=O)[N-]c2ccccc2S(=O)(=O)N=C2CCCCCN2)cc1 (nonaromatic ring conformer: 78.94535292334801 kcal/mol)

>  <smiles>  (77) 
NS(=O)(=O)c1ccccc1NS(=O)(=O)c1ccc(C(=O)Nc2ccccc2S(=O)(=O)N=C2CCCCCN2)cc1

>  <score_type>  (77) 
oracle

>  <origin>  (77) 
adg

>  <m_score__min__energy>  (77) 
-15.460000000000001

>  <m_primary>  (77) 
energy

$$$$
77:0
     RDKit          3D

 44 46  0  0  0  0  0  0  0  0999 V2000
   57.7690   28.1950   43.4810 C   0  0  0  0  0  0  0  0  0  0  0  0
   57.0260   29.2020   43.0130 C   0  0  0  0  0  0  0  0  0  0  0  0
   55.8360   29.7280   43.7660 C   0  0  0  0  0  0  0  0  0  0  0  0
   56.2740   30.6120   44.8390 N   0  0  0  0  0  0  0  0  0  0  0  0
   57.2550   31.6390   44.6680 C   0  0  0  0  0  0  0  0  0  0  0  0
   57.3610   32.2330   43.5620 O   0  0  0  0  0  0  0  0  0  0  0  0
   58.1590   31.9920   45.7790 C   0  0  0  0  0  0  0  0  0  0  0  0
   58.6220   33.2700   46.1110 C   0  0  0  0  0  0  0  0  0  0  0  0
   58.3220   34.4630   45.3740 N   0  0  0  0  0  0  0  0  0  0  0  0
   59.4560   33.2220   47.1840 N   0  0  0  0  0  0  0  0  0  0  0  0
   60.2050   34.3240   47.8010 C   0  0  0  0  0  0  0  0  0  0  0  0
   61.6350   33.9190   48.0410 C   0  0  0  0  0  0  0  0  0  0  0  0
   62.4370   33.4830   46.9720 C   0  0  0  0  0  0  0  0  0  0  0  0
   63.7600   33.0910   47.1960 C   0  0  0  0  0  0  0  0  0  0  0  0
   64.2950   33.1340   48.4860 C   0  0  0  0  0  0  0  0  0  0  0  0
   63.5070   33.5680   49.5550 C   0  0  0  0  0  0  0  0  0  0  0  0
   62.1820   33.9600   49.3350 C   0  0  0  0  0  0  0  0  0  0  0  0
   59.5240   31.9160   47.5210 C   0  0  0  0  0  0  0  0  0  0  0  0
   60.2390   31.3820   48.5440 N   0  0  0  0  0  0  0  0  0  0  0  0
   60.1780   30.0370   48.7610 C   0  0  0  0  0  0  0  0  0  0  0  0
   59.4020   29.2270   47.9640 N   0  0  0  0  0  0  0  0  0  0  0  0
   59.3280   27.7890   48.2470 C   0  0  0  0  0  0  0  0  0  0  0  0
   58.6630   29.7670   46.9380 C   0  0  0  0  0  0  0  0  0  0  0  0
   57.9070   29.0400   46.2380 O   0  0  0  0  0  0  0  0  0  0  0  0
   58.7530   31.1410   46.7020 C   0  0  0  0  0  0  0  0  0  0  0  0
   58.6334   27.8348   42.9038 H   0  0  0  0  0  0  0  0  0  0  0  0
   57.5163   27.7261   44.4435 H   0  0  0  0  0  0  0  0  0  0  0  0
   57.2928   29.6594   42.0488 H   0  0  0  0  0  0  0  0  0  0  0  0
   55.1867   30.2870   43.0761 H   0  0  0  0  0  0  0  0  0  0  0  0
   55.2813   28.8827   44.1993 H   0  0  0  0  0  0  0  0  0  0  0  0
   58.6280   35.4030   45.7010 H   0  0  0  0  0  0  0  0  0  0  0  0
   57.8220   34.4190   44.4610 H   0  0  0  0  0  0  0  0  0  0  0  0
   60.1832   35.1964   47.1313 H   0  0  0  0  0  0  0  0  0  0  0  0
   59.7393   34.5751   48.7654 H   0  0  0  0  0  0  0  0  0  0  0  0
   62.0214   33.4501   45.9541 H   0  0  0  0  0  0  0  0  0  0  0  0
   64.3809   32.7481   46.3552 H   0  0  0  0  0  0  0  0  0  0  0  0
   65.3366   32.8262   48.6600 H   0  0  0  0  0  0  0  0  0  0  0  0
   63.9286   33.6015   50.5704 H   0  0  0  0  0  0  0  0  0  0  0  0
   61.5652   34.3020   50.1792 H   0  0  0  0  0  0  0  0  0  0  0  0
   60.8250   31.9780   49.1680 H   0  0  0  0  0  0  0  0  0  0  0  0
   60.7571   29.5936   49.5844 H   0  0  0  0  0  0  0  0  0  0  0  0
   59.3198   27.6294   49.3353 H   0  0  0  0  0  0  0  0  0  0  0  0
   58.4074   27.3760   47.8089 H   0  0  0  0  0  0  0  0  0  0  0  0
   60.2013   27.2837   47.8089 H   0  0  0  0  0  0  0  0  0  0  0  0
  1  2  2  0
  2  3  1  0
  3  4  1  0
  4  5  1  0
  5  6  2  0
  5  7  1  0
  7  8  2  0
  8  9  1  0
  8 10  1  0
 10 11  1  0
 11 12  1  0
 12 13  2  0
 13 14  1  0
 14 15  2  0
 15 16  1  0
 16 17  2  0
 10 18  1  0
 18 19  1  0
 19 20  2  0
 20 21  1  0
 21 22  1  0
 21 23  1  0
 23 24  2  0
 23 25  1  0
 25  7  1  0
 17 12  1  0
 25 18  2  0
  1 26  1  0
  1 27  1  0
  2 28  1  0
  3 29  1  0
  3 30  1  0
  9 31  1  0
  9 32  1  0
 11 33  1  0
 11 34  1  0
 13 35  1  0
 14 36  1  0
 15 37  1  0
 16 38  1  0
 17 39  1  0
 19 40  1  0
 20 41  1  0
 22 42  1  0
 22 43  1  0
 22 44  1  0
M  CHG  2   4  -1  19   1
M  END
>  <UniqueID>  (78) 
72

>  <SMILES>  (78) 
C=CC[N-]C(=O)c1c(N)n(Cc2ccccc2)c2[nH+]cn(C)c(=O)c12

>  <Energy>  (78) 
83.44056410439315

>  <Genealogy>  (78) 
C=CC[N-]C(=O)c1c(N)n(Cc2ccccc2)c2[nH+]cn(C)c(=O)c12 (protonated)
C=CC[N-]C(=O)c1c(N)n(Cc2ccccc2)c2[nH+]cn(C)c(=O)c12 (3D coordinates assigned)
C=CC[N-]C(=O)c1c(N)n(Cc2ccccc2)c2[nH+]cn(C)c(=O)c12 (optimized conformer: 83.44056410439315 kcal/mol)

>  <smiles>  (78) 
C=CCNC(=O)c1c(N)n(Cc2ccccc2)c2ncn(C)c(=O)c12

>  <score_type>  (78) 
oracle

>  <origin>  (78) 
adg

>  <m_score__min__energy>  (78) 
-7.8300000000000001

>  <m_primary>  (78) 
energy

$$$$
78:0
     RDKit          3D

 25 26  0  0  0  0  0  0  0  0999 V2000
   55.8920   25.3420   46.8080 O   0  0  0  0  0  0  0  0  0  0  0  0
   56.5070   26.3900   46.4780 C   0  0  0  0  0  0  0  0  0  0  0  0
   57.7430   26.6340   46.9820 N   0  0  0  0  0  0  0  0  0  0  0  0
   58.4370   27.7520   46.6470 C   0  0  0  0  0  0  0  0  0  0  0  0
   59.5710   27.9330   47.1570 O   0  0  0  0  0  0  0  0  0  0  0  0
   57.8710   28.6840   45.7490 C   0  0  0  0  0  0  0  0  0  0  0  0
   58.4890   29.8710   45.3150 O   0  0  0  0  0  0  0  0  0  0  0  0
   57.7190   31.2550   44.6660 S   0  0  0  0  0  0  0  0  0  0  0  0
   58.0160   31.3310   43.1950 O   0  0  0  0  0  0  0  0  0  0  0  0
   56.2330   31.1340   44.8580 O   0  0  0  0  0  0  0  0  0  0  0  0
   58.3250   32.7160   45.4400 C   0  0  0  0  0  0  0  0  0  0  0  0
   58.7470   33.8060   44.6650 C   0  0  0  0  0  0  0  0  0  0  0  0
   59.2250   34.9660   45.2840 C   0  0  0  0  0  0  0  0  0  0  0  0
   59.2850   35.0390   46.6790 C   0  0  0  0  0  0  0  0  0  0  0  0
   58.8720   33.9530   47.4560 C   0  0  0  0  0  0  0  0  0  0  0  0
   58.3950   32.7920   46.8390 C   0  0  0  0  0  0  0  0  0  0  0  0
   56.5920   28.4070   45.2540 C   0  0  0  0  0  0  0  0  0  0  0  0
   55.9370   27.2750   45.6200 N   0  0  0  0  0  0  0  0  0  0  0  0
   58.7020   33.7487   43.5674 H   0  0  0  0  0  0  0  0  0  0  0  0
   59.5534   35.8201   44.6736 H   0  0  0  0  0  0  0  0  0  0  0  0
   59.6577   35.9524   47.1657 H   0  0  0  0  0  0  0  0  0  0  0  0
   58.9222   34.0115   48.5533 H   0  0  0  0  0  0  0  0  0  0  0  0
   58.0741   31.9368   47.4519 H   0  0  0  0  0  0  0  0  0  0  0  0
   56.1119   29.1136   44.5610 H   0  0  0  0  0  0  0  0  0  0  0  0
   54.9840   27.0880   45.2320 H   0  0  0  0  0  0  0  0  0  0  0  0
  1  2  2  0
  2  3  1  0
  3  4  1  0
  4  5  2  0
  4  6  1  0
  6  7  1  0
  7  8  1  0
  8  9  2  0
  8 10  2  0
  8 11  1  0
 11 12  2  0
 12 13  1  0
 13 14  2  0
 14 15  1  0
 15 16  2  0
  6 17  2  0
 17 18  1  0
 18  2  1  0
 16 11  1  0
 12 19  1  0
 13 20  1  0
 14 21  1  0
 15 22  1  0
 16 23  1  0
 17 24  1  0
 18 25  1  0
M  CHG  1   3  -1
M  END
>  <UniqueID>  (79) 
73

>  <SMILES>  (79) 
O=c1[n-]c(=O)c(OS(=O)(=O)c2ccccc2)c[nH]1

>  <Energy>  (79) 
30.009180260912096

>  <Genealogy>  (79) 
O=c1[n-]c(=O)c(OS(=O)(=O)c2ccccc2)c[nH]1 (protonated)
O=c1[n-]c(=O)c(OS(=O)(=O)c2ccccc2)c[nH]1 (3D coordinates assigned)
O=c1[n-]c(=O)c(OS(=O)(=O)c2ccccc2)c[nH]1 (optimized conformer: 30.009180260912096 kcal/mol)

>  <smiles>  (79) 
O=c1[nH]cc(OS(=O)(=O)c2ccccc2)c(=O)[nH]1

>  <score_type>  (79) 
oracle

>  <origin>  (79) 
adg

>  <m_score__min__energy>  (79) 
-8.8699999999999992

>  <m_primary>  (79) 
energy

$$$$
79:0
     RDKit          3D

 51 53  0  0  0  0  0  0  0  0999 V2000
   56.8290   20.9830   43.0020 C   0  0  0  0  0  0  0  0  0  0  0  0
   55.9060   22.0310   43.2760 O   0  0  0  0  0  0  0  0  0  0  0  0
   56.1950   23.1550   44.0650 C   0  0  0  0  0  0  0  0  0  0  0  0
   57.4760   23.7330   44.1150 C   0  0  0  0  0  0  0  0  0  0  0  0
   57.7130   24.8540   44.9160 C   0  0  0  0  0  0  0  0  0  0  0  0
   56.6830   25.4100   45.6870 C   0  0  0  0  0  0  0  0  0  0  0  0
   56.9410   26.5930   46.4610 N   0  0  0  0  0  0  0  0  0  0  0  0
   57.0180   27.9170   45.9020 C   0  0  0  0  0  0  0  0  0  0  0  0
   55.9520   28.4300   45.2330 N   0  0  0  0  0  0  0  0  0  0  0  0
   55.9720   29.6880   44.7280 C   0  0  0  0  0  0  0  0  0  0  0  0
   54.9690   30.1360   44.1150 O   0  0  0  0  0  0  0  0  0  0  0  0
   57.0750   30.4640   44.8810 N   0  0  0  0  0  0  0  0  0  0  0  0
   58.1720   30.0110   45.5400 C   0  0  0  0  0  0  0  0  0  0  0  0
   59.2910   30.8420   45.6180 O   0  0  0  0  0  0  0  0  0  0  0  0
   58.1610   28.7160   46.1000 C   0  0  0  0  0  0  0  0  0  0  0  0
   59.3330   28.1560   46.8070 C   0  0  0  0  0  0  0  0  0  0  0  0
   59.7980   28.6300   47.9800 C   0  0  0  0  0  0  0  0  0  0  0  0
   60.3840   27.7410   48.9580 C   0  0  0  0  0  0  0  0  0  0  0  0
   60.8520   27.0290   49.7410 N   0  0  0  0  0  0  0  0  0  0  0  0
   59.8010   30.0840   48.2520 C   0  0  0  0  0  0  0  0  0  0  0  0
   58.7160   30.6910   48.4600 O   0  0  0  0  0  0  0  0  0  0  0  0
   61.0390   30.7980   48.3180 N   0  0  0  0  0  0  0  0  0  0  0  0
   61.2680   32.0880   47.6830 C   0  0  0  0  0  0  0  0  0  0  0  0
   60.2390   33.1030   48.1860 C   0  0  0  0  0  0  0  0  0  0  0  0
   59.2940   33.5170   47.0850 C   0  0  0  0  0  0  0  0  0  0  0  0
   59.7800   34.1960   45.9540 C   0  0  0  0  0  0  0  0  0  0  0  0
   58.9120   34.5360   44.9100 C   0  0  0  0  0  0  0  0  0  0  0  0
   57.5590   34.1920   44.9840 C   0  0  0  0  0  0  0  0  0  0  0  0
   57.0710   33.5070   46.0980 C   0  0  0  0  0  0  0  0  0  0  0  0
   57.9350   33.1670   47.1440 C   0  0  0  0  0  0  0  0  0  0  0  0
   55.3980   24.8400   45.6250 C   0  0  0  0  0  0  0  0  0  0  0  0
   55.1630   23.7180   44.8250 C   0  0  0  0  0  0  0  0  0  0  0  0
   57.1988   20.5631   43.9491 H   0  0  0  0  0  0  0  0  0  0  0  0
   56.3268   20.1943   42.4226 H   0  0  0  0  0  0  0  0  0  0  0  0
   57.6748   21.3815   42.4226 H   0  0  0  0  0  0  0  0  0  0  0  0
   58.2951   23.3012   43.5213 H   0  0  0  0  0  0  0  0  0  0  0  0
   58.7166   25.3036   44.9414 H   0  0  0  0  0  0  0  0  0  0  0  0
   57.0310   26.4840   47.4960 H   0  0  0  0  0  0  0  0  0  0  0  0
   59.7190   31.1050   46.4960 H   0  0  0  0  0  0  0  0  0  0  0  0
   59.8556   27.3032   46.3491 H   0  0  0  0  0  0  0  0  0  0  0  0
   62.2802   32.4416   47.9289 H   0  0  0  0  0  0  0  0  0  0  0  0
   61.1682   31.9792   46.5930 H   0  0  0  0  0  0  0  0  0  0  0  0
   59.6596   32.6504   49.0042 H   0  0  0  0  0  0  0  0  0  0  0  0
   60.7757   33.9966   48.5372 H   0  0  0  0  0  0  0  0  0  0  0  0
   60.8457   34.4609   45.8894 H   0  0  0  0  0  0  0  0  0  0  0  0
   59.2948   35.0744   44.0304 H   0  0  0  0  0  0  0  0  0  0  0  0
   56.8781   34.4615   44.1632 H   0  0  0  0  0  0  0  0  0  0  0  0
   56.0067   33.2345   46.1533 H   0  0  0  0  0  0  0  0  0  0  0  0
   57.5480   32.6224   48.0179 H   0  0  0  0  0  0  0  0  0  0  0  0
   54.5752   25.2790   46.2083 H   0  0  0  0  0  0  0  0  0  0  0  0
   54.1575   23.2732   44.7924 H   0  0  0  0  0  0  0  0  0  0  0  0
  1  2  1  0
  2  3  1  0
  3  4  2  0
  4  5  1  0
  5  6  2  0
  6  7  1  0
  7  8  1  0
  8  9  2  0
  9 10  1  0
 10 11  2  0
 10 12  1  0
 12 13  1  0
 13 14  1  0
 13 15  2  0
 15 16  1  0
 16 17  2  3
 17 18  1  0
 18 19  3  0
 17 20  1  0
 20 21  2  0
 20 22  1  0
 22 23  1  0
 23 24  1  0
 24 25  1  0
 25 26  2  0
 26 27  1  0
 27 28  2  0
 28 29  1  0
 29 30  2  0
  6 31  1  0
 31 32  2  0
 32  3  1  0
 15  8  1  0
 30 25  1  0
  1 33  1  0
  1 34  1  0
  1 35  1  0
  4 36  1  0
  5 37  1  0
  7 38  1  0
 14 39  1  0
 16 40  1  0
 23 41  1  0
 23 42  1  0
 24 43  1  0
 24 44  1  0
 26 45  1  0
 27 46  1  0
 28 47  1  0
 29 48  1  0
 30 49  1  0
 31 50  1  0
 32 51  1  0
M  CHG  2  12  -1  22  -1
M  END
>  <UniqueID>  (80) 
74

>  <SMILES>  (80) 
COc1ccc(Nc2nc(=O)[n-]c(O)c2C=C(C#N)C(=O)[N-]CCc2ccccc2)cc1

>  <Energy>  (80) 
58.48989460798687

>  <Genealogy>  (80) 
COc1ccc(Nc2nc(=O)[n-]c(O)c2C=C(C#N)C(=O)[N-]CCc2ccccc2)cc1 (protonated)
COc1ccc(Nc2nc(=O)[n-]c(O)c2C=C(C#N)C(=O)[N-]CCc2ccccc2)cc1 (3D coordinates assigned)
COc1ccc(Nc2nc(=O)[n-]c(O)c2C=C(C#N)C(=O)[N-]CCc2ccccc2)cc1 (optimized conformer: 58.48989460798687 kcal/mol)

>  <smiles>  (80) 
COc1ccc(Nc2nc(=O)[nH]c(O)c2C=C(C#N)C(=O)NCCc2ccccc2)cc1

>  <score_type>  (80) 
oracle

>  <origin>  (80) 
adg

>  <m_score__min__energy>  (80) 
-13.800000000000001

>  <m_primary>  (80) 
energy

$$$$
80:0
     RDKit          3D

 46 48  0  0  0  0  0  0  0  0999 V2000
   63.8350   32.2900   48.3080 N   0  0  0  0  0  0  0  0  0  0  0  0
   62.3530   33.0110   47.7880 S   0  0  0  0  0  0  0  0  0  0  0  0
   62.5290   33.5700   46.4050 O   0  0  0  0  0  0  0  0  0  0  0  0
   61.9840   34.1320   48.7180 O   0  0  0  0  0  0  0  0  0  0  0  0
   61.0780   31.7970   47.7860 C   0  0  0  0  0  0  0  0  0  0  0  0
   60.2940   31.5900   48.9290 C   0  0  0  0  0  0  0  0  0  0  0  0
   59.2720   30.6380   48.9180 C   0  0  0  0  0  0  0  0  0  0  0  0
   59.0280   29.8850   47.7660 C   0  0  0  0  0  0  0  0  0  0  0  0
   59.8160   30.0720   46.6200 C   0  0  0  0  0  0  0  0  0  0  0  0
   59.5480   29.2990   45.3910 C   0  0  0  0  0  0  0  0  0  0  0  0
   60.5310   28.8120   44.7700 O   0  0  0  0  0  0  0  0  0  0  0  0
   58.2060   29.1090   44.8870 N   0  0  0  0  0  0  0  0  0  0  0  0
   57.6560   29.9660   43.8210 C   0  0  0  0  0  0  0  0  0  0  0  0
   56.9990   31.2310   44.3980 C   0  0  0  0  0  0  0  0  0  0  0  0
   57.7140   32.5290   43.9880 C   0  0  0  0  0  0  0  0  0  0  0  0
   58.2310   33.2920   45.1810 C   0  0  0  0  0  0  0  0  0  0  0  0
   59.2040   34.2910   45.0200 C   0  0  0  0  0  0  0  0  0  0  0  0
   59.6630   35.0060   46.1280 C   0  0  0  0  0  0  0  0  0  0  0  0
   59.1440   34.7150   47.3920 C   0  0  0  0  0  0  0  0  0  0  0  0
   58.2040   33.7440   47.5350 N   0  0  0  0  0  0  0  0  0  0  0  0
   57.7410   33.0340   46.4710 C   0  0  0  0  0  0  0  0  0  0  0  0
   57.3710   28.0750   45.4370 C   0  0  0  0  0  0  0  0  0  0  0  0
   57.8120   26.9030   46.0120 C   0  0  0  0  0  0  0  0  0  0  0  0
   56.6620   26.2060   46.3330 C   0  0  0  0  0  0  0  0  0  0  0  0
   56.6380   24.9580   46.9460 O   0  0  0  0  0  0  0  0  0  0  0  0
   55.5440   26.8720   45.9780 N   0  0  0  0  0  0  0  0  0  0  0  0
   55.9900   28.0140   45.4230 C   0  0  0  0  0  0  0  0  0  0  0  0
   55.1450   28.9680   44.8690 O   0  0  0  0  0  0  0  0  0  0  0  0
   60.8260   31.0460   46.6290 C   0  0  0  0  0  0  0  0  0  0  0  0
   64.4720   32.2730   47.4800 H   0  0  0  0  0  0  0  0  0  0  0  0
   60.4842   32.1794   49.8381 H   0  0  0  0  0  0  0  0  0  0  0  0
   58.6583   30.4806   49.8172 H   0  0  0  0  0  0  0  0  0  0  0  0
   58.2156   29.1434   47.7577 H   0  0  0  0  0  0  0  0  0  0  0  0
   58.4712   30.2632   43.1449 H   0  0  0  0  0  0  0  0  0  0  0  0
   56.8877   29.3940   43.2801 H   0  0  0  0  0  0  0  0  0  0  0  0
   55.9593   31.2778   44.0420 H   0  0  0  0  0  0  0  0  0  0  0  0
   57.0591   31.1583   45.4939 H   0  0  0  0  0  0  0  0  0  0  0  0
   58.5616   32.2759   43.3342 H   0  0  0  0  0  0  0  0  0  0  0  0
   56.9853   33.1674   43.4670 H   0  0  0  0  0  0  0  0  0  0  0  0
   59.6053   34.5108   44.0197 H   0  0  0  0  0  0  0  0  0  0  0  0
   60.4251   35.7900   46.0070 H   0  0  0  0  0  0  0  0  0  0  0  0
   59.4966   35.2724   48.2724 H   0  0  0  0  0  0  0  0  0  0  0  0
   56.9796   32.2546   46.6220 H   0  0  0  0  0  0  0  0  0  0  0  0
   58.8531   26.5899   46.1793 H   0  0  0  0  0  0  0  0  0  0  0  0
   56.5440   24.1110   46.3990 H   0  0  0  0  0  0  0  0  0  0  0  0
   61.4240   31.2215   45.7226 H   0  0  0  0  0  0  0  0  0  0  0  0
  1  2  1  0
  2  3  2  0
  2  4  2  0
  2  5  1  0
  5  6  2  0
  6  7  1  0
  7  8  2  0
  8  9  1  0
  9 10  1  0
 10 11  2  0
 10 12  1  0
 12 13  1  0
 13 14  1  0
 14 15  1  0
 15 16  1  0
 16 17  2  0
 17 18  1  0
 18 19  2  0
 19 20  1  0
 20 21  2  0
 12 22  1  0
 22 23  1  0
 23 24  2  0
 24 25  1  0
 24 26  1  0
 26 27  1  0
 27 28  1  0
  9 29  2  0
 29  5  1  0
 21 16  1  0
 27 22  2  0
  1 30  1  0
  6 31  1  0
  7 32  1  0
  8 33  1  0
 13 34  1  0
 13 35  1  0
 14 36  1  0
 14 37  1  0
 15 38  1  0
 15 39  1  0
 17 40  1  0
 18 41  1  0
 19 42  1  0
 21 43  1  0
 23 44  1  0
 25 45  1  0
 29 46  1  0
M  CHG  3   1  -1  26  -1  28  -1
M  END
>  <UniqueID>  (81) 
75

>  <SMILES>  (81) 
[NH-]S(=O)(=O)c1cccc(C(=O)N(CCCc2cccnc2)c2cc(O)[n-]c2[O-])c1

>  <Energy>  (81) 
82.41900927562877

>  <Genealogy>  (81) 
[NH-]S(=O)(=O)c1cccc(C(=O)N(CCCc2cccnc2)c2cc(O)[n-]c2[O-])c1 (protonated)
[NH-]S(=O)(=O)c1cccc(C(=O)N(CCCc2cccnc2)c2cc(O)[n-]c2[O-])c1 (3D coordinates assigned)
[NH-]S(=O)(=O)c1cccc(C(=O)N(CCCc2cccnc2)c2cc(O)[n-]c2[O-])c1 (optimized conformer: 82.41900927562877 kcal/mol)

>  <smiles>  (81) 
NS(=O)(=O)c1cccc(C(=O)N(CCCc2cccnc2)c2cc(O)[nH]c2O)c1

>  <score_type>  (81) 
oracle

>  <origin>  (81) 
adg

>  <m_score__min__energy>  (81) 
-14.380000000000001

>  <m_primary>  (81) 
energy

$$$$
81:0
     RDKit          3D

 36 38  0  0  0  0  0  0  0  0999 V2000
   56.7640   33.5270   45.7730 O   0  0  0  0  0  0  0  0  0  0  0  0
   57.7100   33.9880   46.4440 N   0  0  0  0  0  0  0  0  0  0  0  0
   58.9460   33.2810   46.6270 C   0  0  0  0  0  0  0  0  0  0  0  0
   59.0030   31.8810   46.8080 C   0  0  0  0  0  0  0  0  0  0  0  0
   57.8480   31.1020   46.6550 O   0  0  0  0  0  0  0  0  0  0  0  0
   60.1960   31.2590   47.1050 N   0  0  0  0  0  0  0  0  0  0  0  0
   60.1570   29.7920   47.3340 C   0  0  0  0  0  0  0  0  0  0  0  0
   59.9480   29.0190   46.0220 C   0  0  0  0  0  0  0  0  0  0  0  0
   58.6140   28.3220   45.9770 C   0  0  0  0  0  0  0  0  0  0  0  0
   57.5560   28.8640   45.2280 C   0  0  0  0  0  0  0  0  0  0  0  0
   56.3000   28.2510   45.2360 C   0  0  0  0  0  0  0  0  0  0  0  0
   56.0920   27.0910   45.9890 C   0  0  0  0  0  0  0  0  0  0  0  0
   54.8420   26.4850   45.9990 O   0  0  0  0  0  0  0  0  0  0  0  0
   57.1400   26.5450   46.7350 C   0  0  0  0  0  0  0  0  0  0  0  0
   58.3980   27.1570   46.7310 C   0  0  0  0  0  0  0  0  0  0  0  0
   61.3680   31.9940   47.1960 C   0  0  0  0  0  0  0  0  0  0  0  0
   62.6160   31.4090   47.5450 C   0  0  0  0  0  0  0  0  0  0  0  0
   63.7780   32.1760   47.6160 C   0  0  0  0  0  0  0  0  0  0  0  0
   63.7410   33.5380   47.3410 C   0  0  0  0  0  0  0  0  0  0  0  0
   62.5350   34.1460   47.0070 C   0  0  0  0  0  0  0  0  0  0  0  0
   61.3450   33.3940   46.9400 C   0  0  0  0  0  0  0  0  0  0  0  0
   60.1260   34.0200   46.6520 C   0  0  0  0  0  0  0  0  0  0  0  0
   60.0800   35.2640   46.4390 O   0  0  0  0  0  0  0  0  0  0  0  0
   56.9480   31.4760   46.3890 H   0  0  0  0  0  0  0  0  0  0  0  0
   61.1085   29.4761   47.7866 H   0  0  0  0  0  0  0  0  0  0  0  0
   59.3113   29.5708   48.0017 H   0  0  0  0  0  0  0  0  0  0  0  0
   60.0064   29.7261   45.1814 H   0  0  0  0  0  0  0  0  0  0  0  0
   60.7322   28.2505   45.9550 H   0  0  0  0  0  0  0  0  0  0  0  0
   57.7169   29.7749   44.6327 H   0  0  0  0  0  0  0  0  0  0  0  0
   55.4746   28.6812   44.6497 H   0  0  0  0  0  0  0  0  0  0  0  0
   56.9754   25.6323   47.3265 H   0  0  0  0  0  0  0  0  0  0  0  0
   59.2202   26.7246   47.3200 H   0  0  0  0  0  0  0  0  0  0  0  0
   62.6656   30.3319   47.7629 H   0  0  0  0  0  0  0  0  0  0  0  0
   64.7307   31.7001   47.8915 H   0  0  0  0  0  0  0  0  0  0  0  0
   64.6641   34.1344   47.3874 H   0  0  0  0  0  0  0  0  0  0  0  0
   62.5101   35.2247   46.7930 H   0  0  0  0  0  0  0  0  0  0  0  0
  1  2  2  0
  2  3  1  0
  3  4  2  0
  4  5  1  0
  4  6  1  0
  6  7  1  0
  7  8  1  0
  8  9  1  0
  9 10  2  0
 10 11  1  0
 11 12  2  0
 12 13  1  0
 12 14  1  0
 14 15  2  0
  6 16  1  0
 16 17  2  0
 17 18  1  0
 18 19  2  0
 19 20  1  0
 20 21  2  0
 21 22  1  0
 22 23  2  0
 22  3  1  0
 15  9  1  0
 21 16  1  0
  5 24  1  0
  7 25  1  0
  7 26  1  0
  8 27  1  0
  8 28  1  0
 10 29  1  0
 11 30  1  0
 14 31  1  0
 15 32  1  0
 17 33  1  0
 18 34  1  0
 19 35  1  0
 20 36  1  0
M  CHG  1  13  -1
M  END
>  <UniqueID>  (82) 
76

>  <SMILES>  (82) 
O=Nc1c(O)n(CCc2ccc([O-])cc2)c2ccccc2c1=O

>  <Energy>  (82) 
54.59285590753633

>  <Genealogy>  (82) 
O=Nc1c(O)n(CCc2ccc([O-])cc2)c2ccccc2c1=O (protonated)
O=Nc1c(O)n(CCc2ccc([O-])cc2)c2ccccc2c1=O (3D coordinates assigned)
O=Nc1c(O)n(CCc2ccc([O-])cc2)c2ccccc2c1=O (optimized conformer: 54.59285590753633 kcal/mol)

>  <smiles>  (82) 
O=Nc1c(O)n(CCc2ccc(O)cc2)c2ccccc2c1=O

>  <score_type>  (82) 
oracle

>  <origin>  (82) 
adg

>  <m_score__min__energy>  (82) 
-10.74

>  <m_primary>  (82) 
energy

$$$$
82:0
     RDKit          3D

 64 67  0  0  0  0  0  0  0  0999 V2000
   59.4107   35.3222   44.2178 H   0  0  0  0  0  0  0  0  0  0  0  0
   58.9000   34.6650   44.9370 C   0  0  0  0  0  0  0  0  0  0  0  0
   59.4021   34.3784   45.8728 H   0  0  0  0  0  0  0  0  0  0  0  0
   57.6700   34.2150   44.6740 C   0  0  0  0  0  0  0  0  0  0  0  0
   57.1795   34.5094   43.7344 H   0  0  0  0  0  0  0  0  0  0  0  0
   56.9420   33.3170   45.6310 C   0  0  0  0  0  0  0  0  0  0  0  0
   56.5719   33.9127   46.4784 H   0  0  0  0  0  0  0  0  0  0  0  0
   56.0979   32.8436   45.1080 H   0  0  0  0  0  0  0  0  0  0  0  0
   57.8400   32.2760   46.1280 N   0  0  0  0  0  0  0  0  0  0  0  0
   58.8350   32.5430   46.9610 N   0  0  0  0  0  0  0  0  0  0  0  0
   59.4870   31.3870   47.1950 C   0  0  0  0  0  0  0  0  0  0  0  0
   60.6060   31.2550   48.0210 O   0  0  0  0  0  0  0  0  0  0  0  0
   61.9400   31.1600   47.5240 C   0  0  0  0  0  0  0  0  0  0  0  0
   62.5154   30.4848   48.1744 H   0  0  0  0  0  0  0  0  0  0  0  0
   61.8956   30.7736   46.4950 H   0  0  0  0  0  0  0  0  0  0  0  0
   62.6370   32.5370   47.4910 C   0  0  0  0  0  0  0  0  0  0  0  0
   63.1150   32.6436   46.5060 H   0  0  0  0  0  0  0  0  0  0  0  0
   63.7510   32.6190   48.5690 C   0  0  0  0  0  0  0  0  0  0  0  0
   63.7363   31.6905   49.1586 H   0  0  0  0  0  0  0  0  0  0  0  0
   64.7067   32.7582   48.0424 H   0  0  0  0  0  0  0  0  0  0  0  0
   63.5790   33.8070   49.5250 C   0  0  0  0  0  0  0  0  0  0  0  0
   64.2935   33.6985   50.3543 H   0  0  0  0  0  0  0  0  0  0  0  0
   63.7621   34.7270   48.9505 H   0  0  0  0  0  0  0  0  0  0  0  0
   62.2090   33.8920   50.0860 N   0  0  0  0  0  0  0  0  0  0  0  0
   61.9600   32.9080   51.1630 C   0  0  0  0  0  0  0  0  0  0  0  0
   62.4469   31.9577   50.8989 H   0  0  0  0  0  0  0  0  0  0  0  0
   62.3710   33.3102   52.1007 H   0  0  0  0  0  0  0  0  0  0  0  0
   60.4810   32.6650   51.3580 C   0  0  0  0  0  0  0  0  0  0  0  0
   59.6630   33.7000   51.8460 C   0  0  0  0  0  0  0  0  0  0  0  0
   60.1077   34.6711   52.1091 H   0  0  0  0  0  0  0  0  0  0  0  0
   58.2900   33.5010   51.9980 C   0  0  0  0  0  0  0  0  0  0  0  0
   57.6557   34.3161   52.3765 H   0  0  0  0  0  0  0  0  0  0  0  0
   57.7210   32.2710   51.6710 C   0  0  0  0  0  0  0  0  0  0  0  0
   56.6389   32.1170   51.7946 H   0  0  0  0  0  0  0  0  0  0  0  0
   58.5210   31.2340   51.1870 C   0  0  0  0  0  0  0  0  0  0  0  0
   58.0655   30.2656   50.9327 H   0  0  0  0  0  0  0  0  0  0  0  0
   59.9090   31.4200   51.0220 C   0  0  0  0  0  0  0  0  0  0  0  0
   60.7400   30.4020   50.5220 O   0  0  0  0  0  0  0  0  0  0  0  0
   60.2820   29.1220   50.1000 C   0  0  0  0  0  0  0  0  0  0  0  0
   60.0604   28.5028   50.9818 H   0  0  0  0  0  0  0  0  0  0  0  0
   59.3702   29.2396   49.4961 H   0  0  0  0  0  0  0  0  0  0  0  0
   61.0615   28.6344   49.4961 H   0  0  0  0  0  0  0  0  0  0  0  0
   61.1290   33.8720   49.0610 C   0  0  0  0  0  0  0  0  0  0  0  0
   60.4499   33.0382   49.2925 H   0  0  0  0  0  0  0  0  0  0  0  0
   60.6334   34.8529   49.1070 H   0  0  0  0  0  0  0  0  0  0  0  0
   61.6290   33.6990   47.6170 C   0  0  0  0  0  0  0  0  0  0  0  0
   60.7673   33.4943   46.9646 H   0  0  0  0  0  0  0  0  0  0  0  0
   62.1402   34.6267   47.3203 H   0  0  0  0  0  0  0  0  0  0  0  0
   58.9040   30.3540   46.4950 C   0  0  0  0  0  0  0  0  0  0  0  0
   59.1985   29.2942   46.4833 H   0  0  0  0  0  0  0  0  0  0  0  0
   57.8630   30.9550   45.8100 C   0  0  0  0  0  0  0  0  0  0  0  0
   56.9620   30.2470   44.8740 C   0  0  0  0  0  0  0  0  0  0  0  0
   56.6330   30.8130   43.7970 O   0  0  0  0  0  0  0  0  0  0  0  0
   56.3450   29.0070   45.2470 N   0  0  0  0  0  0  0  0  0  0  0  0
   56.8930   27.8640   45.5620 C   0  0  0  0  0  0  0  0  0  0  0  0
   58.2450   27.7570   45.4300 N   0  0  0  0  0  0  0  0  0  0  0  0
   58.9260   26.6240   45.7390 C   0  0  0  0  0  0  0  0  0  0  0  0
   60.0183   26.5881   45.6137 H   0  0  0  0  0  0  0  0  0  0  0  0
   58.2440   25.5080   46.2140 C   0  0  0  0  0  0  0  0  0  0  0  0
   58.7929   24.5953   46.4891 H   0  0  0  0  0  0  0  0  0  0  0  0
   56.8560   25.5610   46.3370 C   0  0  0  0  0  0  0  0  0  0  0  0
   56.3044   24.6831   46.7044 H   0  0  0  0  0  0  0  0  0  0  0  0
   56.1630   26.7260   45.9950 C   0  0  0  0  0  0  0  0  0  0  0  0
   54.7730   26.7000   46.0370 O   0  0  0  0  0  0  0  0  0  0  0  0
  1  2  1  0
  2  3  1  0
  2  4  2  0
  4  5  1  0
  4  6  1  0
  6  7  1  0
  6  8  1  0
  6  9  1  0
  9 10  1  0
 10 11  2  0
 11 12  1  0
 12 13  1  0
 13 14  1  0
 13 15  1  0
 13 16  1  0
 16 17  1  0
 16 18  1  0
 18 19  1  0
 18 20  1  0
 18 21  1  0
 21 22  1  0
 21 23  1  0
 21 24  1  0
 24 25  1  0
 25 26  1  0
 25 27  1  0
 25 28  1  0
 28 29  2  0
 29 30  1  0
 29 31  1  0
 31 32  1  0
 31 33  2  0
 33 34  1  0
 33 35  1  0
 35 36  1  0
 35 37  2  0
 37 38  1  0
 38 39  1  0
 39 40  1  0
 39 41  1  0
 39 42  1  0
 24 43  1  0
 43 44  1  0
 43 45  1  0
 43 46  1  0
 46 47  1  0
 46 48  1  0
 11 49  1  0
 49 50  1  0
 49 51  2  0
 51 52  1  0
 52 53  2  0
 52 54  1  0
 54 55  2  0
 55 56  1  0
 56 57  1  0
 57 58  1  0
 57 59  2  0
 59 60  1  0
 59 61  1  0
 61 62  1  0
 61 63  2  0
 63 64  1  0
 51  9  1  0
 63 55  1  0
 46 16  1  0
 37 28  1  0
M  CHG  2  56  -1  64  -1
M  END
>  <UniqueID>  (83) 
77

>  <SMILES>  (83) 
C=CCn1nc(OCC2CCN(Cc3ccccc3OC)CC2)cc1C(=O)/N=c1/[n-]cccc1[O-]

>  <Energy>  (83) 
115.95583405949972

>  <Genealogy>  (83) 
C=CCn1nc(OCC2CCN(Cc3ccccc3OC)CC2)cc1C(=O)N=c1[n-]cccc1[O-] (protonated)
C=CCn1nc(OCC2CCN(Cc3ccccc3OC)CC2)cc1C(=O)/N=c1/[n-]cccc1[O-] (cis-trans isomerization)
C=CCn1nc(OCC2CCN(Cc3ccccc3OC)CC2)cc1C(=O)/N=c1/[n-]cccc1[O-] (3D coordinates assigned)
C=CCn1nc(OCC2CCN(Cc3ccccc3OC)CC2)cc1C(=O)/N=c1/[n-]cccc1[O-] (nonaromatic ring conformer: 115.95583405949972 kcal/mol)

>  <smiles>  (83) 
C=CCn1nc(OCC2CCN(Cc3ccccc3OC)CC2)cc1C(=O)N=c1[nH]cccc1O

>  <score_type>  (83) 
oracle

>  <origin>  (83) 
adg

>  <m_score__min__energy>  (83) 
-14.380000000000001

>  <m_primary>  (83) 
energy

$$$$
83:0
     RDKit          3D

 45 47  0  0  0  0  0  0  0  0999 V2000
   60.3760   29.7240   47.5640 C   0  0  0  0  0  0  0  0  0  0  0  0
   60.4790   31.0640   47.0960 O   0  0  0  0  0  0  0  0  0  0  0  0
   61.4540   31.9820   47.5150 C   0  0  0  0  0  0  0  0  0  0  0  0
   62.8080   31.8500   47.1460 C   0  0  0  0  0  0  0  0  0  0  0  0
   63.7520   32.7840   47.5760 C   0  0  0  0  0  0  0  0  0  0  0  0
   63.3610   33.8590   48.3760 C   0  0  0  0  0  0  0  0  0  0  0  0
   62.0220   34.0020   48.7480 C   0  0  0  0  0  0  0  0  0  0  0  0
   61.0650   33.0670   48.3240 C   0  0  0  0  0  0  0  0  0  0  0  0
   59.3720   33.2650   48.7880 S   0  0  0  0  0  0  0  0  0  0  0  0
   58.7870   31.9050   49.0530 O   0  0  0  0  0  0  0  0  0  0  0  0
   59.2690   34.0890   50.0420 O   0  0  0  0  0  0  0  0  0  0  0  0
   58.4880   34.0450   47.4990 N   0  0  0  0  0  0  0  0  0  0  0  0
   57.4470   33.1330   46.9790 C   0  0  0  0  0  0  0  0  0  0  0  0
   56.9870   33.5610   45.5780 C   0  0  0  0  0  0  0  0  0  0  0  0
   58.1010   33.5400   44.5890 N   0  0  0  0  0  0  0  0  0  0  0  0
   58.0500   32.3450   43.7670 C   0  0  0  0  0  0  0  0  0  0  0  0
   58.4500   32.3980   42.5690 O   0  0  0  0  0  0  0  0  0  0  0  0
   57.5080   31.0580   44.2800 C   0  0  0  0  0  0  0  0  0  0  0  0
   58.3870   30.0400   44.6870 C   0  0  0  0  0  0  0  0  0  0  0  0
   57.8890   28.8260   45.1640 C   0  0  0  0  0  0  0  0  0  0  0  0
   56.5090   28.6310   45.2250 C   0  0  0  0  0  0  0  0  0  0  0  0
   56.0420   27.5430   45.6530 O   0  0  0  0  0  0  0  0  0  0  0  0
   55.6670   29.6140   44.8170 N   0  0  0  0  0  0  0  0  0  0  0  0
   56.1250   30.8070   44.3510 C   0  0  0  0  0  0  0  0  0  0  0  0
   59.4440   33.6570   45.2100 C   0  0  0  0  0  0  0  0  0  0  0  0
   59.4090   34.5560   46.4550 C   0  0  0  0  0  0  0  0  0  0  0  0
   60.3756   29.7188   48.6640 H   0  0  0  0  0  0  0  0  0  0  0  0
   59.4409   29.2776   47.1949 H   0  0  0  0  0  0  0  0  0  0  0  0
   61.2319   29.1399   47.1949 H   0  0  0  0  0  0  0  0  0  0  0  0
   63.1227   31.0056   46.5152 H   0  0  0  0  0  0  0  0  0  0  0  0
   64.8066   32.6726   47.2837 H   0  0  0  0  0  0  0  0  0  0  0  0
   64.1071   34.5935   48.7135 H   0  0  0  0  0  0  0  0  0  0  0  0
   61.7163   34.8516   49.3763 H   0  0  0  0  0  0  0  0  0  0  0  0
   57.8561   32.1133   46.9269 H   0  0  0  0  0  0  0  0  0  0  0  0
   56.5814   33.1680   47.6569 H   0  0  0  0  0  0  0  0  0  0  0  0
   56.1988   32.8730   45.2384 H   0  0  0  0  0  0  0  0  0  0  0  0
   56.6149   34.5940   45.6456 H   0  0  0  0  0  0  0  0  0  0  0  0
   57.9560   34.3770   43.9760 H   0  0  0  0  0  0  0  0  0  0  0  0
   59.4737   30.2005   44.6295 H   0  0  0  0  0  0  0  0  0  0  0  0
   58.5775   28.0317   45.4883 H   0  0  0  0  0  0  0  0  0  0  0  0
   55.4112   31.5791   44.0282 H   0  0  0  0  0  0  0  0  0  0  0  0
   59.7920   32.6551   45.5016 H   0  0  0  0  0  0  0  0  0  0  0  0
   60.1270   34.1089   44.4756 H   0  0  0  0  0  0  0  0  0  0  0  0
   60.4232   34.6138   46.8770 H   0  0  0  0  0  0  0  0  0  0  0  0
   59.0439   35.5455   46.1425 H   0  0  0  0  0  0  0  0  0  0  0  0
  1  2  1  0
  2  3  1  0
  3  4  2  0
  4  5  1  0
  5  6  2  0
  6  7  1  0
  7  8  2  0
  8  9  1  0
  9 10  2  0
  9 11  2  0
  9 12  1  0
 12 13  1  0
 13 14  1  0
 14 15  1  0
 15 16  1  0
 16 17  2  0
 16 18  1  0
 18 19  1  0
 19 20  2  0
 20 21  1  0
 21 22  2  0
 21 23  1  0
 23 24  1  0
 15 25  1  0
 25 26  1  0
  8  3  1  0
 26 12  1  0
 24 18  2  0
  1 27  1  0
  1 28  1  0
  1 29  1  0
  4 30  1  0
  5 31  1  0
  6 32  1  0
  7 33  1  0
 13 34  1  0
 13 35  1  0
 14 36  1  0
 14 37  1  0
 15 38  1  0
 19 39  1  0
 20 40  1  0
 24 41  1  0
 25 42  1  0
 25 43  1  0
 26 44  1  0
 26 45  1  0
M  CHG  2  15   1  23  -1
M  END
>  <UniqueID>  (84) 
78

>  <SMILES>  (84) 
COc1ccccc1S(=O)(=O)N1CC[NH+](C(=O)c2ccc(=O)[n-]c2)CC1

>  <Energy>  (84) 
62.686803271349866

>  <Genealogy>  (84) 
COc1ccccc1S(=O)(=O)N1CC[NH+](C(=O)c2ccc(=O)[n-]c2)CC1 (protonated)
COc1ccccc1S(=O)(=O)N1CC[NH+](C(=O)c2ccc(=O)[n-]c2)CC1 (3D coordinates assigned)
COc1ccccc1S(=O)(=O)N1CC[NH+](C(=O)c2ccc(=O)[n-]c2)CC1 (nonaromatic ring conformer: 62.686803271349866 kcal/mol)

>  <smiles>  (84) 
COc1ccccc1S(=O)(=O)N1CCN(C(=O)c2ccc(=O)[nH]c2)CC1

>  <score_type>  (84) 
oracle

>  <origin>  (84) 
adg

>  <m_score__min__energy>  (84) 
-9.3699999999999992

>  <m_primary>  (84) 
energy

$$$$
84:0
     RDKit          3D

 36 37  0  0  0  0  0  0  0  0999 V2000
   62.8690   34.1270   50.2550 C   0  0  0  0  0  0  0  0  0  0  0  0
   63.0420   33.7060   48.8710 N   0  0  0  0  0  0  0  0  0  0  0  0
   64.1290   33.1350   48.3210 C   0  0  0  0  0  0  0  0  0  0  0  0
   63.8770   32.7890   47.0460 N   0  0  0  0  0  0  0  0  0  0  0  0
   62.6260   33.1160   46.7620 N   0  0  0  0  0  0  0  0  0  0  0  0
   62.1260   33.6740   47.8820 C   0  0  0  0  0  0  0  0  0  0  0  0
   60.4380   34.2690   48.0270 S   0  0  0  0  0  0  0  0  0  0  0  0
   59.9090   33.6340   46.3990 C   0  0  0  0  0  0  0  0  0  0  0  0
   58.7390   32.7050   46.5490 C   0  0  0  0  0  0  0  0  0  0  0  0
   57.8230   32.9990   47.3620 O   0  0  0  0  0  0  0  0  0  0  0  0
   58.6690   31.4260   45.8000 C   0  0  0  0  0  0  0  0  0  0  0  0
   59.6610   30.4370   45.9480 C   0  0  0  0  0  0  0  0  0  0  0  0
   60.7950   30.6850   46.8030 N   0  0  0  0  0  0  0  0  0  0  0  0
   59.5560   29.2550   45.2510 N   0  0  0  0  0  0  0  0  0  0  0  0
   60.6120   28.2330   45.3810 C   0  0  0  0  0  0  0  0  0  0  0  0
   58.4750   29.0270   44.4340 C   0  0  0  0  0  0  0  0  0  0  0  0
   58.3610   27.9190   43.8370 O   0  0  0  0  0  0  0  0  0  0  0  0
   57.5110   29.9860   44.2630 N   0  0  0  0  0  0  0  0  0  0  0  0
   56.3520   29.7150   43.3940 C   0  0  0  0  0  0  0  0  0  0  0  0
   57.5790   31.1600   44.9600 C   0  0  0  0  0  0  0  0  0  0  0  0
   56.6410   32.0030   44.8720 O   0  0  0  0  0  0  0  0  0  0  0  0
   63.1999   33.3217   50.9273 H   0  0  0  0  0  0  0  0  0  0  0  0
   63.4690   35.0299   50.4413 H   0  0  0  0  0  0  0  0  0  0  0  0
   61.8075   34.3472   50.4413 H   0  0  0  0  0  0  0  0  0  0  0  0
   65.0858   32.9743   48.8394 H   0  0  0  0  0  0  0  0  0  0  0  0
   64.5370   32.3300   46.3810 H   0  0  0  0  0  0  0  0  0  0  0  0
   59.6193   34.4796   45.7578 H   0  0  0  0  0  0  0  0  0  0  0  0
   60.7448   33.0813   45.9452 H   0  0  0  0  0  0  0  0  0  0  0  0
   61.0760   31.6450   47.0930 H   0  0  0  0  0  0  0  0  0  0  0  0
   61.3790   29.9050   47.1780 H   0  0  0  0  0  0  0  0  0  0  0  0
   60.8088   28.0426   46.4464 H   0  0  0  0  0  0  0  0  0  0  0  0
   60.2827   27.3018   44.8968 H   0  0  0  0  0  0  0  0  0  0  0  0
   61.5319   28.5926   44.8968 H   0  0  0  0  0  0  0  0  0  0  0  0
   55.4682   29.5083   44.0154 H   0  0  0  0  0  0  0  0  0  0  0  0
   56.1569   30.5917   42.7590 H   0  0  0  0  0  0  0  0  0  0  0  0
   56.5659   28.8426   42.7590 H   0  0  0  0  0  0  0  0  0  0  0  0
  1  2  1  0
  2  3  1  0
  3  4  2  0
  4  5  1  0
  5  6  2  0
  6  7  1  0
  7  8  1  0
  8  9  1  0
  9 10  2  0
  9 11  1  0
 11 12  2  0
 12 13  1  0
 12 14  1  0
 14 15  1  0
 14 16  1  0
 16 17  2  0
 16 18  1  0
 18 19  1  0
 18 20  1  0
 20 21  2  0
  6  2  1  0
 20 11  1  0
  1 22  1  0
  1 23  1  0
  1 24  1  0
  3 25  1  0
  4 26  1  0
  8 27  1  0
  8 28  1  0
 13 29  1  0
 13 30  1  0
 15 31  1  0
 15 32  1  0
 15 33  1  0
 19 34  1  0
 19 35  1  0
 19 36  1  0
M  CHG  1   4   1
M  END
>  <UniqueID>  (85) 
79

>  <SMILES>  (85) 
Cn1c[nH+]nc1SCC(=O)c1c(N)n(C)c(=O)n(C)c1=O

>  <Energy>  (85) 
81.58385889364828

>  <Genealogy>  (85) 
Cn1c[nH+]nc1SCC(=O)c1c(N)n(C)c(=O)n(C)c1=O (protonated)
Cn1c[nH+]nc1SCC(=O)c1c(N)n(C)c(=O)n(C)c1=O (3D coordinates assigned)
Cn1c[nH+]nc1SCC(=O)c1c(N)n(C)c(=O)n(C)c1=O (optimized conformer: 81.58385889364828 kcal/mol)

>  <smiles>  (85) 
Cn1cnnc1SCC(=O)c1c(N)n(C)c(=O)n(C)c1=O

>  <score_type>  (85) 
oracle

>  <origin>  (85) 
adg

>  <m_score__min__energy>  (85) 
-5.46

>  <m_primary>  (85) 
energy

$$$$
85:0
     RDKit          3D

 39 41  0  0  0  0  0  0  0  0999 V2000
   59.7690   29.2980   46.2650 O   0  0  0  0  0  0  0  0  0  0  0  0
   58.7620   29.7960   45.6940 C   0  0  0  0  0  0  0  0  0  0  0  0
   58.8750   31.0420   45.0750 C   0  0  0  0  0  0  0  0  0  0  0  0
   57.7610   31.6050   44.4430 C   0  0  0  0  0  0  0  0  0  0  0  0
   57.8370   32.9640   43.8130 C   0  0  0  0  0  0  0  0  0  0  0  0
   57.0790   34.2260   44.8960 S   0  0  0  0  0  0  0  0  0  0  0  0
   58.3430   34.1250   46.1680 C   0  0  0  0  0  0  0  0  0  0  0  0
   58.0760   33.4590   47.3710 C   0  0  0  0  0  0  0  0  0  0  0  0
   59.0650   33.3640   48.3540 C   0  0  0  0  0  0  0  0  0  0  0  0
   60.3210   33.9460   48.1430 C   0  0  0  0  0  0  0  0  0  0  0  0
   61.5620   33.8260   49.3770 Cl  0  0  0  0  0  0  0  0  0  0  0  0
   60.5850   34.6230   46.9470 C   0  0  0  0  0  0  0  0  0  0  0  0
   59.5970   34.7160   45.9620 C   0  0  0  0  0  0  0  0  0  0  0  0
   56.5800   30.9320   44.4380 N   0  0  0  0  0  0  0  0  0  0  0  0
   56.4360   29.7140   45.0270 C   0  0  0  0  0  0  0  0  0  0  0  0
   55.1990   29.0760   44.9820 O   0  0  0  0  0  0  0  0  0  0  0  0
   57.5290   29.1120   45.6810 C   0  0  0  0  0  0  0  0  0  0  0  0
   57.3910   27.7440   46.3130 C   0  0  0  0  0  0  0  0  0  0  0  0
   57.3860   26.6710   45.2550 C   0  0  0  0  0  0  0  0  0  0  0  0
   57.8140   26.9610   43.9470 C   0  0  0  0  0  0  0  0  0  0  0  0
   57.7780   25.9730   42.9580 C   0  0  0  0  0  0  0  0  0  0  0  0
   57.3130   24.6910   43.2660 C   0  0  0  0  0  0  0  0  0  0  0  0
   56.8820   24.3960   44.5610 C   0  0  0  0  0  0  0  0  0  0  0  0
   56.9150   25.3810   45.5540 C   0  0  0  0  0  0  0  0  0  0  0  0
   59.8352   31.5786   45.0841 H   0  0  0  0  0  0  0  0  0  0  0  0
   58.8921   33.2232   43.6412 H   0  0  0  0  0  0  0  0  0  0  0  0
   57.2877   32.9417   42.8602 H   0  0  0  0  0  0  0  0  0  0  0  0
   57.0865   33.0101   47.5423 H   0  0  0  0  0  0  0  0  0  0  0  0
   58.8566   32.8318   49.2939 H   0  0  0  0  0  0  0  0  0  0  0  0
   61.5707   35.0824   46.7817 H   0  0  0  0  0  0  0  0  0  0  0  0
   59.8041   35.2534   45.0248 H   0  0  0  0  0  0  0  0  0  0  0  0
   55.1360   28.0660   44.9350 H   0  0  0  0  0  0  0  0  0  0  0  0
   58.2360   27.5743   46.9965 H   0  0  0  0  0  0  0  0  0  0  0  0
   56.4411   27.7022   46.8661 H   0  0  0  0  0  0  0  0  0  0  0  0
   58.1786   27.9692   43.7009 H   0  0  0  0  0  0  0  0  0  0  0  0
   58.1158   26.2046   41.9371 H   0  0  0  0  0  0  0  0  0  0  0  0
   57.2866   23.9142   42.4876 H   0  0  0  0  0  0  0  0  0  0  0  0
   56.5157   23.3869   44.8010 H   0  0  0  0  0  0  0  0  0  0  0  0
   56.5712   25.1451   46.5719 H   0  0  0  0  0  0  0  0  0  0  0  0
  1  2  2  0
  2  3  1  0
  3  4  2  0
  4  5  1  0
  5  6  1  0
  6  7  1  0
  7  8  2  0
  8  9  1  0
  9 10  2  0
 10 11  1  0
 10 12  1  0
 12 13  2  0
  4 14  1  0
 14 15  1  0
 15 16  1  0
 15 17  2  0
 17 18  1  0
 18 19  1  0
 19 20  2  0
 20 21  1  0
 21 22  2  0
 22 23  1  0
 23 24  2  0
 17  2  1  0
 24 19  1  0
 13  7  1  0
  3 25  1  0
  5 26  1  0
  5 27  1  0
  8 28  1  0
  9 29  1  0
 12 30  1  0
 13 31  1  0
 16 32  1  0
 18 33  1  0
 18 34  1  0
 20 35  1  0
 21 36  1  0
 22 37  1  0
 23 38  1  0
 24 39  1  0
M  CHG  1  14  -1
M  END
>  <UniqueID>  (86) 
80

>  <SMILES>  (86) 
O=c1cc(CSc2ccc(Cl)cc2)[n-]c(O)c1Cc1ccccc1

>  <Energy>  (86) 
36.52726918847947

>  <Genealogy>  (86) 
O=c1cc(CSc2ccc(Cl)cc2)[n-]c(O)c1Cc1ccccc1 (protonated)
O=c1cc(CSc2ccc(Cl)cc2)[n-]c(O)c1Cc1ccccc1 (3D coordinates assigned)
O=c1cc(CSc2ccc(Cl)cc2)[n-]c(O)c1Cc1ccccc1 (optimized conformer: 36.52726918847947 kcal/mol)

>  <smiles>  (86) 
O=c1cc(CSc2ccc(Cl)cc2)[nH]c(O)c1Cc1ccccc1

>  <score_type>  (86) 
oracle

>  <origin>  (86) 
adg

>  <m_score__min__energy>  (86) 
-11.81

>  <m_primary>  (86) 
energy

$$$$
86:0
     RDKit          3D

 48 50  0  0  0  0  0  0  0  0999 V2000
   52.1580   22.5890   44.1870 H   0  0  0  0  0  0  0  0  0  0  0  0
   52.4970   23.3560   44.8110 N   0  0  0  0  0  0  0  0  0  0  0  0
   53.7480   23.6810   44.8650 C   0  0  0  0  0  0  0  0  0  0  0  0
   54.2390   24.3140   45.9610 N   0  0  0  0  0  0  0  0  0  0  0  0
   55.5450   24.6660   46.0480 C   0  0  0  0  0  0  0  0  0  0  0  0
   55.9500   25.2600   47.0830 O   0  0  0  0  0  0  0  0  0  0  0  0
   56.4290   24.3720   44.9900 C   0  0  0  0  0  0  0  0  0  0  0  0
   57.8870   24.7800   45.0700 C   0  0  0  0  0  0  0  0  0  0  0  0
   58.4144   24.0849   45.7398 H   0  0  0  0  0  0  0  0  0  0  0  0
   58.3063   24.7467   44.0536 H   0  0  0  0  0  0  0  0  0  0  0  0
   58.0510   26.1860   45.5980 C   0  0  0  0  0  0  0  0  0  0  0  0
   58.8500   26.4230   46.7260 C   0  0  0  0  0  0  0  0  0  0  0  0
   59.4037   25.5927   47.1887 H   0  0  0  0  0  0  0  0  0  0  0  0
   58.9460   27.7060   47.2640 C   0  0  0  0  0  0  0  0  0  0  0  0
   59.5909   27.8870   48.1365 H   0  0  0  0  0  0  0  0  0  0  0  0
   58.2270   28.7620   46.7000 C   0  0  0  0  0  0  0  0  0  0  0  0
   58.3230   30.0320   47.2580 O   0  0  0  0  0  0  0  0  0  0  0  0
   57.4050   28.5460   45.5850 C   0  0  0  0  0  0  0  0  0  0  0  0
   56.6800   29.6400   45.0790 O   0  0  0  0  0  0  0  0  0  0  0  0
   56.0020   29.7140   43.8220 C   0  0  0  0  0  0  0  0  0  0  0  0
   56.0722   28.7371   43.3212 H   0  0  0  0  0  0  0  0  0  0  0  0
   54.9532   29.9846   44.0139 H   0  0  0  0  0  0  0  0  0  0  0  0
   56.6140   30.7880   42.9070 C   0  0  0  0  0  0  0  0  0  0  0  0
   56.8172   30.3345   41.9257 H   0  0  0  0  0  0  0  0  0  0  0  0
   55.8873   31.6114   42.8441 H   0  0  0  0  0  0  0  0  0  0  0  0
   57.9170   31.3790   43.4460 C   0  0  0  0  0  0  0  0  0  0  0  0
   58.2291   30.8180   44.3392 H   0  0  0  0  0  0  0  0  0  0  0  0
   58.6933   31.3079   42.6700 H   0  0  0  0  0  0  0  0  0  0  0  0
   57.7260   32.7490   43.7920 O   0  0  0  0  0  0  0  0  0  0  0  0
   58.1660   33.3350   44.9880 C   0  0  0  0  0  0  0  0  0  0  0  0
   59.0700   34.4030   44.9110 C   0  0  0  0  0  0  0  0  0  0  0  0
   59.3873   34.7801   43.9276 H   0  0  0  0  0  0  0  0  0  0  0  0
   59.5710   34.9920   46.0740 C   0  0  0  0  0  0  0  0  0  0  0  0
   60.2871   35.8240   46.0038 H   0  0  0  0  0  0  0  0  0  0  0  0
   59.1640   34.5260   47.3260 C   0  0  0  0  0  0  0  0  0  0  0  0
   59.5608   34.9896   48.2412 H   0  0  0  0  0  0  0  0  0  0  0  0
   58.2520   33.4700   47.4160 C   0  0  0  0  0  0  0  0  0  0  0  0
   57.9282   33.1061   48.4023 H   0  0  0  0  0  0  0  0  0  0  0  0
   57.7510   32.8760   46.2530 C   0  0  0  0  0  0  0  0  0  0  0  0
   57.0307   32.0479   46.3267 H   0  0  0  0  0  0  0  0  0  0  0  0
   57.3330   27.2540   45.0290 C   0  0  0  0  0  0  0  0  0  0  0  0
   56.7088   27.0780   44.1405 H   0  0  0  0  0  0  0  0  0  0  0  0
   55.8960   23.7210   43.8510 C   0  0  0  0  0  0  0  0  0  0  0  0
   56.7120   23.4010   42.7170 N   0  0  0  0  0  0  0  0  0  0  0  0
   57.3600   22.5850   42.6980 H   0  0  0  0  0  0  0  0  0  0  0  0
   56.6810   24.0010   41.8620 H   0  0  0  0  0  0  0  0  0  0  0  0
   54.5730   23.3910   43.8230 N   0  0  0  0  0  0  0  0  0  0  0  0
   54.1820   22.9070   42.9830 H   0  0  0  0  0  0  0  0  0  0  0  0
  1  2  1  0
  2  3  2  0
  3  4  1  0
  4  5  1  0
  5  6  2  0
  5  7  1  0
  7  8  1  0
  8  9  1  0
  8 10  1  0
  8 11  1  0
 11 12  2  0
 12 13  1  0
 12 14  1  0
 14 15  1  0
 14 16  2  0
 16 17  1  0
 16 18  1  0
 18 19  1  0
 19 20  1  0
 20 21  1  0
 20 22  1  0
 20 23  1  0
 23 24  1  0
 23 25  1  0
 23 26  1  0
 26 27  1  0
 26 28  1  0
 26 29  1  0
 29 30  1  0
 30 31  2  0
 31 32  1  0
 31 33  1  0
 33 34  1  0
 33 35  2  0
 35 36  1  0
 35 37  1  0
 37 38  1  0
 37 39  2  0
 39 40  1  0
 18 41  2  0
 41 42  1  0
  7 43  2  0
 43 44  1  0
 44 45  1  0
 44 46  1  0
 43 47  1  0
 47 48  1  0
 47  3  1  0
 41 11  1  0
 39 30  1  0
M  CHG  2   4  -1  17  -1
M  END
>  <UniqueID>  (87) 
81

>  <SMILES>  (87) 
[H]/N=c1\[n-]c(=O)c(Cc2ccc([O-])c(OCCCOc3ccccc3)c2)c(N)[nH]1

>  <Energy>  (87) 
46.90803152050867

>  <Genealogy>  (87) 
N=c1[n-]c(=O)c(Cc2ccc([O-])c(OCCCOc3ccccc3)c2)c(N)[nH]1 (protonated)
[H]/N=c1\[n-]c(=O)c(Cc2ccc([O-])c(OCCCOc3ccccc3)c2)c(N)[nH]1 (cis-trans isomerization)
[H]/N=c1\[n-]c(=O)c(Cc2ccc([O-])c(OCCCOc3ccccc3)c2)c(N)[nH]1 (3D coordinates assigned)
[H]/N=c1\[n-]c(=O)c(Cc2ccc([O-])c(OCCCOc3ccccc3)c2)c(N)[nH]1 (optimized conformer: 46.90803152050867 kcal/mol)

>  <smiles>  (87) 
N=c1[nH]c(N)c(Cc2ccc(O)c(OCCCOc3ccccc3)c2)c(=O)[nH]1

>  <score_type>  (87) 
oracle

>  <origin>  (87) 
adg

>  <m_score__min__energy>  (87) 
-12.220000000000001

>  <m_primary>  (87) 
energy

$$$$
87:0
     RDKit          3D

 43 45  0  0  0  0  0  0  0  0999 V2000
   55.1460   28.9680   44.5370 N   0  0  0  0  0  0  0  0  0  0  0  0
   56.4380   30.0340   44.1100 S   0  0  0  0  0  0  0  0  0  0  0  0
   56.0880   31.4170   44.5790 O   0  0  0  0  0  0  0  0  0  0  0  0
   56.5970   30.0400   42.6160 O   0  0  0  0  0  0  0  0  0  0  0  0
   57.9530   29.5160   44.8550 C   0  0  0  0  0  0  0  0  0  0  0  0
   58.5640   28.3200   44.4480 C   0  0  0  0  0  0  0  0  0  0  0  0
   59.7810   27.9230   45.0050 C   0  0  0  0  0  0  0  0  0  0  0  0
   60.4070   28.7220   45.9620 C   0  0  0  0  0  0  0  0  0  0  0  0
   59.8110   29.9150   46.3740 C   0  0  0  0  0  0  0  0  0  0  0  0
   58.5660   30.3080   45.8460 C   0  0  0  0  0  0  0  0  0  0  0  0
   57.9300   31.4870   46.2740 O   0  0  0  0  0  0  0  0  0  0  0  0
   58.5100   32.7660   46.2800 C   0  0  0  0  0  0  0  0  0  0  0  0
   58.3070   33.5800   45.1600 C   0  0  0  0  0  0  0  0  0  0  0  0
   58.8870   34.8470   45.0880 C   0  0  0  0  0  0  0  0  0  0  0  0
   59.6680   35.3200   46.1440 C   0  0  0  0  0  0  0  0  0  0  0  0
   59.8560   34.5330   47.2820 C   0  0  0  0  0  0  0  0  0  0  0  0
   59.2680   33.2590   47.3760 C   0  0  0  0  0  0  0  0  0  0  0  0
   59.4240   32.4900   48.6320 C   0  0  0  0  0  0  0  0  0  0  0  0
   60.6990   32.0900   49.0610 C   0  0  0  0  0  0  0  0  0  0  0  0
   60.8470   31.3310   50.2220 C   0  0  0  0  0  0  0  0  0  0  0  0
   59.7240   30.9620   50.9750 C   0  0  0  0  0  0  0  0  0  0  0  0
   59.8830   30.2060   52.1370 O   0  0  0  0  0  0  0  0  0  0  0  0
   58.4390   31.3590   50.5570 C   0  0  0  0  0  0  0  0  0  0  0  0
   57.2180   31.0030   51.3650 C   0  0  0  0  0  0  0  0  0  0  0  0
   57.4020   29.7040   52.0020 N   0  0  0  0  0  0  0  0  0  0  0  0
   58.3020   32.1430   49.4000 C   0  0  0  0  0  0  0  0  0  0  0  0
   54.6430   29.4020   45.3440 H   0  0  0  0  0  0  0  0  0  0  0  0
   58.0810   27.6914   43.6854 H   0  0  0  0  0  0  0  0  0  0  0  0
   60.2473   26.9783   44.6886 H   0  0  0  0  0  0  0  0  0  0  0  0
   61.3707   28.4117   46.3921 H   0  0  0  0  0  0  0  0  0  0  0  0
   60.3165   30.5516   47.1151 H   0  0  0  0  0  0  0  0  0  0  0  0
   57.6844   33.2177   44.3287 H   0  0  0  0  0  0  0  0  0  0  0  0
   58.7287   35.4739   44.1981 H   0  0  0  0  0  0  0  0  0  0  0  0
   60.1357   36.3135   46.0795 H   0  0  0  0  0  0  0  0  0  0  0  0
   60.4694   34.9129   48.1123 H   0  0  0  0  0  0  0  0  0  0  0  0
   61.5868   32.3767   48.4783 H   0  0  0  0  0  0  0  0  0  0  0  0
   61.8505   31.0204   50.5483 H   0  0  0  0  0  0  0  0  0  0  0  0
   59.5000   29.2720   52.2190 H   0  0  0  0  0  0  0  0  0  0  0  0
   57.0573   31.7684   52.1385 H   0  0  0  0  0  0  0  0  0  0  0  0
   56.3446   30.9572   50.6979 H   0  0  0  0  0  0  0  0  0  0  0  0
   58.0780   29.1570   51.4220 H   0  0  0  0  0  0  0  0  0  0  0  0
   57.8630   29.8570   52.9290 H   0  0  0  0  0  0  0  0  0  0  0  0
   57.3042   32.4889   49.0924 H   0  0  0  0  0  0  0  0  0  0  0  0
  1  2  1  0
  2  3  2  0
  2  4  2  0
  2  5  1  0
  5  6  2  0
  6  7  1  0
  7  8  2  0
  8  9  1  0
  9 10  2  0
 10 11  1  0
 11 12  1  0
 12 13  2  0
 13 14  1  0
 14 15  2  0
 15 16  1  0
 16 17  2  0
 17 18  1  0
 18 19  2  0
 19 20  1  0
 20 21  2  0
 21 22  1  0
 21 23  1  0
 23 24  1  0
 24 25  1  0
 23 26  2  0
 10  5  1  0
 17 12  1  0
 26 18  1  0
  1 27  1  0
  6 28  1  0
  7 29  1  0
  8 30  1  0
  9 31  1  0
 13 32  1  0
 14 33  1  0
 15 34  1  0
 16 35  1  0
 19 36  1  0
 20 37  1  0
 22 38  1  0
 24 39  1  0
 24 40  1  0
 25 41  1  0
 25 42  1  0
 26 43  1  0
M  CHG  1   1  -1
M  END
>  <UniqueID>  (88) 
82

>  <SMILES>  (88) 
[NH-]S(=O)(=O)c1ccccc1Oc1ccccc1-c1ccc(O)c(CN)c1

>  <Energy>  (88) 
55.54805336390847

>  <Genealogy>  (88) 
[NH-]S(=O)(=O)c1ccccc1Oc1ccccc1-c1ccc(O)c(CN)c1 (protonated)
[NH-]S(=O)(=O)c1ccccc1Oc1ccccc1-c1ccc(O)c(CN)c1 (3D coordinates assigned)
[NH-]S(=O)(=O)c1ccccc1Oc1ccccc1-c1ccc(O)c(CN)c1 (optimized conformer: 55.54805336390847 kcal/mol)

>  <smiles>  (88) 
NCc1cc(-c2ccccc2Oc2ccccc2S(N)(=O)=O)ccc1O

>  <score_type>  (88) 
oracle

>  <origin>  (88) 
adg

>  <m_score__min__energy>  (88) 
-10.880000000000001

>  <m_primary>  (88) 
energy

$$$$
88:0
     RDKit          3D

 29 30  0  0  0  0  0  0  0  0999 V2000
   59.4710   32.5660   45.8020 C   0  0  0  0  0  0  0  0  0  0  0  0
   58.4620   31.5190   45.5670 N   0  0  0  0  0  0  0  0  0  0  0  0
   57.2340   31.8490   45.0520 C   0  0  0  0  0  0  0  0  0  0  0  0
   56.9560   33.0430   44.7580 O   0  0  0  0  0  0  0  0  0  0  0  0
   56.2970   30.8900   44.8480 N   0  0  0  0  0  0  0  0  0  0  0  0
   56.5250   29.5930   45.1660 C   0  0  0  0  0  0  0  0  0  0  0  0
   55.5480   28.6380   44.8950 O   0  0  0  0  0  0  0  0  0  0  0  0
   57.7440   29.2250   45.7520 C   0  0  0  0  0  0  0  0  0  0  0  0
   58.0320   27.8200   46.1250 C   0  0  0  0  0  0  0  0  0  0  0  0
   57.1390   26.9690   46.6540 C   0  0  0  0  0  0  0  0  0  0  0  0
   56.7870   25.6440   46.0920 C   0  0  0  0  0  0  0  0  0  0  0  0
   57.7740   24.6690   45.8550 C   0  0  0  0  0  0  0  0  0  0  0  0
   57.4280   23.4310   45.3050 C   0  0  0  0  0  0  0  0  0  0  0  0
   56.0990   23.1620   44.9700 C   0  0  0  0  0  0  0  0  0  0  0  0
   55.1160   24.1320   45.1750 C   0  0  0  0  0  0  0  0  0  0  0  0
   55.4540   25.3720   45.7270 C   0  0  0  0  0  0  0  0  0  0  0  0
   54.4590   26.3250   45.9240 O   0  0  0  0  0  0  0  0  0  0  0  0
   58.7190   30.2200   45.9330 C   0  0  0  0  0  0  0  0  0  0  0  0
   59.8290   29.9130   46.4510 O   0  0  0  0  0  0  0  0  0  0  0  0
   59.6074   32.7075   46.8843 H   0  0  0  0  0  0  0  0  0  0  0  0
   60.4263   32.2630   45.3486 H   0  0  0  0  0  0  0  0  0  0  0  0
   59.1329   33.5095   45.3486 H   0  0  0  0  0  0  0  0  0  0  0  0
   55.1480   28.0780   45.6380 H   0  0  0  0  0  0  0  0  0  0  0  0
   59.0529   27.4470   45.9559 H   0  0  0  0  0  0  0  0  0  0  0  0
   56.6283   27.2797   47.5774 H   0  0  0  0  0  0  0  0  0  0  0  0
   58.8240   24.8823   46.1040 H   0  0  0  0  0  0  0  0  0  0  0  0
   58.2027   22.6686   45.1361 H   0  0  0  0  0  0  0  0  0  0  0  0
   55.8266   22.1850   44.5443 H   0  0  0  0  0  0  0  0  0  0  0  0
   54.0718   23.9203   44.9014 H   0  0  0  0  0  0  0  0  0  0  0  0
  1  2  1  0
  2  3  1  0
  3  4  2  0
  3  5  1  0
  5  6  1  0
  6  7  1  0
  6  8  2  0
  8  9  1  0
  9 10  2  3
 10 11  1  0
 11 12  2  0
 12 13  1  0
 13 14  2  0
 14 15  1  0
 15 16  2  0
 16 17  1  0
  8 18  1  0
 18 19  2  0
 18  2  1  0
 16 11  1  0
  1 20  1  0
  1 21  1  0
  1 22  1  0
  7 23  1  0
  9 24  1  0
 10 25  1  0
 12 26  1  0
 13 27  1  0
 14 28  1  0
 15 29  1  0
M  CHG  2   5  -1  17  -1
M  END
>  <UniqueID>  (89) 
83

>  <SMILES>  (89) 
Cn1c(=O)[n-]c(O)c(C=Cc2ccccc2[O-])c1=O

>  <Energy>  (89) 
45.51009701221088

>  <Genealogy>  (89) 
Cn1c(=O)[n-]c(O)c(C=Cc2ccccc2[O-])c1=O (protonated)
Cn1c(=O)[n-]c(O)c(C=Cc2ccccc2[O-])c1=O (3D coordinates assigned)
Cn1c(=O)[n-]c(O)c(C=Cc2ccccc2[O-])c1=O (optimized conformer: 45.51009701221088 kcal/mol)

>  <smiles>  (89) 
Cn1c(=O)[nH]c(O)c(C=Cc2ccccc2O)c1=O

>  <score_type>  (89) 
oracle

>  <origin>  (89) 
adg

>  <m_score__min__energy>  (89) 
-12.74

>  <m_primary>  (89) 
energy

$$$$
89:0
     RDKit          3D

 52 55  0  0  0  0  0  0  0  0999 V2000
   54.8030   26.3320   46.0950 O   0  0  0  0  0  0  0  0  0  0  0  0
   55.9840   25.9320   45.9180 C   0  0  0  0  0  0  0  0  0  0  0  0
   56.3940   24.5830   46.4270 C   0  0  0  0  0  0  0  0  0  0  0  0
   56.6180   23.6200   45.2900 C   0  0  0  0  0  0  0  0  0  0  0  0
   57.5770   22.6010   45.4010 C   0  0  0  0  0  0  0  0  0  0  0  0
   57.7740   21.7010   44.3490 C   0  0  0  0  0  0  0  0  0  0  0  0
   57.0140   21.8110   43.1810 C   0  0  0  0  0  0  0  0  0  0  0  0
   56.0470   22.8130   43.0680 C   0  0  0  0  0  0  0  0  0  0  0  0
   55.8450   23.7130   44.1200 C   0  0  0  0  0  0  0  0  0  0  0  0
   56.9320   26.7160   45.1760 N   0  0  0  0  0  0  0  0  0  0  0  0
   57.8630   27.5170   45.6150 C   0  0  0  0  0  0  0  0  0  0  0  0
   58.0950   28.7980   45.0790 C   0  0  0  0  0  0  0  0  0  0  0  0
   59.0930   29.6070   45.6280 C   0  0  0  0  0  0  0  0  0  0  0  0
   59.8370   29.1640   46.7320 C   0  0  0  0  0  0  0  0  0  0  0  0
   60.8630   29.9750   47.3360 N   0  0  0  0  0  0  0  0  0  0  0  0
   60.6150   31.0200   48.2930 C   0  0  0  0  0  0  0  0  0  0  0  0
   59.5170   31.0420   48.9120 O   0  0  0  0  0  0  0  0  0  0  0  0
   61.6590   32.0460   48.5760 C   0  0  0  0  0  0  0  0  0  0  0  0
   63.0110   31.7090   48.3560 C   0  0  0  0  0  0  0  0  0  0  0  0
   64.0350   32.6030   48.6760 C   0  0  0  0  0  0  0  0  0  0  0  0
   63.7300   33.8490   49.2190 C   0  0  0  0  0  0  0  0  0  0  0  0
   62.4000   34.2140   49.4250 C   0  0  0  0  0  0  0  0  0  0  0  0
   61.3560   33.3400   49.0870 C   0  0  0  0  0  0  0  0  0  0  0  0
   59.6700   33.9140   49.3780 S   0  0  0  0  0  0  0  0  0  0  0  0
   59.1890   33.7550   47.6540 C   0  0  0  0  0  0  0  0  0  0  0  0
   58.0240   33.0630   47.3000 C   0  0  0  0  0  0  0  0  0  0  0  0
   57.6580   32.9520   45.9530 C   0  0  0  0  0  0  0  0  0  0  0  0
   58.4520   33.5340   44.9580 C   0  0  0  0  0  0  0  0  0  0  0  0
   58.0920   33.4350   43.6560 F   0  0  0  0  0  0  0  0  0  0  0  0
   59.6120   34.2290   45.3110 C   0  0  0  0  0  0  0  0  0  0  0  0
   59.9780   34.3440   46.6560 C   0  0  0  0  0  0  0  0  0  0  0  0
   59.5830   27.8820   47.2270 C   0  0  0  0  0  0  0  0  0  0  0  0
   58.6150   27.1070   46.6710 N   0  0  0  0  0  0  0  0  0  0  0  0
   57.3266   24.6839   47.0015 H   0  0  0  0  0  0  0  0  0  0  0  0
   55.5882   24.1901   47.0644 H   0  0  0  0  0  0  0  0  0  0  0  0
   58.1759   22.5101   46.3192 H   0  0  0  0  0  0  0  0  0  0  0  0
   58.5281   20.9054   44.4407 H   0  0  0  0  0  0  0  0  0  0  0  0
   57.1774   21.1084   42.3505 H   0  0  0  0  0  0  0  0  0  0  0  0
   55.4442   22.8944   42.1515 H   0  0  0  0  0  0  0  0  0  0  0  0
   55.0781   24.4965   44.0310 H   0  0  0  0  0  0  0  0  0  0  0  0
   57.4935   29.1601   44.2322 H   0  0  0  0  0  0  0  0  0  0  0  0
   59.2965   30.5964   45.1925 H   0  0  0  0  0  0  0  0  0  0  0  0
   61.8600   29.7010   47.1640 H   0  0  0  0  0  0  0  0  0  0  0  0
   63.2623   30.7281   47.9263 H   0  0  0  0  0  0  0  0  0  0  0  0
   65.0839   32.3229   48.4990 H   0  0  0  0  0  0  0  0  0  0  0  0
   64.5387   34.5454   49.4854 H   0  0  0  0  0  0  0  0  0  0  0  0
   62.1669   35.1982   49.8574 H   0  0  0  0  0  0  0  0  0  0  0  0
   57.3966   32.6068   48.0799 H   0  0  0  0  0  0  0  0  0  0  0  0
   56.7441   32.4060   45.6761 H   0  0  0  0  0  0  0  0  0  0  0  0
   60.2378   34.6860   44.5303 H   0  0  0  0  0  0  0  0  0  0  0  0
   60.8874   34.8981   46.9315 H   0  0  0  0  0  0  0  0  0  0  0  0
   60.1712   27.4973   48.0732 H   0  0  0  0  0  0  0  0  0  0  0  0
  1  2  2  0
  2  3  1  0
  3  4  1  0
  4  5  2  0
  5  6  1  0
  6  7  2  0
  7  8  1  0
  8  9  2  0
  2 10  1  0
 10 11  2  3
 11 12  1  0
 12 13  2  0
 13 14  1  0
 14 15  1  0
 15 16  1  0
 16 17  2  0
 16 18  1  0
 18 19  2  0
 19 20  1  0
 20 21  2  0
 21 22  1  0
 22 23  2  0
 23 24  1  0
 24 25  1  0
 25 26  2  0
 26 27  1  0
 27 28  2  0
 28 29  1  0
 28 30  1  0
 30 31  2  0
 14 32  2  0
 32 33  1  0
  9  4  1  0
 33 11  1  0
 23 18  1  0
 31 25  1  0
  3 34  1  0
  3 35  1  0
  5 36  1  0
  6 37  1  0
  7 38  1  0
  8 39  1  0
  9 40  1  0
 12 41  1  0
 13 42  1  0
 15 43  1  0
 19 44  1  0
 20 45  1  0
 21 46  1  0
 22 47  1  0
 26 48  1  0
 27 49  1  0
 30 50  1  0
 31 51  1  0
 32 52  1  0
M  CHG  1  33  -1
M  END
>  <UniqueID>  (90) 
84

>  <SMILES>  (90) 
O=C(Cc1ccccc1)N=c1ccc(NC(=O)c2ccccc2Sc2ccc(F)cc2)c[n-]1

>  <Energy>  (90) 
69.71783950373704

>  <Genealogy>  (90) 
O=C(Cc1ccccc1)N=c1ccc(NC(=O)c2ccccc2Sc2ccc(F)cc2)c[n-]1 (protonated)
O=C(Cc1ccccc1)N=c1ccc(NC(=O)c2ccccc2Sc2ccc(F)cc2)c[n-]1 (3D coordinates assigned)
O=C(Cc1ccccc1)N=c1ccc(NC(=O)c2ccccc2Sc2ccc(F)cc2)c[n-]1 (optimized conformer: 69.71783950373704 kcal/mol)

>  <smiles>  (90) 
O=C(Cc1ccccc1)N=c1ccc(NC(=O)c2ccccc2Sc2ccc(F)cc2)c[nH]1

>  <score_type>  (90) 
oracle

>  <origin>  (90) 
adg

>  <m_score__min__energy>  (90) 
-11.48

>  <m_primary>  (90) 
energy

$$$$
90:0
     RDKit          3D

 40 42  0  0  0  0  0  0  0  0999 V2000
   58.1570   29.1700   47.2840 O   0  0  0  0  0  0  0  0  0  0  0  0
   58.3390   29.9710   46.3280 C   0  0  0  0  0  0  0  0  0  0  0  0
   59.3950   30.9380   46.3730 N   0  0  0  0  0  0  0  0  0  0  0  0
   59.2860   32.3550   46.1660 C   0  0  0  0  0  0  0  0  0  0  0  0
   58.2800   32.9070   45.3500 C   0  0  0  0  0  0  0  0  0  0  0  0
   58.2050   34.2890   45.1600 C   0  0  0  0  0  0  0  0  0  0  0  0
   59.1330   35.1330   45.7700 C   0  0  0  0  0  0  0  0  0  0  0  0
   60.1500   34.5970   46.5620 C   0  0  0  0  0  0  0  0  0  0  0  0
   60.2450   33.2100   46.7470 C   0  0  0  0  0  0  0  0  0  0  0  0
   61.3280   32.6660   47.5950 C   0  0  0  0  0  0  0  0  0  0  0  0
   62.6400   32.6870   47.0970 C   0  0  0  0  0  0  0  0  0  0  0  0
   63.6980   32.2010   47.8670 C   0  0  0  0  0  0  0  0  0  0  0  0
   63.4560   31.6830   49.1390 C   0  0  0  0  0  0  0  0  0  0  0  0
   62.1550   31.6470   49.6450 C   0  0  0  0  0  0  0  0  0  0  0  0
   61.0780   32.1410   48.8880 C   0  0  0  0  0  0  0  0  0  0  0  0
   59.6750   32.0230   49.4520 C   0  0  0  0  0  0  0  0  0  0  0  0
   58.9730   30.8580   48.8980 N   0  0  0  0  0  0  0  0  0  0  0  0
   58.3770   30.1550   49.9020 O   0  0  0  0  0  0  0  0  0  0  0  0
   57.4940   29.8780   45.1290 C   0  0  0  0  0  0  0  0  0  0  0  0
   57.9460   29.9040   43.8230 C   0  0  0  0  0  0  0  0  0  0  0  0
   56.8260   29.7920   43.0250 C   0  0  0  0  0  0  0  0  0  0  0  0
   55.7420   29.7040   43.8760 C   0  0  0  0  0  0  0  0  0  0  0  0
   56.1530   29.7560   45.1560 N   0  0  0  0  0  0  0  0  0  0  0  0
   57.5495   32.2468   44.8597 H   0  0  0  0  0  0  0  0  0  0  0  0
   57.4114   34.7130   44.5272 H   0  0  0  0  0  0  0  0  0  0  0  0
   59.0634   36.2214   45.6269 H   0  0  0  0  0  0  0  0  0  0  0  0
   60.8797   35.2651   47.0428 H   0  0  0  0  0  0  0  0  0  0  0  0
   62.8360   33.0895   46.0922 H   0  0  0  0  0  0  0  0  0  0  0  0
   64.7236   32.2266   47.4701 H   0  0  0  0  0  0  0  0  0  0  0  0
   64.2914   31.3021   49.7448 H   0  0  0  0  0  0  0  0  0  0  0  0
   61.9710   31.2282   50.6454 H   0  0  0  0  0  0  0  0  0  0  0  0
   59.7360   31.9180   50.5453 H   0  0  0  0  0  0  0  0  0  0  0  0
   59.1138   32.9287   49.1786 H   0  0  0  0  0  0  0  0  0  0  0  0
   58.2520   31.1720   48.2030 H   0  0  0  0  0  0  0  0  0  0  0  0
   59.6480   30.2240   48.4130 H   0  0  0  0  0  0  0  0  0  0  0  0
   58.0310   29.3140   49.5010 H   0  0  0  0  0  0  0  0  0  0  0  0
   58.9895   29.9956   43.4872 H   0  0  0  0  0  0  0  0  0  0  0  0
   56.8014   29.7759   41.9254 H   0  0  0  0  0  0  0  0  0  0  0  0
   54.6948   29.6057   43.5541 H   0  0  0  0  0  0  0  0  0  0  0  0
   55.5430   29.7120   46.0030 H   0  0  0  0  0  0  0  0  0  0  0  0
  1  2  2  0
  2  3  1  0
  3  4  1  0
  4  5  2  0
  5  6  1  0
  6  7  2  0
  7  8  1  0
  8  9  2  0
  9 10  1  0
 10 11  2  0
 11 12  1  0
 12 13  2  0
 13 14  1  0
 14 15  2  0
 15 16  1  0
 16 17  1  0
 17 18  1  0
  2 19  1  0
 19 20  2  0
 20 21  1  0
 21 22  2  0
 22 23  1  0
  9  4  1  0
 15 10  1  0
 23 19  1  0
  5 24  1  0
  6 25  1  0
  7 26  1  0
  8 27  1  0
 11 28  1  0
 12 29  1  0
 13 30  1  0
 14 31  1  0
 16 32  1  0
 16 33  1  0
 17 34  1  0
 17 35  1  0
 18 36  1  0
 20 37  1  0
 21 38  1  0
 22 39  1  0
 23 40  1  0
M  CHG  2   3  -1  17   1
M  END
>  <UniqueID>  (91) 
85

>  <SMILES>  (91) 
O=C([N-]c1ccccc1-c1ccccc1C[NH2+]O)c1ccc[nH]1

>  <Energy>  (91) 
78.79464712746109

>  <Genealogy>  (91) 
O=C([N-]c1ccccc1-c1ccccc1C[NH2+]O)c1ccc[nH]1 (protonated)
O=C([N-]c1ccccc1-c1ccccc1C[NH2+]O)c1ccc[nH]1 (3D coordinates assigned)
O=C([N-]c1ccccc1-c1ccccc1C[NH2+]O)c1ccc[nH]1 (optimized conformer: 78.79464712746109 kcal/mol)

>  <smiles>  (91) 
O=C(Nc1ccccc1-c1ccccc1CNO)c1ccc[nH]1

>  <score_type>  (91) 
oracle

>  <origin>  (91) 
adg

>  <m_score__min__energy>  (91) 
-7.3700000000000001

>  <m_primary>  (91) 
energy

$$$$
91:0
     RDKit          3D

 65 68  0  0  1  0  0  0  0  0999 V2000
   55.4880   29.7150   43.3660 C   0  0  0  0  0  0  0  0  0  0  0  0
   56.7570   30.0940   43.5040 C   0  0  0  0  0  0  0  0  0  0  0  0
   57.1600   31.2260   44.3280 C   0  0  0  0  0  0  0  0  0  0  0  0
   56.3020   31.9850   44.8640 O   0  0  0  0  0  0  0  0  0  0  0  0
   58.5260   31.5480   44.5790 N   0  0  0  0  0  0  0  0  0  0  0  0
   58.7470   32.7000   45.4130 C   0  0  0  0  0  0  0  0  0  0  0  0
   59.0580   33.8690   44.7460 C   0  0  0  0  0  0  0  0  0  0  0  0
   59.2850   35.0200   45.4760 C   0  0  0  0  0  0  0  0  0  0  0  0
   59.1880   34.9530   46.8450 C   0  0  0  0  0  0  0  0  0  0  0  0
   58.8770   33.7900   47.5160 C   0  0  0  0  0  0  0  0  0  0  0  0
   58.6530   32.6430   46.7850 C   0  0  0  0  0  0  0  0  0  0  0  0
   58.3360   31.4380   47.3890 O   0  0  0  0  0  0  0  0  0  0  0  0
   59.2310   30.5880   47.9700 C   0  0  0  0  0  0  0  0  0  0  0  0
   59.2700   29.2780   47.4890 C   0  0  0  0  0  0  0  0  0  0  0  0
   60.9430   29.9670   49.4840 C   0  0  0  0  0  0  0  0  0  0  0  0
   61.7580   30.2970   50.4490 N   0  0  0  0  0  0  0  0  0  0  0  0
   59.4680   26.6250   46.4760 C   0  0  0  0  0  0  0  0  0  0  0  0
   59.6610   25.1730   46.1590 C   0  0  0  0  0  0  0  0  0  0  0  0
   58.4740   24.8220   45.2490 C   0  0  0  0  0  0  0  0  0  0  0  0
   57.4510   25.7950   45.2430 N   0  0  0  0  0  0  0  0  0  0  0  0
   55.9760   25.4340   45.9070 S   0  0  0  0  0  0  0  0  0  0  0  0
   55.0630   24.2430   44.9440 C   0  0  0  0  0  0  0  0  0  0  0  0
   56.1720   24.9100   47.3210 O   0  0  0  0  0  0  0  0  0  0  0  0
   55.1460   26.6850   45.9900 O   0  0  0  0  0  0  0  0  0  0  0  0
   57.7500   27.0950   44.8080 C   0  0  0  0  0  0  0  0  0  0  0  0
   59.1800   27.4400   45.2820 C   0  0  0  0  0  0  0  0  0  0  0  0
   60.9790   28.6900   49.0140 N   0  0  0  0  0  0  0  0  0  0  0  0
   60.1340   28.3630   48.0140 C   0  0  0  0  0  0  0  0  0  0  0  0
   60.1720   27.1730   47.5780 N   0  0  0  0  0  0  0  0  0  0  0  0
   62.7860   31.2190   50.1060 C   0  0  0  0  0  0  0  0  0  0  0  0
   63.9050   31.4300   50.8900 C   0  0  0  0  0  0  0  0  0  0  0  0
   64.8470   32.3330   50.4920 C   0  0  0  0  0  0  0  0  0  0  0  0
   64.7740   33.0780   49.3320 C   0  0  0  0  0  0  0  0  0  0  0  0
   63.6450   32.8620   48.5450 C   0  0  0  0  0  0  0  0  0  0  0  0
   63.4730   33.5960   47.3010 C   0  0  0  0  0  0  0  0  0  0  0  0
   63.3320   34.1780   46.2980 N   0  0  0  0  0  0  0  0  0  0  0  0
   62.6880   31.9550   48.9360 C   0  0  0  0  0  0  0  0  0  0  0  0
   60.0770   30.8800   48.9560 N   0  0  0  0  0  0  0  0  0  0  0  0
   55.2376   28.8523   42.7311 H   0  0  0  0  0  0  0  0  0  0  0  0
   54.6901   30.2646   43.8869 H   0  0  0  0  0  0  0  0  0  0  0  0
   57.5356   29.5273   42.9723 H   0  0  0  0  0  0  0  0  0  0  0  0
   59.2800   30.9810   44.1820 H   0  0  0  0  0  0  0  0  0  0  0  0
   59.1241   33.8834   43.6481 H   0  0  0  0  0  0  0  0  0  0  0  0
   59.5369   35.9658   44.9740 H   0  0  0  0  0  0  0  0  0  0  0  0
   59.3662   35.8669   47.4306 H   0  0  0  0  0  0  0  0  0  0  0  0
   58.8088   33.7773   48.6138 H   0  0  0  0  0  0  0  0  0  0  0  0
   58.5937   28.9795   46.6744 H   0  0  0  0  0  0  0  0  0  0  0  0
   58.5133   26.6904   47.0185 H   0  0  0  0  0  0  0  0  0  0  0  0
   60.6147   25.0120   45.6350 H   0  0  0  0  0  0  0  0  0  0  0  0
   59.6973   24.5468   47.0626 H   0  0  0  0  0  0  0  0  0  0  0  0
   58.8480   24.7062   44.2210 H   0  0  0  0  0  0  0  0  0  0  0  0
   58.0315   23.8956   45.6441 H   0  0  0  0  0  0  0  0  0  0  0  0
   54.5345   23.5536   45.6188 H   0  0  0  0  0  0  0  0  0  0  0  0
   54.3328   24.7668   44.3096 H   0  0  0  0  0  0  0  0  0  0  0  0
   55.7584   23.6739   44.3096 H   0  0  0  0  0  0  0  0  0  0  0  0
   57.6990   27.1423   43.7102 H   0  0  0  0  0  0  0  0  0  0  0  0
   57.0265   27.8125   45.2223 H   0  0  0  0  0  0  0  0  0  0  0  0
   59.9039   27.2078   44.4870 H   0  0  0  0  0  0  0  0  0  0  0  0
   59.2579   28.5111   45.5201 H   0  0  0  0  0  0  0  0  0  0  0  0
   61.6120   27.9880   49.3850 H   0  0  0  0  0  0  0  0  0  0  0  0
   64.0351   30.8729   51.8295 H   0  0  0  0  0  0  0  0  0  0  0  0
   65.7245   32.4773   51.1395 H   0  0  0  0  0  0  0  0  0  0  0  0
   65.5571   33.7961   49.0474 H   0  0  0  0  0  0  0  0  0  0  0  0
   61.8078   31.8076   48.2930 H   0  0  0  0  0  0  0  0  0  0  0  0
   60.0670   31.8480   49.3320 H   0  0  0  0  0  0  0  0  0  0  0  0
  1  2  2  0
  2  3  1  0
  3  4  2  0
  3  5  1  0
  5  6  1  0
  6  7  2  0
  7  8  1  0
  8  9  2  0
  9 10  1  0
 10 11  2  0
 11 12  1  0
 12 13  1  0
 13 14  2  0
 14 15  1  0
 15 16  2  0
 16 17  1  0
 17 18  1  0
 18 19  1  0
 19 20  1  0
 20 21  1  0
 21 22  1  0
 21 23  2  0
 21 24  2  0
 20 25  1  0
 25 26  1  0
 15 27  1  0
 27 28  1  0
 28 29  2  0
 29 30  1  0
 30 31  2  0
 31 32  1  0
 32 33  2  0
 33 34  1  0
 34 35  1  0
 35 36  3  0
 34 37  2  0
 28 38  1  0
 11  6  1  0
 38 13  1  0
 26 17  1  0
 37 30  1  0
  1 39  1  0
  1 40  1  0
  2 41  1  0
  5 42  1  0
  7 43  1  0
  8 44  1  0
  9 45  1  0
 10 46  1  0
 14 47  1  0
 17 48  1  0
 18 49  1  0
 18 50  1  0
 19 51  1  0
 19 52  1  0
 22 53  1  0
 22 54  1  0
 22 55  1  0
 25 56  1  0
 25 57  1  0
 26 58  1  0
 26 59  1  0
 27 60  1  0
 31 61  1  0
 32 62  1  0
 33 63  1  0
 37 64  1  0
 38 65  1  0
M  END
>  <smiles>  (92) 
C=CC(=O)Nc1ccccc1Oc1cc(=NC2CCN(S(C)(=O)=O)CC2)[nH]c(=Nc2cccc(C#N)c2)[nH]1

>  <score_type>  (92) 
oracle

>  <origin>  (92) 
adg

>  <m_score__min__energy>  (92) 
-11.48

>  <m_primary>  (92) 
energy

$$$$
92:0
     RDKit          3D

 34 35  0  0  0  0  0  0  0  0999 V2000
   57.6620   26.5130   45.7170 C   0  0  0  0  0  0  0  0  0  0  0  0
   56.2600   27.0400   45.7470 C   0  0  0  0  0  0  0  0  0  0  0  0
   55.3430   26.3070   46.2000 O   0  0  0  0  0  0  0  0  0  0  0  0
   55.9230   28.3380   45.2390 N   0  0  0  0  0  0  0  0  0  0  0  0
   56.7830   29.4840   45.1740 C   0  0  0  0  0  0  0  0  0  0  0  0
   56.6080   30.4030   44.1340 C   0  0  0  0  0  0  0  0  0  0  0  0
   57.4110   31.5450   44.0540 C   0  0  0  0  0  0  0  0  0  0  0  0
   58.3830   31.7980   45.0390 C   0  0  0  0  0  0  0  0  0  0  0  0
   59.2200   32.9230   44.9950 O   0  0  0  0  0  0  0  0  0  0  0  0
   59.0550   34.0880   45.7560 C   0  0  0  0  0  0  0  0  0  0  0  0
   58.2080   34.9590   45.4150 O   0  0  0  0  0  0  0  0  0  0  0  0
   59.7960   34.2350   46.9780 N   0  0  0  0  0  0  0  0  0  0  0  0
   59.3510   35.1280   47.8960 O   0  0  0  0  0  0  0  0  0  0  0  0
   61.0230   33.5250   47.2310 C   0  0  0  0  0  0  0  0  0  0  0  0
   61.0270   32.4260   48.1070 C   0  0  0  0  0  0  0  0  0  0  0  0
   62.2080   31.7150   48.3450 C   0  0  0  0  0  0  0  0  0  0  0  0
   63.3910   32.0860   47.7010 C   0  0  0  0  0  0  0  0  0  0  0  0
   63.3940   33.1650   46.8140 C   0  0  0  0  0  0  0  0  0  0  0  0
   62.2170   33.8790   46.5730 C   0  0  0  0  0  0  0  0  0  0  0  0
   58.5500   30.8830   46.0840 C   0  0  0  0  0  0  0  0  0  0  0  0
   57.7480   29.7400   46.1620 C   0  0  0  0  0  0  0  0  0  0  0  0
   58.0246   26.3767   46.7465 H   0  0  0  0  0  0  0  0  0  0  0  0
   57.6794   25.5470   45.1912 H   0  0  0  0  0  0  0  0  0  0  0  0
   58.3114   27.2284   45.1912 H   0  0  0  0  0  0  0  0  0  0  0  0
   55.8331   30.2260   43.3736 H   0  0  0  0  0  0  0  0  0  0  0  0
   57.2822   32.2480   43.2179 H   0  0  0  0  0  0  0  0  0  0  0  0
   58.8450   35.8030   47.3740 H   0  0  0  0  0  0  0  0  0  0  0  0
   60.0960   32.1231   48.6084 H   0  0  0  0  0  0  0  0  0  0  0  0
   62.2052   30.8626   49.0402 H   0  0  0  0  0  0  0  0  0  0  0  0
   64.3198   31.5285   47.8924 H   0  0  0  0  0  0  0  0  0  0  0  0
   64.3249   33.4534   46.3040 H   0  0  0  0  0  0  0  0  0  0  0  0
   62.2231   34.7216   45.8659 H   0  0  0  0  0  0  0  0  0  0  0  0
   59.3181   31.0640   46.8503 H   0  0  0  0  0  0  0  0  0  0  0  0
   57.8734   29.0388   47.0002 H   0  0  0  0  0  0  0  0  0  0  0  0
  1  2  1  0
  2  3  2  0
  2  4  1  0
  4  5  1  0
  5  6  2  0
  6  7  1  0
  7  8  2  0
  8  9  1  0
  9 10  1  0
 10 11  2  0
 10 12  1  0
 12 13  1  0
 12 14  1  0
 14 15  2  0
 15 16  1  0
 16 17  2  0
 17 18  1  0
 18 19  2  0
  8 20  1  0
 20 21  2  0
 21  5  1  0
 19 14  1  0
  1 22  1  0
  1 23  1  0
  1 24  1  0
  6 25  1  0
  7 26  1  0
 13 27  1  0
 15 28  1  0
 16 29  1  0
 17 30  1  0
 18 31  1  0
 19 32  1  0
 20 33  1  0
 21 34  1  0
M  CHG  1   4  -1
M  END
>  <UniqueID>  (93) 
86

>  <SMILES>  (93) 
CC(=O)[N-]c1ccc(OC(=O)N(O)c2ccccc2)cc1

>  <Energy>  (93) 
45.6423791503481

>  <Genealogy>  (93) 
CC(=O)[N-]c1ccc(OC(=O)N(O)c2ccccc2)cc1 (protonated)
CC(=O)[N-]c1ccc(OC(=O)N(O)c2ccccc2)cc1 (3D coordinates assigned)
CC(=O)[N-]c1ccc(OC(=O)N(O)c2ccccc2)cc1 (optimized conformer: 45.6423791503481 kcal/mol)

>  <smiles>  (93) 
CC(=O)Nc1ccc(OC(=O)N(O)c2ccccc2)cc1

>  <score_type>  (93) 
oracle

>  <origin>  (93) 
adg

>  <m_score__min__energy>  (93) 
-8.8300000000000001

>  <m_primary>  (93) 
energy

$$$$
93:0
     RDKit          3D

 56 59  0  0  0  0  0  0  0  0999 V2000
   63.0230   33.6780   48.7960 C   0  0  0  0  0  0  0  0  0  0  0  0
   61.8000   33.1650   48.1030 C   0  0  0  0  0  0  0  0  0  0  0  0
   61.3760   31.8460   48.2970 C   0  0  0  0  0  0  0  0  0  0  0  0
   60.2200   31.3820   47.6480 C   0  0  0  0  0  0  0  0  0  0  0  0
   59.7510   29.9900   47.8420 C   0  0  0  0  0  0  0  0  0  0  0  0
   58.9850   29.7150   48.8070 O   0  0  0  0  0  0  0  0  0  0  0  0
   60.2080   28.9480   46.9680 N   0  0  0  0  0  0  0  0  0  0  0  0
   59.4160   28.2030   46.0310 C   0  0  0  0  0  0  0  0  0  0  0  0
   59.6530   28.3830   44.6620 C   0  0  0  0  0  0  0  0  0  0  0  0
   58.8970   27.6880   43.7160 C   0  0  0  0  0  0  0  0  0  0  0  0
   57.8810   26.8230   44.1280 C   0  0  0  0  0  0  0  0  0  0  0  0
   57.6110   26.6570   45.4930 C   0  0  0  0  0  0  0  0  0  0  0  0
   56.3330   25.5660   46.0260 S   0  0  0  0  0  0  0  0  0  0  0  0
   55.0120   26.2870   46.0100 O   0  0  0  0  0  0  0  0  0  0  0  0
   56.6250   25.1480   47.4410 O   0  0  0  0  0  0  0  0  0  0  0  0
   56.2750   24.1440   45.0040 N   0  0  0  0  0  0  0  0  0  0  0  0
   55.3770   23.1090   45.5480 C   0  0  0  0  0  0  0  0  0  0  0  0
   55.9890   22.3820   46.7690 C   0  0  0  0  0  0  0  0  0  0  0  0
   57.3940   22.5460   46.8830 O   0  0  0  0  0  0  0  0  0  0  0  0
   58.0020   22.4200   45.6180 C   0  0  0  0  0  0  0  0  0  0  0  0
   57.6300   23.6170   44.7210 C   0  0  0  0  0  0  0  0  0  0  0  0
   58.3760   27.3510   46.4420 C   0  0  0  0  0  0  0  0  0  0  0  0
   59.5140   32.2630   46.8110 C   0  0  0  0  0  0  0  0  0  0  0  0
   59.9640   33.5820   46.6440 C   0  0  0  0  0  0  0  0  0  0  0  0
   59.2530   34.5220   45.7500 C   0  0  0  0  0  0  0  0  0  0  0  0
   59.7110   35.6820   45.5740 O   0  0  0  0  0  0  0  0  0  0  0  0
   58.0050   34.1770   45.1340 N   0  0  0  0  0  0  0  0  0  0  0  0
   57.7110   32.9580   44.4360 C   0  0  0  0  0  0  0  0  0  0  0  0
   58.0570   32.7790   43.0840 C   0  0  0  0  0  0  0  0  0  0  0  0
   57.7350   31.5880   42.4260 C   0  0  0  0  0  0  0  0  0  0  0  0
   57.0480   30.5770   43.1050 C   0  0  0  0  0  0  0  0  0  0  0  0
   56.7360   29.4230   42.4680 F   0  0  0  0  0  0  0  0  0  0  0  0
   56.6830   30.7570   44.4430 C   0  0  0  0  0  0  0  0  0  0  0  0
   57.0070   31.9470   45.1040 C   0  0  0  0  0  0  0  0  0  0  0  0
   61.0900   33.9890   47.2890 N   0  0  0  0  0  0  0  0  0  0  0  0
   62.8798   33.6179   49.8850 H   0  0  0  0  0  0  0  0  0  0  0  0
   63.8915   33.0684   48.5062 H   0  0  0  0  0  0  0  0  0  0  0  0
   63.1967   34.7248   48.5062 H   0  0  0  0  0  0  0  0  0  0  0  0
   61.9461   31.1744   48.9557 H   0  0  0  0  0  0  0  0  0  0  0  0
   60.4398   29.0764   44.3302 H   0  0  0  0  0  0  0  0  0  0  0  0
   59.1022   27.8221   42.6437 H   0  0  0  0  0  0  0  0  0  0  0  0
   57.2921   26.2714   43.3803 H   0  0  0  0  0  0  0  0  0  0  0  0
   54.4344   23.5851   45.8559 H   0  0  0  0  0  0  0  0  0  0  0  0
   55.2107   22.3602   44.7596 H   0  0  0  0  0  0  0  0  0  0  0  0
   55.5177   22.7771   47.6810 H   0  0  0  0  0  0  0  0  0  0  0  0
   55.8000   21.3070   46.6321 H   0  0  0  0  0  0  0  0  0  0  0  0
   59.0944   22.3863   45.7427 H   0  0  0  0  0  0  0  0  0  0  0  0
   57.6469   21.4939   45.1423 H   0  0  0  0  0  0  0  0  0  0  0  0
   58.3620   24.4213   44.8861 H   0  0  0  0  0  0  0  0  0  0  0  0
   57.6391   23.2664   43.6784 H   0  0  0  0  0  0  0  0  0  0  0  0
   58.1610   27.2279   47.5137 H   0  0  0  0  0  0  0  0  0  0  0  0
   58.6098   31.9193   46.2874 H   0  0  0  0  0  0  0  0  0  0  0  0
   58.5829   33.5792   42.5425 H   0  0  0  0  0  0  0  0  0  0  0  0
   58.0223   31.4463   41.3737 H   0  0  0  0  0  0  0  0  0  0  0  0
   56.1407   29.9623   44.9763 H   0  0  0  0  0  0  0  0  0  0  0  0
   56.7077   32.0896   46.1529 H   0  0  0  0  0  0  0  0  0  0  0  0
  1  2  1  0
  2  3  2  0
  3  4  1  0
  4  5  1  0
  5  6  2  0
  5  7  1  0
  7  8  1  0
  8  9  2  0
  9 10  1  0
 10 11  2  0
 11 12  1  0
 12 13  1  0
 13 14  2  0
 13 15  2  0
 13 16  1  0
 16 17  1  0
 17 18  1  0
 18 19  1  0
 19 20  1  0
 20 21  1  0
 12 22  2  0
  4 23  2  0
 23 24  1  0
 24 25  1  0
 25 26  2  0
 25 27  1  0
 27 28  1  0
 28 29  2  0
 29 30  1  0
 30 31  2  0
 31 32  1  0
 31 33  1  0
 33 34  2  0
 24 35  2  0
 35  2  1  0
 22  8  1  0
 34 28  1  0
 21 16  1  0
  1 36  1  0
  1 37  1  0
  1 38  1  0
  3 39  1  0
  9 40  1  0
 10 41  1  0
 11 42  1  0
 17 43  1  0
 17 44  1  0
 18 45  1  0
 18 46  1  0
 20 47  1  0
 20 48  1  0
 21 49  1  0
 21 50  1  0
 22 51  1  0
 23 52  1  0
 29 53  1  0
 30 54  1  0
 33 55  1  0
 34 56  1  0
M  CHG  2   7  -1  27  -1
M  END
>  <UniqueID>  (94) 
87

>  <SMILES>  (94) 
Cc1cc(C(=O)[N-]c2cccc(S(=O)(=O)N3CCOCC3)c2)cc(C(=O)[N-]c2ccc(F)cc2)n1

>  <Energy>  (94) 
79.31960741233067

>  <Genealogy>  (94) 
Cc1cc(C(=O)[N-]c2cccc(S(=O)(=O)N3CCOCC3)c2)cc(C(=O)[N-]c2ccc(F)cc2)n1 (protonated)
Cc1cc(C(=O)[N-]c2cccc(S(=O)(=O)N3CCOCC3)c2)cc(C(=O)[N-]c2ccc(F)cc2)n1 (3D coordinates assigned)
Cc1cc(C(=O)[N-]c2cccc(S(=O)(=O)N3CCOCC3)c2)cc(C(=O)[N-]c2ccc(F)cc2)n1 (nonaromatic ring conformer: 79.31960741233067 kcal/mol)

>  <smiles>  (94) 
Cc1cc(C(=O)Nc2cccc(S(=O)(=O)N3CCOCC3)c2)cc(C(=O)Nc2ccc(F)cc2)n1

>  <score_type>  (94) 
oracle

>  <origin>  (94) 
adg

>  <m_score__min__energy>  (94) 
-12.99

>  <m_primary>  (94) 
energy

$$$$
94:0
     RDKit          3D

 51 55  0  0  0  0  0  0  0  0999 V2000
   57.2573   21.0766   42.4526 H   0  0  0  0  0  0  0  0  0  0  0  0
   57.0480   21.8060   43.2490 C   0  0  0  0  0  0  0  0  0  0  0  0
   56.2190   22.9020   42.9940 C   0  0  0  0  0  0  0  0  0  0  0  0
   55.7691   23.0311   41.9985 H   0  0  0  0  0  0  0  0  0  0  0  0
   55.9610   23.8350   44.0040 C   0  0  0  0  0  0  0  0  0  0  0  0
   55.3003   24.6909   43.8016 H   0  0  0  0  0  0  0  0  0  0  0  0
   56.5390   23.6860   45.2720 C   0  0  0  0  0  0  0  0  0  0  0  0
   56.2340   24.6530   46.2890 N   0  0  0  0  0  0  0  0  0  0  0  0
   56.2690   26.0810   46.1500 C   0  0  0  0  0  0  0  0  0  0  0  0
   55.1790   26.6960   45.9930 O   0  0  0  0  0  0  0  0  0  0  0  0
   57.5400   26.8450   46.1340 C   0  0  0  0  0  0  0  0  0  0  0  0
   58.1830   27.1570   44.9230 C   0  0  0  0  0  0  0  0  0  0  0  0
   57.7423   26.8294   43.9699 H   0  0  0  0  0  0  0  0  0  0  0  0
   59.3790   27.8810   44.9230 C   0  0  0  0  0  0  0  0  0  0  0  0
   59.8808   28.1103   43.9713 H   0  0  0  0  0  0  0  0  0  0  0  0
   59.9400   28.3150   46.1290 C   0  0  0  0  0  0  0  0  0  0  0  0
   60.8878   28.8733   46.1244 H   0  0  0  0  0  0  0  0  0  0  0  0
   59.2950   28.0390   47.3450 C   0  0  0  0  0  0  0  0  0  0  0  0
   59.9080   28.4820   48.6450 C   0  0  0  0  0  0  0  0  0  0  0  0
   59.1599   28.3957   49.4468 H   0  0  0  0  0  0  0  0  0  0  0  0
   60.7750   27.8427   48.8676 H   0  0  0  0  0  0  0  0  0  0  0  0
   60.3650   29.9050   48.5470 C   0  0  0  0  0  0  0  0  0  0  0  0
   61.4430   30.4940   49.2120 C   0  0  0  0  0  0  0  0  0  0  0  0
   62.1057   29.9709   49.9171 H   0  0  0  0  0  0  0  0  0  0  0  0
   61.5590   31.8020   48.8670 N   0  0  0  0  0  0  0  0  0  0  0  0
   62.2720   32.4830   49.2090 H   0  0  0  0  0  0  0  0  0  0  0  0
   60.5630   32.0310   47.9930 C   0  0  0  0  0  0  0  0  0  0  0  0
   59.8280   30.9110   47.7790 C   0  0  0  0  0  0  0  0  0  0  0  0
   58.7670   30.9030   46.9320 N   0  0  0  0  0  0  0  0  0  0  0  0
   58.4210   32.0620   46.2910 C   0  0  0  0  0  0  0  0  0  0  0  0
   57.3950   32.0390   45.4830 N   0  0  0  0  0  0  0  0  0  0  0  0
   57.3350   31.5240   44.1420 C   0  0  0  0  0  0  0  0  0  0  0  0
   57.6390   32.2910   43.1840 O   0  0  0  0  0  0  0  0  0  0  0  0
   57.0330   30.0630   43.8920 C   0  0  0  0  0  0  0  0  0  0  0  0
   57.9669   29.6933   44.3405 H   0  0  0  0  0  0  0  0  0  0  0  0
   56.2590   29.7220   42.6240 C   0  0  0  0  0  0  0  0  0  0  0  0
   56.0261   30.5102   41.8929 H   0  0  0  0  0  0  0  0  0  0  0  0
   56.3879   29.0000   41.8042 H   0  0  0  0  0  0  0  0  0  0  0  0
   55.5570   29.7040   43.9720 C   0  0  0  0  0  0  0  0  0  0  0  0
   54.8154   30.4789   44.2158 H   0  0  0  0  0  0  0  0  0  0  0  0
   54.9670   28.9627   44.5308 H   0  0  0  0  0  0  0  0  0  0  0  0
   59.2120   33.2350   46.5060 C   0  0  0  0  0  0  0  0  0  0  0  0
   58.9628   34.1692   45.9815 H   0  0  0  0  0  0  0  0  0  0  0  0
   60.2790   33.1960   47.3640 N   0  0  0  0  0  0  0  0  0  0  0  0
   60.8630   34.0480   47.5260 H   0  0  0  0  0  0  0  0  0  0  0  0
   58.1020   27.2980   47.3420 C   0  0  0  0  0  0  0  0  0  0  0  0
   57.6014   27.0692   48.2944 H   0  0  0  0  0  0  0  0  0  0  0  0
   57.3520   22.5660   45.5310 C   0  0  0  0  0  0  0  0  0  0  0  0
   57.7841   22.4209   46.5321 H   0  0  0  0  0  0  0  0  0  0  0  0
   57.6110   21.6380   44.5180 C   0  0  0  0  0  0  0  0  0  0  0  0
   58.2597   20.7729   44.7198 H   0  0  0  0  0  0  0  0  0  0  0  0
  1  2  1  0
  2  3  2  0
  3  4  1  0
  3  5  1  0
  5  6  1  0
  5  7  2  0
  7  8  1  0
  8  9  1  0
  9 10  2  0
  9 11  1  0
 11 12  2  0
 12 13  1  0
 12 14  1  0
 14 15  1  0
 14 16  2  0
 16 17  1  0
 16 18  1  0
 18 19  1  0
 19 20  1  0
 19 21  1  0
 19 22  1  0
 22 23  2  0
 23 24  1  0
 23 25  1  0
 25 26  1  0
 25 27  1  0
 27 28  2  0
 28 29  1  0
 29 30  1  0
 30 31  2  0
 31 32  1  0
 32 33  2  0
 32 34  1  0
 34 35  1  0
 34 36  1  0
 36 37  1  0
 36 38  1  0
 36 39  1  0
 39 40  1  0
 39 41  1  0
 30 42  1  0
 42 43  1  0
 42 44  2  0
 44 45  1  0
 18 46  2  0
 46 47  1  0
  7 48  1  0
 48 49  1  0
 48 50  2  0
 50 51  1  0
 50  2  1  0
 46 11  1  0
 28 22  1  0
 39 34  1  0
 44 27  1  0
M  CHG  3   8  -1  29  -1  44   1
M  END
>  <UniqueID>  (95) 
88

>  <SMILES>  (95) 
O=C([N-]c1ccccc1)c1cccc(Cc2c[nH]c3[nH+]c/c(=N\C(=O)C4CC4)[n-]c23)c1

>  <Energy>  (95) 
372.1775937127167

>  <Genealogy>  (95) 
O=C([N-]c1ccccc1)c1cccc(Cc2c[nH]c3[nH+]cc(=NC(=O)C4CC4)[n-]c23)c1 (protonated)
O=C([N-]c1ccccc1)c1cccc(Cc2c[nH]c3[nH+]c/c(=N\C(=O)C4CC4)[n-]c23)c1 (cis-trans isomerization)
O=C([N-]c1ccccc1)c1cccc(Cc2c[nH]c3[nH+]c/c(=N\C(=O)C4CC4)[n-]c23)c1 (3D coordinates assigned)
O=C([N-]c1ccccc1)c1cccc(Cc2c[nH]c3[nH+]c/c(=N\C(=O)C4CC4)[n-]c23)c1 (nonaromatic ring conformer: 372.1775937127167 kcal/mol)

>  <smiles>  (95) 
O=C(Nc1ccccc1)c1cccc(Cc2c[nH]c3ncc(=NC(=O)C4CC4)[nH]c23)c1

>  <score_type>  (95) 
oracle

>  <origin>  (95) 
adg

>  <m_score__min__energy>  (95) 
-10.93

>  <m_primary>  (95) 
energy

$$$$
95:0
     RDKit          3D

 46 48  0  0  0  0  0  0  0  0999 V2000
   58.7880   34.2310   51.8020 C   0  0  0  0  0  0  0  0  0  0  0  0
   59.0280   32.8840   51.2040 C   0  0  0  0  0  0  0  0  0  0  0  0
   60.2030   32.5260   50.9210 O   0  0  0  0  0  0  0  0  0  0  0  0
   57.9280   31.9940   50.9850 N   0  0  0  0  0  0  0  0  0  0  0  0
   58.1290   30.6330   50.4870 C   0  0  0  0  0  0  0  0  0  0  0  0
   58.9530   30.6330   49.1930 C   0  0  0  0  0  0  0  0  0  0  0  0
   58.8200   31.9070   48.4800 N   0  0  0  0  0  0  0  0  0  0  0  0
   58.5350   32.0140   47.0700 C   0  0  0  0  0  0  0  0  0  0  0  0
   57.7740   31.0190   46.4260 C   0  0  0  0  0  0  0  0  0  0  0  0
   57.5110   31.0860   45.0490 C   0  0  0  0  0  0  0  0  0  0  0  0
   56.7470   30.0930   44.4030 C   0  0  0  0  0  0  0  0  0  0  0  0
   56.2240   29.0160   45.1120 O   0  0  0  0  0  0  0  0  0  0  0  0
   56.5040   30.1820   43.0280 C   0  0  0  0  0  0  0  0  0  0  0  0
   57.0150   31.2500   42.2890 C   0  0  0  0  0  0  0  0  0  0  0  0
   57.7740   32.2400   42.9190 C   0  0  0  0  0  0  0  0  0  0  0  0
   58.0260   32.1660   44.2980 C   0  0  0  0  0  0  0  0  0  0  0  0
   58.7850   33.1570   44.9310 C   0  0  0  0  0  0  0  0  0  0  0  0
   59.0360   33.1010   46.3110 C   0  0  0  0  0  0  0  0  0  0  0  0
   59.9560   34.4130   47.0690 S   0  0  0  0  0  0  0  0  0  0  0  0
   60.1100   35.5570   46.1070 O   0  0  0  0  0  0  0  0  0  0  0  0
   59.2170   34.8970   48.2860 O   0  0  0  0  0  0  0  0  0  0  0  0
   61.5720   33.8830   47.5320 C   0  0  0  0  0  0  0  0  0  0  0  0
   62.5060   33.5030   46.5560 C   0  0  0  0  0  0  0  0  0  0  0  0
   63.7920   33.1050   46.9330 C   0  0  0  0  0  0  0  0  0  0  0  0
   64.1530   33.0880   48.2830 C   0  0  0  0  0  0  0  0  0  0  0  0
   63.2290   33.4710   49.2580 C   0  0  0  0  0  0  0  0  0  0  0  0
   61.9410   33.8700   48.8850 C   0  0  0  0  0  0  0  0  0  0  0  0
   58.8019   34.1529   52.8991 H   0  0  0  0  0  0  0  0  0  0  0  0
   59.5769   34.9238   51.4737 H   0  0  0  0  0  0  0  0  0  0  0  0
   57.8084   34.6087   51.4737 H   0  0  0  0  0  0  0  0  0  0  0  0
   56.9630   32.3320   51.2050 H   0  0  0  0  0  0  0  0  0  0  0  0
   58.6601   30.0460   51.2508 H   0  0  0  0  0  0  0  0  0  0  0  0
   57.1447   30.1907   50.2737 H   0  0  0  0  0  0  0  0  0  0  0  0
   60.0120   30.4700   49.4419 H   0  0  0  0  0  0  0  0  0  0  0  0
   58.5794   29.8288   48.5421 H   0  0  0  0  0  0  0  0  0  0  0  0
   58.9080   32.7770   49.0490 H   0  0  0  0  0  0  0  0  0  0  0  0
   57.3794   30.1757   47.0118 H   0  0  0  0  0  0  0  0  0  0  0  0
   55.9069   29.4060   42.5267 H   0  0  0  0  0  0  0  0  0  0  0  0
   56.8199   31.3127   41.2083 H   0  0  0  0  0  0  0  0  0  0  0  0
   58.1751   33.0797   42.3325 H   0  0  0  0  0  0  0  0  0  0  0  0
   59.1903   33.9910   44.3392 H   0  0  0  0  0  0  0  0  0  0  0  0
   62.2257   33.5183   45.4924 H   0  0  0  0  0  0  0  0  0  0  0  0
   64.5209   32.8047   46.1658 H   0  0  0  0  0  0  0  0  0  0  0  0
   65.1649   32.7730   48.5778 H   0  0  0  0  0  0  0  0  0  0  0  0
   63.5144   33.4589   50.3203 H   0  0  0  0  0  0  0  0  0  0  0  0
   61.2162   34.1742   49.6545 H   0  0  0  0  0  0  0  0  0  0  0  0
  1  2  1  0
  2  3  2  0
  2  4  1  0
  4  5  1  0
  5  6  1  0
  6  7  1  0
  7  8  1  0
  8  9  2  0
  9 10  1  0
 10 11  2  0
 11 12  1  0
 11 13  1  0
 13 14  2  0
 14 15  1  0
 15 16  2  0
 16 17  1  0
 17 18  2  0
 18 19  1  0
 19 20  2  0
 19 21  2  0
 19 22  1  0
 22 23  2  0
 23 24  1  0
 24 25  2  0
 25 26  1  0
 26 27  2  0
 18  8  1  0
 27 22  1  0
 16 10  1  0
  1 28  1  0
  1 29  1  0
  1 30  1  0
  4 31  1  0
  5 32  1  0
  5 33  1  0
  6 34  1  0
  6 35  1  0
  7 36  1  0
  9 37  1  0
 13 38  1  0
 14 39  1  0
 15 40  1  0
 17 41  1  0
 23 42  1  0
 24 43  1  0
 25 44  1  0
 26 45  1  0
 27 46  1  0
M  CHG  1  12  -1
M  END
>  <UniqueID>  (96) 
89

>  <SMILES>  (96) 
CC(=O)NCCNc1cc2c([O-])cccc2cc1S(=O)(=O)c1ccccc1

>  <Energy>  (96) 
50.29359916221429

>  <Genealogy>  (96) 
CC(=O)NCCNc1cc2c([O-])cccc2cc1S(=O)(=O)c1ccccc1 (protonated)
CC(=O)NCCNc1cc2c([O-])cccc2cc1S(=O)(=O)c1ccccc1 (3D coordinates assigned)
CC(=O)NCCNc1cc2c([O-])cccc2cc1S(=O)(=O)c1ccccc1 (optimized conformer: 50.29359916221429 kcal/mol)

>  <smiles>  (96) 
CC(=O)NCCNc1cc2c(O)cccc2cc1S(=O)(=O)c1ccccc1

>  <score_type>  (96) 
oracle

>  <origin>  (96) 
adg

>  <m_score__min__energy>  (96) 
-11.08

>  <m_primary>  (96) 
energy

$$$$
96:0
     RDKit          3D

 48 51  0  0  1  0  0  0  0  0999 V2000
   58.2980   32.2180   41.1540 O   0  0  0  0  0  0  0  0  0  0  0  0
   57.9130   31.9750   42.3400 C   0  0  0  0  0  0  0  0  0  0  0  0
   57.3050   30.8770   42.8210 N   0  0  0  0  0  0  0  0  0  0  0  0
   57.0620   31.0210   44.1490 C   0  0  0  0  0  0  0  0  0  0  0  0
   56.4520   30.1060   44.9980 O   0  0  0  0  0  0  0  0  0  0  0  0
   57.5620   32.2890   44.4680 C   0  0  0  0  0  0  0  0  0  0  0  0
   57.4780   32.8410   45.7920 C   0  0  0  0  0  0  0  0  0  0  0  0
   58.4060   32.8940   46.6930 C   0  0  0  0  0  0  0  0  0  0  0  0
   58.7610   34.0120   47.4450 C   0  0  0  0  0  0  0  0  0  0  0  0
   59.7580   33.6150   48.2440 N   0  0  0  0  0  0  0  0  0  0  0  0
   60.0310   32.3350   48.0290 N   0  0  0  0  0  0  0  0  0  0  0  0
   60.2570   29.7700   47.2930 C   0  0  0  0  0  0  0  0  0  0  0  0
   60.3890   28.5290   46.9570 N   0  0  0  0  0  0  0  0  0  0  0  0
   62.9780   32.6880   49.2630 C   0  0  0  0  0  0  0  0  0  0  0  0
   63.5390   32.3700   47.8870 C   0  0  0  0  0  0  0  0  0  0  0  0
   63.0610   33.8140   46.6610 Br  0  0  0  0  0  0  0  0  0  0  0  0
   61.0560   30.2810   48.2410 N   0  0  0  0  0  0  0  0  0  0  0  0
   60.9490   31.5690   48.6160 C   0  0  0  0  0  0  0  0  0  0  0  0
   61.7320   32.0100   49.5240 N   0  0  0  0  0  0  0  0  0  0  0  0
   59.2740   27.6870   46.6850 C   0  0  0  0  0  0  0  0  0  0  0  0
   58.5200   27.9000   45.5460 C   0  0  0  0  0  0  0  0  0  0  0  0
   57.4520   27.0550   45.3330 C   0  0  0  0  0  0  0  0  0  0  0  0
   57.1220   26.0270   46.2050 C   0  0  0  0  0  0  0  0  0  0  0  0
   55.7420   24.9900   45.8630 S   0  0  0  0  0  0  0  0  0  0  0  0
   55.5160   24.0280   46.9660 O   0  0  0  0  0  0  0  0  0  0  0  0
   55.9560   24.2320   44.5870 O   0  0  0  0  0  0  0  0  0  0  0  0
   54.3890   25.9790   45.6480 O   0  0  0  0  0  0  0  0  0  0  0  0
   57.8720   25.8140   47.3400 C   0  0  0  0  0  0  0  0  0  0  0  0
   58.9400   26.6630   47.5500 C   0  0  0  0  0  0  0  0  0  0  0  0
   59.2880   30.5530   46.6620 C   0  0  0  0  0  0  0  0  0  0  0  0
   59.2110   31.8600   47.0740 C   0  0  0  0  0  0  0  0  0  0  0  0
   58.0790   32.8490   43.3340 N   0  0  0  0  0  0  0  0  0  0  0  0
   57.0480   30.0260   42.2660 H   0  0  0  0  0  0  0  0  0  0  0  0
   56.6450   30.1330   45.9710 H   0  0  0  0  0  0  0  0  0  0  0  0
   56.5059   33.2713   46.0746 H   0  0  0  0  0  0  0  0  0  0  0  0
   58.3133   35.0154   47.3925 H   0  0  0  0  0  0  0  0  0  0  0  0
   62.8102   33.7729   49.3330 H   0  0  0  0  0  0  0  0  0  0  0  0
   63.7085   32.3416   50.0089 H   0  0  0  0  0  0  0  0  0  0  0  0
   64.6339   32.2824   47.9457 H   0  0  0  0  0  0  0  0  0  0  0  0
   63.1214   31.4191   47.5244 H   0  0  0  0  0  0  0  0  0  0  0  0
   61.7580   29.6420   48.6700 H   0  0  0  0  0  0  0  0  0  0  0  0
   58.7618   28.7085   44.8405 H   0  0  0  0  0  0  0  0  0  0  0  0
   56.8353   27.2016   44.4340 H   0  0  0  0  0  0  0  0  0  0  0  0
   53.7350   25.7980   46.3730 H   0  0  0  0  0  0  0  0  0  0  0  0
   57.6314   25.0055   48.0460 H   0  0  0  0  0  0  0  0  0  0  0  0
   59.5552   26.5170   48.4501 H   0  0  0  0  0  0  0  0  0  0  0  0
   58.6267   30.1470   45.8823 H   0  0  0  0  0  0  0  0  0  0  0  0
   58.5270   33.8110   43.2780 H   0  0  0  0  0  0  0  0  0  0  0  0
  1  2  2  0
  2  3  1  0
  3  4  1  0
  4  5  1  0
  4  6  2  0
  6  7  1  0
  7  8  2  0
  8  9  1  0
  9 10  2  0
 10 11  1  0
 11 12  1  0
 12 13  2  0
 13 14  1  0
 14 15  1  0
 15 16  1  0
 12 17  1  0
 17 18  1  0
 18 19  2  0
 19 20  1  0
 20 21  2  0
 21 22  1  0
 22 23  2  0
 23 24  1  0
 24 25  2  0
 24 26  2  0
 24 27  1  0
 23 28  1  0
 28 29  2  0
 18 30  1  0
 30 31  2  0
  6 32  1  0
 32  2  1  0
 31  8  1  0
 31 11  1  0
 29 20  1  0
  3 33  1  0
  5 34  1  0
  7 35  1  0
  9 36  1  0
 14 37  1  0
 14 38  1  0
 15 39  1  0
 15 40  1  0
 17 41  1  0
 21 42  1  0
 22 43  1  0
 27 44  1  0
 28 45  1  0
 29 46  1  0
 30 47  1  0
 32 48  1  0
M  END
>  <smiles>  (97) 
O=c1[nH]c(O)c(C=c2cnn3c(=NCCBr)[nH]c(=Nc4ccc(S(=O)(=O)O)cc4)cc23)[nH]1

>  <score_type>  (97) 
oracle

>  <origin>  (97) 
adg

>  <m_score__min__energy>  (97) 
-9.8200000000000003

>  <m_primary>  (97) 
energy

$$$$
