0:0
     RDKit          3D

 58 61  0  0  0  0  0  0  0  0999 V2000
   64.1210   33.0890   47.7990 C   0  0  0  0  0  0  0  0  0  0  0  0
   62.9540   32.7460   48.6260 N   0  0  0  0  0  0  0  0  0  0  0  0
   62.2410   33.9760   49.0420 C   0  0  0  0  0  0  0  0  0  0  0  0
   60.8060   33.6640   49.4900 C   0  0  0  0  0  0  0  0  0  0  0  0
   60.0160   33.0200   48.4110 N   0  0  0  0  0  0  0  0  0  0  0  0
   58.9000   33.8360   47.8870 C   0  0  0  0  0  0  0  0  0  0  0  0
   58.5190   33.5150   46.4540 C   0  0  0  0  0  0  0  0  0  0  0  0
   59.1730   34.1480   45.3830 C   0  0  0  0  0  0  0  0  0  0  0  0
   58.8550   33.8140   44.0640 C   0  0  0  0  0  0  0  0  0  0  0  0
   57.8970   32.8330   43.7990 C   0  0  0  0  0  0  0  0  0  0  0  0
   57.2410   32.1860   44.8510 C   0  0  0  0  0  0  0  0  0  0  0  0
   56.3140   31.1320   44.5550 N   0  0  0  0  0  0  0  0  0  0  0  0
   56.4970   29.7680   44.9440 C   0  0  0  0  0  0  0  0  0  0  0  0
   55.5260   28.9720   44.8580 O   0  0  0  0  0  0  0  0  0  0  0  0
   57.7920   29.2800   45.4550 C   0  0  0  0  0  0  0  0  0  0  0  0
   58.6990   28.6230   44.6090 C   0  0  0  0  0  0  0  0  0  0  0  0
   59.9410   28.2290   45.1090 C   0  0  0  0  0  0  0  0  0  0  0  0
   60.2650   28.4760   46.4440 C   0  0  0  0  0  0  0  0  0  0  0  0
   59.3330   29.1200   47.2750 C   0  0  0  0  0  0  0  0  0  0  0  0
   59.6250   29.3620   48.7040 C   0  0  0  0  0  0  0  0  0  0  0  0
   60.3160   28.5310   49.3530 O   0  0  0  0  0  0  0  0  0  0  0  0
   59.1390   30.5540   49.3480 N   0  0  0  0  0  0  0  0  0  0  0  0
   59.0850   30.7310   50.7770 C   0  0  0  0  0  0  0  0  0  0  0  0
   57.8450   30.9520   51.3980 C   0  0  0  0  0  0  0  0  0  0  0  0
   57.7620   31.0920   52.7880 C   0  0  0  0  0  0  0  0  0  0  0  0
   58.9150   30.9990   53.5720 C   0  0  0  0  0  0  0  0  0  0  0  0
   60.1510   30.7530   52.9670 C   0  0  0  0  0  0  0  0  0  0  0  0
   60.2380   30.6090   51.5750 C   0  0  0  0  0  0  0  0  0  0  0  0
   58.1360   29.5120   46.7530 N   0  0  0  0  0  0  0  0  0  0  0  0
   57.5620   32.5250   46.1770 C   0  0  0  0  0  0  0  0  0  0  0  0
   60.8240   32.3750   47.3530 C   0  0  0  0  0  0  0  0  0  0  0  0
   62.0880   31.7440   47.9500 C   0  0  0  0  0  0  0  0  0  0  0  0
   64.9714   33.3389   48.4505 H   0  0  0  0  0  0  0  0  0  0  0  0
   64.3855   32.2306   47.1640 H   0  0  0  0  0  0  0  0  0  0  0  0
   63.8789   33.9540   47.1640 H   0  0  0  0  0  0  0  0  0  0  0  0
   62.7846   34.4400   49.8782 H   0  0  0  0  0  0  0  0  0  0  0  0
   62.1953   34.6591   48.1810 H   0  0  0  0  0  0  0  0  0  0  0  0
   60.8433   32.9867   50.3559 H   0  0  0  0  0  0  0  0  0  0  0  0
   60.3163   34.6141   49.7499 H   0  0  0  0  0  0  0  0  0  0  0  0
   58.0196   33.6678   48.5247 H   0  0  0  0  0  0  0  0  0  0  0  0
   59.2387   34.8825   47.8989 H   0  0  0  0  0  0  0  0  0  0  0  0
   59.9396   34.9107   45.5843 H   0  0  0  0  0  0  0  0  0  0  0  0
   59.3608   34.3254   43.2317 H   0  0  0  0  0  0  0  0  0  0  0  0
   57.6575   32.5682   42.7586 H   0  0  0  0  0  0  0  0  0  0  0  0
   58.4332   28.4204   43.5610 H   0  0  0  0  0  0  0  0  0  0  0  0
   60.6640   27.7242   44.4515 H   0  0  0  0  0  0  0  0  0  0  0  0
   61.2431   28.1686   46.8426 H   0  0  0  0  0  0  0  0  0  0  0  0
   58.8690   31.3670   48.7510 H   0  0  0  0  0  0  0  0  0  0  0  0
   56.9322   31.0155   50.7874 H   0  0  0  0  0  0  0  0  0  0  0  0
   56.7875   31.2755   53.2642 H   0  0  0  0  0  0  0  0  0  0  0  0
   58.8501   31.1192   54.6635 H   0  0  0  0  0  0  0  0  0  0  0  0
   61.0577   30.6722   53.5846 H   0  0  0  0  0  0  0  0  0  0  0  0
   61.2104   30.4000   51.1051 H   0  0  0  0  0  0  0  0  0  0  0  0
   57.0578   32.0089   47.0073 H   0  0  0  0  0  0  0  0  0  0  0  0
   60.2240   31.5919   46.8664 H   0  0  0  0  0  0  0  0  0  0  0  0
   61.1209   33.1378   46.6182 H   0  0  0  0  0  0  0  0  0  0  0  0
   61.7896   30.9815   48.6845 H   0  0  0  0  0  0  0  0  0  0  0  0
   62.6656   31.3025   47.1245 H   0  0  0  0  0  0  0  0  0  0  0  0
  1  2  1  0
  2  3  1  0
  3  4  1  0
  4  5  1  0
  5  6  1  0
  6  7  1  0
  7  8  2  0
  8  9  1  0
  9 10  2  0
 10 11  1  0
 11 12  1  0
 12 13  1  0
 13 14  2  0
 13 15  1  0
 15 16  2  0
 16 17  1  0
 17 18  2  0
 18 19  1  0
 19 20  1  0
 20 21  2  0
 20 22  1  0
 22 23  1  0
 23 24  2  0
 24 25  1  0
 25 26  2  0
 26 27  1  0
 27 28  2  0
 19 29  2  0
 11 30  2  0
  5 31  1  0
 31 32  1  0
 32  2  1  0
 30  7  1  0
 29 15  1  0
 28 23  1  0
  1 33  1  0
  1 34  1  0
  1 35  1  0
  3 36  1  0
  3 37  1  0
  4 38  1  0
  4 39  1  0
  6 40  1  0
  6 41  1  0
  8 42  1  0
  9 43  1  0
 10 44  1  0
 16 45  1  0
 17 46  1  0
 18 47  1  0
 22 48  1  0
 24 49  1  0
 25 50  1  0
 26 51  1  0
 27 52  1  0
 28 53  1  0
 30 54  1  0
 31 55  1  0
 31 56  1  0
 32 57  1  0
 32 58  1  0
M  CHG  1  12  -1
M  END
>  <UniqueID>  (1) 
1

>  <SMILES>  (1) 
CN1CCN(Cc2cccc([N-]C(=O)c3cccc(C(=O)Nc4ccccc4)n3)c2)CC1

>  <Energy>  (1) 
84.21949835327828

>  <Genealogy>  (1) 
CN1CCN(Cc2cccc([N-]C(=O)c3cccc(C(=O)Nc4ccccc4)n3)c2)CC1 (protonated)
CN1CCN(Cc2cccc([N-]C(=O)c3cccc(C(=O)Nc4ccccc4)n3)c2)CC1 (3D coordinates assigned)
CN1CCN(Cc2cccc([N-]C(=O)c3cccc(C(=O)Nc4ccccc4)n3)c2)CC1 (nonaromatic ring conformer: 84.21949835327828 kcal/mol)

>  <smiles>  (1) 
CN1CCN(Cc2cccc(NC(=O)c3cccc(C(=O)Nc4ccccc4)n3)c2)CC1

>  <score_type>  (1) 
oracle

>  <origin>  (1) 
adg

>  <m_score__min__energy>  (1) 
-11.81

>  <m_primary>  (1) 
energy

$$$$
1:0
     RDKit          3D

 50 53  0  0  0  0  0  0  0  0999 V2000
   57.7810   26.5870   43.7490 C   0  0  0  0  0  0  0  0  0  0  0  0
   57.7750   27.8220   44.2610 C   0  0  0  0  0  0  0  0  0  0  0  0
   57.6900   28.9140   43.4720 N   0  0  0  0  0  0  0  0  0  0  0  0
   57.9130   29.9890   44.2470 C   0  0  0  0  0  0  0  0  0  0  0  0
   57.9230   31.3930   43.7270 C   0  0  0  0  0  0  0  0  0  0  0  0
   58.1220   29.5990   45.5610 C   0  0  0  0  0  0  0  0  0  0  0  0
   58.3860   30.5040   46.7010 C   0  0  0  0  0  0  0  0  0  0  0  0
   58.9210   30.0010   47.8950 C   0  0  0  0  0  0  0  0  0  0  0  0
   59.1850   30.8590   48.9680 C   0  0  0  0  0  0  0  0  0  0  0  0
   58.9300   32.2370   48.8560 C   0  0  0  0  0  0  0  0  0  0  0  0
   59.2030   33.1420   49.9950 C   0  0  0  0  0  0  0  0  0  0  0  0
   59.8220   34.2220   49.7920 O   0  0  0  0  0  0  0  0  0  0  0  0
   58.7970   32.8030   51.3340 N   0  0  0  0  0  0  0  0  0  0  0  0
   57.4190   32.3710   51.6060 C   0  0  0  0  0  0  0  0  0  0  0  0
   57.3900   31.1940   52.5990 C   0  0  0  0  0  0  0  0  0  0  0  0
   58.5580   31.2020   53.6110 C   0  0  0  0  0  0  0  0  0  0  0  0
   59.5530   30.3450   53.1720 F   0  0  0  0  0  0  0  0  0  0  0  0
   58.1050   30.7460   54.8380 F   0  0  0  0  0  0  0  0  0  0  0  0
   59.1480   32.6070   53.7880 C   0  0  0  0  0  0  0  0  0  0  0  0
   59.6920   33.1340   52.4510 C   0  0  0  0  0  0  0  0  0  0  0  0
   58.3850   32.7350   47.6600 C   0  0  0  0  0  0  0  0  0  0  0  0
   58.1210   31.8760   46.5900 C   0  0  0  0  0  0  0  0  0  0  0  0
   57.9940   28.2090   45.5940 C   0  0  0  0  0  0  0  0  0  0  0  0
   58.0300   27.4640   46.7210 C   0  0  0  0  0  0  0  0  0  0  0  0
   57.3340   26.1830   46.9230 C   0  0  0  0  0  0  0  0  0  0  0  0
   57.9210   25.0500   47.3490 N   0  0  0  0  0  0  0  0  0  0  0  0
   56.9380   24.1300   47.2370 C   0  0  0  0  0  0  0  0  0  0  0  0
   57.0980   22.9250   47.5620 O   0  0  0  0  0  0  0  0  0  0  0  0
   55.7750   24.6010   46.7400 N   0  0  0  0  0  0  0  0  0  0  0  0
   56.0490   25.8980   46.5320 C   0  0  0  0  0  0  0  0  0  0  0  0
   55.1440   26.8030   45.9910 O   0  0  0  0  0  0  0  0  0  0  0  0
   57.8513   25.7153   44.4163 H   0  0  0  0  0  0  0  0  0  0  0  0
   57.7157   26.4426   42.6605 H   0  0  0  0  0  0  0  0  0  0  0  0
   57.5430   28.9250   42.4370 H   0  0  0  0  0  0  0  0  0  0  0  0
   57.9280   32.0970   44.5722 H   0  0  0  0  0  0  0  0  0  0  0  0
   58.8223   31.5503   43.1134 H   0  0  0  0  0  0  0  0  0  0  0  0
   57.0260   31.5631   43.1134 H   0  0  0  0  0  0  0  0  0  0  0  0
   59.1344   28.9260   47.9888 H   0  0  0  0  0  0  0  0  0  0  0  0
   59.5945   30.4531   49.9048 H   0  0  0  0  0  0  0  0  0  0  0  0
   56.8562   33.2143   52.0327 H   0  0  0  0  0  0  0  0  0  0  0  0
   56.9646   32.0402   50.6604 H   0  0  0  0  0  0  0  0  0  0  0  0
   56.4448   31.2370   53.1601 H   0  0  0  0  0  0  0  0  0  0  0  0
   57.4865   30.2725   52.0061 H   0  0  0  0  0  0  0  0  0  0  0  0
   58.3631   33.2860   54.1525 H   0  0  0  0  0  0  0  0  0  0  0  0
   59.9733   32.5577   54.5135 H   0  0  0  0  0  0  0  0  0  0  0  0
   59.7950   34.2274   52.5138 H   0  0  0  0  0  0  0  0  0  0  0  0
   60.6656   32.6574   52.2642 H   0  0  0  0  0  0  0  0  0  0  0  0
   58.1647   33.8086   47.5656 H   0  0  0  0  0  0  0  0  0  0  0  0
   57.7030   32.2786   45.6556 H   0  0  0  0  0  0  0  0  0  0  0  0
   58.6307   27.8478   47.5588 H   0  0  0  0  0  0  0  0  0  0  0  0
  1  2  2  0
  2  3  1  0
  3  4  1  0
  4  5  1  0
  4  6  2  0
  6  7  1  0
  7  8  2  0
  8  9  1  0
  9 10  2  0
 10 11  1  0
 11 12  2  0
 11 13  1  0
 13 14  1  0
 14 15  1  0
 15 16  1  0
 16 17  1  0
 16 18  1  0
 16 19  1  0
 19 20  1  0
 10 21  1  0
 21 22  2  0
  6 23  1  0
 23 24  2  3
 24 25  1  0
 25 26  1  0
 26 27  1  0
 27 28  2  0
 27 29  1  0
 29 30  1  0
 30 31  1  0
 23  2  1  0
 30 25  2  0
 22  7  1  0
 20 13  1  0
  1 32  1  0
  1 33  1  0
  3 34  1  0
  5 35  1  0
  5 36  1  0
  5 37  1  0
  8 38  1  0
  9 39  1  0
 14 40  1  0
 14 41  1  0
 15 42  1  0
 15 43  1  0
 19 44  1  0
 19 45  1  0
 20 46  1  0
 20 47  1  0
 21 48  1  0
 22 49  1  0
 24 50  1  0
M  CHG  3  26  -1  29  -1  31  -1
M  END
>  <UniqueID>  (2) 
2

>  <SMILES>  (2) 
C=c1[nH]c(C)c(-c2ccc(C(=O)N3CCC(F)(F)CC3)cc2)c1=Cc1[n-]c(=O)[n-]c1[O-]

>  <Energy>  (2) 
132.40973051103836

>  <Genealogy>  (2) 
C=c1[nH]c(C)c(-c2ccc(C(=O)N3CCC(F)(F)CC3)cc2)c1=Cc1[n-]c(=O)[n-]c1[O-] (protonated)
C=c1[nH]c(C)c(-c2ccc(C(=O)N3CCC(F)(F)CC3)cc2)c1=Cc1[n-]c(=O)[n-]c1[O-] (3D coordinates assigned)
C=c1[nH]c(C)c(-c2ccc(C(=O)N3CCC(F)(F)CC3)cc2)c1=Cc1[n-]c(=O)[n-]c1[O-] (nonaromatic ring conformer: 132.40973051103836 kcal/mol)

>  <smiles>  (2) 
C=c1[nH]c(C)c(-c2ccc(C(=O)N3CCC(F)(F)CC3)cc2)c1=Cc1[nH]c(=O)[nH]c1O

>  <score_type>  (2) 
oracle

>  <origin>  (2) 
adg

>  <m_score__min__energy>  (2) 
-17.600000000000001

>  <m_primary>  (2) 
energy

$$$$
2:0
     RDKit          3D

 46 48  0  0  0  0  0  0  0  0999 V2000
   55.5530   26.7930   46.0560 N   0  0  0  0  0  0  0  0  0  0  0  0
   56.9670   26.5940   46.1490 C   0  0  0  0  0  0  0  0  0  0  0  0
   57.5610   25.4820   45.5420 C   0  0  0  0  0  0  0  0  0  0  0  0
   58.9360   25.2780   45.6480 C   0  0  0  0  0  0  0  0  0  0  0  0
   59.7300   26.1860   46.3530 C   0  0  0  0  0  0  0  0  0  0  0  0
   59.1610   27.3320   46.9520 C   0  0  0  0  0  0  0  0  0  0  0  0
   59.9860   28.3200   47.7940 C   0  0  0  0  0  0  0  0  0  0  0  0
   60.8650   27.5610   48.5980 O   0  0  0  0  0  0  0  0  0  0  0  0
   60.8160   29.2210   46.8450 C   0  0  0  0  0  0  0  0  0  0  0  0
   59.9130   30.1040   45.9770 C   0  0  0  0  0  0  0  0  0  0  0  0
   58.8270   30.7210   46.7580 N   0  0  0  0  0  0  0  0  0  0  0  0
   57.9540   31.6710   46.1100 C   0  0  0  0  0  0  0  0  0  0  0  0
   57.3720   32.5600   46.7890 O   0  0  0  0  0  0  0  0  0  0  0  0
   57.7270   31.6340   44.6490 C   0  0  0  0  0  0  0  0  0  0  0  0
   58.2320   32.6810   43.8590 C   0  0  0  0  0  0  0  0  0  0  0  0
   58.0590   32.6720   42.4740 C   0  0  0  0  0  0  0  0  0  0  0  0
   57.3920   31.6130   41.8600 C   0  0  0  0  0  0  0  0  0  0  0  0
   56.8880   30.5620   42.6290 C   0  0  0  0  0  0  0  0  0  0  0  0
   57.0370   30.5640   44.0270 C   0  0  0  0  0  0  0  0  0  0  0  0
   56.4750   29.4090   44.8220 C   0  0  0  0  0  0  0  0  0  0  0  0
   55.0790   29.3720   44.7000 O   0  0  0  0  0  0  0  0  0  0  0  0
   58.8300   30.6300   48.2280 C   0  0  0  0  0  0  0  0  0  0  0  0
   59.1040   29.1990   48.7390 C   0  0  0  0  0  0  0  0  0  0  0  0
   57.7630   27.5050   46.8570 C   0  0  0  0  0  0  0  0  0  0  0  0
   55.1490   27.4170   45.3230 H   0  0  0  0  0  0  0  0  0  0  0  0
   54.9020   26.3180   46.7200 H   0  0  0  0  0  0  0  0  0  0  0  0
   56.9418   24.7673   44.9800 H   0  0  0  0  0  0  0  0  0  0  0  0
   59.3976   24.3988   45.1748 H   0  0  0  0  0  0  0  0  0  0  0  0
   60.8115   26.0064   46.4428 H   0  0  0  0  0  0  0  0  0  0  0  0
   61.5090   27.0880   48.0060 H   0  0  0  0  0  0  0  0  0  0  0  0
   61.4733   29.8651   47.4476 H   0  0  0  0  0  0  0  0  0  0  0  0
   61.4057   28.5720   46.1809 H   0  0  0  0  0  0  0  0  0  0  0  0
   60.5230   30.9008   45.5264 H   0  0  0  0  0  0  0  0  0  0  0  0
   59.4562   29.4670   45.2053 H   0  0  0  0  0  0  0  0  0  0  0  0
   58.7681   33.5146   44.3362 H   0  0  0  0  0  0  0  0  0  0  0  0
   58.4495   33.5016   41.8662 H   0  0  0  0  0  0  0  0  0  0  0  0
   57.2625   31.6053   40.7677 H   0  0  0  0  0  0  0  0  0  0  0  0
   56.3701   29.7256   42.1369 H   0  0  0  0  0  0  0  0  0  0  0  0
   56.8981   28.4670   44.4431 H   0  0  0  0  0  0  0  0  0  0  0  0
   56.7396   29.5398   45.8816 H   0  0  0  0  0  0  0  0  0  0  0  0
   54.7770   30.3130   44.6070 H   0  0  0  0  0  0  0  0  0  0  0  0
   59.6108   31.2985   48.6198 H   0  0  0  0  0  0  0  0  0  0  0  0
   57.8291   30.9209   48.5796 H   0  0  0  0  0  0  0  0  0  0  0  0
   59.6148   29.2750   49.7102 H   0  0  0  0  0  0  0  0  0  0  0  0
   58.1253   28.7005   48.7994 H   0  0  0  0  0  0  0  0  0  0  0  0
   57.2905   28.3692   47.3468 H   0  0  0  0  0  0  0  0  0  0  0  0
  1  2  1  0
  2  3  2  0
  3  4  1  0
  4  5  2  0
  5  6  1  0
  6  7  1  0
  7  8  1  0
  7  9  1  0
  9 10  1  0
 10 11  1  0
 11 12  1  0
 12 13  2  0
 12 14  1  0
 14 15  2  0
 15 16  1  0
 16 17  2  0
 17 18  1  0
 18 19  2  0
 19 20  1  0
 20 21  1  0
 11 22  1  0
 22 23  1  0
  6 24  2  0
 24  2  1  0
 23  7  1  0
 19 14  1  0
  1 25  1  0
  1 26  1  0
  3 27  1  0
  4 28  1  0
  5 29  1  0
  8 30  1  0
  9 31  1  0
  9 32  1  0
 10 33  1  0
 10 34  1  0
 15 35  1  0
 16 36  1  0
 17 37  1  0
 18 38  1  0
 20 39  1  0
 20 40  1  0
 21 41  1  0
 22 42  1  0
 22 43  1  0
 23 44  1  0
 23 45  1  0
 24 46  1  0
M  END
>  <UniqueID>  (3) 
3

>  <SMILES>  (3) 
Nc1cccc(C2(O)CCN(C(=O)c3ccccc3CO)CC2)c1

>  <Energy>  (3) 
62.45240624380609

>  <Genealogy>  (3) 
Nc1cccc(C2(O)CCN(C(=O)c3ccccc3CO)CC2)c1 (3D coordinates assigned)
Nc1cccc(C2(O)CCN(C(=O)c3ccccc3CO)CC2)c1 (nonaromatic ring conformer: 62.45240624380609 kcal/mol)

>  <smiles>  (3) 
Nc1cccc(C2(O)CCN(C(=O)c3ccccc3CO)CC2)c1

>  <score_type>  (3) 
oracle

>  <origin>  (3) 
adg

>  <m_score__min__energy>  (3) 
-9.1500000000000004

>  <m_primary>  (3) 
energy

$$$$
3:0
     RDKit          3D

 27 28  0  0  0  0  0  0  0  0999 V2000
   56.1460   25.2020   46.2950 C   0  0  0  0  0  0  0  0  0  0  0  0
   56.6650   26.3650   45.9180 C   0  0  0  0  0  0  0  0  0  0  0  0
   55.9180   27.4500   45.6210 N   0  0  0  0  0  0  0  0  0  0  0  0
   56.6910   28.5100   45.2660 C   0  0  0  0  0  0  0  0  0  0  0  0
   56.1730   29.6260   44.9960 O   0  0  0  0  0  0  0  0  0  0  0  0
   58.0740   28.2710   45.2670 C   0  0  0  0  0  0  0  0  0  0  0  0
   59.0820   29.1120   44.9830 C   0  0  0  0  0  0  0  0  0  0  0  0
   59.2520   30.4540   45.5710 C   0  0  0  0  0  0  0  0  0  0  0  0
   58.4010   31.5100   45.2140 C   0  0  0  0  0  0  0  0  0  0  0  0
   58.6030   32.7880   45.7400 C   0  0  0  0  0  0  0  0  0  0  0  0
   57.4080   34.1990   45.2460 Br  0  0  0  0  0  0  0  0  0  0  0  0
   59.6720   33.0300   46.6140 C   0  0  0  0  0  0  0  0  0  0  0  0
   59.8510   34.3140   47.1310 O   0  0  0  0  0  0  0  0  0  0  0  0
   60.5520   31.9860   46.9570 C   0  0  0  0  0  0  0  0  0  0  0  0
   61.6210   32.2600   47.8250 O   0  0  0  0  0  0  0  0  0  0  0  0
   62.9030   32.7200   47.4100 C   0  0  0  0  0  0  0  0  0  0  0  0
   60.3390   30.7010   46.4190 C   0  0  0  0  0  0  0  0  0  0  0  0
   58.3090   26.6770   45.7590 S   0  0  0  0  0  0  0  0  0  0  0  0
   56.8070   24.3531   46.5240 H   0  0  0  0  0  0  0  0  0  0  0  0
   55.0551   25.0877   46.3783 H   0  0  0  0  0  0  0  0  0  0  0  0
   59.8372   28.7748   44.2577 H   0  0  0  0  0  0  0  0  0  0  0  0
   57.5700   31.3308   44.5160 H   0  0  0  0  0  0  0  0  0  0  0  0
   60.5860   34.5330   47.7950 H   0  0  0  0  0  0  0  0  0  0  0  0
   63.5176   32.9405   48.2952 H   0  0  0  0  0  0  0  0  0  0  0  0
   63.3942   31.9420   46.8071 H   0  0  0  0  0  0  0  0  0  0  0  0
   62.7875   33.6328   46.8071 H   0  0  0  0  0  0  0  0  0  0  0  0
   61.0329   29.8844   46.6674 H   0  0  0  0  0  0  0  0  0  0  0  0
  1  2  2  0
  2  3  1  0
  3  4  1  0
  4  5  2  0
  4  6  1  0
  6  7  2  3
  7  8  1  0
  8  9  2  0
  9 10  1  0
 10 11  1  0
 10 12  2  0
 12 13  1  0
 12 14  1  0
 14 15  1  0
 15 16  1  0
 14 17  2  0
  6 18  1  0
 18  2  1  0
 17  8  1  0
  1 19  1  0
  1 20  1  0
  7 21  1  0
  9 22  1  0
 13 23  1  0
 16 24  1  0
 16 25  1  0
 16 26  1  0
 17 27  1  0
M  CHG  1   3  -1
M  END
>  <UniqueID>  (4) 
4

>  <SMILES>  (4) 
C=c1[n-]c(=O)c(=Cc2cc(Br)c(O)c(OC)c2)s1

>  <Energy>  (4) 
65.34316686794475

>  <Genealogy>  (4) 
C=c1[n-]c(=O)c(=Cc2cc(Br)c(O)c(OC)c2)s1 (protonated)
C=c1[n-]c(=O)c(=Cc2cc(Br)c(O)c(OC)c2)s1 (3D coordinates assigned)
C=c1[n-]c(=O)c(=Cc2cc(Br)c(O)c(OC)c2)s1 (optimized conformer: 65.34316686794475 kcal/mol)

>  <smiles>  (4) 
C=c1[nH]c(=O)c(=Cc2cc(Br)c(O)c(OC)c2)s1

>  <score_type>  (4) 
oracle

>  <origin>  (4) 
adg

>  <m_score__min__energy>  (4) 
-8.4399999999999995

>  <m_primary>  (4) 
energy

$$$$
4:0
     RDKit          3D

 38 41  0  0  0  0  0  0  0  0999 V2000
   59.6270   35.3240   45.5540 C   0  0  0  0  0  0  0  0  0  0  0  0
   59.2800   34.0520   45.7320 C   0  0  0  0  0  0  0  0  0  0  0  0
   59.9210   33.1660   46.6500 N   0  0  0  0  0  0  0  0  0  0  0  0
   59.2330   31.9220   46.5120 C   0  0  0  0  0  0  0  0  0  0  0  0
   58.2190   31.9770   45.5810 C   0  0  0  0  0  0  0  0  0  0  0  0
   57.4220   30.8590   45.3230 C   0  0  0  0  0  0  0  0  0  0  0  0
   56.3680   30.8650   44.4030 C   0  0  0  0  0  0  0  0  0  0  0  0
   55.6210   29.7020   44.2230 C   0  0  0  0  0  0  0  0  0  0  0  0
   54.6660   29.6810   43.4010 O   0  0  0  0  0  0  0  0  0  0  0  0
   55.9240   28.5890   44.9360 N   0  0  0  0  0  0  0  0  0  0  0  0
   56.9290   28.5730   45.8130 N   0  0  0  0  0  0  0  0  0  0  0  0
   57.7050   29.6700   46.0430 C   0  0  0  0  0  0  0  0  0  0  0  0
   58.7400   29.6230   46.9600 N   0  0  0  0  0  0  0  0  0  0  0  0
   59.0030   28.3830   47.7160 C   0  0  0  0  0  0  0  0  0  0  0  0
   59.9140   27.4530   46.9080 C   0  0  0  0  0  0  0  0  0  0  0  0
   59.1890   26.9100   45.7070 C   0  0  0  0  0  0  0  0  0  0  0  0
   58.4010   25.7530   45.8180 C   0  0  0  0  0  0  0  0  0  0  0  0
   57.7010   25.2690   44.7080 C   0  0  0  0  0  0  0  0  0  0  0  0
   57.7740   25.9410   43.4850 C   0  0  0  0  0  0  0  0  0  0  0  0
   58.5460   27.1020   43.3710 C   0  0  0  0  0  0  0  0  0  0  0  0
   59.2470   27.5900   44.4770 C   0  0  0  0  0  0  0  0  0  0  0  0
   59.4960   30.7490   47.2140 C   0  0  0  0  0  0  0  0  0  0  0  0
   60.4200   30.7330   48.0730 O   0  0  0  0  0  0  0  0  0  0  0  0
   58.2070   33.3390   45.0470 C   0  0  0  0  0  0  0  0  0  0  0  0
   57.4340   33.8110   44.1720 O   0  0  0  0  0  0  0  0  0  0  0  0
   59.0844   35.9455   44.8264 H   0  0  0  0  0  0  0  0  0  0  0  0
   60.4565   35.7542   46.1344 H   0  0  0  0  0  0  0  0  0  0  0  0
   60.7200   33.3820   47.2870 H   0  0  0  0  0  0  0  0  0  0  0  0
   56.1323   31.7740   43.8302 H   0  0  0  0  0  0  0  0  0  0  0  0
   59.4935   28.6350   48.6678 H   0  0  0  0  0  0  0  0  0  0  0  0
   58.0486   27.8713   47.9089 H   0  0  0  0  0  0  0  0  0  0  0  0
   60.7978   28.0154   46.5724 H   0  0  0  0  0  0  0  0  0  0  0  0
   60.2174   26.6115   47.5482 H   0  0  0  0  0  0  0  0  0  0  0  0
   58.3340   25.2256   46.7810 H   0  0  0  0  0  0  0  0  0  0  0  0
   57.0918   24.3575   44.7980 H   0  0  0  0  0  0  0  0  0  0  0  0
   57.2248   25.5573   42.6125 H   0  0  0  0  0  0  0  0  0  0  0  0
   58.6014   27.6319   42.4087 H   0  0  0  0  0  0  0  0  0  0  0  0
   59.8457   28.5083   44.3855 H   0  0  0  0  0  0  0  0  0  0  0  0
  1  2  2  0
  2  3  1  0
  3  4  1  0
  4  5  2  0
  5  6  1  0
  6  7  2  0
  7  8  1  0
  8  9  2  0
  8 10  1  0
 10 11  1  0
 11 12  2  0
 12 13  1  0
 13 14  1  0
 14 15  1  0
 15 16  1  0
 16 17  2  0
 17 18  1  0
 18 19  2  0
 19 20  1  0
 20 21  2  0
 13 22  1  0
 22 23  2  0
  5 24  1  0
 24 25  2  0
 24  2  1  0
 22  4  1  0
 12  6  1  0
 21 16  1  0
  1 26  1  0
  1 27  1  0
  3 28  1  0
  7 29  1  0
 14 30  1  0
 14 31  1  0
 15 32  1  0
 15 33  1  0
 17 34  1  0
 18 35  1  0
 19 36  1  0
 20 37  1  0
 21 38  1  0
M  CHG  1  10  -1
M  END
>  <UniqueID>  (5) 
5

>  <SMILES>  (5) 
C=C1Nc2c(c3cc(=O)[n-]nc3n(CCc3ccccc3)c2=O)C1=O

>  <Energy>  (5) 
78.98403610691003

>  <Genealogy>  (5) 
C=C1Nc2c(c3cc(=O)[n-]nc3n(CCc3ccccc3)c2=O)C1=O (protonated)
C=C1Nc2c(c3cc(=O)[n-]nc3n(CCc3ccccc3)c2=O)C1=O (3D coordinates assigned)
C=C1Nc2c(c3cc(=O)[n-]nc3n(CCc3ccccc3)c2=O)C1=O (nonaromatic ring conformer: 78.98403610691003 kcal/mol)

>  <smiles>  (5) 
C=C1Nc2c(c3cc(=O)[nH]nc3n(CCc3ccccc3)c2=O)C1=O

>  <score_type>  (5) 
oracle

>  <origin>  (5) 
adg

>  <m_score__min__energy>  (5) 
-9.0700000000000003

>  <m_primary>  (5) 
energy

$$$$
5:0
     RDKit          3D

 56 59  0  0  0  0  0  0  0  0999 V2000
   57.5110   24.8920   47.9990 O   0  0  0  0  0  0  0  0  0  0  0  0
   58.2190   25.7940   47.4800 C   0  0  0  0  0  0  0  0  0  0  0  0
   59.3110   26.3370   48.2320 N   0  0  0  0  0  0  0  0  0  0  0  0
   59.5320   27.7240   48.5210 C   0  0  0  0  0  0  0  0  0  0  0  0
   58.5520   28.7010   48.2730 C   0  0  0  0  0  0  0  0  0  0  0  0
   58.8130   30.0460   48.5470 C   0  0  0  0  0  0  0  0  0  0  0  0
   60.0620   30.4350   49.0520 C   0  0  0  0  0  0  0  0  0  0  0  0
   60.3950   32.1370   49.3810 S   0  0  0  0  0  0  0  0  0  0  0  0
   61.2970   32.2400   50.5810 O   0  0  0  0  0  0  0  0  0  0  0  0
   59.1070   32.8370   49.7120 O   0  0  0  0  0  0  0  0  0  0  0  0
   61.1530   32.9350   48.0180 N   0  0  0  0  0  0  0  0  0  0  0  0
   62.2160   33.8450   48.4580 C   0  0  0  0  0  0  0  0  0  0  0  0
   63.5520   33.1340   48.3020 C   0  0  0  0  0  0  0  0  0  0  0  0
   63.2750   31.9150   47.4450 C   0  0  0  0  0  0  0  0  0  0  0  0
   61.7890   31.9640   47.1220 C   0  0  0  0  0  0  0  0  0  0  0  0
   61.0450   29.4650   49.2810 C   0  0  0  0  0  0  0  0  0  0  0  0
   60.7850   28.1190   49.0050 C   0  0  0  0  0  0  0  0  0  0  0  0
   57.9360   26.2750   46.1590 N   0  0  0  0  0  0  0  0  0  0  0  0
   58.4190   27.4830   45.5560 C   0  0  0  0  0  0  0  0  0  0  0  0
   59.7780   27.6740   45.2480 C   0  0  0  0  0  0  0  0  0  0  0  0
   60.1990   28.8590   44.6390 C   0  0  0  0  0  0  0  0  0  0  0  0
   59.2710   29.8530   44.3190 C   0  0  0  0  0  0  0  0  0  0  0  0
   57.9100   29.6590   44.5880 C   0  0  0  0  0  0  0  0  0  0  0  0
   56.7290   30.9080   44.1710 S   0  0  0  0  0  0  0  0  0  0  0  0
   56.7810   31.1520   42.6880 O   0  0  0  0  0  0  0  0  0  0  0  0
   55.3520   30.4120   44.5120 O   0  0  0  0  0  0  0  0  0  0  0  0
   57.0140   32.4180   45.0030 N   0  0  0  0  0  0  0  0  0  0  0  0
   57.7840   32.2290   46.2320 C   0  0  0  0  0  0  0  0  0  0  0  0
   58.4920   33.5500   46.5010 C   0  0  0  0  0  0  0  0  0  0  0  0
   58.4860   34.2900   45.1710 C   0  0  0  0  0  0  0  0  0  0  0  0
   57.7900   33.3550   44.1940 C   0  0  0  0  0  0  0  0  0  0  0  0
   57.4920   28.4730   45.2080 C   0  0  0  0  0  0  0  0  0  0  0  0
   57.5756   28.4053   47.8615 H   0  0  0  0  0  0  0  0  0  0  0  0
   58.0356   30.8028   48.3658 H   0  0  0  0  0  0  0  0  0  0  0  0
   62.2052   34.7551   47.8403 H   0  0  0  0  0  0  0  0  0  0  0  0
   62.0594   34.1288   49.5092 H   0  0  0  0  0  0  0  0  0  0  0  0
   64.2806   33.7926   47.8067 H   0  0  0  0  0  0  0  0  0  0  0  0
   63.9775   32.8545   49.2771 H   0  0  0  0  0  0  0  0  0  0  0  0
   63.8694   31.9539   46.5203 H   0  0  0  0  0  0  0  0  0  0  0  0
   63.5456   30.9844   47.9654 H   0  0  0  0  0  0  0  0  0  0  0  0
   61.6460   32.2741   46.0763 H   0  0  0  0  0  0  0  0  0  0  0  0
   61.3388   30.9700   47.2607 H   0  0  0  0  0  0  0  0  0  0  0  0
   62.0260   29.7628   49.6797 H   0  0  0  0  0  0  0  0  0  0  0  0
   61.5698   27.3659   49.1692 H   0  0  0  0  0  0  0  0  0  0  0  0
   60.5107   26.8891   45.4870 H   0  0  0  0  0  0  0  0  0  0  0  0
   61.2645   29.0097   44.4108 H   0  0  0  0  0  0  0  0  0  0  0  0
   59.6100   30.7907   43.8545 H   0  0  0  0  0  0  0  0  0  0  0  0
   57.1130   31.9797   47.0672 H   0  0  0  0  0  0  0  0  0  0  0  0
   58.5038   31.4036   46.1295 H   0  0  0  0  0  0  0  0  0  0  0  0
   57.9515   34.1277   47.2653 H   0  0  0  0  0  0  0  0  0  0  0  0
   59.5135   33.3970   46.8794 H   0  0  0  0  0  0  0  0  0  0  0  0
   57.9324   35.2364   45.2593 H   0  0  0  0  0  0  0  0  0  0  0  0
   59.5033   34.5457   44.8396 H   0  0  0  0  0  0  0  0  0  0  0  0
   57.1247   33.9256   43.5293 H   0  0  0  0  0  0  0  0  0  0  0  0
   58.5173   32.8273   43.5595 H   0  0  0  0  0  0  0  0  0  0  0  0
   56.4244   28.3186   45.4233 H   0  0  0  0  0  0  0  0  0  0  0  0
  1  2  2  0
  2  3  1  0
  3  4  1  0
  4  5  2  0
  5  6  1  0
  6  7  2  0
  7  8  1  0
  8  9  2  0
  8 10  2  0
  8 11  1  0
 11 12  1  0
 12 13  1  0
 13 14  1  0
 14 15  1  0
  7 16  1  0
 16 17  2  0
  2 18  1  0
 18 19  1  0
 19 20  2  0
 20 21  1  0
 21 22  2  0
 22 23  1  0
 23 24  1  0
 24 25  2  0
 24 26  2  0
 24 27  1  0
 27 28  1  0
 28 29  1  0
 29 30  1  0
 30 31  1  0
 23 32  2  0
 17  4  1  0
 32 19  1  0
 15 11  1  0
 31 27  1  0
  5 33  1  0
  6 34  1  0
 12 35  1  0
 12 36  1  0
 13 37  1  0
 13 38  1  0
 14 39  1  0
 14 40  1  0
 15 41  1  0
 15 42  1  0
 16 43  1  0
 17 44  1  0
 20 45  1  0
 21 46  1  0
 22 47  1  0
 28 48  1  0
 28 49  1  0
 29 50  1  0
 29 51  1  0
 30 52  1  0
 30 53  1  0
 31 54  1  0
 31 55  1  0
 32 56  1  0
M  CHG  2   3  -1  18  -1
M  END
>  <UniqueID>  (6) 
6

>  <SMILES>  (6) 
O=C([N-]c1ccc(S(=O)(=O)N2CCCC2)cc1)[N-]c1cccc(S(=O)(=O)N2CCCC2)c1

>  <Energy>  (6) 
65.790753591379

>  <Genealogy>  (6) 
O=C([N-]c1ccc(S(=O)(=O)N2CCCC2)cc1)[N-]c1cccc(S(=O)(=O)N2CCCC2)c1 (protonated)
O=C([N-]c1ccc(S(=O)(=O)N2CCCC2)cc1)[N-]c1cccc(S(=O)(=O)N2CCCC2)c1 (3D coordinates assigned)
O=C([N-]c1ccc(S(=O)(=O)N2CCCC2)cc1)[N-]c1cccc(S(=O)(=O)N2CCCC2)c1 (nonaromatic ring conformer: 65.790753591379 kcal/mol)

>  <smiles>  (6) 
O=C(Nc1ccc(S(=O)(=O)N2CCCC2)cc1)Nc1cccc(S(=O)(=O)N2CCCC2)c1

>  <score_type>  (6) 
oracle

>  <origin>  (6) 
adg

>  <m_score__min__energy>  (6) 
-13.66

>  <m_primary>  (6) 
energy

$$$$
6:0
     RDKit          3D

 57 60  0  0  0  0  0  0  0  0999 V2000
   56.6660   27.0800   46.7560 O   0  0  0  0  0  0  0  0  0  0  0  0
   57.8450   27.3990   46.4410 C   0  0  0  0  0  0  0  0  0  0  0  0
   58.2660   27.2340   45.0790 N   0  0  0  0  0  0  0  0  0  0  0  0
   58.3960   28.3080   44.0920 C   0  0  0  0  0  0  0  0  0  0  0  0
   57.0660   29.0880   43.9830 C   0  0  0  0  0  0  0  0  0  0  0  0
   57.3100   30.5270   43.5050 C   0  0  0  0  0  0  0  0  0  0  0  0
   58.1800   31.3030   44.4330 N   0  0  0  0  0  0  0  0  0  0  0  0
   57.3850   32.2180   45.2830 C   0  0  0  0  0  0  0  0  0  0  0  0
   58.2830   33.0520   46.1650 C   0  0  0  0  0  0  0  0  0  0  0  0
   58.4110   32.7400   47.5280 C   0  0  0  0  0  0  0  0  0  0  0  0
   59.2290   33.5180   48.3540 C   0  0  0  0  0  0  0  0  0  0  0  0
   59.9190   34.6150   47.8260 C   0  0  0  0  0  0  0  0  0  0  0  0
   59.7880   34.9390   46.4730 C   0  0  0  0  0  0  0  0  0  0  0  0
   58.9700   34.1620   45.6430 C   0  0  0  0  0  0  0  0  0  0  0  0
   59.0920   30.4620   45.2530 C   0  0  0  0  0  0  0  0  0  0  0  0
   59.5750   29.2260   44.4830 C   0  0  0  0  0  0  0  0  0  0  0  0
   58.7510   27.9190   47.4850 C   0  0  0  0  0  0  0  0  0  0  0  0
   58.5020   29.1700   48.0690 C   0  0  0  0  0  0  0  0  0  0  0  0
   59.3630   29.6780   49.0470 C   0  0  0  0  0  0  0  0  0  0  0  0
   60.4870   28.9410   49.4530 C   0  0  0  0  0  0  0  0  0  0  0  0
   61.4310   29.5010   50.4760 C   0  0  0  0  0  0  0  0  0  0  0  0
   61.4520   30.9210   50.3730 O   0  0  0  0  0  0  0  0  0  0  0  0
   62.1890   31.6330   49.4150 C   0  0  0  0  0  0  0  0  0  0  0  0
   61.8720   31.6020   48.0430 C   0  0  0  0  0  0  0  0  0  0  0  0
   62.6380   32.3290   47.1270 C   0  0  0  0  0  0  0  0  0  0  0  0
   63.7250   33.0900   47.5680 C   0  0  0  0  0  0  0  0  0  0  0  0
   64.0460   33.1270   48.9270 C   0  0  0  0  0  0  0  0  0  0  0  0
   63.2800   32.4030   49.8460 C   0  0  0  0  0  0  0  0  0  0  0  0
   60.7570   27.7070   48.8410 C   0  0  0  0  0  0  0  0  0  0  0  0
   59.8970   27.2010   47.8620 C   0  0  0  0  0  0  0  0  0  0  0  0
   58.6113   27.8846   43.0999 H   0  0  0  0  0  0  0  0  0  0  0  0
   56.4072   28.5773   43.2653 H   0  0  0  0  0  0  0  0  0  0  0  0
   56.5978   29.1236   44.9778 H   0  0  0  0  0  0  0  0  0  0  0  0
   57.7925   30.4923   42.5171 H   0  0  0  0  0  0  0  0  0  0  0  0
   56.3341   31.0329   43.4644 H   0  0  0  0  0  0  0  0  0  0  0  0
   56.7932   32.8848   44.6387 H   0  0  0  0  0  0  0  0  0  0  0  0
   56.7240   31.6162   45.9240 H   0  0  0  0  0  0  0  0  0  0  0  0
   57.8664   31.8812   47.9475 H   0  0  0  0  0  0  0  0  0  0  0  0
   59.3300   33.2671   49.4202 H   0  0  0  0  0  0  0  0  0  0  0  0
   60.5650   35.2228   48.4766 H   0  0  0  0  0  0  0  0  0  0  0  0
   60.3272   35.8042   46.0599 H   0  0  0  0  0  0  0  0  0  0  0  0
   58.8647   34.4211   44.5792 H   0  0  0  0  0  0  0  0  0  0  0  0
   59.9656   31.0638   45.5441 H   0  0  0  0  0  0  0  0  0  0  0  0
   58.5361   30.1177   46.1375 H   0  0  0  0  0  0  0  0  0  0  0  0
   60.0918   29.5534   43.5688 H   0  0  0  0  0  0  0  0  0  0  0  0
   60.2551   28.6570   45.1340 H   0  0  0  0  0  0  0  0  0  0  0  0
   57.6245   29.7547   47.7559 H   0  0  0  0  0  0  0  0  0  0  0  0
   59.1587   30.6593   49.5002 H   0  0  0  0  0  0  0  0  0  0  0  0
   61.0955   29.2110   51.4826 H   0  0  0  0  0  0  0  0  0  0  0  0
   62.4418   29.1048   50.2990 H   0  0  0  0  0  0  0  0  0  0  0  0
   61.0187   31.0037   47.6910 H   0  0  0  0  0  0  0  0  0  0  0  0
   62.3850   32.3023   46.0568 H   0  0  0  0  0  0  0  0  0  0  0  0
   64.3273   33.6595   46.8448 H   0  0  0  0  0  0  0  0  0  0  0  0
   64.9011   33.7255   49.2742 H   0  0  0  0  0  0  0  0  0  0  0  0
   63.5348   32.4374   50.9155 H   0  0  0  0  0  0  0  0  0  0  0  0
   61.6500   27.1351   49.1333 H   0  0  0  0  0  0  0  0  0  0  0  0
   60.1193   26.2353   47.3845 H   0  0  0  0  0  0  0  0  0  0  0  0
  1  2  2  0
  2  3  1  0
  3  4  1  0
  4  5  1  0
  5  6  1  0
  6  7  1  0
  7  8  1  0
  8  9  1  0
  9 10  2  0
 10 11  1  0
 11 12  2  0
 12 13  1  0
 13 14  2  0
  7 15  1  0
 15 16  1  0
  2 17  1  0
 17 18  2  0
 18 19  1  0
 19 20  2  0
 20 21  1  0
 21 22  1  0
 22 23  1  0
 23 24  2  0
 24 25  1  0
 25 26  2  0
 26 27  1  0
 27 28  2  0
 20 29  1  0
 29 30  2  0
 16  4  1  0
 30 17  1  0
 14  9  1  0
 28 23  1  0
  4 31  1  0
  5 32  1  0
  5 33  1  0
  6 34  1  0
  6 35  1  0
  8 36  1  0
  8 37  1  0
 10 38  1  0
 11 39  1  0
 12 40  1  0
 13 41  1  0
 14 42  1  0
 15 43  1  0
 15 44  1  0
 16 45  1  0
 16 46  1  0
 18 47  1  0
 19 48  1  0
 21 49  1  0
 21 50  1  0
 24 51  1  0
 25 52  1  0
 26 53  1  0
 27 54  1  0
 28 55  1  0
 29 56  1  0
 30 57  1  0
M  CHG  1   3  -1
M  END
>  <UniqueID>  (7) 
7

>  <SMILES>  (7) 
O=C([N-]C1CCN(Cc2ccccc2)CC1)c1ccc(COc2ccccc2)cc1

>  <Energy>  (7) 
71.72872758492723

>  <Genealogy>  (7) 
O=C([N-]C1CCN(Cc2ccccc2)CC1)c1ccc(COc2ccccc2)cc1 (protonated)
O=C([N-]C1CCN(Cc2ccccc2)CC1)c1ccc(COc2ccccc2)cc1 (3D coordinates assigned)
O=C([N-]C1CCN(Cc2ccccc2)CC1)c1ccc(COc2ccccc2)cc1 (nonaromatic ring conformer: 71.72872758492723 kcal/mol)

>  <smiles>  (7) 
O=C(NC1CCN(Cc2ccccc2)CC1)c1ccc(COc2ccccc2)cc1

>  <score_type>  (7) 
oracle

>  <origin>  (7) 
adg

>  <m_score__min__energy>  (7) 
-10.699999999999999

>  <m_primary>  (7) 
energy

$$$$
7:0
     RDKit          3D

 36 38  0  0  0  0  0  0  0  0999 V2000
   64.7920   32.4080   46.9280 H   0  0  0  0  0  0  0  0  0  0  0  0
   64.0810   33.0940   47.1520 O   0  0  0  0  0  0  0  0  0  0  0  0
   62.7260   32.7710   47.1320 C   0  0  0  0  0  0  0  0  0  0  0  0
   61.7940   33.7290   46.7210 C   0  0  0  0  0  0  0  0  0  0  0  0
   62.1348   34.7297   46.4170 H   0  0  0  0  0  0  0  0  0  0  0  0
   60.4310   33.4200   46.6950 C   0  0  0  0  0  0  0  0  0  0  0  0
   59.7036   34.1821   46.3787 H   0  0  0  0  0  0  0  0  0  0  0  0
   59.9840   32.1400   47.0710 C   0  0  0  0  0  0  0  0  0  0  0  0
   58.5350   31.8270   47.0520 C   0  0  0  0  0  0  0  0  0  0  0  0
   57.7740   32.4030   47.8770 O   0  0  0  0  0  0  0  0  0  0  0  0
   57.9800   30.9010   46.1010 N   0  0  0  0  0  0  0  0  0  0  0  0
   57.0200   31.2080   45.2410 N   0  0  0  0  0  0  0  0  0  0  0  0
   56.7030   30.0940   44.5490 C   0  0  0  0  0  0  0  0  0  0  0  0
   55.7680   30.0830   43.5970 C   0  0  0  0  0  0  0  0  0  0  0  0
   55.5425   29.1508   43.0583 H   0  0  0  0  0  0  0  0  0  0  0  0
   55.2227   31.0061   43.3509 H   0  0  0  0  0  0  0  0  0  0  0  0
   57.4910   29.0240   44.9820 C   0  0  0  0  0  0  0  0  0  0  0  0
   57.4520   27.7470   44.5550 C   0  0  0  0  0  0  0  0  0  0  0  0
   57.3748   27.5696   43.4721 H   0  0  0  0  0  0  0  0  0  0  0  0
   57.5060   26.5690   45.4450 C   0  0  0  0  0  0  0  0  0  0  0  0
   58.6900   25.8210   45.5680 C   0  0  0  0  0  0  0  0  0  0  0  0
   59.5953   26.1363   45.0286 H   0  0  0  0  0  0  0  0  0  0  0  0
   58.7220   24.6780   46.3730 C   0  0  0  0  0  0  0  0  0  0  0  0
   59.6553   24.1052   46.4774 H   0  0  0  0  0  0  0  0  0  0  0  0
   57.5690   24.2630   47.0450 C   0  0  0  0  0  0  0  0  0  0  0  0
   57.5972   23.3679   47.6838 H   0  0  0  0  0  0  0  0  0  0  0  0
   56.3810   24.9840   46.9060 C   0  0  0  0  0  0  0  0  0  0  0  0
   55.4726   24.6504   47.4290 H   0  0  0  0  0  0  0  0  0  0  0  0
   56.3430   26.1300   46.1030 C   0  0  0  0  0  0  0  0  0  0  0  0
   55.1480   26.8300   45.9680 O   0  0  0  0  0  0  0  0  0  0  0  0
   58.2740   29.5900   45.9800 C   0  0  0  0  0  0  0  0  0  0  0  0
   59.1100   28.9870   46.7060 O   0  0  0  0  0  0  0  0  0  0  0  0
   60.9250   31.1880   47.4990 C   0  0  0  0  0  0  0  0  0  0  0  0
   60.5871   30.1905   47.8166 H   0  0  0  0  0  0  0  0  0  0  0  0
   62.2880   31.5000   47.5240 C   0  0  0  0  0  0  0  0  0  0  0  0
   63.0177   30.7452   47.8524 H   0  0  0  0  0  0  0  0  0  0  0  0
  1  2  1  0
  2  3  1  0
  3  4  2  0
  4  5  1  0
  4  6  1  0
  6  7  1  0
  6  8  2  0
  8  9  1  0
  9 10  2  0
  9 11  1  0
 11 12  1  0
 12 13  1  0
 13 14  2  0
 14 15  1  0
 14 16  1  0
 13 17  1  0
 17 18  2  0
 18 19  1  0
 18 20  1  0
 20 21  2  0
 21 22  1  0
 21 23  1  0
 23 24  1  0
 23 25  2  0
 25 26  1  0
 25 27  1  0
 27 28  1  0
 27 29  2  0
 29 30  1  0
 17 31  1  0
 31 32  2  0
  8 33  1  0
 33 34  1  0
 33 35  2  0
 35 36  1  0
 35  3  1  0
 31 11  1  0
 29 20  1  0
M  CHG  2  12  -1  30  -1
M  END
>  <UniqueID>  (8) 
8

>  <SMILES>  (8) 
C=c1[n-]n(C(=O)c2ccc(O)cc2)c(=O)/c1=C\c1ccccc1[O-]

>  <Energy>  (8) 
86.11714849668977

>  <Genealogy>  (8) 
C=c1[n-]n(C(=O)c2ccc(O)cc2)c(=O)c1=Cc1ccccc1[O-] (protonated)
C=c1[n-]n(C(=O)c2ccc(O)cc2)c(=O)/c1=C\c1ccccc1[O-] (cis-trans isomerization)
C=c1[n-]n(C(=O)c2ccc(O)cc2)c(=O)/c1=C\c1ccccc1[O-] (3D coordinates assigned)
C=c1[n-]n(C(=O)c2ccc(O)cc2)c(=O)/c1=C\c1ccccc1[O-] (optimized conformer: 86.11714849668977 kcal/mol)

>  <smiles>  (8) 
C=c1[nH]n(C(=O)c2ccc(O)cc2)c(=O)c1=Cc1ccccc1O

>  <score_type>  (8) 
oracle

>  <origin>  (8) 
adg

>  <m_score__min__energy>  (8) 
-12.59

>  <m_primary>  (8) 
energy

$$$$
8:0
     RDKit          3D

 30 31  0  0  0  0  0  0  0  0999 V2000
   58.6496   24.4304   46.3597 H   0  0  0  0  0  0  0  0  0  0  0  0
   59.3020   25.2540   46.0340 C   0  0  0  0  0  0  0  0  0  0  0  0
   60.3828   25.0862   45.9171 H   0  0  0  0  0  0  0  0  0  0  0  0
   58.7830   26.4550   45.7810 C   0  0  0  0  0  0  0  0  0  0  0  0
   59.6910   27.7740   45.2800 S   0  0  0  0  0  0  0  0  0  0  0  0
   58.4130   28.8530   45.1090 C   0  0  0  0  0  0  0  0  0  0  0  0
   58.6020   30.1370   44.7630 C   0  0  0  0  0  0  0  0  0  0  0  0
   58.5166   30.3878   43.6954 H   0  0  0  0  0  0  0  0  0  0  0  0
   58.9140   31.2390   45.6910 C   0  0  0  0  0  0  0  0  0  0  0  0
   59.9420   31.0790   46.6320 C   0  0  0  0  0  0  0  0  0  0  0  0
   60.5315   30.1504   46.6471 H   0  0  0  0  0  0  0  0  0  0  0  0
   60.2200   32.0960   47.5510 C   0  0  0  0  0  0  0  0  0  0  0  0
   61.0393   31.9729   48.2746 H   0  0  0  0  0  0  0  0  0  0  0  0
   59.4580   33.2700   47.5520 C   0  0  0  0  0  0  0  0  0  0  0  0
   59.8070   34.5440   48.7060 Cl  0  0  0  0  0  0  0  0  0  0  0  0
   58.4100   33.4220   46.6360 C   0  0  0  0  0  0  0  0  0  0  0  0
   57.8060   34.3414   46.6394 H   0  0  0  0  0  0  0  0  0  0  0  0
   58.1310   32.4070   45.7180 C   0  0  0  0  0  0  0  0  0  0  0  0
   57.2947   32.5217   45.0126 H   0  0  0  0  0  0  0  0  0  0  0  0
   57.2210   28.1650   45.4120 C   0  0  0  0  0  0  0  0  0  0  0  0
   55.9070   28.7090   45.2320 N   0  0  0  0  0  0  0  0  0  0  0  0
   55.6690   29.6650   45.5760 H   0  0  0  0  0  0  0  0  0  0  0  0
   55.1240   28.1230   44.8680 H   0  0  0  0  0  0  0  0  0  0  0  0
   57.4320   26.8240   45.8150 C   0  0  0  0  0  0  0  0  0  0  0  0
   56.3280   25.9040   46.1640 C   0  0  0  0  0  0  0  0  0  0  0  0
   55.1340   26.2670   45.9860 O   0  0  0  0  0  0  0  0  0  0  0  0
   56.5970   24.5500   46.7430 C   0  0  0  0  0  0  0  0  0  0  0  0
   56.5847   24.6118   47.8412 H   0  0  0  0  0  0  0  0  0  0  0  0
   55.8210   23.8466   46.4066 H   0  0  0  0  0  0  0  0  0  0  0  0
   57.5829   24.1966   46.4066 H   0  0  0  0  0  0  0  0  0  0  0  0
  1  2  1  0
  2  3  1  0
  2  4  2  0
  4  5  1  0
  5  6  1  0
  6  7  2  0
  7  8  1  0
  7  9  1  0
  9 10  2  0
 10 11  1  0
 10 12  1  0
 12 13  1  0
 12 14  2  0
 14 15  1  0
 14 16  1  0
 16 17  1  0
 16 18  2  0
 18 19  1  0
  6 20  1  0
 20 21  1  0
 21 22  1  0
 21 23  1  0
 20 24  2  0
 24 25  1  0
 25 26  2  0
 25 27  1  0
 27 28  1  0
 27 29  1  0
 27 30  1  0
 24  4  1  0
 18  9  1  0
M  END
>  <UniqueID>  (9) 
9

>  <SMILES>  (9) 
C=c1s/c(=C/c2ccc(Cl)cc2)c(N)c1C(C)=O

>  <Energy>  (9) 
73.0174626860475

>  <Genealogy>  (9) 
C=c1s/c(=C/c2ccc(Cl)cc2)c(N)c1C(C)=O (cis-trans isomerization)
C=c1s/c(=C/c2ccc(Cl)cc2)c(N)c1C(C)=O (3D coordinates assigned)
C=c1s/c(=C/c2ccc(Cl)cc2)c(N)c1C(C)=O (optimized conformer: 73.0174626860475 kcal/mol)

>  <smiles>  (9) 
C=c1sc(=Cc2ccc(Cl)cc2)c(N)c1C(C)=O

>  <score_type>  (9) 
oracle

>  <origin>  (9) 
adg

>  <m_score__min__energy>  (9) 
-8.1500000000000004

>  <m_primary>  (9) 
energy

$$$$
9:0
     RDKit          3D

 35 37  0  0  0  0  0  0  0  0999 V2000
   59.4010   27.6820   46.9010 O   0  0  0  0  0  0  0  0  0  0  0  0
   58.3980   27.8530   46.1540 C   0  0  0  0  0  0  0  0  0  0  0  0
   58.5960   28.3710   44.7660 C   0  0  0  0  0  0  0  0  0  0  0  0
   57.3910   28.1170   43.9740 N   0  0  0  0  0  0  0  0  0  0  0  0
   56.4130   29.5530   43.9110 S   0  0  0  0  0  0  0  0  0  0  0  0
   55.2290   29.3880   44.8250 O   0  0  0  0  0  0  0  0  0  0  0  0
   55.9250   29.7560   42.5040 O   0  0  0  0  0  0  0  0  0  0  0  0
   57.3610   30.9610   44.3940 C   0  0  0  0  0  0  0  0  0  0  0  0
   57.7790   31.0930   45.7280 C   0  0  0  0  0  0  0  0  0  0  0  0
   58.5360   32.2010   46.1230 C   0  0  0  0  0  0  0  0  0  0  0  0
   58.8860   33.1780   45.1880 C   0  0  0  0  0  0  0  0  0  0  0  0
   58.4830   33.0470   43.8560 C   0  0  0  0  0  0  0  0  0  0  0  0
   57.7260   31.9400   43.4550 C   0  0  0  0  0  0  0  0  0  0  0  0
   57.3600   31.8260   42.1540 F   0  0  0  0  0  0  0  0  0  0  0  0
   57.0750   27.5140   46.5960 N   0  0  0  0  0  0  0  0  0  0  0  0
   56.4330   26.4140   46.3340 C   0  0  0  0  0  0  0  0  0  0  0  0
   56.9920   25.1950   46.5490 N   0  0  0  0  0  0  0  0  0  0  0  0
   56.0200   24.3610   46.1540 C   0  0  0  0  0  0  0  0  0  0  0  0
   56.0420   22.9670   46.1510 C   0  0  0  0  0  0  0  0  0  0  0  0
   54.8940   22.2970   45.6860 C   0  0  0  0  0  0  0  0  0  0  0  0
   53.7690   23.0290   45.2440 C   0  0  0  0  0  0  0  0  0  0  0  0
   53.7830   24.4380   45.2620 C   0  0  0  0  0  0  0  0  0  0  0  0
   54.9370   25.0660   45.7260 C   0  0  0  0  0  0  0  0  0  0  0  0
   55.1690   26.3820   45.8280 N   0  0  0  0  0  0  0  0  0  0  0  0
   58.7894   29.4532   44.8026 H   0  0  0  0  0  0  0  0  0  0  0  0
   59.4535   27.8608   44.3030 H   0  0  0  0  0  0  0  0  0  0  0  0
   56.8270   27.3860   44.4650 H   0  0  0  0  0  0  0  0  0  0  0  0
   57.5101   30.3222   46.4652 H   0  0  0  0  0  0  0  0  0  0  0  0
   58.8559   32.3030   47.1705 H   0  0  0  0  0  0  0  0  0  0  0  0
   59.4788   34.0505   45.5000 H   0  0  0  0  0  0  0  0  0  0  0  0
   58.7616   33.8162   43.1207 H   0  0  0  0  0  0  0  0  0  0  0  0
   56.9245   22.4104   46.4994 H   0  0  0  0  0  0  0  0  0  0  0  0
   54.8729   21.1974   45.6667 H   0  0  0  0  0  0  0  0  0  0  0  0
   52.8769   22.4957   44.8837 H   0  0  0  0  0  0  0  0  0  0  0  0
   52.9143   25.0210   44.9220 H   0  0  0  0  0  0  0  0  0  0  0  0
  1  2  2  0
  2  3  1  0
  3  4  1  0
  4  5  1  0
  5  6  2  0
  5  7  2  0
  5  8  1  0
  8  9  2  0
  9 10  1  0
 10 11  2  0
 11 12  1  0
 12 13  2  0
 13 14  1  0
  2 15  1  0
 15 16  2  3
 16 17  1  0
 17 18  1  0
 18 19  2  0
 19 20  1  0
 20 21  2  0
 21 22  1  0
 22 23  2  0
 23 24  1  0
 13  8  1  0
 24 16  1  0
 23 18  1  0
  3 25  1  0
  3 26  1  0
  4 27  1  0
  9 28  1  0
 10 29  1  0
 11 30  1  0
 12 31  1  0
 19 32  1  0
 20 33  1  0
 21 34  1  0
 22 35  1  0
M  CHG  2  17  -1  24  -1
M  END
>  <UniqueID>  (10) 
10

>  <SMILES>  (10) 
O=C(CNS(=O)(=O)c1ccccc1F)N=c1[n-]c2ccccc2[n-]1

>  <Energy>  (10) 
71.81675135613652

>  <Genealogy>  (10) 
O=C(CNS(=O)(=O)c1ccccc1F)N=c1[n-]c2ccccc2[n-]1 (protonated)
O=C(CNS(=O)(=O)c1ccccc1F)N=c1[n-]c2ccccc2[n-]1 (3D coordinates assigned)
O=C(CNS(=O)(=O)c1ccccc1F)N=c1[n-]c2ccccc2[n-]1 (optimized conformer: 71.81675135613652 kcal/mol)

>  <smiles>  (10) 
O=C(CNS(=O)(=O)c1ccccc1F)N=c1[nH]c2ccccc2[nH]1

>  <score_type>  (10) 
oracle

>  <origin>  (10) 
adg

>  <m_score__min__energy>  (10) 
-11.93

>  <m_primary>  (10) 
energy

$$$$
10:0
     RDKit          3D

 68 71  0  0  0  0  0  0  0  0999 V2000
   56.8190   22.9500   43.5400 C   0  0  0  0  0  0  0  0  0  0  0  0
   57.6550   23.6860   44.2760 C   0  0  0  0  0  0  0  0  0  0  0  0
   57.4790   25.1350   44.5420 C   0  0  0  0  0  0  0  0  0  0  0  0
   56.7580   25.5240   45.6830 C   0  0  0  0  0  0  0  0  0  0  0  0
   56.5560   26.8760   45.9730 C   0  0  0  0  0  0  0  0  0  0  0  0
   57.0640   27.8660   45.1190 C   0  0  0  0  0  0  0  0  0  0  0  0
   56.8340   29.3260   45.4120 C   0  0  0  0  0  0  0  0  0  0  0  0
   58.0550   29.9390   45.9760 N   0  0  0  0  0  0  0  0  0  0  0  0
   58.7470   30.8190   45.0010 C   0  0  0  0  0  0  0  0  0  0  0  0
   58.8350   32.2690   45.4380 C   0  0  0  0  0  0  0  0  0  0  0  0
   58.2210   33.2770   44.6770 C   0  0  0  0  0  0  0  0  0  0  0  0
   58.2560   34.6060   45.1060 C   0  0  0  0  0  0  0  0  0  0  0  0
   58.9050   34.9410   46.2960 C   0  0  0  0  0  0  0  0  0  0  0  0
   59.5500   33.9510   47.0540 C   0  0  0  0  0  0  0  0  0  0  0  0
   60.1870   34.3030   48.3690 C   0  0  0  0  0  0  0  0  0  0  0  0
   59.7350   33.3760   49.4010 N   0  0  0  0  0  0  0  0  0  0  0  0
   59.7650   33.6720   50.8010 C   0  0  0  0  0  0  0  0  0  0  0  0
   60.7960   34.1730   51.3280 O   0  0  0  0  0  0  0  0  0  0  0  0
   58.5530   33.4270   51.6370 C   0  0  0  0  0  0  0  0  0  0  0  0
   58.2450   34.5830   52.3670 O   0  0  0  0  0  0  0  0  0  0  0  0
   59.5190   32.6180   46.6140 C   0  0  0  0  0  0  0  0  0  0  0  0
   58.9430   28.9230   46.5850 C   0  0  0  0  0  0  0  0  0  0  0  0
   59.6120   29.4640   47.8100 C   0  0  0  0  0  0  0  0  0  0  0  0
   59.1420   29.3490   49.1030 C   0  0  0  0  0  0  0  0  0  0  0  0
   60.0700   29.9910   49.8940 C   0  0  0  0  0  0  0  0  0  0  0  0
   61.0530   30.4570   49.0300 C   0  0  0  0  0  0  0  0  0  0  0  0
   62.2700   31.2190   49.3910 C   0  0  0  0  0  0  0  0  0  0  0  0
   62.9020   32.0160   48.4220 C   0  0  0  0  0  0  0  0  0  0  0  0
   64.0510   32.7470   48.7380 C   0  0  0  0  0  0  0  0  0  0  0  0
   64.6010   32.6880   50.0340 C   0  0  0  0  0  0  0  0  0  0  0  0
   65.8120   33.4510   50.4270 C   0  0  0  0  0  0  0  0  0  0  0  0
   67.0620   33.0450   50.2010 C   0  0  0  0  0  0  0  0  0  0  0  0
   63.9610   31.9000   51.0030 C   0  0  0  0  0  0  0  0  0  0  0  0
   62.8120   31.1700   50.6870 C   0  0  0  0  0  0  0  0  0  0  0  0
   60.7470   30.1210   47.7960 O   0  0  0  0  0  0  0  0  0  0  0  0
   57.7760   27.4850   43.9730 C   0  0  0  0  0  0  0  0  0  0  0  0
   57.9790   26.1330   43.6820 C   0  0  0  0  0  0  0  0  0  0  0  0
   57.0177   21.8788   43.3879 H   0  0  0  0  0  0  0  0  0  0  0  0
   55.9315   23.4147   43.0857 H   0  0  0  0  0  0  0  0  0  0  0  0
   58.5313   23.1856   44.7137 H   0  0  0  0  0  0  0  0  0  0  0  0
   56.3480   24.7561   46.3555 H   0  0  0  0  0  0  0  0  0  0  0  0
   55.9963   27.1651   46.8748 H   0  0  0  0  0  0  0  0  0  0  0  0
   56.5660   29.8446   44.4796 H   0  0  0  0  0  0  0  0  0  0  0  0
   56.0186   29.4179   46.1446 H   0  0  0  0  0  0  0  0  0  0  0  0
   59.7687   30.4384   44.8550 H   0  0  0  0  0  0  0  0  0  0  0  0
   58.1534   30.7995   44.0751 H   0  0  0  0  0  0  0  0  0  0  0  0
   57.7097   33.0186   43.7379 H   0  0  0  0  0  0  0  0  0  0  0  0
   57.7715   35.3898   44.5053 H   0  0  0  0  0  0  0  0  0  0  0  0
   58.9109   35.9854   46.6411 H   0  0  0  0  0  0  0  0  0  0  0  0
   61.2810   34.2383   48.2738 H   0  0  0  0  0  0  0  0  0  0  0  0
   59.8993   35.3270   48.6494 H   0  0  0  0  0  0  0  0  0  0  0  0
   57.7051   33.1683   50.9858 H   0  0  0  0  0  0  0  0  0  0  0  0
   58.7496   32.5972   52.3318 H   0  0  0  0  0  0  0  0  0  0  0  0
   58.8820   35.2800   52.0610 H   0  0  0  0  0  0  0  0  0  0  0  0
   60.0351   31.8400   47.1956 H   0  0  0  0  0  0  0  0  0  0  0  0
   58.3458   28.0413   46.8604 H   0  0  0  0  0  0  0  0  0  0  0  0
   59.7174   28.6491   45.8534 H   0  0  0  0  0  0  0  0  0  0  0  0
   58.2193   28.8492   49.4330 H   0  0  0  0  0  0  0  0  0  0  0  0
   60.0388   30.1102   50.9871 H   0  0  0  0  0  0  0  0  0  0  0  0
   62.4884   32.0654   47.4039 H   0  0  0  0  0  0  0  0  0  0  0  0
   64.5290   33.3725   47.9697 H   0  0  0  0  0  0  0  0  0  0  0  0
   65.6690   34.4145   50.9382 H   0  0  0  0  0  0  0  0  0  0  0  0
   67.9094   33.6680   50.5232 H   0  0  0  0  0  0  0  0  0  0  0  0
   67.2457   32.0871   49.6924 H   0  0  0  0  0  0  0  0  0  0  0  0
   64.3687   31.8564   52.0237 H   0  0  0  0  0  0  0  0  0  0  0  0
   62.3282   30.5525   51.4581 H   0  0  0  0  0  0  0  0  0  0  0  0
   58.1776   28.2553   43.2982 H   0  0  0  0  0  0  0  0  0  0  0  0
   58.5327   25.8462   42.7758 H   0  0  0  0  0  0  0  0  0  0  0  0
  1  2  2  0
  2  3  1  0
  3  4  2  0
  4  5  1  0
  5  6  2  0
  6  7  1  0
  7  8  1  0
  8  9  1  0
  9 10  1  0
 10 11  2  0
 11 12  1  0
 12 13  2  0
 13 14  1  0
 14 15  1  0
 15 16  1  0
 16 17  1  0
 17 18  2  0
 17 19  1  0
 19 20  1  0
 14 21  2  0
  8 22  1  0
 22 23  1  0
 23 24  2  0
 24 25  1  0
 25 26  2  0
 26 27  1  0
 27 28  2  0
 28 29  1  0
 29 30  2  0
 30 31  1  0
 31 32  2  0
 30 33  1  0
 33 34  2  0
 26 35  1  0
  6 36  1  0
 36 37  2  0
 37  3  1  0
 21 10  1  0
 35 23  1  0
 34 27  1  0
  1 38  1  0
  1 39  1  0
  2 40  1  0
  4 41  1  0
  5 42  1  0
  7 43  1  0
  7 44  1  0
  9 45  1  0
  9 46  1  0
 11 47  1  0
 12 48  1  0
 13 49  1  0
 15 50  1  0
 15 51  1  0
 19 52  1  0
 19 53  1  0
 20 54  1  0
 21 55  1  0
 22 56  1  0
 22 57  1  0
 24 58  1  0
 25 59  1  0
 28 60  1  0
 29 61  1  0
 31 62  1  0
 32 63  1  0
 32 64  1  0
 33 65  1  0
 34 66  1  0
 36 67  1  0
 37 68  1  0
M  CHG  1  16  -1
M  END
>  <UniqueID>  (11) 
11

>  <SMILES>  (11) 
C=Cc1ccc(CN(Cc2cccc(C[N-]C(=O)CO)c2)Cc2ccc(-c3ccc(C=C)cc3)o2)cc1

>  <Energy>  (11) 
98.43656180457333

>  <Genealogy>  (11) 
C=Cc1ccc(CN(Cc2cccc(C[N-]C(=O)CO)c2)Cc2ccc(-c3ccc(C=C)cc3)o2)cc1 (protonated)
C=Cc1ccc(CN(Cc2cccc(C[N-]C(=O)CO)c2)Cc2ccc(-c3ccc(C=C)cc3)o2)cc1 (3D coordinates assigned)
C=Cc1ccc(CN(Cc2cccc(C[N-]C(=O)CO)c2)Cc2ccc(-c3ccc(C=C)cc3)o2)cc1 (optimized conformer: 98.43656180457333 kcal/mol)

>  <smiles>  (11) 
C=Cc1ccc(CN(Cc2cccc(CNC(=O)CO)c2)Cc2ccc(-c3ccc(C=C)cc3)o2)cc1

>  <score_type>  (11) 
oracle

>  <origin>  (11) 
adg

>  <m_score__min__energy>  (11) 
-11.57

>  <m_primary>  (11) 
energy

$$$$
11:0
     RDKit          3D

 62 65  0  0  0  0  0  0  0  0999 V2000
   57.3910   32.3530   40.7540 C   0  0  0  0  0  0  0  0  0  0  0  0
   57.1530   31.5460   41.9030 O   0  0  0  0  0  0  0  0  0  0  0  0
   57.5330   31.8930   43.2070 C   0  0  0  0  0  0  0  0  0  0  0  0
   57.2110   31.0180   44.2500 C   0  0  0  0  0  0  0  0  0  0  0  0
   57.5610   31.3210   45.5680 C   0  0  0  0  0  0  0  0  0  0  0  0
   58.2560   32.5030   45.8580 C   0  0  0  0  0  0  0  0  0  0  0  0
   58.5860   33.3860   44.8220 C   0  0  0  0  0  0  0  0  0  0  0  0
   58.2190   33.0880   43.5010 C   0  0  0  0  0  0  0  0  0  0  0  0
   59.2630   34.6810   45.1680 C   0  0  0  0  0  0  0  0  0  0  0  0
   60.3460   34.4610   46.2340 C   0  0  0  0  0  0  0  0  0  0  0  0
   59.9070   33.5670   47.3280 N   0  0  0  0  0  0  0  0  0  0  0  0
   60.7140   33.5210   48.5240 C   0  0  0  0  0  0  0  0  0  0  0  0
   60.8300   34.5630   49.2250 O   0  0  0  0  0  0  0  0  0  0  0  0
   61.4210   32.2490   48.9560 C   0  0  0  0  0  0  0  0  0  0  0  0
   60.6400   31.4700   50.0450 C   0  0  0  0  0  0  0  0  0  0  0  0
   59.4560   30.6680   49.4870 C   0  0  0  0  0  0  0  0  0  0  0  0
   59.8760   29.8890   48.3190 N   0  0  0  0  0  0  0  0  0  0  0  0
   59.7680   28.4510   48.3180 C   0  0  0  0  0  0  0  0  0  0  0  0
   60.0610   27.8110   49.3630 O   0  0  0  0  0  0  0  0  0  0  0  0
   59.3140   27.7130   47.1150 C   0  0  0  0  0  0  0  0  0  0  0  0
   59.6790   28.1580   45.8340 C   0  0  0  0  0  0  0  0  0  0  0  0
   59.2600   27.4610   44.7000 C   0  0  0  0  0  0  0  0  0  0  0  0
   58.4760   26.3120   44.8280 C   0  0  0  0  0  0  0  0  0  0  0  0
   58.1000   25.8480   46.1010 C   0  0  0  0  0  0  0  0  0  0  0  0
   57.2950   24.6680   46.2720 N   0  0  0  0  0  0  0  0  0  0  0  0
   55.5840   24.6050   45.9910 S   0  0  0  0  0  0  0  0  0  0  0  0
   55.2450   23.8460   44.4170 C   0  0  0  0  0  0  0  0  0  0  0  0
   54.9080   23.8460   47.0980 O   0  0  0  0  0  0  0  0  0  0  0  0
   55.0450   26.0080   45.9680 O   0  0  0  0  0  0  0  0  0  0  0  0
   58.5400   26.5450   47.2370 C   0  0  0  0  0  0  0  0  0  0  0  0
   60.5350   30.6010   47.2180 C   0  0  0  0  0  0  0  0  0  0  0  0
   61.7610   31.3480   47.7500 C   0  0  0  0  0  0  0  0  0  0  0  0
   58.6040   32.8760   47.2730 C   0  0  0  0  0  0  0  0  0  0  0  0
   57.6890   33.3633   41.0709 H   0  0  0  0  0  0  0  0  0  0  0  0
   58.1954   31.9054   40.1518 H   0  0  0  0  0  0  0  0  0  0  0  0
   56.4725   32.4136   40.1518 H   0  0  0  0  0  0  0  0  0  0  0  0
   56.6768   30.0819   44.0300 H   0  0  0  0  0  0  0  0  0  0  0  0
   57.2905   30.6302   46.3802 H   0  0  0  0  0  0  0  0  0  0  0  0
   58.4679   33.7901   42.6916 H   0  0  0  0  0  0  0  0  0  0  0  0
   59.7275   35.0985   44.2625 H   0  0  0  0  0  0  0  0  0  0  0  0
   58.5106   35.3770   45.5675 H   0  0  0  0  0  0  0  0  0  0  0  0
   61.2284   34.0163   45.7507 H   0  0  0  0  0  0  0  0  0  0  0  0
   60.5723   35.4406   46.6803 H   0  0  0  0  0  0  0  0  0  0  0  0
   62.3694   32.5635   49.4161 H   0  0  0  0  0  0  0  0  0  0  0  0
   61.3322   30.7724   50.5392 H   0  0  0  0  0  0  0  0  0  0  0  0
   60.2293   32.2125   50.7451 H   0  0  0  0  0  0  0  0  0  0  0  0
   59.0820   29.9847   50.2637 H   0  0  0  0  0  0  0  0  0  0  0  0
   58.6611   31.3659   49.1852 H   0  0  0  0  0  0  0  0  0  0  0  0
   60.2983   29.0605   45.7240 H   0  0  0  0  0  0  0  0  0  0  0  0
   59.5485   27.8181   43.7004 H   0  0  0  0  0  0  0  0  0  0  0  0
   58.1513   25.7677   43.9289 H   0  0  0  0  0  0  0  0  0  0  0  0
   57.7300   23.8190   46.7020 H   0  0  0  0  0  0  0  0  0  0  0  0
   54.8012   22.8523   44.5771 H   0  0  0  0  0  0  0  0  0  0  0  0
   54.5421   24.4746   43.8506 H   0  0  0  0  0  0  0  0  0  0  0  0
   56.1822   23.7420   43.8506 H   0  0  0  0  0  0  0  0  0  0  0  0
   58.2756   26.1723   48.2376 H   0  0  0  0  0  0  0  0  0  0  0  0
   60.8510   29.8779   46.4517 H   0  0  0  0  0  0  0  0  0  0  0  0
   59.8313   31.3219   46.7763 H   0  0  0  0  0  0  0  0  0  0  0  0
   62.5165   30.6114   48.0608 H   0  0  0  0  0  0  0  0  0  0  0  0
   62.1373   31.9941   46.9432 H   0  0  0  0  0  0  0  0  0  0  0  0
   58.6539   31.9631   47.8846 H   0  0  0  0  0  0  0  0  0  0  0  0
   57.8289   33.5542   47.6594 H   0  0  0  0  0  0  0  0  0  0  0  0
  1  2  1  0
  2  3  1  0
  3  4  2  0
  4  5  1  0
  5  6  2  0
  6  7  1  0
  7  8  2  0
  7  9  1  0
  9 10  1  0
 10 11  1  0
 11 12  1  0
 12 13  2  0
 12 14  1  0
 14 15  1  0
 15 16  1  0
 16 17  1  0
 17 18  1  0
 18 19  2  0
 18 20  1  0
 20 21  2  0
 21 22  1  0
 22 23  2  0
 23 24  1  0
 24 25  1  0
 25 26  1  0
 26 27  1  0
 26 28  2  0
 26 29  2  0
 24 30  2  0
 17 31  1  0
 31 32  1  0
 11 33  1  0
  8  3  1  0
 32 14  1  0
 33  6  1  0
 30 20  1  0
  1 34  1  0
  1 35  1  0
  1 36  1  0
  4 37  1  0
  5 38  1  0
  8 39  1  0
  9 40  1  0
  9 41  1  0
 10 42  1  0
 10 43  1  0
 14 44  1  0
 15 45  1  0
 15 46  1  0
 16 47  1  0
 16 48  1  0
 21 49  1  0
 22 50  1  0
 23 51  1  0
 25 52  1  0
 27 53  1  0
 27 54  1  0
 27 55  1  0
 30 56  1  0
 31 57  1  0
 31 58  1  0
 32 59  1  0
 32 60  1  0
 33 61  1  0
 33 62  1  0
M  END
>  <UniqueID>  (12) 
12

>  <SMILES>  (12) 
COc1ccc2c(c1)CCN(C(=O)C1CCN(C(=O)c3cccc(NS(C)(=O)=O)c3)CC1)C2

>  <Energy>  (12) 
71.86660683848442

>  <Genealogy>  (12) 
COc1ccc2c(c1)CCN(C(=O)C1CCN(C(=O)c3cccc(NS(C)(=O)=O)c3)CC1)C2 (3D coordinates assigned)
COc1ccc2c(c1)CCN(C(=O)C1CCN(C(=O)c3cccc(NS(C)(=O)=O)c3)CC1)C2 (nonaromatic ring conformer: 71.86660683848442 kcal/mol)

>  <smiles>  (12) 
COc1ccc2c(c1)CCN(C(=O)C1CCN(C(=O)c3cccc(NS(C)(=O)=O)c3)CC1)C2

>  <score_type>  (12) 
oracle

>  <origin>  (12) 
adg

>  <m_score__min__energy>  (12) 
-11.31

>  <m_primary>  (12) 
energy

$$$$
12:0
     RDKit          3D

 61 64  0  0  0  0  0  0  0  0999 V2000
   59.9740   35.9410   46.1920 C   0  0  0  0  0  0  0  0  0  0  0  0
   59.2120   34.6710   45.9290 C   0  0  0  0  0  0  0  0  0  0  0  0
   58.5400   34.5350   44.7010 C   0  0  0  0  0  0  0  0  0  0  0  0
   57.8130   33.3820   44.4070 C   0  0  0  0  0  0  0  0  0  0  0  0
   57.7490   32.3330   45.3330 C   0  0  0  0  0  0  0  0  0  0  0  0
   56.9640   31.1600   45.0750 N   0  0  0  0  0  0  0  0  0  0  0  0
   56.6340   30.6980   43.7550 C   0  0  0  0  0  0  0  0  0  0  0  0
   57.0550   31.3090   42.7360 O   0  0  0  0  0  0  0  0  0  0  0  0
   55.7830   29.4740   43.5750 C   0  0  0  0  0  0  0  0  0  0  0  0
   55.6770   28.7390   44.7960 O   0  0  0  0  0  0  0  0  0  0  0  0
   56.7110   28.0000   45.3950 C   0  0  0  0  0  0  0  0  0  0  0  0
   58.0480   28.4490   45.4090 C   0  0  0  0  0  0  0  0  0  0  0  0
   59.0410   27.6900   46.0320 C   0  0  0  0  0  0  0  0  0  0  0  0
   58.7140   26.4810   46.6520 C   0  0  0  0  0  0  0  0  0  0  0  0
   57.3950   26.0240   46.6370 C   0  0  0  0  0  0  0  0  0  0  0  0
   56.3940   26.7680   45.9910 C   0  0  0  0  0  0  0  0  0  0  0  0
   55.0290   26.3270   46.0070 N   0  0  0  0  0  0  0  0  0  0  0  0
   54.5400   25.0940   45.4660 C   0  0  0  0  0  0  0  0  0  0  0  0
   53.3360   24.7780   45.6670 O   0  0  0  0  0  0  0  0  0  0  0  0
   55.3630   24.2580   44.5280 C   0  0  0  0  0  0  0  0  0  0  0  0
   55.9020   23.0660   45.2580 C   0  0  0  0  0  0  0  0  0  0  0  0
   56.3880   23.0560   46.8720 S   0  0  0  0  0  0  0  0  0  0  0  0
   56.8840   21.4500   46.7970 C   0  0  0  0  0  0  0  0  0  0  0  0
   57.3800   20.8150   47.7630 O   0  0  0  0  0  0  0  0  0  0  0  0
   56.7030   20.9050   45.5750 N   0  0  0  0  0  0  0  0  0  0  0  0
   56.1620   21.8090   44.7150 C   0  0  0  0  0  0  0  0  0  0  0  0
   55.8980   21.4870   43.3900 O   0  0  0  0  0  0  0  0  0  0  0  0
   58.4170   32.4570   46.5570 C   0  0  0  0  0  0  0  0  0  0  0  0
   59.1720   33.6010   46.8590 C   0  0  0  0  0  0  0  0  0  0  0  0
   60.0200   33.6470   48.4230 S   0  0  0  0  0  0  0  0  0  0  0  0
   59.6470   34.9280   49.1180 O   0  0  0  0  0  0  0  0  0  0  0  0
   59.5470   32.5150   49.2960 O   0  0  0  0  0  0  0  0  0  0  0  0
   61.7660   33.6210   48.2510 N   0  0  0  0  0  0  0  0  0  0  0  0
   62.3800   32.6180   49.1390 C   0  0  0  0  0  0  0  0  0  0  0  0
   63.8960   32.5150   48.8790 C   0  0  0  0  0  0  0  0  0  0  0  0
   64.3410   33.5390   48.0100 O   0  0  0  0  0  0  0  0  0  0  0  0
   63.7160   33.3990   46.7460 C   0  0  0  0  0  0  0  0  0  0  0  0
   62.1760   33.3940   46.8570 C   0  0  0  0  0  0  0  0  0  0  0  0
   60.0664   36.0951   47.2772 H   0  0  0  0  0  0  0  0  0  0  0  0
   60.9765   35.8662   45.7456 H   0  0  0  0  0  0  0  0  0  0  0  0
   59.4362   36.7904   45.7456 H   0  0  0  0  0  0  0  0  0  0  0  0
   58.5886   35.3490   43.9627 H   0  0  0  0  0  0  0  0  0  0  0  0
   57.2878   33.2959   43.4443 H   0  0  0  0  0  0  0  0  0  0  0  0
   56.7310   30.5430   45.8860 H   0  0  0  0  0  0  0  0  0  0  0  0
   54.7773   29.7798   43.2509 H   0  0  0  0  0  0  0  0  0  0  0  0
   56.2529   28.8291   42.8178 H   0  0  0  0  0  0  0  0  0  0  0  0
   58.3100   29.4022   44.9266 H   0  0  0  0  0  0  0  0  0  0  0  0
   60.0823   28.0444   46.0347 H   0  0  0  0  0  0  0  0  0  0  0  0
   59.4956   25.8898   47.1516 H   0  0  0  0  0  0  0  0  0  0  0  0
   57.1384   25.0766   47.1335 H   0  0  0  0  0  0  0  0  0  0  0  0
   54.7343   23.9209   43.6907 H   0  0  0  0  0  0  0  0  0  0  0  0
   56.1997   24.8588   44.1419 H   0  0  0  0  0  0  0  0  0  0  0  0
   58.3490   31.6439   47.2947 H   0  0  0  0  0  0  0  0  0  0  0  0
   62.2123   32.9116   50.1857 H   0  0  0  0  0  0  0  0  0  0  0  0
   61.9196   31.6393   48.9386 H   0  0  0  0  0  0  0  0  0  0  0  0
   64.4301   32.6011   49.8368 H   0  0  0  0  0  0  0  0  0  0  0  0
   64.1008   31.5442   48.4040 H   0  0  0  0  0  0  0  0  0  0  0  0
   64.0226   34.2378   46.1038 H   0  0  0  0  0  0  0  0  0  0  0  0
   64.0280   32.4346   46.3188 H   0  0  0  0  0  0  0  0  0  0  0  0
   61.7635   34.1922   46.2225 H   0  0  0  0  0  0  0  0  0  0  0  0
   61.7957   32.4164   46.5259 H   0  0  0  0  0  0  0  0  0  0  0  0
  1  2  1  0
  2  3  2  0
  3  4  1  0
  4  5  2  0
  5  6  1  0
  6  7  1  0
  7  8  2  0
  7  9  1  0
  9 10  1  0
 10 11  1  0
 11 12  2  0
 12 13  1  0
 13 14  2  0
 14 15  1  0
 15 16  2  0
 16 17  1  0
 17 18  1  0
 18 19  2  0
 18 20  1  0
 20 21  1  0
 21 22  1  0
 22 23  1  0
 23 24  2  0
 23 25  1  0
 25 26  1  0
 26 27  1  0
  5 28  1  0
 28 29  2  0
 29 30  1  0
 30 31  2  0
 30 32  2  0
 30 33  1  0
 33 34  1  0
 34 35  1  0
 35 36  1  0
 36 37  1  0
 37 38  1  0
 29  2  1  0
 38 33  1  0
 16 11  1  0
 26 21  2  0
  1 39  1  0
  1 40  1  0
  1 41  1  0
  3 42  1  0
  4 43  1  0
  6 44  1  0
  9 45  1  0
  9 46  1  0
 12 47  1  0
 13 48  1  0
 14 49  1  0
 15 50  1  0
 20 51  1  0
 20 52  1  0
 28 53  1  0
 34 54  1  0
 34 55  1  0
 35 56  1  0
 35 57  1  0
 37 58  1  0
 37 59  1  0
 38 60  1  0
 38 61  1  0
M  CHG  3  17  -1  25  -1  27  -1
M  END
>  <UniqueID>  (13) 
13

>  <SMILES>  (13) 
Cc1ccc(NC(=O)COc2ccccc2[N-]C(=O)Cc2sc(=O)[n-]c2[O-])cc1S(=O)(=O)N1CCOCC1

>  <Energy>  (13) 
113.38648901849251

>  <Genealogy>  (13) 
Cc1ccc(NC(=O)COc2ccccc2[N-]C(=O)Cc2sc(=O)[n-]c2[O-])cc1S(=O)(=O)N1CCOCC1 (protonated)
Cc1ccc(NC(=O)COc2ccccc2[N-]C(=O)Cc2sc(=O)[n-]c2[O-])cc1S(=O)(=O)N1CCOCC1 (3D coordinates assigned)
Cc1ccc(NC(=O)COc2ccccc2[N-]C(=O)Cc2sc(=O)[n-]c2[O-])cc1S(=O)(=O)N1CCOCC1 (nonaromatic ring conformer: 113.38648901849251 kcal/mol)

>  <smiles>  (13) 
Cc1ccc(NC(=O)COc2ccccc2NC(=O)Cc2sc(=O)[nH]c2O)cc1S(=O)(=O)N1CCOCC1

>  <score_type>  (13) 
oracle

>  <origin>  (13) 
adg

>  <m_score__min__energy>  (13) 
-16.920000000000002

>  <m_primary>  (13) 
energy

$$$$
13:0
     RDKit          3D

 47 49  0  0  0  0  0  0  0  0999 V2000
   57.4350   32.0840   41.7340 C   0  0  0  0  0  0  0  0  0  0  0  0
   57.5340   31.6410   42.9900 C   0  0  0  0  0  0  0  0  0  0  0  0
   58.0010   32.3980   44.0020 N   0  0  0  0  0  0  0  0  0  0  0  0
   58.0130   31.6240   45.1100 C   0  0  0  0  0  0  0  0  0  0  0  0
   58.5080   32.0160   46.2980 C   0  0  0  0  0  0  0  0  0  0  0  0
   59.1420   33.3280   46.5230 C   0  0  0  0  0  0  0  0  0  0  0  0
   58.9640   34.3730   45.6890 N   0  0  0  0  0  0  0  0  0  0  0  0
   59.5780   35.4020   46.3030 C   0  0  0  0  0  0  0  0  0  0  0  0
   60.1180   35.0560   47.4850 N   0  0  0  0  0  0  0  0  0  0  0  0
   59.8670   33.7400   47.6390 C   0  0  0  0  0  0  0  0  0  0  0  0
   60.2780   32.9300   48.8720 C   0  0  0  0  0  0  0  0  0  0  0  0
   61.1490   31.7120   48.4910 C   0  0  0  0  0  0  0  0  0  0  0  0
   59.0150   32.4580   49.6130 C   0  0  0  0  0  0  0  0  0  0  0  0
   61.0980   33.7980   49.8090 C   0  0  0  0  0  0  0  0  0  0  0  0
   61.9600   34.5450   49.3690 O   0  0  0  0  0  0  0  0  0  0  0  0
   57.5330   30.3480   44.8010 C   0  0  0  0  0  0  0  0  0  0  0  0
   57.3830   29.1930   45.7130 C   0  0  0  0  0  0  0  0  0  0  0  0
   58.1510   29.0830   46.7070 O   0  0  0  0  0  0  0  0  0  0  0  0
   56.3840   28.1960   45.4420 N   0  0  0  0  0  0  0  0  0  0  0  0
   56.4920   26.9080   45.6010 C   0  0  0  0  0  0  0  0  0  0  0  0
   57.7410   26.3000   45.4150 C   0  0  0  0  0  0  0  0  0  0  0  0
   57.8660   24.9210   45.5880 C   0  0  0  0  0  0  0  0  0  0  0  0
   56.7510   24.1610   45.9430 C   0  0  0  0  0  0  0  0  0  0  0  0
   55.5200   24.7970   46.1190 C   0  0  0  0  0  0  0  0  0  0  0  0
   55.4180   26.1410   45.9440 N   0  0  0  0  0  0  0  0  0  0  0  0
   57.2130   30.3690   43.4460 C   0  0  0  0  0  0  0  0  0  0  0  0
   56.6730   29.2240   42.6340 C   0  0  0  0  0  0  0  0  0  0  0  0
   57.0462   31.4219   40.9463 H   0  0  0  0  0  0  0  0  0  0  0  0
   57.7423   33.1110   41.4872 H   0  0  0  0  0  0  0  0  0  0  0  0
   58.3480   33.3800   43.9120 H   0  0  0  0  0  0  0  0  0  0  0  0
   58.4358   31.3203   47.1470 H   0  0  0  0  0  0  0  0  0  0  0  0
   59.6321   36.4171   45.8827 H   0  0  0  0  0  0  0  0  0  0  0  0
   60.6130   35.6980   48.1420 H   0  0  0  0  0  0  0  0  0  0  0  0
   61.5044   31.2149   49.4057 H   0  0  0  0  0  0  0  0  0  0  0  0
   60.5508   31.0045   47.8981 H   0  0  0  0  0  0  0  0  0  0  0  0
   62.0119   32.0494   47.8981 H   0  0  0  0  0  0  0  0  0  0  0  0
   59.1819   32.5204   50.6985 H   0  0  0  0  0  0  0  0  0  0  0  0
   58.1656   33.0994   49.3352 H   0  0  0  0  0  0  0  0  0  0  0  0
   58.7945   31.4168   49.3352 H   0  0  0  0  0  0  0  0  0  0  0  0
   60.9152   33.7546   50.8928 H   0  0  0  0  0  0  0  0  0  0  0  0
   58.6159   26.9051   45.1348 H   0  0  0  0  0  0  0  0  0  0  0  0
   58.8418   24.4340   45.4448 H   0  0  0  0  0  0  0  0  0  0  0  0
   56.8404   23.0736   46.0826 H   0  0  0  0  0  0  0  0  0  0  0  0
   54.6329   24.2101   46.3993 H   0  0  0  0  0  0  0  0  0  0  0  0
   56.3025   28.4384   43.3090 H   0  0  0  0  0  0  0  0  0  0  0  0
   55.8484   29.5812   41.9996 H   0  0  0  0  0  0  0  0  0  0  0  0
   57.4731   28.8150   41.9996 H   0  0  0  0  0  0  0  0  0  0  0  0
  1  2  2  0
  2  3  1  0
  3  4  1  0
  4  5  2  3
  5  6  1  0
  6  7  1  0
  7  8  2  0
  8  9  1  0
  9 10  1  0
 10 11  1  0
 11 12  1  0
 11 13  1  0
 11 14  1  0
 14 15  2  0
  4 16  1  0
 16 17  1  0
 17 18  2  0
 17 19  1  0
 19 20  2  3
 20 21  1  0
 21 22  2  0
 22 23  1  0
 23 24  2  0
 24 25  1  0
 16 26  2  0
 26 27  1  0
 26  2  1  0
 10  6  2  0
 25 20  1  0
  1 28  1  0
  1 29  1  0
  3 30  1  0
  5 31  1  0
  8 32  1  0
  9 33  1  0
 12 34  1  0
 12 35  1  0
 12 36  1  0
 13 37  1  0
 13 38  1  0
 13 39  1  0
 14 40  1  0
 21 41  1  0
 22 42  1  0
 23 43  1  0
 24 44  1  0
 27 45  1  0
 27 46  1  0
 27 47  1  0
M  CHG  1  25  -1
M  END
>  <UniqueID>  (14) 
14

>  <SMILES>  (14) 
C=c1[nH]c(=Cc2nc[nH]c2C(C)(C)C=O)c(C(=O)N=c2cccc[n-]2)c1C

>  <Energy>  (14) 
115.908506929729

>  <Genealogy>  (14) 
C=c1[nH]c(=Cc2nc[nH]c2C(C)(C)C=O)c(C(=O)N=c2cccc[n-]2)c1C (protonated)
C=c1[nH]c(=Cc2nc[nH]c2C(C)(C)C=O)c(C(=O)N=c2cccc[n-]2)c1C (3D coordinates assigned)
C=c1[nH]c(=Cc2nc[nH]c2C(C)(C)C=O)c(C(=O)N=c2cccc[n-]2)c1C (optimized conformer: 115.908506929729 kcal/mol)

>  <smiles>  (14) 
C=c1[nH]c(=Cc2nc[nH]c2C(C)(C)C=O)c(C(=O)N=c2cccc[nH]2)c1C

>  <score_type>  (14) 
oracle

>  <origin>  (14) 
adg

>  <m_score__min__energy>  (14) 
-9.4499999999999993

>  <m_primary>  (14) 
energy

$$$$
14:0
     RDKit          3D

 31 33  0  0  0  0  0  0  0  0999 V2000
   60.0380   33.8670   49.3940 C   0  0  0  0  0  0  0  0  0  0  0  0
   58.9830   33.1130   48.8050 O   0  0  0  0  0  0  0  0  0  0  0  0
   58.7120   33.0700   47.4290 C   0  0  0  0  0  0  0  0  0  0  0  0
   58.2130   34.2220   46.8140 C   0  0  0  0  0  0  0  0  0  0  0  0
   57.9120   34.2240   45.4500 C   0  0  0  0  0  0  0  0  0  0  0  0
   58.1080   33.0700   44.6810 C   0  0  0  0  0  0  0  0  0  0  0  0
   57.7910   33.0770   43.3220 O   0  0  0  0  0  0  0  0  0  0  0  0
   58.6260   31.9060   45.2820 C   0  0  0  0  0  0  0  0  0  0  0  0
   58.7990   30.6360   44.4880 C   0  0  0  0  0  0  0  0  0  0  0  0
   57.6610   29.7450   44.7140 N   0  0  0  0  0  0  0  0  0  0  0  0
   56.3370   29.9970   44.5430 C   0  0  0  0  0  0  0  0  0  0  0  0
   55.8950   31.0840   44.0840 O   0  0  0  0  0  0  0  0  0  0  0  0
   55.5210   28.9720   44.9120 N   0  0  0  0  0  0  0  0  0  0  0  0
   56.4030   28.0480   45.3390 C   0  0  0  0  0  0  0  0  0  0  0  0
   56.1710   26.7850   45.8640 C   0  0  0  0  0  0  0  0  0  0  0  0
   55.0040   26.3290   45.9880 O   0  0  0  0  0  0  0  0  0  0  0  0
   57.2530   26.0450   46.2510 N   0  0  0  0  0  0  0  0  0  0  0  0
   58.5290   26.5330   46.1270 C   0  0  0  0  0  0  0  0  0  0  0  0
   59.7960   25.6230   46.6100 S   0  0  0  0  0  0  0  0  0  0  0  0
   58.7490   27.7780   45.6080 N   0  0  0  0  0  0  0  0  0  0  0  0
   57.6720   28.5050   45.2230 C   0  0  0  0  0  0  0  0  0  0  0  0
   58.9200   31.9130   46.6560 C   0  0  0  0  0  0  0  0  0  0  0  0
   59.9607   33.8117   50.4899 H   0  0  0  0  0  0  0  0  0  0  0  0
   61.0063   33.4551   49.0735 H   0  0  0  0  0  0  0  0  0  0  0  0
   59.9618   34.9165   49.0735 H   0  0  0  0  0  0  0  0  0  0  0  0
   58.0562   35.1339   47.4088 H   0  0  0  0  0  0  0  0  0  0  0  0
   57.5191   35.1364   44.9775 H   0  0  0  0  0  0  0  0  0  0  0  0
   57.1150   32.4290   42.9310 H   0  0  0  0  0  0  0  0  0  0  0  0
   58.8623   30.8815   43.4176 H   0  0  0  0  0  0  0  0  0  0  0  0
   59.7218   30.1316   44.8106 H   0  0  0  0  0  0  0  0  0  0  0  0
   59.3169   31.0044   47.1323 H   0  0  0  0  0  0  0  0  0  0  0  0
  1  2  1  0
  2  3  1  0
  3  4  2  0
  4  5  1  0
  5  6  2  0
  6  7  1  0
  6  8  1  0
  8  9  1  0
  9 10  1  0
 10 11  1  0
 11 12  2  0
 11 13  1  0
 13 14  1  0
 14 15  1  0
 15 16  2  0
 15 17  1  0
 17 18  1  0
 18 19  2  0
 18 20  1  0
 20 21  1  0
  8 22  2  0
 22  3  1  0
 21 10  1  0
 21 14  2  0
  1 23  1  0
  1 24  1  0
  1 25  1  0
  4 26  1  0
  5 27  1  0
  7 28  1  0
  9 29  1  0
  9 30  1  0
 22 31  1  0
M  CHG  3  13  -1  17  -1  20  -1
M  END
>  <UniqueID>  (15) 
15

>  <SMILES>  (15) 
COc1ccc(O)c(Cn2c(=O)[n-]c3c(=O)[n-]c(=S)[n-]c32)c1

>  <Energy>  (15) 
73.30283987386748

>  <Genealogy>  (15) 
COc1ccc(O)c(Cn2c(=O)[n-]c3c(=O)[n-]c(=S)[n-]c32)c1 (protonated)
COc1ccc(O)c(Cn2c(=O)[n-]c3c(=O)[n-]c(=S)[n-]c32)c1 (3D coordinates assigned)
COc1ccc(O)c(Cn2c(=O)[n-]c3c(=O)[n-]c(=S)[n-]c32)c1 (optimized conformer: 73.30283987386748 kcal/mol)

>  <smiles>  (15) 
COc1ccc(O)c(Cn2c(=O)[nH]c3c(=O)[nH]c(=S)[nH]c32)c1

>  <score_type>  (15) 
oracle

>  <origin>  (15) 
adg

>  <m_score__min__energy>  (15) 
-10.449999999999999

>  <m_primary>  (15) 
energy

$$$$
15:0
     RDKit          3D

 56 59  0  0  0  0  0  0  0  0999 V2000
   54.2170   29.8240   52.0330 C   0  0  0  0  0  0  0  0  0  0  0  0
   55.0470   31.1040   51.9940 C   0  0  0  0  0  0  0  0  0  0  0  0
   56.4790   30.7850   51.6760 C   0  0  0  0  0  0  0  0  0  0  0  0
   56.9750   29.6930   52.0680 O   0  0  0  0  0  0  0  0  0  0  0  0
   57.2830   31.7220   50.9400 N   0  0  0  0  0  0  0  0  0  0  0  0
   58.5150   31.3560   50.3020 C   0  0  0  0  0  0  0  0  0  0  0  0
   59.5970   32.2510   50.3120 C   0  0  0  0  0  0  0  0  0  0  0  0
   60.8080   31.8980   49.7140 C   0  0  0  0  0  0  0  0  0  0  0  0
   60.9510   30.6500   49.0990 C   0  0  0  0  0  0  0  0  0  0  0  0
   59.8730   29.7500   49.0630 C   0  0  0  0  0  0  0  0  0  0  0  0
   60.0120   28.4180   48.3660 C   0  0  0  0  0  0  0  0  0  0  0  0
   58.9140   28.2210   47.3620 C   0  0  0  0  0  0  0  0  0  0  0  0
   57.9250   27.3130   47.5150 N   0  0  0  0  0  0  0  0  0  0  0  0
   57.2300   27.4020   46.3650 C   0  0  0  0  0  0  0  0  0  0  0  0
   56.2110   26.7000   46.1260 O   0  0  0  0  0  0  0  0  0  0  0  0
   57.7250   28.3080   45.4950 N   0  0  0  0  0  0  0  0  0  0  0  0
   57.1930   28.6410   44.1710 C   0  0  0  0  0  0  0  0  0  0  0  0
   56.3510   29.8840   44.2360 C   0  0  0  0  0  0  0  0  0  0  0  0
   55.1690   29.8220   44.6700 O   0  0  0  0  0  0  0  0  0  0  0  0
   56.8720   31.1370   43.7860 N   0  0  0  0  0  0  0  0  0  0  0  0
   57.1730   31.4420   42.3860 C   0  0  0  0  0  0  0  0  0  0  0  0
   58.1360   32.6580   42.4150 C   0  0  0  0  0  0  0  0  0  0  0  0
   58.2250   32.9930   43.8660 C   0  0  0  0  0  0  0  0  0  0  0  0
   58.9260   34.0400   44.4660 C   0  0  0  0  0  0  0  0  0  0  0  0
   58.8590   34.1730   45.8650 C   0  0  0  0  0  0  0  0  0  0  0  0
   58.0980   33.2670   46.6270 C   0  0  0  0  0  0  0  0  0  0  0  0
   57.4050   32.2190   45.9980 C   0  0  0  0  0  0  0  0  0  0  0  0
   57.5030   32.1010   44.6090 C   0  0  0  0  0  0  0  0  0  0  0  0
   58.7920   28.8430   46.1280 C   0  0  0  0  0  0  0  0  0  0  0  0
   59.7370   29.8460   45.5300 C   0  0  0  0  0  0  0  0  0  0  0  0
   58.6510   30.1190   49.6500 C   0  0  0  0  0  0  0  0  0  0  0  0
   54.0320   29.5387   53.0791 H   0  0  0  0  0  0  0  0  0  0  0  0
   53.2568   29.9940   51.5240 H   0  0  0  0  0  0  0  0  0  0  0  0
   54.7639   29.0167   51.5240 H   0  0  0  0  0  0  0  0  0  0  0  0
   54.6440   31.7747   51.2209 H   0  0  0  0  0  0  0  0  0  0  0  0
   54.9986   31.5928   52.9783 H   0  0  0  0  0  0  0  0  0  0  0  0
   57.0150   32.7340   50.9690 H   0  0  0  0  0  0  0  0  0  0  0  0
   59.4899   33.2344   50.7931 H   0  0  0  0  0  0  0  0  0  0  0  0
   61.6521   32.6033   49.7265 H   0  0  0  0  0  0  0  0  0  0  0  0
   61.9119   30.3720   48.6414 H   0  0  0  0  0  0  0  0  0  0  0  0
   60.9827   28.3813   47.8498 H   0  0  0  0  0  0  0  0  0  0  0  0
   59.9466   27.6190   49.1192 H   0  0  0  0  0  0  0  0  0  0  0  0
   58.0298   28.8072   43.4766 H   0  0  0  0  0  0  0  0  0  0  0  0
   56.5672   27.8070   43.8205 H   0  0  0  0  0  0  0  0  0  0  0  0
   57.6577   30.5812   41.9022 H   0  0  0  0  0  0  0  0  0  0  0  0
   56.2594   31.6631   41.8147 H   0  0  0  0  0  0  0  0  0  0  0  0
   59.1233   32.3881   42.0119 H   0  0  0  0  0  0  0  0  0  0  0  0
   57.7841   33.4997   41.8004 H   0  0  0  0  0  0  0  0  0  0  0  0
   59.5161   34.7436   43.8603 H   0  0  0  0  0  0  0  0  0  0  0  0
   59.4032   34.9878   46.3649 H   0  0  0  0  0  0  0  0  0  0  0  0
   58.0455   33.3798   47.7199 H   0  0  0  0  0  0  0  0  0  0  0  0
   56.8012   31.5101   46.5835 H   0  0  0  0  0  0  0  0  0  0  0  0
   60.2508   30.3913   46.3354 H   0  0  0  0  0  0  0  0  0  0  0  0
   60.4798   29.3247   44.9083 H   0  0  0  0  0  0  0  0  0  0  0  0
   59.1724   30.5565   44.9083 H   0  0  0  0  0  0  0  0  0  0  0  0
   57.7927   29.4329   49.5986 H   0  0  0  0  0  0  0  0  0  0  0  0
  1  2  1  0
  2  3  1  0
  3  4  2  0
  3  5  1  0
  5  6  1  0
  6  7  2  0
  7  8  1  0
  8  9  2  0
  9 10  1  0
 10 11  1  0
 11 12  1  0
 12 13  1  0
 13 14  1  0
 14 15  2  0
 14 16  1  0
 16 17  1  0
 17 18  1  0
 18 19  2  0
 18 20  1  0
 20 21  1  0
 21 22  1  0
 22 23  1  0
 23 24  2  0
 24 25  1  0
 25 26  2  0
 26 27  1  0
 27 28  2  0
 16 29  1  0
 29 30  1  0
 10 31  2  0
 31  6  1  0
 29 12  2  0
 28 20  1  0
 28 23  1  0
  1 32  1  0
  1 33  1  0
  1 34  1  0
  2 35  1  0
  2 36  1  0
  5 37  1  0
  7 38  1  0
  8 39  1  0
  9 40  1  0
 11 41  1  0
 11 42  1  0
 17 43  1  0
 17 44  1  0
 21 45  1  0
 21 46  1  0
 22 47  1  0
 22 48  1  0
 24 49  1  0
 25 50  1  0
 26 51  1  0
 27 52  1  0
 30 53  1  0
 30 54  1  0
 30 55  1  0
 31 56  1  0
M  CHG  1  13  -1
M  END
>  <UniqueID>  (16) 
16

>  <SMILES>  (16) 
CCC(=O)Nc1cccc(Cc2[n-]c(=O)n(CC(=O)N3CCc4ccccc43)c2C)c1

>  <Energy>  (16) 
104.43122007625617

>  <Genealogy>  (16) 
CCC(=O)Nc1cccc(Cc2[n-]c(=O)n(CC(=O)N3CCc4ccccc43)c2C)c1 (protonated)
CCC(=O)Nc1cccc(Cc2[n-]c(=O)n(CC(=O)N3CCc4ccccc43)c2C)c1 (3D coordinates assigned)
CCC(=O)Nc1cccc(Cc2[n-]c(=O)n(CC(=O)N3CCc4ccccc43)c2C)c1 (nonaromatic ring conformer: 104.43122007625617 kcal/mol)

>  <smiles>  (16) 
CCC(=O)Nc1cccc(Cc2[nH]c(=O)n(CC(=O)N3CCc4ccccc43)c2C)c1

>  <score_type>  (16) 
oracle

>  <origin>  (16) 
adg

>  <m_score__min__energy>  (16) 
-11.18

>  <m_primary>  (16) 
energy

$$$$
16:0
     RDKit          3D

 49 51  0  0  0  0  0  0  0  0999 V2000
   58.8410   33.8820   52.0300 C   0  0  0  0  0  0  0  0  0  0  0  0
   58.8960   32.4190   52.0920 N   0  0  0  0  0  0  0  0  0  0  0  0
   58.0240   31.7190   53.0370 C   0  0  0  0  0  0  0  0  0  0  0  0
   59.8260   31.6580   51.2960 C   0  0  0  0  0  0  0  0  0  0  0  0
   60.2500   30.5480   51.7230 O   0  0  0  0  0  0  0  0  0  0  0  0
   60.3330   32.1520   50.0000 C   0  0  0  0  0  0  0  0  0  0  0  0
   61.6850   32.3130   49.7150 C   0  0  0  0  0  0  0  0  0  0  0  0
   61.7250   32.8300   48.4410 C   0  0  0  0  0  0  0  0  0  0  0  0
   62.8150   33.2080   47.6650 C   0  0  0  0  0  0  0  0  0  0  0  0
   62.5460   33.7230   46.3890 C   0  0  0  0  0  0  0  0  0  0  0  0
   61.2560   33.8420   45.9490 N   0  0  0  0  0  0  0  0  0  0  0  0
   60.1810   33.4710   46.7110 C   0  0  0  0  0  0  0  0  0  0  0  0
   58.9620   33.5990   46.2710 N   0  0  0  0  0  0  0  0  0  0  0  0
   58.1190   32.5620   45.7470 C   0  0  0  0  0  0  0  0  0  0  0  0
   56.8680   32.6000   45.9050 O   0  0  0  0  0  0  0  0  0  0  0  0
   58.7200   31.4710   45.0400 N   0  0  0  0  0  0  0  0  0  0  0  0
   57.9490   30.3330   44.5450 C   0  0  0  0  0  0  0  0  0  0  0  0
   58.0080   29.1980   45.5330 C   0  0  0  0  0  0  0  0  0  0  0  0
   59.0500   29.1240   46.4700 C   0  0  0  0  0  0  0  0  0  0  0  0
   59.1100   28.0600   47.3690 C   0  0  0  0  0  0  0  0  0  0  0  0
   58.1360   27.0590   47.3420 C   0  0  0  0  0  0  0  0  0  0  0  0
   57.0870   27.1100   46.4060 C   0  0  0  0  0  0  0  0  0  0  0  0
   56.0520   26.0500   46.3740 C   0  0  0  0  0  0  0  0  0  0  0  0
   54.7690   26.3080   45.8040 N   0  0  0  0  0  0  0  0  0  0  0  0
   56.2950   24.9060   46.8470 O   0  0  0  0  0  0  0  0  0  0  0  0
   57.0360   28.1860   45.5000 C   0  0  0  0  0  0  0  0  0  0  0  0
   60.4350   32.9490   47.9910 C   0  0  0  0  0  0  0  0  0  0  0  0
   59.5650   32.5200   48.9360 N   0  0  0  0  0  0  0  0  0  0  0  0
   58.1090   32.4090   48.8090 C   0  0  0  0  0  0  0  0  0  0  0  0
   58.8256   34.2919   53.0506 H   0  0  0  0  0  0  0  0  0  0  0  0
   59.7256   34.2599   51.4964 H   0  0  0  0  0  0  0  0  0  0  0  0
   57.9306   34.1924   51.4964 H   0  0  0  0  0  0  0  0  0  0  0  0
   58.3276   31.9627   54.0658 H   0  0  0  0  0  0  0  0  0  0  0  0
   56.9824   32.0346   52.8776 H   0  0  0  0  0  0  0  0  0  0  0  0
   58.1068   30.6338   52.8776 H   0  0  0  0  0  0  0  0  0  0  0  0
   62.5384   32.0775   50.3679 H   0  0  0  0  0  0  0  0  0  0  0  0
   63.8454   33.1072   48.0367 H   0  0  0  0  0  0  0  0  0  0  0  0
   63.3767   34.0331   45.7380 H   0  0  0  0  0  0  0  0  0  0  0  0
   59.7530   31.4860   44.8750 H   0  0  0  0  0  0  0  0  0  0  0  0
   56.9016   30.6375   44.4030 H   0  0  0  0  0  0  0  0  0  0  0  0
   58.3751   29.9990   43.5875 H   0  0  0  0  0  0  0  0  0  0  0  0
   59.8216   29.9076   46.4953 H   0  0  0  0  0  0  0  0  0  0  0  0
   59.9279   28.0085   48.1028 H   0  0  0  0  0  0  0  0  0  0  0  0
   58.1896   26.2252   48.0575 H   0  0  0  0  0  0  0  0  0  0  0  0
   54.0110   26.7610   46.3630 H   0  0  0  0  0  0  0  0  0  0  0  0
   56.2254   28.2343   44.7579 H   0  0  0  0  0  0  0  0  0  0  0  0
   57.6552   32.3744   49.8104 H   0  0  0  0  0  0  0  0  0  0  0  0
   57.7213   33.2802   48.2606 H   0  0  0  0  0  0  0  0  0  0  0  0
   57.8578   31.4891   48.2606 H   0  0  0  0  0  0  0  0  0  0  0  0
  1  2  1  0
  2  3  1  0
  2  4  1  0
  4  5  2  0
  4  6  1  0
  6  7  2  0
  7  8  1  0
  8  9  1  0
  9 10  2  0
 10 11  1  0
 11 12  1  0
 12 13  2  3
 13 14  1  0
 14 15  2  0
 14 16  1  0
 16 17  1  0
 17 18  1  0
 18 19  2  0
 19 20  1  0
 20 21  2  0
 21 22  1  0
 22 23  1  0
 23 24  1  0
 23 25  2  0
 22 26  2  0
 12 27  1  0
 27 28  1  0
 28 29  1  0
 28  6  1  0
 27  8  2  0
 26 18  1  0
  1 30  1  0
  1 31  1  0
  1 32  1  0
  3 33  1  0
  3 34  1  0
  3 35  1  0
  7 36  1  0
  9 37  1  0
 10 38  1  0
 16 39  1  0
 17 40  1  0
 17 41  1  0
 19 42  1  0
 20 43  1  0
 21 44  1  0
 24 45  1  0
 26 46  1  0
 29 47  1  0
 29 48  1  0
 29 49  1  0
M  CHG  2  11  -1  24  -1
M  END
>  <UniqueID>  (17) 
17

>  <SMILES>  (17) 
CN(C)C(=O)c1cc2cc[n-]c(=NC(=O)NCc3cccc(C([NH-])=O)c3)c2n1C

>  <Energy>  (17) 
90.39158800535536

>  <Genealogy>  (17) 
CN(C)C(=O)c1cc2cc[n-]c(=NC(=O)NCc3cccc(C([NH-])=O)c3)c2n1C (protonated)
CN(C)C(=O)c1cc2cc[n-]c(=NC(=O)NCc3cccc(C([NH-])=O)c3)c2n1C (3D coordinates assigned)
CN(C)C(=O)c1cc2cc[n-]c(=NC(=O)NCc3cccc(C([NH-])=O)c3)c2n1C (optimized conformer: 90.39158800535536 kcal/mol)

>  <smiles>  (17) 
CN(C)C(=O)c1cc2cc[nH]c(=NC(=O)NCc3cccc(C(N)=O)c3)c2n1C

>  <score_type>  (17) 
oracle

>  <origin>  (17) 
adg

>  <m_score__min__energy>  (17) 
-12.800000000000001

>  <m_primary>  (17) 
energy

$$$$
17:0
     RDKit          3D

 63 66  0  0  0  0  0  0  0  0999 V2000
   58.1990   31.5930   50.5200 O   0  0  0  0  0  0  0  0  0  0  0  0
   59.1940   32.0670   49.9030 C   0  0  0  0  0  0  0  0  0  0  0  0
   59.6400   33.4690   50.1900 C   0  0  0  0  0  0  0  0  0  0  0  0
   61.0610   33.5190   50.3480 O   0  0  0  0  0  0  0  0  0  0  0  0
   61.9920   33.3800   49.3020 C   0  0  0  0  0  0  0  0  0  0  0  0
   63.2590   32.7920   49.4910 C   0  0  0  0  0  0  0  0  0  0  0  0
   64.1320   32.6400   48.4080 C   0  0  0  0  0  0  0  0  0  0  0  0
   63.7530   33.0760   47.1350 C   0  0  0  0  0  0  0  0  0  0  0  0
   62.5050   33.6750   46.9440 C   0  0  0  0  0  0  0  0  0  0  0  0
   61.6310   33.8340   48.0260 C   0  0  0  0  0  0  0  0  0  0  0  0
   59.8670   31.2920   48.9050 N   0  0  0  0  0  0  0  0  0  0  0  0
   60.5040   30.0020   49.1670 C   0  0  0  0  0  0  0  0  0  0  0  0
   59.9520   28.9090   48.2920 C   0  0  0  0  0  0  0  0  0  0  0  0
   60.7190   27.7610   48.0310 C   0  0  0  0  0  0  0  0  0  0  0  0
   60.2120   26.7390   47.2260 C   0  0  0  0  0  0  0  0  0  0  0  0
   58.9190   26.8360   46.6980 C   0  0  0  0  0  0  0  0  0  0  0  0
   58.3820   25.7480   45.8620 C   0  0  0  0  0  0  0  0  0  0  0  0
   58.3300   24.4520   46.4010 C   0  0  0  0  0  0  0  0  0  0  0  0
   57.8030   23.3960   45.6540 C   0  0  0  0  0  0  0  0  0  0  0  0
   57.3240   23.6250   44.3640 C   0  0  0  0  0  0  0  0  0  0  0  0
   57.3730   24.9090   43.8140 C   0  0  0  0  0  0  0  0  0  0  0  0
   57.9030   25.9820   44.5500 C   0  0  0  0  0  0  0  0  0  0  0  0
   57.9580   27.5910   43.8100 S   0  0  0  0  0  0  0  0  0  0  0  0
   59.3040   28.2050   44.0710 O   0  0  0  0  0  0  0  0  0  0  0  0
   57.7490   27.4990   42.3250 O   0  0  0  0  0  0  0  0  0  0  0  0
   56.7290   28.6080   44.4800 N   0  0  0  0  0  0  0  0  0  0  0  0
   56.6150   29.9920   44.1520 C   0  0  0  0  0  0  0  0  0  0  0  0
   55.5730   30.6360   44.4590 O   0  0  0  0  0  0  0  0  0  0  0  0
   57.7050   30.6500   43.4950 N   0  0  0  0  0  0  0  0  0  0  0  0
   57.7310   32.0940   43.2660 C   0  0  0  0  0  0  0  0  0  0  0  0
   58.0850   32.8260   44.5340 C   0  0  0  0  0  0  0  0  0  0  0  0
   57.5660   32.3940   45.7650 C   0  0  0  0  0  0  0  0  0  0  0  0
   57.8930   33.0740   46.9460 C   0  0  0  0  0  0  0  0  0  0  0  0
   58.7400   34.1860   46.9030 C   0  0  0  0  0  0  0  0  0  0  0  0
   59.2620   34.6190   45.6800 C   0  0  0  0  0  0  0  0  0  0  0  0
   58.9400   33.9430   44.5000 C   0  0  0  0  0  0  0  0  0  0  0  0
   58.1570   27.9880   46.9360 C   0  0  0  0  0  0  0  0  0  0  0  0
   58.6730   29.0220   47.7270 C   0  0  0  0  0  0  0  0  0  0  0  0
   59.3453   34.1211   49.3546 H   0  0  0  0  0  0  0  0  0  0  0  0
   59.1656   33.8101   51.1220 H   0  0  0  0  0  0  0  0  0  0  0  0
   63.5622   32.4518   50.4922 H   0  0  0  0  0  0  0  0  0  0  0  0
   65.1182   32.1766   48.5586 H   0  0  0  0  0  0  0  0  0  0  0  0
   64.4373   32.9475   46.2834 H   0  0  0  0  0  0  0  0  0  0  0  0
   62.2092   34.0218   45.9429 H   0  0  0  0  0  0  0  0  0  0  0  0
   60.6551   34.3181   47.8739 H   0  0  0  0  0  0  0  0  0  0  0  0
   61.5838   30.0952   48.9792 H   0  0  0  0  0  0  0  0  0  0  0  0
   60.3024   29.7315   50.2140 H   0  0  0  0  0  0  0  0  0  0  0  0
   61.7259   27.6668   48.4639 H   0  0  0  0  0  0  0  0  0  0  0  0
   60.8298   25.8558   47.0062 H   0  0  0  0  0  0  0  0  0  0  0  0
   58.7067   24.2675   47.4179 H   0  0  0  0  0  0  0  0  0  0  0  0
   57.7657   22.3838   46.0829 H   0  0  0  0  0  0  0  0  0  0  0  0
   56.9066   22.7928   43.7781 H   0  0  0  0  0  0  0  0  0  0  0  0
   56.9933   25.0809   42.7960 H   0  0  0  0  0  0  0  0  0  0  0  0
   58.5470   30.0870   43.2350 H   0  0  0  0  0  0  0  0  0  0  0  0
   58.4805   32.3242   42.4945 H   0  0  0  0  0  0  0  0  0  0  0  0
   56.7331   32.4186   42.9361 H   0  0  0  0  0  0  0  0  0  0  0  0
   56.9005   31.5189   45.8026 H   0  0  0  0  0  0  0  0  0  0  0  0
   57.4830   32.7327   47.9079 H   0  0  0  0  0  0  0  0  0  0  0  0
   58.9954   34.7196   47.8304 H   0  0  0  0  0  0  0  0  0  0  0  0
   59.9278   35.4940   45.6467 H   0  0  0  0  0  0  0  0  0  0  0  0
   59.3565   34.2854   43.5412 H   0  0  0  0  0  0  0  0  0  0  0  0
   57.1511   28.0802   46.5004 H   0  0  0  0  0  0  0  0  0  0  0  0
   58.0730   29.9264   47.9060 H   0  0  0  0  0  0  0  0  0  0  0  0
  1  2  2  0
  2  3  1  0
  3  4  1  0
  4  5  1  0
  5  6  2  0
  6  7  1  0
  7  8  2  0
  8  9  1  0
  9 10  2  0
  2 11  1  0
 11 12  1  0
 12 13  1  0
 13 14  2  0
 14 15  1  0
 15 16  2  0
 16 17  1  0
 17 18  2  0
 18 19  1  0
 19 20  2  0
 20 21  1  0
 21 22  2  0
 22 23  1  0
 23 24  2  0
 23 25  2  0
 23 26  1  0
 26 27  1  0
 27 28  2  0
 27 29  1  0
 29 30  1  0
 30 31  1  0
 31 32  2  0
 32 33  1  0
 33 34  2  0
 34 35  1  0
 35 36  2  0
 16 37  1  0
 37 38  2  0
 10  5  1  0
 38 13  1  0
 22 17  1  0
 36 31  1  0
  3 39  1  0
  3 40  1  0
  6 41  1  0
  7 42  1  0
  8 43  1  0
  9 44  1  0
 10 45  1  0
 12 46  1  0
 12 47  1  0
 14 48  1  0
 15 49  1  0
 18 50  1  0
 19 51  1  0
 20 52  1  0
 21 53  1  0
 29 54  1  0
 30 55  1  0
 30 56  1  0
 32 57  1  0
 33 58  1  0
 34 59  1  0
 35 60  1  0
 36 61  1  0
 37 62  1  0
 38 63  1  0
M  CHG  2  11  -1  26  -1
M  END
>  <UniqueID>  (18) 
18

>  <SMILES>  (18) 
O=C(COc1ccccc1)[N-]Cc1ccc(-c2ccccc2S(=O)(=O)[N-]C(=O)NCc2ccccc2)cc1

>  <Energy>  (18) 
76.03459677655485

>  <Genealogy>  (18) 
O=C(COc1ccccc1)[N-]Cc1ccc(-c2ccccc2S(=O)(=O)[N-]C(=O)NCc2ccccc2)cc1 (protonated)
O=C(COc1ccccc1)[N-]Cc1ccc(-c2ccccc2S(=O)(=O)[N-]C(=O)NCc2ccccc2)cc1 (3D coordinates assigned)
O=C(COc1ccccc1)[N-]Cc1ccc(-c2ccccc2S(=O)(=O)[N-]C(=O)NCc2ccccc2)cc1 (optimized conformer: 76.03459677655485 kcal/mol)

>  <smiles>  (18) 
O=C(COc1ccccc1)NCc1ccc(-c2ccccc2S(=O)(=O)NC(=O)NCc2ccccc2)cc1

>  <score_type>  (18) 
oracle

>  <origin>  (18) 
adg

>  <m_score__min__energy>  (18) 
-13.220000000000001

>  <m_primary>  (18) 
energy

$$$$
18:0
     RDKit          3D

 27 28  0  0  0  0  0  0  0  0999 V2000
   55.0980   29.3250   44.6620 N   0  0  0  0  0  0  0  0  0  0  0  0
   56.4910   29.3710   44.3710 C   0  0  0  0  0  0  0  0  0  0  0  0
   56.8700   29.6590   43.2050 O   0  0  0  0  0  0  0  0  0  0  0  0
   57.4940   29.1560   45.4300 C   0  0  0  0  0  0  0  0  0  0  0  0
   58.4670   30.0650   45.7970 C   0  0  0  0  0  0  0  0  0  0  0  0
   59.1250   29.5760   46.8660 N   0  0  0  0  0  0  0  0  0  0  0  0
   60.2020   30.2090   47.5730 C   0  0  0  0  0  0  0  0  0  0  0  0
   60.9610   31.2690   47.1080 C   0  0  0  0  0  0  0  0  0  0  0  0
   61.8720   31.5430   48.1150 C   0  0  0  0  0  0  0  0  0  0  0  0
   62.9140   32.5880   48.1180 C   0  0  0  0  0  0  0  0  0  0  0  0
   64.1470   32.4110   47.4180 N   0  0  0  0  0  0  0  0  0  0  0  0
   62.7150   33.6600   48.7500 O   0  0  0  0  0  0  0  0  0  0  0  0
   61.6250   30.6430   49.1390 C   0  0  0  0  0  0  0  0  0  0  0  0
   60.6060   29.8330   48.8010 N   0  0  0  0  0  0  0  0  0  0  0  0
   58.6300   28.3950   47.1980 N   0  0  0  0  0  0  0  0  0  0  0  0
   57.6340   28.1050   46.3360 C   0  0  0  0  0  0  0  0  0  0  0  0
   56.9190   26.8180   46.3690 C   0  0  0  0  0  0  0  0  0  0  0  0
   55.5400   26.7340   46.0180 N   0  0  0  0  0  0  0  0  0  0  0  0
   57.5510   25.7660   46.6500 O   0  0  0  0  0  0  0  0  0  0  0  0
   54.7540   29.3460   45.6490 H   0  0  0  0  0  0  0  0  0  0  0  0
   58.6702   31.0254   45.3006 H   0  0  0  0  0  0  0  0  0  0  0  0
   60.8617   31.7853   46.1418 H   0  0  0  0  0  0  0  0  0  0  0  0
   64.8680   33.1640   47.4340 H   0  0  0  0  0  0  0  0  0  0  0  0
   64.3540   31.5400   46.8830 H   0  0  0  0  0  0  0  0  0  0  0  0
   62.1800   30.5977   50.0877 H   0  0  0  0  0  0  0  0  0  0  0  0
   60.2100   29.0630   49.3830 H   0  0  0  0  0  0  0  0  0  0  0  0
   55.1900   27.1310   45.1190 H   0  0  0  0  0  0  0  0  0  0  0  0
  1  2  1  0
  2  3  2  0
  2  4  1  0
  4  5  2  0
  5  6  1  0
  6  7  1  0
  7  8  2  0
  8  9  1  0
  9 10  1  0
 10 11  1  0
 10 12  2  0
  9 13  2  0
 13 14  1  0
  6 15  1  0
 15 16  2  0
 16 17  1  0
 17 18  1  0
 17 19  2  0
 16  4  1  0
 14  7  1  0
  1 20  1  0
  5 21  1  0
  8 22  1  0
 11 23  1  0
 11 24  1  0
 13 25  1  0
 14 26  1  0
 18 27  1  0
M  CHG  2   1  -1  18  -1
M  END
>  <UniqueID>  (19) 
19

>  <SMILES>  (19) 
[NH-]C(=O)c1cn(-c2cc(C(N)=O)c[nH]2)nc1C([NH-])=O

>  <Energy>  (19) 
84.92978842524626

>  <Genealogy>  (19) 
[NH-]C(=O)c1cn(-c2cc(C(N)=O)c[nH]2)nc1C([NH-])=O (protonated)
[NH-]C(=O)c1cn(-c2cc(C(N)=O)c[nH]2)nc1C([NH-])=O (3D coordinates assigned)
[NH-]C(=O)c1cn(-c2cc(C(N)=O)c[nH]2)nc1C([NH-])=O (optimized conformer: 84.92978842524626 kcal/mol)

>  <smiles>  (19) 
NC(=O)c1c[nH]c(-n2cc(C(N)=O)c(C(N)=O)n2)c1

>  <score_type>  (19) 
oracle

>  <origin>  (19) 
adg

>  <m_score__min__energy>  (19) 
-11.83

>  <m_primary>  (19) 
energy

$$$$
19:0
     RDKit          3D

 49 51  0  0  0  0  0  0  0  0999 V2000
   57.0400   33.7070   45.7140 C   0  0  0  0  0  0  0  0  0  0  0  0
   57.7860   32.8690   44.6800 C   0  0  0  0  0  0  0  0  0  0  0  0
   57.6660   31.4010   44.9920 C   0  0  0  0  0  0  0  0  0  0  0  0
   56.5020   30.7840   44.6500 N   0  0  0  0  0  0  0  0  0  0  0  0
   56.2580   29.4730   44.9050 C   0  0  0  0  0  0  0  0  0  0  0  0
   55.1580   28.9760   44.5510 O   0  0  0  0  0  0  0  0  0  0  0  0
   57.2280   28.6960   45.5570 C   0  0  0  0  0  0  0  0  0  0  0  0
   56.9750   26.9880   45.9440 S   0  0  0  0  0  0  0  0  0  0  0  0
   55.4980   26.7180   45.9890 O   0  0  0  0  0  0  0  0  0  0  0  0
   57.5660   26.6420   47.2820 O   0  0  0  0  0  0  0  0  0  0  0  0
   57.7240   25.9390   44.6990 C   0  0  0  0  0  0  0  0  0  0  0  0
   58.1440   24.5670   45.2440 C   0  0  0  0  0  0  0  0  0  0  0  0
   57.6150   23.4280   44.4080 C   0  0  0  0  0  0  0  0  0  0  0  0
   58.1860   22.1490   44.5140 C   0  0  0  0  0  0  0  0  0  0  0  0
   57.7110   21.0980   43.7220 C   0  0  0  0  0  0  0  0  0  0  0  0
   56.6630   21.3160   42.8230 C   0  0  0  0  0  0  0  0  0  0  0  0
   56.0860   22.5850   42.7170 C   0  0  0  0  0  0  0  0  0  0  0  0
   56.5580   23.6370   43.5080 C   0  0  0  0  0  0  0  0  0  0  0  0
   58.4400   29.2970   45.9100 C   0  0  0  0  0  0  0  0  0  0  0  0
   58.6800   30.6550   45.6470 C   0  0  0  0  0  0  0  0  0  0  0  0
   60.0120   31.2520   46.0640 C   0  0  0  0  0  0  0  0  0  0  0  0
   59.8750   32.2090   47.2270 C   0  0  0  0  0  0  0  0  0  0  0  0
   59.3360   31.7700   48.4540 C   0  0  0  0  0  0  0  0  0  0  0  0
   58.9470   30.4820   48.6210 F   0  0  0  0  0  0  0  0  0  0  0  0
   59.2060   32.6580   49.5270 C   0  0  0  0  0  0  0  0  0  0  0  0
   59.6260   33.9830   49.3970 C   0  0  0  0  0  0  0  0  0  0  0  0
   60.1910   34.4210   48.1990 C   0  0  0  0  0  0  0  0  0  0  0  0
   60.3270   33.5410   47.1190 C   0  0  0  0  0  0  0  0  0  0  0  0
   60.9010   33.9950   45.9760 F   0  0  0  0  0  0  0  0  0  0  0  0
   57.3281   33.3834   46.7251 H   0  0  0  0  0  0  0  0  0  0  0  0
   57.2979   34.7681   45.5812 H   0  0  0  0  0  0  0  0  0  0  0  0
   55.9562   33.5737   45.5812 H   0  0  0  0  0  0  0  0  0  0  0  0
   57.3597   33.0618   43.6845 H   0  0  0  0  0  0  0  0  0  0  0  0
   58.8499   33.1477   44.7024 H   0  0  0  0  0  0  0  0  0  0  0  0
   56.9982   25.7862   43.8866 H   0  0  0  0  0  0  0  0  0  0  0  0
   58.6345   26.4456   44.3465 H   0  0  0  0  0  0  0  0  0  0  0  0
   59.2426   24.5140   45.2580 H   0  0  0  0  0  0  0  0  0  0  0  0
   57.7218   24.4647   46.2546 H   0  0  0  0  0  0  0  0  0  0  0  0
   59.0093   21.9732   45.2220 H   0  0  0  0  0  0  0  0  0  0  0  0
   58.1629   20.0987   43.8069 H   0  0  0  0  0  0  0  0  0  0  0  0
   56.2924   20.4893   42.1991 H   0  0  0  0  0  0  0  0  0  0  0  0
   55.2601   22.7560   42.0108 H   0  0  0  0  0  0  0  0  0  0  0  0
   56.0989   24.6331   43.4247 H   0  0  0  0  0  0  0  0  0  0  0  0
   59.2186   28.6957   46.4021 H   0  0  0  0  0  0  0  0  0  0  0  0
   60.6893   30.4358   46.3558 H   0  0  0  0  0  0  0  0  0  0  0  0
   60.4089   31.8180   45.2084 H   0  0  0  0  0  0  0  0  0  0  0  0
   58.7715   32.3112   50.4762 H   0  0  0  0  0  0  0  0  0  0  0  0
   59.5115   34.6815   50.2390 H   0  0  0  0  0  0  0  0  0  0  0  0
   60.5312   35.4626   48.1027 H   0  0  0  0  0  0  0  0  0  0  0  0
  1  2  1  0
  2  3  1  0
  3  4  1  0
  4  5  1  0
  5  6  2  0
  5  7  1  0
  7  8  1  0
  8  9  2  0
  8 10  2  0
  8 11  1  0
 11 12  1  0
 12 13  1  0
 13 14  2  0
 14 15  1  0
 15 16  2  0
 16 17  1  0
 17 18  2  0
  7 19  2  0
 19 20  1  0
 20 21  1  0
 21 22  1  0
 22 23  2  0
 23 24  1  0
 23 25  1  0
 25 26  2  0
 26 27  1  0
 27 28  2  0
 28 29  1  0
 20  3  2  0
 28 22  1  0
 18 13  1  0
  1 30  1  0
  1 31  1  0
  1 32  1  0
  2 33  1  0
  2 34  1  0
 11 35  1  0
 11 36  1  0
 12 37  1  0
 12 38  1  0
 14 39  1  0
 15 40  1  0
 16 41  1  0
 17 42  1  0
 18 43  1  0
 19 44  1  0
 21 45  1  0
 21 46  1  0
 25 47  1  0
 26 48  1  0
 27 49  1  0
M  CHG  1   4  -1
M  END
>  <UniqueID>  (20) 
20

>  <SMILES>  (20) 
CCc1[n-]c(=O)c(S(=O)(=O)CCc2ccccc2)cc1Cc1c(F)cccc1F

>  <Energy>  (20) 
46.14436141479236

>  <Genealogy>  (20) 
CCc1[n-]c(=O)c(S(=O)(=O)CCc2ccccc2)cc1Cc1c(F)cccc1F (protonated)
CCc1[n-]c(=O)c(S(=O)(=O)CCc2ccccc2)cc1Cc1c(F)cccc1F (3D coordinates assigned)
CCc1[n-]c(=O)c(S(=O)(=O)CCc2ccccc2)cc1Cc1c(F)cccc1F (optimized conformer: 46.14436141479236 kcal/mol)

>  <smiles>  (20) 
CCc1[nH]c(=O)c(S(=O)(=O)CCc2ccccc2)cc1Cc1c(F)cccc1F

>  <score_type>  (20) 
oracle

>  <origin>  (20) 
adg

>  <m_score__min__energy>  (20) 
-10.960000000000001

>  <m_primary>  (20) 
energy

$$$$
20:0
     RDKit          3D

 41 43  0  0  0  0  0  0  0  0999 V2000
   56.8960   26.1700   45.8710 C   0  0  0  0  0  0  0  0  0  0  0  0
   56.9670   27.4210   45.4300 C   0  0  0  0  0  0  0  0  0  0  0  0
   55.8850   28.2080   45.2480 N   0  0  0  0  0  0  0  0  0  0  0  0
   56.2300   29.4400   44.7890 C   0  0  0  0  0  0  0  0  0  0  0  0
   55.3510   30.2990   44.5180 O   0  0  0  0  0  0  0  0  0  0  0  0
   57.6060   29.6480   44.6100 C   0  0  0  0  0  0  0  0  0  0  0  0
   58.2500   30.7380   44.1600 C   0  0  0  0  0  0  0  0  0  0  0  0
   58.3890   32.0010   44.9090 C   0  0  0  0  0  0  0  0  0  0  0  0
   58.2480   33.2420   44.2650 C   0  0  0  0  0  0  0  0  0  0  0  0
   58.3340   34.4270   44.9980 C   0  0  0  0  0  0  0  0  0  0  0  0
   58.5400   34.3840   46.3790 C   0  0  0  0  0  0  0  0  0  0  0  0
   58.6550   33.1560   47.0430 C   0  0  0  0  0  0  0  0  0  0  0  0
   58.8550   33.1710   48.4330 O   0  0  0  0  0  0  0  0  0  0  0  0
   59.6230   34.1410   49.1490 C   0  0  0  0  0  0  0  0  0  0  0  0
   61.1070   33.9890   48.8780 C   0  0  0  0  0  0  0  0  0  0  0  0
   61.8940   34.7160   49.4700 O   0  0  0  0  0  0  0  0  0  0  0  0
   61.6250   32.9690   47.9790 N   0  0  0  0  0  0  0  0  0  0  0  0
   62.8810   32.3780   48.4700 C   0  0  0  0  0  0  0  0  0  0  0  0
   64.0350   32.9770   47.6720 C   0  0  0  0  0  0  0  0  0  0  0  0
   63.4000   33.8010   46.5660 C   0  0  0  0  0  0  0  0  0  0  0  0
   61.9100   33.5060   46.6390 C   0  0  0  0  0  0  0  0  0  0  0  0
   58.5650   31.9630   46.2990 C   0  0  0  0  0  0  0  0  0  0  0  0
   58.3920   28.2160   45.0240 S   0  0  0  0  0  0  0  0  0  0  0  0
   57.8148   25.5789   45.9987 H   0  0  0  0  0  0  0  0  0  0  0  0
   55.9184   25.7252   46.1085 H   0  0  0  0  0  0  0  0  0  0  0  0
   58.7066   30.6846   43.1607 H   0  0  0  0  0  0  0  0  0  0  0  0
   58.0694   33.2798   43.1803 H   0  0  0  0  0  0  0  0  0  0  0  0
   58.2394   35.3965   44.4871 H   0  0  0  0  0  0  0  0  0  0  0  0
   58.6125   35.3217   46.9494 H   0  0  0  0  0  0  0  0  0  0  0  0
   59.3049   35.1474   48.8393 H   0  0  0  0  0  0  0  0  0  0  0  0
   59.4525   33.9886   50.2250 H   0  0  0  0  0  0  0  0  0  0  0  0
   60.9080   32.2080   47.8890 H   0  0  0  0  0  0  0  0  0  0  0  0
   63.0081   32.6083   49.5381 H   0  0  0  0  0  0  0  0  0  0  0  0
   62.8604   31.2853   48.3454 H   0  0  0  0  0  0  0  0  0  0  0  0
   64.6537   33.6174   48.3178 H   0  0  0  0  0  0  0  0  0  0  0  0
   64.6901   32.1935   47.2635 H   0  0  0  0  0  0  0  0  0  0  0  0
   63.5876   34.8725   46.7296 H   0  0  0  0  0  0  0  0  0  0  0  0
   63.8168   33.5480   45.5800 H   0  0  0  0  0  0  0  0  0  0  0  0
   61.3367   34.4306   46.4763 H   0  0  0  0  0  0  0  0  0  0  0  0
   61.6227   32.7800   45.8641 H   0  0  0  0  0  0  0  0  0  0  0  0
   58.6335   30.9932   46.8135 H   0  0  0  0  0  0  0  0  0  0  0  0
  1  2  2  0
  2  3  1  0
  3  4  1  0
  4  5  2  0
  4  6  1  0
  6  7  2  3
  7  8  1  0
  8  9  2  0
  9 10  1  0
 10 11  2  0
 11 12  1  0
 12 13  1  0
 13 14  1  0
 14 15  1  0
 15 16  2  0
 15 17  1  0
 17 18  1  0
 18 19  1  0
 19 20  1  0
 20 21  1  0
 12 22  2  0
  6 23  1  0
 23  2  1  0
 22  8  1  0
 21 17  1  0
  1 24  1  0
  1 25  1  0
  7 26  1  0
  9 27  1  0
 10 28  1  0
 11 29  1  0
 14 30  1  0
 14 31  1  0
 17 32  1  0
 18 33  1  0
 18 34  1  0
 19 35  1  0
 19 36  1  0
 20 37  1  0
 20 38  1  0
 21 39  1  0
 21 40  1  0
 22 41  1  0
M  CHG  2   3  -1  17   1
M  END
>  <UniqueID>  (21) 
21

>  <SMILES>  (21) 
C=c1[n-]c(=O)c(=Cc2cccc(OCC(=O)[NH+]3CCCC3)c2)s1

>  <Energy>  (21) 
85.41576079662963

>  <Genealogy>  (21) 
C=c1[n-]c(=O)c(=Cc2cccc(OCC(=O)[NH+]3CCCC3)c2)s1 (protonated)
C=c1[n-]c(=O)c(=Cc2cccc(OCC(=O)[NH+]3CCCC3)c2)s1 (3D coordinates assigned)
C=c1[n-]c(=O)c(=Cc2cccc(OCC(=O)[NH+]3CCCC3)c2)s1 (nonaromatic ring conformer: 85.41576079662963 kcal/mol)

>  <smiles>  (21) 
C=c1[nH]c(=O)c(=Cc2cccc(OCC(=O)N3CCCC3)c2)s1

>  <score_type>  (21) 
oracle

>  <origin>  (21) 
adg

>  <m_score__min__energy>  (21) 
-8.7200000000000006

>  <m_primary>  (21) 
energy

$$$$
21:0
     RDKit          3D

 57 60  0  0  0  0  0  0  0  0999 V2000
   60.0110   35.7410   46.0520 C   0  0  0  0  0  0  0  0  0  0  0  0
   58.9650   34.8950   46.7730 C   0  0  0  0  0  0  0  0  0  0  0  0
   58.0490   34.2720   45.7960 N   0  0  0  0  0  0  0  0  0  0  0  0
   58.7380   34.0150   44.5110 C   0  0  0  0  0  0  0  0  0  0  0  0
   57.9400   33.0230   43.6570 C   0  0  0  0  0  0  0  0  0  0  0  0
   57.8590   31.6890   44.3080 N   0  0  0  0  0  0  0  0  0  0  0  0
   56.6690   30.9370   43.8540 C   0  0  0  0  0  0  0  0  0  0  0  0
   56.5810   29.6060   44.5370 C   0  0  0  0  0  0  0  0  0  0  0  0
   55.4540   29.1610   44.8850 O   0  0  0  0  0  0  0  0  0  0  0  0
   57.7850   28.9000   44.8610 N   0  0  0  0  0  0  0  0  0  0  0  0
   57.9130   27.7750   45.7440 C   0  0  0  0  0  0  0  0  0  0  0  0
   57.0540   26.6650   45.6300 C   0  0  0  0  0  0  0  0  0  0  0  0
   57.1690   25.5870   46.5100 C   0  0  0  0  0  0  0  0  0  0  0  0
   58.1490   25.5950   47.5010 C   0  0  0  0  0  0  0  0  0  0  0  0
   59.0280   26.6740   47.6070 C   0  0  0  0  0  0  0  0  0  0  0  0
   58.9290   27.7680   46.7290 C   0  0  0  0  0  0  0  0  0  0  0  0
   59.8950   28.8920   46.8570 C   0  0  0  0  0  0  0  0  0  0  0  0
   60.7620   29.0810   45.9610 O   0  0  0  0  0  0  0  0  0  0  0  0
   59.8920   29.7400   48.0220 N   0  0  0  0  0  0  0  0  0  0  0  0
   59.2890   29.2360   49.2640 C   0  0  0  0  0  0  0  0  0  0  0  0
   58.6420   30.3490   50.0370 C   0  0  0  0  0  0  0  0  0  0  0  0
   57.7080   30.0940   50.8440 O   0  0  0  0  0  0  0  0  0  0  0  0
   59.1280   31.6880   49.9090 N   0  0  0  0  0  0  0  0  0  0  0  0
   60.1530   32.0000   48.9580 C   0  0  0  0  0  0  0  0  0  0  0  0
   60.7520   33.2680   48.9560 C   0  0  0  0  0  0  0  0  0  0  0  0
   61.7590   33.5660   48.0360 C   0  0  0  0  0  0  0  0  0  0  0  0
   62.1740   32.6010   47.1170 C   0  0  0  0  0  0  0  0  0  0  0  0
   61.5780   31.3370   47.1080 C   0  0  0  0  0  0  0  0  0  0  0  0
   60.5510   31.0280   48.0200 C   0  0  0  0  0  0  0  0  0  0  0  0
   57.9220   31.7550   45.7910 C   0  0  0  0  0  0  0  0  0  0  0  0
   57.3540   33.0760   46.3440 C   0  0  0  0  0  0  0  0  0  0  0  0
   60.6432   36.2523   46.7929 H   0  0  0  0  0  0  0  0  0  0  0  0
   60.6366   35.0919   45.4217 H   0  0  0  0  0  0  0  0  0  0  0  0
   59.5070   36.4885   45.4217 H   0  0  0  0  0  0  0  0  0  0  0  0
   59.4706   34.1070   47.3504 H   0  0  0  0  0  0  0  0  0  0  0  0
   58.3840   35.5415   47.4472 H   0  0  0  0  0  0  0  0  0  0  0  0
   58.8423   34.9622   43.9615 H   0  0  0  0  0  0  0  0  0  0  0  0
   59.7282   33.5843   44.7207 H   0  0  0  0  0  0  0  0  0  0  0  0
   56.9217   33.4132   43.5129 H   0  0  0  0  0  0  0  0  0  0  0  0
   58.4538   32.9062   42.6914 H   0  0  0  0  0  0  0  0  0  0  0  0
   55.7654   31.5202   44.0851 H   0  0  0  0  0  0  0  0  0  0  0  0
   56.7533   30.7694   42.7701 H   0  0  0  0  0  0  0  0  0  0  0  0
   56.2868   26.6470   44.8419 H   0  0  0  0  0  0  0  0  0  0  0  0
   56.4851   24.7301   46.4210 H   0  0  0  0  0  0  0  0  0  0  0  0
   58.2298   24.7499   48.2005 H   0  0  0  0  0  0  0  0  0  0  0  0
   59.8057   26.6686   48.3849 H   0  0  0  0  0  0  0  0  0  0  0  0
   58.5284   28.4815   49.0145 H   0  0  0  0  0  0  0  0  0  0  0  0
   60.0819   28.7926   49.8843 H   0  0  0  0  0  0  0  0  0  0  0  0
   58.7370   32.4360   50.5270 H   0  0  0  0  0  0  0  0  0  0  0  0
   60.4278   34.0294   49.6807 H   0  0  0  0  0  0  0  0  0  0  0  0
   62.2257   34.5621   48.0354 H   0  0  0  0  0  0  0  0  0  0  0  0
   62.9724   32.8360   46.3978 H   0  0  0  0  0  0  0  0  0  0  0  0
   61.9132   30.5794   46.3844 H   0  0  0  0  0  0  0  0  0  0  0  0
   57.3408   30.9188   46.2070 H   0  0  0  0  0  0  0  0  0  0  0  0
   58.9803   31.6954   46.0850 H   0  0  0  0  0  0  0  0  0  0  0  0
   56.2874   33.1377   46.0823 H   0  0  0  0  0  0  0  0  0  0  0  0
   57.5051   33.0732   47.4336 H   0  0  0  0  0  0  0  0  0  0  0  0
  1  2  1  0
  2  3  1  0
  3  4  1  0
  4  5  1  0
  5  6  1  0
  6  7  1  0
  7  8  1  0
  8  9  2  0
  8 10  1  0
 10 11  1  0
 11 12  2  0
 12 13  1  0
 13 14  2  0
 14 15  1  0
 15 16  2  0
 16 17  1  0
 17 18  2  0
 17 19  1  0
 19 20  1  0
 20 21  1  0
 21 22  2  0
 21 23  1  0
 23 24  1  0
 24 25  2  0
 25 26  1  0
 26 27  2  0
 27 28  1  0
 28 29  2  0
  6 30  1  0
 30 31  1  0
 31  3  1  0
 16 11  1  0
 29 19  1  0
 29 24  1  0
  1 32  1  0
  1 33  1  0
  1 34  1  0
  2 35  1  0
  2 36  1  0
  4 37  1  0
  4 38  1  0
  5 39  1  0
  5 40  1  0
  7 41  1  0
  7 42  1  0
 12 43  1  0
 13 44  1  0
 14 45  1  0
 15 46  1  0
 20 47  1  0
 20 48  1  0
 23 49  1  0
 25 50  1  0
 26 51  1  0
 27 52  1  0
 28 53  1  0
 30 54  1  0
 30 55  1  0
 31 56  1  0
 31 57  1  0
M  CHG  1  10  -1
M  END
>  <UniqueID>  (22) 
22

>  <SMILES>  (22) 
CCN1CCN(CC(=O)[N-]c2ccccc2C(=O)N2CC(=O)Nc3ccccc32)CC1

>  <Energy>  (22) 
83.08574889063573

>  <Genealogy>  (22) 
CCN1CCN(CC(=O)[N-]c2ccccc2C(=O)N2CC(=O)Nc3ccccc32)CC1 (protonated)
CCN1CCN(CC(=O)[N-]c2ccccc2C(=O)N2CC(=O)Nc3ccccc32)CC1 (3D coordinates assigned)
CCN1CCN(CC(=O)[N-]c2ccccc2C(=O)N2CC(=O)Nc3ccccc32)CC1 (nonaromatic ring conformer: 83.08574889063573 kcal/mol)

>  <smiles>  (22) 
CCN1CCN(CC(=O)Nc2ccccc2C(=O)N2CC(=O)Nc3ccccc32)CC1

>  <score_type>  (22) 
oracle

>  <origin>  (22) 
adg

>  <m_score__min__energy>  (22) 
-12.1

>  <m_primary>  (22) 
energy

$$$$
22:0
     RDKit          3D

 38 40  0  0  0  0  0  0  0  0999 V2000
   55.2470   26.6670   46.0030 N   0  0  0  0  0  0  0  0  0  0  0  0
   56.6380   26.9770   46.0600 C   0  0  0  0  0  0  0  0  0  0  0  0
   57.2710   26.8210   47.1380 O   0  0  0  0  0  0  0  0  0  0  0  0
   57.3300   27.5270   44.8550 C   0  0  0  0  0  0  0  0  0  0  0  0
   57.0360   28.9860   44.7190 C   0  0  0  0  0  0  0  0  0  0  0  0
   55.8060   29.5140   44.8590 N   0  0  0  0  0  0  0  0  0  0  0  0
   55.9240   30.8100   44.6320 N   0  0  0  0  0  0  0  0  0  0  0  0
   57.2230   31.0310   44.3600 C   0  0  0  0  0  0  0  0  0  0  0  0
   57.8910   32.6490   43.9810 S   0  0  0  0  0  0  0  0  0  0  0  0
   57.3580   33.4150   45.5510 C   0  0  0  0  0  0  0  0  0  0  0  0
   58.5440   33.7420   46.4120 C   0  0  0  0  0  0  0  0  0  0  0  0
   58.9120   34.9420   46.5290 O   0  0  0  0  0  0  0  0  0  0  0  0
   59.2970   32.6980   47.0580 N   0  0  0  0  0  0  0  0  0  0  0  0
   58.5780   31.5900   47.7000 C   0  0  0  0  0  0  0  0  0  0  0  0
   59.2630   30.2630   47.3760 C   0  0  0  0  0  0  0  0  0  0  0  0
   60.7130   30.2820   47.8620 C   0  0  0  0  0  0  0  0  0  0  0  0
   61.4500   31.5160   47.4040 C   0  0  0  0  0  0  0  0  0  0  0  0
   62.8540   31.5170   47.4130 C   0  0  0  0  0  0  0  0  0  0  0  0
   63.5640   32.6690   47.0720 C   0  0  0  0  0  0  0  0  0  0  0  0
   62.8800   33.8380   46.7420 C   0  0  0  0  0  0  0  0  0  0  0  0
   61.4840   33.8580   46.7410 C   0  0  0  0  0  0  0  0  0  0  0  0
   60.7480   32.6960   47.0590 C   0  0  0  0  0  0  0  0  0  0  0  0
   57.9640   29.9080   44.3970 N   0  0  0  0  0  0  0  0  0  0  0  0
   54.5750   27.0970   46.6770 H   0  0  0  0  0  0  0  0  0  0  0  0
   58.4153   27.3822   44.9603 H   0  0  0  0  0  0  0  0  0  0  0  0
   56.9689   27.0006   43.9592 H   0  0  0  0  0  0  0  0  0  0  0  0
   56.8049   34.3402   45.3318 H   0  0  0  0  0  0  0  0  0  0  0  0
   56.7147   32.7043   46.0905 H   0  0  0  0  0  0  0  0  0  0  0  0
   58.5743   31.7412   48.7895 H   0  0  0  0  0  0  0  0  0  0  0  0
   57.5450   31.5640   47.3227 H   0  0  0  0  0  0  0  0  0  0  0  0
   58.7235   29.4447   47.8753 H   0  0  0  0  0  0  0  0  0  0  0  0
   59.2526   30.1114   46.2865 H   0  0  0  0  0  0  0  0  0  0  0  0
   60.7187   30.2533   48.9616 H   0  0  0  0  0  0  0  0  0  0  0  0
   61.2238   29.4055   47.4367 H   0  0  0  0  0  0  0  0  0  0  0  0
   63.3986   30.6026   47.6910 H   0  0  0  0  0  0  0  0  0  0  0  0
   64.6639   32.6546   47.0636 H   0  0  0  0  0  0  0  0  0  0  0  0
   63.4417   34.7472   46.4817 H   0  0  0  0  0  0  0  0  0  0  0  0
   60.9526   34.7879   46.4901 H   0  0  0  0  0  0  0  0  0  0  0  0
  1  2  1  0
  2  3  2  0
  2  4  1  0
  4  5  1  0
  5  6  2  0
  6  7  1  0
  7  8  1  0
  8  9  1  0
  9 10  1  0
 10 11  1  0
 11 12  2  0
 11 13  1  0
 13 14  1  0
 14 15  1  0
 15 16  1  0
 16 17  1  0
 17 18  2  0
 18 19  1  0
 19 20  2  0
 20 21  1  0
 21 22  2  0
  8 23  2  0
 23  5  1  0
 22 13  1  0
 22 17  1  0
  1 24  1  0
  4 25  1  0
  4 26  1  0
 10 27  1  0
 10 28  1  0
 14 29  1  0
 14 30  1  0
 15 31  1  0
 15 32  1  0
 16 33  1  0
 16 34  1  0
 18 35  1  0
 19 36  1  0
 20 37  1  0
 21 38  1  0
M  CHG  2   1  -1   7  -1
M  END
>  <UniqueID>  (23) 
23

>  <SMILES>  (23) 
[NH-]C(=O)Cc1n[n-]c(SCC(=O)N2CCCc3ccccc32)n1

>  <Energy>  (23) 
70.56009542532526

>  <Genealogy>  (23) 
[NH-]C(=O)Cc1n[n-]c(SCC(=O)N2CCCc3ccccc32)n1 (protonated)
[NH-]C(=O)Cc1n[n-]c(SCC(=O)N2CCCc3ccccc32)n1 (3D coordinates assigned)
[NH-]C(=O)Cc1n[n-]c(SCC(=O)N2CCCc3ccccc32)n1 (nonaromatic ring conformer: 70.56009542532526 kcal/mol)

>  <smiles>  (23) 
NC(=O)Cc1n[nH]c(SCC(=O)N2CCCc3ccccc32)n1

>  <score_type>  (23) 
oracle

>  <origin>  (23) 
adg

>  <m_score__min__energy>  (23) 
-13.4

>  <m_primary>  (23) 
energy

$$$$
23:0
     RDKit          3D

 51 54  0  0  0  0  0  0  0  0999 V2000
   55.4997   30.7112   42.9507 H   0  0  0  0  0  0  0  0  0  0  0  0
   55.2900   29.8560   43.6100 C   0  0  0  0  0  0  0  0  0  0  0  0
   54.2898   29.3981   43.6156 H   0  0  0  0  0  0  0  0  0  0  0  0
   56.2490   29.3740   44.4030 C   0  0  0  0  0  0  0  0  0  0  0  0
   57.5470   29.8550   44.5070 C   0  0  0  0  0  0  0  0  0  0  0  0
   58.1500   30.9790   43.7170 C   0  0  0  0  0  0  0  0  0  0  0  0
   58.5555   31.7349   44.4056 H   0  0  0  0  0  0  0  0  0  0  0  0
   58.9597   30.5885   43.0831 H   0  0  0  0  0  0  0  0  0  0  0  0
   57.3768   31.4377   43.0831 H   0  0  0  0  0  0  0  0  0  0  0  0
   58.1720   29.0730   45.4710 C   0  0  0  0  0  0  0  0  0  0  0  0
   59.5740   29.1880   45.9220 C   0  0  0  0  0  0  0  0  0  0  0  0
   60.4080   28.3310   45.5220 O   0  0  0  0  0  0  0  0  0  0  0  0
   60.0080   30.2570   46.7900 N   0  0  0  0  0  0  0  0  0  0  0  0
   59.1040   30.8230   47.8000 C   0  0  0  0  0  0  0  0  0  0  0  0
   58.0622   30.6319   47.5033 H   0  0  0  0  0  0  0  0  0  0  0  0
   59.3099   30.3504   48.7717 H   0  0  0  0  0  0  0  0  0  0  0  0
   59.3270   32.3340   47.9210 C   0  0  0  0  0  0  0  0  0  0  0  0
   58.9245   32.8265   47.0235 H   0  0  0  0  0  0  0  0  0  0  0  0
   58.8126   32.6845   48.8279 H   0  0  0  0  0  0  0  0  0  0  0  0
   60.7540   32.6660   48.0470 N   0  0  0  0  0  0  0  0  0  0  0  0
   61.1170   34.0200   48.3890 C   0  0  0  0  0  0  0  0  0  0  0  0
   60.3200   34.9600   48.1130 O   0  0  0  0  0  0  0  0  0  0  0  0
   62.4500   34.3360   49.0340 C   0  0  0  0  0  0  0  0  0  0  0  0
   62.3111   35.4149   49.1972 H   0  0  0  0  0  0  0  0  0  0  0  0
   63.6820   33.8440   48.2680 C   0  0  0  0  0  0  0  0  0  0  0  0
   63.4490   33.3346   47.3213 H   0  0  0  0  0  0  0  0  0  0  0  0
   64.4314   34.5592   47.8980 H   0  0  0  0  0  0  0  0  0  0  0  0
   64.0150   32.9010   49.4170 C   0  0  0  0  0  0  0  0  0  0  0  0
   63.9780   31.8353   49.1470 H   0  0  0  0  0  0  0  0  0  0  0  0
   65.0097   32.9281   49.8860 H   0  0  0  0  0  0  0  0  0  0  0  0
   62.7920   33.3900   50.1820 C   0  0  0  0  0  0  0  0  0  0  0  0
   62.0355   32.6123   50.3633 H   0  0  0  0  0  0  0  0  0  0  0  0
   62.8945   33.7743   51.2076 H   0  0  0  0  0  0  0  0  0  0  0  0
   61.7700   31.6110   47.9230 C   0  0  0  0  0  0  0  0  0  0  0  0
   62.7474   32.0739   47.7221 H   0  0  0  0  0  0  0  0  0  0  0  0
   61.8014   31.0406   48.8630 H   0  0  0  0  0  0  0  0  0  0  0  0
   61.4240   30.6510   46.7780 C   0  0  0  0  0  0  0  0  0  0  0  0
   61.6453   31.1469   45.8214 H   0  0  0  0  0  0  0  0  0  0  0  0
   62.0280   29.7408   46.9074 H   0  0  0  0  0  0  0  0  0  0  0  0
   57.2340   28.1300   45.8830 C   0  0  0  0  0  0  0  0  0  0  0  0
   57.4310   27.2030   46.8390 C   0  0  0  0  0  0  0  0  0  0  0  0
   58.0658   27.4722   47.6960 H   0  0  0  0  0  0  0  0  0  0  0  0
   56.8490   25.8510   46.8080 C   0  0  0  0  0  0  0  0  0  0  0  0
   57.5440   24.7410   47.1120 N   0  0  0  0  0  0  0  0  0  0  0  0
   56.6660   23.7430   46.8680 C   0  0  0  0  0  0  0  0  0  0  0  0
   56.9500   22.5310   47.0490 O   0  0  0  0  0  0  0  0  0  0  0  0
   55.4650   24.1470   46.4030 N   0  0  0  0  0  0  0  0  0  0  0  0
   55.6000   25.4820   46.3580 C   0  0  0  0  0  0  0  0  0  0  0  0
   54.6180   26.3370   45.8720 O   0  0  0  0  0  0  0  0  0  0  0  0
   56.0650   28.3300   45.2360 N   0  0  0  0  0  0  0  0  0  0  0  0
   55.1640   27.8220   45.3820 H   0  0  0  0  0  0  0  0  0  0  0  0
  1  2  1  0
  2  3  1  0
  2  4  2  0
  4  5  1  0
  5  6  1  0
  6  7  1  0
  6  8  1  0
  6  9  1  0
  5 10  2  0
 10 11  1  0
 11 12  2  0
 11 13  1  0
 13 14  1  0
 14 15  1  0
 14 16  1  0
 14 17  1  0
 17 18  1  0
 17 19  1  0
 17 20  1  0
 20 21  1  0
 21 22  2  0
 21 23  1  0
 23 24  1  0
 23 25  1  0
 25 26  1  0
 25 27  1  0
 25 28  1  0
 28 29  1  0
 28 30  1  0
 28 31  1  0
 31 32  1  0
 31 33  1  0
 20 34  1  0
 34 35  1  0
 34 36  1  0
 34 37  1  0
 37 38  1  0
 37 39  1  0
 10 40  1  0
 40 41  2  0
 41 42  1  0
 41 43  1  0
 43 44  1  0
 44 45  1  0
 45 46  2  0
 45 47  1  0
 47 48  1  0
 48 49  1  0
 40 50  1  0
 50 51  1  0
 50  4  1  0
 37 13  1  0
 48 43  2  0
 31 23  1  0
M  CHG  3  44  -1  47  -1  49  -1
M  END
>  <UniqueID>  (24) 
24

>  <SMILES>  (24) 
C=c1[nH]/c(=C\c2[n-]c(=O)[n-]c2[O-])c(C(=O)N2CCN(C(=O)C3CCC3)CC2)c1C

>  <Energy>  (24) 
181.37472747665603

>  <Genealogy>  (24) 
C=c1[nH]c(=Cc2[n-]c(=O)[n-]c2[O-])c(C(=O)N2CCN(C(=O)C3CCC3)CC2)c1C (protonated)
C=c1[nH]/c(=C\c2[n-]c(=O)[n-]c2[O-])c(C(=O)N2CCN(C(=O)C3CCC3)CC2)c1C (cis-trans isomerization)
C=c1[nH]/c(=C\c2[n-]c(=O)[n-]c2[O-])c(C(=O)N2CCN(C(=O)C3CCC3)CC2)c1C (3D coordinates assigned)
C=c1[nH]/c(=C\c2[n-]c(=O)[n-]c2[O-])c(C(=O)N2CCN(C(=O)C3CCC3)CC2)c1C (nonaromatic ring conformer: 181.37472747665603 kcal/mol)

>  <smiles>  (24) 
C=c1[nH]c(=Cc2[nH]c(=O)[nH]c2O)c(C(=O)N2CCN(C(=O)C3CCC3)CC2)c1C

>  <score_type>  (24) 
oracle

>  <origin>  (24) 
adg

>  <m_score__min__energy>  (24) 
-16.359999999999999

>  <m_primary>  (24) 
energy

$$$$
24:0
     RDKit          3D

 52 55  0  0  0  0  0  0  0  0999 V2000
   57.5512   29.9213   55.7112 H   0  0  0  0  0  0  0  0  0  0  0  0
   57.0410   30.0990   54.7530 C   0  0  0  0  0  0  0  0  0  0  0  0
   55.6450   30.0890   54.6950 C   0  0  0  0  0  0  0  0  0  0  0  0
   55.0580   29.9026   55.6064 H   0  0  0  0  0  0  0  0  0  0  0  0
   54.9940   30.3160   53.4780 C   0  0  0  0  0  0  0  0  0  0  0  0
   53.5550   30.3090   53.4190 C   0  0  0  0  0  0  0  0  0  0  0  0
   52.3990   30.3040   53.3710 N   0  0  0  0  0  0  0  0  0  0  0  0
   55.7420   30.5520   52.3170 C   0  0  0  0  0  0  0  0  0  0  0  0
   55.2265   30.7299   51.3617 H   0  0  0  0  0  0  0  0  0  0  0  0
   57.1490   30.5630   52.3650 C   0  0  0  0  0  0  0  0  0  0  0  0
   57.9450   30.8090   51.1360 C   0  0  0  0  0  0  0  0  0  0  0  0
   58.8730   29.8540   50.6810 C   0  0  0  0  0  0  0  0  0  0  0  0
   59.0092   28.9166   51.2402 H   0  0  0  0  0  0  0  0  0  0  0  0
   59.6230   30.0860   49.5250 C   0  0  0  0  0  0  0  0  0  0  0  0
   60.3437   29.3301   49.1798 H   0  0  0  0  0  0  0  0  0  0  0  0
   59.4620   31.2780   48.8020 C   0  0  0  0  0  0  0  0  0  0  0  0
   60.2570   31.5250   47.5440 C   0  0  0  0  0  0  0  0  0  0  0  0
   60.7771   30.5983   47.2599 H   0  0  0  0  0  0  0  0  0  0  0  0
   60.9806   32.3299   47.7404 H   0  0  0  0  0  0  0  0  0  0  0  0
   59.3550   31.9560   46.4040 C   0  0  0  0  0  0  0  0  0  0  0  0
   59.1530   33.3370   46.2150 C   0  0  0  0  0  0  0  0  0  0  0  0
   59.6365   34.0545   46.8942 H   0  0  0  0  0  0  0  0  0  0  0  0
   58.3480   33.8060   45.1780 C   0  0  0  0  0  0  0  0  0  0  0  0
   58.2081   34.8880   45.0376 H   0  0  0  0  0  0  0  0  0  0  0  0
   57.7210   32.9070   44.3200 C   0  0  0  0  0  0  0  0  0  0  0  0
   57.0915   33.2802   43.4988 H   0  0  0  0  0  0  0  0  0  0  0  0
   57.8890   31.5350   44.4990 C   0  0  0  0  0  0  0  0  0  0  0  0
   57.3850   30.8326   43.8188 H   0  0  0  0  0  0  0  0  0  0  0  0
   58.6960   31.0370   45.5400 C   0  0  0  0  0  0  0  0  0  0  0  0
   58.8200   29.2810   45.7390 S   0  0  0  0  0  0  0  0  0  0  0  0
   58.7320   28.9410   47.2010 O   0  0  0  0  0  0  0  0  0  0  0  0
   60.1250   28.8000   45.1730 O   0  0  0  0  0  0  0  0  0  0  0  0
   57.5230   28.4880   44.9050 N   0  0  0  0  0  0  0  0  0  0  0  0
   56.8450   27.5180   45.4340 C   0  0  0  0  0  0  0  0  0  0  0  0
   55.5450   27.5240   45.6160 O   0  0  0  0  0  0  0  0  0  0  0  0
   55.1560   26.4180   46.1840 N   0  0  0  0  0  0  0  0  0  0  0  0
   56.2600   25.6650   46.3820 C   0  0  0  0  0  0  0  0  0  0  0  0
   56.2430   24.3080   47.0040 C   0  0  0  0  0  0  0  0  0  0  0  0
   56.2442   24.4068   48.0996 H   0  0  0  0  0  0  0  0  0  0  0  0
   55.3380   23.7699   46.6854 H   0  0  0  0  0  0  0  0  0  0  0  0
   57.1342   23.7474   46.6854 H   0  0  0  0  0  0  0  0  0  0  0  0
   57.3680   26.3310   45.8920 C   0  0  0  0  0  0  0  0  0  0  0  0
   58.8030   25.9130   45.9550 C   0  0  0  0  0  0  0  0  0  0  0  0
   59.1128   25.8228   47.0066 H   0  0  0  0  0  0  0  0  0  0  0  0
   58.9245   24.9421   45.4524 H   0  0  0  0  0  0  0  0  0  0  0  0
   59.4269   26.6667   45.4524 H   0  0  0  0  0  0  0  0  0  0  0  0
   58.5330   32.2300   49.2490 C   0  0  0  0  0  0  0  0  0  0  0  0
   58.3938   33.1643   48.6853 H   0  0  0  0  0  0  0  0  0  0  0  0
   57.7840   31.9990   50.4050 C   0  0  0  0  0  0  0  0  0  0  0  0
   57.0616   32.7550   50.7465 H   0  0  0  0  0  0  0  0  0  0  0  0
   57.7910   30.3340   53.5980 C   0  0  0  0  0  0  0  0  0  0  0  0
   58.8897   30.3403   53.6516 H   0  0  0  0  0  0  0  0  0  0  0  0
  1  2  1  0
  2  3  2  0
  3  4  1  0
  3  5  1  0
  5  6  1  0
  6  7  3  0
  5  8  2  0
  8  9  1  0
  8 10  1  0
 10 11  1  0
 11 12  2  0
 12 13  1  0
 12 14  1  0
 14 15  1  0
 14 16  2  0
 16 17  1  0
 17 18  1  0
 17 19  1  0
 17 20  1  0
 20 21  2  0
 21 22  1  0
 21 23  1  0
 23 24  1  0
 23 25  2  0
 25 26  1  0
 25 27  1  0
 27 28  1  0
 27 29  2  0
 29 30  1  0
 30 31  2  0
 30 32  2  0
 30 33  1  0
 33 34  2  0
 34 35  1  0
 35 36  1  0
 36 37  1  0
 37 38  1  0
 38 39  1  0
 38 40  1  0
 38 41  1  0
 37 42  2  0
 42 43  1  0
 43 44  1  0
 43 45  1  0
 43 46  1  0
 16 47  1  0
 47 48  1  0
 47 49  2  0
 49 50  1  0
 10 51  2  0
 51 52  1  0
 51  2  1  0
 49 11  1  0
 29 20  1  0
 42 34  1  0
M  CHG  1  36  -1
M  END
>  <UniqueID>  (25) 
25

>  <SMILES>  (25) 
Cc1[n-]o/c(=N\S(=O)(=O)c2ccccc2Cc2ccc(-c3cccc(C#N)c3)cc2)c1C

>  <Energy>  (25) 
96.59781920754487

>  <Genealogy>  (25) 
Cc1[n-]oc(=NS(=O)(=O)c2ccccc2Cc2ccc(-c3cccc(C#N)c3)cc2)c1C (protonated)
Cc1[n-]o/c(=N\S(=O)(=O)c2ccccc2Cc2ccc(-c3cccc(C#N)c3)cc2)c1C (cis-trans isomerization)
Cc1[n-]o/c(=N\S(=O)(=O)c2ccccc2Cc2ccc(-c3cccc(C#N)c3)cc2)c1C (3D coordinates assigned)
Cc1[n-]o/c(=N\S(=O)(=O)c2ccccc2Cc2ccc(-c3cccc(C#N)c3)cc2)c1C (optimized conformer: 96.59781920754487 kcal/mol)

>  <smiles>  (25) 
Cc1[nH]oc(=NS(=O)(=O)c2ccccc2Cc2ccc(-c3cccc(C#N)c3)cc2)c1C

>  <score_type>  (25) 
oracle

>  <origin>  (25) 
adg

>  <m_score__min__energy>  (25) 
-12.699999999999999

>  <m_primary>  (25) 
energy

$$$$
25:0
     RDKit          3D

 34 36  0  0  0  0  0  0  0  0999 V2000
   54.8790   26.1720   46.0100 N   0  0  0  0  0  0  0  0  0  0  0  0
   56.5490   25.7370   46.1030 S   0  0  0  0  0  0  0  0  0  0  0  0
   56.8780   25.3250   47.5100 O   0  0  0  0  0  0  0  0  0  0  0  0
   56.8180   24.5770   45.1860 O   0  0  0  0  0  0  0  0  0  0  0  0
   57.5420   27.1120   45.6330 C   0  0  0  0  0  0  0  0  0  0  0  0
   58.9280   26.9640   45.4840 C   0  0  0  0  0  0  0  0  0  0  0  0
   59.7120   28.0570   45.1080 C   0  0  0  0  0  0  0  0  0  0  0  0
   59.1230   29.3050   44.8960 C   0  0  0  0  0  0  0  0  0  0  0  0
   57.7380   29.4750   45.0830 C   0  0  0  0  0  0  0  0  0  0  0  0
   57.0860   30.7370   44.8530 N   0  0  0  0  0  0  0  0  0  0  0  0
   57.5440   31.9180   45.1540 C   0  0  0  0  0  0  0  0  0  0  0  0
   58.6130   32.0710   45.9810 N   0  0  0  0  0  0  0  0  0  0  0  0
   59.0690   33.3090   46.3060 C   0  0  0  0  0  0  0  0  0  0  0  0
   60.2430   33.4630   47.1990 C   0  0  0  0  0  0  0  0  0  0  0  0
   61.5210   33.0400   46.7850 C   0  0  0  0  0  0  0  0  0  0  0  0
   62.6260   33.1870   47.6310 C   0  0  0  0  0  0  0  0  0  0  0  0
   62.4690   33.7560   48.8960 C   0  0  0  0  0  0  0  0  0  0  0  0
   61.2070   34.1800   49.3190 C   0  0  0  0  0  0  0  0  0  0  0  0
   60.1000   34.0360   48.4790 C   0  0  0  0  0  0  0  0  0  0  0  0
   58.4350   34.4020   45.8030 N   0  0  0  0  0  0  0  0  0  0  0  0
   57.3620   34.2570   44.9870 C   0  0  0  0  0  0  0  0  0  0  0  0
   56.7780   35.2730   44.5270 O   0  0  0  0  0  0  0  0  0  0  0  0
   56.9160   33.0160   44.6660 N   0  0  0  0  0  0  0  0  0  0  0  0
   56.9530   28.3680   45.4280 C   0  0  0  0  0  0  0  0  0  0  0  0
   54.7740   27.0840   46.5100 H   0  0  0  0  0  0  0  0  0  0  0  0
   59.3986   25.9861   45.6634 H   0  0  0  0  0  0  0  0  0  0  0  0
   60.7974   27.9342   44.9784 H   0  0  0  0  0  0  0  0  0  0  0  0
   59.7428   30.1578   44.5820 H   0  0  0  0  0  0  0  0  0  0  0  0
   61.6515   32.5908   45.7894 H   0  0  0  0  0  0  0  0  0  0  0  0
   63.6201   32.8536   47.2986 H   0  0  0  0  0  0  0  0  0  0  0  0
   63.3388   33.8705   49.5596 H   0  0  0  0  0  0  0  0  0  0  0  0
   61.0845   34.6284   50.3160 H   0  0  0  0  0  0  0  0  0  0  0  0
   59.1094   34.3723   48.8190 H   0  0  0  0  0  0  0  0  0  0  0  0
   55.8649   28.4846   45.5392 H   0  0  0  0  0  0  0  0  0  0  0  0
  1  2  1  0
  2  3  2  0
  2  4  2  0
  2  5  1  0
  5  6  2  0
  6  7  1  0
  7  8  2  0
  8  9  1  0
  9 10  1  0
 10 11  2  3
 11 12  1  0
 12 13  1  0
 13 14  1  0
 14 15  2  0
 15 16  1  0
 16 17  2  0
 17 18  1  0
 18 19  2  0
 13 20  2  0
 20 21  1  0
 21 22  2  0
 21 23  1  0
  9 24  2  0
 24  5  1  0
 23 11  1  0
 19 14  1  0
  1 25  1  0
  6 26  1  0
  7 27  1  0
  8 28  1  0
 15 29  1  0
 16 30  1  0
 17 31  1  0
 18 32  1  0
 19 33  1  0
 24 34  1  0
M  CHG  3   1  -1  12  -1  23  -1
M  END
>  <UniqueID>  (26) 
26

>  <SMILES>  (26) 
[NH-]S(=O)(=O)c1cccc(N=c2[n-]c(-c3ccccc3)nc(=O)[n-]2)c1

>  <Energy>  (26) 
44.68591373586515

>  <Genealogy>  (26) 
[NH-]S(=O)(=O)c1cccc(N=c2[n-]c(-c3ccccc3)nc(=O)[n-]2)c1 (protonated)
[NH-]S(=O)(=O)c1cccc(N=c2[n-]c(-c3ccccc3)nc(=O)[n-]2)c1 (3D coordinates assigned)
[NH-]S(=O)(=O)c1cccc(N=c2[n-]c(-c3ccccc3)nc(=O)[n-]2)c1 (optimized conformer: 44.68591373586515 kcal/mol)

>  <smiles>  (26) 
NS(=O)(=O)c1cccc(N=c2[nH]c(-c3ccccc3)nc(=O)[nH]2)c1

>  <score_type>  (26) 
oracle

>  <origin>  (26) 
adg

>  <m_score__min__energy>  (26) 
-14.01

>  <m_primary>  (26) 
energy

$$$$
26:0
     RDKit          3D

 46 48  0  0  0  0  0  0  0  0999 V2000
   63.7370   32.4930   47.5840 C   0  0  0  0  0  0  0  0  0  0  0  0
   62.6090   33.1900   47.7420 C   0  0  0  0  0  0  0  0  0  0  0  0
   61.7430   33.5500   46.7270 C   0  0  0  0  0  0  0  0  0  0  0  0
   60.7230   34.2530   47.3450 C   0  0  0  0  0  0  0  0  0  0  0  0
   59.5590   34.8540   46.6700 C   0  0  0  0  0  0  0  0  0  0  0  0
   59.6600   36.0220   46.1970 O   0  0  0  0  0  0  0  0  0  0  0  0
   58.2910   34.1490   46.6190 N   0  0  2  0  0  0  0  0  0  0  0  0
   58.3040   32.9170   47.4550 C   0  0  0  0  0  0  0  0  0  0  0  0
   58.5150   31.6500   46.6210 C   0  0  0  0  0  0  0  0  0  0  0  0
   57.4250   31.4610   45.6350 N   0  0  0  0  0  0  0  0  0  0  0  0
   57.8230   30.5560   44.5360 C   0  0  0  0  0  0  0  0  0  0  0  0
   58.4260   29.2860   45.0790 C   0  0  0  0  0  0  0  0  0  0  0  0
   59.8190   29.1080   45.0680 C   0  0  0  0  0  0  0  0  0  0  0  0
   60.3810   27.9200   45.5450 C   0  0  0  0  0  0  0  0  0  0  0  0
   59.5580   26.9010   46.0300 C   0  0  0  0  0  0  0  0  0  0  0  0
   60.1050   25.7490   46.4910 F   0  0  0  0  0  0  0  0  0  0  0  0
   58.1700   27.0660   46.0370 C   0  0  0  0  0  0  0  0  0  0  0  0
   57.6030   28.2540   45.5600 C   0  0  0  0  0  0  0  0  0  0  0  0
   56.8310   32.7280   45.1390 C   0  0  0  0  0  0  0  0  0  0  0  0
   57.7920   33.9390   45.2190 C   0  0  2  0  0  0  0  0  0  0  0  0
   58.8950   33.8390   44.1350 C   0  0  0  0  0  0  0  0  0  0  0  0
   60.9410   34.3240   48.6400 O   0  0  0  0  0  0  0  0  0  0  0  0
   62.0610   33.6970   48.9150 C   0  0  0  0  0  0  0  0  0  0  0  0
   62.5510   33.5960   50.1520 C   0  0  0  0  0  0  0  0  0  0  0  0
   64.3628   32.2543   48.4566 H   0  0  0  0  0  0  0  0  0  0  0  0
   64.0404   32.1576   46.5813 H   0  0  0  0  0  0  0  0  0  0  0  0
   61.8430   33.3255   45.6548 H   0  0  0  0  0  0  0  0  0  0  0  0
   57.5930   34.7770   47.0850 H   0  0  0  0  0  0  0  0  0  0  0  0
   59.1190   32.9967   48.1895 H   0  0  0  0  0  0  0  0  0  0  0  0
   57.3244   32.8353   47.9486 H   0  0  0  0  0  0  0  0  0  0  0  0
   59.4721   31.7303   46.0848 H   0  0  0  0  0  0  0  0  0  0  0  0
   58.5186   30.7856   47.3013 H   0  0  0  0  0  0  0  0  0  0  0  0
   56.9357   30.3059   43.9358 H   0  0  0  0  0  0  0  0  0  0  0  0
   58.5747   31.0653   43.9151 H   0  0  0  0  0  0  0  0  0  0  0  0
   60.4704   29.9063   44.6827 H   0  0  0  0  0  0  0  0  0  0  0  0
   61.4730   27.7876   45.5383 H   0  0  0  0  0  0  0  0  0  0  0  0
   57.5228   26.2620   46.4175 H   0  0  0  0  0  0  0  0  0  0  0  0
   56.5102   28.3796   45.5619 H   0  0  0  0  0  0  0  0  0  0  0  0
   56.5378   32.5862   44.0883 H   0  0  0  0  0  0  0  0  0  0  0  0
   55.9721   32.9558   45.7873 H   0  0  0  0  0  0  0  0  0  0  0  0
   57.2400   34.8606   44.9823 H   0  0  0  0  0  0  0  0  0  0  0  0
   59.8784   33.7498   44.6197 H   0  0  0  0  0  0  0  0  0  0  0  0
   58.7136   32.9536   43.5079 H   0  0  0  0  0  0  0  0  0  0  0  0
   58.8758   34.7426   43.5079 H   0  0  0  0  0  0  0  0  0  0  0  0
   63.4948   33.0589   50.3276 H   0  0  0  0  0  0  0  0  0  0  0  0
   62.0112   34.0498   50.9962 H   0  0  0  0  0  0  0  0  0  0  0  0
  1  2  2  0
  2  3  1  0
  3  4  2  0
  4  5  1  0
  5  6  2  0
  5  7  1  0
  7  8  1  0
  8  9  1  0
  9 10  1  0
 10 11  1  0
 11 12  1  0
 12 13  2  0
 13 14  1  0
 14 15  2  0
 15 16  1  0
 15 17  1  0
 17 18  2  0
 10 19  1  0
 19 20  1  0
 20 21  1  0
  4 22  1  0
 22 23  1  0
 23 24  2  0
 23  2  1  0
 20  7  1  0
 18 12  1  0
  1 25  1  0
  1 26  1  0
  3 27  1  0
  7 28  1  1
  8 29  1  0
  8 30  1  0
  9 31  1  0
  9 32  1  0
 11 33  1  0
 11 34  1  0
 13 35  1  0
 14 36  1  0
 17 37  1  0
 18 38  1  0
 19 39  1  0
 19 40  1  0
 20 41  1  6
 21 42  1  0
 21 43  1  0
 21 44  1  0
 24 45  1  0
 24 46  1  0
M  CHG  1   7   1
M  END
>  <UniqueID>  (27) 
27

>  <SMILES>  (27) 
C=c1cc(C(=O)[N@@H+]2CCN(Cc3ccc(F)cc3)C[C@@H]2C)oc1=C

>  <Energy>  (27) 
94.6924810098812

>  <Genealogy>  (27) 
C=c1cc(C(=O)[NH+]2CCN(Cc3ccc(F)cc3)CC2C)oc1=C (protonated)
C=c1cc(C(=O)[N@@H+]2CCN(Cc3ccc(F)cc3)C[C@@H]2C)oc1=C (chirality)
C=c1cc(C(=O)[N@@H+]2CCN(Cc3ccc(F)cc3)C[C@@H]2C)oc1=C (3D coordinates assigned)
C=c1cc(C(=O)[N@@H+]2CCN(Cc3ccc(F)cc3)C[C@@H]2C)oc1=C (nonaromatic ring conformer: 94.6924810098812 kcal/mol)

>  <smiles>  (27) 
C=c1cc(C(=O)N2CCN(Cc3ccc(F)cc3)CC2C)oc1=C

>  <score_type>  (27) 
oracle

>  <origin>  (27) 
adg

>  <m_score__min__energy>  (27) 
-6.2599999999999998

>  <m_primary>  (27) 
energy

$$$$
27:0
     RDKit          3D

 42 44  0  0  0  0  0  0  0  0999 V2000
   55.1630   28.6530   45.6230 H   0  0  0  0  0  0  0  0  0  0  0  0
   55.1570   29.3420   44.8380 N   0  0  0  0  0  0  0  0  0  0  0  0
   56.3760   29.8040   44.2620 C   0  0  0  0  0  0  0  0  0  0  0  0
   56.4060   30.1480   43.0500 O   0  0  0  0  0  0  0  0  0  0  0  0
   57.5600   29.9980   45.1120 C   0  0  0  0  0  0  0  0  0  0  0  0
   58.4240   28.8990   45.2330 C   0  0  0  0  0  0  0  0  0  0  0  0
   58.2509   28.0020   44.6204 H   0  0  0  0  0  0  0  0  0  0  0  0
   59.4700   28.9290   46.0960 N   0  0  0  0  0  0  0  0  0  0  0  0
   59.7240   30.0080   46.8800 C   0  0  0  0  0  0  0  0  0  0  0  0
   60.8640   30.0000   47.7570 N   0  0  0  0  0  0  0  0  0  0  0  0
   61.6500   29.4760   47.3050 H   0  0  0  0  0  0  0  0  0  0  0  0
   60.6330   29.5030   48.6490 H   0  0  0  0  0  0  0  0  0  0  0  0
   61.2700   31.3580   48.0250 C   0  0  0  0  0  0  0  0  0  0  0  0
   60.7910   32.0310   49.1620 C   0  0  0  0  0  0  0  0  0  0  0  0
   60.1289   31.5092   49.8686 H   0  0  0  0  0  0  0  0  0  0  0  0
   61.1520   33.3600   49.3990 C   0  0  0  0  0  0  0  0  0  0  0  0
   60.7755   33.8799   50.2923 H   0  0  0  0  0  0  0  0  0  0  0  0
   61.9900   34.0300   48.5040 C   0  0  0  0  0  0  0  0  0  0  0  0
   62.2634   35.0791   48.6901 H   0  0  0  0  0  0  0  0  0  0  0  0
   62.4840   33.3700   47.3690 C   0  0  0  0  0  0  0  0  0  0  0  0
   63.3450   34.1030   46.3850 C   0  0  0  0  0  0  0  0  0  0  0  0
   64.0740   34.7236   46.9266 H   0  0  0  0  0  0  0  0  0  0  0  0
   63.8786   33.3778   45.7531 H   0  0  0  0  0  0  0  0  0  0  0  0
   62.7142   34.7455   45.7531 H   0  0  0  0  0  0  0  0  0  0  0  0
   62.1060   32.0410   47.1240 C   0  0  0  0  0  0  0  0  0  0  0  0
   62.4667   31.5293   46.2196 H   0  0  0  0  0  0  0  0  0  0  0  0
   58.9090   31.1420   46.7760 C   0  0  0  0  0  0  0  0  0  0  0  0
   59.1142   32.0193   47.4070 H   0  0  0  0  0  0  0  0  0  0  0  0
   57.8340   31.1710   45.8760 C   0  0  0  0  0  0  0  0  0  0  0  0
   57.1980   32.3090   45.7710 N   0  0  0  0  0  0  0  0  0  0  0  0
   57.6630   33.6690   45.4770 C   0  0  2  0  0  0  0  0  0  0  0  0
   56.7888   34.2103   45.0860 H   0  0  0  0  0  0  0  0  0  0  0  0
   58.8270   33.6720   44.4830 C   0  0  0  0  0  0  0  0  0  0  0  0
   58.5880   34.3372   43.6401 H   0  0  0  0  0  0  0  0  0  0  0  0
   58.9924   32.6511   44.1083 H   0  0  0  0  0  0  0  0  0  0  0  0
   59.9930   34.1310   45.1280 O   0  0  0  0  0  0  0  0  0  0  0  0
   59.5630   34.8750   46.2370 C   0  0  0  0  0  0  0  0  0  0  0  0
   59.4096   35.9245   45.9454 H   0  0  0  0  0  0  0  0  0  0  0  0
   60.3186   34.8408   47.0357 H   0  0  0  0  0  0  0  0  0  0  0  0
   58.2600   34.2820   46.7220 C   0  0  0  0  0  0  0  0  0  0  0  0
   57.6011   35.0626   47.1301 H   0  0  0  0  0  0  0  0  0  0  0  0
   58.3985   33.5522   47.5333 H   0  0  0  0  0  0  0  0  0  0  0  0
  1  2  1  0
  2  3  1  0
  3  4  2  0
  3  5  1  0
  5  6  2  0
  6  7  1  0
  6  8  1  0
  8  9  1  0
  9 10  1  0
 10 11  1  0
 10 12  1  0
 10 13  1  0
 13 14  2  0
 14 15  1  0
 14 16  1  0
 16 17  1  0
 16 18  2  0
 18 19  1  0
 18 20  1  0
 20 21  1  0
 21 22  1  0
 21 23  1  0
 21 24  1  0
 20 25  2  0
 25 26  1  0
  9 27  2  0
 27 28  1  0
 27 29  1  0
 29 30  2  0
 30 31  1  0
 31 32  1  6
 31 33  1  0
 33 34  1  0
 33 35  1  0
 33 36  1  0
 36 37  1  0
 37 38  1  0
 37 39  1  0
 37 40  1  0
 40 41  1  0
 40 42  1  0
 29  5  1  0
 40 31  1  0
 25 13  1  0
M  CHG  3   2  -1   8  -1  10   1
M  END
>  <UniqueID>  (28) 
28

>  <SMILES>  (28) 
Cc1cccc([NH2+]c2c/c(=N/[C@H]3CCOC3)c(C([NH-])=O)c[n-]2)c1

>  <Energy>  (28) 
61.446759241087705

>  <Genealogy>  (28) 
Cc1cccc([NH2+]c2cc(=NC3CCOC3)c(C([NH-])=O)c[n-]2)c1 (protonated)
Cc1cccc([NH2+]c2cc(=N[C@H]3CCOC3)c(C([NH-])=O)c[n-]2)c1 (chirality)
Cc1cccc([NH2+]c2c/c(=N/[C@H]3CCOC3)c(C([NH-])=O)c[n-]2)c1 (cis-trans isomerization)
Cc1cccc([NH2+]c2c/c(=N/[C@H]3CCOC3)c(C([NH-])=O)c[n-]2)c1 (3D coordinates assigned)
Cc1cccc([NH2+]c2c/c(=N/[C@H]3CCOC3)c(C([NH-])=O)c[n-]2)c1 (nonaromatic ring conformer: 61.446759241087705 kcal/mol)

>  <smiles>  (28) 
Cc1cccc(Nc2cc(=NC3CCOC3)c(C(N)=O)c[nH]2)c1

>  <score_type>  (28) 
oracle

>  <origin>  (28) 
adg

>  <m_score__min__energy>  (28) 
-10.890000000000001

>  <m_primary>  (28) 
energy

$$$$
28:0
     RDKit          3D

 44 46  0  0  0  0  0  0  0  0999 V2000
   56.5640   24.1470   43.9040 C   0  0  0  0  0  0  0  0  0  0  0  0
   55.8050   24.2290   44.9960 C   0  0  0  0  0  0  0  0  0  0  0  0
   55.5770   25.4940   45.7100 C   0  0  0  0  0  0  0  0  0  0  0  0
   54.4110   25.9670   45.8150 O   0  0  0  0  0  0  0  0  0  0  0  0
   56.7040   26.1760   46.2810 N   0  0  0  0  0  0  0  0  0  0  0  0
   57.2720   27.2460   45.8090 C   0  0  0  0  0  0  0  0  0  0  0  0
   56.6380   28.4210   45.6020 N   0  0  0  0  0  0  0  0  0  0  0  0
   57.4820   29.3690   45.1120 C   0  0  0  0  0  0  0  0  0  0  0  0
   57.0020   30.7230   44.7770 C   0  0  0  0  0  0  0  0  0  0  0  0
   55.9310   30.8380   44.1210 O   0  0  0  0  0  0  0  0  0  0  0  0
   57.7170   31.9080   45.1740 N   0  0  0  0  0  0  0  0  0  0  0  0
   58.3780   31.9980   46.4810 C   0  0  0  0  0  0  0  0  0  0  0  0
   58.0910   33.3690   47.1060 C   0  0  0  0  0  0  0  0  0  0  0  0
   58.4600   34.5130   46.2280 N   0  0  0  0  0  0  0  0  0  0  0  0
   59.6230   35.2510   46.7660 C   0  0  0  0  0  0  0  0  0  0  0  0
   60.6430   34.3080   47.3540 C   0  0  0  0  0  0  0  0  0  0  0  0
   61.6260   33.7260   46.5350 C   0  0  0  0  0  0  0  0  0  0  0  0
   62.5850   32.8710   47.0830 C   0  0  0  0  0  0  0  0  0  0  0  0
   62.5750   32.5930   48.4530 C   0  0  0  0  0  0  0  0  0  0  0  0
   61.6070   33.1720   49.2770 C   0  0  0  0  0  0  0  0  0  0  0  0
   60.6440   34.0290   48.7340 C   0  0  0  0  0  0  0  0  0  0  0  0
   59.7160   34.5900   49.5510 F   0  0  0  0  0  0  0  0  0  0  0  0
   58.6660   34.1510   44.8020 C   0  0  0  0  0  0  0  0  0  0  0  0
   57.6560   33.1010   44.3260 C   0  0  0  0  0  0  0  0  0  0  0  0
   58.7940   28.9360   44.9080 C   0  0  0  0  0  0  0  0  0  0  0  0
   58.8920   27.3230   45.3820 S   0  0  0  0  0  0  0  0  0  0  0  0
   56.7052   23.1775   43.4039 H   0  0  0  0  0  0  0  0  0  0  0  0
   57.0494   25.0488   43.5026 H   0  0  0  0  0  0  0  0  0  0  0  0
   55.3299   23.3137   45.3787 H   0  0  0  0  0  0  0  0  0  0  0  0
   57.9940   31.2064   47.1413 H   0  0  0  0  0  0  0  0  0  0  0  0
   59.4633   31.8738   46.3522 H   0  0  0  0  0  0  0  0  0  0  0  0
   57.0151   33.4325   47.3262 H   0  0  0  0  0  0  0  0  0  0  0  0
   58.7088   33.4459   48.0129 H   0  0  0  0  0  0  0  0  0  0  0  0
   60.0915   35.8245   45.9526 H   0  0  0  0  0  0  0  0  0  0  0  0
   59.2708   35.9236   47.5620 H   0  0  0  0  0  0  0  0  0  0  0  0
   61.6401   33.9450   45.4571 H   0  0  0  0  0  0  0  0  0  0  0  0
   63.3491   32.4158   46.4357 H   0  0  0  0  0  0  0  0  0  0  0  0
   63.3299   31.9179   48.8824 H   0  0  0  0  0  0  0  0  0  0  0  0
   61.6020   32.9536   50.3551 H   0  0  0  0  0  0  0  0  0  0  0  0
   58.5551   35.0556   44.1861 H   0  0  0  0  0  0  0  0  0  0  0  0
   59.6745   33.7233   44.7016 H   0  0  0  0  0  0  0  0  0  0  0  0
   56.6427   33.5265   44.3723 H   0  0  0  0  0  0  0  0  0  0  0  0
   57.9008   32.8153   43.2923 H   0  0  0  0  0  0  0  0  0  0  0  0
   59.6195   29.5428   44.5075 H   0  0  0  0  0  0  0  0  0  0  0  0
  1  2  2  0
  2  3  1  0
  3  4  2  0
  3  5  1  0
  5  6  2  3
  6  7  1  0
  7  8  1  0
  8  9  1  0
  9 10  2  0
  9 11  1  0
 11 12  1  0
 12 13  1  0
 13 14  1  0
 14 15  1  0
 15 16  1  0
 16 17  2  0
 17 18  1  0
 18 19  2  0
 19 20  1  0
 20 21  2  0
 21 22  1  0
 14 23  1  0
 23 24  1  0
  8 25  2  0
 25 26  1  0
 26  6  1  0
 24 11  1  0
 21 16  1  0
  1 27  1  0
  1 28  1  0
  2 29  1  0
 12 30  1  0
 12 31  1  0
 13 32  1  0
 13 33  1  0
 15 34  1  0
 15 35  1  0
 17 36  1  0
 18 37  1  0
 19 38  1  0
 20 39  1  0
 23 40  1  0
 23 41  1  0
 24 42  1  0
 24 43  1  0
 25 44  1  0
M  CHG  1   7  -1
M  END
>  <UniqueID>  (29) 
29

>  <SMILES>  (29) 
C=CC(=O)N=c1[n-]c(C(=O)N2CCN(Cc3ccccc3F)CC2)cs1

>  <Energy>  (29) 
85.75329891220606

>  <Genealogy>  (29) 
C=CC(=O)N=c1[n-]c(C(=O)N2CCN(Cc3ccccc3F)CC2)cs1 (protonated)
C=CC(=O)N=c1[n-]c(C(=O)N2CCN(Cc3ccccc3F)CC2)cs1 (3D coordinates assigned)
C=CC(=O)N=c1[n-]c(C(=O)N2CCN(Cc3ccccc3F)CC2)cs1 (nonaromatic ring conformer: 85.75329891220606 kcal/mol)

>  <smiles>  (29) 
C=CC(=O)N=c1[nH]c(C(=O)N2CCN(Cc3ccccc3F)CC2)cs1

>  <score_type>  (29) 
oracle

>  <origin>  (29) 
adg

>  <m_score__min__energy>  (29) 
-10.800000000000001

>  <m_primary>  (29) 
energy

$$$$
29:0
     RDKit          3D

 45 47  0  0  0  0  0  0  0  0999 V2000
   53.6450   29.3970   54.9360 C   0  0  0  0  0  0  0  0  0  0  0  0
   54.2360   29.7430   53.7810 C   0  0  0  0  0  0  0  0  0  0  0  0
   53.6150   30.2870   52.6450 C   0  0  0  0  0  0  0  0  0  0  0  0
   52.3130   30.4220   52.3260 C   0  0  0  0  0  0  0  0  0  0  0  0
   51.7890   30.8690   51.0260 C   0  0  0  0  0  0  0  0  0  0  0  0
   51.6810   30.0680   49.9540 N   0  0  0  0  0  0  0  0  0  0  0  0
   51.0460   30.8430   49.0480 C   0  0  0  0  0  0  0  0  0  0  0  0
   50.7710   30.4420   47.8860 O   0  0  0  0  0  0  0  0  0  0  0  0
   50.7160   32.0760   49.4870 N   0  0  0  0  0  0  0  0  0  0  0  0
   51.1790   32.0720   50.7470 C   0  0  0  0  0  0  0  0  0  0  0  0
   51.0240   33.1330   51.6300 O   0  0  0  0  0  0  0  0  0  0  0  0
   54.6370   30.7040   51.8100 C   0  0  0  0  0  0  0  0  0  0  0  0
   55.8240   30.3670   52.4240 C   0  0  0  0  0  0  0  0  0  0  0  0
   57.1540   30.6840   51.8580 C   0  0  0  0  0  0  0  0  0  0  0  0
   57.5010   30.1110   50.7880 O   0  0  0  0  0  0  0  0  0  0  0  0
   57.9750   31.7420   52.4140 N   0  0  0  0  0  0  0  0  0  0  0  0
   59.3810   31.6440   51.9360 C   0  0  0  0  0  0  0  0  0  0  0  0
   60.0680   33.0180   51.7840 C   0  0  0  0  0  0  0  0  0  0  0  0
   59.6150   33.9850   52.8030 N   0  0  0  0  0  0  0  0  0  0  0  0
   60.1290   33.6570   54.1500 C   0  0  0  0  0  0  0  0  0  0  0  0
   58.9990   33.2620   55.0480 C   0  0  0  0  0  0  0  0  0  0  0  0
   58.5400   34.0790   55.8890 O   0  0  0  0  0  0  0  0  0  0  0  0
   58.4620   31.9840   54.9660 O   0  0  0  0  0  0  0  0  0  0  0  0
   58.1440   34.1930   52.7760 C   0  0  0  0  0  0  0  0  0  0  0  0
   57.3690   33.0470   52.0910 C   0  0  0  0  0  0  0  0  0  0  0  0
   55.5850   29.7500   53.6060 N   0  0  0  0  0  0  0  0  0  0  0  0
   56.5900   29.1980   54.5200 C   0  0  0  0  0  0  0  0  0  0  0  0
   54.2453   28.9781   55.7571 H   0  0  0  0  0  0  0  0  0  0  0  0
   52.5606   29.5324   55.0611 H   0  0  0  0  0  0  0  0  0  0  0  0
   51.5772   30.1765   53.1060 H   0  0  0  0  0  0  0  0  0  0  0  0
   54.5233   31.2091   50.8395 H   0  0  0  0  0  0  0  0  0  0  0  0
   57.9700   31.6500   53.4550 H   0  0  0  0  0  0  0  0  0  0  0  0
   59.9547   31.0440   52.6577 H   0  0  0  0  0  0  0  0  0  0  0  0
   59.3562   31.1786   50.9396 H   0  0  0  0  0  0  0  0  0  0  0  0
   61.1552   32.8830   51.8826 H   0  0  0  0  0  0  0  0  0  0  0  0
   59.8019   33.4205   50.7954 H   0  0  0  0  0  0  0  0  0  0  0  0
   60.8425   32.8232   54.0743 H   0  0  0  0  0  0  0  0  0  0  0  0
   60.6309   34.5413   54.5696 H   0  0  0  0  0  0  0  0  0  0  0  0
   57.7867   34.2833   53.8124 H   0  0  0  0  0  0  0  0  0  0  0  0
   57.9583   35.1039   52.1879 H   0  0  0  0  0  0  0  0  0  0  0  0
   56.3260   33.0571   52.4403 H   0  0  0  0  0  0  0  0  0  0  0  0
   57.4081   33.1952   51.0017 H   0  0  0  0  0  0  0  0  0  0  0  0
   56.2747   29.3712   55.5595 H   0  0  0  0  0  0  0  0  0  0  0  0
   56.6922   28.1171   54.3431 H   0  0  0  0  0  0  0  0  0  0  0  0
   57.5570   29.6916   54.3431 H   0  0  0  0  0  0  0  0  0  0  0  0
  1  2  2  0
  2  3  1  0
  3  4  2  3
  4  5  1  0
  5  6  1  0
  6  7  1  0
  7  8  2  0
  7  9  1  0
  9 10  1  0
 10 11  1  0
  3 12  1  0
 12 13  2  0
 13 14  1  0
 14 15  2  0
 14 16  1  0
 16 17  1  0
 17 18  1  0
 18 19  1  0
 19 20  1  0
 20 21  1  0
 21 22  2  0
 21 23  1  0
 19 24  1  0
 24 25  1  0
 13 26  1  0
 26 27  1  0
 26  2  1  0
 10  5  2  0
 25 16  1  0
  1 28  1  0
  1 29  1  0
  4 30  1  0
 12 31  1  0
 16 32  1  0
 17 33  1  0
 17 34  1  0
 18 35  1  0
 18 36  1  0
 20 37  1  0
 20 38  1  0
 24 39  1  0
 24 40  1  0
 25 41  1  0
 25 42  1  0
 27 43  1  0
 27 44  1  0
 27 45  1  0
M  CHG  5   6  -1   9  -1  11  -1  16   1  23  -1
M  END
>  <UniqueID>  (30) 
30

>  <SMILES>  (30) 
C=c1c(=Cc2[n-]c(=O)[n-]c2[O-])cc(C(=O)[NH+]2CCN(CC(=O)[O-])CC2)n1C

>  <Energy>  (30) 
135.21531136354972

>  <Genealogy>  (30) 
C=c1c(=Cc2[n-]c(=O)[n-]c2[O-])cc(C(=O)[NH+]2CCN(CC(=O)[O-])CC2)n1C (protonated)
C=c1c(=Cc2[n-]c(=O)[n-]c2[O-])cc(C(=O)[NH+]2CCN(CC(=O)[O-])CC2)n1C (3D coordinates assigned)
C=c1c(=Cc2[n-]c(=O)[n-]c2[O-])cc(C(=O)[NH+]2CCN(CC(=O)[O-])CC2)n1C (nonaromatic ring conformer: 135.21531136354972 kcal/mol)

>  <smiles>  (30) 
C=c1c(=Cc2[nH]c(=O)[nH]c2O)cc(C(=O)N2CCN(CC(=O)O)CC2)n1C

>  <score_type>  (30) 
oracle

>  <origin>  (30) 
adg

>  <m_score__min__energy>  (30) 
-15.289999999999999

>  <m_primary>  (30) 
energy

$$$$
30:0
     RDKit          3D

 29 30  0  0  0  0  0  0  0  0999 V2000
   57.6100   32.0210   41.7840 C   0  0  0  0  0  0  0  0  0  0  0  0
   57.3620   31.6120   43.0300 C   0  0  0  0  0  0  0  0  0  0  0  0
   56.5630   30.3740   43.2970 C   0  0  0  0  0  0  0  0  0  0  0  0
   56.3970   30.2040   44.6990 O   0  0  0  0  0  0  0  0  0  0  0  0
   57.4590   29.8440   45.5050 N   0  0  0  0  0  0  0  0  0  0  0  0
   58.1490   30.6620   46.3300 C   0  0  0  0  0  0  0  0  0  0  0  0
   57.9050   31.9640   46.4640 C   0  0  0  0  0  0  0  0  0  0  0  0
   59.1250   30.0210   47.0090 N   0  0  0  0  0  0  0  0  0  0  0  0
   59.0200   28.7450   46.5840 C   0  0  0  0  0  0  0  0  0  0  0  0
   59.7430   27.8130   47.0250 O   0  0  0  0  0  0  0  0  0  0  0  0
   57.9940   28.6170   45.6560 C   0  0  0  0  0  0  0  0  0  0  0  0
   57.5280   27.5060   45.0590 C   0  0  0  0  0  0  0  0  0  0  0  0
   57.2860   26.2280   45.7620 C   0  0  0  0  0  0  0  0  0  0  0  0
   56.0040   25.8760   46.2170 C   0  0  0  0  0  0  0  0  0  0  0  0
   54.9170   26.7140   46.0000 O   0  0  0  0  0  0  0  0  0  0  0  0
   55.8210   24.7110   46.8910 N   0  0  0  0  0  0  0  0  0  0  0  0
   56.8640   23.8810   47.1510 C   0  0  0  0  0  0  0  0  0  0  0  0
   56.6710   22.8050   47.7730 O   0  0  0  0  0  0  0  0  0  0  0  0
   58.1160   24.2140   46.7460 N   0  0  0  0  0  0  0  0  0  0  0  0
   58.3510   25.3670   46.0680 C   0  0  0  0  0  0  0  0  0  0  0  0
   59.5260   25.6470   45.7120 O   0  0  0  0  0  0  0  0  0  0  0  0
   58.1994   32.9337   41.6118 H   0  0  0  0  0  0  0  0  0  0  0  0
   57.2250   31.4454   40.9293 H   0  0  0  0  0  0  0  0  0  0  0  0
   57.7520   32.1955   43.8770 H   0  0  0  0  0  0  0  0  0  0  0  0
   55.5759   30.4660   42.8204 H   0  0  0  0  0  0  0  0  0  0  0  0
   57.0925   29.5026   42.8845 H   0  0  0  0  0  0  0  0  0  0  0  0
   58.5092   32.5684   47.1565 H   0  0  0  0  0  0  0  0  0  0  0  0
   57.0992   32.4353   45.8822 H   0  0  0  0  0  0  0  0  0  0  0  0
   57.3136   27.5507   43.9810 H   0  0  0  0  0  0  0  0  0  0  0  0
  1  2  2  0
  2  3  1  0
  3  4  1  0
  4  5  1  0
  5  6  1  0
  6  7  2  0
  6  8  1  0
  8  9  1  0
  9 10  2  0
  9 11  1  0
 11 12  2  3
 12 13  1  0
 13 14  2  0
 14 15  1  0
 14 16  1  0
 16 17  1  0
 17 18  2  0
 17 19  1  0
 19 20  1  0
 20 21  2  0
 11  5  1  0
 20 13  1  0
  1 22  1  0
  1 23  1  0
  2 24  1  0
  3 25  1  0
  3 26  1  0
  7 27  1  0
  7 28  1  0
 12 29  1  0
M  CHG  4   8  -1  15  -1  16  -1  19  -1
M  END
>  <UniqueID>  (31) 
31

>  <SMILES>  (31) 
C=CCOn1c(=C)[n-]c(=O)c1=Cc1c([O-])[n-]c(=O)[n-]c1=O

>  <Energy>  (31) 
75.63757583383955

>  <Genealogy>  (31) 
C=CCOn1c(=C)[n-]c(=O)c1=Cc1c([O-])[n-]c(=O)[n-]c1=O (protonated)
C=CCOn1c(=C)[n-]c(=O)c1=Cc1c([O-])[n-]c(=O)[n-]c1=O (3D coordinates assigned)
C=CCOn1c(=C)[n-]c(=O)c1=Cc1c([O-])[n-]c(=O)[n-]c1=O (optimized conformer: 75.63757583383955 kcal/mol)

>  <smiles>  (31) 
C=CCOn1c(=C)[nH]c(=O)c1=Cc1c(O)[nH]c(=O)[nH]c1=O

>  <score_type>  (31) 
oracle

>  <origin>  (31) 
adg

>  <m_score__min__energy>  (31) 
-15.32

>  <m_primary>  (31) 
energy

$$$$
31:0
     RDKit          3D

 54 57  0  0  0  0  0  0  0  0999 V2000
   56.3960   20.7910   51.8400 C   0  0  0  0  0  0  0  0  0  0  0  0
   56.8070   21.7080   50.9600 C   0  0  0  0  0  0  0  0  0  0  0  0
   56.1170   21.9040   49.6460 C   0  0  0  0  0  0  0  0  0  0  0  0
   57.1070   21.9210   48.5700 N   0  0  0  0  0  0  0  0  0  0  0  0
   56.9880   22.5360   47.4270 C   0  0  0  0  0  0  0  0  0  0  0  0
   56.1250   23.6340   47.2480 C   0  0  0  0  0  0  0  0  0  0  0  0
   56.0510   24.2610   45.9960 C   0  0  0  0  0  0  0  0  0  0  0  0
   55.1250   25.3930   45.7970 C   0  0  0  0  0  0  0  0  0  0  0  0
   53.8990   25.1600   45.6270 O   0  0  0  0  0  0  0  0  0  0  0  0
   55.5770   26.7530   45.7510 N   0  0  0  0  0  0  0  0  0  0  0  0
   56.9630   27.1990   45.8760 C   0  0  0  0  0  0  0  0  0  0  0  0
   57.1330   28.5770   45.2960 C   0  0  0  0  0  0  0  0  0  0  0  0
   56.0640   29.2190   44.6550 C   0  0  0  0  0  0  0  0  0  0  0  0
   56.2280   30.5010   44.1260 C   0  0  0  0  0  0  0  0  0  0  0  0
   57.4680   31.1570   44.2120 C   0  0  0  0  0  0  0  0  0  0  0  0
   57.6300   32.5070   43.6210 C   0  0  0  0  0  0  0  0  0  0  0  0
   57.6920   32.6170   42.3650 O   0  0  0  0  0  0  0  0  0  0  0  0
   57.8300   33.6790   44.4540 N   0  0  0  0  0  0  0  0  0  0  0  0
   57.3780   33.4180   45.8450 C   0  0  0  0  0  0  0  0  0  0  0  0
   58.5560   33.6640   46.6970 C   0  0  0  0  0  0  0  0  0  0  0  0
   58.6490   33.5440   48.0820 C   0  0  0  0  0  0  0  0  0  0  0  0
   59.8820   33.8090   48.6960 C   0  0  0  0  0  0  0  0  0  0  0  0
   60.9870   34.1960   47.9190 C   0  0  0  0  0  0  0  0  0  0  0  0
   60.8660   34.3000   46.5260 C   0  0  0  0  0  0  0  0  0  0  0  0
   59.6310   34.0230   45.9420 C   0  0  0  0  0  0  0  0  0  0  0  0
   59.2590   34.0840   44.5120 C   0  0  0  0  0  0  0  0  0  0  0  0
   58.5310   30.5200   44.8770 C   0  0  0  0  0  0  0  0  0  0  0  0
   58.3650   29.2380   45.4070 C   0  0  0  0  0  0  0  0  0  0  0  0
   56.8750   23.8130   44.9550 C   0  0  0  0  0  0  0  0  0  0  0  0
   57.7080   22.7170   45.1640 C   0  0  0  0  0  0  0  0  0  0  0  0
   57.7410   22.1070   46.3780 N   0  0  0  0  0  0  0  0  0  0  0  0
   56.9246   20.6716   52.7972 H   0  0  0  0  0  0  0  0  0  0  0  0
   55.5289   20.1553   51.6074 H   0  0  0  0  0  0  0  0  0  0  0  0
   57.6756   22.3359   51.2074 H   0  0  0  0  0  0  0  0  0  0  0  0
   55.4081   21.0798   49.4782 H   0  0  0  0  0  0  0  0  0  0  0  0
   55.5736   22.8604   49.6577 H   0  0  0  0  0  0  0  0  0  0  0  0
   55.5121   23.9980   48.0858 H   0  0  0  0  0  0  0  0  0  0  0  0
   57.2415   27.2182   46.9400 H   0  0  0  0  0  0  0  0  0  0  0  0
   57.6101   26.5010   45.3245 H   0  0  0  0  0  0  0  0  0  0  0  0
   55.0923   28.7109   44.5684 H   0  0  0  0  0  0  0  0  0  0  0  0
   55.3791   31.0019   43.6376 H   0  0  0  0  0  0  0  0  0  0  0  0
   57.2730   34.4850   44.0860 H   0  0  0  0  0  0  0  0  0  0  0  0
   56.5584   34.0995   46.1168 H   0  0  0  0  0  0  0  0  0  0  0  0
   56.9965   32.3931   45.9637 H   0  0  0  0  0  0  0  0  0  0  0  0
   57.7749   33.2480   48.6806 H   0  0  0  0  0  0  0  0  0  0  0  0
   59.9840   33.7137   49.7871 H   0  0  0  0  0  0  0  0  0  0  0  0
   61.9488   34.4178   48.4045 H   0  0  0  0  0  0  0  0  0  0  0  0
   61.7269   34.5938   45.9075 H   0  0  0  0  0  0  0  0  0  0  0  0
   59.3845   35.1063   44.1257 H   0  0  0  0  0  0  0  0  0  0  0  0
   59.8935   33.4283   43.8977 H   0  0  0  0  0  0  0  0  0  0  0  0
   59.4981   31.0338   44.9804 H   0  0  0  0  0  0  0  0  0  0  0  0
   59.2063   28.7437   45.9148 H   0  0  0  0  0  0  0  0  0  0  0  0
   56.8639   24.3231   43.9805 H   0  0  0  0  0  0  0  0  0  0  0  0
   58.3406   22.3442   44.3449 H   0  0  0  0  0  0  0  0  0  0  0  0
  1  2  2  0
  2  3  1  0
  3  4  1  0
  4  5  2  3
  5  6  1  0
  6  7  2  0
  7  8  1  0
  8  9  2  0
  8 10  1  0
 10 11  1  0
 11 12  1  0
 12 13  2  0
 13 14  1  0
 14 15  2  0
 15 16  1  0
 16 17  2  0
 16 18  1  0
 18 19  1  0
 19 20  1  0
 20 21  2  0
 21 22  1  0
 22 23  2  0
 23 24  1  0
 24 25  2  0
 25 26  1  0
 15 27  1  0
 27 28  2  0
  7 29  1  0
 29 30  2  0
 30 31  1  0
 31  5  1  0
 28 12  1  0
 26 18  1  0
 25 20  1  0
  1 32  1  0
  1 33  1  0
  2 34  1  0
  3 35  1  0
  3 36  1  0
  6 37  1  0
 11 38  1  0
 11 39  1  0
 13 40  1  0
 14 41  1  0
 18 42  1  0
 19 43  1  0
 19 44  1  0
 21 45  1  0
 22 46  1  0
 23 47  1  0
 24 48  1  0
 26 49  1  0
 26 50  1  0
 27 51  1  0
 28 52  1  0
 29 53  1  0
 30 54  1  0
M  CHG  3  10  -1  18   1  31  -1
M  END
>  <UniqueID>  (32) 
32

>  <SMILES>  (32) 
C=CCN=c1cc(C(=O)[N-]Cc2ccc(C(=O)[NH+]3Cc4ccccc4C3)cc2)cc[n-]1

>  <Energy>  (32) 
78.02089103089038

>  <Genealogy>  (32) 
C=CCN=c1cc(C(=O)[N-]Cc2ccc(C(=O)[NH+]3Cc4ccccc4C3)cc2)cc[n-]1 (protonated)
C=CCN=c1cc(C(=O)[N-]Cc2ccc(C(=O)[NH+]3Cc4ccccc4C3)cc2)cc[n-]1 (3D coordinates assigned)
C=CCN=c1cc(C(=O)[N-]Cc2ccc(C(=O)[NH+]3Cc4ccccc4C3)cc2)cc[n-]1 (nonaromatic ring conformer: 78.02089103089038 kcal/mol)

>  <smiles>  (32) 
C=CCN=c1cc(C(=O)NCc2ccc(C(=O)N3Cc4ccccc4C3)cc2)cc[nH]1

>  <score_type>  (32) 
oracle

>  <origin>  (32) 
adg

>  <m_score__min__energy>  (32) 
-11.119999999999999

>  <m_primary>  (32) 
energy

$$$$
32:0
     RDKit          3D

 57 60  0  0  0  0  0  0  0  0999 V2000
   51.1120   32.3630   51.2260 N   0  0  0  0  0  0  0  0  0  0  0  0
   51.4090   31.0690   50.7020 C   0  0  0  0  0  0  0  0  0  0  0  0
   51.3990   30.8800   49.4580 O   0  0  0  0  0  0  0  0  0  0  0  0
   51.7580   29.9470   51.6290 C   0  0  0  0  0  0  0  0  0  0  0  0
   53.1710   30.0990   52.1230 C   0  0  0  0  0  0  0  0  0  0  0  0
   53.7770   29.0840   52.8770 C   0  0  0  0  0  0  0  0  0  0  0  0
   55.0910   29.2350   53.3330 C   0  0  0  0  0  0  0  0  0  0  0  0
   55.8150   30.4030   53.0470 C   0  0  0  0  0  0  0  0  0  0  0  0
   57.2200   30.5680   53.5620 C   0  0  0  0  0  0  0  0  0  0  0  0
   58.1300   30.9700   52.4920 N   0  0  0  0  0  0  0  0  0  0  0  0
   58.4180   30.2220   51.3020 C   0  0  0  0  0  0  0  0  0  0  0  0
   58.4150   28.9640   51.3660 O   0  0  0  0  0  0  0  0  0  0  0  0
   58.6730   30.8700   50.0000 C   0  0  0  0  0  0  0  0  0  0  0  0
   59.4540   30.2160   49.0400 C   0  0  0  0  0  0  0  0  0  0  0  0
   59.7150   30.8220   47.8080 C   0  0  0  0  0  0  0  0  0  0  0  0
   59.2030   32.1030   47.5090 C   0  0  0  0  0  0  0  0  0  0  0  0
   59.4790   32.7210   46.2240 N   0  0  0  0  0  0  0  0  0  0  0  0
   60.6330   33.6030   45.9940 C   0  0  0  0  0  0  0  0  0  0  0  0
   61.6630   33.4190   47.0780 C   0  0  0  0  0  0  0  0  0  0  0  0
   62.7840   32.6030   46.8540 C   0  0  0  0  0  0  0  0  0  0  0  0
   63.7670   32.4950   47.8360 C   0  0  0  0  0  0  0  0  0  0  0  0
   63.6350   33.1680   49.0080 N   0  0  0  0  0  0  0  0  0  0  0  0
   62.5560   33.9560   49.2630 C   0  0  0  0  0  0  0  0  0  0  0  0
   62.4660   34.5580   50.3630 O   0  0  0  0  0  0  0  0  0  0  0  0
   61.5500   34.0940   48.3030 C   0  0  0  0  0  0  0  0  0  0  0  0
   58.6300   32.4360   45.1020 C   0  0  0  0  0  0  0  0  0  0  0  0
   58.4330   33.3190   44.2270 O   0  0  0  0  0  0  0  0  0  0  0  0
   57.9800   31.1230   44.9680 C   0  0  0  0  0  0  0  0  0  0  0  0
   58.6390   29.9120   44.8440 C   0  0  0  0  0  0  0  0  0  0  0  0
   57.6600   28.9460   44.7910 C   0  0  0  0  0  0  0  0  0  0  0  0
   56.4660   29.6240   44.8840 C   0  0  0  0  0  0  0  0  0  0  0  0
   55.2150   29.0210   44.8720 O   0  0  0  0  0  0  0  0  0  0  0  0
   56.6430   30.9530   44.9960 N   0  0  0  0  0  0  0  0  0  0  0  0
   58.4320   32.7560   48.4910 C   0  0  0  0  0  0  0  0  0  0  0  0
   58.1820   32.1520   49.7260 C   0  0  0  0  0  0  0  0  0  0  0  0
   55.2020   31.4240   52.3040 C   0  0  0  0  0  0  0  0  0  0  0  0
   53.8900   31.2730   51.8490 C   0  0  0  0  0  0  0  0  0  0  0  0
   50.1770   32.5810   51.6350 H   0  0  0  0  0  0  0  0  0  0  0  0
   51.0702   29.9580   52.4874 H   0  0  0  0  0  0  0  0  0  0  0  0
   51.6687   28.9939   51.0872 H   0  0  0  0  0  0  0  0  0  0  0  0
   53.2176   28.1662   53.1107 H   0  0  0  0  0  0  0  0  0  0  0  0
   55.5604   28.4321   53.9203 H   0  0  0  0  0  0  0  0  0  0  0  0
   57.2264   31.3384   54.3471 H   0  0  0  0  0  0  0  0  0  0  0  0
   57.5597   29.6022   53.9643 H   0  0  0  0  0  0  0  0  0  0  0  0
   59.8649   29.2189   49.2566 H   0  0  0  0  0  0  0  0  0  0  0  0
   60.3271   30.2941   47.0619 H   0  0  0  0  0  0  0  0  0  0  0  0
   61.0849   33.3613   45.0207 H   0  0  0  0  0  0  0  0  0  0  0  0
   60.2893   34.6479   46.0039 H   0  0  0  0  0  0  0  0  0  0  0  0
   62.8856   32.0516   45.9076 H   0  0  0  0  0  0  0  0  0  0  0  0
   64.6508   31.8638   47.6615 H   0  0  0  0  0  0  0  0  0  0  0  0
   60.6745   34.7281   48.5064 H   0  0  0  0  0  0  0  0  0  0  0  0
   59.7265   29.7536   44.7972 H   0  0  0  0  0  0  0  0  0  0  0  0
   57.8022   27.8595   44.6945 H   0  0  0  0  0  0  0  0  0  0  0  0
   58.0213   33.7549   48.2826 H   0  0  0  0  0  0  0  0  0  0  0  0
   57.5958   32.6872   50.4876 H   0  0  0  0  0  0  0  0  0  0  0  0
   55.7570   32.3467   52.0791 H   0  0  0  0  0  0  0  0  0  0  0  0
   53.4165   32.0805   51.2714 H   0  0  0  0  0  0  0  0  0  0  0  0
  1  2  1  0
  2  3  2  0
  2  4  1  0
  4  5  1  0
  5  6  2  0
  6  7  1  0
  7  8  2  0
  8  9  1  0
  9 10  1  0
 10 11  1  0
 11 12  2  0
 11 13  1  0
 13 14  2  0
 14 15  1  0
 15 16  2  0
 16 17  1  0
 17 18  1  0
 18 19  1  0
 19 20  1  0
 20 21  2  0
 21 22  1  0
 22 23  1  0
 23 24  2  0
 23 25  1  0
 17 26  1  0
 26 27  2  0
 26 28  1  0
 28 29  2  0
 29 30  1  0
 30 31  2  0
 31 32  1  0
 31 33  1  0
 16 34  1  0
 34 35  2  0
  8 36  1  0
 36 37  2  0
 37  5  1  0
 35 13  1  0
 25 19  2  0
 33 28  1  0
  1 38  1  0
  4 39  1  0
  4 40  1  0
  6 41  1  0
  7 42  1  0
  9 43  1  0
  9 44  1  0
 14 45  1  0
 15 46  1  0
 18 47  1  0
 18 48  1  0
 20 49  1  0
 21 50  1  0
 25 51  1  0
 29 52  1  0
 30 53  1  0
 34 54  1  0
 35 55  1  0
 36 56  1  0
 37 57  1  0
M  CHG  5   1  -1  10  -1  22  -1  32  -1  33  -1
M  END
>  <UniqueID>  (33) 
33

>  <SMILES>  (33) 
[NH-]C(=O)Cc1ccc(C[N-]C(=O)c2ccc(N(Cc3cc[n-]c(=O)c3)C(=O)c3ccc([O-])[n-]3)cc2)cc1

>  <Energy>  (33) 
92.10143376284167

>  <Genealogy>  (33) 
[NH-]C(=O)Cc1ccc(C[N-]C(=O)c2ccc(N(Cc3cc[n-]c(=O)c3)C(=O)c3ccc([O-])[n-]3)cc2)cc1 (protonated)
[NH-]C(=O)Cc1ccc(C[N-]C(=O)c2ccc(N(Cc3cc[n-]c(=O)c3)C(=O)c3ccc([O-])[n-]3)cc2)cc1 (3D coordinates assigned)
[NH-]C(=O)Cc1ccc(C[N-]C(=O)c2ccc(N(Cc3cc[n-]c(=O)c3)C(=O)c3ccc([O-])[n-]3)cc2)cc1 (optimized conformer: 92.10143376284167 kcal/mol)

>  <smiles>  (33) 
NC(=O)Cc1ccc(CNC(=O)c2ccc(N(Cc3cc[nH]c(=O)c3)C(=O)c3ccc(O)[nH]3)cc2)cc1

>  <score_type>  (33) 
oracle

>  <origin>  (33) 
adg

>  <m_score__min__energy>  (33) 
-20.559999999999999

>  <m_primary>  (33) 
energy

$$$$
33:0
     RDKit          3D

 56 58  0  0  0  0  0  0  0  0999 V2000
   57.0940   31.9200   51.8140 C   0  0  0  0  0  0  0  0  0  0  0  0
   58.1210   31.0280   51.1800 C   0  0  0  0  0  0  0  0  0  0  0  0
   57.8020   29.8370   50.9120 O   0  0  0  0  0  0  0  0  0  0  0  0
   59.4540   31.5030   50.8930 N   0  0  0  0  0  0  0  0  0  0  0  0
   59.9310   32.7650   51.4840 C   0  0  0  0  0  0  0  0  0  0  0  0
   61.4320   32.9710   51.2550 C   0  0  0  0  0  0  0  0  0  0  0  0
   61.7740   32.7250   49.8460 N   0  0  0  0  0  0  0  0  0  0  0  0
   62.7240   33.5820   49.1690 C   0  0  0  0  0  0  0  0  0  0  0  0
   63.2950   34.5120   49.8030 O   0  0  0  0  0  0  0  0  0  0  0  0
   63.0820   33.3870   47.7200 C   0  0  0  0  0  0  0  0  0  0  0  0
   62.0680   33.9760   46.8490 N   0  0  0  0  0  0  0  0  0  0  0  0
   60.6890   34.1840   47.1870 C   0  0  0  0  0  0  0  0  0  0  0  0
   60.4100   34.9800   48.1220 O   0  0  0  0  0  0  0  0  0  0  0  0
   59.5940   33.4840   46.4910 C   0  0  0  0  0  0  0  0  0  0  0  0
   58.8650   32.4900   47.1600 C   0  0  0  0  0  0  0  0  0  0  0  0
   57.8180   31.8290   46.5120 C   0  0  0  0  0  0  0  0  0  0  0  0
   57.4690   32.1620   45.1980 C   0  0  0  0  0  0  0  0  0  0  0  0
   56.3610   31.4770   44.5940 N   0  0  0  0  0  0  0  0  0  0  0  0
   56.2790   29.7960   44.1610 S   0  0  0  0  0  0  0  0  0  0  0  0
   55.5410   29.6840   42.8570 O   0  0  0  0  0  0  0  0  0  0  0  0
   55.5180   29.0180   45.1970 O   0  0  0  0  0  0  0  0  0  0  0  0
   57.9160   29.1140   43.9320 C   0  0  0  0  0  0  0  0  0  0  0  0
   58.5830   28.8380   45.2500 C   0  0  0  0  0  0  0  0  0  0  0  0
   59.7870   29.4800   45.5840 C   0  0  0  0  0  0  0  0  0  0  0  0
   60.3790   29.2630   46.8320 C   0  0  0  0  0  0  0  0  0  0  0  0
   59.7740   28.4040   47.7540 C   0  0  0  0  0  0  0  0  0  0  0  0
   58.5770   27.7600   47.4280 C   0  0  0  0  0  0  0  0  0  0  0  0
   57.9810   27.9750   46.1820 C   0  0  0  0  0  0  0  0  0  0  0  0
   58.1960   33.1640   44.5310 C   0  0  0  0  0  0  0  0  0  0  0  0
   59.2430   33.8270   45.1790 C   0  0  0  0  0  0  0  0  0  0  0  0
   61.2130   31.5460   49.1620 C   0  0  0  0  0  0  0  0  0  0  0  0
   60.3800   30.6730   50.1090 C   0  0  0  0  0  0  0  0  0  0  0  0
   57.1739   31.8506   52.9089 H   0  0  0  0  0  0  0  0  0  0  0  0
   57.2667   32.9597   51.4989 H   0  0  0  0  0  0  0  0  0  0  0  0
   56.0887   31.6035   51.4989 H   0  0  0  0  0  0  0  0  0  0  0  0
   59.3831   33.6017   51.0260 H   0  0  0  0  0  0  0  0  0  0  0  0
   59.7541   32.7220   52.5688 H   0  0  0  0  0  0  0  0  0  0  0  0
   61.7002   34.0049   51.5179 H   0  0  0  0  0  0  0  0  0  0  0  0
   61.9897   32.2637   51.8864 H   0  0  0  0  0  0  0  0  0  0  0  0
   64.0512   33.8675   47.5206 H   0  0  0  0  0  0  0  0  0  0  0  0
   63.1386   32.3079   47.5140 H   0  0  0  0  0  0  0  0  0  0  0  0
   59.1182   32.2298   48.1983 H   0  0  0  0  0  0  0  0  0  0  0  0
   57.2628   31.0395   47.0396 H   0  0  0  0  0  0  0  0  0  0  0  0
   57.8363   28.1735   43.3671 H   0  0  0  0  0  0  0  0  0  0  0  0
   58.5238   29.8482   43.3829 H   0  0  0  0  0  0  0  0  0  0  0  0
   60.2661   30.1563   44.8607 H   0  0  0  0  0  0  0  0  0  0  0  0
   61.3216   29.7687   47.0885 H   0  0  0  0  0  0  0  0  0  0  0  0
   60.2399   28.2348   48.7360 H   0  0  0  0  0  0  0  0  0  0  0  0
   58.1030   27.0826   48.1535 H   0  0  0  0  0  0  0  0  0  0  0  0
   57.0382   27.4674   45.9301 H   0  0  0  0  0  0  0  0  0  0  0  0
   57.9398   33.4277   43.4942 H   0  0  0  0  0  0  0  0  0  0  0  0
   59.7940   34.6222   44.6555 H   0  0  0  0  0  0  0  0  0  0  0  0
   60.5709   31.8868   48.3365 H   0  0  0  0  0  0  0  0  0  0  0  0
   62.0514   30.9387   48.7902 H   0  0  0  0  0  0  0  0  0  0  0  0
   59.8031   29.9463   49.5181 H   0  0  0  0  0  0  0  0  0  0  0  0
   61.0580   30.1482   50.7981 H   0  0  0  0  0  0  0  0  0  0  0  0
  1  2  1  0
  2  3  2  0
  2  4  1  0
  4  5  1  0
  5  6  1  0
  6  7  1  0
  7  8  1  0
  8  9  2  0
  8 10  1  0
 10 11  1  0
 11 12  1  0
 12 13  2  0
 12 14  1  0
 14 15  2  0
 15 16  1  0
 16 17  2  0
 17 18  1  0
 18 19  1  0
 19 20  2  0
 19 21  2  0
 19 22  1  0
 22 23  1  0
 23 24  2  0
 24 25  1  0
 25 26  2  0
 26 27  1  0
 27 28  2  0
 17 29  1  0
 29 30  2  0
  7 31  1  0
 31 32  1  0
 32  4  1  0
 30 14  1  0
 28 23  1  0
  1 33  1  0
  1 34  1  0
  1 35  1  0
  5 36  1  0
  5 37  1  0
  6 38  1  0
  6 39  1  0
 10 40  1  0
 10 41  1  0
 15 42  1  0
 16 43  1  0
 22 44  1  0
 22 45  1  0
 24 46  1  0
 25 47  1  0
 26 48  1  0
 27 49  1  0
 28 50  1  0
 29 51  1  0
 30 52  1  0
 31 53  1  0
 31 54  1  0
 32 55  1  0
 32 56  1  0
M  CHG  2  11  -1  18  -1
M  END
>  <UniqueID>  (34) 
34

>  <SMILES>  (34) 
CC(=O)N1CCN(C(=O)C[N-]C(=O)c2ccc([N-]S(=O)(=O)Cc3ccccc3)cc2)CC1

>  <Energy>  (34) 
56.482103021359464

>  <Genealogy>  (34) 
CC(=O)N1CCN(C(=O)C[N-]C(=O)c2ccc([N-]S(=O)(=O)Cc3ccccc3)cc2)CC1 (protonated)
CC(=O)N1CCN(C(=O)C[N-]C(=O)c2ccc([N-]S(=O)(=O)Cc3ccccc3)cc2)CC1 (3D coordinates assigned)
CC(=O)N1CCN(C(=O)C[N-]C(=O)c2ccc([N-]S(=O)(=O)Cc3ccccc3)cc2)CC1 (nonaromatic ring conformer: 56.482103021359464 kcal/mol)

>  <smiles>  (34) 
CC(=O)N1CCN(C(=O)CNC(=O)c2ccc(NS(=O)(=O)Cc3ccccc3)cc2)CC1

>  <score_type>  (34) 
oracle

>  <origin>  (34) 
adg

>  <m_score__min__energy>  (34) 
-11.99

>  <m_primary>  (34) 
energy

$$$$
34:0
     RDKit          3D

 55 58  0  0  0  0  0  0  0  0999 V2000
   56.3337   33.2656   45.8964 H   0  0  0  0  0  0  0  0  0  0  0  0
   57.4210   33.4010   45.9940 C   0  0  0  0  0  0  0  0  0  0  0  0
   58.0840   34.3160   45.1770 C   0  0  0  0  0  0  0  0  0  0  0  0
   57.5191   34.8994   44.4350 H   0  0  0  0  0  0  0  0  0  0  0  0
   59.4630   34.4930   45.2990 C   0  0  0  0  0  0  0  0  0  0  0  0
   59.9781   35.2284   44.6634 H   0  0  0  0  0  0  0  0  0  0  0  0
   60.1960   33.7390   46.2270 C   0  0  0  0  0  0  0  0  0  0  0  0
   59.5290   32.8040   47.0560 C   0  0  0  0  0  0  0  0  0  0  0  0
   58.1340   32.6560   46.9360 C   0  0  0  0  0  0  0  0  0  0  0  0
   57.6018   31.9485   47.5889 H   0  0  0  0  0  0  0  0  0  0  0  0
   60.2920   32.0070   47.9920 N   0  0  0  0  0  0  0  0  0  0  0  0
   59.7390   30.4300   48.4950 S   0  0  0  0  0  0  0  0  0  0  0  0
   60.8270   29.6870   49.2190 O   0  0  0  0  0  0  0  0  0  0  0  0
   58.5650   30.5920   49.4220 O   0  0  0  0  0  0  0  0  0  0  0  0
   59.2910   29.4890   47.0740 C   0  0  0  0  0  0  0  0  0  0  0  0
   59.9240   29.7440   45.8570 C   0  0  0  0  0  0  0  0  0  0  0  0
   60.7180   30.5032   45.8010 H   0  0  0  0  0  0  0  0  0  0  0  0
   59.5540   29.0400   44.7110 C   0  0  0  0  0  0  0  0  0  0  0  0
   60.0629   29.2468   43.7579 H   0  0  0  0  0  0  0  0  0  0  0  0
   58.5390   28.0700   44.7600 C   0  0  0  0  0  0  0  0  0  0  0  0
   58.1440   27.3820   43.4790 C   0  0  0  0  0  0  0  0  0  0  0  0
   57.6089   26.4499   43.7133 H   0  0  0  0  0  0  0  0  0  0  0  0
   57.4885   28.0441   42.8942 H   0  0  0  0  0  0  0  0  0  0  0  0
   59.0463   27.1497   42.8942 H   0  0  0  0  0  0  0  0  0  0  0  0
   57.9150   27.7790   46.0030 C   0  0  0  0  0  0  0  0  0  0  0  0
   56.8640   26.7410   46.1460 C   0  0  0  0  0  0  0  0  0  0  0  0
   55.6570   27.0510   45.9510 O   0  0  0  0  0  0  0  0  0  0  0  0
   57.2090   25.4270   46.6130 N   0  0  0  0  0  0  0  0  0  0  0  0
   57.3620   24.3470   45.9010 C   0  0  0  0  0  0  0  0  0  0  0  0
   56.0760   23.4600   45.3050 S   0  0  0  0  0  0  0  0  0  0  0  0
   57.0550   22.2780   44.6040 C   0  0  0  0  0  0  0  0  0  0  0  0
   56.5070   21.1100   43.8790 C   0  0  0  0  0  0  0  0  0  0  0  0
   56.2660   21.2210   42.6480 O   0  0  0  0  0  0  0  0  0  0  0  0
   56.1950   19.8080   44.5510 C   0  0  0  0  0  0  0  0  0  0  0  0
   56.2270   19.9417   45.6424 H   0  0  0  0  0  0  0  0  0  0  0  0
   55.1910   19.4724   44.2520 H   0  0  0  0  0  0  0  0  0  0  0  0
   56.9378   19.0538   44.2520 H   0  0  0  0  0  0  0  0  0  0  0  0
   58.3950   22.6260   44.8630 C   0  0  0  0  0  0  0  0  0  0  0  0
   59.5910   21.8540   44.3900 C   0  0  0  0  0  0  0  0  0  0  0  0
   60.1581   21.4879   45.2586 H   0  0  0  0  0  0  0  0  0  0  0  0
   59.2589   20.9994   43.7823 H   0  0  0  0  0  0  0  0  0  0  0  0
   60.2331   22.5086   43.7823 H   0  0  0  0  0  0  0  0  0  0  0  0
   58.5480   23.7700   45.5920 N   0  0  0  0  0  0  0  0  0  0  0  0
   59.4820   24.1230   45.8890 H   0  0  0  0  0  0  0  0  0  0  0  0
   58.2940   28.5090   47.1460 C   0  0  0  0  0  0  0  0  0  0  0  0
   57.8002   28.3065   48.1079 H   0  0  0  0  0  0  0  0  0  0  0  0
   61.6340   32.4610   48.3670 C   0  0  0  0  0  0  0  0  0  0  0  0
   61.5533   33.3240   49.0443 H   0  0  0  0  0  0  0  0  0  0  0  0
   62.1686   31.6450   48.8752 H   0  0  0  0  0  0  0  0  0  0  0  0
   62.4020   32.8690   47.1120 C   0  0  0  0  0  0  0  0  0  0  0  0
   63.4095   33.2065   47.3968 H   0  0  0  0  0  0  0  0  0  0  0  0
   62.4712   32.0027   46.4376 H   0  0  0  0  0  0  0  0  0  0  0  0
   61.6740   34.0060   46.3890 C   0  0  0  0  0  0  0  0  0  0  0  0
   61.8033   34.9319   46.9686 H   0  0  0  0  0  0  0  0  0  0  0  0
   62.1091   34.0934   45.3825 H   0  0  0  0  0  0  0  0  0  0  0  0
  1  2  1  0
  2  3  2  0
  3  4  1  0
  3  5  1  0
  5  6  1  0
  5  7  2  0
  7  8  1  0
  8  9  2  0
  9 10  1  0
  8 11  1  0
 11 12  1  0
 12 13  2  0
 12 14  2  0
 12 15  1  0
 15 16  2  0
 16 17  1  0
 16 18  1  0
 18 19  1  0
 18 20  2  0
 20 21  1  0
 21 22  1  0
 21 23  1  0
 21 24  1  0
 20 25  1  0
 25 26  1  0
 26 27  2  0
 26 28  1  0
 28 29  2  0
 29 30  1  0
 30 31  1  0
 31 32  1  0
 32 33  2  0
 32 34  1  0
 34 35  1  0
 34 36  1  0
 34 37  1  0
 31 38  2  0
 38 39  1  0
 39 40  1  0
 39 41  1  0
 39 42  1  0
 38 43  1  0
 43 44  1  0
 25 45  2  0
 45 46  1  0
 11 47  1  0
 47 48  1  0
 47 49  1  0
 47 50  1  0
 50 51  1  0
 50 52  1  0
 50 53  1  0
 53 54  1  0
 53 55  1  0
  9  2  1  0
 45 15  1  0
 53  7  1  0
 43 29  1  0
M  END
>  <UniqueID>  (35) 
35

>  <SMILES>  (35) 
CC(=O)c1s/c(=N/C(=O)c2cc(S(=O)(=O)N3CCCc4ccccc43)ccc2C)[nH]c1C

>  <Energy>  (35) 
101.25820730510065

>  <Genealogy>  (35) 
CC(=O)c1s/c(=N/C(=O)c2cc(S(=O)(=O)N3CCCc4ccccc43)ccc2C)[nH]c1C (cis-trans isomerization)
CC(=O)c1s/c(=N/C(=O)c2cc(S(=O)(=O)N3CCCc4ccccc43)ccc2C)[nH]c1C (3D coordinates assigned)
CC(=O)c1s/c(=N/C(=O)c2cc(S(=O)(=O)N3CCCc4ccccc43)ccc2C)[nH]c1C (nonaromatic ring conformer: 101.25820730510065 kcal/mol)

>  <smiles>  (35) 
CC(=O)c1sc(=NC(=O)c2cc(S(=O)(=O)N3CCCc4ccccc43)ccc2C)[nH]c1C

>  <score_type>  (35) 
oracle

>  <origin>  (35) 
adg

>  <m_score__min__energy>  (35) 
-10.48

>  <m_primary>  (35) 
energy

$$$$
35:0
     RDKit          3D

 48 51  0  0  0  0  0  0  0  0999 V2000
   63.3910   32.3420   47.1390 C   0  0  0  0  0  0  0  0  0  0  0  0
   63.0210   33.6010   46.3610 C   0  0  0  0  0  0  0  0  0  0  0  0
   61.8500   34.2060   46.9080 O   0  0  0  0  0  0  0  0  0  0  0  0
   61.3090   33.9500   48.1800 C   0  0  0  0  0  0  0  0  0  0  0  0
   62.0490   34.1140   49.3650 C   0  0  0  0  0  0  0  0  0  0  0  0
   61.4940   33.8260   50.5730 N   0  0  0  0  0  0  0  0  0  0  0  0
   60.2120   33.3690   50.6860 C   0  0  0  0  0  0  0  0  0  0  0  0
   59.6420   33.0590   52.0200 C   0  0  0  0  0  0  0  0  0  0  0  0
   58.3130   32.6110   52.1340 C   0  0  0  0  0  0  0  0  0  0  0  0
   57.7680   32.3240   53.3890 C   0  0  0  0  0  0  0  0  0  0  0  0
   58.5420   32.4790   54.5410 C   0  0  0  0  0  0  0  0  0  0  0  0
   59.8640   32.9190   54.4390 C   0  0  0  0  0  0  0  0  0  0  0  0
   60.4170   33.2090   53.1870 C   0  0  0  0  0  0  0  0  0  0  0  0
   61.7150   33.5970   53.1150 F   0  0  0  0  0  0  0  0  0  0  0  0
   59.4360   33.2060   49.5310 C   0  0  0  0  0  0  0  0  0  0  0  0
   59.9780   33.5070   48.2770 C   0  0  0  0  0  0  0  0  0  0  0  0
   59.1480   33.3350   47.0680 C   0  0  0  0  0  0  0  0  0  0  0  0
   58.8840   34.4330   46.2270 C   0  0  0  0  0  0  0  0  0  0  0  0
   58.1230   34.2660   45.0580 C   0  0  0  0  0  0  0  0  0  0  0  0
   57.6180   33.0020   44.7150 C   0  0  0  0  0  0  0  0  0  0  0  0
   57.8710   31.9220   45.5720 C   0  0  0  0  0  0  0  0  0  0  0  0
   58.6300   32.0820   46.7040 C   0  0  0  0  0  0  0  0  0  0  0  0
   58.8670   30.7610   47.3600 C   0  0  0  0  0  0  0  0  0  0  0  0
   58.1460   29.7590   46.4320 C   0  0  0  0  0  0  0  0  0  0  0  0
   57.5210   30.5570   45.3760 N   0  0  0  0  0  0  0  0  0  0  0  0
   56.6140   30.0040   44.4070 C   0  0  0  0  0  0  0  0  0  0  0  0
   55.4280   29.3300   44.8120 N   0  0  0  0  0  0  0  0  0  0  0  0
   56.8900   30.0810   43.1790 O   0  0  0  0  0  0  0  0  0  0  0  0
   63.3308   32.5468   48.2181 H   0  0  0  0  0  0  0  0  0  0  0  0
   62.6928   31.5324   46.8800 H   0  0  0  0  0  0  0  0  0  0  0  0
   64.4162   32.0389   46.8800 H   0  0  0  0  0  0  0  0  0  0  0  0
   63.8551   34.3162   46.4136 H   0  0  0  0  0  0  0  0  0  0  0  0
   62.8207   33.3245   45.3153 H   0  0  0  0  0  0  0  0  0  0  0  0
   63.0857   34.4784   49.3143 H   0  0  0  0  0  0  0  0  0  0  0  0
   62.0700   33.9820   51.4300 H   0  0  0  0  0  0  0  0  0  0  0  0
   57.6990   32.4858   51.2299 H   0  0  0  0  0  0  0  0  0  0  0  0
   56.7278   31.9755   53.4692 H   0  0  0  0  0  0  0  0  0  0  0  0
   58.1111   32.2548   55.5279 H   0  0  0  0  0  0  0  0  0  0  0  0
   60.4730   33.0380   55.3473 H   0  0  0  0  0  0  0  0  0  0  0  0
   58.4012   32.8416   49.6102 H   0  0  0  0  0  0  0  0  0  0  0  0
   59.2759   35.4274   46.4869 H   0  0  0  0  0  0  0  0  0  0  0  0
   57.9218   35.1303   44.4080 H   0  0  0  0  0  0  0  0  0  0  0  0
   57.0356   32.8618   43.7924 H   0  0  0  0  0  0  0  0  0  0  0  0
   59.9428   30.5387   47.4176 H   0  0  0  0  0  0  0  0  0  0  0  0
   58.4975   30.7260   48.3955 H   0  0  0  0  0  0  0  0  0  0  0  0
   58.8691   29.0524   45.9986 H   0  0  0  0  0  0  0  0  0  0  0  0
   57.3994   29.1683   46.9830 H   0  0  0  0  0  0  0  0  0  0  0  0
   55.2710   28.3260   44.5720 H   0  0  0  0  0  0  0  0  0  0  0  0
  1  2  1  0
  2  3  1  0
  3  4  1  0
  4  5  2  0
  5  6  1  0
  6  7  2  0
  7  8  1  0
  8  9  2  0
  9 10  1  0
 10 11  2  0
 11 12  1  0
 12 13  2  0
 13 14  1  0
  7 15  1  0
 15 16  2  0
 16 17  1  0
 17 18  2  0
 18 19  1  0
 19 20  2  0
 20 21  1  0
 21 22  2  0
 22 23  1  0
 23 24  1  0
 24 25  1  0
 25 26  1  0
 26 27  1  0
 26 28  2  0
 16  4  1  0
 22 17  1  0
 13  8  1  0
 25 21  1  0
  1 29  1  0
  1 30  1  0
  1 31  1  0
  2 32  1  0
  2 33  1  0
  5 34  1  0
  6 35  1  0
  9 36  1  0
 10 37  1  0
 11 38  1  0
 12 39  1  0
 15 40  1  0
 18 41  1  0
 19 42  1  0
 20 43  1  0
 23 44  1  0
 23 45  1  0
 24 46  1  0
 24 47  1  0
 27 48  1  0
M  CHG  2   6   1  27  -1
M  END
>  <UniqueID>  (36) 
36

>  <SMILES>  (36) 
CCOc1c[nH+]c(-c2ccccc2F)cc1-c1cccc2c1CCN2C([NH-])=O

>  <Energy>  (36) 
78.4324585406438

>  <Genealogy>  (36) 
CCOc1c[nH+]c(-c2ccccc2F)cc1-c1cccc2c1CCN2C([NH-])=O (protonated)
CCOc1c[nH+]c(-c2ccccc2F)cc1-c1cccc2c1CCN2C([NH-])=O (3D coordinates assigned)
CCOc1c[nH+]c(-c2ccccc2F)cc1-c1cccc2c1CCN2C([NH-])=O (nonaromatic ring conformer: 78.4324585406438 kcal/mol)

>  <smiles>  (36) 
CCOc1cnc(-c2ccccc2F)cc1-c1cccc2c1CCN2C(N)=O

>  <score_type>  (36) 
oracle

>  <origin>  (36) 
adg

>  <m_score__min__energy>  (36) 
-8.8699999999999992

>  <m_primary>  (36) 
energy

$$$$
36:0
     RDKit          3D

 42 43  0  0  0  0  0  0  0  0999 V2000
   57.8420   32.7620   43.9780 C   0  0  0  0  0  0  0  0  0  0  0  0
   57.3770   33.8290   44.9580 C   0  0  0  0  0  0  0  0  0  0  0  0
   58.3740   33.9990   46.0570 C   0  0  0  0  0  0  0  0  0  0  0  0
   58.4690   33.1580   47.1100 N   0  0  0  0  0  0  0  0  0  0  0  0
   59.5110   33.4810   47.9250 C   0  0  0  0  0  0  0  0  0  0  0  0
   59.8240   32.6850   49.1690 C   0  0  0  0  0  0  0  0  0  0  0  0
   60.1000   31.2570   48.8940 N   0  0  0  0  0  0  0  0  0  0  0  0
   60.9810   31.0310   47.7210 C   0  0  0  0  0  0  0  0  0  0  0  0
   60.2430   30.4290   46.5160 C   0  0  0  0  0  0  0  0  0  0  0  0
   59.5020   29.2240   46.9060 N   0  0  0  0  0  0  0  0  0  0  0  0
   59.1460   28.2230   45.9300 C   0  0  0  0  0  0  0  0  0  0  0  0
   58.9690   27.0300   46.2970 O   0  0  0  0  0  0  0  0  0  0  0  0
   58.8910   28.5790   44.4860 C   0  0  0  0  0  0  0  0  0  0  0  0
   57.4060   28.4320   44.1290 C   0  0  0  0  0  0  0  0  0  0  0  0
   56.5600   29.4220   44.8740 C   0  0  0  0  0  0  0  0  0  0  0  0
   55.1420   29.3150   44.8280 N   0  0  0  0  0  0  0  0  0  0  0  0
   57.1030   30.3230   45.5710 O   0  0  0  0  0  0  0  0  0  0  0  0
   59.1150   29.0400   48.3100 C   0  0  0  0  0  0  0  0  0  0  0  0
   58.8880   30.4070   48.9610 C   0  0  0  0  0  0  0  0  0  0  0  0
   60.2660   34.5790   47.5130 C   0  0  0  0  0  0  0  0  0  0  0  0
   59.5960   35.1570   46.0830 S   0  0  0  0  0  0  0  0  0  0  0  0
   58.2209   31.8925   44.5352 H   0  0  0  0  0  0  0  0  0  0  0  0
   56.9973   32.4522   43.3452 H   0  0  0  0  0  0  0  0  0  0  0  0
   58.6440   33.1699   43.3452 H   0  0  0  0  0  0  0  0  0  0  0  0
   57.2595   34.7839   44.4248 H   0  0  0  0  0  0  0  0  0  0  0  0
   56.4162   33.5177   45.3939 H   0  0  0  0  0  0  0  0  0  0  0  0
   60.7087   33.1252   49.6522 H   0  0  0  0  0  0  0  0  0  0  0  0
   58.9355   32.7273   49.8161 H   0  0  0  0  0  0  0  0  0  0  0  0
   61.4148   31.9956   47.4188 H   0  0  0  0  0  0  0  0  0  0  0  0
   61.7520   30.3081   48.0261 H   0  0  0  0  0  0  0  0  0  0  0  0
   59.5374   31.1727   46.1172 H   0  0  0  0  0  0  0  0  0  0  0  0
   60.9839   30.1544   45.7508 H   0  0  0  0  0  0  0  0  0  0  0  0
   59.1994   29.6208   44.3140 H   0  0  0  0  0  0  0  0  0  0  0  0
   59.4701   27.8918   43.8517 H   0  0  0  0  0  0  0  0  0  0  0  0
   57.2803   28.5962   43.0486 H   0  0  0  0  0  0  0  0  0  0  0  0
   57.0819   27.4196   44.4120 H   0  0  0  0  0  0  0  0  0  0  0  0
   54.5790   29.3790   45.7040 H   0  0  0  0  0  0  0  0  0  0  0  0
   58.1871   28.4515   48.3603 H   0  0  0  0  0  0  0  0  0  0  0  0
   59.9163   28.5084   48.8442 H   0  0  0  0  0  0  0  0  0  0  0  0
   58.0656   30.9178   48.4387 H   0  0  0  0  0  0  0  0  0  0  0  0
   58.6429   30.2443   50.0209 H   0  0  0  0  0  0  0  0  0  0  0  0
   61.1435   34.9931   48.0312 H   0  0  0  0  0  0  0  0  0  0  0  0
  1  2  1  0
  2  3  1  0
  3  4  2  0
  4  5  1  0
  5  6  1  0
  6  7  1  0
  7  8  1  0
  8  9  1  0
  9 10  1  0
 10 11  1  0
 11 12  2  0
 11 13  1  0
 13 14  1  0
 14 15  1  0
 15 16  1  0
 15 17  2  0
 10 18  1  0
 18 19  1  0
  5 20  2  0
 20 21  1  0
 21  3  1  0
 19  7  1  0
  1 22  1  0
  1 23  1  0
  1 24  1  0
  2 25  1  0
  2 26  1  0
  6 27  1  0
  6 28  1  0
  8 29  1  0
  8 30  1  0
  9 31  1  0
  9 32  1  0
 13 33  1  0
 13 34  1  0
 14 35  1  0
 14 36  1  0
 16 37  1  0
 18 38  1  0
 18 39  1  0
 19 40  1  0
 19 41  1  0
 20 42  1  0
M  CHG  1  16  -1
M  END
>  <UniqueID>  (37) 
37

>  <SMILES>  (37) 
CCc1nc(CN2CCN(C(=O)CCC([NH-])=O)CC2)cs1

>  <Energy>  (37) 
68.35378256237168

>  <Genealogy>  (37) 
CCc1nc(CN2CCN(C(=O)CCC([NH-])=O)CC2)cs1 (protonated)
CCc1nc(CN2CCN(C(=O)CCC([NH-])=O)CC2)cs1 (3D coordinates assigned)
CCc1nc(CN2CCN(C(=O)CCC([NH-])=O)CC2)cs1 (nonaromatic ring conformer: 68.35378256237168 kcal/mol)

>  <smiles>  (37) 
CCc1nc(CN2CCN(C(=O)CCC(N)=O)CC2)cs1

>  <score_type>  (37) 
oracle

>  <origin>  (37) 
adg

>  <m_score__min__energy>  (37) 
-10.6

>  <m_primary>  (37) 
energy

$$$$
37:0
     RDKit          3D

 61 64  0  0  1  0  0  0  0  0999 V2000
   57.8020   33.1670   46.2870 N   0  0  0  0  0  0  0  0  0  0  0  0
   59.2970   34.0370   46.3470 S   0  0  0  0  0  0  0  0  0  0  0  0
   60.0480   33.9220   45.0450 O   0  0  0  0  0  0  0  0  0  0  0  0
   58.9680   35.4940   46.5440 O   0  0  0  0  0  0  0  0  0  0  0  0
   60.2990   33.5370   47.6740 C   0  0  0  0  0  0  0  0  0  0  0  0
   61.3270   32.6260   47.5480 C   0  0  0  0  0  0  0  0  0  0  0  0
   62.0730   32.2810   48.6400 C   0  0  0  0  0  0  0  0  0  0  0  0
   61.8430   32.8130   49.8870 C   0  0  0  0  0  0  0  0  0  0  0  0
   62.6390   32.4470   51.0600 C   0  0  0  0  0  0  0  0  0  0  0  0
   61.8130   32.3710   52.3430 C   0  0  0  0  0  0  0  0  0  0  0  0
   61.2290   31.0200   52.3110 N   0  0  0  0  0  0  0  0  0  0  0  0
   60.9700   30.4200   51.2770 C   0  0  0  0  0  0  0  0  0  0  0  0
   61.5490   29.4460   50.5390 N   0  0  0  0  0  0  0  0  0  0  0  0
   61.0270   29.0030   49.4650 C   0  0  0  0  0  0  0  0  0  0  0  0
   59.7920   29.5410   49.0100 C   0  0  0  0  0  0  0  0  0  0  0  0
   59.0230   29.2120   47.8530 C   0  0  0  0  0  0  0  0  0  0  0  0
   58.7970   27.9120   47.5290 C   0  0  0  0  0  0  0  0  0  0  0  0
   58.0500   27.5630   46.4050 C   0  0  0  0  0  0  0  0  0  0  0  0
   57.8110   26.1640   46.0660 C   0  0  0  0  0  0  0  0  0  0  0  0
   58.8220   25.2340   45.9530 C   0  0  0  0  0  0  0  0  0  0  0  0
   58.5760   23.9000   45.6280 C   0  0  0  0  0  0  0  0  0  0  0  0
   57.2930   23.4540   45.4020 C   0  0  0  0  0  0  0  0  0  0  0  0
   56.2800   24.3780   45.5130 C   0  0  0  0  0  0  0  0  0  0  0  0
   56.5290   25.7180   45.8400 C   0  0  0  0  0  0  0  0  0  0  0  0
   57.5780   28.5890   45.6760 N   0  0  0  0  0  0  0  0  0  0  0  0
   57.7950   29.8850   45.9860 C   0  0  0  0  0  0  0  0  0  0  0  0
   57.3260   30.8410   45.2630 N   0  0  0  0  0  0  0  0  0  0  0  0
   57.4870   30.8760   43.8410 C   0  0  0  0  0  0  0  0  0  0  0  0
   56.6610   29.8030   43.1200 C   0  0  0  0  0  0  0  0  0  0  0  0
   55.2500   29.9070   43.6600 C   0  0  0  0  0  0  0  0  0  0  0  0
   55.1480   29.3820   44.9450 O   0  0  0  0  0  0  0  0  0  0  0  0
   58.5310   30.1980   47.0940 N   0  0  0  0  0  0  0  0  0  0  0  0
   59.4010   30.7740   50.2660 S   0  0  0  0  0  0  0  0  0  0  0  0
   60.8060   33.7260   49.9920 C   0  0  0  0  0  0  0  0  0  0  0  0
   60.0450   34.0880   48.9200 C   0  0  0  0  0  0  0  0  0  0  0  0
   57.6110   32.9880   45.2800 H   0  0  0  0  0  0  0  0  0  0  0  0
   57.8940   32.2660   46.7730 H   0  0  0  0  0  0  0  0  0  0  0  0
   61.5465   32.1769   46.5681 H   0  0  0  0  0  0  0  0  0  0  0  0
   62.8869   31.5513   48.5169 H   0  0  0  0  0  0  0  0  0  0  0  0
   63.0972   31.4634   50.8795 H   0  0  0  0  0  0  0  0  0  0  0  0
   63.3954   33.2329   51.2022 H   0  0  0  0  0  0  0  0  0  0  0  0
   62.4531   32.4994   53.2283 H   0  0  0  0  0  0  0  0  0  0  0  0
   61.0498   33.1609   52.4026 H   0  0  0  0  0  0  0  0  0  0  0  0
   62.4940   29.0650   50.9270 H   0  0  0  0  0  0  0  0  0  0  0  0
   61.5287   28.2088   48.8927 H   0  0  0  0  0  0  0  0  0  0  0  0
   59.2123   27.1181   48.1672 H   0  0  0  0  0  0  0  0  0  0  0  0
   59.8598   25.5552   46.1253 H   0  0  0  0  0  0  0  0  0  0  0  0
   59.4174   23.1956   45.5513 H   0  0  0  0  0  0  0  0  0  0  0  0
   57.0871   22.4047   45.1440 H   0  0  0  0  0  0  0  0  0  0  0  0
   55.2427   24.0553   45.3398 H   0  0  0  0  0  0  0  0  0  0  0  0
   55.6880   26.4228   45.9170 H   0  0  0  0  0  0  0  0  0  0  0  0
   57.0090   28.4220   44.8200 H   0  0  0  0  0  0  0  0  0  0  0  0
   57.1724   31.8650   43.4764 H   0  0  0  0  0  0  0  0  0  0  0  0
   58.5470   30.6778   43.6239 H   0  0  0  0  0  0  0  0  0  0  0  0
   56.6665   29.9852   42.0352 H   0  0  0  0  0  0  0  0  0  0  0  0
   57.0782   28.7997   43.2915 H   0  0  0  0  0  0  0  0  0  0  0  0
   54.9551   30.9665   43.6839 H   0  0  0  0  0  0  0  0  0  0  0  0
   54.5880   29.3269   43.0003 H   0  0  0  0  0  0  0  0  0  0  0  0
   55.3290   30.0690   45.6250 H   0  0  0  0  0  0  0  0  0  0  0  0
   60.5894   34.1738   50.9731 H   0  0  0  0  0  0  0  0  0  0  0  0
   59.2303   34.8166   49.0441 H   0  0  0  0  0  0  0  0  0  0  0  0
  1  2  1  0
  2  3  2  0
  2  4  2  0
  2  5  1  0
  5  6  2  0
  6  7  1  0
  7  8  2  0
  8  9  1  0
  9 10  1  0
 10 11  1  0
 11 12  2  0
 12 13  1  0
 13 14  1  0
 14 15  2  0
 15 16  1  0
 16 17  1  0
 17 18  2  0
 18 19  1  0
 19 20  2  0
 20 21  1  0
 21 22  2  0
 22 23  1  0
 23 24  2  0
 18 25  1  0
 25 26  1  0
 26 27  2  0
 27 28  1  0
 28 29  1  0
 29 30  1  0
 30 31  1  0
 26 32  1  0
 15 33  1  0
  8 34  1  0
 34 35  2  0
 35  5  1  0
 33 12  1  0
 32 16  2  0
 24 19  1  0
  1 36  1  0
  1 37  1  0
  6 38  1  0
  7 39  1  0
  9 40  1  0
  9 41  1  0
 10 42  1  0
 10 43  1  0
 13 44  1  0
 14 45  1  0
 17 46  1  0
 20 47  1  0
 21 48  1  0
 22 49  1  0
 23 50  1  0
 24 51  1  0
 25 52  1  0
 28 53  1  0
 28 54  1  0
 29 55  1  0
 29 56  1  0
 30 57  1  0
 30 58  1  0
 31 59  1  0
 34 60  1  0
 35 61  1  0
M  END
>  <smiles>  (38) 
NS(=O)(=O)c1ccc(CCN=c2[nH]cc(-c3cc(-c4ccccc4)[nH]c(=NCCCO)n3)s2)cc1

>  <score_type>  (38) 
oracle

>  <origin>  (38) 
adg

>  <m_score__min__energy>  (38) 
-9.0700000000000003

>  <m_primary>  (38) 
energy

$$$$
38:0
     RDKit          3D

 55 58  0  0  0  0  0  0  0  0999 V2000
   67.4490   33.4120   51.5460 C   0  0  0  0  0  0  0  0  0  0  0  0
   66.1460   33.0300   51.0210 N   0  0  0  0  0  0  0  0  0  0  0  0
   65.7860   33.0310   49.7230 C   0  0  0  0  0  0  0  0  0  0  0  0
   64.4460   32.6960   49.6500 C   0  0  0  0  0  0  0  0  0  0  0  0
   63.6300   32.6060   48.4270 C   0  0  0  0  0  0  0  0  0  0  0  0
   63.7320   31.5760   47.7060 O   0  0  0  0  0  0  0  0  0  0  0  0
   62.7090   33.6500   48.0520 N   0  0  0  0  0  0  0  0  0  0  0  0
   62.3420   33.8370   46.6460 C   0  0  0  0  0  0  0  0  0  0  0  0
   60.9060   33.3410   46.3910 C   0  0  0  0  0  0  0  0  0  0  0  0
   59.9650   33.4370   47.6430 C   0  0  0  0  0  0  0  0  0  0  0  0
   58.5190   33.7610   47.2170 C   0  0  0  0  0  0  0  0  0  0  0  0
   57.9010   32.6860   46.3110 C   0  0  0  0  0  0  0  0  0  0  0  0
   58.2930   31.3020   46.6400 N   0  0  0  0  0  0  0  0  0  0  0  0
   57.7600   30.2440   45.8150 C   0  0  0  0  0  0  0  0  0  0  0  0
   56.9760   30.5130   44.8640 O   0  0  0  0  0  0  0  0  0  0  0  0
   58.1140   28.8780   46.0740 N   0  0  0  0  0  0  0  0  0  0  0  0
   58.0430   27.8080   45.1220 C   0  0  0  0  0  0  0  0  0  0  0  0
   57.6380   26.5150   45.4990 C   0  0  0  0  0  0  0  0  0  0  0  0
   57.5090   25.5110   44.5350 C   0  0  0  0  0  0  0  0  0  0  0  0
   57.7660   25.7940   43.1910 C   0  0  0  0  0  0  0  0  0  0  0  0
   58.1470   27.0800   42.8070 C   0  0  0  0  0  0  0  0  0  0  0  0
   58.2830   28.0850   43.7700 C   0  0  0  0  0  0  0  0  0  0  0  0
   59.3230   30.9340   47.6270 C   0  0  0  0  0  0  0  0  0  0  0  0
   59.8950   32.1090   48.4340 C   0  0  0  0  0  0  0  0  0  0  0  0
   60.4640   34.5750   48.5810 C   0  0  0  0  0  0  0  0  0  0  0  0
   61.9060   34.3400   49.0730 C   0  0  0  0  0  0  0  0  0  0  0  0
   64.0340   32.5300   50.9630 C   0  0  0  0  0  0  0  0  0  0  0  0
   65.0910   32.7450   51.7680 N   0  0  0  0  0  0  0  0  0  0  0  0
   67.4183   33.4030   52.6455 H   0  0  0  0  0  0  0  0  0  0  0  0
   68.2093   32.6990   51.1946 H   0  0  0  0  0  0  0  0  0  0  0  0
   67.7040   34.4227   51.1946 H   0  0  0  0  0  0  0  0  0  0  0  0
   66.4427   33.2584   48.8703 H   0  0  0  0  0  0  0  0  0  0  0  0
   62.4054   34.9060   46.3947 H   0  0  0  0  0  0  0  0  0  0  0  0
   63.0346   33.2574   46.0181 H   0  0  0  0  0  0  0  0  0  0  0  0
   60.4694   33.9465   45.5831 H   0  0  0  0  0  0  0  0  0  0  0  0
   60.9796   32.2750   46.1296 H   0  0  0  0  0  0  0  0  0  0  0  0
   57.9003   33.8539   48.1217 H   0  0  0  0  0  0  0  0  0  0  0  0
   58.5497   34.6971   46.6401 H   0  0  0  0  0  0  0  0  0  0  0  0
   56.8063   32.7598   46.3895 H   0  0  0  0  0  0  0  0  0  0  0  0
   58.2765   32.8821   45.2959 H   0  0  0  0  0  0  0  0  0  0  0  0
   57.4223   26.2933   46.5546 H   0  0  0  0  0  0  0  0  0  0  0  0
   57.2049   24.4972   44.8347 H   0  0  0  0  0  0  0  0  0  0  0  0
   57.6678   25.0015   42.4345 H   0  0  0  0  0  0  0  0  0  0  0  0
   58.3403   27.3033   41.7474 H   0  0  0  0  0  0  0  0  0  0  0  0
   58.5802   29.0989   43.4640 H   0  0  0  0  0  0  0  0  0  0  0  0
   58.8783   30.2183   48.3341 H   0  0  0  0  0  0  0  0  0  0  0  0
   60.1635   30.5153   47.0540 H   0  0  0  0  0  0  0  0  0  0  0  0
   59.2584   32.2651   49.3174 H   0  0  0  0  0  0  0  0  0  0  0  0
   60.9280   31.8409   48.7003 H   0  0  0  0  0  0  0  0  0  0  0  0
   60.4289   35.5271   48.0312 H   0  0  0  0  0  0  0  0  0  0  0  0
   59.8073   34.5951   49.4632 H   0  0  0  0  0  0  0  0  0  0  0  0
   62.3708   35.3109   49.2997 H   0  0  0  0  0  0  0  0  0  0  0  0
   61.8691   33.7089   49.9732 H   0  0  0  0  0  0  0  0  0  0  0  0
   63.0173   32.2675   51.2909 H   0  0  0  0  0  0  0  0  0  0  0  0
   65.0830   32.7250   52.8130 H   0  0  0  0  0  0  0  0  0  0  0  0
  1  2  1  0
  2  3  1  0
  3  4  2  0
  4  5  1  0
  5  6  2  0
  5  7  1  0
  7  8  1  0
  8  9  1  0
  9 10  1  0
 10 11  1  0
 11 12  1  0
 12 13  1  0
 13 14  1  0
 14 15  2  0
 14 16  1  0
 16 17  1  0
 17 18  2  0
 18 19  1  0
 19 20  2  0
 20 21  1  0
 21 22  2  0
 13 23  1  0
 23 24  1  0
 10 25  1  0
 25 26  1  0
  4 27  1  0
 27 28  2  0
 28  2  1  0
 26  7  1  0
 24 10  1  0
 22 17  1  0
  1 29  1  0
  1 30  1  0
  1 31  1  0
  3 32  1  0
  8 33  1  0
  8 34  1  0
  9 35  1  0
  9 36  1  0
 11 37  1  0
 11 38  1  0
 12 39  1  0
 12 40  1  0
 18 41  1  0
 19 42  1  0
 20 43  1  0
 21 44  1  0
 22 45  1  0
 23 46  1  0
 23 47  1  0
 24 48  1  0
 24 49  1  0
 25 50  1  0
 25 51  1  0
 26 52  1  0
 26 53  1  0
 27 54  1  0
 28 55  1  0
M  CHG  2  16  -1  28   1
M  END
>  <UniqueID>  (39) 
38

>  <SMILES>  (39) 
Cn1cc(C(=O)N2CCC3(CCN(C(=O)[N-]c4ccccc4)CC3)CC2)c[nH+]1

>  <Energy>  (39) 
102.15373648300358

>  <Genealogy>  (39) 
Cn1cc(C(=O)N2CCC3(CCN(C(=O)[N-]c4ccccc4)CC3)CC2)c[nH+]1 (protonated)
Cn1cc(C(=O)N2CCC3(CCN(C(=O)[N-]c4ccccc4)CC3)CC2)c[nH+]1 (3D coordinates assigned)
Cn1cc(C(=O)N2CCC3(CCN(C(=O)[N-]c4ccccc4)CC3)CC2)c[nH+]1 (nonaromatic ring conformer: 102.15373648300358 kcal/mol)

>  <smiles>  (39) 
Cn1cc(C(=O)N2CCC3(CCN(C(=O)Nc4ccccc4)CC3)CC2)cn1

>  <score_type>  (39) 
oracle

>  <origin>  (39) 
adg

>  <m_score__min__energy>  (39) 
-9.0099999999999998

>  <m_primary>  (39) 
energy

$$$$
39:0
     RDKit          3D

 51 53  0  0  0  0  0  0  0  0999 V2000
   65.0870   31.9870   50.1050 C   0  0  0  0  0  0  0  0  0  0  0  0
   63.7980   32.4360   49.5590 N   0  0  0  0  0  0  0  0  0  0  0  0
   63.5270   33.8380   49.9540 C   0  0  0  0  0  0  0  0  0  0  0  0
   62.4940   34.5350   49.0430 C   0  0  0  0  0  0  0  0  0  0  0  0
   61.6700   33.5510   48.3320 N   0  0  0  0  0  0  0  0  0  0  0  0
   60.2350   33.5800   48.4490 C   0  0  0  0  0  0  0  0  0  0  0  0
   59.7080   33.9190   49.5440 O   0  0  0  0  0  0  0  0  0  0  0  0
   59.3600   33.2020   47.3180 C   0  0  0  0  0  0  0  0  0  0  0  0
   58.9700   34.1660   46.3770 C   0  0  0  0  0  0  0  0  0  0  0  0
   58.1350   33.8160   45.3130 C   0  0  0  0  0  0  0  0  0  0  0  0
   57.6980   32.4980   45.1690 C   0  0  0  0  0  0  0  0  0  0  0  0
   58.1130   31.5090   46.0730 C   0  0  0  0  0  0  0  0  0  0  0  0
   57.6420   30.1600   45.9090 N   0  0  0  0  0  0  0  0  0  0  0  0
   58.4690   29.0720   45.4640 C   0  0  0  0  0  0  0  0  0  0  0  0
   59.5590   29.3110   44.8770 O   0  0  0  0  0  0  0  0  0  0  0  0
   58.0250   27.6730   45.6650 C   0  0  0  0  0  0  0  0  0  0  0  0
   56.6910   27.4060   45.7190 N   0  0  0  0  0  0  0  0  0  0  0  0
   56.2000   26.1500   45.9160 C   0  0  0  0  0  0  0  0  0  0  0  0
   54.8220   25.9150   45.9650 O   0  0  0  0  0  0  0  0  0  0  0  0
   54.1740   24.8440   45.2770 C   0  0  0  0  0  0  0  0  0  0  0  0
   54.3510   23.5260   46.0280 C   0  0  0  0  0  0  0  0  0  0  0  0
   53.1300   22.8870   46.1490 F   0  0  0  0  0  0  0  0  0  0  0  0
   55.2310   22.6990   45.3550 F   0  0  0  0  0  0  0  0  0  0  0  0
   54.8540   23.7790   47.2910 F   0  0  0  0  0  0  0  0  0  0  0  0
   57.0850   25.0800   46.0630 C   0  0  0  0  0  0  0  0  0  0  0  0
   58.4590   25.3150   46.0120 C   0  0  0  0  0  0  0  0  0  0  0  0
   58.9400   26.6120   45.8150 C   0  0  0  0  0  0  0  0  0  0  0  0
   60.2810   26.8180   45.7690 F   0  0  0  0  0  0  0  0  0  0  0  0
   58.9370   31.8710   47.1550 C   0  0  0  0  0  0  0  0  0  0  0  0
   62.3330   32.4600   47.6010 C   0  0  0  0  0  0  0  0  0  0  0  0
   63.7700   32.2700   48.0960 C   0  0  0  0  0  0  0  0  0  0  0  0
   65.0447   32.0017   51.2041 H   0  0  0  0  0  0  0  0  0  0  0  0
   65.2949   30.9635   49.7597 H   0  0  0  0  0  0  0  0  0  0  0  0
   65.8858   32.6598   49.7597 H   0  0  0  0  0  0  0  0  0  0  0  0
   63.1443   33.8434   50.9853 H   0  0  0  0  0  0  0  0  0  0  0  0
   64.4723   34.3931   49.8625 H   0  0  0  0  0  0  0  0  0  0  0  0
   61.8422   35.1713   49.6597 H   0  0  0  0  0  0  0  0  0  0  0  0
   63.0343   35.1408   48.3007 H   0  0  0  0  0  0  0  0  0  0  0  0
   59.3233   35.2029   46.4772 H   0  0  0  0  0  0  0  0  0  0  0  0
   57.8212   34.5806   44.5871 H   0  0  0  0  0  0  0  0  0  0  0  0
   57.0238   32.2333   44.3411 H   0  0  0  0  0  0  0  0  0  0  0  0
   56.6210   29.9830   46.0440 H   0  0  0  0  0  0  0  0  0  0  0  0
   53.1005   25.0683   45.1917 H   0  0  0  0  0  0  0  0  0  0  0  0
   54.6265   24.7430   44.2795 H   0  0  0  0  0  0  0  0  0  0  0  0
   56.7019   24.0605   46.2177 H   0  0  0  0  0  0  0  0  0  0  0  0
   59.1643   24.4787   46.1269 H   0  0  0  0  0  0  0  0  0  0  0  0
   59.2529   31.1060   47.8795 H   0  0  0  0  0  0  0  0  0  0  0  0
   61.7712   31.5273   47.7573 H   0  0  0  0  0  0  0  0  0  0  0  0
   62.3588   32.7161   46.5315 H   0  0  0  0  0  0  0  0  0  0  0  0
   64.1208   31.2613   47.8323 H   0  0  0  0  0  0  0  0  0  0  0  0
   64.4276   33.0151   47.6244 H   0  0  0  0  0  0  0  0  0  0  0  0
  1  2  1  0
  2  3  1  0
  3  4  1  0
  4  5  1  0
  5  6  1  0
  6  7  2  0
  6  8  1  0
  8  9  2  0
  9 10  1  0
 10 11  2  0
 11 12  1  0
 12 13  1  0
 13 14  1  0
 14 15  2  0
 14 16  1  0
 16 17  2  0
 17 18  1  0
 18 19  1  0
 19 20  1  0
 20 21  1  0
 21 22  1  0
 21 23  1  0
 21 24  1  0
 18 25  2  0
 25 26  1  0
 26 27  2  0
 27 28  1  0
 12 29  2  0
  5 30  1  0
 30 31  1  0
 31  2  1  0
 29  8  1  0
 27 16  1  0
  1 32  1  0
  1 33  1  0
  1 34  1  0
  3 35  1  0
  3 36  1  0
  4 37  1  0
  4 38  1  0
  9 39  1  0
 10 40  1  0
 11 41  1  0
 13 42  1  0
 20 43  1  0
 20 44  1  0
 25 45  1  0
 26 46  1  0
 29 47  1  0
 30 48  1  0
 30 49  1  0
 31 50  1  0
 31 51  1  0
M  END
>  <UniqueID>  (40) 
39

>  <SMILES>  (40) 
CN1CCN(C(=O)c2cccc(NC(=O)c3nc(OCC(F)(F)F)ccc3F)c2)CC1

>  <Energy>  (40) 
64.2622028565356

>  <Genealogy>  (40) 
CN1CCN(C(=O)c2cccc(NC(=O)c3nc(OCC(F)(F)F)ccc3F)c2)CC1 (3D coordinates assigned)
CN1CCN(C(=O)c2cccc(NC(=O)c3nc(OCC(F)(F)F)ccc3F)c2)CC1 (nonaromatic ring conformer: 64.2622028565356 kcal/mol)

>  <smiles>  (40) 
CN1CCN(C(=O)c2cccc(NC(=O)c3nc(OCC(F)(F)F)ccc3F)c2)CC1

>  <score_type>  (40) 
oracle

>  <origin>  (40) 
adg

>  <m_score__min__energy>  (40) 
-7.8300000000000001

>  <m_primary>  (40) 
energy

$$$$
40:0
     RDKit          3D

 53 56  0  0  0  0  0  0  0  0999 V2000
   60.7780   26.3810   47.4390 C   0  0  0  0  0  0  0  0  0  0  0  0
   59.6900   27.1150   46.7230 C   0  0  0  0  0  0  0  0  0  0  0  0
   59.9510   28.3430   46.1070 C   0  0  0  0  0  0  0  0  0  0  0  0
   58.9280   29.0040   45.4250 C   0  0  0  0  0  0  0  0  0  0  0  0
   59.1810   30.0960   44.8480 O   0  0  0  0  0  0  0  0  0  0  0  0
   57.6370   28.4400   45.3690 C   0  0  0  0  0  0  0  0  0  0  0  0
   56.5450   29.1290   44.6440 C   0  0  0  0  0  0  0  0  0  0  0  0
   55.4320   29.2790   45.2160 O   0  0  0  0  0  0  0  0  0  0  0  0
   56.7510   29.5900   43.2500 C   0  0  0  0  0  0  0  0  0  0  0  0
   56.9800   30.8580   42.8720 C   0  0  0  0  0  0  0  0  0  0  0  0
   57.4840   31.9330   43.7490 C   0  0  0  0  0  0  0  0  0  0  0  0
   56.8730   32.1520   44.9920 C   0  0  0  0  0  0  0  0  0  0  0  0
   57.3050   33.1930   45.8180 C   0  0  0  0  0  0  0  0  0  0  0  0
   58.3410   34.0490   45.4000 C   0  0  0  0  0  0  0  0  0  0  0  0
   58.8120   35.1130   46.1880 O   0  0  0  0  0  0  0  0  0  0  0  0
   60.0120   35.0980   46.9610 C   0  0  0  0  0  0  0  0  0  0  0  0
   60.3180   33.7040   47.4410 C   0  0  0  0  0  0  0  0  0  0  0  0
   61.5760   33.1340   47.1970 C   0  0  0  0  0  0  0  0  0  0  0  0
   61.8510   31.8450   47.6520 C   0  0  0  0  0  0  0  0  0  0  0  0
   60.8760   31.1320   48.3550 C   0  0  0  0  0  0  0  0  0  0  0  0
   61.1260   29.8320   48.8230 C   0  0  0  0  0  0  0  0  0  0  0  0
   60.1360   29.1400   49.5260 C   0  0  0  0  0  0  0  0  0  0  0  0
   58.8960   29.7380   49.7670 C   0  0  0  0  0  0  0  0  0  0  0  0
   58.6380   31.0320   49.3060 C   0  0  0  0  0  0  0  0  0  0  0  0
   59.6230   31.7390   48.5980 C   0  0  0  0  0  0  0  0  0  0  0  0
   59.3800   33.0030   48.1430 N   0  0  0  0  0  0  0  0  0  0  0  0
   58.9310   33.8440   44.1470 C   0  0  0  0  0  0  0  0  0  0  0  0
   58.4990   32.8030   43.3210 C   0  0  0  0  0  0  0  0  0  0  0  0
   57.4190   27.1920   46.0010 C   0  0  0  0  0  0  0  0  0  0  0  0
   56.0750   26.5220   45.9900 C   0  0  0  0  0  0  0  0  0  0  0  0
   58.4450   26.5760   46.6490 N   0  0  0  0  0  0  0  0  0  0  0  0
   60.6331   26.4788   48.5250 H   0  0  0  0  0  0  0  0  0  0  0  0
   60.7484   25.3175   47.1594 H   0  0  0  0  0  0  0  0  0  0  0  0
   61.7530   26.8066   47.1594 H   0  0  0  0  0  0  0  0  0  0  0  0
   60.9567   28.7855   46.1596 H   0  0  0  0  0  0  0  0  0  0  0  0
   56.7130   28.8281   42.4575 H   0  0  0  0  0  0  0  0  0  0  0  0
   56.7752   31.1168   41.8227 H   0  0  0  0  0  0  0  0  0  0  0  0
   56.0490   31.5006   45.3187 H   0  0  0  0  0  0  0  0  0  0  0  0
   56.8329   33.3442   46.8000 H   0  0  0  0  0  0  0  0  0  0  0  0
   60.8460   35.4575   46.3403 H   0  0  0  0  0  0  0  0  0  0  0  0
   59.8779   35.7518   47.8354 H   0  0  0  0  0  0  0  0  0  0  0  0
   62.3425   33.7015   46.6489 H   0  0  0  0  0  0  0  0  0  0  0  0
   62.8336   31.3901   47.4580 H   0  0  0  0  0  0  0  0  0  0  0  0
   62.1010   29.3582   48.6363 H   0  0  0  0  0  0  0  0  0  0  0  0
   60.3334   28.1212   49.8909 H   0  0  0  0  0  0  0  0  0  0  0  0
   58.1207   29.1886   50.3212 H   0  0  0  0  0  0  0  0  0  0  0  0
   57.6603   31.4979   49.4985 H   0  0  0  0  0  0  0  0  0  0  0  0
   58.4520   33.4470   48.3320 H   0  0  0  0  0  0  0  0  0  0  0  0
   59.7410   34.5076   43.8101 H   0  0  0  0  0  0  0  0  0  0  0  0
   58.9567   32.6646   42.3303 H   0  0  0  0  0  0  0  0  0  0  0  0
   55.7401   26.3550   47.0244 H   0  0  0  0  0  0  0  0  0  0  0  0
   55.3495   27.1639   45.4688 H   0  0  0  0  0  0  0  0  0  0  0  0
   56.1510   25.5563   45.4688 H   0  0  0  0  0  0  0  0  0  0  0  0
  1  2  1  0
  2  3  2  0
  3  4  1  0
  4  5  2  0
  4  6  1  0
  6  7  1  0
  7  8  2  0
  7  9  1  0
  9 10  2  3
 10 11  1  0
 11 12  2  0
 12 13  1  0
 13 14  2  0
 14 15  1  0
 15 16  1  0
 16 17  1  0
 17 18  2  0
 18 19  1  0
 19 20  2  0
 20 21  1  0
 21 22  2  0
 22 23  1  0
 23 24  2  0
 24 25  1  0
 25 26  2  0
 14 27  1  0
 27 28  2  0
  6 29  2  0
 29 30  1  0
 29 31  1  0
 31  2  1  0
 28 11  1  0
 26 17  1  0
 25 20  1  0
  1 32  1  0
  1 33  1  0
  1 34  1  0
  3 35  1  0
  9 36  1  0
 10 37  1  0
 12 38  1  0
 13 39  1  0
 16 40  1  0
 16 41  1  0
 18 42  1  0
 19 43  1  0
 21 44  1  0
 22 45  1  0
 23 46  1  0
 24 47  1  0
 26 48  1  0
 27 49  1  0
 28 50  1  0
 30 51  1  0
 30 52  1  0
 30 53  1  0
M  CHG  2  26   1  31  -1
M  END
>  <UniqueID>  (41) 
40

>  <SMILES>  (41) 
Cc1cc(=O)c(C(=O)C=Cc2ccc(OCc3ccc4ccccc4[nH+]3)cc2)c(C)[n-]1

>  <Energy>  (41) 
74.07669372135058

>  <Genealogy>  (41) 
Cc1cc(=O)c(C(=O)C=Cc2ccc(OCc3ccc4ccccc4[nH+]3)cc2)c(C)[n-]1 (protonated)
Cc1cc(=O)c(C(=O)C=Cc2ccc(OCc3ccc4ccccc4[nH+]3)cc2)c(C)[n-]1 (3D coordinates assigned)
Cc1cc(=O)c(C(=O)C=Cc2ccc(OCc3ccc4ccccc4[nH+]3)cc2)c(C)[n-]1 (optimized conformer: 74.07669372135058 kcal/mol)

>  <smiles>  (41) 
Cc1cc(=O)c(C(=O)C=Cc2ccc(OCc3ccc4ccccc4n3)cc2)c(C)[nH]1

>  <score_type>  (41) 
oracle

>  <origin>  (41) 
adg

>  <m_score__min__energy>  (41) 
-9.4700000000000006

>  <m_primary>  (41) 
energy

$$$$
41:0
     RDKit          3D

 55 57  0  0  0  0  0  0  0  0999 V2000
   56.9640   29.6360   51.6630 O   0  0  0  0  0  0  0  0  0  0  0  0
   56.7460   30.8760   51.6410 C   0  0  0  0  0  0  0  0  0  0  0  0
   57.6980   31.7770   50.9180 C   0  0  0  0  0  0  0  0  0  0  0  0
   58.2110   31.1300   49.7540 O   0  0  0  0  0  0  0  0  0  0  0  0
   58.5630   31.7640   48.5490 C   0  0  0  0  0  0  0  0  0  0  0  0
   57.7760   32.7890   47.9850 C   0  0  0  0  0  0  0  0  0  0  0  0
   58.1630   33.4050   46.7930 C   0  0  0  0  0  0  0  0  0  0  0  0
   59.3390   33.0180   46.1530 C   0  0  0  0  0  0  0  0  0  0  0  0
   60.1340   32.0120   46.7020 C   0  0  0  0  0  0  0  0  0  0  0  0
   59.7480   31.3660   47.8890 C   0  0  0  0  0  0  0  0  0  0  0  0
   60.6520   30.3130   48.4830 C   0  0  0  0  0  0  0  0  0  0  0  0
   59.9900   29.0080   48.4720 N   0  0  0  0  0  0  0  0  0  0  0  0
   60.0760   28.1300   47.3400 C   0  0  0  0  0  0  0  0  0  0  0  0
   60.8250   28.4190   46.3660 O   0  0  0  0  0  0  0  0  0  0  0  0
   59.2840   26.8540   47.3080 C   0  0  0  0  0  0  0  0  0  0  0  0
   57.7750   27.1090   47.4090 C   0  0  0  0  0  0  0  0  0  0  0  0
   56.9560   27.0760   45.8160 S   0  0  0  0  0  0  0  0  0  0  0  0
   55.5080   26.7210   46.0100 O   0  0  0  0  0  0  0  0  0  0  0  0
   57.5970   26.0240   44.9530 O   0  0  0  0  0  0  0  0  0  0  0  0
   57.0640   28.6500   45.0310 C   0  0  0  0  0  0  0  0  0  0  0  0
   58.3120   29.2200   44.7460 C   0  0  0  0  0  0  0  0  0  0  0  0
   58.3870   30.4700   44.1220 C   0  0  0  0  0  0  0  0  0  0  0  0
   57.2160   31.1570   43.7870 C   0  0  0  0  0  0  0  0  0  0  0  0
   55.9690   30.5940   44.0730 C   0  0  0  0  0  0  0  0  0  0  0  0
   55.8920   29.3440   44.6960 C   0  0  0  0  0  0  0  0  0  0  0  0
   55.5640   31.4260   52.2350 N   0  0  0  0  0  0  0  0  0  0  0  0
   54.2130   30.9950   52.0210 C   0  0  0  0  0  0  0  0  0  0  0  0
   53.7870   29.6860   52.3210 C   0  0  0  0  0  0  0  0  0  0  0  0
   52.4530   29.3150   52.1150 C   0  0  0  0  0  0  0  0  0  0  0  0
   51.5340   30.2470   51.6260 C   0  0  0  0  0  0  0  0  0  0  0  0
   51.9440   31.5560   51.3510 C   0  0  0  0  0  0  0  0  0  0  0  0
   51.0270   32.4880   50.8800 O   0  0  0  0  0  0  0  0  0  0  0  0
   53.2780   31.9290   51.5540 C   0  0  0  0  0  0  0  0  0  0  0  0
   57.1714   32.6955   50.6194 H   0  0  0  0  0  0  0  0  0  0  0  0
   58.5355   32.0213   51.5879 H   0  0  0  0  0  0  0  0  0  0  0  0
   56.8503   33.1058   48.4877 H   0  0  0  0  0  0  0  0  0  0  0  0
   57.5376   34.1983   46.3577 H   0  0  0  0  0  0  0  0  0  0  0  0
   59.6404   33.5062   45.2144 H   0  0  0  0  0  0  0  0  0  0  0  0
   61.0700   31.7221   46.2022 H   0  0  0  0  0  0  0  0  0  0  0  0
   61.5780   30.2548   47.8921 H   0  0  0  0  0  0  0  0  0  0  0  0
   60.8841   30.5869   49.5228 H   0  0  0  0  0  0  0  0  0  0  0  0
   59.4020   28.7240   49.2910 H   0  0  0  0  0  0  0  0  0  0  0  0
   59.4928   26.3305   46.3634 H   0  0  0  0  0  0  0  0  0  0  0  0
   59.5838   26.2473   48.1752 H   0  0  0  0  0  0  0  0  0  0  0  0
   57.3297   26.3331   48.0490 H   0  0  0  0  0  0  0  0  0  0  0  0
   57.6372   28.1154   47.8310 H   0  0  0  0  0  0  0  0  0  0  0  0
   59.2344   28.6837   45.0134 H   0  0  0  0  0  0  0  0  0  0  0  0
   59.3680   30.9127   43.8947 H   0  0  0  0  0  0  0  0  0  0  0  0
   57.2762   32.1406   43.2983 H   0  0  0  0  0  0  0  0  0  0  0  0
   55.0480   31.1340   43.8081 H   0  0  0  0  0  0  0  0  0  0  0  0
   54.9098   28.9041   44.9238 H   0  0  0  0  0  0  0  0  0  0  0  0
   54.5048   28.9533   52.7183 H   0  0  0  0  0  0  0  0  0  0  0  0
   52.1278   28.2882   52.3384 H   0  0  0  0  0  0  0  0  0  0  0  0
   50.4880   29.9514   51.4572 H   0  0  0  0  0  0  0  0  0  0  0  0
   53.5944   32.9617   51.3457 H   0  0  0  0  0  0  0  0  0  0  0  0
  1  2  2  0
  2  3  1  0
  3  4  1  0
  4  5  1  0
  5  6  2  0
  6  7  1  0
  7  8  2  0
  8  9  1  0
  9 10  2  0
 10 11  1  0
 11 12  1  0
 12 13  1  0
 13 14  2  0
 13 15  1  0
 15 16  1  0
 16 17  1  0
 17 18  2  0
 17 19  2  0
 17 20  1  0
 20 21  2  0
 21 22  1  0
 22 23  2  0
 23 24  1  0
 24 25  2  0
  2 26  1  0
 26 27  1  0
 27 28  2  0
 28 29  1  0
 29 30  2  0
 30 31  1  0
 31 32  1  0
 31 33  2  0
 10  5  1  0
 25 20  1  0
 33 27  1  0
  3 34  1  0
  3 35  1  0
  6 36  1  0
  7 37  1  0
  8 38  1  0
  9 39  1  0
 11 40  1  0
 11 41  1  0
 12 42  1  0
 15 43  1  0
 15 44  1  0
 16 45  1  0
 16 46  1  0
 21 47  1  0
 22 48  1  0
 23 49  1  0
 24 50  1  0
 25 51  1  0
 28 52  1  0
 29 53  1  0
 30 54  1  0
 33 55  1  0
M  CHG  2  26  -1  32  -1
M  END
>  <UniqueID>  (42) 
41

>  <SMILES>  (42) 
O=C(COc1ccccc1CNC(=O)CCS(=O)(=O)c1ccccc1)[N-]c1cccc([O-])c1

>  <Energy>  (42) 
50.249198801735425

>  <Genealogy>  (42) 
O=C(COc1ccccc1CNC(=O)CCS(=O)(=O)c1ccccc1)[N-]c1cccc([O-])c1 (protonated)
O=C(COc1ccccc1CNC(=O)CCS(=O)(=O)c1ccccc1)[N-]c1cccc([O-])c1 (3D coordinates assigned)
O=C(COc1ccccc1CNC(=O)CCS(=O)(=O)c1ccccc1)[N-]c1cccc([O-])c1 (optimized conformer: 50.249198801735425 kcal/mol)

>  <smiles>  (42) 
O=C(CCS(=O)(=O)c1ccccc1)NCc1ccccc1OCC(=O)Nc1cccc(O)c1

>  <score_type>  (42) 
oracle

>  <origin>  (42) 
adg

>  <m_score__min__energy>  (42) 
-14.65

>  <m_primary>  (42) 
energy

$$$$
42:0
     RDKit          3D

 57 60  0  0  0  0  0  0  0  0999 V2000
   57.2900   21.4220   43.0940 C   0  0  0  0  0  0  0  0  0  0  0  0
   55.9700   21.5840   43.6040 O   0  0  0  0  0  0  0  0  0  0  0  0
   55.6720   22.0310   44.9000 C   0  0  0  0  0  0  0  0  0  0  0  0
   55.1450   21.1800   45.8900 C   0  0  0  0  0  0  0  0  0  0  0  0
   54.8820   21.6720   47.1710 C   0  0  0  0  0  0  0  0  0  0  0  0
   55.1320   23.0130   47.4760 C   0  0  0  0  0  0  0  0  0  0  0  0
   55.6280   23.8820   46.4860 C   0  0  0  0  0  0  0  0  0  0  0  0
   55.9120   25.2630   46.7530 N   0  0  0  0  0  0  0  0  0  0  0  0
   56.4080   26.2380   45.8240 C   0  0  0  0  0  0  0  0  0  0  0  0
   55.7800   27.3130   45.6210 O   0  0  0  0  0  0  0  0  0  0  0  0
   57.6010   25.9520   45.0860 N   0  0  0  0  0  0  0  0  0  0  0  0
   58.1720   26.8840   44.1160 C   0  0  0  0  0  0  0  0  0  0  0  0
   58.6830   28.1180   44.8100 C   0  0  0  0  0  0  0  0  0  0  0  0
   59.8790   28.0780   45.5460 C   0  0  0  0  0  0  0  0  0  0  0  0
   60.3350   29.2210   46.2090 C   0  0  0  0  0  0  0  0  0  0  0  0
   59.6060   30.4100   46.1400 C   0  0  0  0  0  0  0  0  0  0  0  0
   58.4190   30.4710   45.3930 C   0  0  0  0  0  0  0  0  0  0  0  0
   57.6280   31.7150   45.3470 C   0  0  0  0  0  0  0  0  0  0  0  0
   56.4930   31.7000   44.8000 O   0  0  0  0  0  0  0  0  0  0  0  0
   58.1060   32.9400   45.9110 N   0  0  0  0  0  0  0  0  0  0  0  0
   58.1820   34.2080   45.1930 C   0  0  0  0  0  0  0  0  0  0  0  0
   59.4410   34.9710   45.6050 C   0  0  0  0  0  0  0  0  0  0  0  0
   59.9700   34.4670   46.9170 C   0  0  0  0  0  0  0  0  0  0  0  0
   59.3110   34.5120   48.1420 C   0  0  0  0  0  0  0  0  0  0  0  0
   60.1220   34.0700   49.1310 N   0  0  0  0  0  0  0  0  0  0  0  0
   61.2910   33.7620   48.5430 C   0  0  0  0  0  0  0  0  0  0  0  0
   62.4490   33.2920   49.1610 C   0  0  0  0  0  0  0  0  0  0  0  0
   63.5780   33.0580   48.3540 C   0  0  0  0  0  0  0  0  0  0  0  0
   63.5250   33.3000   46.9640 C   0  0  0  0  0  0  0  0  0  0  0  0
   62.3430   33.7770   46.3670 C   0  0  0  0  0  0  0  0  0  0  0  0
   61.2390   33.9960   47.1920 C   0  0  0  0  0  0  0  0  0  0  0  0
   57.9520   29.3160   44.7460 C   0  0  0  0  0  0  0  0  0  0  0  0
   55.9120   23.3750   45.2110 C   0  0  0  0  0  0  0  0  0  0  0  0
   57.9984   21.3351   43.9310 H   0  0  0  0  0  0  0  0  0  0  0  0
   57.3361   20.5115   42.4785 H   0  0  0  0  0  0  0  0  0  0  0  0
   57.5549   22.2944   42.4785 H   0  0  0  0  0  0  0  0  0  0  0  0
   54.9398   20.1253   45.6545 H   0  0  0  0  0  0  0  0  0  0  0  0
   54.4765   21.0012   47.9427 H   0  0  0  0  0  0  0  0  0  0  0  0
   54.9408   23.3899   48.4916 H   0  0  0  0  0  0  0  0  0  0  0  0
   58.0990   25.0510   45.2660 H   0  0  0  0  0  0  0  0  0  0  0  0
   59.0041   26.3939   43.5892 H   0  0  0  0  0  0  0  0  0  0  0  0
   57.3900   27.1762   43.3997 H   0  0  0  0  0  0  0  0  0  0  0  0
   60.4583   27.1445   45.6007 H   0  0  0  0  0  0  0  0  0  0  0  0
   61.2704   29.1837   46.7865 H   0  0  0  0  0  0  0  0  0  0  0  0
   59.9635   31.3031   46.6735 H   0  0  0  0  0  0  0  0  0  0  0  0
   58.2132   34.0120   44.1110 H   0  0  0  0  0  0  0  0  0  0  0  0
   57.2975   34.8141   45.4385 H   0  0  0  0  0  0  0  0  0  0  0  0
   60.2116   34.8381   44.8314 H   0  0  0  0  0  0  0  0  0  0  0  0
   59.1857   36.0352   45.7154 H   0  0  0  0  0  0  0  0  0  0  0  0
   58.2768   34.8580   48.2860 H   0  0  0  0  0  0  0  0  0  0  0  0
   59.8900   34.0060   50.1470 H   0  0  0  0  0  0  0  0  0  0  0  0
   62.4793   33.1098   50.2454 H   0  0  0  0  0  0  0  0  0  0  0  0
   64.5072   32.6843   48.8089 H   0  0  0  0  0  0  0  0  0  0  0  0
   64.4139   33.1144   46.3432 H   0  0  0  0  0  0  0  0  0  0  0  0
   62.2912   33.9708   45.2855 H   0  0  0  0  0  0  0  0  0  0  0  0
   57.0066   29.3492   44.1847 H   0  0  0  0  0  0  0  0  0  0  0  0
   56.3297   24.0427   44.4430 H   0  0  0  0  0  0  0  0  0  0  0  0
  1  2  1  0
  2  3  1  0
  3  4  2  0
  4  5  1  0
  5  6  2  0
  6  7  1  0
  7  8  1  0
  8  9  1  0
  9 10  2  0
  9 11  1  0
 11 12  1  0
 12 13  1  0
 13 14  2  0
 14 15  1  0
 15 16  2  0
 16 17  1  0
 17 18  1  0
 18 19  2  0
 18 20  1  0
 20 21  1  0
 21 22  1  0
 22 23  1  0
 23 24  2  0
 24 25  1  0
 25 26  1  0
 26 27  2  0
 27 28  1  0
 28 29  2  0
 29 30  1  0
 30 31  2  0
 17 32  2  0
  7 33  2  0
 33  3  1  0
 32 13  1  0
 31 23  1  0
 31 26  1  0
  1 34  1  0
  1 35  1  0
  1 36  1  0
  4 37  1  0
  5 38  1  0
  6 39  1  0
 11 40  1  0
 12 41  1  0
 12 42  1  0
 14 43  1  0
 15 44  1  0
 16 45  1  0
 21 46  1  0
 21 47  1  0
 22 48  1  0
 22 49  1  0
 24 50  1  0
 25 51  1  0
 27 52  1  0
 28 53  1  0
 29 54  1  0
 30 55  1  0
 32 56  1  0
 33 57  1  0
M  CHG  2   8  -1  20  -1
M  END
>  <UniqueID>  (43) 
42

>  <SMILES>  (43) 
COc1cccc([N-]C(=O)NCc2cccc(C(=O)[N-]CCc3c[nH]c4ccccc34)c2)c1

>  <Energy>  (43) 
94.9559655311445

>  <Genealogy>  (43) 
COc1cccc([N-]C(=O)NCc2cccc(C(=O)[N-]CCc3c[nH]c4ccccc34)c2)c1 (protonated)
COc1cccc([N-]C(=O)NCc2cccc(C(=O)[N-]CCc3c[nH]c4ccccc34)c2)c1 (3D coordinates assigned)
COc1cccc([N-]C(=O)NCc2cccc(C(=O)[N-]CCc3c[nH]c4ccccc34)c2)c1 (optimized conformer: 94.9559655311445 kcal/mol)

>  <smiles>  (43) 
COc1cccc(NC(=O)NCc2cccc(C(=O)NCCc3c[nH]c4ccccc34)c2)c1

>  <score_type>  (43) 
oracle

>  <origin>  (43) 
adg

>  <m_score__min__energy>  (43) 
-12.31

>  <m_primary>  (43) 
energy

$$$$
43:0
     RDKit          3D

 62 65  0  0  0  0  0  0  0  0999 V2000
   55.1620   29.3460   44.8040 N   0  0  0  0  0  0  0  0  0  0  0  0
   56.8780   29.2940   44.9970 S   0  0  0  0  0  0  0  0  0  0  0  0
   57.3400   30.5040   45.7590 O   0  0  0  0  0  0  0  0  0  0  0  0
   57.5100   29.3070   43.6320 O   0  0  0  0  0  0  0  0  0  0  0  0
   57.3450   27.8260   45.8710 C   0  0  0  0  0  0  0  0  0  0  0  0
   56.6280   26.6420   45.6350 C   0  0  0  0  0  0  0  0  0  0  0  0
   56.9470   25.4710   46.3230 C   0  0  0  0  0  0  0  0  0  0  0  0
   57.9810   25.4670   47.2600 C   0  0  0  0  0  0  0  0  0  0  0  0
   58.7060   26.6320   47.5030 C   0  0  0  0  0  0  0  0  0  0  0  0
   58.4060   27.8160   46.8080 C   0  0  0  0  0  0  0  0  0  0  0  0
   59.2270   29.0130   47.0760 C   0  0  0  0  0  0  0  0  0  0  0  0
   58.8710   29.8950   48.1050 C   0  0  0  0  0  0  0  0  0  0  0  0
   59.6490   31.0260   48.3630 C   0  0  0  0  0  0  0  0  0  0  0  0
   60.8040   31.2900   47.6020 C   0  0  0  0  0  0  0  0  0  0  0  0
   61.6450   32.4920   47.8520 C   0  0  0  0  0  0  0  0  0  0  0  0
   61.5250   33.4860   47.0820 O   0  0  0  0  0  0  0  0  0  0  0  0
   62.5840   32.5490   48.9570 N   0  0  2  0  0  0  0  0  0  0  0  0
   63.8840   33.0920   48.4870 C   0  0  0  0  0  0  0  0  0  0  0  0
   65.0770   32.7000   49.3880 C   0  0  0  0  0  0  0  0  0  0  0  0
   64.6260   32.4060   50.8290 C   0  0  2  0  0  0  0  0  0  0  0  0
   65.7600   32.1380   51.7380 N   0  0  0  0  0  0  0  0  0  0  0  0
   66.0140   30.7150   52.0350 C   0  0  0  0  0  0  0  0  0  0  0  0
   67.2450   30.2230   51.2660 C   0  0  0  0  0  0  0  0  0  0  0  0
   67.1570   28.7480   50.9740 C   0  0  0  0  0  0  0  0  0  0  0  0
   68.0490   28.1500   50.0670 C   0  0  0  0  0  0  0  0  0  0  0  0
   67.9940   26.7730   49.8340 C   0  0  0  0  0  0  0  0  0  0  0  0
   67.0580   25.9830   50.5110 C   0  0  0  0  0  0  0  0  0  0  0  0
   66.1760   26.5680   51.4200 C   0  0  0  0  0  0  0  0  0  0  0  0
   66.2280   27.9440   51.6600 C   0  0  0  0  0  0  0  0  0  0  0  0
   63.5440   31.2980   50.8840 C   0  0  0  0  0  0  0  0  0  0  0  0
   62.7330   31.2160   49.5780 C   0  0  0  0  0  0  0  0  0  0  0  0
   61.1540   30.3980   46.5740 C   0  0  0  0  0  0  0  0  0  0  0  0
   60.3810   29.2630   46.3200 C   0  0  0  0  0  0  0  0  0  0  0  0
   54.7470   29.3580   45.7610 H   0  0  0  0  0  0  0  0  0  0  0  0
   55.8081   26.6377   44.9017 H   0  0  0  0  0  0  0  0  0  0  0  0
   56.3817   24.5481   46.1262 H   0  0  0  0  0  0  0  0  0  0  0  0
   58.2239   24.5440   47.8069 H   0  0  0  0  0  0  0  0  0  0  0  0
   59.5189   26.6248   48.2441 H   0  0  0  0  0  0  0  0  0  0  0  0
   57.9754   29.6959   48.7119 H   0  0  0  0  0  0  0  0  0  0  0  0
   59.3568   31.7166   49.1678 H   0  0  0  0  0  0  0  0  0  0  0  0
   62.1950   33.1830   49.6940 H   0  0  0  0  0  0  0  0  0  0  0  0
   64.0740   32.7117   47.4725 H   0  0  0  0  0  0  0  0  0  0  0  0
   63.8052   34.1889   48.5130 H   0  0  0  0  0  0  0  0  0  0  0  0
   65.5569   31.8011   48.9738 H   0  0  0  0  0  0  0  0  0  0  0  0
   65.7809   33.5449   49.4135 H   0  0  0  0  0  0  0  0  0  0  0  0
   64.1532   33.3263   51.2025 H   0  0  0  0  0  0  0  0  0  0  0  0
   65.5870   32.6430   52.6380 H   0  0  0  0  0  0  0  0  0  0  0  0
   66.1885   30.5951   53.1144 H   0  0  0  0  0  0  0  0  0  0  0  0
   65.1394   30.1233   51.7268 H   0  0  0  0  0  0  0  0  0  0  0  0
   67.3165   30.7724   50.3157 H   0  0  0  0  0  0  0  0  0  0  0  0
   68.1352   30.4005   51.8873 H   0  0  0  0  0  0  0  0  0  0  0  0
   68.7916   28.7668   49.5397 H   0  0  0  0  0  0  0  0  0  0  0  0
   68.6877   26.3094   49.1172 H   0  0  0  0  0  0  0  0  0  0  0  0
   67.0176   24.8994   50.3262 H   0  0  0  0  0  0  0  0  0  0  0  0
   65.4388   25.9456   51.9484 H   0  0  0  0  0  0  0  0  0  0  0  0
   65.5404   28.3999   52.3876 H   0  0  0  0  0  0  0  0  0  0  0  0
   64.0362   30.3297   51.0574 H   0  0  0  0  0  0  0  0  0  0  0  0
   62.8485   31.5436   51.7001 H   0  0  0  0  0  0  0  0  0  0  0  0
   63.2521   30.5484   48.8745 H   0  0  0  0  0  0  0  0  0  0  0  0
   61.7313   30.8275   49.8137 H   0  0  0  0  0  0  0  0  0  0  0  0
   62.0468   30.5960   45.9626 H   0  0  0  0  0  0  0  0  0  0  0  0
   60.6782   28.5634   45.5249 H   0  0  0  0  0  0  0  0  0  0  0  0
  1  2  1  0
  2  3  2  0
  2  4  2  0
  2  5  1  0
  5  6  2  0
  6  7  1  0
  7  8  2  0
  8  9  1  0
  9 10  2  0
 10 11  1  0
 11 12  2  0
 12 13  1  0
 13 14  2  0
 14 15  1  0
 15 16  2  0
 15 17  1  0
 17 18  1  0
 18 19  1  0
 19 20  1  0
 20 21  1  0
 21 22  1  0
 22 23  1  0
 23 24  1  0
 24 25  2  0
 25 26  1  0
 26 27  2  0
 27 28  1  0
 28 29  2  0
 20 30  1  0
 30 31  1  0
 14 32  1  0
 32 33  2  0
 10  5  1  0
 33 11  1  0
 31 17  1  0
 29 24  1  0
  1 34  1  0
  6 35  1  0
  7 36  1  0
  8 37  1  0
  9 38  1  0
 12 39  1  0
 13 40  1  0
 17 41  1  1
 18 42  1  0
 18 43  1  0
 19 44  1  0
 19 45  1  0
 20 46  1  1
 21 47  1  0
 22 48  1  0
 22 49  1  0
 23 50  1  0
 23 51  1  0
 25 52  1  0
 26 53  1  0
 27 54  1  0
 28 55  1  0
 29 56  1  0
 30 57  1  0
 30 58  1  0
 31 59  1  0
 31 60  1  0
 32 61  1  0
 33 62  1  0
M  CHG  2   1  -1  17   1
M  END
>  <UniqueID>  (44) 
43

>  <SMILES>  (44) 
[NH-]S(=O)(=O)c1ccccc1-c1ccc(C(=O)[NH+]2CCC(NCCc3ccccc3)CC2)cc1

>  <Energy>  (44) 
86.72993143543323

>  <Genealogy>  (44) 
[NH-]S(=O)(=O)c1ccccc1-c1ccc(C(=O)[NH+]2CCC(NCCc3ccccc3)CC2)cc1 (protonated)
[NH-]S(=O)(=O)c1ccccc1-c1ccc(C(=O)[NH+]2CCC(NCCc3ccccc3)CC2)cc1 (3D coordinates assigned)
[NH-]S(=O)(=O)c1ccccc1-c1ccc(C(=O)[NH+]2CCC(NCCc3ccccc3)CC2)cc1 (nonaromatic ring conformer: 86.72993143543323 kcal/mol)

>  <smiles>  (44) 
NS(=O)(=O)c1ccccc1-c1ccc(C(=O)N2CCC(NCCc3ccccc3)CC2)cc1

>  <score_type>  (44) 
oracle

>  <origin>  (44) 
adg

>  <m_score__min__energy>  (44) 
-10.85

>  <m_primary>  (44) 
energy

$$$$
44:0
     RDKit          3D

 47 50  0  0  0  0  0  0  0  0999 V2000
   55.0126   30.7055   43.6457 H   0  0  0  0  0  0  0  0  0  0  0  0
   55.7940   30.1350   44.1690 C   0  0  0  0  0  0  0  0  0  0  0  0
   55.5290   29.0040   44.8740 N   0  0  0  0  0  0  0  0  0  0  0  0
   56.6520   28.4860   45.4240 C   0  0  0  0  0  0  0  0  0  0  0  0
   56.6870   27.4040   46.1440 N   0  0  0  0  0  0  0  0  0  0  0  0
   56.4570   26.0670   45.6730 C   0  0  0  0  0  0  0  0  0  0  0  0
   55.4150   25.4350   46.0070 O   0  0  0  0  0  0  0  0  0  0  0  0
   57.4610   25.4330   44.8670 N   0  0  0  0  0  0  0  0  0  0  0  0
   58.3970   25.8960   44.8090 H   0  0  0  0  0  0  0  0  0  0  0  0
   57.3160   24.1200   44.3040 C   0  0  0  0  0  0  0  0  0  0  0  0
   56.2930   23.8850   43.3730 C   0  0  0  0  0  0  0  0  0  0  0  0
   55.6213   24.7055   43.0804 H   0  0  0  0  0  0  0  0  0  0  0  0
   56.1220   22.6150   42.8150 C   0  0  0  0  0  0  0  0  0  0  0  0
   55.3264   22.4427   42.0752 H   0  0  0  0  0  0  0  0  0  0  0  0
   56.9610   21.5630   43.1960 C   0  0  0  0  0  0  0  0  0  0  0  0
   56.7930   20.3310   42.6550 F   0  0  0  0  0  0  0  0  0  0  0  0
   57.9650   21.7800   44.1440 C   0  0  0  0  0  0  0  0  0  0  0  0
   58.6196   20.9503   44.4491 H   0  0  0  0  0  0  0  0  0  0  0  0
   58.1400   23.0490   44.7060 C   0  0  0  0  0  0  0  0  0  0  0  0
   59.0750   23.2150   45.6750 F   0  0  0  0  0  0  0  0  0  0  0  0
   58.0160   29.4010   45.0700 S   0  0  0  0  0  0  0  0  0  0  0  0
   57.1340   30.5140   44.1620 C   0  0  0  0  0  0  0  0  0  0  0  0
   57.6970   31.7390   43.5120 C   0  0  0  0  0  0  0  0  0  0  0  0
   58.5638   31.4576   42.8960 H   0  0  0  0  0  0  0  0  0  0  0  0
   56.9217   32.1992   42.8819 H   0  0  0  0  0  0  0  0  0  0  0  0
   58.1310   32.7290   44.5570 C   0  0  0  0  0  0  0  0  0  0  0  0
   58.8360   33.8840   44.1840 C   0  0  0  0  0  0  0  0  0  0  0  0
   59.0363   34.0848   43.1212 H   0  0  0  0  0  0  0  0  0  0  0  0
   59.2840   34.7790   45.1580 C   0  0  0  0  0  0  0  0  0  0  0  0
   59.8357   35.6826   44.8595 H   0  0  0  0  0  0  0  0  0  0  0  0
   59.0340   34.5310   46.5110 C   0  0  0  0  0  0  0  0  0  0  0  0
   59.3990   35.2334   47.2748 H   0  0  0  0  0  0  0  0  0  0  0  0
   58.3160   33.3840   46.8970 C   0  0  0  0  0  0  0  0  0  0  0  0
   58.0560   33.0880   48.2440 O   0  0  0  0  0  0  0  0  0  0  0  0
   58.5330   31.9690   48.9420 C   0  0  0  0  0  0  0  0  0  0  0  0
   59.2240   30.9790   48.2300 C   0  0  0  0  0  0  0  0  0  0  0  0
   59.3875   31.0962   47.1486 H   0  0  0  0  0  0  0  0  0  0  0  0
   59.7070   29.8420   48.8880 C   0  0  0  0  0  0  0  0  0  0  0  0
   60.2513   29.0701   48.3241 H   0  0  0  0  0  0  0  0  0  0  0  0
   59.4980   29.6870   50.2610 C   0  0  0  0  0  0  0  0  0  0  0  0
   59.8928   28.8015   50.7806 H   0  0  0  0  0  0  0  0  0  0  0  0
   58.7880   30.6560   50.9740 C   0  0  0  0  0  0  0  0  0  0  0  0
   58.6165   30.5286   52.0531 H   0  0  0  0  0  0  0  0  0  0  0  0
   58.2950   31.7880   50.3170 C   0  0  0  0  0  0  0  0  0  0  0  0
   57.7192   32.5395   50.8771 H   0  0  0  0  0  0  0  0  0  0  0  0
   57.8890   32.4790   45.9190 C   0  0  0  0  0  0  0  0  0  0  0  0
   57.3588   31.5630   46.2188 H   0  0  0  0  0  0  0  0  0  0  0  0
  1  2  1  0
  2  3  1  0
  3  4  1  0
  4  5  2  0
  5  6  1  0
  6  7  2  0
  6  8  1  0
  8  9  1  0
  8 10  1  0
 10 11  2  0
 11 12  1  0
 11 13  1  0
 13 14  1  0
 13 15  2  0
 15 16  1  0
 15 17  1  0
 17 18  1  0
 17 19  2  0
 19 20  1  0
  4 21  1  0
 21 22  1  0
 22 23  1  0
 23 24  1  0
 23 25  1  0
 23 26  1  0
 26 27  2  0
 27 28  1  0
 27 29  1  0
 29 30  1  0
 29 31  2  0
 31 32  1  0
 31 33  1  0
 33 34  1  0
 34 35  1  0
 35 36  2  0
 36 37  1  0
 36 38  1  0
 38 39  1  0
 38 40  2  0
 40 41  1  0
 40 42  1  0
 42 43  1  0
 42 44  2  0
 44 45  1  0
 33 46  2  0
 46 47  1  0
 22  2  2  0
 46 26  1  0
 19 10  1  0
 44 35  1  0
M  CHG  1   3  -1
M  END
>  <UniqueID>  (45) 
44

>  <SMILES>  (45) 
O=C(/N=c1\[n-]cc(Cc2cccc(Oc3ccccc3)c2)s1)Nc1ccc(F)cc1F

>  <Energy>  (45) 
93.16370045737267

>  <Genealogy>  (45) 
O=C(N=c1[n-]cc(Cc2cccc(Oc3ccccc3)c2)s1)Nc1ccc(F)cc1F (protonated)
O=C(/N=c1\[n-]cc(Cc2cccc(Oc3ccccc3)c2)s1)Nc1ccc(F)cc1F (cis-trans isomerization)
O=C(/N=c1\[n-]cc(Cc2cccc(Oc3ccccc3)c2)s1)Nc1ccc(F)cc1F (3D coordinates assigned)
O=C(/N=c1\[n-]cc(Cc2cccc(Oc3ccccc3)c2)s1)Nc1ccc(F)cc1F (optimized conformer: 93.16370045737267 kcal/mol)

>  <smiles>  (45) 
O=C(N=c1[nH]cc(Cc2cccc(Oc3ccccc3)c2)s1)Nc1ccc(F)cc1F

>  <score_type>  (45) 
oracle

>  <origin>  (45) 
adg

>  <m_score__min__energy>  (45) 
-11.73

>  <m_primary>  (45) 
energy

$$$$
45:0
     RDKit          3D

 37 39  0  0  0  0  0  0  0  0999 V2000
   60.5760   29.9090   46.9380 C   0  0  0  0  0  0  0  0  0  0  0  0
   59.8280   28.7990   46.8230 C   0  0  0  0  0  0  0  0  0  0  0  0
   59.0350   28.5090   45.7460 N   0  0  0  0  0  0  0  0  0  0  0  0
   58.8370   29.2970   44.5140 C   0  0  0  0  0  0  0  0  0  0  0  0
   57.9920   30.5130   44.7750 C   0  0  0  0  0  0  0  0  0  0  0  0
   58.4560   31.6140   45.3940 N   0  0  0  0  0  0  0  0  0  0  0  0
   57.3900   32.4370   45.4160 C   0  0  0  0  0  0  0  0  0  0  0  0
   57.4300   33.5900   45.9200 O   0  0  0  0  0  0  0  0  0  0  0  0
   56.2750   31.9280   44.8550 N   0  0  0  0  0  0  0  0  0  0  0  0
   56.6600   30.7020   44.4560 C   0  0  0  0  0  0  0  0  0  0  0  0
   55.7530   29.7420   43.7590 C   0  0  0  0  0  0  0  0  0  0  0  0
   58.4330   27.3260   46.0470 C   0  0  0  0  0  0  0  0  0  0  0  0
   57.5740   26.6720   45.2370 C   0  0  0  0  0  0  0  0  0  0  0  0
   56.8470   25.4450   45.6210 C   0  0  0  0  0  0  0  0  0  0  0  0
   55.4950   25.4840   45.9980 C   0  0  0  0  0  0  0  0  0  0  0  0
   54.7920   26.6830   45.9930 O   0  0  0  0  0  0  0  0  0  0  0  0
   54.8660   24.3430   46.3800 N   0  0  0  0  0  0  0  0  0  0  0  0
   55.5260   23.1570   46.4210 C   0  0  0  0  0  0  0  0  0  0  0  0
   54.9210   22.1130   46.7750 O   0  0  0  0  0  0  0  0  0  0  0  0
   56.8410   23.0990   46.0870 N   0  0  0  0  0  0  0  0  0  0  0  0
   57.5150   24.2120   45.6960 C   0  0  0  0  0  0  0  0  0  0  0  0
   58.7360   24.1230   45.3980 O   0  0  0  0  0  0  0  0  0  0  0  0
   58.8550   26.9450   47.3080 C   0  0  0  0  0  0  0  0  0  0  0  0
   58.4900   25.9150   47.9360 O   0  0  0  0  0  0  0  0  0  0  0  0
   59.7330   27.8460   47.7920 N   0  0  0  0  0  0  0  0  0  0  0  0
   60.4170   27.7520   49.0580 C   0  0  0  0  0  0  0  0  0  0  0  0
   60.6420   26.4770   49.6570 N   0  0  0  0  0  0  0  0  0  0  0  0
   60.8570   28.7850   49.6290 O   0  0  0  0  0  0  0  0  0  0  0  0
   61.1880   30.0690   47.8379 H   0  0  0  0  0  0  0  0  0  0  0  0
   60.5764   30.6578   46.1323 H   0  0  0  0  0  0  0  0  0  0  0  0
   59.8175   29.6170   44.1315 H   0  0  0  0  0  0  0  0  0  0  0  0
   58.3197   28.6656   43.7766 H   0  0  0  0  0  0  0  0  0  0  0  0
   55.1979   29.1544   44.5051 H   0  0  0  0  0  0  0  0  0  0  0  0
   55.0437   30.2990   43.1293 H   0  0  0  0  0  0  0  0  0  0  0  0
   56.3494   29.0654   43.1293 H   0  0  0  0  0  0  0  0  0  0  0  0
   57.4049   27.0778   44.2287 H   0  0  0  0  0  0  0  0  0  0  0  0
   59.9710   25.6910   49.5120 H   0  0  0  0  0  0  0  0  0  0  0  0
  1  2  2  0
  2  3  1  0
  3  4  1  0
  4  5  1  0
  5  6  1  0
  6  7  1  0
  7  8  2  0
  7  9  1  0
  9 10  1  0
 10 11  1  0
  3 12  1  0
 12 13  2  3
 13 14  1  0
 14 15  2  0
 15 16  1  0
 15 17  1  0
 17 18  1  0
 18 19  2  0
 18 20  1  0
 20 21  1  0
 21 22  2  0
 12 23  1  0
 23 24  2  0
 23 25  1  0
 25 26  1  0
 26 27  1  0
 26 28  2  0
 25  2  1  0
 10  5  2  0
 21 14  1  0
  1 29  1  0
  1 30  1  0
  4 31  1  0
  4 32  1  0
 11 33  1  0
 11 34  1  0
 11 35  1  0
 13 36  1  0
 27 37  1  0
M  CHG  6   6  -1   9  -1  16  -1  17  -1  20  -1  27  -1
M  END
>  <UniqueID>  (46) 
45

>  <SMILES>  (46) 
C=c1n(Cc2[n-]c(=O)[n-]c2C)c(=Cc2c([O-])[n-]c(=O)[n-]c2=O)c(=O)n1C([NH-])=O

>  <Energy>  (46) 
118.77883402520696

>  <Genealogy>  (46) 
C=c1n(Cc2[n-]c(=O)[n-]c2C)c(=Cc2c([O-])[n-]c(=O)[n-]c2=O)c(=O)n1C([NH-])=O (protonated)
C=c1n(Cc2[n-]c(=O)[n-]c2C)c(=Cc2c([O-])[n-]c(=O)[n-]c2=O)c(=O)n1C([NH-])=O (3D coordinates assigned)
C=c1n(Cc2[n-]c(=O)[n-]c2C)c(=Cc2c([O-])[n-]c(=O)[n-]c2=O)c(=O)n1C([NH-])=O (optimized conformer: 118.77883402520696 kcal/mol)

>  <smiles>  (46) 
C=c1n(Cc2[nH]c(=O)[nH]c2C)c(=Cc2c(O)[nH]c(=O)[nH]c2=O)c(=O)n1C(N)=O

>  <score_type>  (46) 
oracle

>  <origin>  (46) 
adg

>  <m_score__min__energy>  (46) 
-17.43

>  <m_primary>  (46) 
energy

$$$$
46:0
     RDKit          3D

 72 76  0  0  0  0  0  0  0  0999 V2000
   64.0070   34.2480   51.5050 C   0  0  0  0  0  0  0  0  0  0  0  0
   63.5510   33.7510   50.1580 C   0  0  0  0  0  0  0  0  0  0  0  0
   62.3640   34.2720   49.6110 C   0  0  0  0  0  0  0  0  0  0  0  0
   61.9180   33.8500   48.3580 C   0  0  0  0  0  0  0  0  0  0  0  0
   62.6360   32.8920   47.6380 C   0  0  0  0  0  0  0  0  0  0  0  0
   63.8200   32.3690   48.1640 C   0  0  0  0  0  0  0  0  0  0  0  0
   64.2990   32.7880   49.4200 C   0  0  0  0  0  0  0  0  0  0  0  0
   65.6490   32.2850   49.8820 C   0  0  0  0  0  0  0  0  0  0  0  0
   65.5640   31.7140   51.1920 O   0  0  0  0  0  0  0  0  0  0  0  0
   65.8030   30.3500   51.4560 C   0  0  0  0  0  0  0  0  0  0  0  0
   67.1050   29.8300   51.3330 C   0  0  0  0  0  0  0  0  0  0  0  0
   67.3560   28.4790   51.5610 C   0  0  0  0  0  0  0  0  0  0  0  0
   66.3130   27.6310   51.9330 C   0  0  0  0  0  0  0  0  0  0  0  0
   65.0180   28.1320   52.0780 C   0  0  0  0  0  0  0  0  0  0  0  0
   64.7430   29.4940   51.8500 C   0  0  0  0  0  0  0  0  0  0  0  0
   63.3360   29.9730   51.9640 C   0  0  0  0  0  0  0  0  0  0  0  0
   63.0910   31.2120   51.9310 O   0  0  0  0  0  0  0  0  0  0  0  0
   62.2350   29.0630   52.0590 N   0  0  0  0  0  0  0  0  0  0  0  0
   61.6090   28.5880   50.8160 C   0  0  0  0  0  0  0  0  0  0  0  0
   60.0770   28.6850   50.9230 C   0  0  0  0  0  0  0  0  0  0  0  0
   59.7230   29.8910   51.7010 N   0  0  0  0  0  0  0  0  0  0  0  0
   58.2950   30.1570   51.5770 C   0  0  0  0  0  0  0  0  0  0  0  0
   57.4880   29.3420   52.0030 O   0  0  0  0  0  0  0  0  0  0  0  0
   57.7930   31.4050   50.8540 C   0  0  1  0  0  0  0  0  0  0  0  0
   57.3370   32.5170   51.8100 C   0  0  0  0  0  0  0  0  0  0  0  0
   58.5450   33.4350   51.9630 C   0  0  0  0  0  0  0  0  0  0  0  0
   59.3590   33.2500   50.6840 C   0  0  0  0  0  0  0  0  0  0  0  0
   58.8710   32.0190   50.0820 N   0  0  0  0  0  0  0  0  0  0  0  0
   59.2150   31.6530   48.7360 C   0  0  0  0  0  0  0  0  0  0  0  0
   59.8980   30.6150   48.5390 O   0  0  0  0  0  0  0  0  0  0  0  0
   58.7610   32.4650   47.5900 C   0  0  0  0  0  0  0  0  0  0  0  0
   58.9320   33.8620   47.5920 C   0  0  0  0  0  0  0  0  0  0  0  0
   58.5260   34.6250   46.4910 C   0  0  0  0  0  0  0  0  0  0  0  0
   57.9360   34.0070   45.3860 C   0  0  0  0  0  0  0  0  0  0  0  0
   57.7540   32.6160   45.3840 C   0  0  0  0  0  0  0  0  0  0  0  0
   58.1570   31.8510   46.4790 C   0  0  0  0  0  0  0  0  0  0  0  0
   60.1190   29.7670   53.1300 C   0  0  0  0  0  0  0  0  0  0  0  0
   61.4630   29.0270   53.3040 C   0  0  0  0  0  0  0  0  0  0  0  0
   63.4911   33.6857   52.2972 H   0  0  0  0  0  0  0  0  0  0  0  0
   65.0933   34.1034   51.6007 H   0  0  0  0  0  0  0  0  0  0  0  0
   63.7697   35.3178   51.6007 H   0  0  0  0  0  0  0  0  0  0  0  0
   61.7836   35.0171   50.1750 H   0  0  0  0  0  0  0  0  0  0  0  0
   60.9956   34.2742   47.9346 H   0  0  0  0  0  0  0  0  0  0  0  0
   62.2698   32.5501   46.6587 H   0  0  0  0  0  0  0  0  0  0  0  0
   64.3852   31.6203   47.5895 H   0  0  0  0  0  0  0  0  0  0  0  0
   66.0073   31.5190   49.1785 H   0  0  0  0  0  0  0  0  0  0  0  0
   66.3465   33.1349   49.9152 H   0  0  0  0  0  0  0  0  0  0  0  0
   67.9334   30.4977   51.0538 H   0  0  0  0  0  0  0  0  0  0  0  0
   68.3754   28.0814   51.4478 H   0  0  0  0  0  0  0  0  0  0  0  0
   66.5114   26.5641   52.1127 H   0  0  0  0  0  0  0  0  0  0  0  0
   64.2031   27.4549   52.3738 H   0  0  0  0  0  0  0  0  0  0  0  0
   61.9546   29.2073   49.9752 H   0  0  0  0  0  0  0  0  0  0  0  0
   61.8919   27.5381   50.6496 H   0  0  0  0  0  0  0  0  0  0  0  0
   59.6409   28.7551   49.9156 H   0  0  0  0  0  0  0  0  0  0  0  0
   59.6828   27.7898   51.4262 H   0  0  0  0  0  0  0  0  0  0  0  0
   60.2560   30.6960   51.2880 H   0  0  0  0  0  0  0  0  0  0  0  0
   56.9554   31.0490   50.2362 H   0  0  0  0  0  0  0  0  0  0  0  0
   56.4860   33.0677   51.3828 H   0  0  0  0  0  0  0  0  0  0  0  0
   57.0018   32.1148   52.7774 H   0  0  0  0  0  0  0  0  0  0  0  0
   58.2225   34.4816   52.0660 H   0  0  0  0  0  0  0  0  0  0  0  0
   59.1325   33.1922   52.8607 H   0  0  0  0  0  0  0  0  0  0  0  0
   59.2012   34.0991   50.0027 H   0  0  0  0  0  0  0  0  0  0  0  0
   60.4379   33.2002   50.8928 H   0  0  0  0  0  0  0  0  0  0  0  0
   59.3869   34.3566   48.4629 H   0  0  0  0  0  0  0  0  0  0  0  0
   58.6721   35.7152   46.4960 H   0  0  0  0  0  0  0  0  0  0  0  0
   57.6158   34.6078   44.5220 H   0  0  0  0  0  0  0  0  0  0  0  0
   57.2912   32.1259   44.5147 H   0  0  0  0  0  0  0  0  0  0  0  0
   58.0013   30.7621   46.4729 H   0  0  0  0  0  0  0  0  0  0  0  0
   60.2121   30.7752   53.5599 H   0  0  0  0  0  0  0  0  0  0  0  0
   59.3432   29.1808   53.6443 H   0  0  0  0  0  0  0  0  0  0  0  0
   62.0424   29.5124   54.1031 H   0  0  0  0  0  0  0  0  0  0  0  0
   61.2597   27.9781   53.5657 H   0  0  0  0  0  0  0  0  0  0  0  0
  1  2  1  0
  2  3  2  0
  3  4  1  0
  4  5  2  0
  5  6  1  0
  6  7  2  0
  7  8  1  0
  8  9  1  0
  9 10  1  0
 10 11  2  0
 11 12  1  0
 12 13  2  0
 13 14  1  0
 14 15  2  0
 15 16  1  0
 16 17  2  0
 16 18  1  0
 18 19  1  0
 19 20  1  0
 20 21  1  0
 21 22  1  0
 22 23  2  0
 22 24  1  0
 24 25  1  0
 25 26  1  0
 26 27  1  0
 27 28  1  0
 28 29  1  0
 29 30  2  0
 29 31  1  0
 31 32  2  0
 32 33  1  0
 33 34  2  0
 34 35  1  0
 35 36  2  0
 21 37  1  0
 37 38  1  0
  7  2  1  0
 15 10  1  0
 38 18  1  0
 28 24  1  0
 36 31  1  0
  1 39  1  0
  1 40  1  0
  1 41  1  0
  3 42  1  0
  4 43  1  0
  5 44  1  0
  6 45  1  0
  8 46  1  0
  8 47  1  0
 11 48  1  0
 12 49  1  0
 13 50  1  0
 14 51  1  0
 19 52  1  0
 19 53  1  0
 20 54  1  0
 20 55  1  0
 21 56  1  0
 24 57  1  6
 25 58  1  0
 25 59  1  0
 26 60  1  0
 26 61  1  0
 27 62  1  0
 27 63  1  0
 32 64  1  0
 33 65  1  0
 34 66  1  0
 35 67  1  0
 36 68  1  0
 37 69  1  0
 37 70  1  0
 38 71  1  0
 38 72  1  0
M  CHG  1  21   1
M  END
>  <UniqueID>  (47) 
46

>  <SMILES>  (47) 
Cc1ccccc1COc1ccccc1C(=O)N1CC[NH+](C(=O)[C@H]2CCCN2C(=O)c2ccccc2)CC1

>  <Energy>  (47) 
107.0036897904215

>  <Genealogy>  (47) 
Cc1ccccc1COc1ccccc1C(=O)N1CC[NH+](C(=O)C2CCCN2C(=O)c2ccccc2)CC1 (protonated)
Cc1ccccc1COc1ccccc1C(=O)N1CC[NH+](C(=O)[C@H]2CCCN2C(=O)c2ccccc2)CC1 (chirality)
Cc1ccccc1COc1ccccc1C(=O)N1CC[NH+](C(=O)[C@H]2CCCN2C(=O)c2ccccc2)CC1 (3D coordinates assigned)
Cc1ccccc1COc1ccccc1C(=O)N1CC[NH+](C(=O)[C@H]2CCCN2C(=O)c2ccccc2)CC1 (nonaromatic ring conformer: 107.0036897904215 kcal/mol)

>  <smiles>  (47) 
Cc1ccccc1COc1ccccc1C(=O)N1CCN(C(=O)C2CCCN2C(=O)c2ccccc2)CC1

>  <score_type>  (47) 
oracle

>  <origin>  (47) 
adg

>  <m_score__min__energy>  (47) 
-8.3200000000000003

>  <m_primary>  (47) 
energy

$$$$
47:0
     RDKit          3D

 45 46  0  0  0  0  0  0  0  0999 V2000
   58.2410   27.4460   44.3650 C   0  0  0  0  0  0  0  0  0  0  0  0
   57.1140   27.8290   44.9750 C   0  0  0  0  0  0  0  0  0  0  0  0
   56.5030   26.9630   46.0130 C   0  0  0  0  0  0  0  0  0  0  0  0
   57.2150   26.4570   46.9200 O   0  0  0  0  0  0  0  0  0  0  0  0
   55.1410   26.6830   45.9930 O   0  0  0  0  0  0  0  0  0  0  0  0
   56.4450   29.0950   44.5820 C   0  0  0  0  0  0  0  0  0  0  0  0
   55.2460   29.2880   44.9150 O   0  0  0  0  0  0  0  0  0  0  0  0
   57.1060   30.0980   43.7960 N   0  0  0  0  0  0  0  0  0  0  0  0
   57.7140   31.2950   44.3040 C   0  0  0  0  0  0  0  0  0  0  0  0
   58.0510   31.3380   45.6620 C   0  0  0  0  0  0  0  0  0  0  0  0
   58.6170   32.4870   46.2180 C   0  0  0  0  0  0  0  0  0  0  0  0
   58.8600   33.6120   45.4200 C   0  0  0  0  0  0  0  0  0  0  0  0
   59.4940   34.8400   46.0140 C   0  0  0  0  0  0  0  0  0  0  0  0
   60.5620   34.4480   46.9990 C   0  0  0  0  0  0  0  0  0  0  0  0
   60.3400   34.5850   48.3750 C   0  0  0  0  0  0  0  0  0  0  0  0
   61.3150   34.1870   49.2940 C   0  0  0  0  0  0  0  0  0  0  0  0
   62.5350   33.6290   48.8560 C   0  0  0  0  0  0  0  0  0  0  0  0
   63.5480   33.2130   49.8090 N   0  0  0  0  0  0  0  0  0  0  0  0
   63.2860   33.2780   51.2520 C   0  0  0  0  0  0  0  0  0  0  0  0
   64.8500   32.7170   49.3460 C   0  0  0  0  0  0  0  0  0  0  0  0
   62.7420   33.4850   47.4680 C   0  0  0  0  0  0  0  0  0  0  0  0
   61.7650   33.8850   46.5530 C   0  0  0  0  0  0  0  0  0  0  0  0
   58.5710   33.5580   44.0480 C   0  0  0  0  0  0  0  0  0  0  0  0
   58.0230   32.3990   43.4730 C   0  0  0  0  0  0  0  0  0  0  0  0
   57.7910   32.3710   41.9860 C   0  0  0  0  0  0  0  0  0  0  0  0
   58.6950   28.0873   43.5952 H   0  0  0  0  0  0  0  0  0  0  0  0
   58.7139   26.4897   44.6332 H   0  0  0  0  0  0  0  0  0  0  0  0
   57.8682   30.4585   46.2969 H   0  0  0  0  0  0  0  0  0  0  0  0
   58.8732   32.5087   47.2875 H   0  0  0  0  0  0  0  0  0  0  0  0
   59.9438   35.4417   45.2105 H   0  0  0  0  0  0  0  0  0  0  0  0
   58.7227   35.4263   46.5349 H   0  0  0  0  0  0  0  0  0  0  0  0
   59.3911   35.0090   48.7352 H   0  0  0  0  0  0  0  0  0  0  0  0
   61.1292   34.3101   50.3712 H   0  0  0  0  0  0  0  0  0  0  0  0
   64.2100   33.0488   51.8031 H   0  0  0  0  0  0  0  0  0  0  0  0
   62.9421   34.2887   51.5171 H   0  0  0  0  0  0  0  0  0  0  0  0
   62.5096   32.5452   51.5171 H   0  0  0  0  0  0  0  0  0  0  0  0
   65.4808   32.4767   50.2145 H   0  0  0  0  0  0  0  0  0  0  0  0
   64.7026   31.8120   48.7383 H   0  0  0  0  0  0  0  0  0  0  0  0
   65.3421   33.4906   48.7383 H   0  0  0  0  0  0  0  0  0  0  0  0
   63.6846   33.0523   47.1015 H   0  0  0  0  0  0  0  0  0  0  0  0
   61.9414   33.7570   45.4748 H   0  0  0  0  0  0  0  0  0  0  0  0
   58.7760   34.4338   43.4148 H   0  0  0  0  0  0  0  0  0  0  0  0
   56.7174   32.2414   41.7848 H   0  0  0  0  0  0  0  0  0  0  0  0
   58.1354   33.3172   41.5433 H   0  0  0  0  0  0  0  0  0  0  0  0
   58.3507   31.5339   41.5433 H   0  0  0  0  0  0  0  0  0  0  0  0
  1  2  2  0
  2  3  1  0
  3  4  2  0
  3  5  1  0
  2  6  1  0
  6  7  2  0
  6  8  1  0
  8  9  1  0
  9 10  2  0
 10 11  1  0
 11 12  2  0
 12 13  1  0
 13 14  1  0
 14 15  2  0
 15 16  1  0
 16 17  2  0
 17 18  1  0
 18 19  1  0
 18 20  1  0
 17 21  1  0
 21 22  2  0
 12 23  1  0
 23 24  2  0
 24 25  1  0
 24  9  1  0
 22 14  1  0
  1 26  1  0
  1 27  1  0
 10 28  1  0
 11 29  1  0
 13 30  1  0
 13 31  1  0
 15 32  1  0
 16 33  1  0
 19 34  1  0
 19 35  1  0
 19 36  1  0
 20 37  1  0
 20 38  1  0
 20 39  1  0
 21 40  1  0
 22 41  1  0
 23 42  1  0
 25 43  1  0
 25 44  1  0
 25 45  1  0
M  CHG  2   5  -1   8  -1
M  END
>  <UniqueID>  (48) 
47

>  <SMILES>  (48) 
C=C(C(=O)[O-])C(=O)[N-]c1ccc(Cc2ccc(N(C)C)cc2)cc1C

>  <Energy>  (48) 
54.19089028172203

>  <Genealogy>  (48) 
C=C(C(=O)[O-])C(=O)[N-]c1ccc(Cc2ccc(N(C)C)cc2)cc1C (protonated)
C=C(C(=O)[O-])C(=O)[N-]c1ccc(Cc2ccc(N(C)C)cc2)cc1C (3D coordinates assigned)
C=C(C(=O)[O-])C(=O)[N-]c1ccc(Cc2ccc(N(C)C)cc2)cc1C (optimized conformer: 54.19089028172203 kcal/mol)

>  <smiles>  (48) 
C=C(C(=O)O)C(=O)Nc1ccc(Cc2ccc(N(C)C)cc2)cc1C

>  <score_type>  (48) 
oracle

>  <origin>  (48) 
adg

>  <m_score__min__energy>  (48) 
-12.970000000000001

>  <m_primary>  (48) 
energy

$$$$
48:0
     RDKit          3D

 30 32  0  0  0  0  0  0  0  0999 V2000
   59.1075   26.1579   45.4206 H   0  0  0  0  0  0  0  0  0  0  0  0
   58.8470   27.0840   45.9540 C   0  0  0  0  0  0  0  0  0  0  0  0
   59.5470   27.4540   46.9840 N   0  0  0  0  0  0  0  0  0  0  0  0
   59.7470   28.8000   47.4490 C   0  0  0  0  0  0  0  0  0  0  0  0
   58.8940   29.2850   48.4510 C   0  0  0  0  0  0  0  0  0  0  0  0
   58.0978   28.6385   48.8487 H   0  0  0  0  0  0  0  0  0  0  0  0
   59.0460   30.5820   48.9490 C   0  0  0  0  0  0  0  0  0  0  0  0
   58.3662   30.9540   49.7297 H   0  0  0  0  0  0  0  0  0  0  0  0
   60.0610   31.4070   48.4560 C   0  0  0  0  0  0  0  0  0  0  0  0
   60.2700   33.1780   49.1390 Br  0  0  0  0  0  0  0  0  0  0  0  0
   60.9270   30.9310   47.4670 C   0  0  0  0  0  0  0  0  0  0  0  0
   61.7283   31.5788   47.0819 H   0  0  0  0  0  0  0  0  0  0  0  0
   60.7780   29.6350   46.9660 C   0  0  0  0  0  0  0  0  0  0  0  0
   61.4665   29.2640   46.1925 H   0  0  0  0  0  0  0  0  0  0  0  0
   57.7030   27.8990   45.4940 C   0  0  0  0  0  0  0  0  0  0  0  0
   56.3370   27.6050   45.6230 C   0  0  0  0  0  0  0  0  0  0  0  0
   55.7320   26.3770   46.1730 C   0  0  0  0  0  0  0  0  0  0  0  0
   56.4360   25.5920   46.8590 O   0  0  0  0  0  0  0  0  0  0  0  0
   54.3890   26.0830   45.9820 O   0  0  0  0  0  0  0  0  0  0  0  0
   55.5710   28.6090   45.1310 N   0  0  0  0  0  0  0  0  0  0  0  0
   56.4420   29.5310   44.6900 C   0  0  0  0  0  0  0  0  0  0  0  0
   56.1210   30.7550   44.1060 C   0  0  0  0  0  0  0  0  0  0  0  0
   55.0728   31.0498   43.9500 H   0  0  0  0  0  0  0  0  0  0  0  0
   57.1750   31.6020   43.7220 C   0  0  0  0  0  0  0  0  0  0  0  0
   56.9543   32.5730   43.2546 H   0  0  0  0  0  0  0  0  0  0  0  0
   58.5140   31.2130   43.9330 C   0  0  0  0  0  0  0  0  0  0  0  0
   59.3314   31.8847   43.6318 H   0  0  0  0  0  0  0  0  0  0  0  0
   58.8120   29.9740   44.5250 C   0  0  0  0  0  0  0  0  0  0  0  0
   59.8535   29.6649   44.6975 H   0  0  0  0  0  0  0  0  0  0  0  0
   57.7440   29.1440   44.8890 C   0  0  0  0  0  0  0  0  0  0  0  0
  1  2  1  0
  2  3  2  0
  3  4  1  0
  4  5  2  0
  5  6  1  0
  5  7  1  0
  7  8  1  0
  7  9  2  0
  9 10  1  0
  9 11  1  0
 11 12  1  0
 11 13  2  0
 13 14  1  0
  2 15  1  0
 15 16  2  0
 16 17  1  0
 17 18  2  0
 17 19  1  0
 16 20  1  0
 20 21  1  0
 21 22  2  0
 22 23  1  0
 22 24  1  0
 24 25  1  0
 24 26  2  0
 26 27  1  0
 26 28  1  0
 28 29  1  0
 28 30  2  0
 13  4  1  0
 30 15  1  0
 30 21  1  0
M  CHG  2  19  -1  20  -1
M  END
>  <UniqueID>  (49) 
48

>  <SMILES>  (49) 
O=C([O-])c1[n-]c2ccccc2c1/C=N/c1ccc(Br)cc1

>  <Energy>  (49) 
69.74599388889412

>  <Genealogy>  (49) 
O=C([O-])c1[n-]c2ccccc2c1C=Nc1ccc(Br)cc1 (protonated)
O=C([O-])c1[n-]c2ccccc2c1/C=N/c1ccc(Br)cc1 (cis-trans isomerization)
O=C([O-])c1[n-]c2ccccc2c1/C=N/c1ccc(Br)cc1 (3D coordinates assigned)
O=C([O-])c1[n-]c2ccccc2c1/C=N/c1ccc(Br)cc1 (optimized conformer: 69.74599388889412 kcal/mol)

>  <smiles>  (49) 
O=C(O)c1[nH]c2ccccc2c1C=Nc1ccc(Br)cc1

>  <score_type>  (49) 
oracle

>  <origin>  (49) 
adg

>  <m_score__min__energy>  (49) 
-11.800000000000001

>  <m_primary>  (49) 
energy

$$$$
49:0
     RDKit          3D

 37 38  0  0  0  0  0  0  0  0999 V2000
   59.6640   30.4950   47.3540 C   0  0  0  0  0  0  0  0  0  0  0  0
   58.6500   29.9630   46.3770 C   0  0  0  0  0  0  0  0  0  0  0  0
   58.0770   28.7000   46.5860 C   0  0  0  0  0  0  0  0  0  0  0  0
   57.1330   28.1820   45.6870 C   0  0  0  0  0  0  0  0  0  0  0  0
   56.5270   26.8530   45.9240 C   0  0  0  0  0  0  0  0  0  0  0  0
   57.2510   25.8380   46.0980 O   0  0  0  0  0  0  0  0  0  0  0  0
   55.1440   26.7060   45.9580 O   0  0  0  0  0  0  0  0  0  0  0  0
   56.7850   28.9350   44.5550 C   0  0  0  0  0  0  0  0  0  0  0  0
   57.3650   30.1900   44.3150 C   0  0  0  0  0  0  0  0  0  0  0  0
   57.0040   30.9140   43.0450 C   0  0  0  0  0  0  0  0  0  0  0  0
   58.2680   30.7320   45.2610 C   0  0  0  0  0  0  0  0  0  0  0  0
   58.8620   32.0260   45.0830 N   0  0  0  0  0  0  0  0  0  0  0  0
   58.1580   33.2730   45.1180 C   0  0  0  0  0  0  0  0  0  0  0  0
   57.5400   33.6730   44.0960 O   0  0  0  0  0  0  0  0  0  0  0  0
   58.0580   34.0630   46.3640 C   0  0  0  0  0  0  0  0  0  0  0  0
   59.0300   34.8230   46.8930 C   0  0  0  0  0  0  0  0  0  0  0  0
   60.3090   34.3120   47.4170 C   0  0  0  0  0  0  0  0  0  0  0  0
   61.2960   33.8640   46.5260 C   0  0  0  0  0  0  0  0  0  0  0  0
   62.5120   33.3760   47.0140 C   0  0  0  0  0  0  0  0  0  0  0  0
   62.7430   33.3150   48.3920 C   0  0  0  0  0  0  0  0  0  0  0  0
   64.2720   32.7090   49.0010 Cl  0  0  0  0  0  0  0  0  0  0  0  0
   61.7490   33.7330   49.2850 C   0  0  0  0  0  0  0  0  0  0  0  0
   60.5320   34.2190   48.8000 C   0  0  0  0  0  0  0  0  0  0  0  0
   59.3149   30.3119   48.3809 H   0  0  0  0  0  0  0  0  0  0  0  0
   60.6263   29.9856   47.1975 H   0  0  0  0  0  0  0  0  0  0  0  0
   59.7918   31.5763   47.1975 H   0  0  0  0  0  0  0  0  0  0  0  0
   58.3714   28.1085   47.4655 H   0  0  0  0  0  0  0  0  0  0  0  0
   56.0461   28.5352   43.8449 H   0  0  0  0  0  0  0  0  0  0  0  0
   56.5258   31.8731   43.2929 H   0  0  0  0  0  0  0  0  0  0  0  0
   57.9150   31.0997   42.4571 H   0  0  0  0  0  0  0  0  0  0  0  0
   56.3075   30.2981   42.4571 H   0  0  0  0  0  0  0  0  0  0  0  0
   57.1015   34.0245   46.9059 H   0  0  0  0  0  0  0  0  0  0  0  0
   58.8589   35.9086   46.9387 H   0  0  0  0  0  0  0  0  0  0  0  0
   61.1128   33.8968   45.4419 H   0  0  0  0  0  0  0  0  0  0  0  0
   63.2891   33.0391   46.3122 H   0  0  0  0  0  0  0  0  0  0  0  0
   61.9262   33.6788   50.3693 H   0  0  0  0  0  0  0  0  0  0  0  0
   59.7461   34.5298   49.5041 H   0  0  0  0  0  0  0  0  0  0  0  0
  1  2  1  0
  2  3  2  0
  3  4  1  0
  4  5  1  0
  5  6  2  0
  5  7  1  0
  4  8  2  0
  8  9  1  0
  9 10  1  0
  9 11  2  0
 11 12  1  0
 12 13  1  0
 13 14  2  0
 13 15  1  0
 15 16  2  3
 16 17  1  0
 17 18  2  0
 18 19  1  0
 19 20  2  0
 20 21  1  0
 20 22  1  0
 22 23  2  0
 11  2  1  0
 23 17  1  0
  1 24  1  0
  1 25  1  0
  1 26  1  0
  3 27  1  0
  8 28  1  0
 10 29  1  0
 10 30  1  0
 10 31  1  0
 15 32  1  0
 16 33  1  0
 18 34  1  0
 19 35  1  0
 22 36  1  0
 23 37  1  0
M  CHG  2   7  -1  12  -1
M  END
>  <UniqueID>  (50) 
49

>  <SMILES>  (50) 
Cc1cc(C(=O)[O-])cc(C)c1[N-]C(=O)C=Cc1ccc(Cl)cc1

>  <Energy>  (50) 
51.24369454145788

>  <Genealogy>  (50) 
Cc1cc(C(=O)[O-])cc(C)c1[N-]C(=O)C=Cc1ccc(Cl)cc1 (protonated)
Cc1cc(C(=O)[O-])cc(C)c1[N-]C(=O)C=Cc1ccc(Cl)cc1 (3D coordinates assigned)
Cc1cc(C(=O)[O-])cc(C)c1[N-]C(=O)C=Cc1ccc(Cl)cc1 (optimized conformer: 51.24369454145788 kcal/mol)

>  <smiles>  (50) 
Cc1cc(C(=O)O)cc(C)c1NC(=O)C=Cc1ccc(Cl)cc1

>  <score_type>  (50) 
oracle

>  <origin>  (50) 
adg

>  <m_score__min__energy>  (50) 
-11.710000000000001

>  <m_primary>  (50) 
energy

$$$$
50:0
     RDKit          3D

 47 50  0  0  0  0  0  0  0  0999 V2000
   57.4290   33.4340   44.3840 C   0  0  0  0  0  0  0  0  0  0  0  0
   57.7620   32.2040   44.7770 C   0  0  0  0  0  0  0  0  0  0  0  0
   57.6800   30.8480   43.7820 S   0  0  0  0  0  0  0  0  0  0  0  0
   58.2740   29.7520   44.9150 C   0  0  0  0  0  0  0  0  0  0  0  0
   58.4060   28.4380   44.6890 C   0  0  0  0  0  0  0  0  0  0  0  0
   57.6340   27.3980   45.4100 C   0  0  0  0  0  0  0  0  0  0  0  0
   56.2460   27.5070   45.6190 C   0  0  0  0  0  0  0  0  0  0  0  0
   55.5510   28.6400   45.2000 O   0  0  0  0  0  0  0  0  0  0  0  0
   55.5750   26.5050   46.2540 N   0  0  0  0  0  0  0  0  0  0  0  0
   56.2270   25.4080   46.7170 C   0  0  0  0  0  0  0  0  0  0  0  0
   55.5830   24.4880   47.2870 O   0  0  0  0  0  0  0  0  0  0  0  0
   57.5760   25.3080   46.5740 N   0  0  0  0  0  0  0  0  0  0  0  0
   58.2910   26.2770   45.9420 C   0  0  0  0  0  0  0  0  0  0  0  0
   59.5440   26.1530   45.8340 O   0  0  0  0  0  0  0  0  0  0  0  0
   58.5400   30.4400   46.1020 C   0  0  0  0  0  0  0  0  0  0  0  0
   58.2680   31.8160   46.0260 C   0  0  0  0  0  0  0  0  0  0  0  0
   58.4530   32.7080   47.1920 C   0  0  0  0  0  0  0  0  0  0  0  0
   57.8510   33.8180   47.2260 O   0  0  0  0  0  0  0  0  0  0  0  0
   59.2930   32.3130   48.2960 N   0  0  0  0  0  0  0  0  0  0  0  0
   60.5740   31.6340   48.0270 C   0  0  0  0  0  0  0  0  0  0  0  0
   61.4260   31.5010   49.2950 C   0  0  0  0  0  0  0  0  0  0  0  0
   61.3420   32.7250   50.0980 N   0  0  0  0  0  0  0  0  0  0  0  0
   62.5340   33.3230   50.6250 C   0  0  0  0  0  0  0  0  0  0  0  0
   62.7090   33.3640   51.8760 O   0  0  0  0  0  0  0  0  0  0  0  0
   63.6120   33.8320   49.7080 C   0  0  0  0  0  0  0  0  0  0  0  0
   64.1740   32.8230   48.7170 C   0  0  0  0  0  0  0  0  0  0  0  0
   63.1780   33.8760   48.2480 C   0  0  0  0  0  0  0  0  0  0  0  0
   60.0440   33.3400   50.4000 C   0  0  0  0  0  0  0  0  0  0  0  0
   58.9010   32.6220   49.6780 C   0  0  0  0  0  0  0  0  0  0  0  0
   57.5068   34.2761   45.0874 H   0  0  0  0  0  0  0  0  0  0  0  0
   57.0765   33.6065   43.3564 H   0  0  0  0  0  0  0  0  0  0  0  0
   59.1279   28.1126   43.9254 H   0  0  0  0  0  0  0  0  0  0  0  0
   54.7710   28.5650   44.5560 H   0  0  0  0  0  0  0  0  0  0  0  0
   58.9254   29.9509   47.0088 H   0  0  0  0  0  0  0  0  0  0  0  0
   60.3677   30.6292   47.6298 H   0  0  0  0  0  0  0  0  0  0  0  0
   61.1354   32.2393   47.3001 H   0  0  0  0  0  0  0  0  0  0  0  0
   61.0601   30.6513   49.8901 H   0  0  0  0  0  0  0  0  0  0  0  0
   62.4741   31.3358   49.0049 H   0  0  0  0  0  0  0  0  0  0  0  0
   64.0662   34.5306   50.4261 H   0  0  0  0  0  0  0  0  0  0  0  0
   65.2274   32.8855   48.4063 H   0  0  0  0  0  0  0  0  0  0  0  0
   64.2249   31.7252   48.6696 H   0  0  0  0  0  0  0  0  0  0  0  0
   63.5121   34.6991   47.5992 H   0  0  0  0  0  0  0  0  0  0  0  0
   62.2120   33.8541   47.7222 H   0  0  0  0  0  0  0  0  0  0  0  0
   59.8687   33.2901   51.4848 H   0  0  0  0  0  0  0  0  0  0  0  0
   60.0683   34.3841   50.0546 H   0  0  0  0  0  0  0  0  0  0  0  0
   58.6665   31.6868   50.2076 H   0  0  0  0  0  0  0  0  0  0  0  0
   58.0164   33.2757   49.6641 H   0  0  0  0  0  0  0  0  0  0  0  0
  1  2  2  0
  2  3  1  0
  3  4  1  0
  4  5  2  3
  5  6  1  0
  6  7  2  0
  7  8  1  0
  7  9  1  0
  9 10  1  0
 10 11  2  0
 10 12  1  0
 12 13  1  0
 13 14  2  0
  4 15  1  0
 15 16  2  0
 16 17  1  0
 17 18  2  0
 17 19  1  0
 19 20  1  0
 20 21  1  0
 21 22  1  0
 22 23  1  0
 23 24  2  0
 23 25  1  0
 25 26  1  0
 26 27  1  0
 22 28  1  0
 28 29  1  0
 16  2  1  0
 29 19  1  0
 13  6  1  0
 27 25  1  0
  1 30  1  0
  1 31  1  0
  5 32  1  0
  8 33  1  0
 15 34  1  0
 20 35  1  0
 20 36  1  0
 21 37  1  0
 21 38  1  0
 25 39  1  0
 26 40  1  0
 26 41  1  0
 27 42  1  0
 27 43  1  0
 28 44  1  0
 28 45  1  0
 29 46  1  0
 29 47  1  0
M  CHG  2   9  -1  12  -1
M  END
>  <UniqueID>  (51) 
50

>  <SMILES>  (51) 
C=c1sc(=Cc2c(O)[n-]c(=O)[n-]c2=O)cc1C(=O)N1CCN(C(=O)C2CC2)CC1

>  <Energy>  (51) 
357.25035300546654

>  <Genealogy>  (51) 
C=c1sc(=Cc2c(O)[n-]c(=O)[n-]c2=O)cc1C(=O)N1CCN(C(=O)C2CC2)CC1 (protonated)
C=c1sc(=Cc2c(O)[n-]c(=O)[n-]c2=O)cc1C(=O)N1CCN(C(=O)C2CC2)CC1 (3D coordinates assigned)
C=c1sc(=Cc2c(O)[n-]c(=O)[n-]c2=O)cc1C(=O)N1CCN(C(=O)C2CC2)CC1 (nonaromatic ring conformer: 357.25035300546654 kcal/mol)

>  <smiles>  (51) 
C=c1sc(=Cc2c(O)[nH]c(=O)[nH]c2=O)cc1C(=O)N1CCN(C(=O)C2CC2)CC1

>  <score_type>  (51) 
oracle

>  <origin>  (51) 
adg

>  <m_score__min__energy>  (51) 
-13.35

>  <m_primary>  (51) 
energy

$$$$
51:0
     RDKit          3D

 40 40  0  0  0  0  0  0  0  0999 V2000
   53.6240   23.7440   45.1350 C   0  0  0  0  0  0  0  0  0  0  0  0
   53.3250   22.9290   46.3960 C   0  0  0  0  0  0  0  0  0  0  0  0
   54.5430   22.7600   47.3320 C   0  0  2  0  0  0  0  0  0  0  0  0
   54.1220   22.6360   48.8030 C   0  0  0  0  0  0  0  0  0  0  0  0
   55.4960   23.8630   47.1610 N   0  0  0  0  0  0  0  0  0  0  0  0
   56.9070   23.6460   47.0190 C   0  0  0  0  0  0  0  0  0  0  0  0
   57.3860   22.4820   47.1030 O   0  0  0  0  0  0  0  0  0  0  0  0
   57.8150   24.7990   46.7360 C   0  0  0  0  0  0  0  0  0  0  0  0
   57.1120   26.0420   47.0220 N   0  0  0  0  0  0  0  0  0  0  0  0
   56.2200   26.7290   46.1320 C   0  0  0  0  0  0  0  0  0  0  0  0
   55.0600   26.2650   45.9870 O   0  0  0  0  0  0  0  0  0  0  0  0
   56.6150   27.9600   45.4000 C   0  0  0  0  0  0  0  0  0  0  0  0
   57.8330   28.1870   45.1770 O   0  0  0  0  0  0  0  0  0  0  0  0
   55.6570   28.9230   44.9400 N   0  0  0  0  0  0  0  0  0  0  0  0
   55.7660   29.7220   43.7260 C   0  0  0  0  0  0  0  0  0  0  0  0
   56.6400   30.9020   43.9890 C   0  0  0  0  0  0  0  0  0  0  0  0
   57.4900   31.4970   43.0760 C   0  0  0  0  0  0  0  0  0  0  0  0
   58.0650   32.5610   43.7410 C   0  0  0  0  0  0  0  0  0  0  0  0
   57.5260   32.5430   45.0130 C   0  0  0  0  0  0  0  0  0  0  0  0
   57.8290   33.5200   46.0970 C   0  0  0  0  0  0  0  0  0  0  0  0
   56.6760   31.5500   45.1310 O   0  0  0  0  0  0  0  0  0  0  0  0
   53.9898   24.7412   45.4211 H   0  0  0  0  0  0  0  0  0  0  0  0
   54.3917   23.2289   44.5389 H   0  0  0  0  0  0  0  0  0  0  0  0
   52.7053   23.8476   44.5389 H   0  0  0  0  0  0  0  0  0  0  0  0
   52.5253   23.4364   46.9555 H   0  0  0  0  0  0  0  0  0  0  0  0
   53.0328   21.9215   46.0649 H   0  0  0  0  0  0  0  0  0  0  0  0
   55.0403   21.8209   47.0478 H   0  0  0  0  0  0  0  0  0  0  0  0
   54.9748   22.8872   49.4509 H   0  0  0  0  0  0  0  0  0  0  0  0
   53.2910   23.3275   49.0061 H   0  0  0  0  0  0  0  0  0  0  0  0
   53.7985   21.6044   49.0061 H   0  0  0  0  0  0  0  0  0  0  0  0
   55.1440   24.8480   47.1420 H   0  0  0  0  0  0  0  0  0  0  0  0
   58.7099   24.7275   47.3717 H   0  0  0  0  0  0  0  0  0  0  0  0
   58.1185   24.7803   45.6789 H   0  0  0  0  0  0  0  0  0  0  0  0
   56.2045   29.1118   42.9227 H   0  0  0  0  0  0  0  0  0  0  0  0
   54.7667   30.0647   43.4196 H   0  0  0  0  0  0  0  0  0  0  0  0
   57.6706   31.1872   42.0361 H   0  0  0  0  0  0  0  0  0  0  0  0
   58.7999   33.2752   43.3412 H   0  0  0  0  0  0  0  0  0  0  0  0
   57.6801   33.0399   47.0754 H   0  0  0  0  0  0  0  0  0  0  0  0
   58.8731   33.8545   46.0078 H   0  0  0  0  0  0  0  0  0  0  0  0
   57.1574   34.3866   46.0078 H   0  0  0  0  0  0  0  0  0  0  0  0
  1  2  1  0
  2  3  1  0
  3  4  1  0
  3  5  1  0
  5  6  1  0
  6  7  2  0
  6  8  1  0
  8  9  1  0
  9 10  1  0
 10 11  2  0
 10 12  1  0
 12 13  2  0
 12 14  1  0
 14 15  1  0
 15 16  1  0
 16 17  2  0
 17 18  1  0
 18 19  2  0
 19 20  1  0
 19 21  1  0
 21 16  1  0
  1 22  1  0
  1 23  1  0
  1 24  1  0
  2 25  1  0
  2 26  1  0
  3 27  1  6
  4 28  1  0
  4 29  1  0
  4 30  1  0
  5 31  1  0
  8 32  1  0
  8 33  1  0
 15 34  1  0
 15 35  1  0
 17 36  1  0
 18 37  1  0
 20 38  1  0
 20 39  1  0
 20 40  1  0
M  CHG  2   9  -1  14  -1
M  END
>  <UniqueID>  (52) 
51

>  <SMILES>  (52) 
CC[C@H](C)NC(=O)C[N-]C(=O)C(=O)[N-]Cc1ccc(C)o1

>  <Energy>  (52) 
52.110434694988214

>  <Genealogy>  (52) 
CCC(C)NC(=O)C[N-]C(=O)C(=O)[N-]Cc1ccc(C)o1 (protonated)
CC[C@H](C)NC(=O)C[N-]C(=O)C(=O)[N-]Cc1ccc(C)o1 (chirality)
CC[C@H](C)NC(=O)C[N-]C(=O)C(=O)[N-]Cc1ccc(C)o1 (3D coordinates assigned)
CC[C@H](C)NC(=O)C[N-]C(=O)C(=O)[N-]Cc1ccc(C)o1 (optimized conformer: 52.110434694988214 kcal/mol)

>  <smiles>  (52) 
CCC(C)NC(=O)CNC(=O)C(=O)NCc1ccc(C)o1

>  <score_type>  (52) 
oracle

>  <origin>  (52) 
adg

>  <m_score__min__energy>  (52) 
-10.68

>  <m_primary>  (52) 
energy

$$$$
52:0
     RDKit          3D

 48 51  0  0  0  0  0  0  0  0999 V2000
   57.2750   28.9410   44.3620 C   0  0  0  0  0  0  0  0  0  0  0  0
   58.1650   29.8590   43.7370 O   0  0  0  0  0  0  0  0  0  0  0  0
   57.8380   31.1970   43.5140 C   0  0  0  0  0  0  0  0  0  0  0  0
   57.3850   31.5580   42.3940 O   0  0  0  0  0  0  0  0  0  0  0  0
   58.0280   32.2000   44.5820 C   0  0  0  0  0  0  0  0  0  0  0  0
   57.4440   33.4820   44.4660 C   0  0  0  0  0  0  0  0  0  0  0  0
   57.6390   34.4550   45.4650 C   0  0  0  0  0  0  0  0  0  0  0  0
   58.4370   34.1760   46.5850 C   0  0  0  0  0  0  0  0  0  0  0  0
   59.0230   32.9150   46.6730 C   0  0  0  0  0  0  0  0  0  0  0  0
   59.9060   32.3970   47.6010 C   0  0  0  0  0  0  0  0  0  0  0  0
   60.4720   33.0560   48.8150 C   0  0  0  0  0  0  0  0  0  0  0  0
   59.4970   33.0060   49.9450 C   0  0  0  0  0  0  0  0  0  0  0  0
   59.5430   33.7710   51.1100 C   0  0  0  0  0  0  0  0  0  0  0  0
   58.5470   33.5170   51.9970 N   0  0  0  0  0  0  0  0  0  0  0  0
   57.7160   32.5500   51.5500 C   0  0  0  0  0  0  0  0  0  0  0  0
   56.6850   32.1530   52.2330 N   0  0  0  0  0  0  0  0  0  0  0  0
   56.2360   30.7910   52.3180 C   0  0  0  0  0  0  0  0  0  0  0  0
   57.0920   29.8650   52.2820 O   0  0  0  0  0  0  0  0  0  0  0  0
   54.7950   30.4540   52.4410 C   0  0  0  0  0  0  0  0  0  0  0  0
   54.3890   29.3820   53.2480 C   0  0  0  0  0  0  0  0  0  0  0  0
   53.0310   29.0990   53.4000 C   0  0  0  0  0  0  0  0  0  0  0  0
   52.0520   29.8790   52.7550 C   0  0  0  0  0  0  0  0  0  0  0  0
   50.6650   29.6170   53.0240 N   0  0  0  0  0  0  0  0  0  0  0  0
   49.9360   30.5340   53.4640 O   0  0  0  0  0  0  0  0  0  0  0  0
   50.0760   28.4970   52.4790 O   0  0  0  0  0  0  0  0  0  0  0  0
   52.4470   30.9550   51.9240 C   0  0  0  0  0  0  0  0  0  0  0  0
   51.4710   31.7790   51.1700 C   0  0  0  0  0  0  0  0  0  0  0  0
   51.0500   31.4140   50.0370 O   0  0  0  0  0  0  0  0  0  0  0  0
   51.0530   33.0060   51.6780 O   0  0  0  0  0  0  0  0  0  0  0  0
   53.8240   31.2180   51.7750 C   0  0  0  0  0  0  0  0  0  0  0  0
   58.1700   31.9780   50.0240 S   0  0  0  0  0  0  0  0  0  0  0  0
   60.1940   31.1120   47.1620 C   0  0  0  0  0  0  0  0  0  0  0  0
   59.5370   30.8440   46.0110 N   0  0  0  0  0  0  0  0  0  0  0  0
   58.8200   31.9460   45.7170 C   0  0  0  0  0  0  0  0  0  0  0  0
   57.3627   29.0315   45.4548 H   0  0  0  0  0  0  0  0  0  0  0  0
   56.2423   29.1662   44.0572 H   0  0  0  0  0  0  0  0  0  0  0  0
   57.5320   27.9158   44.0572 H   0  0  0  0  0  0  0  0  0  0  0  0
   56.8302   33.7223   43.5853 H   0  0  0  0  0  0  0  0  0  0  0  0
   57.1621   35.4414   45.3667 H   0  0  0  0  0  0  0  0  0  0  0  0
   58.5952   34.9302   47.3699 H   0  0  0  0  0  0  0  0  0  0  0  0
   61.3950   32.5360   49.1111 H   0  0  0  0  0  0  0  0  0  0  0  0
   60.6863   34.1087   48.5788 H   0  0  0  0  0  0  0  0  0  0  0  0
   60.3252   34.5217   51.2958 H   0  0  0  0  0  0  0  0  0  0  0  0
   55.1406   28.7642   53.7612 H   0  0  0  0  0  0  0  0  0  0  0  0
   52.7208   28.2544   54.0328 H   0  0  0  0  0  0  0  0  0  0  0  0
   54.1453   32.0420   51.1209 H   0  0  0  0  0  0  0  0  0  0  0  0
   60.8639   30.4091   47.6789 H   0  0  0  0  0  0  0  0  0  0  0  0
   59.6260   29.9670   45.4530 H   0  0  0  0  0  0  0  0  0  0  0  0
  1  2  1  0
  2  3  1  0
  3  4  2  0
  3  5  1  0
  5  6  2  0
  6  7  1  0
  7  8  2  0
  8  9  1  0
  9 10  1  0
 10 11  1  0
 11 12  1  0
 12 13  2  0
 13 14  1  0
 14 15  1  0
 15 16  2  3
 16 17  1  0
 17 18  2  0
 17 19  1  0
 19 20  2  0
 20 21  1  0
 21 22  2  0
 22 23  1  0
 23 24  2  0
 23 25  1  0
 22 26  1  0
 26 27  1  0
 27 28  2  0
 27 29  1  0
 26 30  2  0
 15 31  1  0
 10 32  2  0
 32 33  1  0
 33 34  1  0
 34  5  1  0
 34  9  2  0
 31 12  1  0
 30 19  1  0
  1 35  1  0
  1 36  1  0
  1 37  1  0
  6 38  1  0
  7 39  1  0
  8 40  1  0
 11 41  1  0
 11 42  1  0
 13 43  1  0
 20 44  1  0
 21 45  1  0
 30 46  1  0
 32 47  1  0
 33 48  1  0
M  CHG  4  14  -1  23   1  25  -1  29  -1
M  END
>  <UniqueID>  (53) 
52

>  <SMILES>  (53) 
COC(=O)c1cccc2c(Cc3c[n-]c(=NC(=O)c4ccc([N+](=O)[O-])c(C(=O)[O-])c4)s3)c[nH]c12

>  <Energy>  (53) 
130.87104952341397

>  <Genealogy>  (53) 
COC(=O)c1cccc2c(Cc3c[n-]c(=NC(=O)c4ccc([N+](=O)[O-])c(C(=O)[O-])c4)s3)c[nH]c12 (protonated)
COC(=O)c1cccc2c(Cc3c[n-]c(=NC(=O)c4ccc([N+](=O)[O-])c(C(=O)[O-])c4)s3)c[nH]c12 (3D coordinates assigned)
COC(=O)c1cccc2c(Cc3c[n-]c(=NC(=O)c4ccc([N+](=O)[O-])c(C(=O)[O-])c4)s3)c[nH]c12 (optimized conformer: 130.87104952341397 kcal/mol)

>  <smiles>  (53) 
COC(=O)c1cccc2c(Cc3c[nH]c(=NC(=O)c4ccc([N+](=O)[O-])c(C(=O)O)c4)s3)c[nH]c12

>  <score_type>  (53) 
oracle

>  <origin>  (53) 
adg

>  <m_score__min__energy>  (53) 
-13.640000000000001

>  <m_primary>  (53) 
energy

$$$$
53:0
     RDKit          3D

 50 53  0  0  0  0  0  0  0  0999 V2000
   55.1830   30.1590   44.5010 O   0  0  0  0  0  0  0  0  0  0  0  0
   56.4410   30.0770   44.5100 C   0  0  0  0  0  0  0  0  0  0  0  0
   57.1280   29.0090   43.6970 C   0  0  0  0  0  0  0  0  0  0  0  0
   57.8730   28.0450   44.5730 C   0  0  0  0  0  0  0  0  0  0  0  0
   58.1030   26.7150   44.2220 C   0  0  0  0  0  0  0  0  0  0  0  0
   58.9130   25.9750   45.5010 S   0  0  0  0  0  0  0  0  0  0  0  0
   58.9230   27.3650   46.4450 C   0  0  0  0  0  0  0  0  0  0  0  0
   59.6360   27.4830   48.0830 S   0  0  0  0  0  0  0  0  0  0  0  0
   59.1640   29.2290   48.3540 C   0  0  0  0  0  0  0  0  0  0  0  0
   60.1590   30.1710   47.7360 C   0  0  0  0  0  0  0  0  0  0  0  0
   60.0410   30.4600   46.5150 O   0  0  0  0  0  0  0  0  0  0  0  0
   61.1630   30.8430   48.5170 N   0  0  0  0  0  0  0  0  0  0  0  0
   61.4820   30.4540   49.8920 C   0  0  0  0  0  0  0  0  0  0  0  0
   62.7620   31.2310   50.2760 C   0  0  0  0  0  0  0  0  0  0  0  0
   63.0130   32.0880   49.0870 C   0  0  0  0  0  0  0  0  0  0  0  0
   63.9990   33.0660   48.9340 C   0  0  0  0  0  0  0  0  0  0  0  0
   64.0160   33.8190   47.7510 C   0  0  0  0  0  0  0  0  0  0  0  0
   63.0450   33.5980   46.7570 C   0  0  0  0  0  0  0  0  0  0  0  0
   62.0600   32.6140   46.9370 C   0  0  0  0  0  0  0  0  0  0  0  0
   62.0870   31.8440   48.1060 C   0  0  0  0  0  0  0  0  0  0  0  0
   58.3310   28.3950   45.8060 N   0  0  0  0  0  0  0  0  0  0  0  0
   57.1830   31.0590   45.2470 N   0  0  0  0  0  0  0  0  0  0  0  0
   57.3840   32.4500   44.8530 C   0  0  0  0  0  0  0  0  0  0  0  0
   58.1740   33.1920   45.8990 C   0  0  0  0  0  0  0  0  0  0  0  0
   58.9420   34.3160   45.5510 C   0  0  0  0  0  0  0  0  0  0  0  0
   59.6690   35.0020   46.5300 C   0  0  0  0  0  0  0  0  0  0  0  0
   59.6400   34.5670   47.8570 C   0  0  0  0  0  0  0  0  0  0  0  0
   58.8840   33.4460   48.2100 C   0  0  0  0  0  0  0  0  0  0  0  0
   58.1540   32.7580   47.2350 C   0  0  0  0  0  0  0  0  0  0  0  0
   56.3714   28.4567   43.1203 H   0  0  0  0  0  0  0  0  0  0  0  0
   57.8516   29.4969   43.0274 H   0  0  0  0  0  0  0  0  0  0  0  0
   57.8080   26.2343   43.2776 H   0  0  0  0  0  0  0  0  0  0  0  0
   58.1763   29.4063   47.9034 H   0  0  0  0  0  0  0  0  0  0  0  0
   59.1392   29.4156   49.4378 H   0  0  0  0  0  0  0  0  0  0  0  0
   60.6556   30.7242   50.5659 H   0  0  0  0  0  0  0  0  0  0  0  0
   61.6331   29.3676   49.9757 H   0  0  0  0  0  0  0  0  0  0  0  0
   62.5964   31.8431   51.1748 H   0  0  0  0  0  0  0  0  0  0  0  0
   63.6089   30.5719   50.5175 H   0  0  0  0  0  0  0  0  0  0  0  0
   64.7448   33.2413   49.7233 H   0  0  0  0  0  0  0  0  0  0  0  0
   64.7910   34.5849   47.5997 H   0  0  0  0  0  0  0  0  0  0  0  0
   63.0577   34.1985   45.8354 H   0  0  0  0  0  0  0  0  0  0  0  0
   61.2831   32.4513   46.1754 H   0  0  0  0  0  0  0  0  0  0  0  0
   58.2300   29.3500   46.2150 H   0  0  0  0  0  0  0  0  0  0  0  0
   57.9312   32.4795   43.8992 H   0  0  0  0  0  0  0  0  0  0  0  0
   56.4011   32.9320   44.7449 H   0  0  0  0  0  0  0  0  0  0  0  0
   58.9718   34.6576   44.5058 H   0  0  0  0  0  0  0  0  0  0  0  0
   60.2642   35.8850   46.2543 H   0  0  0  0  0  0  0  0  0  0  0  0
   60.2129   35.1074   48.6250 H   0  0  0  0  0  0  0  0  0  0  0  0
   58.8629   33.1043   49.2554 H   0  0  0  0  0  0  0  0  0  0  0  0
   57.5623   31.8741   47.5154 H   0  0  0  0  0  0  0  0  0  0  0  0
  1  2  2  0
  2  3  1  0
  3  4  1  0
  4  5  2  0
  5  6  1  0
  6  7  1  0
  7  8  1  0
  8  9  1  0
  9 10  1  0
 10 11  2  0
 10 12  1  0
 12 13  1  0
 13 14  1  0
 14 15  1  0
 15 16  2  0
 16 17  1  0
 17 18  2  0
 18 19  1  0
 19 20  2  0
  7 21  2  0
  2 22  1  0
 22 23  1  0
 23 24  1  0
 24 25  2  0
 25 26  1  0
 26 27  2  0
 27 28  1  0
 28 29  2  0
 21  4  1  0
 29 24  1  0
 20 12  1  0
 20 15  1  0
  3 30  1  0
  3 31  1  0
  5 32  1  0
  9 33  1  0
  9 34  1  0
 13 35  1  0
 13 36  1  0
 14 37  1  0
 14 38  1  0
 16 39  1  0
 17 40  1  0
 18 41  1  0
 19 42  1  0
 21 43  1  0
 23 44  1  0
 23 45  1  0
 25 46  1  0
 26 47  1  0
 27 48  1  0
 28 49  1  0
 29 50  1  0
M  CHG  2  21   1  22  -1
M  END
>  <UniqueID>  (54) 
53

>  <SMILES>  (54) 
O=C(Cc1csc(SCC(=O)N2CCc3ccccc32)[nH+]1)[N-]Cc1ccccc1

>  <Energy>  (54) 
94.32087697294499

>  <Genealogy>  (54) 
O=C(Cc1csc(SCC(=O)N2CCc3ccccc32)[nH+]1)[N-]Cc1ccccc1 (protonated)
O=C(Cc1csc(SCC(=O)N2CCc3ccccc32)[nH+]1)[N-]Cc1ccccc1 (3D coordinates assigned)
O=C(Cc1csc(SCC(=O)N2CCc3ccccc32)[nH+]1)[N-]Cc1ccccc1 (nonaromatic ring conformer: 94.32087697294499 kcal/mol)

>  <smiles>  (54) 
O=C(Cc1csc(SCC(=O)N2CCc3ccccc32)n1)NCc1ccccc1

>  <score_type>  (54) 
oracle

>  <origin>  (54) 
adg

>  <m_score__min__energy>  (54) 
-10.48

>  <m_primary>  (54) 
energy

$$$$
54:0
     RDKit          3D

 64 67  0  0  0  0  0  0  0  0999 V2000
   58.7130   32.6790   51.0270 C   0  0  0  0  0  0  0  0  0  0  0  0
   59.8510   33.1880   50.2300 N   0  0  0  0  0  0  0  0  0  0  0  0
   61.0430   33.4850   50.8530 C   0  0  0  0  0  0  0  0  0  0  0  0
   61.1670   33.2920   52.0960 O   0  0  0  0  0  0  0  0  0  0  0  0
   62.1050   33.9890   50.1440 N   0  0  0  0  0  0  0  0  0  0  0  0
   63.3690   34.3160   50.8370 C   0  0  0  0  0  0  0  0  0  0  0  0
   64.4430   33.2700   50.5170 C   0  0  0  0  0  0  0  0  0  0  0  0
   63.8280   31.9120   50.3490 C   0  0  0  0  0  0  0  0  0  0  0  0
   64.0010   31.2860   49.2660 O   0  0  0  0  0  0  0  0  0  0  0  0
   63.0600   31.3260   51.4100 N   0  0  0  0  0  0  0  0  0  0  0  0
   62.4570   29.9990   51.3000 C   0  0  0  0  0  0  0  0  0  0  0  0
   61.0690   30.0950   50.6580 C   0  0  0  0  0  0  0  0  0  0  0  0
   61.0970   29.5340   49.2910 N   0  0  0  0  0  0  0  0  0  0  0  0
   59.9380   28.6420   49.0220 C   0  0  0  0  0  0  0  0  0  0  0  0
   58.8470   29.3290   48.1810 C   0  0  0  0  0  0  0  0  0  0  0  0
   59.3600   29.8210   46.8760 N   0  0  0  0  0  0  0  0  0  0  0  0
   59.0210   28.8980   45.7730 C   0  0  0  0  0  0  0  0  0  0  0  0
   58.2220   29.6040   44.7080 C   0  0  0  0  0  0  0  0  0  0  0  0
   57.2150   28.9260   44.0000 C   0  0  0  0  0  0  0  0  0  0  0  0
   56.5050   29.5800   42.9870 C   0  0  0  0  0  0  0  0  0  0  0  0
   56.7980   30.9090   42.6700 C   0  0  0  0  0  0  0  0  0  0  0  0
   57.8010   31.5900   43.3680 C   0  0  0  0  0  0  0  0  0  0  0  0
   58.5120   30.9400   44.3840 C   0  0  0  0  0  0  0  0  0  0  0  0
   60.8120   30.1330   46.8960 C   0  0  0  0  0  0  0  0  0  0  0  0
   61.2590   30.6070   48.2830 C   0  0  0  0  0  0  0  0  0  0  0  0
   62.0120   34.1530   48.7860 C   0  0  0  0  0  0  0  0  0  0  0  0
   63.0080   34.5730   48.1300 O   0  0  0  0  0  0  0  0  0  0  0  0
   60.8170   33.8570   48.1190 C   0  0  0  0  0  0  0  0  0  0  0  0
   60.6960   34.0410   46.7260 C   0  0  0  0  0  0  0  0  0  0  0  0
   59.4960   33.7510   46.0780 C   0  0  0  0  0  0  0  0  0  0  0  0
   58.4100   33.2750   46.8060 C   0  0  0  0  0  0  0  0  0  0  0  0
   58.5140   33.0820   48.1850 C   0  0  0  0  0  0  0  0  0  0  0  0
   59.7210   33.3710   48.8700 C   0  0  0  0  0  0  0  0  0  0  0  0
   58.9409   32.7810   52.0983 H   0  0  0  0  0  0  0  0  0  0  0  0
   57.8093   33.2587   50.7876 H   0  0  0  0  0  0  0  0  0  0  0  0
   58.5427   31.6190   50.7876 H   0  0  0  0  0  0  0  0  0  0  0  0
   63.7176   35.3055   50.5064 H   0  0  0  0  0  0  0  0  0  0  0  0
   63.1889   34.3204   51.9221 H   0  0  0  0  0  0  0  0  0  0  0  0
   64.9553   33.5520   49.5853 H   0  0  0  0  0  0  0  0  0  0  0  0
   65.1596   33.2328   51.3507 H   0  0  0  0  0  0  0  0  0  0  0  0
   62.8670   31.8860   52.2720 H   0  0  0  0  0  0  0  0  0  0  0  0
   63.1004   29.3588   50.6785 H   0  0  0  0  0  0  0  0  0  0  0  0
   62.3555   29.5684   52.3071 H   0  0  0  0  0  0  0  0  0  0  0  0
   60.3475   29.5308   51.2672 H   0  0  0  0  0  0  0  0  0  0  0  0
   60.7713   31.1526   50.6050 H   0  0  0  0  0  0  0  0  0  0  0  0
   60.2948   27.7542   48.4793 H   0  0  0  0  0  0  0  0  0  0  0  0
   59.4924   28.3723   49.9908 H   0  0  0  0  0  0  0  0  0  0  0  0
   58.0393   28.6064   47.9928 H   0  0  0  0  0  0  0  0  0  0  0  0
   58.4865   30.1998   48.7482 H   0  0  0  0  0  0  0  0  0  0  0  0
   59.9499   28.5106   45.3291 H   0  0  0  0  0  0  0  0  0  0  0  0
   58.4159   28.0734   46.1779 H   0  0  0  0  0  0  0  0  0  0  0  0
   56.9843   27.8782   44.2429 H   0  0  0  0  0  0  0  0  0  0  0  0
   55.7143   29.0467   42.4389 H   0  0  0  0  0  0  0  0  0  0  0  0
   56.2399   31.4198   41.8715 H   0  0  0  0  0  0  0  0  0  0  0  0
   58.0311   32.6363   43.1186 H   0  0  0  0  0  0  0  0  0  0  0  0
   59.3008   31.4775   44.9307 H   0  0  0  0  0  0  0  0  0  0  0  0
   61.3769   29.2283   46.6269 H   0  0  0  0  0  0  0  0  0  0  0  0
   61.0043   30.9402   46.1738 H   0  0  0  0  0  0  0  0  0  0  0  0
   62.3181   30.9009   48.2382 H   0  0  0  0  0  0  0  0  0  0  0  0
   60.6328   31.4616   48.5788 H   0  0  0  0  0  0  0  0  0  0  0  0
   61.5533   34.4155   46.1474 H   0  0  0  0  0  0  0  0  0  0  0  0
   59.4079   33.8985   44.9915 H   0  0  0  0  0  0  0  0  0  0  0  0
   57.4639   33.0494   46.2922 H   0  0  0  0  0  0  0  0  0  0  0  0
   57.6485   32.7009   48.7469 H   0  0  0  0  0  0  0  0  0  0  0  0
  1  2  1  0
  2  3  1  0
  3  4  2  0
  3  5  1  0
  5  6  1  0
  6  7  1  0
  7  8  1  0
  8  9  2  0
  8 10  1  0
 10 11  1  0
 11 12  1  0
 12 13  1  0
 13 14  1  0
 14 15  1  0
 15 16  1  0
 16 17  1  0
 17 18  1  0
 18 19  2  0
 19 20  1  0
 20 21  2  0
 21 22  1  0
 22 23  2  0
 16 24  1  0
 24 25  1  0
  5 26  1  0
 26 27  2  0
 26 28  1  0
 28 29  2  0
 29 30  1  0
 30 31  2  0
 31 32  1  0
 32 33  2  0
 33  2  1  0
 25 13  1  0
 33 28  1  0
 23 18  1  0
  1 34  1  0
  1 35  1  0
  1 36  1  0
  6 37  1  0
  6 38  1  0
  7 39  1  0
  7 40  1  0
 10 41  1  0
 11 42  1  0
 11 43  1  0
 12 44  1  0
 12 45  1  0
 14 46  1  0
 14 47  1  0
 15 48  1  0
 15 49  1  0
 17 50  1  0
 17 51  1  0
 19 52  1  0
 20 53  1  0
 21 54  1  0
 22 55  1  0
 23 56  1  0
 24 57  1  0
 24 58  1  0
 25 59  1  0
 25 60  1  0
 29 61  1  0
 30 62  1  0
 31 63  1  0
 32 64  1  0
M  END
>  <UniqueID>  (55) 
54

>  <SMILES>  (55) 
Cn1c(=O)n(CCC(=O)NCCN2CCN(Cc3ccccc3)CC2)c(=O)c2ccccc21

>  <Energy>  (55) 
88.3879364329146

>  <Genealogy>  (55) 
Cn1c(=O)n(CCC(=O)NCCN2CCN(Cc3ccccc3)CC2)c(=O)c2ccccc21 (3D coordinates assigned)
Cn1c(=O)n(CCC(=O)NCCN2CCN(Cc3ccccc3)CC2)c(=O)c2ccccc21 (nonaromatic ring conformer: 88.3879364329146 kcal/mol)

>  <smiles>  (55) 
Cn1c(=O)n(CCC(=O)NCCN2CCN(Cc3ccccc3)CC2)c(=O)c2ccccc21

>  <score_type>  (55) 
oracle

>  <origin>  (55) 
adg

>  <m_score__min__energy>  (55) 
-9.6899999999999995

>  <m_primary>  (55) 
energy

$$$$
55:0
     RDKit          3D

 48 50  0  0  0  0  0  0  0  0999 V2000
   60.2070   34.2360   49.3500 C   0  0  0  0  0  0  0  0  0  0  0  0
   59.5390   33.9970   48.0290 C   0  0  0  0  0  0  0  0  0  0  0  0
   59.9180   34.7520   46.9100 C   0  0  0  0  0  0  0  0  0  0  0  0
   59.2810   34.5590   45.6790 C   0  0  0  0  0  0  0  0  0  0  0  0
   58.2370   33.6330   45.5610 C   0  0  0  0  0  0  0  0  0  0  0  0
   57.5930   33.4330   44.2440 C   0  0  0  0  0  0  0  0  0  0  0  0
   57.5590   32.2720   43.5670 C   0  0  0  0  0  0  0  0  0  0  0  0
   57.3580   30.9420   44.1750 C   0  0  0  0  0  0  0  0  0  0  0  0
   56.3100   30.6910   44.8320 O   0  0  0  0  0  0  0  0  0  0  0  0
   58.3250   29.9060   43.9520 N   0  0  0  0  0  0  0  0  0  0  0  0
   58.4100   28.7380   44.7830 C   0  0  0  0  0  0  0  0  0  0  0  0
   59.5910   28.4710   45.4890 C   0  0  0  0  0  0  0  0  0  0  0  0
   59.6930   27.3210   46.2790 C   0  0  0  0  0  0  0  0  0  0  0  0
   58.6140   26.4390   46.3780 C   0  0  0  0  0  0  0  0  0  0  0  0
   57.4150   26.7140   45.7060 C   0  0  0  0  0  0  0  0  0  0  0  0
   56.0570   25.5970   45.8290 S   0  0  0  0  0  0  0  0  0  0  0  0
   56.2450   24.7330   47.0430 O   0  0  0  0  0  0  0  0  0  0  0  0
   54.7620   26.3430   45.9890 O   0  0  0  0  0  0  0  0  0  0  0  0
   56.0010   24.5800   44.4240 N   0  0  0  0  0  0  0  0  0  0  0  0
   56.6210   23.4450   44.2870 C   0  0  0  0  0  0  0  0  0  0  0  0
   56.6470   22.6990   43.0130 C   0  0  0  0  0  0  0  0  0  0  0  0
   57.3680   21.3940   43.3800 C   0  0  0  0  0  0  0  0  0  0  0  0
   57.9430   21.5810   44.7950 C   0  0  0  0  0  0  0  0  0  0  0  0
   57.3520   22.7980   45.3120 N   0  0  0  0  0  0  0  0  0  0  0  0
   57.3140   27.8710   44.9210 C   0  0  0  0  0  0  0  0  0  0  0  0
   57.8740   32.8580   46.6770 C   0  0  0  0  0  0  0  0  0  0  0  0
   58.5110   33.0500   47.9060 C   0  0  0  0  0  0  0  0  0  0  0  0
   59.5101   33.9867   50.1637 H   0  0  0  0  0  0  0  0  0  0  0  0
   61.1030   33.6027   49.4277 H   0  0  0  0  0  0  0  0  0  0  0  0
   60.4979   35.2940   49.4277 H   0  0  0  0  0  0  0  0  0  0  0  0
   60.7199   35.4996   47.0001 H   0  0  0  0  0  0  0  0  0  0  0  0
   59.6018   35.1373   44.8000 H   0  0  0  0  0  0  0  0  0  0  0  0
   57.1033   34.3031   43.7823 H   0  0  0  0  0  0  0  0  0  0  0  0
   57.6911   32.3166   42.4759 H   0  0  0  0  0  0  0  0  0  0  0  0
   58.9510   29.9760   43.1190 H   0  0  0  0  0  0  0  0  0  0  0  0
   60.4398   29.1675   45.4217 H   0  0  0  0  0  0  0  0  0  0  0  0
   60.6252   27.1106   46.8237 H   0  0  0  0  0  0  0  0  0  0  0  0
   58.7056   25.5262   46.9850 H   0  0  0  0  0  0  0  0  0  0  0  0
   55.6270   22.4976   42.6538 H   0  0  0  0  0  0  0  0  0  0  0  0
   57.1443   23.2511   42.2019 H   0  0  0  0  0  0  0  0  0  0  0  0
   56.6580   20.5539   43.3686 H   0  0  0  0  0  0  0  0  0  0  0  0
   58.1669   21.1701   42.6578 H   0  0  0  0  0  0  0  0  0  0  0  0
   57.6742   20.7256   45.4322 H   0  0  0  0  0  0  0  0  0  0  0  0
   59.0410   21.6440   44.7771 H   0  0  0  0  0  0  0  0  0  0  0  0
   57.5730   23.1830   46.2530 H   0  0  0  0  0  0  0  0  0  0  0  0
   56.3683   28.1017   44.4088 H   0  0  0  0  0  0  0  0  0  0  0  0
   57.0851   32.0973   46.5821 H   0  0  0  0  0  0  0  0  0  0  0  0
   58.2053   32.4565   48.7802 H   0  0  0  0  0  0  0  0  0  0  0  0
  1  2  1  0
  2  3  2  0
  3  4  1  0
  4  5  2  0
  5  6  1  0
  6  7  2  3
  7  8  1  0
  8  9  2  0
  8 10  1  0
 10 11  1  0
 11 12  2  0
 12 13  1  0
 13 14  2  0
 14 15  1  0
 15 16  1  0
 16 17  2  0
 16 18  2  0
 16 19  1  0
 19 20  2  3
 20 21  1  0
 21 22  1  0
 22 23  1  0
 23 24  1  0
 15 25  2  0
  5 26  1  0
 26 27  2  0
 27  2  1  0
 25 11  1  0
 24 20  1  0
  1 28  1  0
  1 29  1  0
  1 30  1  0
  3 31  1  0
  4 32  1  0
  6 33  1  0
  7 34  1  0
 10 35  1  0
 12 36  1  0
 13 37  1  0
 14 38  1  0
 21 39  1  0
 21 40  1  0
 22 41  1  0
 22 42  1  0
 23 43  1  0
 23 44  1  0
 24 45  1  0
 25 46  1  0
 26 47  1  0
 27 48  1  0
M  END
>  <UniqueID>  (56) 
55

>  <SMILES>  (56) 
Cc1ccc(C=CC(=O)Nc2cccc(S(=O)(=O)N=C3CCCN3)c2)cc1

>  <Energy>  (56) 
65.30220972617062

>  <Genealogy>  (56) 
Cc1ccc(C=CC(=O)Nc2cccc(S(=O)(=O)N=C3CCCN3)c2)cc1 (3D coordinates assigned)
Cc1ccc(C=CC(=O)Nc2cccc(S(=O)(=O)N=C3CCCN3)c2)cc1 (nonaromatic ring conformer: 65.30220972617062 kcal/mol)

>  <smiles>  (56) 
Cc1ccc(C=CC(=O)Nc2cccc(S(=O)(=O)N=C3CCCN3)c2)cc1

>  <score_type>  (56) 
oracle

>  <origin>  (56) 
adg

>  <m_score__min__energy>  (56) 
-10.789999999999999

>  <m_primary>  (56) 
energy

$$$$
56:0
     RDKit          3D

 56 58  0  0  0  0  0  0  0  0999 V2000
   60.3980   28.8380   45.6320 C   0  0  0  0  0  0  0  0  0  0  0  0
   60.2150   27.3690   46.0100 C   0  0  0  0  0  0  0  0  0  0  0  0
   59.2000   27.1660   47.1500 C   0  0  0  0  0  0  0  0  0  0  0  0
   57.9450   26.3400   46.7860 C   0  0  0  0  0  0  0  0  0  0  0  0
   56.7370   27.1740   46.2950 C   0  0  2  0  0  0  0  0  0  0  0  0
   55.6030   26.3230   45.9030 N   0  0  0  0  0  0  0  0  0  0  0  0
   55.5410   25.0500   45.6120 C   0  0  0  0  0  0  0  0  0  0  0  0
   56.2580   24.4630   44.5480 C   0  0  0  0  0  0  0  0  0  0  0  0
   56.1290   23.0920   44.3050 C   0  0  0  0  0  0  0  0  0  0  0  0
   55.2990   22.3150   45.1110 C   0  0  0  0  0  0  0  0  0  0  0  0
   54.6040   22.9220   46.1570 C   0  0  0  0  0  0  0  0  0  0  0  0
   54.7400   24.2580   46.3790 N   0  0  0  0  0  0  0  0  0  0  0  0
   57.0560   28.2020   45.2320 C   0  0  0  0  0  0  0  0  0  0  0  0
   57.7010   27.8760   44.1980 O   0  0  0  0  0  0  0  0  0  0  0  0
   56.5920   29.5520   45.3950 N   0  0  0  0  0  0  0  0  0  0  0  0
   57.2190   30.6870   44.7740 C   0  0  0  0  0  0  0  0  0  0  0  0
   57.1590   30.8360   43.3800 C   0  0  0  0  0  0  0  0  0  0  0  0
   57.7280   31.9550   42.7650 C   0  0  0  0  0  0  0  0  0  0  0  0
   58.3490   32.9430   43.5370 C   0  0  0  0  0  0  0  0  0  0  0  0
   58.4050   32.8150   44.9310 C   0  0  0  0  0  0  0  0  0  0  0  0
   59.1650   34.0630   45.9190 S   0  0  0  0  0  0  0  0  0  0  0  0
   58.1560   34.6110   46.8900 O   0  0  0  0  0  0  0  0  0  0  0  0
   59.6320   35.1840   45.0290 O   0  0  0  0  0  0  0  0  0  0  0  0
   60.5070   33.3830   46.8060 N   0  0  0  0  0  0  0  0  0  0  0  0
   61.7870   33.8620   46.2880 C   0  0  0  0  0  0  0  0  0  0  0  0
   62.7670   33.7940   47.4430 C   0  0  0  0  0  0  0  0  0  0  0  0
   61.9120   33.9240   48.6910 C   0  0  0  0  0  0  0  0  0  0  0  0
   60.4690   33.7820   48.2160 C   0  0  0  0  0  0  0  0  0  0  0  0
   57.8340   31.6920   45.5460 C   0  0  0  0  0  0  0  0  0  0  0  0
   60.4736   29.4452   46.5461 H   0  0  0  0  0  0  0  0  0  0  0  0
   61.3173   28.9522   45.0389 H   0  0  0  0  0  0  0  0  0  0  0  0
   59.5348   29.1743   45.0389 H   0  0  0  0  0  0  0  0  0  0  0  0
   59.8627   26.8199   45.1244 H   0  0  0  0  0  0  0  0  0  0  0  0
   61.1874   26.9952   46.3631 H   0  0  0  0  0  0  0  0  0  0  0  0
   59.7156   26.6528   47.9751 H   0  0  0  0  0  0  0  0  0  0  0  0
   58.8347   28.1703   47.4108 H   0  0  0  0  0  0  0  0  0  0  0  0
   58.2198   25.6340   45.9885 H   0  0  0  0  0  0  0  0  0  0  0  0
   57.6218   25.8443   47.7132 H   0  0  0  0  0  0  0  0  0  0  0  0
   56.4398   27.7644   47.1742 H   0  0  0  0  0  0  0  0  0  0  0  0
   56.9133   25.0790   43.9146 H   0  0  0  0  0  0  0  0  0  0  0  0
   56.6832   22.6263   43.4768 H   0  0  0  0  0  0  0  0  0  0  0  0
   55.1933   21.2361   44.9245 H   0  0  0  0  0  0  0  0  0  0  0  0
   53.9462   22.3212   46.8023 H   0  0  0  0  0  0  0  0  0  0  0  0
   55.7510   29.7150   45.9950 H   0  0  0  0  0  0  0  0  0  0  0  0
   56.6619   30.0687   42.7683 H   0  0  0  0  0  0  0  0  0  0  0  0
   57.6874   32.0591   41.6707 H   0  0  0  0  0  0  0  0  0  0  0  0
   58.7942   33.8222   43.0483 H   0  0  0  0  0  0  0  0  0  0  0  0
   62.1273   33.2206   45.4617 H   0  0  0  0  0  0  0  0  0  0  0  0
   61.7013   34.8865   45.8967 H   0  0  0  0  0  0  0  0  0  0  0  0
   63.3027   32.8333   47.4396 H   0  0  0  0  0  0  0  0  0  0  0  0
   63.5327   34.5814   47.3825 H   0  0  0  0  0  0  0  0  0  0  0  0
   62.1594   33.1296   49.4105 H   0  0  0  0  0  0  0  0  0  0  0  0
   62.0800   34.8838   49.2015 H   0  0  0  0  0  0  0  0  0  0  0  0
   59.9519   33.0140   48.8099 H   0  0  0  0  0  0  0  0  0  0  0  0
   59.9263   34.7313   48.3357 H   0  0  0  0  0  0  0  0  0  0  0  0
   57.8665   31.5948   46.6412 H   0  0  0  0  0  0  0  0  0  0  0  0
  1  2  1  0
  2  3  1  0
  3  4  1  0
  4  5  1  0
  5  6  1  0
  6  7  2  3
  7  8  1  0
  8  9  2  0
  9 10  1  0
 10 11  2  0
 11 12  1  0
  5 13  1  0
 13 14  2  0
 13 15  1  0
 15 16  1  0
 16 17  2  0
 17 18  1  0
 18 19  2  0
 19 20  1  0
 20 21  1  0
 21 22  2  0
 21 23  2  0
 21 24  1  0
 24 25  1  0
 25 26  1  0
 26 27  1  0
 27 28  1  0
 20 29  2  0
 12  7  1  0
 29 16  1  0
 28 24  1  0
  1 30  1  0
  1 31  1  0
  1 32  1  0
  2 33  1  0
  2 34  1  0
  3 35  1  0
  3 36  1  0
  4 37  1  0
  4 38  1  0
  5 39  1  1
  8 40  1  0
  9 41  1  0
 10 42  1  0
 11 43  1  0
 15 44  1  0
 17 45  1  0
 18 46  1  0
 19 47  1  0
 25 48  1  0
 25 49  1  0
 26 50  1  0
 26 51  1  0
 27 52  1  0
 27 53  1  0
 28 54  1  0
 28 55  1  0
 29 56  1  0
M  CHG  1  12  -1
M  END
>  <UniqueID>  (57) 
56

>  <SMILES>  (57) 
CCCC[C@H](N=c1cccc[n-]1)C(=O)Nc1cccc(S(=O)(=O)N2CCCC2)c1

>  <Energy>  (57) 
61.64668601216918

>  <Genealogy>  (57) 
CCCCC(N=c1cccc[n-]1)C(=O)Nc1cccc(S(=O)(=O)N2CCCC2)c1 (protonated)
CCCC[C@H](N=c1cccc[n-]1)C(=O)Nc1cccc(S(=O)(=O)N2CCCC2)c1 (chirality)
CCCC[C@H](N=c1cccc[n-]1)C(=O)Nc1cccc(S(=O)(=O)N2CCCC2)c1 (3D coordinates assigned)
CCCC[C@H](N=c1cccc[n-]1)C(=O)Nc1cccc(S(=O)(=O)N2CCCC2)c1 (nonaromatic ring conformer: 61.64668601216918 kcal/mol)

>  <smiles>  (57) 
CCCCC(N=c1cccc[nH]1)C(=O)Nc1cccc(S(=O)(=O)N2CCCC2)c1

>  <score_type>  (57) 
oracle

>  <origin>  (57) 
adg

>  <m_score__min__energy>  (57) 
-11.460000000000001

>  <m_primary>  (57) 
energy

$$$$
57:0
     RDKit          3D

 63 66  0  0  0  0  0  0  0  0999 V2000
   58.9230   32.5060   50.9110 C   0  0  0  0  0  0  0  0  0  0  0  0
   60.0820   31.5290   51.1140 C   0  0  0  0  0  0  0  0  0  0  0  0
   60.4390   30.7830   49.8510 C   0  0  0  0  0  0  0  0  0  0  0  0
   59.6470   29.9100   49.3990 O   0  0  0  0  0  0  0  0  0  0  0  0
   61.6770   31.0390   49.1560 N   0  0  0  0  0  0  0  0  0  0  0  0
   61.7840   30.6910   47.7380 C   0  0  0  0  0  0  0  0  0  0  0  0
   63.0880   31.2210   47.1160 C   0  0  0  0  0  0  0  0  0  0  0  0
   63.4960   32.5540   47.6280 N   0  0  0  0  0  0  0  0  0  0  0  0
   62.8110   33.6500   46.9580 C   0  0  0  0  0  0  0  0  0  0  0  0
   63.4810   34.4480   46.2450 O   0  0  0  0  0  0  0  0  0  0  0  0
   61.3500   33.8690   47.0470 C   0  0  0  0  0  0  0  0  0  0  0  0
   60.7450   34.3660   48.2140 C   0  0  0  0  0  0  0  0  0  0  0  0
   59.3670   34.5850   48.2570 C   0  0  0  0  0  0  0  0  0  0  0  0
   58.5820   34.3390   47.1280 C   0  0  0  0  0  0  0  0  0  0  0  0
   59.1770   33.8750   45.9500 C   0  0  0  0  0  0  0  0  0  0  0  0
   58.1870   33.6410   44.4750 S   0  0  0  0  0  0  0  0  0  0  0  0
   57.7300   31.9850   44.9740 C   0  0  0  0  0  0  0  0  0  0  0  0
   56.7420   31.2060   44.3900 C   0  0  0  0  0  0  0  0  0  0  0  0
   56.6570   29.9430   44.8830 N   0  0  0  0  0  0  0  0  0  0  0  0
   57.5820   29.7250   45.8480 C   0  0  0  0  0  0  0  0  0  0  0  0
   57.7340   28.5980   46.4740 N   0  0  0  0  0  0  0  0  0  0  0  0
   58.5320   27.4920   46.0240 C   0  0  0  0  0  0  0  0  0  0  0  0
   59.7790   27.5480   46.1910 O   0  0  0  0  0  0  0  0  0  0  0  0
   57.9480   26.3250   45.3140 C   0  0  0  0  0  0  0  0  0  0  0  0
   57.9530   26.2830   43.9090 C   0  0  0  0  0  0  0  0  0  0  0  0
   57.3920   25.1980   43.2300 C   0  0  0  0  0  0  0  0  0  0  0  0
   56.8170   24.1350   43.9430 C   0  0  0  0  0  0  0  0  0  0  0  0
   56.1930   22.9770   43.2110 C   0  0  0  0  0  0  0  0  0  0  0  0
   57.0560   21.7250   43.3360 C   0  0  0  0  0  0  0  0  0  0  0  0
   56.7880   24.1840   45.3450 C   0  0  0  0  0  0  0  0  0  0  0  0
   57.3360   25.2760   46.0250 C   0  0  0  0  0  0  0  0  0  0  0  0
   58.5240   31.0840   46.1500 S   0  0  0  0  0  0  0  0  0  0  0  0
   60.5570   33.6360   45.9130 C   0  0  0  0  0  0  0  0  0  0  0  0
   63.4850   32.7050   49.1110 C   0  0  0  0  0  0  0  0  0  0  0  0
   62.8790   31.5070   49.8520 C   0  0  0  0  0  0  0  0  0  0  0  0
   58.5399   32.8290   51.8902 H   0  0  0  0  0  0  0  0  0  0  0  0
   59.2766   33.3826   50.3484 H   0  0  0  0  0  0  0  0  0  0  0  0
   58.1189   32.0092   50.3484 H   0  0  0  0  0  0  0  0  0  0  0  0
   60.9639   32.0934   51.4513 H   0  0  0  0  0  0  0  0  0  0  0  0
   59.7657   30.7868   51.8618 H   0  0  0  0  0  0  0  0  0  0  0  0
   61.7610   29.5958   47.6375 H   0  0  0  0  0  0  0  0  0  0  0  0
   60.9392   31.1547   47.2076 H   0  0  0  0  0  0  0  0  0  0  0  0
   63.8932   30.5040   47.3343 H   0  0  0  0  0  0  0  0  0  0  0  0
   62.9065   31.3333   46.0369 H   0  0  0  0  0  0  0  0  0  0  0  0
   64.5020   32.6400   47.3410 H   0  0  0  0  0  0  0  0  0  0  0  0
   61.3610   34.5838   49.0989 H   0  0  0  0  0  0  0  0  0  0  0  0
   58.8983   34.9521   49.1819 H   0  0  0  0  0  0  0  0  0  0  0  0
   57.4960   34.5101   47.1652 H   0  0  0  0  0  0  0  0  0  0  0  0
   56.0819   31.5800   43.5935 H   0  0  0  0  0  0  0  0  0  0  0  0
   58.4018   27.1103   43.3397 H   0  0  0  0  0  0  0  0  0  0  0  0
   57.4012   25.1772   42.1302 H   0  0  0  0  0  0  0  0  0  0  0  0
   55.1999   22.7740   43.6382 H   0  0  0  0  0  0  0  0  0  0  0  0
   56.1070   23.2396   42.1463 H   0  0  0  0  0  0  0  0  0  0  0  0
   57.2152   21.4941   44.3996 H   0  0  0  0  0  0  0  0  0  0  0  0
   56.5480   20.8794   42.8492 H   0  0  0  0  0  0  0  0  0  0  0  0
   58.0270   21.8989   42.8492 H   0  0  0  0  0  0  0  0  0  0  0  0
   56.3318   23.3591   45.9120 H   0  0  0  0  0  0  0  0  0  0  0  0
   57.2884   25.3154   47.1233 H   0  0  0  0  0  0  0  0  0  0  0  0
   61.0221   33.2631   44.9885 H   0  0  0  0  0  0  0  0  0  0  0  0
   64.5220   32.8360   49.4537 H   0  0  0  0  0  0  0  0  0  0  0  0
   62.8523   33.5754   49.3391 H   0  0  0  0  0  0  0  0  0  0  0  0
   63.6171   30.6923   49.8911 H   0  0  0  0  0  0  0  0  0  0  0  0
   62.6069   31.8152   50.8723 H   0  0  0  0  0  0  0  0  0  0  0  0
  1  2  1  0
  2  3  1  0
  3  4  2  0
  3  5  1  0
  5  6  1  0
  6  7  1  0
  7  8  1  0
  8  9  1  0
  9 10  2  0
  9 11  1  0
 11 12  2  0
 12 13  1  0
 13 14  2  0
 14 15  1  0
 15 16  1  0
 16 17  1  0
 17 18  2  0
 18 19  1  0
 19 20  1  0
 20 21  2  3
 21 22  1  0
 22 23  2  0
 22 24  1  0
 24 25  2  0
 25 26  1  0
 26 27  2  0
 27 28  1  0
 28 29  1  0
 27 30  1  0
 30 31  2  0
 20 32  1  0
 15 33  2  0
  8 34  1  0
 34 35  1  0
 35  5  1  0
 33 11  1  0
 32 17  1  0
 31 24  1  0
  1 36  1  0
  1 37  1  0
  1 38  1  0
  2 39  1  0
  2 40  1  0
  6 41  1  0
  6 42  1  0
  7 43  1  0
  7 44  1  0
  8 45  1  0
 12 46  1  0
 13 47  1  0
 14 48  1  0
 18 49  1  0
 25 50  1  0
 26 51  1  0
 28 52  1  0
 28 53  1  0
 29 54  1  0
 29 55  1  0
 29 56  1  0
 30 57  1  0
 31 58  1  0
 33 59  1  0
 34 60  1  0
 34 61  1  0
 35 62  1  0
 35 63  1  0
M  CHG  2   8   1  19  -1
M  END
>  <UniqueID>  (58) 
57

>  <SMILES>  (58) 
CCC(=O)N1CC[NH+](C(=O)c2cccc(Sc3c[n-]c(=NC(=O)c4ccc(CC)cc4)s3)c2)CC1

>  <Energy>  (58) 
112.51564787549148

>  <Genealogy>  (58) 
CCC(=O)N1CC[NH+](C(=O)c2cccc(Sc3c[n-]c(=NC(=O)c4ccc(CC)cc4)s3)c2)CC1 (protonated)
CCC(=O)N1CC[NH+](C(=O)c2cccc(Sc3c[n-]c(=NC(=O)c4ccc(CC)cc4)s3)c2)CC1 (3D coordinates assigned)
CCC(=O)N1CC[NH+](C(=O)c2cccc(Sc3c[n-]c(=NC(=O)c4ccc(CC)cc4)s3)c2)CC1 (nonaromatic ring conformer: 112.51564787549148 kcal/mol)

>  <smiles>  (58) 
CCC(=O)N1CCN(C(=O)c2cccc(Sc3c[nH]c(=NC(=O)c4ccc(CC)cc4)s3)c2)CC1

>  <score_type>  (58) 
oracle

>  <origin>  (58) 
adg

>  <m_score__min__energy>  (58) 
-9.9499999999999993

>  <m_primary>  (58) 
energy

$$$$
58:0
     RDKit          3D

 41 43  0  0  0  0  0  0  0  0999 V2000
   57.9010   27.4050   43.3930 C   0  0  0  0  0  0  0  0  0  0  0  0
   58.1090   27.2780   44.7140 C   0  0  0  0  0  0  0  0  0  0  0  0
   57.7020   26.2120   45.5320 C   0  0  0  0  0  0  0  0  0  0  0  0
   57.2350   24.9880   45.2190 C   0  0  0  0  0  0  0  0  0  0  0  0
   55.8220   24.5760   45.2640 C   0  0  0  0  0  0  0  0  0  0  0  0
   55.3750   23.3210   45.0900 N   0  0  0  0  0  0  0  0  0  0  0  0
   54.0560   23.3900   45.3610 C   0  0  0  0  0  0  0  0  0  0  0  0
   53.2900   22.3940   45.2970 O   0  0  0  0  0  0  0  0  0  0  0  0
   53.6320   24.6190   45.7230 N   0  0  0  0  0  0  0  0  0  0  0  0
   54.7610   25.3510   45.6710 C   0  0  0  0  0  0  0  0  0  0  0  0
   54.8220   26.7000   45.9970 O   0  0  0  0  0  0  0  0  0  0  0  0
   57.8780   26.6370   46.8380 C   0  0  0  0  0  0  0  0  0  0  0  0
   58.4480   27.8920   46.7770 C   0  0  0  0  0  0  0  0  0  0  0  0
   58.8220   28.7150   47.9710 C   0  0  0  0  0  0  0  0  0  0  0  0
   58.6010   28.2780   45.4900 N   0  0  0  0  0  0  0  0  0  0  0  0
   59.1140   29.5510   45.0550 C   0  0  0  0  0  0  0  0  0  0  0  0
   60.3580   29.6960   44.9010 O   0  0  0  0  0  0  0  0  0  0  0  0
   58.2240   30.6510   44.7740 N   0  0  0  0  0  0  0  0  0  0  0  0
   57.1680   30.4860   43.7690 C   0  0  0  0  0  0  0  0  0  0  0  0
   58.5080   31.9590   45.3150 C   0  0  0  0  0  0  0  0  0  0  0  0
   59.2250   32.1050   46.5190 C   0  0  0  0  0  0  0  0  0  0  0  0
   59.5000   33.3760   47.0300 C   0  0  0  0  0  0  0  0  0  0  0  0
   59.0670   34.5160   46.3470 C   0  0  0  0  0  0  0  0  0  0  0  0
   58.3590   34.3840   45.1510 C   0  0  0  0  0  0  0  0  0  0  0  0
   58.0810   33.1150   44.6360 C   0  0  0  0  0  0  0  0  0  0  0  0
   58.2716   28.2935   42.8608 H   0  0  0  0  0  0  0  0  0  0  0  0
   57.3601   26.6205   42.8435 H   0  0  0  0  0  0  0  0  0  0  0  0
   57.9704   24.2333   44.9035 H   0  0  0  0  0  0  0  0  0  0  0  0
   55.9270   22.4710   44.8380 H   0  0  0  0  0  0  0  0  0  0  0  0
   57.6140   26.0807   47.7495 H   0  0  0  0  0  0  0  0  0  0  0  0
   58.5715   28.1637   48.8893 H   0  0  0  0  0  0  0  0  0  0  0  0
   59.9023   28.9213   47.9503 H   0  0  0  0  0  0  0  0  0  0  0  0
   58.2669   29.6645   47.9503 H   0  0  0  0  0  0  0  0  0  0  0  0
   56.2022   30.3351   44.2734 H   0  0  0  0  0  0  0  0  0  0  0  0
   57.1164   31.3870   43.1401 H   0  0  0  0  0  0  0  0  0  0  0  0
   57.3937   29.6122   43.1401 H   0  0  0  0  0  0  0  0  0  0  0  0
   59.5707   31.2121   47.0605 H   0  0  0  0  0  0  0  0  0  0  0  0
   60.0585   33.4797   47.9720 H   0  0  0  0  0  0  0  0  0  0  0  0
   59.2838   35.5158   46.7513 H   0  0  0  0  0  0  0  0  0  0  0  0
   58.0192   35.2811   44.6127 H   0  0  0  0  0  0  0  0  0  0  0  0
   57.5240   33.0191   43.6923 H   0  0  0  0  0  0  0  0  0  0  0  0
  1  2  2  0
  2  3  1  0
  3  4  2  3
  4  5  1  0
  5  6  1  0
  6  7  1  0
  7  8  2  0
  7  9  1  0
  9 10  1  0
 10 11  1  0
  3 12  1  0
 12 13  2  0
 13 14  1  0
 13 15  1  0
 15 16  1  0
 16 17  2  0
 16 18  1  0
 18 19  1  0
 18 20  1  0
 20 21  2  0
 21 22  1  0
 22 23  2  0
 23 24  1  0
 24 25  2  0
 15  2  1  0
 25 20  1  0
 10  5  2  0
  1 26  1  0
  1 27  1  0
  4 28  1  0
  6 29  1  0
 12 30  1  0
 14 31  1  0
 14 32  1  0
 14 33  1  0
 19 34  1  0
 19 35  1  0
 19 36  1  0
 21 37  1  0
 22 38  1  0
 23 39  1  0
 24 40  1  0
 25 41  1  0
M  CHG  2   9  -1  11  -1
M  END
>  <UniqueID>  (59) 
58

>  <SMILES>  (59) 
C=c1c(=Cc2[nH]c(=O)[n-]c2[O-])cc(C)n1C(=O)N(C)c1ccccc1

>  <Energy>  (59) 
123.07751532712766

>  <Genealogy>  (59) 
C=c1c(=Cc2[nH]c(=O)[n-]c2[O-])cc(C)n1C(=O)N(C)c1ccccc1 (protonated)
C=c1c(=Cc2[nH]c(=O)[n-]c2[O-])cc(C)n1C(=O)N(C)c1ccccc1 (3D coordinates assigned)
C=c1c(=Cc2[nH]c(=O)[n-]c2[O-])cc(C)n1C(=O)N(C)c1ccccc1 (optimized conformer: 123.07751532712766 kcal/mol)

>  <smiles>  (59) 
C=c1c(=Cc2[nH]c(=O)[nH]c2O)cc(C)n1C(=O)N(C)c1ccccc1

>  <score_type>  (59) 
oracle

>  <origin>  (59) 
adg

>  <m_score__min__energy>  (59) 
-13.73

>  <m_primary>  (59) 
energy

$$$$
59:0
     RDKit          3D

 33 35  0  0  0  0  0  0  0  0999 V2000
   55.1450   27.5320   45.4550 H   0  0  0  0  0  0  0  0  0  0  0  0
   54.9920   26.6840   45.9880 O   0  0  0  0  0  0  0  0  0  0  0  0
   56.0580   25.8610   46.3450 C   0  0  0  0  0  0  0  0  0  0  0  0
   55.8620   24.8540   47.2360 N   0  0  0  0  0  0  0  0  0  0  0  0
   56.8740   24.0210   47.5860 C   0  0  0  0  0  0  0  0  0  0  0  0
   56.6090   22.8210   48.6600 S   0  0  0  0  0  0  0  0  0  0  0  0
   58.1070   24.1800   47.0380 N   0  0  0  0  0  0  0  0  0  0  0  0
   58.3540   25.1710   46.1450 C   0  0  0  0  0  0  0  0  0  0  0  0
   59.5080   25.2870   45.6500 O   0  0  0  0  0  0  0  0  0  0  0  0
   57.3300   26.0620   45.7850 C   0  0  0  0  0  0  0  0  0  0  0  0
   57.5680   27.1220   44.7820 C   0  0  0  0  0  0  0  0  0  0  0  0
   57.6727   26.8060   43.7336 H   0  0  0  0  0  0  0  0  0  0  0  0
   57.6680   28.4410   45.0390 C   0  0  0  0  0  0  0  0  0  0  0  0
   58.8880   28.9200   45.4090 N   0  0  0  0  0  0  0  0  0  0  0  0
   59.1090   30.2300   45.6840 C   0  0  0  0  0  0  0  0  0  0  0  0
   60.2670   30.6020   46.0170 O   0  0  0  0  0  0  0  0  0  0  0  0
   58.0440   31.1470   45.5870 C   0  0  0  0  0  0  0  0  0  0  0  0
   58.2120   32.4570   45.8620 C   0  0  0  0  0  0  0  0  0  0  0  0
   57.9264   33.1848   45.0882 H   0  0  0  0  0  0  0  0  0  0  0  0
   58.7560   32.9810   47.1380 C   0  0  0  0  0  0  0  0  0  0  0  0
   59.5480   34.1450   47.1870 C   0  0  0  0  0  0  0  0  0  0  0  0
   59.7580   34.7042   46.2633 H   0  0  0  0  0  0  0  0  0  0  0  0
   60.0680   34.5920   48.4050 C   0  0  0  0  0  0  0  0  0  0  0  0
   60.6762   35.5080   48.4391 H   0  0  0  0  0  0  0  0  0  0  0  0
   59.8170   33.8780   49.5790 C   0  0  0  0  0  0  0  0  0  0  0  0
   60.2203   34.2365   50.5375 H   0  0  0  0  0  0  0  0  0  0  0  0
   59.0540   32.7090   49.5360 C   0  0  0  0  0  0  0  0  0  0  0  0
   58.8626   32.1438   50.4601 H   0  0  0  0  0  0  0  0  0  0  0  0
   58.5330   32.2560   48.3200 C   0  0  0  0  0  0  0  0  0  0  0  0
   57.9453   31.3267   48.2890 H   0  0  0  0  0  0  0  0  0  0  0  0
   56.8160   30.6690   45.2440 N   0  0  0  0  0  0  0  0  0  0  0  0
   56.5900   29.3580   44.9730 C   0  0  0  0  0  0  0  0  0  0  0  0
   55.4170   28.9920   44.6950 O   0  0  0  0  0  0  0  0  0  0  0  0
  1  2  1  0
  2  3  1  0
  3  4  1  0
  4  5  1  0
  5  6  2  0
  5  7  1  0
  7  8  1  0
  8  9  2  0
  8 10  1  0
 10 11  1  0
 11 12  1  0
 11 13  2  0
 13 14  1  0
 14 15  1  0
 15 16  2  0
 15 17  1  0
 17 18  2  3
 18 19  1  0
 18 20  1  0
 20 21  2  0
 21 22  1  0
 21 23  1  0
 23 24  1  0
 23 25  2  0
 25 26  1  0
 25 27  1  0
 27 28  1  0
 27 29  2  0
 29 30  1  0
 17 31  1  0
 31 32  1  0
 32 33  2  0
 10  3  2  0
 32 13  1  0
 29 20  1  0
M  CHG  4   4  -1   7  -1  14  -1  31  -1
M  END
>  <UniqueID>  (60) 
59

>  <SMILES>  (60) 
O=c1[n-]c(=S)[n-]c(O)c1/C=c1/[n-]c(=O)c(=Cc2ccccc2)[n-]c1=O

>  <Energy>  (60) 
59.13266219233104

>  <Genealogy>  (60) 
O=c1[n-]c(=S)[n-]c(O)c1C=c1[n-]c(=O)c(=Cc2ccccc2)[n-]c1=O (protonated)
O=c1[n-]c(=S)[n-]c(O)c1/C=c1/[n-]c(=O)c(=Cc2ccccc2)[n-]c1=O (cis-trans isomerization)
O=c1[n-]c(=S)[n-]c(O)c1/C=c1/[n-]c(=O)c(=Cc2ccccc2)[n-]c1=O (3D coordinates assigned)
O=c1[n-]c(=S)[n-]c(O)c1/C=c1/[n-]c(=O)c(=Cc2ccccc2)[n-]c1=O (optimized conformer: 59.13266219233104 kcal/mol)

>  <smiles>  (60) 
O=c1[nH]c(=S)[nH]c(O)c1C=c1[nH]c(=O)c(=Cc2ccccc2)[nH]c1=O

>  <score_type>  (60) 
oracle

>  <origin>  (60) 
adg

>  <m_score__min__energy>  (60) 
-15.279999999999999

>  <m_primary>  (60) 
energy

$$$$
60:0
     RDKit          3D

 52 55  0  0  1  0  0  0  0  0999 V2000
   56.0620   29.6770   43.3480 C   0  0  0  0  0  0  0  0  0  0  0  0
   56.8080   30.0480   44.3590 C   0  0  0  0  0  0  0  0  0  0  0  0
   56.8840   31.4420   44.6230 N   0  0  0  0  0  0  0  0  0  0  0  0
   57.6760   31.8730   45.7070 C   0  0  0  0  0  0  0  0  0  0  0  0
   57.7480   33.2650   45.8620 C   0  0  0  0  0  0  0  0  0  0  0  0
   58.5230   33.8170   46.8340 C   0  0  0  0  0  0  0  0  0  0  0  0
   59.2350   33.0080   47.6630 C   0  0  0  0  0  0  0  0  0  0  0  0
   60.2470   33.6520   48.9220 S   0  0  0  0  0  0  0  0  0  0  0  0
   59.7020   34.9680   49.3730 O   0  0  0  0  0  0  0  0  0  0  0  0
   60.2110   32.7360   50.1320 O   0  0  0  0  0  0  0  0  0  0  0  0
   61.8790   33.7530   48.4080 N   0  0  0  0  0  0  0  0  0  0  0  0
   61.9480   34.0450   47.0210 C   0  0  0  0  0  0  0  0  0  0  0  0
   63.2150   33.6440   46.3260 C   0  0  0  0  0  0  0  0  0  0  0  0
   63.7970   32.4150   46.8050 N   0  0  0  0  0  0  0  0  0  0  0  0
   62.9350   31.7220   47.7430 C   0  0  0  0  0  0  0  0  0  0  0  0
   62.6800   32.6640   48.8760 C   0  0  0  0  0  0  0  0  0  0  0  0
   59.1520   31.6290   47.4970 C   0  0  0  0  0  0  0  0  0  0  0  0
   58.3840   31.0310   46.5400 C   0  0  0  0  0  0  0  0  0  0  0  0
   58.3660   29.5480   46.3590 C   0  0  0  0  0  0  0  0  0  0  0  0
   58.8540   28.8120   47.3020 C   0  0  0  0  0  0  0  0  0  0  0  0
   58.6960   28.6270   48.6280 O   0  0  0  0  0  0  0  0  0  0  0  0
   59.8910   27.9000   46.9060 O   0  0  0  0  0  0  0  0  0  0  0  0
   57.5580   29.1180   45.2310 C   0  0  0  0  0  0  0  0  0  0  0  0
   57.5420   27.8770   44.9150 C   0  0  0  0  0  0  0  0  0  0  0  0
   57.5260   26.6730   45.6710 C   0  0  0  0  0  0  0  0  0  0  0  0
   58.5530   25.8050   45.9800 N   0  0  0  0  0  0  0  0  0  0  0  0
   58.0210   24.6860   46.5440 C   0  0  0  0  0  0  0  0  0  0  0  0
   56.6400   24.8080   46.6120 C   0  0  0  0  0  0  0  0  0  0  0  0
   56.3160   26.0500   46.0690 C   0  0  0  0  0  0  0  0  0  0  0  0
   55.0390   26.5850   45.9380 O   0  0  0  0  0  0  0  0  0  0  0  0
   55.9663   28.6102   43.0974 H   0  0  0  0  0  0  0  0  0  0  0  0
   55.5313   30.4323   42.7498 H   0  0  0  0  0  0  0  0  0  0  0  0
   56.3620   32.1210   44.0240 H   0  0  0  0  0  0  0  0  0  0  0  0
   57.1713   33.9176   45.1900 H   0  0  0  0  0  0  0  0  0  0  0  0
   58.5733   34.9099   46.9485 H   0  0  0  0  0  0  0  0  0  0  0  0
   61.1141   33.5258   46.5261 H   0  0  0  0  0  0  0  0  0  0  0  0
   61.9038   35.1416   46.9467 H   0  0  0  0  0  0  0  0  0  0  0  0
   62.9963   33.5258   45.2545 H   0  0  0  0  0  0  0  0  0  0  0  0
   63.9485   34.4378   46.5306 H   0  0  0  0  0  0  0  0  0  0  0  0
   64.7630   32.5490   47.1830 H   0  0  0  0  0  0  0  0  0  0  0  0
   61.9868   31.4506   47.2560 H   0  0  0  0  0  0  0  0  0  0  0  0
   63.4068   30.7948   48.1004 H   0  0  0  0  0  0  0  0  0  0  0  0
   62.1491   32.1359   49.6818 H   0  0  0  0  0  0  0  0  0  0  0  0
   63.6363   33.0465   49.2623 H   0  0  0  0  0  0  0  0  0  0  0  0
   59.7361   30.9868   48.1726 H   0  0  0  0  0  0  0  0  0  0  0  0
   59.2770   29.0160   49.3590 H   0  0  0  0  0  0  0  0  0  0  0  0
   60.4570   28.2000   46.0940 H   0  0  0  0  0  0  0  0  0  0  0  0
   57.5403   27.7065   43.8283 H   0  0  0  0  0  0  0  0  0  0  0  0
   59.5620   26.0130   45.7950 H   0  0  0  0  0  0  0  0  0  0  0  0
   58.5980   23.8169   46.8929 H   0  0  0  0  0  0  0  0  0  0  0  0
   55.9359   24.0662   47.0170 H   0  0  0  0  0  0  0  0  0  0  0  0
   54.7650   27.4640   46.3770 H   0  0  0  0  0  0  0  0  0  0  0  0
  1  2  2  0
  2  3  1  0
  3  4  1  0
  4  5  2  0
  5  6  1  0
  6  7  2  0
  7  8  1  0
  8  9  2  0
  8 10  2  0
  8 11  1  0
 11 12  1  0
 12 13  1  0
 13 14  1  0
 14 15  1  0
 15 16  1  0
  7 17  1  0
 17 18  2  0
 18 19  1  0
 19 20  2  0
 20 21  1  0
 20 22  1  0
 19 23  1  0
 23 24  2  0
 24 25  1  0
 25 26  1  0
 26 27  1  0
 27 28  2  0
 28 29  1  0
 29 30  1  0
 23  2  1  0
 29 25  2  0
 18  4  1  0
 16 11  1  0
  1 31  1  0
  1 32  1  0
  3 33  1  0
  5 34  1  0
  6 35  1  0
 12 36  1  0
 12 37  1  0
 13 38  1  0
 13 39  1  0
 14 40  1  0
 15 41  1  0
 15 42  1  0
 16 43  1  0
 16 44  1  0
 17 45  1  0
 21 46  1  0
 22 47  1  0
 24 48  1  0
 26 49  1  0
 27 50  1  0
 28 51  1  0
 30 52  1  0
M  END
>  <smiles>  (61) 
C=C1Nc2ccc(S(=O)(=O)N3CCNCC3)cc2C(=C(O)O)C1=Cc1[nH]ccc1O

>  <score_type>  (61) 
oracle

>  <origin>  (61) 
adg

>  <m_score__min__energy>  (61) 
-10.44

>  <m_primary>  (61) 
energy

$$$$
61:0
     RDKit          3D

 38 40  0  0  0  0  0  0  0  0999 V2000
   57.8040   32.3120   42.2620 C   0  0  0  0  0  0  0  0  0  0  0  0
   58.1350   32.6020   43.6920 C   0  0  0  0  0  0  0  0  0  0  0  0
   58.6960   33.7630   44.1040 N   0  0  0  0  0  0  0  0  0  0  0  0
   58.8090   33.6640   45.4400 C   0  0  0  0  0  0  0  0  0  0  0  0
   59.3010   34.6320   46.3140 C   0  0  0  0  0  0  0  0  0  0  0  0
   59.2850   34.3460   47.6910 C   0  0  0  0  0  0  0  0  0  0  0  0
   58.7690   33.1180   48.1590 C   0  0  0  0  0  0  0  0  0  0  0  0
   58.2720   32.1610   47.2540 C   0  0  0  0  0  0  0  0  0  0  0  0
   58.3260   32.4590   45.8910 C   0  0  0  0  0  0  0  0  0  0  0  0
   57.8920   31.7570   44.7770 C   0  0  0  0  0  0  0  0  0  0  0  0
   57.2640   30.4210   44.7350 C   0  0  0  0  0  0  0  0  0  0  0  0
   56.0110   30.3320   44.8350 O   0  0  0  0  0  0  0  0  0  0  0  0
   58.0630   29.1960   44.5370 C   0  0  0  0  0  0  0  0  0  0  0  0
   59.3170   29.2410   44.6590 O   0  0  0  0  0  0  0  0  0  0  0  0
   57.4220   27.9630   44.1760 N   0  0  0  0  0  0  0  0  0  0  0  0
   58.1770   26.7420   43.8990 C   0  0  0  0  0  0  0  0  0  0  0  0
   57.3900   25.5340   44.3320 C   0  0  0  0  0  0  0  0  0  0  0  0
   56.9220   25.4380   45.6520 C   0  0  0  0  0  0  0  0  0  0  0  0
   56.1720   24.3280   46.0550 C   0  0  0  0  0  0  0  0  0  0  0  0
   55.8820   23.3100   45.1420 C   0  0  0  0  0  0  0  0  0  0  0  0
   56.3400   23.4020   43.8250 C   0  0  0  0  0  0  0  0  0  0  0  0
   57.0910   24.5100   43.4180 C   0  0  0  0  0  0  0  0  0  0  0  0
   56.9773   31.5877   42.2166 H   0  0  0  0  0  0  0  0  0  0  0  0
   57.5038   33.2431   41.7590 H   0  0  0  0  0  0  0  0  0  0  0  0
   58.6875   31.8920   41.7590 H   0  0  0  0  0  0  0  0  0  0  0  0
   58.9700   34.5780   43.5100 H   0  0  0  0  0  0  0  0  0  0  0  0
   59.6898   35.5900   45.9384 H   0  0  0  0  0  0  0  0  0  0  0  0
   59.6767   35.0832   48.4073 H   0  0  0  0  0  0  0  0  0  0  0  0
   58.7552   32.9075   49.2386 H   0  0  0  0  0  0  0  0  0  0  0  0
   57.8540   31.2077   47.6097 H   0  0  0  0  0  0  0  0  0  0  0  0
   56.3800   27.9200   44.1240 H   0  0  0  0  0  0  0  0  0  0  0  0
   58.3785   26.6765   42.8196 H   0  0  0  0  0  0  0  0  0  0  0  0
   59.1245   26.7718   44.4570 H   0  0  0  0  0  0  0  0  0  0  0  0
   57.1459   26.2387   46.3723 H   0  0  0  0  0  0  0  0  0  0  0  0
   55.8101   24.2562   47.0913 H   0  0  0  0  0  0  0  0  0  0  0  0
   55.2935   22.4368   45.4601 H   0  0  0  0  0  0  0  0  0  0  0  0
   56.1095   22.6014   43.1067 H   0  0  0  0  0  0  0  0  0  0  0  0
   57.4482   24.5795   42.3799 H   0  0  0  0  0  0  0  0  0  0  0  0
  1  2  1  0
  2  3  1  0
  3  4  1  0
  4  5  2  0
  5  6  1  0
  6  7  2  0
  7  8  1  0
  8  9  2  0
  9 10  1  0
 10 11  1  0
 11 12  2  0
 11 13  1  0
 13 14  2  0
 13 15  1  0
 15 16  1  0
 16 17  1  0
 17 18  2  0
 18 19  1  0
 19 20  2  0
 20 21  1  0
 21 22  2  0
 10  2  2  0
 22 17  1  0
  9  4  1  0
  1 23  1  0
  1 24  1  0
  1 25  1  0
  3 26  1  0
  5 27  1  0
  6 28  1  0
  7 29  1  0
  8 30  1  0
 15 31  1  0
 16 32  1  0
 16 33  1  0
 18 34  1  0
 19 35  1  0
 20 36  1  0
 21 37  1  0
 22 38  1  0
M  END
>  <UniqueID>  (62) 
60

>  <SMILES>  (62) 
Cc1[nH]c2ccccc2c1C(=O)C(=O)NCc1ccccc1

>  <Energy>  (62) 
73.82784923002467

>  <Genealogy>  (62) 
Cc1[nH]c2ccccc2c1C(=O)C(=O)NCc1ccccc1 (3D coordinates assigned)
Cc1[nH]c2ccccc2c1C(=O)C(=O)NCc1ccccc1 (optimized conformer: 73.82784923002467 kcal/mol)

>  <smiles>  (62) 
Cc1[nH]c2ccccc2c1C(=O)C(=O)NCc1ccccc1

>  <score_type>  (62) 
oracle

>  <origin>  (62) 
adg

>  <m_score__min__energy>  (62) 
-7.8200000000000003

>  <m_primary>  (62) 
energy

$$$$
62:0
     RDKit          3D

 37 38  0  0  0  0  0  0  0  0999 V2000
   58.0060   33.4940   45.1190 O   0  0  0  0  0  0  0  0  0  0  0  0
   57.7060   32.3850   45.6350 C   0  0  0  0  0  0  0  0  0  0  0  0
   58.2260   32.0590   47.0010 C   0  0  0  0  0  0  0  0  0  0  0  0
   58.5290   33.3000   47.6980 N   0  0  0  0  0  0  0  0  0  0  0  0
   59.6120   33.4410   48.6210 C   0  0  0  0  0  0  0  0  0  0  0  0
   59.3660   33.6090   49.8450 O   0  0  0  0  0  0  0  0  0  0  0  0
   61.0150   33.3960   48.1290 C   0  0  0  0  0  0  0  0  0  0  0  0
   62.0180   32.8320   48.9440 C   0  0  0  0  0  0  0  0  0  0  0  0
   63.3400   32.7570   48.4990 C   0  0  0  0  0  0  0  0  0  0  0  0
   63.6830   33.2460   47.2400 C   0  0  0  0  0  0  0  0  0  0  0  0
   62.7060   33.8120   46.4200 C   0  0  0  0  0  0  0  0  0  0  0  0
   61.3730   33.8890   46.8510 C   0  0  0  0  0  0  0  0  0  0  0  0
   60.4130   34.4480   46.0070 O   0  0  0  0  0  0  0  0  0  0  0  0
   56.8180   31.5120   44.9240 N   0  0  0  0  0  0  0  0  0  0  0  0
   57.1830   30.2620   44.2590 C   0  0  0  0  0  0  0  0  0  0  0  0
   56.4820   29.0740   44.8680 C   0  0  0  0  0  0  0  0  0  0  0  0
   55.2210   29.0820   44.8730 O   0  0  0  0  0  0  0  0  0  0  0  0
   57.2190   27.9260   45.4760 C   0  0  0  0  0  0  0  0  0  0  0  0
   58.6280   27.9360   45.5490 C   0  0  0  0  0  0  0  0  0  0  0  0
   59.3220   26.8550   46.0970 C   0  0  0  0  0  0  0  0  0  0  0  0
   58.6280   25.7510   46.5890 C   0  0  0  0  0  0  0  0  0  0  0  0
   57.2340   25.7270   46.5410 C   0  0  0  0  0  0  0  0  0  0  0  0
   56.5270   26.8040   45.9940 C   0  0  0  0  0  0  0  0  0  0  0  0
   55.1370   26.7370   45.9670 O   0  0  0  0  0  0  0  0  0  0  0  0
   57.4646   31.4969   47.5616 H   0  0  0  0  0  0  0  0  0  0  0  0
   59.1359   31.4466   46.9173 H   0  0  0  0  0  0  0  0  0  0  0  0
   61.7567   32.4470   49.9407 H   0  0  0  0  0  0  0  0  0  0  0  0
   64.1117   32.3111   49.1436 H   0  0  0  0  0  0  0  0  0  0  0  0
   64.7248   33.1858   46.8922 H   0  0  0  0  0  0  0  0  0  0  0  0
   62.9829   34.2005   45.4288 H   0  0  0  0  0  0  0  0  0  0  0  0
   59.4500   34.1320   46.0150 H   0  0  0  0  0  0  0  0  0  0  0  0
   56.9072   30.3311   43.1964 H   0  0  0  0  0  0  0  0  0  0  0  0
   58.2666   30.1163   44.3795 H   0  0  0  0  0  0  0  0  0  0  0  0
   59.1861   28.8049   45.1701 H   0  0  0  0  0  0  0  0  0  0  0  0
   60.4210   26.8750   46.1405 H   0  0  0  0  0  0  0  0  0  0  0  0
   59.1789   24.8994   47.0148 H   0  0  0  0  0  0  0  0  0  0  0  0
   56.6877   24.8573   46.9350 H   0  0  0  0  0  0  0  0  0  0  0  0
  1  2  2  0
  2  3  1  0
  3  4  1  0
  4  5  1  0
  5  6  2  0
  5  7  1  0
  7  8  2  0
  8  9  1  0
  9 10  2  0
 10 11  1  0
 11 12  2  0
 12 13  1  0
  2 14  1  0
 14 15  1  0
 15 16  1  0
 16 17  2  0
 16 18  1  0
 18 19  2  0
 19 20  1  0
 20 21  2  0
 21 22  1  0
 22 23  2  0
 23 24  1  0
 12  7  1  0
 23 18  1  0
  3 25  1  0
  3 26  1  0
  8 27  1  0
  9 28  1  0
 10 29  1  0
 11 30  1  0
 13 31  1  0
 15 32  1  0
 15 33  1  0
 19 34  1  0
 20 35  1  0
 21 36  1  0
 22 37  1  0
M  CHG  3   4  -1  14  -1  24  -1
M  END
>  <UniqueID>  (63) 
61

>  <SMILES>  (63) 
O=C(C[N-]C(=O)c1ccccc1O)[N-]CC(=O)c1ccccc1[O-]

>  <Energy>  (63) 
34.8637453734988

>  <Genealogy>  (63) 
O=C(C[N-]C(=O)c1ccccc1O)[N-]CC(=O)c1ccccc1[O-] (protonated)
O=C(C[N-]C(=O)c1ccccc1O)[N-]CC(=O)c1ccccc1[O-] (3D coordinates assigned)
O=C(C[N-]C(=O)c1ccccc1O)[N-]CC(=O)c1ccccc1[O-] (optimized conformer: 34.8637453734988 kcal/mol)

>  <smiles>  (63) 
O=C(CNC(=O)c1ccccc1O)NCC(=O)c1ccccc1O

>  <score_type>  (63) 
oracle

>  <origin>  (63) 
adg

>  <m_score__min__energy>  (63) 
-14.029999999999999

>  <m_primary>  (63) 
energy

$$$$
63:0
     RDKit          3D

 68 71  0  0  0  0  0  0  0  0999 V2000
   60.3940   27.5240   48.5260 O   0  0  0  0  0  0  0  0  0  0  0  0
   59.9480   28.6840   48.7370 C   0  0  0  0  0  0  0  0  0  0  0  0
   60.4060   29.4450   49.8620 N   0  0  0  0  0  0  0  0  0  0  0  0
   59.6360   30.4140   50.5880 C   0  0  0  0  0  0  0  0  0  0  0  0
   60.2940   31.5110   51.1580 C   0  0  0  0  0  0  0  0  0  0  0  0
   59.5710   32.4990   51.8270 C   0  0  0  0  0  0  0  0  0  0  0  0
   58.1780   32.4090   51.9220 C   0  0  0  0  0  0  0  0  0  0  0  0
   57.4980   31.3110   51.3630 C   0  0  0  0  0  0  0  0  0  0  0  0
   56.0610   31.2100   51.4060 N   0  0  0  0  0  0  0  0  0  0  0  0
   55.3380   30.1270   52.0160 C   0  0  0  0  0  0  0  0  0  0  0  0
   55.9400   29.0730   52.3630 O   0  0  0  0  0  0  0  0  0  0  0  0
   53.8380   30.1950   52.1760 C   0  0  0  0  0  0  0  0  0  0  0  0
   53.2360   31.2580   51.2400 C   0  0  0  0  0  0  0  0  0  0  0  0
   51.6940   31.2490   51.2880 C   0  0  0  0  0  0  0  0  0  0  0  0
   51.1200   30.7840   52.6420 C   0  0  0  0  0  0  0  0  0  0  0  0
   52.0570   31.1280   53.8020 C   0  0  0  0  0  0  0  0  0  0  0  0
   53.4300   30.4380   53.6530 C   0  0  0  0  0  0  0  0  0  0  0  0
   58.2340   30.3310   50.6780 C   0  0  0  0  0  0  0  0  0  0  0  0
   58.9940   29.3130   47.7550 C   0  0  0  0  0  0  0  0  0  0  0  0
   59.7280   30.3630   46.8720 C   0  0  0  0  0  0  0  0  0  0  0  0
   59.6180   30.0610   45.3760 C   0  0  0  0  0  0  0  0  0  0  0  0
   58.2130   29.8090   45.0290 N   0  0  0  0  0  0  0  0  0  0  0  0
   57.5850   30.4750   43.9210 C   0  0  0  0  0  0  0  0  0  0  0  0
   56.8820   29.8110   43.1130 O   0  0  0  0  0  0  0  0  0  0  0  0
   57.6680   31.9690   43.7510 C   0  0  0  0  0  0  0  0  0  0  0  0
   57.0060   32.7070   44.9220 C   0  0  0  0  0  0  0  0  0  0  0  0
   58.0240   33.3780   45.8130 C   0  0  0  0  0  0  0  0  0  0  0  0
   58.9580   34.2780   45.2710 C   0  0  0  0  0  0  0  0  0  0  0  0
   59.9260   34.8700   46.0890 C   0  0  0  0  0  0  0  0  0  0  0  0
   59.9660   34.5730   47.4540 C   0  0  0  0  0  0  0  0  0  0  0  0
   59.0340   33.6870   48.0030 C   0  0  0  0  0  0  0  0  0  0  0  0
   58.0660   33.0930   47.1870 C   0  0  0  0  0  0  0  0  0  0  0  0
   57.4420   28.8210   45.7940 C   0  0  0  0  0  0  0  0  0  0  0  0
   58.2700   28.2170   46.9380 C   0  0  0  0  0  0  0  0  0  0  0  0
   61.3879   31.5942   51.0777 H   0  0  0  0  0  0  0  0  0  0  0  0
   60.0977   33.3513   52.2811 H   0  0  0  0  0  0  0  0  0  0  0  0
   57.6119   33.1999   52.4358 H   0  0  0  0  0  0  0  0  0  0  0  0
   55.5120   31.9260   50.8810 H   0  0  0  0  0  0  0  0  0  0  0  0
   53.4248   29.2176   51.8862 H   0  0  0  0  0  0  0  0  0  0  0  0
   53.5970   32.2504   51.5479 H   0  0  0  0  0  0  0  0  0  0  0  0
   53.5496   31.0278   50.2111 H   0  0  0  0  0  0  0  0  0  0  0  0
   51.3342   32.2694   51.0900 H   0  0  0  0  0  0  0  0  0  0  0  0
   51.3523   30.5297   50.5292 H   0  0  0  0  0  0  0  0  0  0  0  0
   50.1515   31.2786   52.8074 H   0  0  0  0  0  0  0  0  0  0  0  0
   51.0035   29.6907   52.6078 H   0  0  0  0  0  0  0  0  0  0  0  0
   52.2068   32.2174   53.8278 H   0  0  0  0  0  0  0  0  0  0  0  0
   51.5938   30.7708   54.7336 H   0  0  0  0  0  0  0  0  0  0  0  0
   54.1932   31.0735   54.1259 H   0  0  0  0  0  0  0  0  0  0  0  0
   53.3534   29.4527   54.1360 H   0  0  0  0  0  0  0  0  0  0  0  0
   57.7083   29.4879   50.2059 H   0  0  0  0  0  0  0  0  0  0  0  0
   58.2138   29.8657   48.2988 H   0  0  0  0  0  0  0  0  0  0  0  0
   59.2880   31.3527   47.0640 H   0  0  0  0  0  0  0  0  0  0  0  0
   60.7948   30.3319   47.1384 H   0  0  0  0  0  0  0  0  0  0  0  0
   59.9892   30.9215   44.8000 H   0  0  0  0  0  0  0  0  0  0  0  0
   60.2199   29.1720   45.1363 H   0  0  0  0  0  0  0  0  0  0  0  0
   58.7263   32.2639   43.6953 H   0  0  0  0  0  0  0  0  0  0  0  0
   57.1360   32.2408   42.8274 H   0  0  0  0  0  0  0  0  0  0  0  0
   56.3253   33.4723   44.5207 H   0  0  0  0  0  0  0  0  0  0  0  0
   56.4597   31.9674   45.5257 H   0  0  0  0  0  0  0  0  0  0  0  0
   58.9275   34.5180   44.1979 H   0  0  0  0  0  0  0  0  0  0  0  0
   60.6565   35.5701   45.6574 H   0  0  0  0  0  0  0  0  0  0  0  0
   60.7300   35.0358   48.0959 H   0  0  0  0  0  0  0  0  0  0  0  0
   59.0622   33.4569   49.0783 H   0  0  0  0  0  0  0  0  0  0  0  0
   57.3334   32.3986   47.6242 H   0  0  0  0  0  0  0  0  0  0  0  0
   56.5537   29.3124   46.2176 H   0  0  0  0  0  0  0  0  0  0  0  0
   57.1545   28.0073   45.1119 H   0  0  0  0  0  0  0  0  0  0  0  0
   57.6000   27.6568   47.6068 H   0  0  0  0  0  0  0  0  0  0  0  0
   59.0309   27.5542   46.5002 H   0  0  0  0  0  0  0  0  0  0  0  0
  1  2  2  0
  2  3  1  0
  3  4  1  0
  4  5  2  0
  5  6  1  0
  6  7  2  0
  7  8  1  0
  8  9  1  0
  9 10  1  0
 10 11  2  0
 10 12  1  0
 12 13  1  0
 13 14  1  0
 14 15  1  0
 15 16  1  0
 16 17  1  0
  8 18  2  0
  2 19  1  0
 19 20  1  0
 20 21  1  0
 21 22  1  0
 22 23  1  0
 23 24  2  0
 23 25  1  0
 25 26  1  0
 26 27  1  0
 27 28  2  0
 28 29  1  0
 29 30  2  0
 30 31  1  0
 31 32  2  0
 22 33  1  0
 33 34  1  0
 18  4  1  0
 34 19  1  0
 17 12  1  0
 32 27  1  0
  5 35  1  0
  6 36  1  0
  7 37  1  0
  9 38  1  0
 12 39  1  0
 13 40  1  0
 13 41  1  0
 14 42  1  0
 14 43  1  0
 15 44  1  0
 15 45  1  0
 16 46  1  0
 16 47  1  0
 17 48  1  0
 17 49  1  0
 18 50  1  0
 19 51  1  0
 20 52  1  0
 20 53  1  0
 21 54  1  0
 21 55  1  0
 25 56  1  0
 25 57  1  0
 26 58  1  0
 26 59  1  0
 28 60  1  0
 29 61  1  0
 30 62  1  0
 31 63  1  0
 32 64  1  0
 33 65  1  0
 33 66  1  0
 34 67  1  0
 34 68  1  0
M  CHG  1   3  -1
M  END
>  <UniqueID>  (64) 
62

>  <SMILES>  (64) 
O=C([N-]c1cccc(NC(=O)C2CCCCC2)c1)C1CCN(C(=O)CCc2ccccc2)CC1

>  <Energy>  (64) 
77.29491291596332

>  <Genealogy>  (64) 
O=C([N-]c1cccc(NC(=O)C2CCCCC2)c1)C1CCN(C(=O)CCc2ccccc2)CC1 (protonated)
O=C([N-]c1cccc(NC(=O)C2CCCCC2)c1)C1CCN(C(=O)CCc2ccccc2)CC1 (3D coordinates assigned)
O=C([N-]c1cccc(NC(=O)C2CCCCC2)c1)C1CCN(C(=O)CCc2ccccc2)CC1 (nonaromatic ring conformer: 77.29491291596332 kcal/mol)

>  <smiles>  (64) 
O=C(Nc1cccc(NC(=O)C2CCN(C(=O)CCc3ccccc3)CC2)c1)C1CCCCC1

>  <score_type>  (64) 
oracle

>  <origin>  (64) 
adg

>  <m_score__min__energy>  (64) 
-11.34

>  <m_primary>  (64) 
energy

$$$$
64:0
     RDKit          3D

 52 55  0  0  0  0  0  0  0  0999 V2000
   55.5900   26.0420   46.2530 O   0  0  0  0  0  0  0  0  0  0  0  0
   56.3830   26.9870   45.9960 C   0  0  0  0  0  0  0  0  0  0  0  0
   55.8920   28.1090   45.2500 N   0  0  0  0  0  0  0  0  0  0  0  0
   56.6420   29.2790   44.8940 C   0  0  0  0  0  0  0  0  0  0  0  0
   56.6240   29.7950   43.5860 C   0  0  0  0  0  0  0  0  0  0  0  0
   57.3620   30.9390   43.2740 C   0  0  0  0  0  0  0  0  0  0  0  0
   58.1350   31.5660   44.2540 C   0  0  0  0  0  0  0  0  0  0  0  0
   58.1830   31.0420   45.5530 C   0  0  0  0  0  0  0  0  0  0  0  0
   59.1780   31.8190   46.7870 S   0  0  0  0  0  0  0  0  0  0  0  0
   60.6160   31.7930   46.3500 O   0  0  0  0  0  0  0  0  0  0  0  0
   59.0710   31.0400   48.0690 O   0  0  0  0  0  0  0  0  0  0  0  0
   58.6910   33.4770   47.0770 N   0  0  0  0  0  0  0  0  0  0  0  0
   59.7090   34.4190   46.6000 C   0  0  0  0  0  0  0  0  0  0  0  0
   59.2900   34.9260   45.2270 C   0  0  0  0  0  0  0  0  0  0  0  0
   57.8380   34.5220   45.0630 C   0  0  0  0  0  0  0  0  0  0  0  0
   57.4600   33.8020   46.3490 C   0  0  0  0  0  0  0  0  0  0  0  0
   57.4380   29.8960   45.8660 C   0  0  0  0  0  0  0  0  0  0  0  0
   57.7990   26.8840   46.4240 C   0  0  0  0  0  0  0  0  0  0  0  0
   58.6750   26.0110   45.7570 C   0  0  0  0  0  0  0  0  0  0  0  0
   60.0030   25.8910   46.1710 C   0  0  0  0  0  0  0  0  0  0  0  0
   60.4770   26.6490   47.2430 C   0  0  0  0  0  0  0  0  0  0  0  0
   59.6310   27.5560   47.8990 C   0  0  0  0  0  0  0  0  0  0  0  0
   60.1330   28.3030   49.0210 N   0  0  0  0  0  0  0  0  0  0  0  0
   60.8430   27.7140   50.1240 C   0  0  0  0  0  0  0  0  0  0  0  0
   60.7240   26.4810   50.3630 O   0  0  0  0  0  0  0  0  0  0  0  0
   61.6850   28.5530   51.0020 C   0  0  0  0  0  0  0  0  0  0  0  0
   62.4870   27.9870   52.0060 C   0  0  0  0  0  0  0  0  0  0  0  0
   63.2540   28.7930   52.7850 N   0  0  0  0  0  0  0  0  0  0  0  0
   63.2640   30.1400   52.6130 C   0  0  0  0  0  0  0  0  0  0  0  0
   62.4710   30.7090   51.6160 C   0  0  0  0  0  0  0  0  0  0  0  0
   61.7030   29.9040   50.8340 N   0  0  0  0  0  0  0  0  0  0  0  0
   58.2900   27.6640   47.4870 C   0  0  0  0  0  0  0  0  0  0  0  0
   56.0277   29.2969   42.8073 H   0  0  0  0  0  0  0  0  0  0  0  0
   57.3344   31.3476   42.2531 H   0  0  0  0  0  0  0  0  0  0  0  0
   58.7069   32.4723   44.0059 H   0  0  0  0  0  0  0  0  0  0  0  0
   59.7896   35.2643   47.2993 H   0  0  0  0  0  0  0  0  0  0  0  0
   60.6863   33.9182   46.5355 H   0  0  0  0  0  0  0  0  0  0  0  0
   59.3914   36.0201   45.1753 H   0  0  0  0  0  0  0  0  0  0  0  0
   59.9201   34.5043   44.4300 H   0  0  0  0  0  0  0  0  0  0  0  0
   57.2065   35.4116   44.9223 H   0  0  0  0  0  0  0  0  0  0  0  0
   57.6937   33.8794   44.1819 H   0  0  0  0  0  0  0  0  0  0  0  0
   56.8243   34.4537   46.9665 H   0  0  0  0  0  0  0  0  0  0  0  0
   56.9040   32.8816   46.1172 H   0  0  0  0  0  0  0  0  0  0  0  0
   57.4795   29.4788   46.8830 H   0  0  0  0  0  0  0  0  0  0  0  0
   58.3125   25.4188   44.9039 H   0  0  0  0  0  0  0  0  0  0  0  0
   60.6785   25.1963   45.6503 H   0  0  0  0  0  0  0  0  0  0  0  0
   61.5194   26.5347   47.5753 H   0  0  0  0  0  0  0  0  0  0  0  0
   59.9200   29.3250   49.0620 H   0  0  0  0  0  0  0  0  0  0  0  0
   62.4941   26.8979   52.1606 H   0  0  0  0  0  0  0  0  0  0  0  0
   63.8916   30.7767   53.2539 H   0  0  0  0  0  0  0  0  0  0  0  0
   62.4670   31.7984   51.4639 H   0  0  0  0  0  0  0  0  0  0  0  0
   57.6179   28.3663   48.0019 H   0  0  0  0  0  0  0  0  0  0  0  0
  1  2  2  0
  2  3  1  0
  3  4  1  0
  4  5  2  0
  5  6  1  0
  6  7  2  0
  7  8  1  0
  8  9  1  0
  9 10  2  0
  9 11  2  0
  9 12  1  0
 12 13  1  0
 13 14  1  0
 14 15  1  0
 15 16  1  0
  8 17  2  0
  2 18  1  0
 18 19  2  0
 19 20  1  0
 20 21  2  0
 21 22  1  0
 22 23  1  0
 23 24  1  0
 24 25  2  0
 24 26  1  0
 26 27  2  0
 27 28  1  0
 28 29  2  0
 29 30  1  0
 30 31  2  0
 22 32  2  0
 17  4  1  0
 32 18  1  0
 16 12  1  0
 31 26  1  0
  5 33  1  0
  6 34  1  0
  7 35  1  0
 13 36  1  0
 13 37  1  0
 14 38  1  0
 14 39  1  0
 15 40  1  0
 15 41  1  0
 16 42  1  0
 16 43  1  0
 17 44  1  0
 19 45  1  0
 20 46  1  0
 21 47  1  0
 23 48  1  0
 27 49  1  0
 29 50  1  0
 30 51  1  0
 32 52  1  0
M  CHG  1   3  -1
M  END
>  <UniqueID>  (65) 
63

>  <SMILES>  (65) 
O=C([N-]c1cccc(S(=O)(=O)N2CCCC2)c1)c1cccc(NC(=O)c2cnccn2)c1

>  <Energy>  (65) 
67.52013161087909

>  <Genealogy>  (65) 
O=C([N-]c1cccc(S(=O)(=O)N2CCCC2)c1)c1cccc(NC(=O)c2cnccn2)c1 (protonated)
O=C([N-]c1cccc(S(=O)(=O)N2CCCC2)c1)c1cccc(NC(=O)c2cnccn2)c1 (3D coordinates assigned)
O=C([N-]c1cccc(S(=O)(=O)N2CCCC2)c1)c1cccc(NC(=O)c2cnccn2)c1 (nonaromatic ring conformer: 67.52013161087909 kcal/mol)

>  <smiles>  (65) 
O=C(Nc1cccc(S(=O)(=O)N2CCCC2)c1)c1cccc(NC(=O)c2cnccn2)c1

>  <score_type>  (65) 
oracle

>  <origin>  (65) 
adg

>  <m_score__min__energy>  (65) 
-11.619999999999999

>  <m_primary>  (65) 
energy

$$$$
65:0
     RDKit          3D

 46 48  0  0  0  0  0  0  0  0999 V2000
   56.9950   34.2720   44.9380 O   0  0  0  0  0  0  0  0  0  0  0  0
   57.3710   33.1350   45.3310 C   0  0  0  0  0  0  0  0  0  0  0  0
   56.6370   31.9880   44.8700 N   0  0  0  0  0  0  0  0  0  0  0  0
   57.0750   30.8140   44.5160 C   0  0  0  0  0  0  0  0  0  0  0  0
   56.6000   30.2500   43.3250 C   0  0  0  0  0  0  0  0  0  0  0  0
   56.9830   28.9560   42.9740 C   0  0  0  0  0  0  0  0  0  0  0  0
   57.8470   28.2390   43.8000 C   0  0  0  0  0  0  0  0  0  0  0  0
   58.3380   28.8410   44.9650 C   0  0  0  0  0  0  0  0  0  0  0  0
   59.3030   28.1340   45.8210 C   0  0  0  0  0  0  0  0  0  0  0  0
   59.6540   26.9610   45.5180 O   0  0  0  0  0  0  0  0  0  0  0  0
   59.8740   28.7790   46.9730 N   0  0  0  0  0  0  0  0  0  0  0  0
   60.2580   27.9580   48.1350 C   0  0  0  0  0  0  0  0  0  0  0  0
   59.9780   28.6970   49.4420 C   0  0  0  0  0  0  0  0  0  0  0  0
   60.9300   30.2000   49.4950 S   0  0  0  0  0  0  0  0  0  0  0  0
   62.1750   29.9950   50.3120 O   0  0  0  0  0  0  0  0  0  0  0  0
   60.1120   31.3110   50.0900 O   0  0  0  0  0  0  0  0  0  0  0  0
   61.3690   30.6060   47.8200 C   0  0  0  0  0  0  0  0  0  0  0  0
   60.2340   30.2090   46.8730 C   0  0  0  0  0  0  0  0  0  0  0  0
   57.9320   30.0990   45.2990 N   0  0  0  0  0  0  0  0  0  0  0  0
   58.5210   33.0290   46.1880 N   0  0  0  0  0  0  0  0  0  0  0  0
   58.9610   34.1510   47.0210 C   0  0  0  0  0  0  0  0  0  0  0  0
   60.4200   34.0170   47.3890 C   0  0  0  0  0  0  0  0  0  0  0  0
   61.3740   33.8280   46.3730 C   0  0  0  0  0  0  0  0  0  0  0  0
   62.7250   33.6620   46.6880 C   0  0  0  0  0  0  0  0  0  0  0  0
   63.1380   33.6770   48.0220 C   0  0  0  0  0  0  0  0  0  0  0  0
   62.2010   33.8520   49.0430 C   0  0  0  0  0  0  0  0  0  0  0  0
   60.8440   34.0150   48.7380 C   0  0  0  0  0  0  0  0  0  0  0  0
   59.7060   34.1860   50.0700 Cl  0  0  0  0  0  0  0  0  0  0  0  0
   55.9285   30.8248   42.6702 H   0  0  0  0  0  0  0  0  0  0  0  0
   56.6039   28.5017   42.0467 H   0  0  0  0  0  0  0  0  0  0  0  0
   58.1400   27.2112   43.5395 H   0  0  0  0  0  0  0  0  0  0  0  0
   59.6813   27.0214   48.1204 H   0  0  0  0  0  0  0  0  0  0  0  0
   61.3359   27.7470   48.0750 H   0  0  0  0  0  0  0  0  0  0  0  0
   58.9069   28.9399   49.5028 H   0  0  0  0  0  0  0  0  0  0  0  0
   60.2595   28.0566   50.2909 H   0  0  0  0  0  0  0  0  0  0  0  0
   61.5473   31.6886   47.7419 H   0  0  0  0  0  0  0  0  0  0  0  0
   62.2812   30.0578   47.5417 H   0  0  0  0  0  0  0  0  0  0  0  0
   59.3468   30.8120   47.1165 H   0  0  0  0  0  0  0  0  0  0  0  0
   60.5832   30.3900   45.8457 H   0  0  0  0  0  0  0  0  0  0  0  0
   59.0310   32.1240   46.2730 H   0  0  0  0  0  0  0  0  0  0  0  0
   58.8155   35.0893   46.4656 H   0  0  0  0  0  0  0  0  0  0  0  0
   58.3664   34.1528   47.9465 H   0  0  0  0  0  0  0  0  0  0  0  0
   61.0536   33.8107   45.3209 H   0  0  0  0  0  0  0  0  0  0  0  0
   63.4634   33.5195   45.8852 H   0  0  0  0  0  0  0  0  0  0  0  0
   64.2025   33.5508   48.2690 H   0  0  0  0  0  0  0  0  0  0  0  0
   62.5308   33.8618   50.0923 H   0  0  0  0  0  0  0  0  0  0  0  0
  1  2  2  0
  2  3  1  0
  3  4  2  3
  4  5  1  0
  5  6  2  0
  6  7  1  0
  7  8  2  0
  8  9  1  0
  9 10  2  0
  9 11  1  0
 11 12  1  0
 12 13  1  0
 13 14  1  0
 14 15  2  0
 14 16  2  0
 14 17  1  0
 17 18  1  0
  8 19  1  0
  2 20  1  0
 20 21  1  0
 21 22  1  0
 22 23  2  0
 23 24  1  0
 24 25  2  0
 25 26  1  0
 26 27  2  0
 27 28  1  0
 19  4  1  0
 27 22  1  0
 18 11  1  0
  5 29  1  0
  6 30  1  0
  7 31  1  0
 12 32  1  0
 12 33  1  0
 13 34  1  0
 13 35  1  0
 17 36  1  0
 17 37  1  0
 18 38  1  0
 18 39  1  0
 20 40  1  0
 21 41  1  0
 21 42  1  0
 23 43  1  0
 24 44  1  0
 25 45  1  0
 26 46  1  0
M  CHG  1  19  -1
M  END
>  <UniqueID>  (66) 
64

>  <SMILES>  (66) 
O=C(N=c1cccc(C(=O)N2CCS(=O)(=O)CC2)[n-]1)NCc1ccccc1Cl

>  <Energy>  (66) 
51.15873711292254

>  <Genealogy>  (66) 
O=C(N=c1cccc(C(=O)N2CCS(=O)(=O)CC2)[n-]1)NCc1ccccc1Cl (protonated)
O=C(N=c1cccc(C(=O)N2CCS(=O)(=O)CC2)[n-]1)NCc1ccccc1Cl (3D coordinates assigned)
O=C(N=c1cccc(C(=O)N2CCS(=O)(=O)CC2)[n-]1)NCc1ccccc1Cl (nonaromatic ring conformer: 51.15873711292254 kcal/mol)

>  <smiles>  (66) 
O=C(N=c1cccc(C(=O)N2CCS(=O)(=O)CC2)[nH]1)NCc1ccccc1Cl

>  <score_type>  (66) 
oracle

>  <origin>  (66) 
adg

>  <m_score__min__energy>  (66) 
-11.08

>  <m_primary>  (66) 
energy

$$$$
66:0
     RDKit          3D

 55 58  0  0  0  0  0  0  0  0999 V2000
   64.8590   32.6830   47.5290 H   0  0  0  0  0  0  0  0  0  0  0  0
   64.3390   33.2750   48.1660 O   0  0  0  0  0  0  0  0  0  0  0  0
   63.0160   33.6280   47.9160 C   0  0  0  0  0  0  0  0  0  0  0  0
   62.5530   33.7820   46.6030 C   0  0  0  0  0  0  0  0  0  0  0  0
   63.2380   33.6210   45.7575 H   0  0  0  0  0  0  0  0  0  0  0  0
   61.2220   34.1400   46.3640 C   0  0  0  0  0  0  0  0  0  0  0  0
   60.8618   34.2453   45.3300 H   0  0  0  0  0  0  0  0  0  0  0  0
   60.3420   34.3660   47.4360 C   0  0  0  0  0  0  0  0  0  0  0  0
   58.8990   34.7560   47.1850 C   0  0  0  0  0  0  0  0  0  0  0  0
   58.8882   35.6440   46.5358 H   0  0  0  0  0  0  0  0  0  0  0  0
   58.4441   34.9459   48.1684 H   0  0  0  0  0  0  0  0  0  0  0  0
   58.0940   33.6950   46.5370 N   0  0  0  0  0  0  0  0  0  0  0  0
   57.9680   33.8530   45.0710 C   0  0  0  0  0  0  0  0  0  0  0  0
   58.9563   34.0811   44.6453 H   0  0  0  0  0  0  0  0  0  0  0  0
   57.2659   34.6733   44.8607 H   0  0  0  0  0  0  0  0  0  0  0  0
   57.4310   32.5670   44.4370 C   0  0  0  0  0  0  0  0  0  0  0  0
   57.2827   32.7323   43.3597 H   0  0  0  0  0  0  0  0  0  0  0  0
   56.4786   32.3090   44.9232 H   0  0  0  0  0  0  0  0  0  0  0  0
   58.3750   31.4450   44.6280 N   0  0  0  0  0  0  0  0  0  0  0  0
   57.5390   29.9210   44.4620 S   0  0  0  0  0  0  0  0  0  0  0  0
   57.2110   29.6660   43.0170 O   0  0  0  0  0  0  0  0  0  0  0  0
   56.2560   29.9600   45.2440 O   0  0  0  0  0  0  0  0  0  0  0  0
   58.5440   28.6130   45.0870 C   0  0  0  0  0  0  0  0  0  0  0  0
   59.9300   28.7840   45.1800 C   0  0  0  0  0  0  0  0  0  0  0  0
   60.3864   29.7386   44.8793 H   0  0  0  0  0  0  0  0  0  0  0  0
   60.7340   27.7470   45.6530 C   0  0  0  0  0  0  0  0  0  0  0  0
   61.8222   27.8881   45.7296 H   0  0  0  0  0  0  0  0  0  0  0  0
   60.1610   26.5290   46.0300 C   0  0  0  0  0  0  0  0  0  0  0  0
   60.8009   25.7170   46.4056 H   0  0  0  0  0  0  0  0  0  0  0  0
   58.7700   26.3350   45.9320 C   0  0  0  0  0  0  0  0  0  0  0  0
   58.1610   25.0410   46.3250 C   0  0  0  0  0  0  0  0  0  0  0  0
   58.6990   23.9610   45.9560 O   0  0  0  0  0  0  0  0  0  0  0  0
   56.9160   25.0280   47.0450 N   0  0  0  0  0  0  0  0  0  0  0  0
   55.7710   24.5030   46.7030 C   0  0  0  0  0  0  0  0  0  0  0  0
   54.8990   25.2750   45.9970 N   0  0  0  0  0  0  0  0  0  0  0  0
   53.6800   24.8240   45.6020 C   0  0  0  0  0  0  0  0  0  0  0  0
   53.0100   25.4816   45.0287 H   0  0  0  0  0  0  0  0  0  0  0  0
   53.2770   23.5270   45.9230 C   0  0  0  0  0  0  0  0  0  0  0  0
   51.7050   22.9350   45.4180 Cl  0  0  0  0  0  0  0  0  0  0  0  0
   54.1360   22.7120   46.6600 C   0  0  0  0  0  0  0  0  0  0  0  0
   53.8299   21.6895   46.9262 H   0  0  0  0  0  0  0  0  0  0  0  0
   55.3840   23.1930   47.0600 C   0  0  0  0  0  0  0  0  0  0  0  0
   56.0606   22.5563   47.6488 H   0  0  0  0  0  0  0  0  0  0  0  0
   57.9680   27.3900   45.4570 C   0  0  0  0  0  0  0  0  0  0  0  0
   56.8796   27.2533   45.3755 H   0  0  0  0  0  0  0  0  0  0  0  0
   59.1310   31.5040   45.9050 C   0  0  0  0  0  0  0  0  0  0  0  0
   60.1095   31.9686   45.7136 H   0  0  0  0  0  0  0  0  0  0  0  0
   59.2358   30.4742   46.2772 H   0  0  0  0  0  0  0  0  0  0  0  0
   58.4030   32.3180   46.9880 C   0  0  0  0  0  0  0  0  0  0  0  0
   59.0430   32.3725   47.8810 H   0  0  0  0  0  0  0  0  0  0  0  0
   57.4514   31.8125   47.2092 H   0  0  0  0  0  0  0  0  0  0  0  0
   60.8090   34.1840   48.7510 C   0  0  0  0  0  0  0  0  0  0  0  0
   60.1222   34.3238   49.5988 H   0  0  0  0  0  0  0  0  0  0  0  0
   62.1390   33.8270   48.9870 C   0  0  0  0  0  0  0  0  0  0  0  0
   62.4977   33.7020   50.0193 H   0  0  0  0  0  0  0  0  0  0  0  0
  1  2  1  0
  2  3  1  0
  3  4  2  0
  4  5  1  0
  4  6  1  0
  6  7  1  0
  6  8  2  0
  8  9  1  0
  9 10  1  0
  9 11  1  0
  9 12  1  0
 12 13  1  0
 13 14  1  0
 13 15  1  0
 13 16  1  0
 16 17  1  0
 16 18  1  0
 16 19  1  0
 19 20  1  0
 20 21  2  0
 20 22  2  0
 20 23  1  0
 23 24  2  0
 24 25  1  0
 24 26  1  0
 26 27  1  0
 26 28  2  0
 28 29  1  0
 28 30  1  0
 30 31  1  0
 31 32  2  0
 31 33  1  0
 33 34  2  0
 34 35  1  0
 35 36  1  0
 36 37  1  0
 36 38  2  0
 38 39  1  0
 38 40  1  0
 40 41  1  0
 40 42  2  0
 42 43  1  0
 30 44  2  0
 44 45  1  0
 19 46  1  0
 46 47  1  0
 46 48  1  0
 46 49  1  0
 49 50  1  0
 49 51  1  0
  8 52  1  0
 52 53  1  0
 52 54  2  0
 54 55  1  0
 54  3  1  0
 49 12  1  0
 44 23  1  0
 42 34  1  0
M  CHG  1  35  -1
M  END
>  <UniqueID>  (67) 
65

>  <SMILES>  (67) 
O=C(/N=c1\ccc(Cl)c[n-]1)c1cccc(S(=O)(=O)N2CCN(Cc3ccc(O)cc3)CC2)c1

>  <Energy>  (67) 
80.9169152212285

>  <Genealogy>  (67) 
O=C(N=c1ccc(Cl)c[n-]1)c1cccc(S(=O)(=O)N2CCN(Cc3ccc(O)cc3)CC2)c1 (protonated)
O=C(/N=c1\ccc(Cl)c[n-]1)c1cccc(S(=O)(=O)N2CCN(Cc3ccc(O)cc3)CC2)c1 (cis-trans isomerization)
O=C(/N=c1\ccc(Cl)c[n-]1)c1cccc(S(=O)(=O)N2CCN(Cc3ccc(O)cc3)CC2)c1 (3D coordinates assigned)
O=C(/N=c1\ccc(Cl)c[n-]1)c1cccc(S(=O)(=O)N2CCN(Cc3ccc(O)cc3)CC2)c1 (nonaromatic ring conformer: 80.9169152212285 kcal/mol)

>  <smiles>  (67) 
O=C(N=c1ccc(Cl)c[nH]1)c1cccc(S(=O)(=O)N2CCN(Cc3ccc(O)cc3)CC2)c1

>  <score_type>  (67) 
oracle

>  <origin>  (67) 
adg

>  <m_score__min__energy>  (67) 
-12.69

>  <m_primary>  (67) 
energy

$$$$
67:0
     RDKit          3D

 63 66  0  0  0  0  0  0  0  0999 V2000
   57.0060   34.5960   44.9210 C   0  0  0  0  0  0  0  0  0  0  0  0
   57.2910   33.0280   45.7730 S   0  0  0  0  0  0  0  0  0  0  0  0
   57.1580   31.7900   44.7750 N   0  0  0  0  0  0  0  0  0  0  0  0
   57.6440   30.4550   44.9640 C   0  0  0  0  0  0  0  0  0  0  0  0
   58.7200   30.1240   44.4070 O   0  0  0  0  0  0  0  0  0  0  0  0
   56.8960   29.4750   45.6900 N   0  0  0  0  0  0  0  0  0  0  0  0
   57.4120   28.1350   45.9550 C   0  0  0  0  0  0  0  0  0  0  0  0
   58.5440   28.1980   46.9440 C   0  0  0  0  0  0  0  0  0  0  0  0
   59.6110   27.2880   46.8710 C   0  0  0  0  0  0  0  0  0  0  0  0
   60.6480   27.3430   47.8060 C   0  0  0  0  0  0  0  0  0  0  0  0
   60.6300   28.3080   48.8160 C   0  0  0  0  0  0  0  0  0  0  0  0
   59.5750   29.2230   48.8920 C   0  0  0  0  0  0  0  0  0  0  0  0
   58.5360   29.1700   47.9590 C   0  0  0  0  0  0  0  0  0  0  0  0
   58.9730   33.0170   46.3520 C   0  0  0  0  0  0  0  0  0  0  0  0
   59.5840   31.8310   46.7760 C   0  0  0  0  0  0  0  0  0  0  0  0
   60.9180   31.8560   47.2000 C   0  0  0  0  0  0  0  0  0  0  0  0
   61.6310   33.0630   47.1930 C   0  0  0  0  0  0  0  0  0  0  0  0
   63.0440   33.1190   47.6190 C   0  0  0  0  0  0  0  0  0  0  0  0
   63.9250   33.3190   46.7400 O   0  0  0  0  0  0  0  0  0  0  0  0
   63.4320   32.9130   48.9980 N   0  0  0  0  0  0  0  0  0  0  0  0
   64.8320   33.0740   49.4180 C   0  0  0  0  0  0  0  0  0  0  0  0
   65.3350   31.7680   50.0470 C   0  0  0  0  0  0  0  0  0  0  0  0
   64.3510   31.2240   50.9890 N   0  0  0  0  0  0  0  0  0  0  0  0
   64.6000   29.9690   51.6310 C   0  0  0  0  0  0  0  0  0  0  0  0
   65.8660   29.6910   52.1640 C   0  0  0  0  0  0  0  0  0  0  0  0
   66.1160   28.4500   52.7640 C   0  0  0  0  0  0  0  0  0  0  0  0
   65.1080   27.4830   52.8300 C   0  0  0  0  0  0  0  0  0  0  0  0
   63.8250   27.7600   52.3270 C   0  0  0  0  0  0  0  0  0  0  0  0
   62.6990   26.7710   52.4540 C   0  0  0  0  0  0  0  0  0  0  0  0
   62.4240   26.5460   53.7890 F   0  0  0  0  0  0  0  0  0  0  0  0
   61.5670   27.2720   51.8440 F   0  0  0  0  0  0  0  0  0  0  0  0
   63.0280   25.5630   51.8710 F   0  0  0  0  0  0  0  0  0  0  0  0
   63.5920   28.9930   51.6900 C   0  0  0  0  0  0  0  0  0  0  0  0
   63.1230   31.9660   51.2860 C   0  0  0  0  0  0  0  0  0  0  0  0
   62.4520   32.4090   49.9780 C   0  0  0  0  0  0  0  0  0  0  0  0
   60.9700   34.2350   46.7950 C   0  0  0  0  0  0  0  0  0  0  0  0
   59.6750   34.1830   46.3780 N   0  0  0  0  0  0  0  0  0  0  0  0
   56.8607   35.3952   45.6627 H   0  0  0  0  0  0  0  0  0  0  0  0
   57.8756   34.8342   44.2908 H   0  0  0  0  0  0  0  0  0  0  0  0
   56.1082   34.5130   44.2908 H   0  0  0  0  0  0  0  0  0  0  0  0
   55.9210   29.6790   45.9860 H   0  0  0  0  0  0  0  0  0  0  0  0
   56.6054   27.5101   46.3659 H   0  0  0  0  0  0  0  0  0  0  0  0
   57.7822   27.7014   45.0143 H   0  0  0  0  0  0  0  0  0  0  0  0
   59.6306   26.5291   46.0749 H   0  0  0  0  0  0  0  0  0  0  0  0
   61.4796   26.6255   47.7467 H   0  0  0  0  0  0  0  0  0  0  0  0
   61.4464   28.3482   49.5522 H   0  0  0  0  0  0  0  0  0  0  0  0
   59.5631   29.9842   49.6860 H   0  0  0  0  0  0  0  0  0  0  0  0
   57.7084   29.8921   48.0193 H   0  0  0  0  0  0  0  0  0  0  0  0
   59.0202   30.8865   46.7760 H   0  0  0  0  0  0  0  0  0  0  0  0
   61.4060   30.9300   47.5381 H   0  0  0  0  0  0  0  0  0  0  0  0
   65.4507   33.3205   48.5425 H   0  0  0  0  0  0  0  0  0  0  0  0
   64.9001   33.8853   50.1577 H   0  0  0  0  0  0  0  0  0  0  0  0
   65.5155   31.0314   49.2503 H   0  0  0  0  0  0  0  0  0  0  0  0
   66.2650   31.9790   50.5953 H   0  0  0  0  0  0  0  0  0  0  0  0
   66.6632   30.4471   52.1112 H   0  0  0  0  0  0  0  0  0  0  0  0
   67.1093   28.2353   53.1850 H   0  0  0  0  0  0  0  0  0  0  0  0
   65.3201   26.5009   53.2777 H   0  0  0  0  0  0  0  0  0  0  0  0
   62.6113   29.1941   51.2341 H   0  0  0  0  0  0  0  0  0  0  0  0
   62.4335   31.3200   51.8493 H   0  0  0  0  0  0  0  0  0  0  0  0
   63.3721   32.8545   51.8847 H   0  0  0  0  0  0  0  0  0  0  0  0
   61.9229   31.5492   49.5412 H   0  0  0  0  0  0  0  0  0  0  0  0
   61.7552   33.2269   50.2134 H   0  0  0  0  0  0  0  0  0  0  0  0
   61.4997   35.1987   46.8200 H   0  0  0  0  0  0  0  0  0  0  0  0
  2  1  1  6
  2  3  2  3
  3  4  1  0
  4  5  2  0
  4  6  1  0
  6  7  1  0
  7  8  1  0
  8  9  2  0
  9 10  1  0
 10 11  2  0
 11 12  1  0
 12 13  2  0
  2 14  1  0
 14 15  2  0
 15 16  1  0
 16 17  2  0
 17 18  1  0
 18 19  2  0
 18 20  1  0
 20 21  1  0
 21 22  1  0
 22 23  1  0
 23 24  1  0
 24 25  2  0
 25 26  1  0
 26 27  2  0
 27 28  1  0
 28 29  1  0
 29 30  1  0
 29 31  1  0
 29 32  1  0
 28 33  2  0
 23 34  1  0
 34 35  1  0
 17 36  1  0
 36 37  2  0
 13  8  1  0
 37 14  1  0
 35 20  1  0
 33 24  1  0
  1 38  1  0
  1 39  1  0
  1 40  1  0
  6 41  1  0
  7 42  1  0
  7 43  1  0
  9 44  1  0
 10 45  1  0
 11 46  1  0
 12 47  1  0
 13 48  1  0
 15 49  1  0
 16 50  1  0
 21 51  1  0
 21 52  1  0
 22 53  1  0
 22 54  1  0
 25 55  1  0
 26 56  1  0
 27 57  1  0
 33 58  1  0
 34 59  1  0
 34 60  1  0
 35 61  1  0
 35 62  1  0
 36 63  1  0
M  END
>  <UniqueID>  (68) 
66

>  <SMILES>  (68) 
C[S@@](=NC(=O)NCc1ccccc1)c1ccc(C(=O)N2CCN(c3cccc(C(F)(F)F)c3)CC2)cn1

>  <Energy>  (68) 
81.880112623009

>  <Genealogy>  (68) 
C[S@@](=NC(=O)NCc1ccccc1)c1ccc(C(=O)N2CCN(c3cccc(C(F)(F)F)c3)CC2)cn1 (chirality)
C[S@@](=NC(=O)NCc1ccccc1)c1ccc(C(=O)N2CCN(c3cccc(C(F)(F)F)c3)CC2)cn1 (3D coordinates assigned)
C[S@@](=NC(=O)NCc1ccccc1)c1ccc(C(=O)N2CCN(c3cccc(C(F)(F)F)c3)CC2)cn1 (nonaromatic ring conformer: 81.880112623009 kcal/mol)

>  <smiles>  (68) 
CS(=NC(=O)NCc1ccccc1)c1ccc(C(=O)N2CCN(c3cccc(C(F)(F)F)c3)CC2)cn1

>  <score_type>  (68) 
oracle

>  <origin>  (68) 
adg

>  <m_score__min__energy>  (68) 
-8.9199999999999999

>  <m_primary>  (68) 
energy

$$$$
68:0
     RDKit          3D

 50 53  0  0  0  0  0  0  0  0999 V2000
   59.3640   27.0940   48.4680 H   0  0  0  0  0  0  0  0  0  0  0  0
   59.3560   28.1050   48.5390 O   0  0  0  0  0  0  0  0  0  0  0  0
   59.0910   28.9170   47.4350 C   0  0  0  0  0  0  0  0  0  0  0  0
   59.2360   30.3070   47.5490 C   0  0  0  0  0  0  0  0  0  0  0  0
   59.6046   30.7383   48.4914 H   0  0  0  0  0  0  0  0  0  0  0  0
   58.9170   31.1570   46.4760 C   0  0  0  0  0  0  0  0  0  0  0  0
   59.0640   32.5890   46.6000 N   0  0  0  0  0  0  0  0  0  0  0  0
   59.3100   33.4180   45.4130 C   0  0  0  0  0  0  0  0  0  0  0  0
   60.3858   33.4131   45.1835 H   0  0  0  0  0  0  0  0  0  0  0  0
   58.7422   33.0069   44.5653 H   0  0  0  0  0  0  0  0  0  0  0  0
   58.8540   34.8580   45.6670 C   0  0  0  0  0  0  0  0  0  0  0  0
   59.0912   35.4657   44.7813 H   0  0  0  0  0  0  0  0  0  0  0  0
   57.7717   34.8389   45.8627 H   0  0  0  0  0  0  0  0  0  0  0  0
   59.5150   35.4550   46.8430 N   0  0  0  0  0  0  0  0  0  0  0  0
   58.9030   36.2270   47.1970 H   0  0  0  0  0  0  0  0  0  0  0  0
   59.7830   34.5170   47.9510 C   0  0  0  0  0  0  0  0  0  0  0  0
   60.8411   34.2197   47.9066 H   0  0  0  0  0  0  0  0  0  0  0  0
   59.5346   35.0421   48.8851 H   0  0  0  0  0  0  0  0  0  0  0  0
   58.9200   33.2480   47.9050 C   0  0  0  0  0  0  0  0  0  0  0  0
   59.2435   32.5586   48.6988 H   0  0  0  0  0  0  0  0  0  0  0  0
   57.8657   33.5229   48.0561 H   0  0  0  0  0  0  0  0  0  0  0  0
   58.4390   30.5890   45.2840 C   0  0  0  0  0  0  0  0  0  0  0  0
   58.1713   31.2409   44.4394 H   0  0  0  0  0  0  0  0  0  0  0  0
   58.3000   29.2050   45.1600 C   0  0  0  0  0  0  0  0  0  0  0  0
   57.9139   28.7779   44.2227 H   0  0  0  0  0  0  0  0  0  0  0  0
   58.6480   28.3550   46.2190 C   0  0  0  0  0  0  0  0  0  0  0  0
   58.4810   26.8960   46.0290 C   0  0  0  0  0  0  0  0  0  0  0  0
   58.9343   26.4249   45.1444 H   0  0  0  0  0  0  0  0  0  0  0  0
   57.8010   26.1250   46.8890 C   0  0  0  0  0  0  0  0  0  0  0  0
   58.1885   26.0059   47.9116 H   0  0  0  0  0  0  0  0  0  0  0  0
   56.5470   25.4260   46.5170 C   0  0  0  0  0  0  0  0  0  0  0  0
   55.4640   26.0960   45.9240 C   0  0  0  0  0  0  0  0  0  0  0  0
   55.5300   27.4540   45.6330 O   0  0  0  0  0  0  0  0  0  0  0  0
   54.3430   25.4090   45.5980 N   0  0  0  0  0  0  0  0  0  0  0  0
   54.2370   24.0750   45.8130 C   0  0  0  0  0  0  0  0  0  0  0  0
   53.1620   23.4900   45.5060 O   0  0  0  0  0  0  0  0  0  0  0  0
   55.2830   23.3790   46.3600 N   0  0  0  0  0  0  0  0  0  0  0  0
   55.1700   21.9550   46.5720 C   0  0  0  0  0  0  0  0  0  0  0  0
   55.8100   21.0560   45.7030 C   0  0  0  0  0  0  0  0  0  0  0  0
   56.3998   21.4377   44.8566 H   0  0  0  0  0  0  0  0  0  0  0  0
   55.7000   19.6780   45.9100 C   0  0  0  0  0  0  0  0  0  0  0  0
   56.2038   18.9778   45.2275 H   0  0  0  0  0  0  0  0  0  0  0  0
   54.9500   19.1890   46.9840 C   0  0  0  0  0  0  0  0  0  0  0  0
   54.8636   18.1043   47.1451 H   0  0  0  0  0  0  0  0  0  0  0  0
   54.3100   20.0770   47.8530 C   0  0  0  0  0  0  0  0  0  0  0  0
   53.7207   19.6905   48.6976 H   0  0  0  0  0  0  0  0  0  0  0  0
   54.4180   21.4560   47.6500 C   0  0  0  0  0  0  0  0  0  0  0  0
   53.9132   22.1525   48.3356 H   0  0  0  0  0  0  0  0  0  0  0  0
   56.4370   24.0360   46.7050 C   0  0  0  0  0  0  0  0  0  0  0  0
   57.4080   23.3960   47.1980 O   0  0  0  0  0  0  0  0  0  0  0  0
  1  2  1  0
  2  3  1  0
  3  4  2  0
  4  5  1  0
  4  6  1  0
  6  7  1  0
  7  8  1  0
  8  9  1  0
  8 10  1  0
  8 11  1  0
 11 12  1  0
 11 13  1  0
 11 14  1  0
 14 15  1  0
 14 16  1  0
 16 17  1  0
 16 18  1  0
 16 19  1  0
 19 20  1  0
 19 21  1  0
  6 22  2  0
 22 23  1  0
 22 24  1  0
 24 25  1  0
 24 26  2  0
 26 27  1  0
 27 28  1  0
 27 29  2  0
 29 30  1  0
 29 31  1  0
 31 32  2  0
 32 33  1  0
 32 34  1  0
 34 35  1  0
 35 36  2  0
 35 37  1  0
 37 38  1  0
 38 39  2  0
 39 40  1  0
 39 41  1  0
 41 42  1  0
 41 43  2  0
 43 44  1  0
 43 45  1  0
 45 46  1  0
 45 47  2  0
 47 48  1  0
 37 49  1  0
 49 50  2  0
 26  3  1  0
 49 31  1  0
 19  7  1  0
 47 38  1  0
M  CHG  2  33  -1  34  -1
M  END
>  <UniqueID>  (69) 
67

>  <SMILES>  (69) 
O=c1[n-]c([O-])c(/C=C/c2ccc(N3CCNCC3)cc2O)c(=O)n1-c1ccccc1

>  <Energy>  (69) 
82.5829840506682

>  <Genealogy>  (69) 
O=c1[n-]c([O-])c(C=Cc2ccc(N3CCNCC3)cc2O)c(=O)n1-c1ccccc1 (protonated)
O=c1[n-]c([O-])c(/C=C/c2ccc(N3CCNCC3)cc2O)c(=O)n1-c1ccccc1 (cis-trans isomerization)
O=c1[n-]c([O-])c(/C=C/c2ccc(N3CCNCC3)cc2O)c(=O)n1-c1ccccc1 (3D coordinates assigned)
O=c1[n-]c([O-])c(/C=C/c2ccc(N3CCNCC3)cc2O)c(=O)n1-c1ccccc1 (nonaromatic ring conformer: 82.5829840506682 kcal/mol)

>  <smiles>  (69) 
O=c1[nH]c(O)c(C=Cc2ccc(N3CCNCC3)cc2O)c(=O)n1-c1ccccc1

>  <score_type>  (69) 
oracle

>  <origin>  (69) 
adg

>  <m_score__min__energy>  (69) 
-12.93

>  <m_primary>  (69) 
energy

$$$$
69:0
     RDKit          3D

 70 74  0  0  0  0  0  0  0  0999 V2000
   62.5200   31.9680   46.7490 O   0  0  0  0  0  0  0  0  0  0  0  0
   61.6830   32.7910   47.2080 C   0  0  0  0  0  0  0  0  0  0  0  0
   62.0480   33.6580   48.2900 N   0  0  0  0  0  0  0  0  0  0  0  0
   63.4070   33.6770   48.8270 C   0  0  0  0  0  0  0  0  0  0  0  0
   63.5850   32.5900   49.8640 C   0  0  0  0  0  0  0  0  0  0  0  0
   64.8710   32.0630   50.0830 C   0  0  0  0  0  0  0  0  0  0  0  0
   65.0900   31.1200   51.0900 C   0  0  0  0  0  0  0  0  0  0  0  0
   64.0360   30.7050   51.9020 C   0  0  0  0  0  0  0  0  0  0  0  0
   62.7560   31.2280   51.7080 C   0  0  0  0  0  0  0  0  0  0  0  0
   62.5140   32.1620   50.6890 C   0  0  0  0  0  0  0  0  0  0  0  0
   61.1380   32.6710   50.5180 C   0  0  0  0  0  0  0  0  0  0  0  0
   60.9160   33.8920   50.7430 O   0  0  0  0  0  0  0  0  0  0  0  0
   60.0490   31.7950   50.1540 N   0  0  0  0  0  0  0  0  0  0  0  0
   58.7490   32.3430   49.7590 C   0  0  0  0  0  0  0  0  0  0  0  0
   57.7740   32.2170   50.9320 C   0  0  0  0  0  0  0  0  0  0  0  0
   57.7960   30.8470   51.4790 N   0  0  0  0  0  0  0  0  0  0  0  0
   56.6040   30.2730   52.0560 C   0  0  0  0  0  0  0  0  0  0  0  0
   56.5230   29.0250   52.2170 O   0  0  0  0  0  0  0  0  0  0  0  0
   55.4260   31.1240   52.4420 C   0  0  0  0  0  0  0  0  0  0  0  0
   54.1480   30.8380   51.6660 C   0  0  0  0  0  0  0  0  0  0  0  0
   54.2850   30.3650   53.1000 C   0  0  0  0  0  0  0  0  0  0  0  0
   59.0980   30.2160   51.7530 C   0  0  0  0  0  0  0  0  0  0  0  0
   60.0410   30.3850   50.5600 C   0  0  0  0  0  0  0  0  0  0  0  0
   60.3210   32.8500   46.6410 C   0  0  0  0  0  0  0  0  0  0  0  0
   59.7920   34.1110   46.3110 C   0  0  0  0  0  0  0  0  0  0  0  0
   58.5170   34.2220   45.7570 C   0  0  0  0  0  0  0  0  0  0  0  0
   57.7600   33.0770   45.5100 C   0  0  0  0  0  0  0  0  0  0  0  0
   58.2760   31.8170   45.8160 C   0  0  0  0  0  0  0  0  0  0  0  0
   59.5520   31.6840   46.3910 C   0  0  0  0  0  0  0  0  0  0  0  0
   60.2000   30.0590   46.6910 S   0  0  0  0  0  0  0  0  0  0  0  0
   61.1410   29.7160   45.5690 O   0  0  0  0  0  0  0  0  0  0  0  0
   60.9570   30.0490   47.9910 O   0  0  0  0  0  0  0  0  0  0  0  0
   58.9080   28.8790   46.7490 N   0  0  0  0  0  0  0  0  0  0  0  0
   59.3910   27.6120   47.3210 C   0  0  0  0  0  0  0  0  0  0  0  0
   58.2140   26.6220   47.4430 C   0  0  0  0  0  0  0  0  0  0  0  0
   57.0850   27.0140   46.6750 O   0  0  0  0  0  0  0  0  0  0  0  0
   57.4870   27.3770   45.3690 C   0  0  0  0  0  0  0  0  0  0  0  0
   58.3670   28.6430   45.3980 C   0  0  0  0  0  0  0  0  0  0  0  0
   61.3350   34.3310   48.6550 H   0  0  0  0  0  0  0  0  0  0  0  0
   64.1220   33.5149   48.0070 H   0  0  0  0  0  0  0  0  0  0  0  0
   63.5872   34.6528   49.3016 H   0  0  0  0  0  0  0  0  0  0  0  0
   65.7111   32.3964   49.4560 H   0  0  0  0  0  0  0  0  0  0  0  0
   66.0968   30.7039   51.2425 H   0  0  0  0  0  0  0  0  0  0  0  0
   64.2127   29.9649   52.6963 H   0  0  0  0  0  0  0  0  0  0  0  0
   61.9304   30.9052   52.3593 H   0  0  0  0  0  0  0  0  0  0  0  0
   58.8633   33.4028   49.4875 H   0  0  0  0  0  0  0  0  0  0  0  0
   58.3604   31.7867   48.8932 H   0  0  0  0  0  0  0  0  0  0  0  0
   58.0639   32.9263   51.7212 H   0  0  0  0  0  0  0  0  0  0  0  0
   56.7579   32.4406   50.5749 H   0  0  0  0  0  0  0  0  0  0  0  0
   56.0070   32.0266   52.6823 H   0  0  0  0  0  0  0  0  0  0  0  0
   53.4579   31.6589   51.4213 H   0  0  0  0  0  0  0  0  0  0  0  0
   53.9126   30.3540   50.7067 H   0  0  0  0  0  0  0  0  0  0  0  0
   53.6936   30.8427   53.8951 H   0  0  0  0  0  0  0  0  0  0  0  0
   54.1895   29.3954   53.6106 H   0  0  0  0  0  0  0  0  0  0  0  0
   59.5484   30.6869   52.6392 H   0  0  0  0  0  0  0  0  0  0  0  0
   58.9407   29.1419   51.9309 H   0  0  0  0  0  0  0  0  0  0  0  0
   61.0576   30.0780   50.8469 H   0  0  0  0  0  0  0  0  0  0  0  0
   59.6978   29.7590   49.7231 H   0  0  0  0  0  0  0  0  0  0  0  0
   60.3890   35.0171   46.4914 H   0  0  0  0  0  0  0  0  0  0  0  0
   58.1079   35.2139   45.5145 H   0  0  0  0  0  0  0  0  0  0  0  0
   56.7545   33.1672   45.0732 H   0  0  0  0  0  0  0  0  0  0  0  0
   57.6779   30.9182   45.6050 H   0  0  0  0  0  0  0  0  0  0  0  0
   60.1636   27.1843   46.6651 H   0  0  0  0  0  0  0  0  0  0  0  0
   59.8185   27.7984   48.3172 H   0  0  0  0  0  0  0  0  0  0  0  0
   58.5488   25.6331   47.0967 H   0  0  0  0  0  0  0  0  0  0  0  0
   57.9061   26.6010   48.4988 H   0  0  0  0  0  0  0  0  0  0  0  0
   58.0602   26.5496   44.9252 H   0  0  0  0  0  0  0  0  0  0  0  0
   56.5888   27.5860   44.7693 H   0  0  0  0  0  0  0  0  0  0  0  0
   59.2019   28.5170   44.6930 H   0  0  0  0  0  0  0  0  0  0  0  0
   57.7485   29.5066   45.1122 H   0  0  0  0  0  0  0  0  0  0  0  0
  1  2  2  0
  2  3  1  0
  3  4  1  0
  4  5  1  0
  5  6  2  0
  6  7  1  0
  7  8  2  0
  8  9  1  0
  9 10  2  0
 10 11  1  0
 11 12  2  0
 11 13  1  0
 13 14  1  0
 14 15  1  0
 15 16  1  0
 16 17  1  0
 17 18  2  0
 17 19  1  0
 19 20  1  0
 20 21  1  0
 16 22  1  0
 22 23  1  0
  2 24  1  0
 24 25  2  0
 25 26  1  0
 26 27  2  0
 27 28  1  0
 28 29  2  0
 29 30  1  0
 30 31  2  0
 30 32  2  0
 30 33  1  0
 33 34  1  0
 34 35  1  0
 35 36  1  0
 36 37  1  0
 37 38  1  0
 10  5  1  0
 23 13  1  0
 29 24  1  0
 38 33  1  0
 21 19  1  0
  3 39  1  0
  4 40  1  0
  4 41  1  0
  6 42  1  0
  7 43  1  0
  8 44  1  0
  9 45  1  0
 14 46  1  0
 14 47  1  0
 15 48  1  0
 15 49  1  0
 19 50  1  0
 20 51  1  0
 20 52  1  0
 21 53  1  0
 21 54  1  0
 22 55  1  0
 22 56  1  0
 23 57  1  0
 23 58  1  0
 25 59  1  0
 26 60  1  0
 27 61  1  0
 28 62  1  0
 34 63  1  0
 34 64  1  0
 35 65  1  0
 35 66  1  0
 37 67  1  0
 37 68  1  0
 38 69  1  0
 38 70  1  0
M  END
>  <UniqueID>  (70) 
68

>  <SMILES>  (70) 
O=C(NCc1ccccc1C(=O)N1CCN(C(=O)C2CC2)CC1)c1ccccc1S(=O)(=O)N1CCOCC1

>  <Energy>  (70) 
358.101601675696

>  <Genealogy>  (70) 
O=C(NCc1ccccc1C(=O)N1CCN(C(=O)C2CC2)CC1)c1ccccc1S(=O)(=O)N1CCOCC1 (3D coordinates assigned)
O=C(NCc1ccccc1C(=O)N1CCN(C(=O)C2CC2)CC1)c1ccccc1S(=O)(=O)N1CCOCC1 (nonaromatic ring conformer: 358.101601675696 kcal/mol)

>  <smiles>  (70) 
O=C(NCc1ccccc1C(=O)N1CCN(C(=O)C2CC2)CC1)c1ccccc1S(=O)(=O)N1CCOCC1

>  <score_type>  (70) 
oracle

>  <origin>  (70) 
adg

>  <m_score__min__energy>  (70) 
-9.5999999999999996

>  <m_primary>  (70) 
energy

$$$$
70:0
     RDKit          3D

 46 47  0  0  0  0  0  0  0  0999 V2000
   59.7660   28.3840   48.3310 C   0  0  0  0  0  0  0  0  0  0  0  0
   59.4260   27.3680   47.5410 C   0  0  0  0  0  0  0  0  0  0  0  0
   59.3890   27.4760   46.0570 C   0  0  0  0  0  0  0  0  0  0  0  0
   58.2950   28.3270   45.6220 N   0  0  0  0  0  0  0  0  0  0  0  0
   58.4990   29.6470   45.4070 C   0  0  0  0  0  0  0  0  0  0  0  0
   59.8120   30.1230   45.6230 N   0  0  0  0  0  0  0  0  0  0  0  0
   57.4450   30.4880   44.9850 C   0  0  0  0  0  0  0  0  0  0  0  0
   57.7490   31.8570   44.8040 C   0  0  0  0  0  0  0  0  0  0  0  0
   58.5060   32.1080   43.7560 O   0  0  0  0  0  0  0  0  0  0  0  0
   57.4120   33.0850   45.5170 C   0  0  0  0  0  0  0  0  0  0  0  0
   58.6380   34.3150   45.8230 S   0  0  0  0  0  0  0  0  0  0  0  0
   60.0110   33.6580   46.7640 C   0  0  0  0  0  0  0  0  0  0  0  0
   60.5900   32.4900   46.4290 N   0  0  0  0  0  0  0  0  0  0  0  0
   61.6370   31.9970   47.1550 C   0  0  0  0  0  0  0  0  0  0  0  0
   62.1350   30.8900   46.7840 O   0  0  0  0  0  0  0  0  0  0  0  0
   62.1290   32.6800   48.2460 C   0  0  0  0  0  0  0  0  0  0  0  0
   63.2640   32.1500   49.0370 C   0  0  0  0  0  0  0  0  0  0  0  0
   62.8310   31.9270   50.4850 C   0  0  0  0  0  0  0  0  0  0  0  0
   64.4440   33.0900   49.0820 C   0  0  0  0  0  0  0  0  0  0  0  0
   61.5130   33.8860   48.5710 C   0  0  0  0  0  0  0  0  0  0  0  0
   61.9380   34.6310   49.6420 O   0  0  0  0  0  0  0  0  0  0  0  0
   60.4830   34.3350   47.8270 N   0  0  0  0  0  0  0  0  0  0  0  0
   56.2470   29.8450   44.8270 C   0  0  0  0  0  0  0  0  0  0  0  0
   55.2250   30.4470   44.4650 O   0  0  0  0  0  0  0  0  0  0  0  0
   56.0850   28.5060   45.0550 N   0  0  0  0  0  0  0  0  0  0  0  0
   57.1040   27.7420   45.4520 C   0  0  0  0  0  0  0  0  0  0  0  0
   56.9570   26.5230   45.6600 O   0  0  0  0  0  0  0  0  0  0  0  0
   59.7775   28.2517   49.4230 H   0  0  0  0  0  0  0  0  0  0  0  0
   60.0355   29.3559   47.8919 H   0  0  0  0  0  0  0  0  0  0  0  0
   59.1608   26.4066   48.0052 H   0  0  0  0  0  0  0  0  0  0  0  0
   60.3391   27.9036   45.7041 H   0  0  0  0  0  0  0  0  0  0  0  0
   59.2380   26.4706   45.6370 H   0  0  0  0  0  0  0  0  0  0  0  0
   60.5500   29.6060   46.1180 H   0  0  0  0  0  0  0  0  0  0  0  0
   60.0310   31.0830   45.2390 H   0  0  0  0  0  0  0  0  0  0  0  0
   56.6136   33.5742   44.9397 H   0  0  0  0  0  0  0  0  0  0  0  0
   57.1709   32.7230   46.5274 H   0  0  0  0  0  0  0  0  0  0  0  0
   63.5638   31.2155   48.5402 H   0  0  0  0  0  0  0  0  0  0  0  0
   63.6010   32.3235   51.1632 H   0  0  0  0  0  0  0  0  0  0  0  0
   61.8789   32.4469   50.6672 H   0  0  0  0  0  0  0  0  0  0  0  0
   62.7014   30.8500   50.6672 H   0  0  0  0  0  0  0  0  0  0  0  0
   64.7065   33.2991   50.1296 H   0  0  0  0  0  0  0  0  0  0  0  0
   65.3024   32.6255   48.5746 H   0  0  0  0  0  0  0  0  0  0  0  0
   64.1831   34.0305   48.5746 H   0  0  0  0  0  0  0  0  0  0  0  0
   62.0010   34.3070   50.5920 H   0  0  0  0  0  0  0  0  0  0  0  0
   60.0060   35.2380   48.0540 H   0  0  0  0  0  0  0  0  0  0  0  0
   55.1520   28.0480   44.9200 H   0  0  0  0  0  0  0  0  0  0  0  0
  1  2  2  0
  2  3  1  0
  3  4  1  0
  4  5  1  0
  5  6  1  0
  5  7  2  0
  7  8  1  0
  8  9  2  0
  8 10  1  0
 10 11  1  0
 11 12  1  0
 12 13  2  0
 13 14  1  0
 14 15  2  0
 14 16  1  0
 16 17  1  0
 17 18  1  0
 17 19  1  0
 16 20  2  0
 20 21  1  0
 20 22  1  0
  7 23  1  0
 23 24  2  0
 23 25  1  0
 25 26  1  0
 26 27  2  0
 26  4  1  0
 22 12  1  0
  1 28  1  0
  1 29  1  0
  2 30  1  0
  3 31  1  0
  3 32  1  0
  6 33  1  0
  6 34  1  0
 10 35  1  0
 10 36  1  0
 17 37  1  0
 18 38  1  0
 18 39  1  0
 18 40  1  0
 19 41  1  0
 19 42  1  0
 19 43  1  0
 21 44  1  0
 22 45  1  0
 25 46  1  0
M  END
>  <smiles>  (71) 
C=CCn1c(N)c(C(=O)CSc2nc(=O)c(C(C)C)c(O)[nH]2)c(=O)[nH]c1=O

>  <score_type>  (71) 
oracle

>  <origin>  (71) 
adg

>  <m_score__min__energy>  (71) 
-7.8300000000000001

>  <m_primary>  (71) 
energy

$$$$
71:0
     RDKit          3D

 58 61  0  0  0  0  0  0  0  0999 V2000
   58.1730   22.2930   44.2700 C   0  0  0  0  0  0  0  0  0  0  0  0
   56.9740   22.6210   43.4510 C   0  0  0  0  0  0  0  0  0  0  0  0
   56.0470   21.7730   43.3450 O   0  0  0  0  0  0  0  0  0  0  0  0
   56.8450   23.9060   42.9060 O   0  0  0  0  0  0  0  0  0  0  0  0
   57.2960   25.0910   43.5080 C   0  0  0  0  0  0  0  0  0  0  0  0
   57.2600   25.2930   44.8980 C   0  0  0  0  0  0  0  0  0  0  0  0
   57.7330   26.4870   45.4510 C   0  0  0  0  0  0  0  0  0  0  0  0
   58.2320   27.5100   44.6250 C   0  0  0  0  0  0  0  0  0  0  0  0
   58.7850   28.7590   45.2070 C   0  0  0  0  0  0  0  0  0  0  0  0
   59.2500   28.7510   46.3800 O   0  0  0  0  0  0  0  0  0  0  0  0
   58.8120   29.9780   44.4460 N   0  0  0  0  0  0  0  0  0  0  0  0
   58.5460   31.2730   45.0130 C   0  0  0  0  0  0  0  0  0  0  0  0
   57.7140   32.1690   44.3230 C   0  0  0  0  0  0  0  0  0  0  0  0
   57.3920   33.4070   44.8810 C   0  0  0  0  0  0  0  0  0  0  0  0
   57.8800   33.7590   46.1400 C   0  0  0  0  0  0  0  0  0  0  0  0
   58.6950   32.8710   46.8550 C   0  0  0  0  0  0  0  0  0  0  0  0
   59.1990   33.2270   48.1960 C   0  0  0  0  0  0  0  0  0  0  0  0
   60.0080   34.1870   48.3080 O   0  0  0  0  0  0  0  0  0  0  0  0
   58.8000   32.4880   49.3670 N   0  0  0  0  0  0  0  0  0  0  0  0
   58.5990   31.0320   49.2630 C   0  0  0  0  0  0  0  0  0  0  0  0
   58.6320   30.3610   50.6390 C   0  0  0  0  0  0  0  0  0  0  0  0
   57.7640   31.0930   51.5660 N   0  0  0  0  0  0  0  0  0  0  0  0
   56.8310   30.3840   52.3970 C   0  0  0  0  0  0  0  0  0  0  0  0
   57.2830   29.4220   53.3140 C   0  0  0  0  0  0  0  0  0  0  0  0
   56.3710   28.7330   54.1180 C   0  0  0  0  0  0  0  0  0  0  0  0
   55.0040   29.0050   54.0190 C   0  0  0  0  0  0  0  0  0  0  0  0
   54.5470   29.9660   53.1150 C   0  0  0  0  0  0  0  0  0  0  0  0
   55.4550   30.6510   52.3020 C   0  0  0  0  0  0  0  0  0  0  0  0
   57.8350   32.5600   51.6410 C   0  0  0  0  0  0  0  0  0  0  0  0
   58.8920   33.1290   50.6880 C   0  0  0  0  0  0  0  0  0  0  0  0
   59.0350   31.6340   46.2840 C   0  0  0  0  0  0  0  0  0  0  0  0
   58.2370   27.3130   43.2330 C   0  0  0  0  0  0  0  0  0  0  0  0
   57.7660   26.1180   42.6830 C   0  0  0  0  0  0  0  0  0  0  0  0
   57.9180   22.3628   45.3378 H   0  0  0  0  0  0  0  0  0  0  0  0
   58.5065   21.2706   44.0387 H   0  0  0  0  0  0  0  0  0  0  0  0
   58.9805   23.0032   44.0387 H   0  0  0  0  0  0  0  0  0  0  0  0
   56.8576   24.5076   45.5547 H   0  0  0  0  0  0  0  0  0  0  0  0
   57.7146   26.6274   46.5418 H   0  0  0  0  0  0  0  0  0  0  0  0
   59.0600   29.9200   43.4350 H   0  0  0  0  0  0  0  0  0  0  0  0
   57.3134   31.8935   43.3363 H   0  0  0  0  0  0  0  0  0  0  0  0
   56.7510   34.1080   44.3262 H   0  0  0  0  0  0  0  0  0  0  0  0
   57.6240   34.7373   46.5729 H   0  0  0  0  0  0  0  0  0  0  0  0
   57.6228   30.8386   48.7944 H   0  0  0  0  0  0  0  0  0  0  0  0
   59.4150   30.6136   48.6554 H   0  0  0  0  0  0  0  0  0  0  0  0
   58.2780   29.3234   50.5485 H   0  0  0  0  0  0  0  0  0  0  0  0
   59.6628   30.3672   51.0229 H   0  0  0  0  0  0  0  0  0  0  0  0
   58.3589   29.2098   53.4000 H   0  0  0  0  0  0  0  0  0  0  0  0
   56.7299   27.9752   54.8300 H   0  0  0  0  0  0  0  0  0  0  0  0
   54.2879   28.4620   54.6533 H   0  0  0  0  0  0  0  0  0  0  0  0
   53.4713   30.1844   53.0424 H   0  0  0  0  0  0  0  0  0  0  0  0
   55.0907   31.4018   51.5853 H   0  0  0  0  0  0  0  0  0  0  0  0
   56.8532   32.9780   51.3740 H   0  0  0  0  0  0  0  0  0  0  0  0
   58.1168   32.8363   52.6678 H   0  0  0  0  0  0  0  0  0  0  0  0
   58.7319   34.2115   50.5760 H   0  0  0  0  0  0  0  0  0  0  0  0
   59.8894   32.9322   51.1079 H   0  0  0  0  0  0  0  0  0  0  0  0
   59.6887   30.9409   46.8338 H   0  0  0  0  0  0  0  0  0  0  0  0
   58.6149   28.1063   42.5713 H   0  0  0  0  0  0  0  0  0  0  0  0
   57.7648   25.9837   41.5912 H   0  0  0  0  0  0  0  0  0  0  0  0
  1  2  1  0
  2  3  2  0
  2  4  1  0
  4  5  1  0
  5  6  2  0
  6  7  1  0
  7  8  2  0
  8  9  1  0
  9 10  2  0
  9 11  1  0
 11 12  1  0
 12 13  2  0
 13 14  1  0
 14 15  2  0
 15 16  1  0
 16 17  1  0
 17 18  2  0
 17 19  1  0
 19 20  1  0
 20 21  1  0
 21 22  1  0
 22 23  1  0
 23 24  2  0
 24 25  1  0
 25 26  2  0
 26 27  1  0
 27 28  2  0
 22 29  1  0
 29 30  1  0
 16 31  2  0
  8 32  1  0
 32 33  2  0
 33  5  1  0
 31 12  1  0
 30 19  1  0
 28 23  1  0
  1 34  1  0
  1 35  1  0
  1 36  1  0
  6 37  1  0
  7 38  1  0
 11 39  1  0
 13 40  1  0
 14 41  1  0
 15 42  1  0
 20 43  1  0
 20 44  1  0
 21 45  1  0
 21 46  1  0
 24 47  1  0
 25 48  1  0
 26 49  1  0
 27 50  1  0
 28 51  1  0
 29 52  1  0
 29 53  1  0
 30 54  1  0
 30 55  1  0
 31 56  1  0
 32 57  1  0
 33 58  1  0
M  END
>  <UniqueID>  (72) 
69

>  <SMILES>  (72) 
CC(=O)Oc1ccc(C(=O)Nc2cccc(C(=O)N3CCN(c4ccccc4)CC3)c2)cc1

>  <Energy>  (72) 
80.18910878184414

>  <Genealogy>  (72) 
CC(=O)Oc1ccc(C(=O)Nc2cccc(C(=O)N3CCN(c4ccccc4)CC3)c2)cc1 (3D coordinates assigned)
CC(=O)Oc1ccc(C(=O)Nc2cccc(C(=O)N3CCN(c4ccccc4)CC3)c2)cc1 (nonaromatic ring conformer: 80.18910878184414 kcal/mol)

>  <smiles>  (72) 
CC(=O)Oc1ccc(C(=O)Nc2cccc(C(=O)N3CCN(c4ccccc4)CC3)c2)cc1

>  <score_type>  (72) 
oracle

>  <origin>  (72) 
adg

>  <m_score__min__energy>  (72) 
-9.4299999999999997

>  <m_primary>  (72) 
energy

$$$$
72:0
     RDKit          3D

 32 34  0  0  0  0  0  0  0  0999 V2000
   60.5701   26.3531   46.5775 H   0  0  0  0  0  0  0  0  0  0  0  0
   60.7540   27.3960   46.2800 C   0  0  0  0  0  0  0  0  0  0  0  0
   61.7651   27.7139   45.9858 H   0  0  0  0  0  0  0  0  0  0  0  0
   59.7500   28.2760   46.2760 C   0  0  0  0  0  0  0  0  0  0  0  0
   59.9350   29.5300   45.9260 O   0  0  0  0  0  0  0  0  0  0  0  0
   58.7820   30.1570   45.9450 C   0  0  0  0  0  0  0  0  0  0  0  0
   58.6150   31.5820   45.5860 C   0  0  0  0  0  0  0  0  0  0  0  0
   59.1810   32.5870   46.4030 C   0  0  0  0  0  0  0  0  0  0  0  0
   60.1330   32.1970   47.8340 Cl  0  0  0  0  0  0  0  0  0  0  0  0
   59.0290   33.9360   46.0640 C   0  0  0  0  0  0  0  0  0  0  0  0
   59.4766   34.7139   46.7000 H   0  0  0  0  0  0  0  0  0  0  0  0
   58.3130   34.2990   44.9240 C   0  0  0  0  0  0  0  0  0  0  0  0
   58.2003   35.3612   44.6613 H   0  0  0  0  0  0  0  0  0  0  0  0
   57.7400   33.3180   44.1170 C   0  0  0  0  0  0  0  0  0  0  0  0
   57.1730   33.6111   43.2211 H   0  0  0  0  0  0  0  0  0  0  0  0
   57.8800   31.9640   44.4370 C   0  0  0  0  0  0  0  0  0  0  0  0
   57.0540   30.7900   43.4170 Cl  0  0  0  0  0  0  0  0  0  0  0  0
   57.7780   29.2840   46.3190 C   0  0  0  0  0  0  0  0  0  0  0  0
   56.7049   29.5100   46.4046 H   0  0  0  0  0  0  0  0  0  0  0  0
   58.3920   28.0700   46.5640 C   0  0  0  0  0  0  0  0  0  0  0  0
   57.7290   26.9800   46.9910 C   0  0  0  0  0  0  0  0  0  0  0  0
   57.4789   26.9283   48.0609 H   0  0  0  0  0  0  0  0  0  0  0  0
   57.3100   25.8490   46.1430 C   0  0  0  0  0  0  0  0  0  0  0  0
   55.9960   25.7550   45.6570 C   0  0  0  0  0  0  0  0  0  0  0  0
   55.0470   26.7140   46.0010 O   0  0  0  0  0  0  0  0  0  0  0  0
   55.6440   24.7240   44.8430 N   0  0  0  0  0  0  0  0  0  0  0  0
   54.6590   24.6630   44.4980 H   0  0  0  0  0  0  0  0  0  0  0  0
   56.5560   23.7850   44.4730 C   0  0  0  0  0  0  0  0  0  0  0  0
   56.1230   22.5490   43.4920 S   0  0  0  0  0  0  0  0  0  0  0  0
   57.8390   23.8740   44.9100 N   0  0  0  0  0  0  0  0  0  0  0  0
   58.2360   24.8830   45.7250 C   0  0  0  0  0  0  0  0  0  0  0  0
   59.4370   24.9370   46.1060 O   0  0  0  0  0  0  0  0  0  0  0  0
  1  2  1  0
  2  3  1  0
  2  4  2  0
  4  5  1  0
  5  6  1  0
  6  7  1  0
  7  8  2  0
  8  9  1  0
  8 10  1  0
 10 11  1  0
 10 12  2  0
 12 13  1  0
 12 14  1  0
 14 15  1  0
 14 16  2  0
 16 17  1  0
  6 18  2  0
 18 19  1  0
 18 20  1  0
 20 21  2  0
 21 22  1  0
 21 23  1  0
 23 24  2  0
 24 25  1  0
 24 26  1  0
 26 27  1  0
 26 28  1  0
 28 29  2  0
 28 30  1  0
 30 31  1  0
 31 32  2  0
 20  4  1  0
 31 23  1  0
 16  7  1  0
M  CHG  2  25  -1  30  -1
M  END
>  <UniqueID>  (73) 
70

>  <SMILES>  (73) 
C=c1oc(-c2c(Cl)cccc2Cl)c/c1=C/c1c([O-])[nH]c(=S)[n-]c1=O

>  <Energy>  (73) 
83.56249174781152

>  <Genealogy>  (73) 
C=c1oc(-c2c(Cl)cccc2Cl)cc1=Cc1c([O-])[nH]c(=S)[n-]c1=O (protonated)
C=c1oc(-c2c(Cl)cccc2Cl)c/c1=C/c1c([O-])[nH]c(=S)[n-]c1=O (cis-trans isomerization)
C=c1oc(-c2c(Cl)cccc2Cl)c/c1=C/c1c([O-])[nH]c(=S)[n-]c1=O (3D coordinates assigned)
C=c1oc(-c2c(Cl)cccc2Cl)c/c1=C/c1c([O-])[nH]c(=S)[n-]c1=O (optimized conformer: 83.56249174781152 kcal/mol)

>  <smiles>  (73) 
C=c1oc(-c2c(Cl)cccc2Cl)cc1=Cc1c(O)[nH]c(=S)[nH]c1=O

>  <score_type>  (73) 
oracle

>  <origin>  (73) 
adg

>  <m_score__min__energy>  (73) 
-13.529999999999999

>  <m_primary>  (73) 
energy

$$$$
73:0
     RDKit          3D

 47 49  0  0  0  0  0  0  0  0999 V2000
   59.6600   34.9850   46.9720 C   0  0  0  0  0  0  0  0  0  0  0  0
   59.9180   34.2060   45.8090 O   0  0  0  0  0  0  0  0  0  0  0  0
   59.0920   33.1680   45.3500 C   0  0  0  0  0  0  0  0  0  0  0  0
   58.3650   33.2650   44.1480 C   0  0  0  0  0  0  0  0  0  0  0  0
   57.5290   32.2200   43.7400 C   0  0  0  0  0  0  0  0  0  0  0  0
   57.4010   31.0710   44.5290 C   0  0  0  0  0  0  0  0  0  0  0  0
   56.3370   29.7650   44.0150 S   0  0  0  0  0  0  0  0  0  0  0  0
   57.1880   28.2630   44.1050 N   0  0  0  0  0  0  0  0  0  0  0  0
   55.1240   29.7130   44.8990 O   0  0  0  0  0  0  0  0  0  0  0  0
   55.8920   30.0060   42.6000 O   0  0  0  0  0  0  0  0  0  0  0  0
   58.1310   30.9650   45.7200 C   0  0  0  0  0  0  0  0  0  0  0  0
   58.9720   32.0060   46.1300 C   0  0  0  0  0  0  0  0  0  0  0  0
   59.6430   31.9180   47.3860 N   0  0  0  0  0  0  0  0  0  0  0  0
   60.6650   30.5640   47.7270 S   0  0  0  0  0  0  0  0  0  0  0  0
   60.9280   30.5040   49.2070 O   0  0  0  0  0  0  0  0  0  0  0  0
   61.9770   30.7210   47.0100 O   0  0  0  0  0  0  0  0  0  0  0  0
   59.8610   29.0860   47.2020 C   0  0  0  0  0  0  0  0  0  0  0  0
   60.3730   28.3350   46.1400 C   0  0  0  0  0  0  0  0  0  0  0  0
   59.7780   27.1230   45.7810 C   0  0  0  0  0  0  0  0  0  0  0  0
   58.6540   26.6370   46.4810 C   0  0  0  0  0  0  0  0  0  0  0  0
   58.0400   25.3810   46.1100 N   0  0  0  0  0  0  0  0  0  0  0  0
   58.7250   24.3090   45.3900 C   0  0  0  0  0  0  0  0  0  0  0  0
   57.8000   23.0740   45.3150 C   0  0  0  0  0  0  0  0  0  0  0  0
   56.3320   23.4940   45.4450 C   0  0  0  0  0  0  0  0  0  0  0  0
   56.3780   25.0080   46.3400 S   0  0  0  0  0  0  0  0  0  0  0  0
   56.0570   24.8020   47.7950 O   0  0  0  0  0  0  0  0  0  0  0  0
   55.4830   26.0430   45.7170 O   0  0  0  0  0  0  0  0  0  0  0  0
   58.1500   27.4020   47.5520 C   0  0  0  0  0  0  0  0  0  0  0  0
   58.7470   28.6140   47.9060 C   0  0  0  0  0  0  0  0  0  0  0  0
   59.8600   34.3813   47.8695 H   0  0  0  0  0  0  0  0  0  0  0  0
   60.3129   35.8703   46.9726 H   0  0  0  0  0  0  0  0  0  0  0  0
   58.6077   35.3055   46.9726 H   0  0  0  0  0  0  0  0  0  0  0  0
   58.4549   34.1678   43.5260 H   0  0  0  0  0  0  0  0  0  0  0  0
   56.9704   32.3017   42.7959 H   0  0  0  0  0  0  0  0  0  0  0  0
   57.1710   27.8420   43.1480 H   0  0  0  0  0  0  0  0  0  0  0  0
   56.6300   27.6330   44.7240 H   0  0  0  0  0  0  0  0  0  0  0  0
   58.0427   30.0583   46.3366 H   0  0  0  0  0  0  0  0  0  0  0  0
   61.2490   28.7002   45.5840 H   0  0  0  0  0  0  0  0  0  0  0  0
   60.1905   26.5414   44.9434 H   0  0  0  0  0  0  0  0  0  0  0  0
   58.9697   24.6475   44.3724 H   0  0  0  0  0  0  0  0  0  0  0  0
   59.6527   24.0437   45.9182 H   0  0  0  0  0  0  0  0  0  0  0  0
   57.9479   22.5692   44.3489 H   0  0  0  0  0  0  0  0  0  0  0  0
   58.0494   22.3922   46.1414 H   0  0  0  0  0  0  0  0  0  0  0  0
   55.8820   23.6437   44.4525 H   0  0  0  0  0  0  0  0  0  0  0  0
   55.7238   22.7298   45.9510 H   0  0  0  0  0  0  0  0  0  0  0  0
   57.2770   27.0406   48.1152 H   0  0  0  0  0  0  0  0  0  0  0  0
   58.3396   29.2008   48.7425 H   0  0  0  0  0  0  0  0  0  0  0  0
  1  2  1  0
  2  3  1  0
  3  4  2  0
  4  5  1  0
  5  6  2  0
  6  7  1  0
  7  8  1  0
  7  9  2  0
  7 10  2  0
  6 11  1  0
 11 12  2  0
 12 13  1  0
 13 14  1  0
 14 15  2  0
 14 16  2  0
 14 17  1  0
 17 18  2  0
 18 19  1  0
 19 20  2  0
 20 21  1  0
 21 22  1  0
 22 23  1  0
 23 24  1  0
 24 25  1  0
 25 26  2  0
 25 27  2  0
 20 28  1  0
 28 29  2  0
 12  3  1  0
 29 17  1  0
 25 21  1  0
  1 30  1  0
  1 31  1  0
  1 32  1  0
  4 33  1  0
  5 34  1  0
  8 35  1  0
  8 36  1  0
 11 37  1  0
 18 38  1  0
 19 39  1  0
 22 40  1  0
 22 41  1  0
 23 42  1  0
 23 43  1  0
 24 44  1  0
 24 45  1  0
 28 46  1  0
 29 47  1  0
M  CHG  1  13  -1
M  END
>  <UniqueID>  (74) 
71

>  <SMILES>  (74) 
COc1ccc(S(N)(=O)=O)cc1[N-]S(=O)(=O)c1ccc(N2CCCS2(=O)=O)cc1

>  <Energy>  (74) 
60.956129076325766

>  <Genealogy>  (74) 
COc1ccc(S(N)(=O)=O)cc1[N-]S(=O)(=O)c1ccc(N2CCCS2(=O)=O)cc1 (protonated)
COc1ccc(S(N)(=O)=O)cc1[N-]S(=O)(=O)c1ccc(N2CCCS2(=O)=O)cc1 (3D coordinates assigned)
COc1ccc(S(N)(=O)=O)cc1[N-]S(=O)(=O)c1ccc(N2CCCS2(=O)=O)cc1 (nonaromatic ring conformer: 60.956129076325766 kcal/mol)

>  <smiles>  (74) 
COc1ccc(S(N)(=O)=O)cc1NS(=O)(=O)c1ccc(N2CCCS2(=O)=O)cc1

>  <score_type>  (74) 
oracle

>  <origin>  (74) 
adg

>  <m_score__min__energy>  (74) 
-10.65

>  <m_primary>  (74) 
energy

$$$$
74:0
     RDKit          3D

 46 48  0  0  0  0  0  0  0  0999 V2000
   57.8378   28.5227   43.3607 H   0  0  0  0  0  0  0  0  0  0  0  0
   57.2390   28.9210   44.1930 C   0  0  0  0  0  0  0  0  0  0  0  0
   57.0410   28.0830   45.3960 C   0  0  0  0  0  0  0  0  0  0  0  0
   55.9230   27.5440   45.6140 O   0  0  0  0  0  0  0  0  0  0  0  0
   58.1240   27.8080   46.2940 N   0  0  0  0  0  0  0  0  0  0  0  0
   59.0300   28.7710   46.8490 C   0  0  0  0  0  0  0  0  0  0  0  0
   60.1340   29.2490   46.1230 C   0  0  0  0  0  0  0  0  0  0  0  0
   60.3288   28.8699   45.1089 H   0  0  0  0  0  0  0  0  0  0  0  0
   60.9860   30.2050   46.6850 C   0  0  0  0  0  0  0  0  0  0  0  0
   61.8591   30.5593   46.1174 H   0  0  0  0  0  0  0  0  0  0  0  0
   60.7350   30.7160   47.9690 C   0  0  0  0  0  0  0  0  0  0  0  0
   61.6240   31.6860   48.5570 N   0  0  0  0  0  0  0  0  0  0  0  0
   63.0780   31.5170   48.4460 C   0  0  0  0  0  0  0  0  0  0  0  0
   63.3223   31.1402   47.4418 H   0  0  0  0  0  0  0  0  0  0  0  0
   63.4109   30.8021   49.2128 H   0  0  0  0  0  0  0  0  0  0  0  0
   63.7990   32.8570   48.6720 C   0  0  0  0  0  0  0  0  0  0  0  0
   64.7970   32.8060   48.2122 H   0  0  0  0  0  0  0  0  0  0  0  0
   63.8707   33.0273   49.7564 H   0  0  0  0  0  0  0  0  0  0  0  0
   63.0560   33.9890   48.0780 N   0  0  0  0  0  0  0  0  0  0  0  0
   63.0460   33.9260   46.6070 C   0  0  0  0  0  0  0  0  0  0  0  0
   62.8811   32.8870   46.2856 H   0  0  0  0  0  0  0  0  0  0  0  0
   62.2377   34.5627   46.2182 H   0  0  0  0  0  0  0  0  0  0  0  0
   64.0118   34.2812   46.2182 H   0  0  0  0  0  0  0  0  0  0  0  0
   61.6860   34.1510   48.6330 C   0  0  0  0  0  0  0  0  0  0  0  0
   61.0184   34.4709   47.8194 H   0  0  0  0  0  0  0  0  0  0  0  0
   61.7546   34.8949   49.4404 H   0  0  0  0  0  0  0  0  0  0  0  0
   61.1090   32.8660   49.2570 C   0  0  0  0  0  0  0  0  0  0  0  0
   60.0120   32.8850   49.1780 H   0  0  0  0  0  0  0  0  0  0  0  0
   61.4094   32.8149   50.3139 H   0  0  0  0  0  0  0  0  0  0  0  0
   59.6200   30.2480   48.6840 C   0  0  0  0  0  0  0  0  0  0  0  0
   59.4159   30.6349   49.6933 H   0  0  0  0  0  0  0  0  0  0  0  0
   58.7680   29.2930   48.1200 C   0  0  0  0  0  0  0  0  0  0  0  0
   57.8855   28.9499   48.6799 H   0  0  0  0  0  0  0  0  0  0  0  0
   56.7140   30.1480   44.0830 C   0  0  0  0  0  0  0  0  0  0  0  0
   55.7196   30.2490   43.6238 H   0  0  0  0  0  0  0  0  0  0  0  0
   57.4010   31.3790   44.5470 C   0  0  0  0  0  0  0  0  0  0  0  0
   57.7920   32.4060   43.6630 C   0  0  0  0  0  0  0  0  0  0  0  0
   57.5793   32.3126   42.5878 H   0  0  0  0  0  0  0  0  0  0  0  0
   58.4490   33.5430   44.1460 C   0  0  0  0  0  0  0  0  0  0  0  0
   58.7434   34.3434   43.4512 H   0  0  0  0  0  0  0  0  0  0  0  0
   58.7320   33.6640   45.5090 C   0  0  0  0  0  0  0  0  0  0  0  0
   59.6320   35.2160   46.1640 Br  0  0  0  0  0  0  0  0  0  0  0  0
   58.3650   32.6450   46.3900 C   0  0  0  0  0  0  0  0  0  0  0  0
   58.5929   32.7378   47.4621 H   0  0  0  0  0  0  0  0  0  0  0  0
   57.7080   31.5060   45.9120 C   0  0  0  0  0  0  0  0  0  0  0  0
   57.4295   30.7033   46.6107 H   0  0  0  0  0  0  0  0  0  0  0  0
  1  2  1  0
  2  3  1  0
  3  4  2  0
  3  5  1  0
  5  6  1  0
  6  7  2  0
  7  8  1  0
  7  9  1  0
  9 10  1  0
  9 11  2  0
 11 12  1  0
 12 13  1  0
 13 14  1  0
 13 15  1  0
 13 16  1  0
 16 17  1  0
 16 18  1  0
 16 19  1  0
 19 20  1  0
 20 21  1  0
 20 22  1  0
 20 23  1  0
 19 24  1  0
 24 25  1  0
 24 26  1  0
 24 27  1  0
 27 28  1  0
 27 29  1  0
 11 30  1  0
 30 31  1  0
 30 32  2  0
 32 33  1  0
  2 34  2  0
 34 35  1  0
 34 36  1  0
 36 37  2  0
 37 38  1  0
 37 39  1  0
 39 40  1  0
 39 41  2  0
 41 42  1  0
 41 43  1  0
 43 44  1  0
 43 45  2  0
 45 46  1  0
 32  6  1  0
 45 36  1  0
 27 12  1  0
M  CHG  1   5  -1
M  END
>  <UniqueID>  (75) 
72

>  <SMILES>  (75) 
CN1CCN(c2ccc([N-]C(=O)/C=C/c3ccc(Br)cc3)cc2)CC1

>  <Energy>  (75) 
64.57697204608628

>  <Genealogy>  (75) 
CN1CCN(c2ccc([N-]C(=O)C=Cc3ccc(Br)cc3)cc2)CC1 (protonated)
CN1CCN(c2ccc([N-]C(=O)/C=C/c3ccc(Br)cc3)cc2)CC1 (cis-trans isomerization)
CN1CCN(c2ccc([N-]C(=O)/C=C/c3ccc(Br)cc3)cc2)CC1 (3D coordinates assigned)
CN1CCN(c2ccc([N-]C(=O)/C=C/c3ccc(Br)cc3)cc2)CC1 (nonaromatic ring conformer: 64.57697204608628 kcal/mol)

>  <smiles>  (75) 
CN1CCN(c2ccc(NC(=O)C=Cc3ccc(Br)cc3)cc2)CC1

>  <score_type>  (75) 
oracle

>  <origin>  (75) 
adg

>  <m_score__min__energy>  (75) 
-10.359999999999999

>  <m_primary>  (75) 
energy

$$$$
75:0
     RDKit          3D

 53 55  0  0  0  0  0  0  0  0999 V2000
   56.4200   29.7280   43.0220 C   0  0  0  0  0  0  0  0  0  0  0  0
   56.0990   30.2040   44.4470 C   0  0  0  0  0  0  0  0  0  0  0  0
   57.1560   31.0350   45.0850 N   0  0  0  0  0  0  0  0  0  0  0  0
   58.4920   30.4010   45.0320 C   0  0  0  0  0  0  0  0  0  0  0  0
   58.8650   29.8080   46.3710 C   0  0  0  0  0  0  0  0  0  0  0  0
   58.5400   30.4360   47.4160 O   0  0  0  0  0  0  0  0  0  0  0  0
   59.6380   28.5900   46.4930 N   0  0  0  0  0  0  0  0  0  0  0  0
   60.4820   28.4120   47.6790 C   0  0  0  0  0  0  0  0  0  0  0  0
   59.6220   27.5230   45.4800 C   0  0  0  0  0  0  0  0  0  0  0  0
   58.4610   26.5880   45.7140 C   0  0  0  0  0  0  0  0  0  0  0  0
   58.6850   25.2130   45.9060 C   0  0  0  0  0  0  0  0  0  0  0  0
   57.6090   24.3470   46.1310 C   0  0  0  0  0  0  0  0  0  0  0  0
   56.3040   24.8450   46.1650 C   0  0  0  0  0  0  0  0  0  0  0  0
   56.0720   26.2110   45.9750 C   0  0  0  0  0  0  0  0  0  0  0  0
   54.7740   26.7060   46.0110 O   0  0  0  0  0  0  0  0  0  0  0  0
   57.1440   27.0800   45.7510 C   0  0  0  0  0  0  0  0  0  0  0  0
   57.1950   32.4360   44.6140 C   0  0  0  0  0  0  0  0  0  0  0  0
   58.3410   33.1820   45.2300 C   0  0  0  0  0  0  0  0  0  0  0  0
   58.9130   34.3400   44.7480 C   0  0  0  0  0  0  0  0  0  0  0  0
   59.8910   34.6670   45.5620 O   0  0  0  0  0  0  0  0  0  0  0  0
   59.9400   33.7560   46.5130 C   0  0  0  0  0  0  0  0  0  0  0  0
   60.9260   33.7900   47.6200 C   0  0  0  0  0  0  0  0  0  0  0  0
   60.5040   34.1440   48.9140 C   0  0  0  0  0  0  0  0  0  0  0  0
   61.4170   34.1850   49.9720 C   0  0  0  0  0  0  0  0  0  0  0  0
   62.7600   33.8770   49.7500 C   0  0  0  0  0  0  0  0  0  0  0  0
   63.1940   33.5260   48.4690 C   0  0  0  0  0  0  0  0  0  0  0  0
   64.5010   33.2320   48.2540 F   0  0  0  0  0  0  0  0  0  0  0  0
   62.2840   33.4830   47.4060 C   0  0  0  0  0  0  0  0  0  0  0  0
   58.9890   32.8110   46.3470 N   0  0  0  0  0  0  0  0  0  0  0  0
   57.0344   28.8168   43.0695 H   0  0  0  0  0  0  0  0  0  0  0  0
   55.4830   29.5110   42.4881 H   0  0  0  0  0  0  0  0  0  0  0  0
   56.9723   30.5153   42.4881 H   0  0  0  0  0  0  0  0  0  0  0  0
   55.1744   30.7986   44.4081 H   0  0  0  0  0  0  0  0  0  0  0  0
   56.0086   29.2962   45.0616 H   0  0  0  0  0  0  0  0  0  0  0  0
   58.4812   29.6024   44.2756 H   0  0  0  0  0  0  0  0  0  0  0  0
   59.2341   31.1699   44.7709 H   0  0  0  0  0  0  0  0  0  0  0  0
   59.8723   28.5406   48.5855 H   0  0  0  0  0  0  0  0  0  0  0  0
   60.9180   27.4021   47.6705 H   0  0  0  0  0  0  0  0  0  0  0  0
   61.2887   29.1598   47.6705 H   0  0  0  0  0  0  0  0  0  0  0  0
   59.5278   27.9739   44.4811 H   0  0  0  0  0  0  0  0  0  0  0  0
   60.5589   26.9510   45.5516 H   0  0  0  0  0  0  0  0  0  0  0  0
   59.7107   24.8164   45.8792 H   0  0  0  0  0  0  0  0  0  0  0  0
   57.7909   23.2726   46.2813 H   0  0  0  0  0  0  0  0  0  0  0  0
   55.4593   24.1628   46.3412 H   0  0  0  0  0  0  0  0  0  0  0  0
   56.9565   28.1537   45.6030 H   0  0  0  0  0  0  0  0  0  0  0  0
   57.3080   32.4440   43.5198 H   0  0  0  0  0  0  0  0  0  0  0  0
   56.2577   32.9299   44.9100 H   0  0  0  0  0  0  0  0  0  0  0  0
   58.6064   34.8900   43.8461 H   0  0  0  0  0  0  0  0  0  0  0  0
   59.4474   34.3905   49.0951 H   0  0  0  0  0  0  0  0  0  0  0  0
   61.0763   34.4605   50.9810 H   0  0  0  0  0  0  0  0  0  0  0  0
   63.4770   33.9106   50.5836 H   0  0  0  0  0  0  0  0  0  0  0  0
   62.6311   33.2082   46.3990 H   0  0  0  0  0  0  0  0  0  0  0  0
   58.7800   31.9810   46.9440 H   0  0  0  0  0  0  0  0  0  0  0  0
  1  2  1  0
  2  3  1  0
  3  4  1  0
  4  5  1  0
  5  6  2  0
  5  7  1  0
  7  8  1  0
  7  9  1  0
  9 10  1  0
 10 11  2  0
 11 12  1  0
 12 13  2  0
 13 14  1  0
 14 15  1  0
 14 16  2  0
  3 17  1  0
 17 18  1  0
 18 19  2  0
 19 20  1  0
 20 21  1  0
 21 22  1  0
 22 23  2  0
 23 24  1  0
 24 25  2  0
 25 26  1  0
 26 27  1  0
 26 28  2  0
 21 29  2  0
 16 10  1  0
 29 18  1  0
 28 22  1  0
  1 30  1  0
  1 31  1  0
  1 32  1  0
  2 33  1  0
  2 34  1  0
  4 35  1  0
  4 36  1  0
  8 37  1  0
  8 38  1  0
  8 39  1  0
  9 40  1  0
  9 41  1  0
 11 42  1  0
 12 43  1  0
 13 44  1  0
 16 45  1  0
 17 46  1  0
 17 47  1  0
 19 48  1  0
 23 49  1  0
 24 50  1  0
 25 51  1  0
 28 52  1  0
 29 53  1  0
M  CHG  2  15  -1  29   1
M  END
>  <UniqueID>  (76) 
73

>  <SMILES>  (76) 
CCN(CC(=O)N(C)Cc1cccc([O-])c1)Cc1coc(-c2cccc(F)c2)[nH+]1

>  <Energy>  (76) 
89.16195550652114

>  <Genealogy>  (76) 
CCN(CC(=O)N(C)Cc1cccc([O-])c1)Cc1coc(-c2cccc(F)c2)[nH+]1 (protonated)
CCN(CC(=O)N(C)Cc1cccc([O-])c1)Cc1coc(-c2cccc(F)c2)[nH+]1 (3D coordinates assigned)
CCN(CC(=O)N(C)Cc1cccc([O-])c1)Cc1coc(-c2cccc(F)c2)[nH+]1 (optimized conformer: 89.16195550652114 kcal/mol)

>  <smiles>  (76) 
CCN(CC(=O)N(C)Cc1cccc(O)c1)Cc1coc(-c2cccc(F)c2)n1

>  <score_type>  (76) 
oracle

>  <origin>  (76) 
adg

>  <m_score__min__energy>  (76) 
-10.720000000000001

>  <m_primary>  (76) 
energy

$$$$
76:0
     RDKit          3D

 49 51  0  0  0  0  0  0  0  0999 V2000
   57.8910   25.2140   47.4880 C   0  0  0  0  0  0  0  0  0  0  0  0
   58.3240   25.0040   46.2470 C   0  0  0  0  0  0  0  0  0  0  0  0
   57.4990   25.2970   45.0420 C   0  0  0  0  0  0  0  0  0  0  0  0
   56.6790   24.3720   44.5010 C   0  0  0  0  0  0  0  0  0  0  0  0
   55.2810   24.1540   44.9070 C   0  0  0  0  0  0  0  0  0  0  0  0
   54.6460   22.9770   44.7620 N   0  0  0  0  0  0  0  0  0  0  0  0
   53.4390   23.2020   45.3260 C   0  0  0  0  0  0  0  0  0  0  0  0
   52.5400   22.3240   45.3730 O   0  0  0  0  0  0  0  0  0  0  0  0
   53.2760   24.4410   45.8410 N   0  0  0  0  0  0  0  0  0  0  0  0
   54.4580   25.0270   45.5770 C   0  0  0  0  0  0  0  0  0  0  0  0
   54.7860   26.3240   45.9660 O   0  0  0  0  0  0  0  0  0  0  0  0
   57.5370   26.6510   44.4310 C   0  0  0  0  0  0  0  0  0  0  0  0
   58.1760   26.8260   43.3610 O   0  0  0  0  0  0  0  0  0  0  0  0
   56.8260   27.7620   45.0000 N   0  0  0  0  0  0  0  0  0  0  0  0
   57.4190   28.9670   45.5050 C   0  0  0  0  0  0  0  0  0  0  0  0
   57.2650   30.1970   44.8420 C   0  0  0  0  0  0  0  0  0  0  0  0
   57.9160   31.3380   45.3150 C   0  0  0  0  0  0  0  0  0  0  0  0
   58.7160   31.2720   46.4640 C   0  0  0  0  0  0  0  0  0  0  0  0
   59.4520   32.4640   46.9370 C   0  0  0  0  0  0  0  0  0  0  0  0
   58.8020   33.4870   47.2870 O   0  0  0  0  0  0  0  0  0  0  0  0
   60.8920   32.4750   47.0150 N   0  0  0  0  0  0  0  0  0  0  0  0
   61.6480   31.2510   47.3040 C   0  0  0  0  0  0  0  0  0  0  0  0
   62.7810   31.5770   48.2810 C   0  0  0  0  0  0  0  0  0  0  0  0
   63.7070   32.6080   47.7520 N   0  0  0  0  0  0  0  0  0  0  0  0
   64.3360   33.3540   48.8540 C   0  0  0  0  0  0  0  0  0  0  0  0
   63.1130   33.5270   46.7490 C   0  0  0  0  0  0  0  0  0  0  0  0
   61.6080   33.7550   46.9580 C   0  0  0  0  0  0  0  0  0  0  0  0
   58.8080   30.0600   47.1690 C   0  0  0  0  0  0  0  0  0  0  0  0
   58.1610   28.9160   46.6900 C   0  0  0  0  0  0  0  0  0  0  0  0
   58.5409   24.9804   48.3442 H   0  0  0  0  0  0  0  0  0  0  0  0
   56.8833   25.6212   47.6574 H   0  0  0  0  0  0  0  0  0  0  0  0
   59.3357   24.5961   46.1051 H   0  0  0  0  0  0  0  0  0  0  0  0
   57.0838   23.7359   43.7000 H   0  0  0  0  0  0  0  0  0  0  0  0
   54.7590   27.0840   45.2980 H   0  0  0  0  0  0  0  0  0  0  0  0
   56.6289   30.2608   43.9468 H   0  0  0  0  0  0  0  0  0  0  0  0
   57.8004   32.2939   44.7831 H   0  0  0  0  0  0  0  0  0  0  0  0
   60.9786   30.5028   47.7536 H   0  0  0  0  0  0  0  0  0  0  0  0
   62.0693   30.8483   46.3711 H   0  0  0  0  0  0  0  0  0  0  0  0
   62.3422   31.9452   49.2201 H   0  0  0  0  0  0  0  0  0  0  0  0
   63.3612   30.6560   48.4399 H   0  0  0  0  0  0  0  0  0  0  0  0
   63.9922   32.9462   49.8160 H   0  0  0  0  0  0  0  0  0  0  0  0
   65.4296   33.2577   48.7848 H   0  0  0  0  0  0  0  0  0  0  0  0
   64.0563   34.4156   48.7848 H   0  0  0  0  0  0  0  0  0  0  0  0
   63.6268   34.4974   46.8156 H   0  0  0  0  0  0  0  0  0  0  0  0
   63.2402   33.0609   45.7608 H   0  0  0  0  0  0  0  0  0  0  0  0
   61.4528   34.2978   47.9020 H   0  0  0  0  0  0  0  0  0  0  0  0
   61.2184   34.3406   46.1123 H   0  0  0  0  0  0  0  0  0  0  0  0
   59.3907   30.0106   48.1007 H   0  0  0  0  0  0  0  0  0  0  0  0
   58.2360   27.9711   47.2481 H   0  0  0  0  0  0  0  0  0  0  0  0
  1  2  2  0
  2  3  1  0
  3  4  2  3
  4  5  1  0
  5  6  1  0
  6  7  1  0
  7  8  2  0
  7  9  1  0
  9 10  1  0
 10 11  1  0
  3 12  1  0
 12 13  2  0
 12 14  1  0
 14 15  1  0
 15 16  2  0
 16 17  1  0
 17 18  2  0
 18 19  1  0
 19 20  2  0
 19 21  1  0
 21 22  1  0
 22 23  1  0
 23 24  1  0
 24 25  1  0
 24 26  1  0
 26 27  1  0
 18 28  1  0
 28 29  2  0
 10  5  2  0
 29 15  1  0
 27 21  1  0
  1 30  1  0
  1 31  1  0
  2 32  1  0
  4 33  1  0
 11 34  1  0
 16 35  1  0
 17 36  1  0
 22 37  1  0
 22 38  1  0
 23 39  1  0
 23 40  1  0
 25 41  1  0
 25 42  1  0
 25 43  1  0
 26 44  1  0
 26 45  1  0
 27 46  1  0
 27 47  1  0
 28 48  1  0
 29 49  1  0
M  CHG  3   6  -1   9  -1  14  -1
M  END
>  <UniqueID>  (77) 
74

>  <SMILES>  (77) 
C=CC(=Cc1[n-]c(=O)[n-]c1O)C(=O)[N-]c1ccc(C(=O)N2CCN(C)CC2)cc1

>  <Energy>  (77) 
104.42891811113229

>  <Genealogy>  (77) 
C=CC(=Cc1[n-]c(=O)[n-]c1O)C(=O)[N-]c1ccc(C(=O)N2CCN(C)CC2)cc1 (protonated)
C=CC(=Cc1[n-]c(=O)[n-]c1O)C(=O)[N-]c1ccc(C(=O)N2CCN(C)CC2)cc1 (3D coordinates assigned)
C=CC(=Cc1[n-]c(=O)[n-]c1O)C(=O)[N-]c1ccc(C(=O)N2CCN(C)CC2)cc1 (nonaromatic ring conformer: 104.42891811113229 kcal/mol)

>  <smiles>  (77) 
C=CC(=Cc1[nH]c(=O)[nH]c1O)C(=O)Nc1ccc(C(=O)N2CCN(C)CC2)cc1

>  <score_type>  (77) 
oracle

>  <origin>  (77) 
adg

>  <m_score__min__energy>  (77) 
-15.449999999999999

>  <m_primary>  (77) 
energy

$$$$
77:0
     RDKit          3D

 71 75  0  0  0  0  0  0  0  0999 V2000
   60.5250   26.3660   46.7320 O   0  0  0  0  0  0  0  0  0  0  0  0
   60.1980   27.5510   46.4500 C   0  0  0  0  0  0  0  0  0  0  0  0
   60.0120   27.9350   44.9970 C   0  0  0  0  0  0  0  0  0  0  0  0
   58.7770   28.7760   44.7870 C   0  0  0  0  0  0  0  0  0  0  0  0
   57.5040   28.1910   44.8870 C   0  0  0  0  0  0  0  0  0  0  0  0
   56.3570   28.9720   44.7360 C   0  0  0  0  0  0  0  0  0  0  0  0
   56.4680   30.3430   44.4890 C   0  0  0  0  0  0  0  0  0  0  0  0
   57.7350   30.9480   44.3890 C   0  0  0  0  0  0  0  0  0  0  0  0
   57.8660   32.3950   44.1010 C   0  0  0  0  0  0  0  0  0  0  0  0
   58.2080   32.7500   42.9370 O   0  0  0  0  0  0  0  0  0  0  0  0
   57.5840   33.3970   45.1100 N   0  0  2  0  0  0  0  0  0  0  0  0
   58.3650   34.6360   44.8510 C   0  0  0  0  0  0  0  0  0  0  0  0
   59.7260   34.6410   45.5700 C   0  0  0  0  0  0  0  0  0  0  0  0
   59.6210   34.4460   47.1170 C   0  0  2  0  0  0  0  0  0  0  0  0
   60.7420   33.5680   47.5840 N   0  0  0  0  0  0  0  0  0  0  0  0
   61.6030   33.1060   46.4590 C   0  0  0  0  0  0  0  0  0  0  0  0
   62.9530   33.8480   46.4090 C   0  0  0  0  0  0  0  0  0  0  0  0
   63.7220   33.7400   47.5990 O   0  0  0  0  0  0  0  0  0  0  0  0
   62.9430   33.4980   48.7580 C   0  0  0  0  0  0  0  0  0  0  0  0
   61.5500   34.1460   48.6860 C   0  0  0  0  0  0  0  0  0  0  0  0
   58.2050   33.9030   47.4820 C   0  0  0  0  0  0  0  0  0  0  0  0
   57.7660   32.8350   46.4770 C   0  0  0  0  0  0  0  0  0  0  0  0
   58.8870   30.1540   44.5380 C   0  0  0  0  0  0  0  0  0  0  0  0
   60.0850   28.5310   47.5080 N   0  0  0  0  0  0  0  0  0  0  0  0
   60.0480   28.0540   48.9010 C   0  0  0  0  0  0  0  0  0  0  0  0
   59.2740   29.0310   49.7900 C   0  0  0  0  0  0  0  0  0  0  0  0
   59.7440   30.3940   49.5460 N   0  0  0  0  0  0  0  0  0  0  0  0
   60.6740   30.9940   50.4540 C   0  0  0  0  0  0  0  0  0  0  0  0
   61.8580   30.5580   50.5220 O   0  0  0  0  0  0  0  0  0  0  0  0
   60.2800   32.2000   51.2550 C   0  0  0  0  0  0  0  0  0  0  0  0
   59.2310   33.1040   50.6250 C   0  0  0  0  0  0  0  0  0  0  0  0
   58.8390   32.1540   51.7450 C   0  0  0  0  0  0  0  0  0  0  0  0
   59.6750   30.8770   48.1700 C   0  0  0  0  0  0  0  0  0  0  0  0
   60.4740   29.9350   47.2660 C   0  0  0  0  0  0  0  0  0  0  0  0
   60.8913   28.5068   44.6657 H   0  0  0  0  0  0  0  0  0  0  0  0
   59.8955   27.0096   44.4138 H   0  0  0  0  0  0  0  0  0  0  0  0
   57.4105   27.1130   45.0851 H   0  0  0  0  0  0  0  0  0  0  0  0
   55.3630   28.5070   44.8116 H   0  0  0  0  0  0  0  0  0  0  0  0
   55.5600   30.9529   44.3721 H   0  0  0  0  0  0  0  0  0  0  0  0
   56.5730   33.6600   45.0380 H   0  0  0  0  0  0  0  0  0  0  0  0
   58.5386   34.7228   43.7683 H   0  0  0  0  0  0  0  0  0  0  0  0
   57.7812   35.4840   45.2384 H   0  0  0  0  0  0  0  0  0  0  0  0
   60.3391   33.8258   45.1582 H   0  0  0  0  0  0  0  0  0  0  0  0
   60.1748   35.6309   45.4009 H   0  0  0  0  0  0  0  0  0  0  0  0
   59.7307   35.4054   47.6437 H   0  0  0  0  0  0  0  0  0  0  0  0
   61.7957   32.0299   46.5806 H   0  0  0  0  0  0  0  0  0  0  0  0
   61.0697   33.3165   45.5203 H   0  0  0  0  0  0  0  0  0  0  0  0
   63.5434   33.4343   45.5782 H   0  0  0  0  0  0  0  0  0  0  0  0
   62.7220   34.9155   46.2780 H   0  0  0  0  0  0  0  0  0  0  0  0
   62.8194   32.4116   48.8778 H   0  0  0  0  0  0  0  0  0  0  0  0
   63.4725   33.9452   49.6122 H   0  0  0  0  0  0  0  0  0  0  0  0
   61.0273   33.9785   49.6393 H   0  0  0  0  0  0  0  0  0  0  0  0
   61.6774   35.2218   48.4953 H   0  0  0  0  0  0  0  0  0  0  0  0
   58.2348   33.4620   48.4893 H   0  0  0  0  0  0  0  0  0  0  0  0
   57.4863   34.7353   47.4540 H   0  0  0  0  0  0  0  0  0  0  0  0
   58.5329   32.0473   46.4380 H   0  0  0  0  0  0  0  0  0  0  0  0
   56.7984   32.4319   46.8104 H   0  0  0  0  0  0  0  0  0  0  0  0
   59.8820   30.6162   44.4588 H   0  0  0  0  0  0  0  0  0  0  0  0
   59.5561   27.0706   48.9325 H   0  0  0  0  0  0  0  0  0  0  0  0
   61.0796   27.9784   49.2752 H   0  0  0  0  0  0  0  0  0  0  0  0
   58.2009   28.9666   49.5570 H   0  0  0  0  0  0  0  0  0  0  0  0
   59.4376   28.7718   50.8464 H   0  0  0  0  0  0  0  0  0  0  0  0
   61.2685   32.3726   51.7057 H   0  0  0  0  0  0  0  0  0  0  0  0
   59.2582   34.1883   50.8081 H   0  0  0  0  0  0  0  0  0  0  0  0
   58.8759   33.2857   49.5999 H   0  0  0  0  0  0  0  0  0  0  0  0
   58.5829   32.5508   52.7385 H   0  0  0  0  0  0  0  0  0  0  0  0
   58.0834   31.3638   51.8659 H   0  0  0  0  0  0  0  0  0  0  0  0
   58.6258   30.9012   47.8406 H   0  0  0  0  0  0  0  0  0  0  0  0
   60.0970   31.8912   48.1124 H   0  0  0  0  0  0  0  0  0  0  0  0
   60.2765   30.1890   46.2141 H   0  0  0  0  0  0  0  0  0  0  0  0
   61.5447   30.0508   47.4900 H   0  0  0  0  0  0  0  0  0  0  0  0
  1  2  2  0
  2  3  1  0
  3  4  1  0
  4  5  2  0
  5  6  1  0
  6  7  2  0
  7  8  1  0
  8  9  1  0
  9 10  2  0
  9 11  1  0
 11 12  1  0
 12 13  1  0
 13 14  1  0
 14 15  1  0
 15 16  1  0
 16 17  1  0
 17 18  1  0
 18 19  1  0
 19 20  1  0
 14 21  1  0
 21 22  1  0
  8 23  2  0
  2 24  1  0
 24 25  1  0
 25 26  1  0
 26 27  1  0
 27 28  1  0
 28 29  2  0
 28 30  1  0
 30 31  1  0
 31 32  1  0
 27 33  1  0
 33 34  1  0
 23  4  1  0
 34 24  1  0
 22 11  1  0
 32 30  1  0
 20 15  1  0
  3 35  1  0
  3 36  1  0
  5 37  1  0
  6 38  1  0
  7 39  1  0
 11 40  1  1
 12 41  1  0
 12 42  1  0
 13 43  1  0
 13 44  1  0
 14 45  1  1
 16 46  1  0
 16 47  1  0
 17 48  1  0
 17 49  1  0
 19 50  1  0
 19 51  1  0
 20 52  1  0
 20 53  1  0
 21 54  1  0
 21 55  1  0
 22 56  1  0
 22 57  1  0
 23 58  1  0
 25 59  1  0
 25 60  1  0
 26 61  1  0
 26 62  1  0
 30 63  1  0
 31 64  1  0
 31 65  1  0
 32 66  1  0
 32 67  1  0
 33 68  1  0
 33 69  1  0
 34 70  1  0
 34 71  1  0
M  CHG  1  11   1
M  END
>  <UniqueID>  (78) 
75

>  <SMILES>  (78) 
O=C(Cc1cccc(C(=O)[NH+]2CCC(N3CCOCC3)CC2)c1)N1CCN(C(=O)C2CC2)CC1

>  <Energy>  (78) 
377.85132081278834

>  <Genealogy>  (78) 
O=C(Cc1cccc(C(=O)[NH+]2CCC(N3CCOCC3)CC2)c1)N1CCN(C(=O)C2CC2)CC1 (protonated)
O=C(Cc1cccc(C(=O)[NH+]2CCC(N3CCOCC3)CC2)c1)N1CCN(C(=O)C2CC2)CC1 (3D coordinates assigned)
O=C(Cc1cccc(C(=O)[NH+]2CCC(N3CCOCC3)CC2)c1)N1CCN(C(=O)C2CC2)CC1 (nonaromatic ring conformer: 377.85132081278834 kcal/mol)

>  <smiles>  (78) 
O=C(Cc1cccc(C(=O)N2CCC(N3CCOCC3)CC2)c1)N1CCN(C(=O)C2CC2)CC1

>  <score_type>  (78) 
oracle

>  <origin>  (78) 
adg

>  <m_score__min__energy>  (78) 
-8.9199999999999999

>  <m_primary>  (78) 
energy

$$$$
78:0
     RDKit          3D

 45 47  0  0  0  0  0  0  0  0999 V2000
   56.5910   30.2100   42.6750 C   0  0  0  0  0  0  0  0  0  0  0  0
   56.9630   29.0360   43.1850 C   0  0  0  0  0  0  0  0  0  0  0  0
   57.0380   28.7640   44.9270 S   0  0  0  0  0  0  0  0  0  0  0  0
   56.8300   30.0810   45.6210 O   0  0  0  0  0  0  0  0  0  0  0  0
   55.9170   27.8450   45.3310 O   0  0  0  0  0  0  0  0  0  0  0  0
   58.5630   28.0680   45.4350 N   0  0  0  0  0  0  0  0  0  0  0  0
   59.7200   28.6410   44.7020 C   0  0  0  0  0  0  0  0  0  0  0  0
   60.8070   29.2320   45.6120 C   0  0  0  0  0  0  0  0  0  0  0  0
   60.1580   30.0700   46.6870 C   0  0  0  0  0  0  0  0  0  0  0  0
   60.4660   31.3770   46.8970 C   0  0  0  0  0  0  0  0  0  0  0  0
   59.6170   32.4840   46.4020 C   0  0  0  0  0  0  0  0  0  0  0  0
   59.7080   33.7650   46.9710 C   0  0  0  0  0  0  0  0  0  0  0  0
   58.9300   34.8150   46.4710 C   0  0  0  0  0  0  0  0  0  0  0  0
   58.0680   34.5940   45.3930 C   0  0  0  0  0  0  0  0  0  0  0  0
   57.9850   33.3260   44.8110 C   0  0  0  0  0  0  0  0  0  0  0  0
   58.7610   32.2750   45.3080 C   0  0  0  0  0  0  0  0  0  0  0  0
   61.6600   31.7690   47.6790 C   0  0  0  0  0  0  0  0  0  0  0  0
   61.8670   31.2610   48.9710 C   0  0  0  0  0  0  0  0  0  0  0  0
   63.0040   31.6290   49.6980 C   0  0  0  0  0  0  0  0  0  0  0  0
   63.9430   32.5000   49.1360 C   0  0  0  0  0  0  0  0  0  0  0  0
   65.3680   32.9600   50.0490 Cl  0  0  0  0  0  0  0  0  0  0  0  0
   63.7480   32.9990   47.8440 C   0  0  0  0  0  0  0  0  0  0  0  0
   62.6130   32.6320   47.1150 C   0  0  0  0  0  0  0  0  0  0  0  0
   59.1070   29.3680   47.5210 C   0  0  0  0  0  0  0  0  0  0  0  0
   58.6990   28.0170   46.9070 C   0  0  0  0  0  0  0  0  0  0  0  0
   56.5541   30.3490   41.5844 H   0  0  0  0  0  0  0  0  0  0  0  0
   56.3210   31.0398   43.3447 H   0  0  0  0  0  0  0  0  0  0  0  0
   57.2301   28.2157   42.5025 H   0  0  0  0  0  0  0  0  0  0  0  0
   60.1735   27.8439   44.0946 H   0  0  0  0  0  0  0  0  0  0  0  0
   59.3310   29.4698   44.0922 H   0  0  0  0  0  0  0  0  0  0  0  0
   61.3795   28.4163   46.0777 H   0  0  0  0  0  0  0  0  0  0  0  0
   61.4852   29.8597   45.0153 H   0  0  0  0  0  0  0  0  0  0  0  0
   60.3934   33.9434   47.8127 H   0  0  0  0  0  0  0  0  0  0  0  0
   58.9967   35.8142   46.9261 H   0  0  0  0  0  0  0  0  0  0  0  0
   57.4543   35.4190   45.0023 H   0  0  0  0  0  0  0  0  0  0  0  0
   57.3082   33.1549   43.9609 H   0  0  0  0  0  0  0  0  0  0  0  0
   58.7012   31.2809   44.8409 H   0  0  0  0  0  0  0  0  0  0  0  0
   61.1329   30.5714   49.4132 H   0  0  0  0  0  0  0  0  0  0  0  0
   63.1597   31.2331   50.7124 H   0  0  0  0  0  0  0  0  0  0  0  0
   64.4886   33.6811   47.4010 H   0  0  0  0  0  0  0  0  0  0  0  0
   62.4662   33.0206   46.0964 H   0  0  0  0  0  0  0  0  0  0  0  0
   59.5106   29.1935   48.5293 H   0  0  0  0  0  0  0  0  0  0  0  0
   58.2147   30.0102   47.5581 H   0  0  0  0  0  0  0  0  0  0  0  0
   59.4653   27.2703   47.1624 H   0  0  0  0  0  0  0  0  0  0  0  0
   57.7140   27.7526   47.3192 H   0  0  0  0  0  0  0  0  0  0  0  0
  1  2  2  0
  2  3  1  0
  3  4  2  0
  3  5  2  0
  3  6  1  0
  6  7  1  0
  7  8  1  0
  8  9  1  0
  9 10  2  3
 10 11  1  0
 11 12  2  0
 12 13  1  0
 13 14  2  0
 14 15  1  0
 15 16  2  0
 10 17  1  0
 17 18  2  0
 18 19  1  0
 19 20  2  0
 20 21  1  0
 20 22  1  0
 22 23  2  0
  9 24  1  0
 24 25  1  0
 25  6  1  0
 16 11  1  0
 23 17  1  0
  1 26  1  0
  1 27  1  0
  2 28  1  0
  7 29  1  0
  7 30  1  0
  8 31  1  0
  8 32  1  0
 12 33  1  0
 13 34  1  0
 14 35  1  0
 15 36  1  0
 16 37  1  0
 18 38  1  0
 19 39  1  0
 22 40  1  0
 23 41  1  0
 24 42  1  0
 24 43  1  0
 25 44  1  0
 25 45  1  0
M  END
>  <UniqueID>  (79) 
76

>  <SMILES>  (79) 
C=CS(=O)(=O)N1CCC(=C(c2ccccc2)c2ccc(Cl)cc2)CC1

>  <Energy>  (79) 
66.30749141399707

>  <Genealogy>  (79) 
C=CS(=O)(=O)N1CCC(=C(c2ccccc2)c2ccc(Cl)cc2)CC1 (3D coordinates assigned)
C=CS(=O)(=O)N1CCC(=C(c2ccccc2)c2ccc(Cl)cc2)CC1 (nonaromatic ring conformer: 66.30749141399707 kcal/mol)

>  <smiles>  (79) 
C=CS(=O)(=O)N1CCC(=C(c2ccccc2)c2ccc(Cl)cc2)CC1

>  <score_type>  (79) 
oracle

>  <origin>  (79) 
adg

>  <m_score__min__energy>  (79) 
-9.3800000000000008

>  <m_primary>  (79) 
energy

$$$$
79:0
     RDKit          3D

 61 65  0  0  0  0  0  0  0  0999 V2000
   50.4740   23.4370   44.4450 C   0  0  0  0  0  0  0  0  0  0  0  0
   51.3850   22.4170   44.8380 O   0  0  0  0  0  0  0  0  0  0  0  0
   52.4790   22.6190   45.6940 C   0  0  0  0  0  0  0  0  0  0  0  0
   52.8120   21.7140   46.7200 C   0  0  0  0  0  0  0  0  0  0  0  0
   53.9060   21.9680   47.5530 C   0  0  0  0  0  0  0  0  0  0  0  0
   54.6840   23.1110   47.3620 C   0  0  0  0  0  0  0  0  0  0  0  0
   54.3820   24.0070   46.3300 C   0  0  0  0  0  0  0  0  0  0  0  0
   55.1880   25.1840   46.1750 N   0  0  0  0  0  0  0  0  0  0  0  0
   56.6000   25.2830   46.4050 C   0  0  0  0  0  0  0  0  0  0  0  0
   57.2540   24.2290   46.6230 O   0  0  0  0  0  0  0  0  0  0  0  0
   57.3140   26.5700   46.3380 C   0  0  0  0  0  0  0  0  0  0  0  0
   58.5910   26.6670   46.8300 N   0  0  0  0  0  0  0  0  0  0  0  0
   59.2850   27.8420   46.7940 C   0  0  0  0  0  0  0  0  0  0  0  0
   60.4560   27.8990   47.2500 O   0  0  0  0  0  0  0  0  0  0  0  0
   58.6560   28.9510   46.2280 C   0  0  0  0  0  0  0  0  0  0  0  0
   57.4000   28.8280   45.7280 C   0  0  0  0  0  0  0  0  0  0  0  0
   56.9490   29.9980   45.2450 N   0  0  0  0  0  0  0  0  0  0  0  0
   58.0040   30.8270   45.4670 C   0  0  0  0  0  0  0  0  0  0  0  0
   57.9540   32.2250   45.1530 N   0  0  0  0  0  0  0  0  0  0  0  0
   58.5100   32.7190   43.8930 C   0  0  0  0  0  0  0  0  0  0  0  0
   59.2250   34.0650   44.1120 C   0  0  0  0  0  0  0  0  0  0  0  0
   58.6040   34.9230   45.1550 N   0  0  0  0  0  0  0  0  0  0  0  0
   59.4320   34.9970   46.3710 C   0  0  0  0  0  0  0  0  0  0  0  0
   57.2050   34.5590   45.4670 C   0  0  0  0  0  0  0  0  0  0  0  0
   57.0830   33.1010   45.9390 C   0  0  0  0  0  0  0  0  0  0  0  0
   59.0640   30.2250   46.0760 N   0  0  0  0  0  0  0  0  0  0  0  0
   60.2800   30.8640   46.5960 C   0  0  0  0  0  0  0  0  0  0  0  0
   59.9960   31.7860   47.7590 C   0  0  0  0  0  0  0  0  0  0  0  0
   58.8700   31.5430   48.5640 C   0  0  0  0  0  0  0  0  0  0  0  0
   58.5920   32.3610   49.6610 C   0  0  0  0  0  0  0  0  0  0  0  0
   59.4440   33.4220   49.9820 C   0  0  0  0  0  0  0  0  0  0  0  0
   59.1540   34.2300   51.0790 O   0  0  0  0  0  0  0  0  0  0  0  0
   60.5810   33.6590   49.2000 C   0  0  0  0  0  0  0  0  0  0  0  0
   60.8620   32.8420   48.1010 C   0  0  0  0  0  0  0  0  0  0  0  0
   56.7140   27.6630   45.7730 N   0  0  0  0  0  0  0  0  0  0  0  0
   53.2620   23.7670   45.5130 C   0  0  0  0  0  0  0  0  0  0  0  0
   50.0485   23.9135   45.3405 H   0  0  0  0  0  0  0  0  0  0  0  0
   51.0045   24.1913   43.8454 H   0  0  0  0  0  0  0  0  0  0  0  0
   49.6648   22.9947   43.8454 H   0  0  0  0  0  0  0  0  0  0  0  0
   52.2101   20.8050   46.8666 H   0  0  0  0  0  0  0  0  0  0  0  0
   54.1543   21.2647   48.3615 H   0  0  0  0  0  0  0  0  0  0  0  0
   55.5386   23.3086   48.0258 H   0  0  0  0  0  0  0  0  0  0  0  0
   59.2306   31.9853   43.5026 H   0  0  0  0  0  0  0  0  0  0  0  0
   57.6902   32.8637   43.1740 H   0  0  0  0  0  0  0  0  0  0  0  0
   60.2641   33.8593   44.4085 H   0  0  0  0  0  0  0  0  0  0  0  0
   59.1535   34.6185   43.1641 H   0  0  0  0  0  0  0  0  0  0  0  0
   58.7854   34.9392   47.2590 H   0  0  0  0  0  0  0  0  0  0  0  0
   60.1444   34.1589   46.3810 H   0  0  0  0  0  0  0  0  0  0  0  0
   59.9845   35.9481   46.3810 H   0  0  0  0  0  0  0  0  0  0  0  0
   56.8339   35.2223   46.2622 H   0  0  0  0  0  0  0  0  0  0  0  0
   56.6110   34.6704   44.5479 H   0  0  0  0  0  0  0  0  0  0  0  0
   57.3716   33.0397   46.9987 H   0  0  0  0  0  0  0  0  0  0  0  0
   56.0413   32.7736   45.8061 H   0  0  0  0  0  0  0  0  0  0  0  0
   60.9759   30.0799   46.9290 H   0  0  0  0  0  0  0  0  0  0  0  0
   60.7120   31.4702   45.7861 H   0  0  0  0  0  0  0  0  0  0  0  0
   58.2021   30.7014   48.3280 H   0  0  0  0  0  0  0  0  0  0  0  0
   57.6994   32.1699   50.2748 H   0  0  0  0  0  0  0  0  0  0  0  0
   58.8950   35.2030   50.9660 H   0  0  0  0  0  0  0  0  0  0  0  0
   61.2554   34.4909   49.4513 H   0  0  0  0  0  0  0  0  0  0  0  0
   61.7649   33.0253   47.5000 H   0  0  0  0  0  0  0  0  0  0  0  0
   52.9984   24.4874   44.7246 H   0  0  0  0  0  0  0  0  0  0  0  0
  1  2  1  0
  2  3  1  0
  3  4  2  0
  4  5  1  0
  5  6  2  0
  6  7  1  0
  7  8  1  0
  8  9  1  0
  9 10  2  0
  9 11  1  0
 11 12  2  0
 12 13  1  0
 13 14  2  0
 13 15  1  0
 15 16  2  0
 16 17  1  0
 17 18  2  0
 18 19  1  0
 19 20  1  0
 20 21  1  0
 21 22  1  0
 22 23  1  0
 22 24  1  0
 24 25  1  0
 18 26  1  0
 26 27  1  0
 27 28  1  0
 28 29  2  0
 29 30  1  0
 30 31  2  0
 31 32  1  0
 31 33  1  0
 33 34  2  0
 16 35  1  0
  7 36  2  0
 36  3  1  0
 35 11  1  0
 26 15  1  0
 34 28  1  0
 25 19  1  0
  1 37  1  0
  1 38  1  0
  1 39  1  0
  4 40  1  0
  5 41  1  0
  6 42  1  0
 20 43  1  0
 20 44  1  0
 21 45  1  0
 21 46  1  0
 23 47  1  0
 23 48  1  0
 23 49  1  0
 24 50  1  0
 24 51  1  0
 25 52  1  0
 25 53  1  0
 27 54  1  0
 27 55  1  0
 29 56  1  0
 30 57  1  0
 32 58  1  0
 33 59  1  0
 34 60  1  0
 36 61  1  0
M  CHG  2   8  -1  35  -1
M  END
>  <UniqueID>  (80) 
77

>  <SMILES>  (80) 
COc1cccc([N-]C(=O)c2nc(=O)c3c(nc(N4CCN(C)CC4)n3Cc3ccc(O)cc3)[n-]2)c1

>  <Energy>  (80) 
122.36050977956623

>  <Genealogy>  (80) 
COc1cccc([N-]C(=O)c2nc(=O)c3c(nc(N4CCN(C)CC4)n3Cc3ccc(O)cc3)[n-]2)c1 (protonated)
COc1cccc([N-]C(=O)c2nc(=O)c3c(nc(N4CCN(C)CC4)n3Cc3ccc(O)cc3)[n-]2)c1 (3D coordinates assigned)
COc1cccc([N-]C(=O)c2nc(=O)c3c(nc(N4CCN(C)CC4)n3Cc3ccc(O)cc3)[n-]2)c1 (nonaromatic ring conformer: 122.36050977956623 kcal/mol)

>  <smiles>  (80) 
COc1cccc(NC(=O)c2nc(=O)c3c(nc(N4CCN(C)CC4)n3Cc3ccc(O)cc3)[nH]2)c1

>  <score_type>  (80) 
oracle

>  <origin>  (80) 
adg

>  <m_score__min__energy>  (80) 
-12

>  <m_primary>  (80) 
energy

$$$$
80:0
     RDKit          3D

 39 41  0  0  0  0  0  0  0  0999 V2000
   57.4970   28.8870   43.7090 N   0  0  0  0  0  0  0  0  0  0  0  0
   56.8270   30.4600   43.8710 S   0  0  0  0  0  0  0  0  0  0  0  0
   55.4830   30.3790   44.4940 O   0  0  0  0  0  0  0  0  0  0  0  0
   56.6480   31.0890   42.5110 O   0  0  0  0  0  0  0  0  0  0  0  0
   57.8330   31.5130   44.8470 C   0  0  0  0  0  0  0  0  0  0  0  0
   58.7720   30.9470   45.6890 C   0  0  0  0  0  0  0  0  0  0  0  0
   59.5830   31.7400   46.4730 C   0  0  0  0  0  0  0  0  0  0  0  0
   59.4960   33.1370   46.4540 C   0  0  0  0  0  0  0  0  0  0  0  0
   60.4080   33.8640   47.3510 C   0  0  0  0  0  0  0  0  0  0  0  0
   61.6340   33.1450   47.6810 C   0  0  0  0  0  0  0  0  0  0  0  0
   61.9590   32.2050   48.6260 C   0  0  0  0  0  0  0  0  0  0  0  0
   61.1280   31.6160   49.6590 C   0  0  0  0  0  0  0  0  0  0  0  0
   59.8280   31.9660   49.9200 C   0  0  0  0  0  0  0  0  0  0  0  0
   59.0690   31.4300   50.9590 C   0  0  0  0  0  0  0  0  0  0  0  0
   57.4080   31.9430   51.2180 Cl  0  0  0  0  0  0  0  0  0  0  0  0
   59.6100   30.4890   51.7980 C   0  0  0  0  0  0  0  0  0  0  0  0
   60.9080   30.1160   51.5640 C   0  0  0  0  0  0  0  0  0  0  0  0
   61.6060   28.9160   52.6340 Cl  0  0  0  0  0  0  0  0  0  0  0  0
   61.6670   30.6580   50.5210 C   0  0  0  0  0  0  0  0  0  0  0  0
   62.9560   30.1750   50.4240 O   0  0  0  0  0  0  0  0  0  0  0  0
   63.2780   31.9290   48.4820 N   0  0  0  0  0  0  0  0  0  0  0  0
   63.8100   32.6390   47.5030 N   0  0  0  0  0  0  0  0  0  0  0  0
   62.8450   33.3800   47.0020 C   0  0  0  0  0  0  0  0  0  0  0  0
   63.0260   34.1850   46.0340 O   0  0  0  0  0  0  0  0  0  0  0  0
   58.5640   33.6750   45.6180 C   0  0  0  0  0  0  0  0  0  0  0  0
   57.7320   32.8860   44.8140 C   0  0  0  0  0  0  0  0  0  0  0  0
   56.7340   28.2020   43.5410 H   0  0  0  0  0  0  0  0  0  0  0  0
   58.1640   28.8300   42.9310 H   0  0  0  0  0  0  0  0  0  0  0  0
   58.8732   29.8526   45.7340 H   0  0  0  0  0  0  0  0  0  0  0  0
   60.3206   31.2604   47.1333 H   0  0  0  0  0  0  0  0  0  0  0  0
   60.6855   34.8109   46.8648 H   0  0  0  0  0  0  0  0  0  0  0  0
   59.8662   34.0085   48.2973 H   0  0  0  0  0  0  0  0  0  0  0  0
   59.3550   32.7161   49.2692 H   0  0  0  0  0  0  0  0  0  0  0  0
   59.0274   30.0528   52.6228 H   0  0  0  0  0  0  0  0  0  0  0  0
   63.4870   30.0010   51.2690 H   0  0  0  0  0  0  0  0  0  0  0  0
   63.8840   31.2510   49.0150 H   0  0  0  0  0  0  0  0  0  0  0  0
   64.8170   32.6250   47.1740 H   0  0  0  0  0  0  0  0  0  0  0  0
   58.4614   34.7693   45.5730 H   0  0  0  0  0  0  0  0  0  0  0  0
   56.9946   33.3651   44.1532 H   0  0  0  0  0  0  0  0  0  0  0  0
  1  2  1  0
  2  3  2  0
  2  4  2  0
  2  5  1  0
  5  6  2  0
  6  7  1  0
  7  8  2  0
  8  9  1  0
  9 10  1  0
 10 11  2  0
 11 12  1  0
 12 13  2  0
 13 14  1  0
 14 15  1  0
 14 16  2  0
 16 17  1  0
 17 18  1  0
 17 19  2  0
 19 20  1  0
 11 21  1  0
 21 22  1  0
 22 23  1  0
 23 24  2  0
  8 25  1  0
 25 26  2  0
 26  5  1  0
 23 10  1  0
 19 12  1  0
  1 27  1  0
  1 28  1  0
  6 29  1  0
  7 30  1  0
  9 31  1  0
  9 32  1  0
 13 33  1  0
 16 34  1  0
 20 35  1  0
 21 36  1  0
 22 37  1  0
 25 38  1  0
 26 39  1  0
M  END
>  <smiles>  (81) 
NS(=O)(=O)c1ccc(Cc2c(-c3cc(Cl)cc(Cl)c3O)[nH][nH]c2=O)cc1

>  <score_type>  (81) 
oracle

>  <origin>  (81) 
adg

>  <m_score__min__energy>  (81) 
-8.4199999999999999

>  <m_primary>  (81) 
energy

$$$$
81:0
     RDKit          3D

 62 65  0  0  0  0  0  0  0  0999 V2000
   50.6570   34.2630   51.6670 H   0  0  0  0  0  0  0  0  0  0  0  0
   50.9630   33.3250   52.0130 N   0  0  0  0  0  0  0  0  0  0  0  0
   51.4280   32.3250   51.1100 C   0  0  0  0  0  0  0  0  0  0  0  0
   51.1410   32.4220   49.8880 O   0  0  0  0  0  0  0  0  0  0  0  0
   52.2350   31.1810   51.6000 C   0  0  0  0  0  0  0  0  0  0  0  0
   51.6050   30.0420   52.1300 C   0  0  0  0  0  0  0  0  0  0  0  0
   50.5075   29.9931   52.1857 H   0  0  0  0  0  0  0  0  0  0  0  0
   52.3780   28.9740   52.5850 C   0  0  0  0  0  0  0  0  0  0  0  0
   51.8892   28.0775   52.9940 H   0  0  0  0  0  0  0  0  0  0  0  0
   53.7330   29.0390   52.5240 N   0  0  0  0  0  0  0  0  0  0  0  0
   54.3890   30.1230   52.0310 C   0  0  0  0  0  0  0  0  0  0  0  0
   55.6920   30.0970   51.9970 N   0  0  0  0  0  0  0  0  0  0  0  0
   56.5780   31.2210   52.0870 C   0  0  0  0  0  0  0  0  0  0  0  0
   56.0920   32.3630   52.2890 O   0  0  0  0  0  0  0  0  0  0  0  0
   57.9930   31.0760   51.8600 N   0  0  0  0  0  0  0  0  0  0  0  0
   58.9500   31.9590   52.5380 C   0  0  0  0  0  0  0  0  0  0  0  0
   59.5585   31.3609   53.2322 H   0  0  0  0  0  0  0  0  0  0  0  0
   58.3838   32.7311   53.0796 H   0  0  0  0  0  0  0  0  0  0  0  0
   59.8840   32.6610   51.5290 C   0  0  0  0  0  0  0  0  0  0  0  0
   60.8901   32.7161   51.9704 H   0  0  0  0  0  0  0  0  0  0  0  0
   59.4504   33.6528   51.3332 H   0  0  0  0  0  0  0  0  0  0  0  0
   59.9930   31.9380   50.1500 C   0  0  0  0  0  0  0  0  0  0  0  0
   59.1691   32.2767   49.5047 H   0  0  0  0  0  0  0  0  0  0  0  0
   61.2410   32.2890   49.3930 N   0  0  1  0  0  0  0  0  0  0  0  0
   62.0370   31.8250   49.8920 H   0  0  0  0  0  0  0  0  0  0  0  0
   61.2150   31.7420   47.9940 C   0  0  0  0  0  0  0  0  0  0  0  0
   62.0992   31.1013   47.8615 H   0  0  0  0  0  0  0  0  0  0  0  0
   60.2636   31.1991   47.8935 H   0  0  0  0  0  0  0  0  0  0  0  0
   61.2240   32.8070   46.8780 C   0  0  0  0  0  0  0  0  0  0  0  0
   62.2391   33.2200   46.7828 H   0  0  0  0  0  0  0  0  0  0  0  0
   60.9123   32.3314   45.9364 H   0  0  0  0  0  0  0  0  0  0  0  0
   60.2480   33.9440   47.1980 C   0  0  1  0  0  0  0  0  0  0  0  0
   60.3552   34.7391   46.4455 H   0  0  0  0  0  0  0  0  0  0  0  0
   58.9140   33.4290   47.1640 O   0  0  0  0  0  0  0  0  0  0  0  0
   58.3920   32.5770   46.1770 C   0  0  0  0  0  0  0  0  0  0  0  0
   58.2870   31.1830   46.3530 C   0  0  0  0  0  0  0  0  0  0  0  0
   58.6299   30.7212   47.2906 H   0  0  0  0  0  0  0  0  0  0  0  0
   57.7480   30.3850   45.3390 C   0  0  0  0  0  0  0  0  0  0  0  0
   57.6745   29.2968   45.4817 H   0  0  0  0  0  0  0  0  0  0  0  0
   57.3010   30.9610   44.1430 C   0  0  0  0  0  0  0  0  0  0  0  0
   56.7600   30.0930   43.0470 C   0  0  0  0  0  0  0  0  0  0  0  0
   56.2266   29.2372   43.4865 H   0  0  0  0  0  0  0  0  0  0  0  0
   56.0660   30.6775   42.4251 H   0  0  0  0  0  0  0  0  0  0  0  0
   57.5904   29.7274   42.4251 H   0  0  0  0  0  0  0  0  0  0  0  0
   57.4260   32.3480   43.9590 C   0  0  0  0  0  0  0  0  0  0  0  0
   57.1016   32.8068   43.0134 H   0  0  0  0  0  0  0  0  0  0  0  0
   57.9610   33.1470   44.9730 C   0  0  0  0  0  0  0  0  0  0  0  0
   58.0443   34.2337   44.8239 H   0  0  0  0  0  0  0  0  0  0  0  0
   60.5600   34.5720   48.5760 C   0  0  0  0  0  0  0  0  0  0  0  0
   60.9812   35.5757   48.4170 H   0  0  0  0  0  0  0  0  0  0  0  0
   59.6181   34.6084   49.1430 H   0  0  0  0  0  0  0  0  0  0  0  0
   61.5630   33.7430   49.3990 C   0  0  0  0  0  0  0  0  0  0  0  0
   62.5684   33.8835   48.9753 H   0  0  0  0  0  0  0  0  0  0  0  0
   61.5108   34.0928   50.4406 H   0  0  0  0  0  0  0  0  0  0  0  0
   59.8940   30.4090   50.4100 C   0  0  0  0  0  0  0  0  0  0  0  0
   60.6408   30.1175   51.1632 H   0  0  0  0  0  0  0  0  0  0  0  0
   60.0837   29.8679   49.4712 H   0  0  0  0  0  0  0  0  0  0  0  0
   58.4880   30.0580   50.9230 C   0  0  0  0  0  0  0  0  0  0  0  0
   58.5261   29.0861   51.4368 H   0  0  0  0  0  0  0  0  0  0  0  0
   57.8044   30.0161   50.0623 H   0  0  0  0  0  0  0  0  0  0  0  0
   53.6380   31.2140   51.5420 C   0  0  0  0  0  0  0  0  0  0  0  0
   54.1511   32.0888   51.1161 H   0  0  0  0  0  0  0  0  0  0  0  0
  1  2  1  0
  2  3  1  0
  3  4  2  0
  3  5  1  0
  5  6  1  0
  6  7  1  0
  6  8  2  0
  8  9  1  0
  8 10  1  0
 10 11  1  0
 11 12  2  0
 12 13  1  0
 13 14  2  0
 13 15  1  0
 15 16  1  0
 16 17  1  0
 16 18  1  0
 16 19  1  0
 19 20  1  0
 19 21  1  0
 19 22  1  0
 22 23  1  0
 22 24  1  0
 24 25  1  1
 24 26  1  0
 26 27  1  0
 26 28  1  0
 26 29  1  0
 29 30  1  0
 29 31  1  0
 29 32  1  0
 32 33  1  6
 32 34  1  0
 34 35  1  0
 35 36  2  0
 36 37  1  0
 36 38  1  0
 38 39  1  0
 38 40  2  0
 40 41  1  0
 41 42  1  0
 41 43  1  0
 41 44  1  0
 40 45  1  0
 45 46  1  0
 45 47  2  0
 47 48  1  0
 32 49  1  0
 49 50  1  0
 49 51  1  0
 49 52  1  0
 52 53  1  0
 52 54  1  0
 22 55  1  0
 55 56  1  0
 55 57  1  0
 55 58  1  0
 58 59  1  0
 58 60  1  0
 11 61  1  0
 61 62  1  0
 61  5  2  0
 58 15  1  0
 52 24  1  0
 47 35  1  0
M  CHG  3   2  -1  10  -1  24   1
M  END
>  <UniqueID>  (82) 
78

>  <SMILES>  (82) 
Cc1ccc(OC2CC[NH+](C3CCN(C(=O)/N=c4\cc(C([NH-])=O)cc[n-]4)CC3)CC2)cc1

>  <Energy>  (82) 
92.71980812168114

>  <Genealogy>  (82) 
Cc1ccc(OC2CC[NH+](C3CCN(C(=O)N=c4cc(C([NH-])=O)cc[n-]4)CC3)CC2)cc1 (protonated)
Cc1ccc(OC2CC[NH+](C3CCN(C(=O)/N=c4\cc(C([NH-])=O)cc[n-]4)CC3)CC2)cc1 (cis-trans isomerization)
Cc1ccc(OC2CC[NH+](C3CCN(C(=O)/N=c4\cc(C([NH-])=O)cc[n-]4)CC3)CC2)cc1 (3D coordinates assigned)
Cc1ccc(OC2CC[NH+](C3CCN(C(=O)/N=c4\cc(C([NH-])=O)cc[n-]4)CC3)CC2)cc1 (nonaromatic ring conformer: 92.71980812168114 kcal/mol)

>  <smiles>  (82) 
Cc1ccc(OC2CCN(C3CCN(C(=O)N=c4cc(C(N)=O)cc[nH]4)CC3)CC2)cc1

>  <score_type>  (82) 
oracle

>  <origin>  (82) 
adg

>  <m_score__min__energy>  (82) 
-13.380000000000001

>  <m_primary>  (82) 
energy

$$$$
82:0
     RDKit          3D

 61 64  0  0  0  0  0  0  0  0999 V2000
   59.5860   26.0780   46.3470 C   0  0  0  0  0  0  0  0  0  0  0  0
   58.9410   27.1250   45.8140 C   0  0  0  0  0  0  0  0  0  0  0  0
   59.6860   28.2370   45.5730 N   0  0  0  0  0  0  0  0  0  0  0  0
   59.1430   29.4310   45.2390 C   0  0  0  0  0  0  0  0  0  0  0  0
   57.7570   29.5840   45.1980 C   0  0  0  0  0  0  0  0  0  0  0  0
   57.1770   30.9140   44.9040 C   0  0  0  0  0  0  0  0  0  0  0  0
   56.1330   30.9870   44.1990 O   0  0  0  0  0  0  0  0  0  0  0  0
   57.7710   32.1190   45.4190 N   0  0  0  0  0  0  0  0  0  0  0  0
   57.1450   33.4240   45.1540 C   0  0  0  0  0  0  0  0  0  0  0  0
   58.1950   34.5110   44.8540 C   0  0  0  0  0  0  0  0  0  0  0  0
   59.5710   34.2370   45.4930 C   0  0  0  0  0  0  0  0  0  0  0  0
   59.4410   33.3830   46.7670 C   0  0  2  0  0  0  0  0  0  0  0  0
   60.7370   33.2420   47.5340 C   0  0  0  0  0  0  0  0  0  0  0  0
   61.8100   33.5970   46.9730 O   0  0  0  0  0  0  0  0  0  0  0  0
   60.7940   32.6810   48.8580 N   0  0  0  0  0  0  0  0  0  0  0  0
   61.8420   33.1250   49.7880 C   0  0  0  0  0  0  0  0  0  0  0  0
   59.9180   31.5370   49.1710 C   0  0  0  0  0  0  0  0  0  0  0  0
   60.5530   30.2040   48.7470 C   0  0  0  0  0  0  0  0  0  0  0  0
   59.6260   29.0180   49.1060 C   0  0  0  0  0  0  0  0  0  0  0  0
   58.5090   29.4010   49.8910 O   0  0  0  0  0  0  0  0  0  0  0  0
   58.9410   30.1110   51.0360 C   0  0  0  0  0  0  0  0  0  0  0  0
   59.5200   31.4900   50.6590 C   0  0  0  0  0  0  0  0  0  0  0  0
   58.8540   32.0060   46.4100 C   0  0  0  0  0  0  0  0  0  0  0  0
   56.9450   28.4510   45.3780 C   0  0  0  0  0  0  0  0  0  0  0  0
   55.5640   28.5830   45.2410 O   0  0  0  0  0  0  0  0  0  0  0  0
   57.5220   27.1770   45.6200 C   0  0  0  0  0  0  0  0  0  0  0  0
   56.7020   26.0920   45.6220 C   0  0  0  0  0  0  0  0  0  0  0  0
   56.9500   24.8190   44.9170 C   0  0  0  0  0  0  0  0  0  0  0  0
   57.3740   23.6530   45.5230 C   0  0  0  0  0  0  0  0  0  0  0  0
   57.3900   22.6890   44.5360 C   0  0  0  0  0  0  0  0  0  0  0  0
   56.9550   23.3020   43.3760 C   0  0  0  0  0  0  0  0  0  0  0  0
   56.6750   24.5950   43.6160 N   0  0  0  0  0  0  0  0  0  0  0  0
   59.0396   25.1487   46.5657 H   0  0  0  0  0  0  0  0  0  0  0  0
   60.6618   26.1480   46.5657 H   0  0  0  0  0  0  0  0  0  0  0  0
   59.7963   30.2829   44.9993 H   0  0  0  0  0  0  0  0  0  0  0  0
   56.4742   33.3279   44.2875 H   0  0  0  0  0  0  0  0  0  0  0  0
   56.5878   33.7253   46.0533 H   0  0  0  0  0  0  0  0  0  0  0  0
   58.3253   34.5764   43.7637 H   0  0  0  0  0  0  0  0  0  0  0  0
   57.8197   35.4491   45.2890 H   0  0  0  0  0  0  0  0  0  0  0  0
   60.2021   33.7029   44.7674 H   0  0  0  0  0  0  0  0  0  0  0  0
   60.0220   35.2017   45.7686 H   0  0  0  0  0  0  0  0  0  0  0  0
   58.7552   33.9137   47.4439 H   0  0  0  0  0  0  0  0  0  0  0  0
   61.4992   32.9798   50.8231 H   0  0  0  0  0  0  0  0  0  0  0  0
   62.7559   32.5368   49.6185 H   0  0  0  0  0  0  0  0  0  0  0  0
   62.0552   34.1907   49.6185 H   0  0  0  0  0  0  0  0  0  0  0  0
   58.9990   31.6871   48.5855 H   0  0  0  0  0  0  0  0  0  0  0  0
   60.7220   30.2141   47.6601 H   0  0  0  0  0  0  0  0  0  0  0  0
   61.5071   30.0812   49.2804 H   0  0  0  0  0  0  0  0  0  0  0  0
   59.2591   28.5659   48.1727 H   0  0  0  0  0  0  0  0  0  0  0  0
   60.2181   28.3089   49.7032 H   0  0  0  0  0  0  0  0  0  0  0  0
   58.0850   30.2550   51.7117 H   0  0  0  0  0  0  0  0  0  0  0  0
   59.7326   29.5262   51.5273 H   0  0  0  0  0  0  0  0  0  0  0  0
   58.7618   32.2630   50.8526 H   0  0  0  0  0  0  0  0  0  0  0  0
   60.4191   31.6693   51.2668 H   0  0  0  0  0  0  0  0  0  0  0  0
   59.6530   31.3740   45.9951 H   0  0  0  0  0  0  0  0  0  0  0  0
   58.4373   31.5616   47.3259 H   0  0  0  0  0  0  0  0  0  0  0  0
   55.7700   26.1701   46.2011 H   0  0  0  0  0  0  0  0  0  0  0  0
   57.6448   23.5194   46.5807 H   0  0  0  0  0  0  0  0  0  0  0  0
   57.6905   21.6370   44.6501 H   0  0  0  0  0  0  0  0  0  0  0  0
   56.8529   22.8051   42.4000 H   0  0  0  0  0  0  0  0  0  0  0  0
   56.2930   25.2800   42.9260 H   0  0  0  0  0  0  0  0  0  0  0  0
  1  2  2  0
  2  3  1  0
  3  4  2  0
  4  5  1  0
  5  6  1  0
  6  7  2  0
  6  8  1  0
  8  9  1  0
  9 10  1  0
 10 11  1  0
 11 12  1  0
 12 13  1  0
 13 14  2  0
 13 15  1  0
 15 16  1  0
 15 17  1  0
 17 18  1  0
 18 19  1  0
 19 20  1  0
 20 21  1  0
 21 22  1  0
 12 23  1  0
  5 24  2  0
 24 25  1  0
 24 26  1  0
 26 27  2  3
 27 28  1  0
 28 29  2  0
 29 30  1  0
 30 31  2  0
 31 32  1  0
 26  2  1  0
 32 28  1  0
 23  8  1  0
 22 17  1  0
  1 33  1  0
  1 34  1  0
  4 35  1  0
  9 36  1  0
  9 37  1  0
 10 38  1  0
 10 39  1  0
 11 40  1  0
 11 41  1  0
 12 42  1  1
 16 43  1  0
 16 44  1  0
 16 45  1  0
 17 46  1  0
 18 47  1  0
 18 48  1  0
 19 49  1  0
 19 50  1  0
 21 51  1  0
 21 52  1  0
 22 53  1  0
 22 54  1  0
 23 55  1  0
 23 56  1  0
 27 57  1  0
 29 58  1  0
 30 59  1  0
 31 60  1  0
 32 61  1  0
M  CHG  1  25  -1
M  END
>  <UniqueID>  (83) 
79

>  <SMILES>  (83) 
C=c1ncc(C(=O)N2CCC[C@H](C(=O)N(C)C3CCOCC3)C2)c([O-])c1=Cc1ccc[nH]1

>  <Energy>  (83) 
130.12048852609925

>  <Genealogy>  (83) 
C=c1ncc(C(=O)N2CCCC(C(=O)N(C)C3CCOCC3)C2)c([O-])c1=Cc1ccc[nH]1 (protonated)
C=c1ncc(C(=O)N2CCC[C@H](C(=O)N(C)C3CCOCC3)C2)c([O-])c1=Cc1ccc[nH]1 (chirality)
C=c1ncc(C(=O)N2CCC[C@H](C(=O)N(C)C3CCOCC3)C2)c([O-])c1=Cc1ccc[nH]1 (3D coordinates assigned)
C=c1ncc(C(=O)N2CCC[C@H](C(=O)N(C)C3CCOCC3)C2)c([O-])c1=Cc1ccc[nH]1 (nonaromatic ring conformer: 130.12048852609925 kcal/mol)

>  <smiles>  (83) 
C=c1ncc(C(=O)N2CCCC(C(=O)N(C)C3CCOCC3)C2)c(O)c1=Cc1ccc[nH]1

>  <score_type>  (83) 
oracle

>  <origin>  (83) 
adg

>  <m_score__min__energy>  (83) 
-13.109999999999999

>  <m_primary>  (83) 
energy

$$$$
83:0
     RDKit          3D

 43 45  0  0  0  0  0  0  0  0999 V2000
   57.5352   29.3761   43.7906 H   0  0  0  0  0  0  0  0  0  0  0  0
   57.1640   28.5500   44.4150 C   0  0  0  0  0  0  0  0  0  0  0  0
   56.3058   27.9494   44.0792 H   0  0  0  0  0  0  0  0  0  0  0  0
   57.7580   28.2750   45.5860 C   0  0  0  0  0  0  0  0  0  0  0  0
   57.3890   27.2600   46.4700 C   0  0  0  0  0  0  0  0  0  0  0  0
   56.2520   26.3150   46.4080 C   0  0  0  0  0  0  0  0  0  0  0  0
   55.1370   26.7080   45.9720 O   0  0  0  0  0  0  0  0  0  0  0  0
   56.3880   24.9890   46.7940 O   0  0  0  0  0  0  0  0  0  0  0  0
   58.3040   27.2920   47.5020 C   0  0  0  0  0  0  0  0  0  0  0  0
   58.3237   26.6257   48.3770 H   0  0  0  0  0  0  0  0  0  0  0  0
   59.1950   28.3210   47.2310 C   0  0  0  0  0  0  0  0  0  0  0  0
   60.2190   28.6850   48.0320 C   0  0  0  0  0  0  0  0  0  0  0  0
   61.2195   28.2883   47.8045 H   0  0  0  0  0  0  0  0  0  0  0  0
   60.0770   29.5820   49.1930 C   0  0  0  0  0  0  0  0  0  0  0  0
   61.0070   29.6200   50.0420 O   0  0  0  0  0  0  0  0  0  0  0  0
   58.8860   30.3680   49.3750 N   0  0  0  0  0  0  0  0  0  0  0  0
   58.1440   30.3230   48.6400 H   0  0  0  0  0  0  0  0  0  0  0  0
   58.6930   31.3020   50.4500 C   0  0  0  0  0  0  0  0  0  0  0  0
   57.5350   31.2760   51.2480 C   0  0  0  0  0  0  0  0  0  0  0  0
   56.7617   30.5150   51.0668 H   0  0  0  0  0  0  0  0  0  0  0  0
   57.3630   32.2140   52.2710 C   0  0  0  0  0  0  0  0  0  0  0  0
   56.4602   32.1818   52.8986 H   0  0  0  0  0  0  0  0  0  0  0  0
   58.3350   33.1920   52.4980 C   0  0  0  0  0  0  0  0  0  0  0  0
   58.2011   33.9239   53.3082 H   0  0  0  0  0  0  0  0  0  0  0  0
   59.4780   33.2390   51.6940 C   0  0  0  0  0  0  0  0  0  0  0  0
   60.4170   34.1940   51.9060 F   0  0  0  0  0  0  0  0  0  0  0  0
   59.6520   32.3030   50.6690 C   0  0  0  0  0  0  0  0  0  0  0  0
   60.5464   32.3519   50.0305 H   0  0  0  0  0  0  0  0  0  0  0  0
   58.8490   28.9360   46.0640 N   0  0  0  0  0  0  0  0  0  0  0  0
   59.5370   30.0630   45.4010 C   0  0  0  0  0  0  0  0  0  0  0  0
   60.6241   29.9178   45.4851 H   0  0  0  0  0  0  0  0  0  0  0  0
   59.2262   30.0855   44.3461 H   0  0  0  0  0  0  0  0  0  0  0  0
   59.1670   31.3860   46.0340 C   0  0  0  0  0  0  0  0  0  0  0  0
   60.1220   32.0850   46.7970 C   0  0  0  0  0  0  0  0  0  0  0  0
   61.1319   31.6672   46.9219 H   0  0  0  0  0  0  0  0  0  0  0  0
   59.7980   33.3050   47.3970 C   0  0  0  0  0  0  0  0  0  0  0  0
   60.5548   33.8480   47.9822 H   0  0  0  0  0  0  0  0  0  0  0  0
   58.5140   33.8350   47.2540 C   0  0  0  0  0  0  0  0  0  0  0  0
   58.2615   34.7981   47.7216 H   0  0  0  0  0  0  0  0  0  0  0  0
   57.5510   33.1430   46.5180 C   0  0  0  0  0  0  0  0  0  0  0  0
   56.5386   33.5601   46.4129 H   0  0  0  0  0  0  0  0  0  0  0  0
   57.8670   31.9210   45.9130 C   0  0  0  0  0  0  0  0  0  0  0  0
   56.8810   31.2490   45.2020 O   0  0  0  0  0  0  0  0  0  0  0  0
  1  2  1  0
  2  3  1  0
  2  4  2  0
  4  5  1  0
  5  6  1  0
  6  7  2  0
  6  8  1  0
  5  9  2  0
  9 10  1  0
  9 11  1  0
 11 12  2  0
 12 13  1  0
 12 14  1  0
 14 15  2  0
 14 16  1  0
 16 17  1  0
 16 18  1  0
 18 19  2  0
 19 20  1  0
 19 21  1  0
 21 22  1  0
 21 23  2  0
 23 24  1  0
 23 25  1  0
 25 26  1  0
 25 27  2  0
 27 28  1  0
 11 29  1  0
 29 30  1  0
 30 31  1  0
 30 32  1  0
 30 33  1  0
 33 34  2  0
 34 35  1  0
 34 36  1  0
 36 37  1  0
 36 38  2  0
 38 39  1  0
 38 40  1  0
 40 41  1  0
 40 42  2  0
 42 43  1  0
 29  4  1  0
 42 33  1  0
 27 18  1  0
M  CHG  2   8  -1  43  -1
M  END
>  <UniqueID>  (84) 
80

>  <SMILES>  (84) 
C=c1c(C(=O)[O-])c/c(=C\C(=O)Nc2cccc(F)c2)n1Cc1ccccc1[O-]

>  <Energy>  (84) 
88.99964819059203

>  <Genealogy>  (84) 
C=c1c(C(=O)[O-])cc(=CC(=O)Nc2cccc(F)c2)n1Cc1ccccc1[O-] (protonated)
C=c1c(C(=O)[O-])c/c(=C\C(=O)Nc2cccc(F)c2)n1Cc1ccccc1[O-] (cis-trans isomerization)
C=c1c(C(=O)[O-])c/c(=C\C(=O)Nc2cccc(F)c2)n1Cc1ccccc1[O-] (3D coordinates assigned)
C=c1c(C(=O)[O-])c/c(=C\C(=O)Nc2cccc(F)c2)n1Cc1ccccc1[O-] (optimized conformer: 88.99964819059203 kcal/mol)

>  <smiles>  (84) 
C=c1c(C(=O)O)cc(=CC(=O)Nc2cccc(F)c2)n1Cc1ccccc1O

>  <score_type>  (84) 
oracle

>  <origin>  (84) 
adg

>  <m_score__min__energy>  (84) 
-11.99

>  <m_primary>  (84) 
energy

$$$$
84:0
     RDKit          3D

 56 59  0  0  0  0  0  0  0  0999 V2000
   52.0686   28.1340   53.7857 H   0  0  0  0  0  0  0  0  0  0  0  0
   53.1440   27.9050   53.7530 C   0  0  0  0  0  0  0  0  0  0  0  0
   53.5257   26.9881   54.2258 H   0  0  0  0  0  0  0  0  0  0  0  0
   53.9920   28.7460   53.1350 C   0  0  0  0  0  0  0  0  0  0  0  0
   55.3570   28.4010   53.1250 C   0  0  0  0  0  0  0  0  0  0  0  0
   55.6627   27.3926   53.4406 H   0  0  0  0  0  0  0  0  0  0  0  0
   56.3260   29.3160   52.7220 C   0  0  0  0  0  0  0  0  0  0  0  0
   57.3853   29.0195   52.7143 H   0  0  0  0  0  0  0  0  0  0  0  0
   55.9660   30.6080   52.3270 C   0  0  0  0  0  0  0  0  0  0  0  0
   57.0290   31.5880   52.0000 C   0  0  0  0  0  0  0  0  0  0  0  0
   56.7100   32.8110   52.0000 O   0  0  0  0  0  0  0  0  0  0  0  0
   58.4130   31.2160   51.7660 N   0  0  0  0  0  0  0  0  0  0  0  0
   59.4360   32.2280   51.5080 C   0  0  0  0  0  0  0  0  0  0  0  0
   59.0519   33.2169   51.7988 H   0  0  0  0  0  0  0  0  0  0  0  0
   60.3356   31.9903   52.0947 H   0  0  0  0  0  0  0  0  0  0  0  0
   59.7950   32.2410   50.0200 C   0  0  0  0  0  0  0  0  0  0  0  0
   59.1135   32.9370   49.5090 H   0  0  0  0  0  0  0  0  0  0  0  0
   60.8503   32.5449   49.9574 H   0  0  0  0  0  0  0  0  0  0  0  0
   59.6980   30.9240   49.3490 N   0  0  0  0  0  0  0  0  0  0  0  0
   60.0850   30.8730   47.9530 C   0  0  0  0  0  0  0  0  0  0  0  0
   60.8170   31.7880   47.4780 O   0  0  0  0  0  0  0  0  0  0  0  0
   59.5510   29.8360   46.9960 C   0  0  0  0  0  0  0  0  0  0  0  0
   60.2309   29.7608   46.1346 H   0  0  0  0  0  0  0  0  0  0  0  0
   59.4860   28.8758   47.5287 H   0  0  0  0  0  0  0  0  0  0  0  0
   58.1470   30.2040   46.4930 C   0  0  0  0  0  0  0  0  0  0  0  0
   57.8519   29.4881   45.7117 H   0  0  0  0  0  0  0  0  0  0  0  0
   57.4606   30.1660   47.3517 H   0  0  0  0  0  0  0  0  0  0  0  0
   58.0930   31.5990   45.9190 C   0  0  0  0  0  0  0  0  0  0  0  0
   58.2120   31.8050   44.5340 C   0  0  0  0  0  0  0  0  0  0  0  0
   58.3528   30.9457   43.8618 H   0  0  0  0  0  0  0  0  0  0  0  0
   58.1520   33.0990   44.0080 C   0  0  0  0  0  0  0  0  0  0  0  0
   58.2655   33.2570   42.9253 H   0  0  0  0  0  0  0  0  0  0  0  0
   57.9480   34.1930   44.8550 C   0  0  0  0  0  0  0  0  0  0  0  0
   57.8946   35.2095   44.4379 H   0  0  0  0  0  0  0  0  0  0  0  0
   57.8120   33.9940   46.2320 C   0  0  0  0  0  0  0  0  0  0  0  0
   57.6434   34.8535   46.8974 H   0  0  0  0  0  0  0  0  0  0  0  0
   57.8900   32.7040   46.7640 C   0  0  0  0  0  0  0  0  0  0  0  0
   57.7921   32.5526   47.8491 H   0  0  0  0  0  0  0  0  0  0  0  0
   59.1240   29.7140   49.9820 C   0  0  0  0  0  0  0  0  0  0  0  0
   58.1682   29.4855   49.4877 H   0  0  0  0  0  0  0  0  0  0  0  0
   59.8658   28.9105   49.8627 H   0  0  0  0  0  0  0  0  0  0  0  0
   58.8660   29.8590   51.4860 C   0  0  0  0  0  0  0  0  0  0  0  0
   58.0927   29.1414   51.7975 H   0  0  0  0  0  0  0  0  0  0  0  0
   59.7939   29.6572   52.0413 H   0  0  0  0  0  0  0  0  0  0  0  0
   54.6100   30.9630   52.3280 C   0  0  0  0  0  0  0  0  0  0  0  0
   54.3277   32.0021   52.1033 H   0  0  0  0  0  0  0  0  0  0  0  0
   53.5980   30.0210   52.6100 C   0  0  0  0  0  0  0  0  0  0  0  0
   52.3200   30.3950   52.3400 C   0  0  0  0  0  0  0  0  0  0  0  0
   51.6002   30.3461   53.1704 H   0  0  0  0  0  0  0  0  0  0  0  0
   51.8080   30.8600   51.0390 C   0  0  0  0  0  0  0  0  0  0  0  0
   51.7240   30.0740   49.9500 N   0  0  0  0  0  0  0  0  0  0  0  0
   51.1050   30.8600   49.0430 C   0  0  0  0  0  0  0  0  0  0  0  0
   50.8480   30.4740   47.8750 O   0  0  0  0  0  0  0  0  0  0  0  0
   50.7670   32.0880   49.4910 N   0  0  0  0  0  0  0  0  0  0  0  0
   51.2050   32.0690   50.7600 C   0  0  0  0  0  0  0  0  0  0  0  0
   51.0220   33.1160   51.6520 O   0  0  0  0  0  0  0  0  0  0  0  0
  1  2  1  0
  2  3  1  0
  2  4  2  0
  4  5  1  0
  5  6  1  0
  5  7  2  0
  7  8  1  0
  7  9  1  0
  9 10  1  0
 10 11  2  0
 10 12  1  0
 12 13  1  0
 13 14  1  0
 13 15  1  0
 13 16  1  0
 16 17  1  0
 16 18  1  0
 16 19  1  0
 19 20  1  0
 20 21  2  0
 20 22  1  0
 22 23  1  0
 22 24  1  0
 22 25  1  0
 25 26  1  0
 25 27  1  0
 25 28  1  0
 28 29  2  0
 29 30  1  0
 29 31  1  0
 31 32  1  0
 31 33  2  0
 33 34  1  0
 33 35  1  0
 35 36  1  0
 35 37  2  0
 37 38  1  0
 19 39  1  0
 39 40  1  0
 39 41  1  0
 39 42  1  0
 42 43  1  0
 42 44  1  0
  9 45  2  0
 45 46  1  0
 45 47  1  0
 47 48  2  0
 48 49  1  0
 48 50  1  0
 50 51  1  0
 51 52  1  0
 52 53  2  0
 52 54  1  0
 54 55  1  0
 55 56  1  0
 47  4  1  0
 55 50  2  0
 42 12  1  0
 37 28  1  0
M  CHG  3  51  -1  54  -1  56  -1
M  END
>  <UniqueID>  (85) 
81

>  <SMILES>  (85) 
C=c1ccc(C(=O)N2CCN(C(=O)CCc3ccccc3)CC2)c/c1=C/c1[n-]c(=O)[n-]c1[O-]

>  <Energy>  (85) 
115.54973525383592

>  <Genealogy>  (85) 
C=c1ccc(C(=O)N2CCN(C(=O)CCc3ccccc3)CC2)cc1=Cc1[n-]c(=O)[n-]c1[O-] (protonated)
C=c1ccc(C(=O)N2CCN(C(=O)CCc3ccccc3)CC2)c/c1=C/c1[n-]c(=O)[n-]c1[O-] (cis-trans isomerization)
C=c1ccc(C(=O)N2CCN(C(=O)CCc3ccccc3)CC2)c/c1=C/c1[n-]c(=O)[n-]c1[O-] (3D coordinates assigned)
C=c1ccc(C(=O)N2CCN(C(=O)CCc3ccccc3)CC2)c/c1=C/c1[n-]c(=O)[n-]c1[O-] (nonaromatic ring conformer: 115.54973525383592 kcal/mol)

>  <smiles>  (85) 
C=c1ccc(C(=O)N2CCN(C(=O)CCc3ccccc3)CC2)cc1=Cc1[nH]c(=O)[nH]c1O

>  <score_type>  (85) 
oracle

>  <origin>  (85) 
adg

>  <m_score__min__energy>  (85) 
-20.030000000000001

>  <m_primary>  (85) 
energy

$$$$
85:0
     RDKit          3D

 66 70  0  0  0  0  0  0  0  0999 V2000
   58.9970   32.6590   51.0850 O   0  0  0  0  0  0  0  0  0  0  0  0
   59.3870   32.6080   49.8900 C   0  0  0  0  0  0  0  0  0  0  0  0
   59.5530   33.8330   49.1650 N   0  0  0  0  0  0  0  0  0  0  0  0
   59.1940   34.0330   47.7890 C   0  0  0  0  0  0  0  0  0  0  0  0
   59.9680   34.8900   46.9980 C   0  0  0  0  0  0  0  0  0  0  0  0
   59.6500   35.0840   45.6500 C   0  0  0  0  0  0  0  0  0  0  0  0
   58.5670   34.4090   45.0800 C   0  0  0  0  0  0  0  0  0  0  0  0
   57.7970   33.5300   45.8560 C   0  0  0  0  0  0  0  0  0  0  0  0
   56.6710   32.7380   45.2450 C   0  0  0  0  0  0  0  0  0  0  0  0
   57.1070   31.3490   45.0060 N   0  0  0  0  0  0  0  0  0  0  0  0
   58.5750   31.2150   45.1240 C   0  0  0  0  0  0  0  0  0  0  0  0
   59.0800   29.8710   44.5580 C   0  0  0  0  0  0  0  0  0  0  0  0
   58.0050   28.8600   44.4610 N   0  0  0  0  0  0  0  0  0  0  0  0
   57.5060   28.3950   45.7770 C   0  0  0  0  0  0  0  0  0  0  0  0
   57.3700   26.8940   45.8240 C   0  0  0  0  0  0  0  0  0  0  0  0
   58.4980   26.0800   45.6390 C   0  0  0  0  0  0  0  0  0  0  0  0
   58.3780   24.6880   45.7000 C   0  0  0  0  0  0  0  0  0  0  0  0
   57.1340   24.1020   45.9500 C   0  0  0  0  0  0  0  0  0  0  0  0
   56.0030   24.9080   46.1400 C   0  0  0  0  0  0  0  0  0  0  0  0
   54.7590   24.3350   46.3940 O   0  0  0  0  0  0  0  0  0  0  0  0
   56.1230   26.3000   46.0780 C   0  0  0  0  0  0  0  0  0  0  0  0
   56.9040   29.3340   43.5870 C   0  0  0  0  0  0  0  0  0  0  0  0
   56.6440   30.8530   43.7010 C   0  0  0  0  0  0  0  0  0  0  0  0
   58.1190   33.3410   47.2080 C   0  0  0  0  0  0  0  0  0  0  0  0
   59.5830   31.2940   49.2320 C   0  0  0  0  0  0  0  0  0  0  0  0
   58.5610   30.3320   49.3330 C   0  0  0  0  0  0  0  0  0  0  0  0
   58.6810   29.0950   48.6970 C   0  0  0  0  0  0  0  0  0  0  0  0
   59.8190   28.8030   47.9460 C   0  0  0  0  0  0  0  0  0  0  0  0
   60.8410   29.7460   47.8290 C   0  0  0  0  0  0  0  0  0  0  0  0
   60.7400   30.9920   48.4700 C   0  0  0  0  0  0  0  0  0  0  0  0
   61.8190   31.9750   48.2590 C   0  0  0  0  0  0  0  0  0  0  0  0
   62.5570   32.4530   49.3540 C   0  0  0  0  0  0  0  0  0  0  0  0
   63.5410   33.4270   49.1640 C   0  0  0  0  0  0  0  0  0  0  0  0
   63.7980   33.9240   47.8830 C   0  0  0  0  0  0  0  0  0  0  0  0
   63.0610   33.4570   46.7900 C   0  0  0  0  0  0  0  0  0  0  0  0
   62.0660   32.4920   46.9780 C   0  0  0  0  0  0  0  0  0  0  0  0
   60.8297   35.4129   47.4384 H   0  0  0  0  0  0  0  0  0  0  0  0
   60.2536   35.7694   45.0369 H   0  0  0  0  0  0  0  0  0  0  0  0
   58.3179   34.5674   44.0204 H   0  0  0  0  0  0  0  0  0  0  0  0
   55.8110   32.7376   45.9309 H   0  0  0  0  0  0  0  0  0  0  0  0
   56.3826   33.1971   44.2879 H   0  0  0  0  0  0  0  0  0  0  0  0
   59.0523   32.0360   44.5689 H   0  0  0  0  0  0  0  0  0  0  0  0
   58.8350   31.2531   46.1922 H   0  0  0  0  0  0  0  0  0  0  0  0
   59.4938   30.0440   43.5536 H   0  0  0  0  0  0  0  0  0  0  0  0
   59.8440   29.4828   45.2476 H   0  0  0  0  0  0  0  0  0  0  0  0
   58.2116   28.7135   46.5585 H   0  0  0  0  0  0  0  0  0  0  0  0
   56.5110   28.8345   45.9409 H   0  0  0  0  0  0  0  0  0  0  0  0
   59.4792   26.5380   45.4455 H   0  0  0  0  0  0  0  0  0  0  0  0
   59.2640   24.0534   45.5510 H   0  0  0  0  0  0  0  0  0  0  0  0
   57.0423   23.0069   45.9977 H   0  0  0  0  0  0  0  0  0  0  0  0
   54.6690   23.4730   46.9180 H   0  0  0  0  0  0  0  0  0  0  0  0
   55.2361   26.9329   46.2290 H   0  0  0  0  0  0  0  0  0  0  0  0
   57.1619   29.1013   42.5433 H   0  0  0  0  0  0  0  0  0  0  0  0
   55.9866   28.8211   43.9115 H   0  0  0  0  0  0  0  0  0  0  0  0
   57.1866   31.3760   42.8997 H   0  0  0  0  0  0  0  0  0  0  0  0
   55.5643   31.0413   43.6069 H   0  0  0  0  0  0  0  0  0  0  0  0
   57.5246   32.6450   47.8182 H   0  0  0  0  0  0  0  0  0  0  0  0
   57.6579   30.5570   49.9193 H   0  0  0  0  0  0  0  0  0  0  0  0
   57.8770   28.3499   48.7884 H   0  0  0  0  0  0  0  0  0  0  0  0
   59.9113   27.8280   47.4451 H   0  0  0  0  0  0  0  0  0  0  0  0
   61.7332   29.5117   47.2298 H   0  0  0  0  0  0  0  0  0  0  0  0
   62.3603   32.0603   50.3625 H   0  0  0  0  0  0  0  0  0  0  0  0
   64.1143   33.8032   50.0241 H   0  0  0  0  0  0  0  0  0  0  0  0
   64.5804   34.6829   47.7346 H   0  0  0  0  0  0  0  0  0  0  0  0
   63.2638   33.8486   45.7823 H   0  0  0  0  0  0  0  0  0  0  0  0
   61.4759   32.1377   46.1199 H   0  0  0  0  0  0  0  0  0  0  0  0
  1  2  2  0
  2  3  1  0
  3  4  1  0
  4  5  2  0
  5  6  1  0
  6  7  2  0
  7  8  1  0
  8  9  1  0
  9 10  1  0
 10 11  1  0
 11 12  1  0
 12 13  1  0
 13 14  1  0
 14 15  1  0
 15 16  2  0
 16 17  1  0
 17 18  2  0
 18 19  1  0
 19 20  1  0
 19 21  2  0
 13 22  1  0
 22 23  1  0
  8 24  2  0
  2 25  1  0
 25 26  2  0
 26 27  1  0
 27 28  2  0
 28 29  1  0
 29 30  2  0
 30 31  1  0
 31 32  2  0
 32 33  1  0
 33 34  2  0
 34 35  1  0
 35 36  2  0
 24  4  1  0
 30 25  1  0
 36 31  1  0
 23 10  1  0
 21 15  1  0
  5 37  1  0
  6 38  1  0
  7 39  1  0
  9 40  1  0
  9 41  1  0
 11 42  1  0
 11 43  1  0
 12 44  1  0
 12 45  1  0
 14 46  1  0
 14 47  1  0
 16 48  1  0
 17 49  1  0
 18 50  1  0
 20 51  1  0
 21 52  1  0
 22 53  1  0
 22 54  1  0
 23 55  1  0
 23 56  1  0
 24 57  1  0
 26 58  1  0
 27 59  1  0
 28 60  1  0
 29 61  1  0
 32 62  1  0
 33 63  1  0
 34 64  1  0
 35 65  1  0
 36 66  1  0
M  CHG  1   3  -1
M  END
>  <UniqueID>  (86) 
82

>  <SMILES>  (86) 
O=C([N-]c1cccc(CN2CCN(Cc3cccc(O)c3)CC2)c1)c1ccccc1-c1ccccc1

>  <Energy>  (86) 
95.52115025436811

>  <Genealogy>  (86) 
O=C([N-]c1cccc(CN2CCN(Cc3cccc(O)c3)CC2)c1)c1ccccc1-c1ccccc1 (protonated)
O=C([N-]c1cccc(CN2CCN(Cc3cccc(O)c3)CC2)c1)c1ccccc1-c1ccccc1 (3D coordinates assigned)
O=C([N-]c1cccc(CN2CCN(Cc3cccc(O)c3)CC2)c1)c1ccccc1-c1ccccc1 (nonaromatic ring conformer: 95.52115025436811 kcal/mol)

>  <smiles>  (86) 
O=C(Nc1cccc(CN2CCN(Cc3cccc(O)c3)CC2)c1)c1ccccc1-c1ccccc1

>  <score_type>  (86) 
oracle

>  <origin>  (86) 
adg

>  <m_score__min__energy>  (86) 
-12.050000000000001

>  <m_primary>  (86) 
energy

$$$$
86:0
     RDKit          3D

 47 50  0  0  0  0  0  0  0  0999 V2000
   59.4916   29.5570   52.6307 H   0  0  0  0  0  0  0  0  0  0  0  0
   58.5190   29.0650   52.7790 C   0  0  0  0  0  0  0  0  0  0  0  0
   58.4768   27.9959   53.0346 H   0  0  0  0  0  0  0  0  0  0  0  0
   57.3920   29.7640   52.6490 C   0  0  0  0  0  0  0  0  0  0  0  0
   55.8550   29.1180   52.8520 S   0  0  0  0  0  0  0  0  0  0  0  0
   55.0120   30.5580   52.6280 C   0  0  0  0  0  0  0  0  0  0  0  0
   53.6770   30.6540   52.7030 C   0  0  0  0  0  0  0  0  0  0  0  0
   53.2186   30.6243   53.7025 H   0  0  0  0  0  0  0  0  0  0  0  0
   52.7760   30.7970   51.5390 C   0  0  0  0  0  0  0  0  0  0  0  0
   52.8850   30.0750   50.4080 N   0  0  0  0  0  0  0  0  0  0  0  0
   51.8210   30.4500   49.6690 C   0  0  0  0  0  0  0  0  0  0  0  0
   51.6132   30.0490   48.6660 H   0  0  0  0  0  0  0  0  0  0  0  0
   51.0360   31.3630   50.2760 N   0  0  0  0  0  0  0  0  0  0  0  0
   51.6350   31.5790   51.4600 C   0  0  0  0  0  0  0  0  0  0  0  0
   51.1160   32.5390   52.4490 C   0  0  0  0  0  0  0  0  0  0  0  0
   51.1130   32.2690   53.6790 O   0  0  0  0  0  0  0  0  0  0  0  0
   50.6400   33.7720   52.0240 O   0  0  0  0  0  0  0  0  0  0  0  0
   55.9380   31.5790   52.4000 C   0  0  0  0  0  0  0  0  0  0  0  0
   55.6515   32.6294   52.2435 H   0  0  0  0  0  0  0  0  0  0  0  0
   57.2710   31.1340   52.3900 C   0  0  0  0  0  0  0  0  0  0  0  0
   58.4000   32.0580   52.1650 C   0  0  0  0  0  0  0  0  0  0  0  0
   58.8420   32.7260   53.1400 O   0  0  0  0  0  0  0  0  0  0  0  0
   58.9670   32.2440   50.8540 N   0  0  0  0  0  0  0  0  0  0  0  0
   58.1080   32.1820   49.6650 C   0  0  0  0  0  0  0  0  0  0  0  0
   57.8033   31.1388   49.4947 H   0  0  0  0  0  0  0  0  0  0  0  0
   57.2259   32.8168   49.8350 H   0  0  0  0  0  0  0  0  0  0  0  0
   58.8500   32.6960   48.4280 C   0  0  0  0  0  0  0  0  0  0  0  0
   59.6015   31.9546   48.1189 H   0  0  0  0  0  0  0  0  0  0  0  0
   58.1290   32.8557   47.6127 H   0  0  0  0  0  0  0  0  0  0  0  0
   59.5210   33.9720   48.7410 N   0  0  0  0  0  0  0  0  0  0  0  0
   59.9770   34.6440   47.4950 C   0  0  0  0  0  0  0  0  0  0  0  0
   60.3302   35.5748   47.9629 H   0  0  0  0  0  0  0  0  0  0  0  0
   60.9170   33.8210   46.6120 C   0  0  0  0  0  0  0  0  0  0  0  0
   61.8682   34.3214   46.3779 H   0  0  0  0  0  0  0  0  0  0  0  0
   61.3139   32.8571   46.9634 H   0  0  0  0  0  0  0  0  0  0  0  0
   59.8900   33.8730   45.4850 C   0  0  0  0  0  0  0  0  0  0  0  0
   60.2396   34.4007   44.5854 H   0  0  0  0  0  0  0  0  0  0  0  0
   59.5355   32.9426   45.0173 H   0  0  0  0  0  0  0  0  0  0  0  0
   58.9510   34.6960   46.3610 C   0  0  0  0  0  0  0  0  0  0  0  0
   58.7517   35.7085   45.9801 H   0  0  0  0  0  0  0  0  0  0  0  0
   57.9139   34.3704   46.5294 H   0  0  0  0  0  0  0  0  0  0  0  0
   60.5200   33.8730   49.8450 C   0  0  0  0  0  0  0  0  0  0  0  0
   61.5275   33.8870   49.4037 H   0  0  0  0  0  0  0  0  0  0  0  0
   60.3429   34.7268   50.5156 H   0  0  0  0  0  0  0  0  0  0  0  0
   60.3800   32.5980   50.6950 C   0  0  0  0  0  0  0  0  0  0  0  0
   60.9074   31.7707   50.1975 H   0  0  0  0  0  0  0  0  0  0  0  0
   60.8165   32.7809   51.6880 H   0  0  0  0  0  0  0  0  0  0  0  0
  1  2  1  0
  2  3  1  0
  2  4  2  0
  4  5  1  0
  5  6  1  0
  6  7  2  0
  7  8  1  0
  7  9  1  0
  9 10  1  0
 10 11  2  0
 11 12  1  0
 11 13  1  0
 13 14  1  0
 14 15  1  0
 15 16  2  0
 15 17  1  0
  6 18  1  0
 18 19  1  0
 18 20  2  0
 20 21  1  0
 21 22  2  0
 21 23  1  0
 23 24  1  0
 24 25  1  0
 24 26  1  0
 24 27  1  0
 27 28  1  0
 27 29  1  0
 27 30  1  0
 30 31  1  0
 31 32  1  0
 31 33  1  0
 33 34  1  0
 33 35  1  0
 33 36  1  0
 36 37  1  0
 36 38  1  0
 36 39  1  0
 39 40  1  0
 39 41  1  0
 30 42  1  0
 42 43  1  0
 42 44  1  0
 42 45  1  0
 45 46  1  0
 45 47  1  0
 20  4  1  0
 45 23  1  0
 14  9  2  0
 39 31  1  0
M  CHG  2  13  -1  17  -1
M  END
>  <UniqueID>  (87) 
83

>  <SMILES>  (87) 
C=c1s/c(=C/c2nc[n-]c2C(=O)[O-])cc1C(=O)N1CCN(C2CCC2)CC1

>  <Energy>  (87) 
185.30862305246393

>  <Genealogy>  (87) 
C=c1sc(=Cc2nc[n-]c2C(=O)[O-])cc1C(=O)N1CCN(C2CCC2)CC1 (protonated)
C=c1s/c(=C/c2nc[n-]c2C(=O)[O-])cc1C(=O)N1CCN(C2CCC2)CC1 (cis-trans isomerization)
C=c1s/c(=C/c2nc[n-]c2C(=O)[O-])cc1C(=O)N1CCN(C2CCC2)CC1 (3D coordinates assigned)
C=c1s/c(=C/c2nc[n-]c2C(=O)[O-])cc1C(=O)N1CCN(C2CCC2)CC1 (nonaromatic ring conformer: 185.30862305246393 kcal/mol)

>  <smiles>  (87) 
C=c1sc(=Cc2nc[nH]c2C(=O)O)cc1C(=O)N1CCN(C2CCC2)CC1

>  <score_type>  (87) 
oracle

>  <origin>  (87) 
adg

>  <m_score__min__energy>  (87) 
-13.94

>  <m_primary>  (87) 
energy

$$$$
87:0
     RDKit          3D

 55 58  0  0  0  0  0  0  0  0999 V2000
   55.2740   30.0680   43.4050 C   0  0  0  0  0  0  0  0  0  0  0  0
   56.2430   29.6450   44.2190 C   0  0  0  0  0  0  0  0  0  0  0  0
   56.0600   28.6970   45.1590 N   0  0  0  0  0  0  0  0  0  0  0  0
   57.2490   28.5190   45.7790 C   0  0  0  0  0  0  0  0  0  0  0  0
   57.4660   27.6320   46.7670 C   0  0  0  0  0  0  0  0  0  0  0  0
   57.1180   26.2000   46.6620 C   0  0  0  0  0  0  0  0  0  0  0  0
   55.8140   25.7840   46.3440 C   0  0  0  0  0  0  0  0  0  0  0  0
   54.8050   26.7140   46.1200 O   0  0  0  0  0  0  0  0  0  0  0  0
   55.5330   24.4600   46.2370 N   0  0  0  0  0  0  0  0  0  0  0  0
   56.4980   23.5220   46.4190 C   0  0  0  0  0  0  0  0  0  0  0  0
   56.2130   22.3010   46.3200 O   0  0  0  0  0  0  0  0  0  0  0  0
   57.7690   23.9010   46.7040 N   0  0  0  0  0  0  0  0  0  0  0  0
   58.1010   25.2130   46.8220 C   0  0  0  0  0  0  0  0  0  0  0  0
   59.2910   25.5290   47.0860 O   0  0  0  0  0  0  0  0  0  0  0  0
   58.1990   29.3830   45.2370 C   0  0  0  0  0  0  0  0  0  0  0  0
   59.6180   29.5070   45.6270 C   0  0  0  0  0  0  0  0  0  0  0  0
   60.4290   28.6030   45.2860 O   0  0  0  0  0  0  0  0  0  0  0  0
   60.0860   30.6420   46.3780 N   0  0  0  0  0  0  0  0  0  0  0  0
   59.5520   31.9790   46.0650 C   0  0  0  0  0  0  0  0  0  0  0  0
   60.1950   33.0640   46.9360 C   0  0  0  0  0  0  0  0  0  0  0  0
   60.2430   32.5940   48.4010 C   0  0  0  0  0  0  0  0  0  0  0  0
   60.6730   33.7150   49.3780 C   0  0  0  0  0  0  0  0  0  0  0  0
   62.1250   33.6560   49.7980 C   0  0  0  0  0  0  0  0  0  0  0  0
   62.4760   33.7580   51.1570 C   0  0  0  0  0  0  0  0  0  0  0  0
   63.8170   33.6990   51.5490 C   0  0  0  0  0  0  0  0  0  0  0  0
   64.8190   33.5300   50.5890 C   0  0  0  0  0  0  0  0  0  0  0  0
   64.4800   33.4130   49.2390 C   0  0  0  0  0  0  0  0  0  0  0  0
   63.1400   33.4710   48.8430 C   0  0  0  0  0  0  0  0  0  0  0  0
   61.0750   31.2940   48.5640 C   0  0  0  0  0  0  0  0  0  0  0  0
   61.2560   30.5040   47.2550 C   0  0  0  0  0  0  0  0  0  0  0  0
   57.5550   30.0980   44.2360 C   0  0  0  0  0  0  0  0  0  0  0  0
   58.1500   31.1610   43.3560 C   0  0  0  0  0  0  0  0  0  0  0  0
   55.4850   30.8459   42.6565 H   0  0  0  0  0  0  0  0  0  0  0  0
   54.2642   29.6388   43.4825 H   0  0  0  0  0  0  0  0  0  0  0  0
   55.1610   28.2060   45.3650 H   0  0  0  0  0  0  0  0  0  0  0  0
   57.9256   27.9909   47.6997 H   0  0  0  0  0  0  0  0  0  0  0  0
   59.7535   32.2048   45.0075 H   0  0  0  0  0  0  0  0  0  0  0  0
   58.4708   31.9726   46.2674 H   0  0  0  0  0  0  0  0  0  0  0  0
   61.2177   33.2591   46.5811 H   0  0  0  0  0  0  0  0  0  0  0  0
   59.5981   33.9855   46.8689 H   0  0  0  0  0  0  0  0  0  0  0  0
   59.2109   32.3409   48.6852 H   0  0  0  0  0  0  0  0  0  0  0  0
   60.4956   34.6842   48.8889 H   0  0  0  0  0  0  0  0  0  0  0  0
   60.0764   33.5800   50.2922 H   0  0  0  0  0  0  0  0  0  0  0  0
   61.6901   33.8850   51.9161 H   0  0  0  0  0  0  0  0  0  0  0  0
   64.0834   33.7856   52.6127 H   0  0  0  0  0  0  0  0  0  0  0  0
   65.8743   33.4892   50.8967 H   0  0  0  0  0  0  0  0  0  0  0  0
   65.2692   33.2749   48.4853 H   0  0  0  0  0  0  0  0  0  0  0  0
   62.8789   33.3714   47.7791 H   0  0  0  0  0  0  0  0  0  0  0  0
   62.0703   31.5648   48.9461 H   0  0  0  0  0  0  0  0  0  0  0  0
   60.5208   30.6436   49.2567 H   0  0  0  0  0  0  0  0  0  0  0  0
   62.1443   30.8830   46.7285 H   0  0  0  0  0  0  0  0  0  0  0  0
   61.3752   29.4400   47.5072 H   0  0  0  0  0  0  0  0  0  0  0  0
   58.5918   31.9503   43.9820 H   0  0  0  0  0  0  0  0  0  0  0  0
   58.9306   30.7167   42.7209 H   0  0  0  0  0  0  0  0  0  0  0  0
   57.3631   31.5941   42.7209 H   0  0  0  0  0  0  0  0  0  0  0  0
  1  2  2  0
  2  3  1  0
  3  4  1  0
  4  5  2  3
  5  6  1  0
  6  7  2  0
  7  8  1  0
  7  9  1  0
  9 10  1  0
 10 11  2  0
 10 12  1  0
 12 13  1  0
 13 14  2  0
  4 15  1  0
 15 16  1  0
 16 17  2  0
 16 18  1  0
 18 19  1  0
 19 20  1  0
 20 21  1  0
 21 22  1  0
 22 23  1  0
 23 24  2  0
 24 25  1  0
 25 26  2  0
 26 27  1  0
 27 28  2  0
 21 29  1  0
 29 30  1  0
 15 31  2  0
 31 32  1  0
 31  2  1  0
 13  6  1  0
 30 18  1  0
 28 23  1  0
  1 33  1  0
  1 34  1  0
  3 35  1  0
  5 36  1  0
 19 37  1  0
 19 38  1  0
 20 39  1  0
 20 40  1  0
 21 41  1  0
 22 42  1  0
 22 43  1  0
 24 44  1  0
 25 45  1  0
 26 46  1  0
 27 47  1  0
 28 48  1  0
 29 49  1  0
 29 50  1  0
 30 51  1  0
 30 52  1  0
 32 53  1  0
 32 54  1  0
 32 55  1  0
M  CHG  3   8  -1   9  -1  12  -1
M  END
>  <UniqueID>  (88) 
84

>  <SMILES>  (88) 
C=c1[nH]c(=Cc2c([O-])[n-]c(=O)[n-]c2=O)c(C(=O)N2CCC(Cc3ccccc3)CC2)c1C

>  <Energy>  (88) 
100.77463368296722

>  <Genealogy>  (88) 
C=c1[nH]c(=Cc2c([O-])[n-]c(=O)[n-]c2=O)c(C(=O)N2CCC(Cc3ccccc3)CC2)c1C (protonated)
C=c1[nH]c(=Cc2c([O-])[n-]c(=O)[n-]c2=O)c(C(=O)N2CCC(Cc3ccccc3)CC2)c1C (3D coordinates assigned)
C=c1[nH]c(=Cc2c([O-])[n-]c(=O)[n-]c2=O)c(C(=O)N2CCC(Cc3ccccc3)CC2)c1C (nonaromatic ring conformer: 100.77463368296722 kcal/mol)

>  <smiles>  (88) 
C=c1[nH]c(=Cc2c(O)[nH]c(=O)[nH]c2=O)c(C(=O)N2CCC(Cc3ccccc3)CC2)c1C

>  <score_type>  (88) 
oracle

>  <origin>  (88) 
adg

>  <m_score__min__energy>  (88) 
-16.559999999999999

>  <m_primary>  (88) 
energy

$$$$
88:0
     RDKit          3D

 60 63  0  0  0  0  0  0  0  0999 V2000
   55.0970   31.5670   52.0450 C   0  0  0  0  0  0  0  0  0  0  0  0
   55.1230   30.2960   52.4750 C   0  0  0  0  0  0  0  0  0  0  0  0
   54.0280   29.4860   52.8280 C   0  0  0  0  0  0  0  0  0  0  0  0
   52.7020   29.6820   52.6960 C   0  0  0  0  0  0  0  0  0  0  0  0
   52.0630   30.8850   52.1440 C   0  0  0  0  0  0  0  0  0  0  0  0
   51.6580   31.9200   52.9000 N   0  0  0  0  0  0  0  0  0  0  0  0
   51.0490   32.7360   52.0120 C   0  0  0  0  0  0  0  0  0  0  0  0
   50.5420   33.8380   52.3430 O   0  0  0  0  0  0  0  0  0  0  0  0
   51.0170   32.2710   50.7460 N   0  0  0  0  0  0  0  0  0  0  0  0
   51.6480   31.0910   50.8440 C   0  0  0  0  0  0  0  0  0  0  0  0
   51.8140   30.2200   49.7710 O   0  0  0  0  0  0  0  0  0  0  0  0
   54.5640   28.3300   53.3750 C   0  0  0  0  0  0  0  0  0  0  0  0
   55.9370   28.4420   53.2870 C   0  0  0  0  0  0  0  0  0  0  0  0
   56.9180   27.4260   53.7850 C   0  0  0  0  0  0  0  0  0  0  0  0
   56.2730   29.6270   52.7390 N   0  0  0  0  0  0  0  0  0  0  0  0
   57.6130   30.1030   52.5510 C   0  0  0  0  0  0  0  0  0  0  0  0
   58.1930   30.9550   53.5000 C   0  0  0  0  0  0  0  0  0  0  0  0
   59.5050   31.3990   53.3300 C   0  0  0  0  0  0  0  0  0  0  0  0
   60.2430   30.9980   52.2120 C   0  0  0  0  0  0  0  0  0  0  0  0
   59.6690   30.1540   51.2440 C   0  0  0  0  0  0  0  0  0  0  0  0
   60.4560   29.7220   50.0680 C   0  0  0  0  0  0  0  0  0  0  0  0
   61.7140   29.7890   50.1040 O   0  0  0  0  0  0  0  0  0  0  0  0
   59.8120   29.2310   48.8820 N   0  0  0  0  0  0  0  0  0  0  0  0
   60.2900   28.0050   48.2380 C   0  0  0  0  0  0  0  0  0  0  0  0
   60.3660   28.2300   46.7260 C   0  0  0  0  0  0  0  0  0  0  0  0
   59.0530   28.6000   46.1410 N   0  0  0  0  0  0  0  0  0  0  0  0
   59.2250   29.3670   44.8890 C   0  0  0  0  0  0  0  0  0  0  0  0
   57.8800   29.5240   44.1690 C   0  0  0  0  0  0  0  0  0  0  0  0
   57.0860   30.5000   44.8170 O   0  0  0  0  0  0  0  0  0  0  0  0
   57.4960   31.7980   44.4440 C   0  0  0  0  0  0  0  0  0  0  0  0
   58.1170   29.2690   47.0860 C   0  0  0  0  0  0  0  0  0  0  0  0
   58.8330   30.0730   48.1810 C   0  0  0  0  0  0  0  0  0  0  0  0
   58.3500   29.7010   51.4280 C   0  0  0  0  0  0  0  0  0  0  0  0
   56.0366   32.0848   51.8023 H   0  0  0  0  0  0  0  0  0  0  0  0
   54.1360   32.0909   51.9352 H   0  0  0  0  0  0  0  0  0  0  0  0
   52.0391   28.8705   53.0307 H   0  0  0  0  0  0  0  0  0  0  0  0
   51.0450   29.6690   49.4120 H   0  0  0  0  0  0  0  0  0  0  0  0
   54.0020   27.4846   53.7985 H   0  0  0  0  0  0  0  0  0  0  0  0
   56.9186   27.4253   54.8850 H   0  0  0  0  0  0  0  0  0  0  0  0
   56.6319   26.4293   53.4179 H   0  0  0  0  0  0  0  0  0  0  0  0
   57.9241   27.6770   53.4179 H   0  0  0  0  0  0  0  0  0  0  0  0
   57.6141   31.2740   54.3793 H   0  0  0  0  0  0  0  0  0  0  0  0
   59.9597   32.0660   54.0772 H   0  0  0  0  0  0  0  0  0  0  0  0
   61.2795   31.3449   52.0886 H   0  0  0  0  0  0  0  0  0  0  0  0
   61.2887   27.7519   48.6233 H   0  0  0  0  0  0  0  0  0  0  0  0
   59.5976   27.1783   48.4552 H   0  0  0  0  0  0  0  0  0  0  0  0
   61.0828   29.0399   46.5252 H   0  0  0  0  0  0  0  0  0  0  0  0
   60.6846   27.2847   46.2624 H   0  0  0  0  0  0  0  0  0  0  0  0
   59.6274   30.3628   45.1264 H   0  0  0  0  0  0  0  0  0  0  0  0
   59.9206   28.8251   44.2313 H   0  0  0  0  0  0  0  0  0  0  0  0
   58.0594   29.8344   43.1291 H   0  0  0  0  0  0  0  0  0  0  0  0
   57.3493   28.5607   44.1890 H   0  0  0  0  0  0  0  0  0  0  0  0
   57.6851   32.3966   45.3473 H   0  0  0  0  0  0  0  0  0  0  0  0
   58.4177   31.7340   43.8470 H   0  0  0  0  0  0  0  0  0  0  0  0
   56.7048   32.2751   43.8470 H   0  0  0  0  0  0  0  0  0  0  0  0
   57.4733   29.9537   46.5142 H   0  0  0  0  0  0  0  0  0  0  0  0
   57.5386   28.4786   47.5868 H   0  0  0  0  0  0  0  0  0  0  0  0
   59.3530   30.9266   47.7217 H   0  0  0  0  0  0  0  0  0  0  0  0
   58.0864   30.4288   48.9063 H   0  0  0  0  0  0  0  0  0  0  0  0
   57.8944   29.0278   50.6869 H   0  0  0  0  0  0  0  0  0  0  0  0
  1  2  2  0
  2  3  1  0
  3  4  2  3
  4  5  1  0
  5  6  1  0
  6  7  1  0
  7  8  2  0
  7  9  1  0
  9 10  1  0
 10 11  1  0
  3 12  1  0
 12 13  2  0
 13 14  1  0
 13 15  1  0
 15 16  1  0
 16 17  2  0
 17 18  1  0
 18 19  2  0
 19 20  1  0
 20 21  1  0
 21 22  2  0
 21 23  1  0
 23 24  1  0
 24 25  1  0
 25 26  1  0
 26 27  1  0
 27 28  1  0
 28 29  1  0
 29 30  1  0
 26 31  1  0
 31 32  1  0
 20 33  2  0
 15  2  1  0
 33 16  1  0
 10  5  2  0
 32 23  1  0
  1 34  1  0
  1 35  1  0
  4 36  1  0
 11 37  1  0
 12 38  1  0
 14 39  1  0
 14 40  1  0
 14 41  1  0
 17 42  1  0
 18 43  1  0
 19 44  1  0
 24 45  1  0
 24 46  1  0
 25 47  1  0
 25 48  1  0
 27 49  1  0
 27 50  1  0
 28 51  1  0
 28 52  1  0
 30 53  1  0
 30 54  1  0
 30 55  1  0
 31 56  1  0
 31 57  1  0
 32 58  1  0
 32 59  1  0
 33 60  1  0
M  CHG  2   6  -1   9  -1
M  END
>  <UniqueID>  (89) 
85

>  <SMILES>  (89) 
C=c1c(=Cc2[n-]c(=O)[n-]c2O)cc(C)n1-c1cccc(C(=O)N2CCN(CCOC)CC2)c1

>  <Energy>  (89) 
152.31900231629092

>  <Genealogy>  (89) 
C=c1c(=Cc2[n-]c(=O)[n-]c2O)cc(C)n1-c1cccc(C(=O)N2CCN(CCOC)CC2)c1 (protonated)
C=c1c(=Cc2[n-]c(=O)[n-]c2O)cc(C)n1-c1cccc(C(=O)N2CCN(CCOC)CC2)c1 (3D coordinates assigned)
C=c1c(=Cc2[n-]c(=O)[n-]c2O)cc(C)n1-c1cccc(C(=O)N2CCN(CCOC)CC2)c1 (nonaromatic ring conformer: 152.31900231629092 kcal/mol)

>  <smiles>  (89) 
C=c1c(=Cc2[nH]c(=O)[nH]c2O)cc(C)n1-c1cccc(C(=O)N2CCN(CCOC)CC2)c1

>  <score_type>  (89) 
oracle

>  <origin>  (89) 
adg

>  <m_score__min__energy>  (89) 
-14.24

>  <m_primary>  (89) 
energy

$$$$
89:0
     RDKit          3D

 38 39  0  0  0  0  0  0  0  0999 V2000
   55.2810   26.9980   45.3700 H   0  0  0  0  0  0  0  0  0  0  0  0
   54.7640   26.3360   45.9920 N   0  0  0  0  0  0  0  0  0  0  0  0
   55.5370   24.7950   45.8580 S   0  0  0  0  0  0  0  0  0  0  0  0
   56.1780   24.4530   47.1730 O   0  0  0  0  0  0  0  0  0  0  0  0
   54.5140   23.7470   45.5210 O   0  0  0  0  0  0  0  0  0  0  0  0
   56.8020   24.8470   44.5930 C   0  0  0  0  0  0  0  0  0  0  0  0
   56.3264   25.0567   43.6235 H   0  0  0  0  0  0  0  0  0  0  0  0
   57.3129   23.8729   44.5831 H   0  0  0  0  0  0  0  0  0  0  0  0
   57.8470   25.9250   44.8730 C   0  0  0  0  0  0  0  0  0  0  0  0
   57.9982   26.5282   43.9656 H   0  0  0  0  0  0  0  0  0  0  0  0
   58.7906   25.4411   45.1655 H   0  0  0  0  0  0  0  0  0  0  0  0
   57.4010   26.7940   45.9610 N   0  0  0  0  0  0  0  0  0  0  0  0
   58.1390   27.6890   46.5480 C   0  0  0  0  0  0  0  0  0  0  0  0
   58.8919   27.3570   47.2780 H   0  0  0  0  0  0  0  0  0  0  0  0
   58.0060   29.1350   46.2730 C   0  0  0  0  0  0  0  0  0  0  0  0
   56.9900   29.6220   45.4380 C   0  0  0  0  0  0  0  0  0  0  0  0
   56.0660   28.7710   44.8290 O   0  0  0  0  0  0  0  0  0  0  0  0
   56.1310   27.7630   44.8860 H   0  0  0  0  0  0  0  0  0  0  0  0
   56.9010   30.9540   45.2030 N   0  0  0  0  0  0  0  0  0  0  0  0
   57.7710   31.8370   45.7550 C   0  0  0  0  0  0  0  0  0  0  0  0
   57.6500   33.0630   45.4900 O   0  0  0  0  0  0  0  0  0  0  0  0
   58.7690   31.3950   46.5810 N   0  0  0  0  0  0  0  0  0  0  0  0
   59.6930   32.3370   47.1620 C   0  0  0  0  0  0  0  0  0  0  0  0
   60.7070   32.8860   46.3630 C   0  0  0  0  0  0  0  0  0  0  0  0
   60.7968   32.5838   45.3091 H   0  0  0  0  0  0  0  0  0  0  0  0
   61.6030   33.8140   46.8980 C   0  0  0  0  0  0  0  0  0  0  0  0
   62.3980   34.2373   46.2664 H   0  0  0  0  0  0  0  0  0  0  0  0
   61.4910   34.2050   48.2330 C   0  0  0  0  0  0  0  0  0  0  0  0
   62.1937   34.9414   48.6501 H   0  0  0  0  0  0  0  0  0  0  0  0
   60.4880   33.6630   49.0410 C   0  0  0  0  0  0  0  0  0  0  0  0
   60.3997   33.9818   50.0901 H   0  0  0  0  0  0  0  0  0  0  0  0
   59.5910   32.7130   48.5220 C   0  0  0  0  0  0  0  0  0  0  0  0
   58.5100   32.1570   49.4080 C   0  0  0  0  0  0  0  0  0  0  0  0
   58.7897   32.3009   50.4621 H   0  0  0  0  0  0  0  0  0  0  0  0
   57.5641   32.6805   49.2049 H   0  0  0  0  0  0  0  0  0  0  0  0
   58.3857   31.0831   49.2049 H   0  0  0  0  0  0  0  0  0  0  0  0
   58.8840   30.0590   46.8640 C   0  0  0  0  0  0  0  0  0  0  0  0
   59.7740   29.6550   47.6650 O   0  0  0  0  0  0  0  0  0  0  0  0
  1  2  1  0
  2  3  1  0
  3  4  2  0
  3  5  2  0
  3  6  1  0
  6  7  1  0
  6  8  1  0
  6  9  1  0
  9 10  1  0
  9 11  1  0
  9 12  1  0
 12 13  2  0
 13 14  1  0
 13 15  1  0
 15 16  2  0
 16 17  1  0
 17 18  1  0
 16 19  1  0
 19 20  1  0
 20 21  2  0
 20 22  1  0
 22 23  1  0
 23 24  2  0
 24 25  1  0
 24 26  1  0
 26 27  1  0
 26 28  2  0
 28 29  1  0
 28 30  1  0
 30 31  1  0
 30 32  2  0
 32 33  1  0
 33 34  1  0
 33 35  1  0
 33 36  1  0
 22 37  1  0
 37 38  2  0
 37 15  1  0
 32 23  1  0
M  CHG  2   2  -1  19  -1
M  END
>  <UniqueID>  (90) 
86

>  <SMILES>  (90) 
Cc1ccccc1-n1c(=O)[n-]c(O)c(/C=N\CCS([NH-])(=O)=O)c1=O

>  <Energy>  (90) 
49.386772746686056

>  <Genealogy>  (90) 
Cc1ccccc1-n1c(=O)[n-]c(O)c(C=NCCS([NH-])(=O)=O)c1=O (protonated)
Cc1ccccc1-n1c(=O)[n-]c(O)c(/C=N\CCS([NH-])(=O)=O)c1=O (cis-trans isomerization)
Cc1ccccc1-n1c(=O)[n-]c(O)c(/C=N\CCS([NH-])(=O)=O)c1=O (3D coordinates assigned)
Cc1ccccc1-n1c(=O)[n-]c(O)c(/C=N\CCS([NH-])(=O)=O)c1=O (optimized conformer: 49.386772746686056 kcal/mol)

>  <smiles>  (90) 
Cc1ccccc1-n1c(=O)[nH]c(O)c(C=NCCS(N)(=O)=O)c1=O

>  <score_type>  (90) 
oracle

>  <origin>  (90) 
adg

>  <m_score__min__energy>  (90) 
-11.6

>  <m_primary>  (90) 
energy

$$$$
90:0
     RDKit          3D

 53 54  0  0  0  0  0  0  0  0999 V2000
   56.4070   23.4180   43.2950 C   0  0  0  0  0  0  0  0  0  0  0  0
   56.6810   24.0050   44.4720 C   0  0  0  0  0  0  0  0  0  0  0  0
   58.0890   23.9740   45.0020 C   0  0  0  0  0  0  0  0  0  0  0  0
   55.5800   24.6780   45.2630 C   0  0  0  0  0  0  0  0  0  0  0  0
   56.1290   25.8560   46.0750 C   0  0  0  0  0  0  0  0  0  0  0  0
   55.5290   27.1080   45.6270 N   0  0  0  0  0  0  0  0  0  0  0  0
   56.2850   28.2870   45.3350 C   0  0  0  0  0  0  0  0  0  0  0  0
   55.7060   29.3360   44.9470 O   0  0  0  0  0  0  0  0  0  0  0  0
   57.7730   28.2630   45.4600 C   0  0  0  0  0  0  0  0  0  0  0  0
   58.4210   29.0140   44.2950 C   0  0  0  0  0  0  0  0  0  0  0  0
   58.3900   30.4610   44.5420 N   0  0  0  0  0  0  0  0  0  0  0  0
   57.7410   31.3840   43.7940 C   0  0  0  0  0  0  0  0  0  0  0  0
   56.9910   31.0940   42.5300 C   0  0  0  0  0  0  0  0  0  0  0  0
   57.9130   32.6440   44.3300 C   0  0  0  0  0  0  0  0  0  0  0  0
   58.6790   32.4820   45.4660 C   0  0  0  0  0  0  0  0  0  0  0  0
   59.2120   33.8120   46.4940 S   0  0  0  0  0  0  0  0  0  0  0  0
   59.5350   34.9840   45.6090 O   0  0  0  0  0  0  0  0  0  0  0  0
   58.1170   34.2270   47.4370 O   0  0  0  0  0  0  0  0  0  0  0  0
   60.6510   33.3470   47.3660 N   0  0  0  0  0  0  0  0  0  0  0  0
   60.8300   34.1350   48.5870 C   0  0  0  0  0  0  0  0  0  0  0  0
   62.3280   34.1850   48.8620 C   0  0  0  0  0  0  0  0  0  0  0  0
   62.9920   33.7580   47.5590 C   0  0  0  0  0  0  0  0  0  0  0  0
   61.8520   33.5940   46.5690 C   0  0  0  0  0  0  0  0  0  0  0  0
   58.9490   31.1220   45.5850 C   0  0  0  0  0  0  0  0  0  0  0  0
   59.8110   30.4680   46.6280 C   0  0  0  0  0  0  0  0  0  0  0  0
   55.3814   23.4344   42.8978 H   0  0  0  0  0  0  0  0  0  0  0  0
   57.2083   22.9210   42.7285 H   0  0  0  0  0  0  0  0  0  0  0  0
   58.0669   23.9745   46.1018 H   0  0  0  0  0  0  0  0  0  0  0  0
   58.5949   23.0645   44.6458 H   0  0  0  0  0  0  0  0  0  0  0  0
   58.6345   24.8604   44.6458 H   0  0  0  0  0  0  0  0  0  0  0  0
   54.8117   25.0472   44.5678 H   0  0  0  0  0  0  0  0  0  0  0  0
   55.1488   23.9432   45.9588 H   0  0  0  0  0  0  0  0  0  0  0  0
   55.8953   25.7027   47.1389 H   0  0  0  0  0  0  0  0  0  0  0  0
   57.2181   25.9113   45.9306 H   0  0  0  0  0  0  0  0  0  0  0  0
   58.0645   28.7420   46.4063 H   0  0  0  0  0  0  0  0  0  0  0  0
   58.1145   27.2175   45.4431 H   0  0  0  0  0  0  0  0  0  0  0  0
   59.4656   28.6863   44.1881 H   0  0  0  0  0  0  0  0  0  0  0  0
   57.8618   28.7961   43.3732 H   0  0  0  0  0  0  0  0  0  0  0  0
   55.9913   30.7074   42.7773 H   0  0  0  0  0  0  0  0  0  0  0  0
   56.8916   32.0185   41.9423 H   0  0  0  0  0  0  0  0  0  0  0  0
   57.5394   30.3431   41.9423 H   0  0  0  0  0  0  0  0  0  0  0  0
   57.5178   33.5898   43.9308 H   0  0  0  0  0  0  0  0  0  0  0  0
   60.4372   35.1523   48.4424 H   0  0  0  0  0  0  0  0  0  0  0  0
   60.2882   33.6839   49.4313 H   0  0  0  0  0  0  0  0  0  0  0  0
   62.6356   35.2054   49.1345 H   0  0  0  0  0  0  0  0  0  0  0  0
   62.6125   33.5316   49.6999 H   0  0  0  0  0  0  0  0  0  0  0  0
   63.6957   34.5296   47.2133 H   0  0  0  0  0  0  0  0  0  0  0  0
   63.5722   32.8309   47.6767 H   0  0  0  0  0  0  0  0  0  0  0  0
   61.7313   34.5096   45.9715 H   0  0  0  0  0  0  0  0  0  0  0  0
   62.0451   32.7678   45.8690 H   0  0  0  0  0  0  0  0  0  0  0  0
   59.4479   30.7435   47.6291 H   0  0  0  0  0  0  0  0  0  0  0  0
   59.7651   29.3754   46.5091 H   0  0  0  0  0  0  0  0  0  0  0  0
   60.8509   30.8064   46.5091 H   0  0  0  0  0  0  0  0  0  0  0  0
  1  2  2  0
  2  3  1  0
  2  4  1  0
  4  5  1  0
  5  6  1  0
  6  7  1  0
  7  8  2  0
  7  9  1  0
  9 10  1  0
 10 11  1  0
 11 12  1  0
 12 13  1  0
 12 14  2  0
 14 15  1  0
 15 16  1  0
 16 17  2  0
 16 18  2  0
 16 19  1  0
 19 20  1  0
 20 21  1  0
 21 22  1  0
 22 23  1  0
 15 24  2  0
 24 25  1  0
 24 11  1  0
 23 19  1  0
  1 26  1  0
  1 27  1  0
  3 28  1  0
  3 29  1  0
  3 30  1  0
  4 31  1  0
  4 32  1  0
  5 33  1  0
  5 34  1  0
  9 35  1  0
  9 36  1  0
 10 37  1  0
 10 38  1  0
 13 39  1  0
 13 40  1  0
 13 41  1  0
 14 42  1  0
 20 43  1  0
 20 44  1  0
 21 45  1  0
 21 46  1  0
 22 47  1  0
 22 48  1  0
 23 49  1  0
 23 50  1  0
 25 51  1  0
 25 52  1  0
 25 53  1  0
M  CHG  1   6  -1
M  END
>  <UniqueID>  (91) 
87

>  <SMILES>  (91) 
C=C(C)CC[N-]C(=O)CCn1c(C)cc(S(=O)(=O)N2CCCC2)c1C

>  <Energy>  (91) 
64.64461412316945

>  <Genealogy>  (91) 
C=C(C)CC[N-]C(=O)CCn1c(C)cc(S(=O)(=O)N2CCCC2)c1C (protonated)
C=C(C)CC[N-]C(=O)CCn1c(C)cc(S(=O)(=O)N2CCCC2)c1C (3D coordinates assigned)
C=C(C)CC[N-]C(=O)CCn1c(C)cc(S(=O)(=O)N2CCCC2)c1C (nonaromatic ring conformer: 64.64461412316945 kcal/mol)

>  <smiles>  (91) 
C=C(C)CCNC(=O)CCn1c(C)cc(S(=O)(=O)N2CCCC2)c1C

>  <score_type>  (91) 
oracle

>  <origin>  (91) 
adg

>  <m_score__min__energy>  (91) 
-10.48

>  <m_primary>  (91) 
energy

$$$$
